YEH.pdb
     RDKit          3D

 32 33  0  0  1  0  0  0  0  0999 V2000
   23.3468   -2.6276  -13.8066 O   0  0  0  0  0  0  0  0  0  0  0  0
   22.6241   -3.7192  -14.2350 C   0  0  0  0  0  0  0  0  0  0  0  0
   21.2403   -3.6696  -14.3229 C   0  0  0  0  0  0  0  0  0  0  0  0
   20.5291   -4.7694  -14.7534 C   0  0  0  0  0  0  0  0  0  0  0  0
   21.1429   -5.9508  -15.1112 C   0  0  0  0  0  0  0  0  0  0  0  0
   20.3237   -7.0956  -15.5569 C   0  0  0  0  0  0  0  0  0  0  0  0
   20.1484   -7.1878  -17.0443 C   0  0  2  0  0  0  0  0  0  0  0  0
   19.4417   -5.9634  -17.4540 N   0  0  0  0  0  0  0  0  0  0  0  0
   19.3387   -8.3788  -17.4073 C   0  0  0  0  0  0  0  0  0  0  0  0
   18.0893   -8.3118  -17.5421 O   0  0  0  0  0  0  0  0  0  0  0  0
   22.5183   -5.9946  -15.0217 C   0  0  0  0  0  0  0  0  0  0  0  0
   23.2502   -4.8951  -14.5899 C   0  0  0  0  0  0  0  0  0  0  0  0
   19.9169   -9.6589  -17.6229 N   0  0  0  0  0  0  0  0  0  0  0  0
   19.1722  -10.7889  -18.1759 C   0  0  1  0  0  0  0  0  0  0  0  0
   20.0846  -11.6275  -19.0322 C   0  0  0  0  0  0  0  0  0  0  0  0
   19.3388  -12.6844  -19.7809 C   0  0  0  0  0  0  0  0  0  0  0  0
   20.1652  -13.5380  -20.6424 C   0  0  0  0  0  0  0  0  0  0  0  0
   20.9717  -13.1525  -21.5104 O   0  0  0  0  0  0  0  0  0  0  0  0
   18.6457  -11.6463  -17.0613 C   0  0  0  0  0  0  0  0  0  0  0  0
   19.2888  -11.7012  -15.9967 O   0  0  0  0  0  0  0  0  0  0  0  0
   20.0297  -14.9264  -20.4679 O   0  0  0  0  0  0  0  0  0  0  0  0
   17.4533  -12.3846  -17.1857 N   0  0  0  0  0  0  0  0  0  0  0  0
   16.9609  -13.2292  -16.0522 C   0  0  1  0  0  0  0  0  0  0  0  0
   15.4792  -13.1446  -16.0286 C   0  0  0  0  0  0  0  0  0  0  0  0
   14.7762  -14.0053  -15.0794 C   0  0  0  0  0  0  0  0  0  0  0  0
   14.3701  -13.8626  -13.7921 C   0  0  0  0  0  0  0  0  0  0  0  0
   13.7116  -14.9980  -13.4506 N   0  0  0  0  0  0  0  0  0  0  0  0
   13.6994  -15.8358  -14.4911 C   0  0  0  0  0  0  0  0  0  0  0  0
   14.3409  -15.2389  -15.4749 N   0  0  0  0  0  0  0  0  0  0  0  0
   17.3973  -14.5978  -16.4664 C   0  0  0  0  0  0  0  0  0  0  0  0
   17.4605  -14.9677  -17.7954 O   0  0  0  0  0  0  0  0  0  0  0  0
   17.7150  -15.4384  -15.6163 O   0  0  0  0  0  0  0  0  0  0  0  0
  2  1  1  0
  2  3  2  0
  4  3  1  0
  5  4  2  0
  6  5  1  0
  6  7  1  0
  7  8  1  1
  9  7  1  0
  9 10  2  0
 11 12  2  0
 11  5  1  0
 12  2  1  0
 13  9  1  0
 14 13  1  0
 14 15  1  6
 16 15  1  0
 16 17  1  0
 17 18  2  0
 19 14  1  0
 20 19  2  0
 21 17  1  0
 22 19  1  0
 23 24  1  6
 23 22  1  0
 25 24  1  0
 26 25  2  0
 27 28  1  0
 27 26  1  0
 28 29  2  0
 29 25  1  0
 30 23  1  0
 31 30  1  0
 32 30  2  0
M  END
$$$$
