YEH.pdb
     RDKit          3D

 32 33  0  0  1  0  0  0  0  0999 V2000
   16.2289  -18.0573  -19.6126 O   0  0  0  0  0  0  0  0  0  0  0  0
   16.8805  -16.9990  -19.0183 C   0  0  0  0  0  0  0  0  0  0  0  0
   17.1758  -15.8486  -19.7356 C   0  0  0  0  0  0  0  0  0  0  0  0
   17.8284  -14.7967  -19.1286 C   0  0  0  0  0  0  0  0  0  0  0  0
   18.2134  -14.8325  -17.8054 C   0  0  0  0  0  0  0  0  0  0  0  0
   18.9163  -13.6755  -17.2160 C   0  0  0  0  0  0  0  0  0  0  0  0
   20.2593  -13.3938  -17.8233 C   0  0  2  0  0  0  0  0  0  0  0  0
   21.1063  -14.5564  -17.5110 N   0  0  0  0  0  0  0  0  0  0  0  0
   20.8567  -12.1669  -17.2370 C   0  0  0  0  0  0  0  0  0  0  0  0
   21.3153  -12.1508  -16.0651 O   0  0  0  0  0  0  0  0  0  0  0  0
   17.9176  -15.9783  -17.0973 C   0  0  0  0  0  0  0  0  0  0  0  0
   17.2603  -17.0475  -17.6939 C   0  0  0  0  0  0  0  0  0  0  0  0
   20.9472  -10.9434  -17.9541 N   0  0  0  0  0  0  0  0  0  0  0  0
   21.4323   -9.7009  -17.3558 C   0  0  1  0  0  0  0  0  0  0  0  0
   21.7722   -8.7138  -18.4418 C   0  0  0  0  0  0  0  0  0  0  0  0
   22.2704   -7.4181  -17.8880 C   0  0  0  0  0  0  0  0  0  0  0  0
   22.6711   -6.4249  -18.8915 C   0  0  0  0  0  0  0  0  0  0  0  0
   23.0761   -5.2684  -18.6666 O   0  0  0  0  0  0  0  0  0  0  0  0
   20.3634   -9.1025  -16.4874 C   0  0  0  0  0  0  0  0  0  0  0  0
   19.1858   -9.1252  -16.8905 O   0  0  0  0  0  0  0  0  0  0  0  0
   22.5875   -6.8221  -20.2375 O   0  0  0  0  0  0  0  0  0  0  0  0
   20.6539   -8.5206  -15.2386 N   0  0  0  0  0  0  0  0  0  0  0  0
   19.5733   -7.8668  -14.4353 C   0  0  1  0  0  0  0  0  0  0  0  0
   19.6789   -8.3599  -13.0393 C   0  0  0  0  0  0  0  0  0  0  0  0
   18.7664   -7.7803  -12.0556 C   0  0  0  0  0  0  0  0  0  0  0  0
   17.8058   -6.8226  -12.1033 C   0  0  0  0  0  0  0  0  0  0  0  0
   17.2499   -6.7496  -10.8683 N   0  0  0  0  0  0  0  0  0  0  0  0
   17.8398   -7.6360  -10.0614 C   0  0  0  0  0  0  0  0  0  0  0  0
   18.7548   -8.2590  -10.7756 N   0  0  0  0  0  0  0  0  0  0  0  0
   19.9565   -6.4235  -14.5076 C   0  0  0  0  0  0  0  0  0  0  0  0
   21.1658   -6.0199  -15.0385 O   0  0  0  0  0  0  0  0  0  0  0  0
   19.1884   -5.5493  -14.0879 O   0  0  0  0  0  0  0  0  0  0  0  0
  2  1  1  0
  2  3  2  0
  4  3  1  0
  5  4  2  0
  6  5  1  0
  6  7  1  0
  7  8  1  1
  9  7  1  0
  9 10  2  0
 11 12  2  0
 11  5  1  0
 12  2  1  0
 13  9  1  0
 14 13  1  0
 14 15  1  6
 16 15  1  0
 16 17  1  0
 17 18  2  0
 19 14  1  0
 20 19  2  0
 21 17  1  0
 22 19  1  0
 23 24  1  1
 23 22  1  0
 25 24  1  0
 26 25  2  0
 27 28  1  0
 27 26  1  0
 28 29  2  0
 29 25  1  0
 30 23  1  0
 31 30  1  0
 32 30  2  0
M  END
$$$$
