YEH.pdb
     RDKit          3D

 32 33  0  0  1  0  0  0  0  0999 V2000
   28.9927  -19.3592   -5.4564 O   0  0  0  0  0  0  0  0  0  0  0  0
   28.4397  -19.5956   -6.6957 C   0  0  0  0  0  0  0  0  0  0  0  0
   29.1169  -20.3421   -7.6492 C   0  0  0  0  0  0  0  0  0  0  0  0
   28.5518  -20.5712   -8.8857 C   0  0  0  0  0  0  0  0  0  0  0  0
   27.3108  -20.0808   -9.2318 C   0  0  0  0  0  0  0  0  0  0  0  0
   26.7642  -20.3550  -10.5758 C   0  0  0  0  0  0  0  0  0  0  0  0
   25.7548  -21.4644  -10.6176 C   0  0  2  0  0  0  0  0  0  0  0  0
   26.5219  -22.7193  -10.6779 N   0  0  0  0  0  0  0  0  0  0  0  0
   24.8911  -21.3470  -11.8202 C   0  0  0  0  0  0  0  0  0  0  0  0
   25.1437  -21.9789  -12.8788 O   0  0  0  0  0  0  0  0  0  0  0  0
   26.6424  -19.3394   -8.2805 C   0  0  0  0  0  0  0  0  0  0  0  0
   27.1975  -19.0992   -7.0294 C   0  0  0  0  0  0  0  0  0  0  0  0
   23.7354  -20.5209  -11.8531 N   0  0  0  0  0  0  0  0  0  0  0  0
   22.6553  -20.6965  -12.8224 C   0  0  1  0  0  0  0  0  0  0  0  0
   21.3454  -20.2858  -12.2023 C   0  0  0  0  0  0  0  0  0  0  0  0
   20.7401  -21.3835  -11.3883 C   0  0  0  0  0  0  0  0  0  0  0  0
   20.0941  -22.4497  -12.1628 C   0  0  0  0  0  0  0  0  0  0  0  0
   19.5514  -23.4726  -11.7032 O   0  0  0  0  0  0  0  0  0  0  0  0
   22.9039  -19.8315  -14.0243 C   0  0  0  0  0  0  0  0  0  0  0  0
   23.4282  -18.7149  -13.8569 O   0  0  0  0  0  0  0  0  0  0  0  0
   20.0901  -22.2975  -13.5605 O   0  0  0  0  0  0  0  0  0  0  0  0
   22.5631  -20.2452  -15.3263 N   0  0  0  0  0  0  0  0  0  0  0  0
   22.8639  -19.3720  -16.5041 C   0  0  1  0  0  0  0  0  0  0  0  0
   23.1149  -20.2512  -17.6734 C   0  0  0  0  0  0  0  0  0  0  0  0
   23.3013  -19.6019  -18.9694 C   0  0  0  0  0  0  0  0  0  0  0  0
   23.3550  -18.3102  -19.3829 C   0  0  0  0  0  0  0  0  0  0  0  0
   23.6040  -18.3253  -20.7160 N   0  0  0  0  0  0  0  0  0  0  0  0
   23.7063  -19.5895  -21.1355 C   0  0  0  0  0  0  0  0  0  0  0  0
   23.5243  -20.3613  -20.0836 N   0  0  0  0  0  0  0  0  0  0  0  0
   21.5799  -18.6267  -16.6799 C   0  0  0  0  0  0  0  0  0  0  0  0
   21.5470  -17.3558  -17.2194 O   0  0  0  0  0  0  0  0  0  0  0  0
   20.5062  -19.1394  -16.3415 O   0  0  0  0  0  0  0  0  0  0  0  0
  2  1  1  0
  2  3  2  0
  4  3  1  0
  5  4  2  0
  6  5  1  0
  6  7  1  0
  7  8  1  6
  9  7  1  0
  9 10  2  0
 11 12  2  0
 11  5  1  0
 12  2  1  0
 13  9  1  0
 14 13  1  0
 14 15  1  1
 16 15  1  0
 16 17  1  0
 17 18  2  0
 19 14  1  0
 20 19  2  0
 21 17  1  0
 22 19  1  0
 23 24  1  6
 23 22  1  0
 25 24  1  0
 26 25  2  0
 27 28  1  0
 27 26  1  0
 28 29  2  0
 29 25  1  0
 30 23  1  0
 31 30  1  0
 32 30  2  0
M  END
$$$$
