YEH.pdb
     RDKit          3D

 32 33  0  0  1  0  0  0  0  0999 V2000
   28.9474  -20.2854   -3.5079 O   0  0  0  0  0  0  0  0  0  0  0  0
   28.3884  -20.1091   -4.7546 C   0  0  0  0  0  0  0  0  0  0  0  0
   27.1945  -20.7280   -5.0958 C   0  0  0  0  0  0  0  0  0  0  0  0
   26.6459  -20.5429   -6.3471 C   0  0  0  0  0  0  0  0  0  0  0  0
   27.2425  -19.7500   -7.3040 C   0  0  0  0  0  0  0  0  0  0  0  0
   26.6080  -19.5985   -8.6286 C   0  0  0  0  0  0  0  0  0  0  0  0
   26.7984  -20.7731   -9.5428 C   0  0  2  0  0  0  0  0  0  0  0  0
   28.2516  -20.9787   -9.6545 N   0  0  0  0  0  0  0  0  0  0  0  0
   26.2272  -20.4949  -10.8853 C   0  0  0  0  0  0  0  0  0  0  0  0
   26.6016  -19.5081  -11.5707 O   0  0  0  0  0  0  0  0  0  0  0  0
   28.4291  -19.1375   -6.9595 C   0  0  0  0  0  0  0  0  0  0  0  0
   28.9954  -19.3134   -5.7028 C   0  0  0  0  0  0  0  0  0  0  0  0
   25.2298  -21.3167  -11.4764 N   0  0  0  0  0  0  0  0  0  0  0  0
   24.4896  -20.9352  -12.6779 C   0  0  1  0  0  0  0  0  0  0  0  0
   24.8930  -21.8234  -13.8257 C   0  0  0  0  0  0  0  0  0  0  0  0
   25.9871  -22.7688  -13.4475 C   0  0  0  0  0  0  0  0  0  0  0  0
   26.4049  -23.6940  -14.5074 C   0  0  0  0  0  0  0  0  0  0  0  0
   26.0008  -24.8609  -14.6720 O   0  0  0  0  0  0  0  0  0  0  0  0
   23.0160  -21.1025  -12.4428 C   0  0  0  0  0  0  0  0  0  0  0  0
   22.6169  -21.3045  -11.2810 O   0  0  0  0  0  0  0  0  0  0  0  0
   27.3551  -23.2116  -15.4245 O   0  0  0  0  0  0  0  0  0  0  0  0
   22.0796  -21.0376  -13.4923 N   0  0  0  0  0  0  0  0  0  0  0  0
   20.7153  -20.4680  -13.2590 C   0  0  1  0  0  0  0  0  0  0  0  0
   20.8762  -19.0573  -12.8263 C   0  0  0  0  0  0  0  0  0  0  0  0
   19.6623  -18.2514  -12.7113 C   0  0  0  0  0  0  0  0  0  0  0  0
   18.5829  -18.2766  -11.8887 C   0  0  0  0  0  0  0  0  0  0  0  0
   17.7906  -17.2314  -12.2340 N   0  0  0  0  0  0  0  0  0  0  0  0
   18.3516  -16.5623  -13.2451 C   0  0  0  0  0  0  0  0  0  0  0  0
   19.4809  -17.1757  -13.5345 N   0  0  0  0  0  0  0  0  0  0  0  0
   20.1112  -20.5273  -14.6252 C   0  0  0  0  0  0  0  0  0  0  0  0
   18.7487  -20.6549  -14.8109 O   0  0  0  0  0  0  0  0  0  0  0  0
   20.8285  -20.4624  -15.6310 O   0  0  0  0  0  0  0  0  0  0  0  0
  2  1  1  0
  2  3  2  0
  4  3  1  0
  5  4  2  0
  6  5  1  0
  6  7  1  0
  7  8  1  6
  9  7  1  0
  9 10  2  0
 11 12  2  0
 11  5  1  0
 12  2  1  0
 13  9  1  0
 14 13  1  0
 14 15  1  6
 16 15  1  0
 16 17  1  0
 17 18  2  0
 19 14  1  0
 20 19  2  0
 21 17  1  0
 22 19  1  0
 23 24  1  6
 23 22  1  0
 25 24  1  0
 26 25  2  0
 27 28  1  0
 27 26  1  0
 28 29  2  0
 29 25  1  0
 30 23  1  0
 31 30  1  0
 32 30  2  0
M  END
$$$$
