YEH.pdb
     RDKit          3D

 32 33  0  0  1  0  0  0  0  0999 V2000
   26.4762  -11.1672  -24.6281 O   0  0  0  0  0  0  0  0  0  0  0  0
   25.8261  -10.9789  -23.4283 C   0  0  0  0  0  0  0  0  0  0  0  0
   25.6278  -12.0346  -22.5502 C   0  0  0  0  0  0  0  0  0  0  0  0
   24.9756  -11.8323  -21.3525 C   0  0  0  0  0  0  0  0  0  0  0  0
   24.4965  -10.5966  -20.9731 C   0  0  0  0  0  0  0  0  0  0  0  0
   23.7994  -10.4472  -19.6801 C   0  0  0  0  0  0  0  0  0  0  0  0
   24.6185   -9.7887  -18.6092 C   0  0  2  0  0  0  0  0  0  0  0  0
   25.7121  -10.7217  -18.2926 N   0  0  0  0  0  0  0  0  0  0  0  0
   23.8003   -9.5451  -17.3938 C   0  0  0  0  0  0  0  0  0  0  0  0
   23.5090  -10.4744  -16.5967 O   0  0  0  0  0  0  0  0  0  0  0  0
   24.6961   -9.5509  -21.8498 C   0  0  0  0  0  0  0  0  0  0  0  0
   25.3516   -9.7377  -23.0608 C   0  0  0  0  0  0  0  0  0  0  0  0
   23.2976   -8.2595  -17.0562 N   0  0  0  0  0  0  0  0  0  0  0  0
   22.5216   -7.9980  -15.8452 C   0  0  1  0  0  0  0  0  0  0  0  0
   22.5683   -6.5278  -15.5204 C   0  0  0  0  0  0  0  0  0  0  0  0
   21.7669   -6.1952  -14.3035 C   0  0  0  0  0  0  0  0  0  0  0  0
   21.7469   -4.7733  -13.9404 C   0  0  0  0  0  0  0  0  0  0  0  0
   20.8812   -3.9389  -14.2670 O   0  0  0  0  0  0  0  0  0  0  0  0
   21.0890   -8.3912  -16.0635 C   0  0  0  0  0  0  0  0  0  0  0  0
   20.5129   -7.9964  -17.0941 O   0  0  0  0  0  0  0  0  0  0  0  0
   22.8115   -4.3120  -13.1465 O   0  0  0  0  0  0  0  0  0  0  0  0
   20.3840   -9.1884  -15.1416 N   0  0  0  0  0  0  0  0  0  0  0  0
   18.9902   -9.6442  -15.4414 C   0  0  1  0  0  0  0  0  0  0  0  0
   18.7659  -10.9281  -14.7310 C   0  0  0  0  0  0  0  0  0  0  0  0
   17.4268  -11.5086  -14.8075 C   0  0  0  0  0  0  0  0  0  0  0  0
   16.2772  -11.1588  -15.4388 C   0  0  0  0  0  0  0  0  0  0  0  0
   15.3642  -12.1265  -15.1757 N   0  0  0  0  0  0  0  0  0  0  0  0
   15.9187  -13.0632  -14.4013 C   0  0  0  0  0  0  0  0  0  0  0  0
   17.1630  -12.6926  -14.1781 N   0  0  0  0  0  0  0  0  0  0  0  0
   18.1650   -8.5591  -14.8276 C   0  0  0  0  0  0  0  0  0  0  0  0
   16.9339   -8.2044  -15.3433 O   0  0  0  0  0  0  0  0  0  0  0  0
   18.5727   -7.9485  -13.8320 O   0  0  0  0  0  0  0  0  0  0  0  0
  2  1  1  0
  2  3  2  0
  4  3  1  0
  5  4  2  0
  6  5  1  0
  6  7  1  0
  7  8  1  1
  9  7  1  0
  9 10  2  0
 11 12  2  0
 11  5  1  0
 12  2  1  0
 13  9  1  0
 14 13  1  0
 14 15  1  6
 16 15  1  0
 16 17  1  0
 17 18  2  0
 19 14  1  0
 20 19  2  0
 21 17  1  0
 22 19  1  0
 23 24  1  1
 23 22  1  0
 25 24  1  0
 26 25  2  0
 27 28  1  0
 27 26  1  0
 28 29  2  0
 29 25  1  0
 30 23  1  0
 31 30  1  0
 32 30  2  0
M  END
$$$$
