YEH.pdb
     RDKit          3D

 32 33  0  0  1  0  0  0  0  0999 V2000
   21.7415  -27.0414  -23.6201 O   0  0  0  0  0  0  0  0  0  0  0  0
   21.7000  -26.9246  -22.2482 C   0  0  0  0  0  0  0  0  0  0  0  0
   22.8380  -27.1237  -21.4798 C   0  0  0  0  0  0  0  0  0  0  0  0
   22.7826  -27.0037  -20.1075 C   0  0  0  0  0  0  0  0  0  0  0  0
   21.6181  -26.6864  -19.4414 C   0  0  0  0  0  0  0  0  0  0  0  0
   21.6230  -26.5803  -17.9686 C   0  0  0  0  0  0  0  0  0  0  0  0
   21.4915  -25.1785  -17.4499 C   0  0  2  0  0  0  0  0  0  0  0  0
   22.7436  -24.4886  -17.8008 N   0  0  0  0  0  0  0  0  0  0  0  0
   21.3146  -25.1760  -15.9752 C   0  0  0  0  0  0  0  0  0  0  0  0
   22.2976  -25.1081  -15.1923 O   0  0  0  0  0  0  0  0  0  0  0  0
   20.4901  -26.4898  -20.2099 C   0  0  0  0  0  0  0  0  0  0  0  0
   20.5288  -26.6068  -21.5941 C   0  0  0  0  0  0  0  0  0  0  0  0
   20.0363  -25.2503  -15.3589 N   0  0  0  0  0  0  0  0  0  0  0  0
   19.8360  -25.1195  -13.9168 C   0  0  1  0  0  0  0  0  0  0  0  0
   18.5015  -24.4751  -13.6464 C   0  0  0  0  0  0  0  0  0  0  0  0
   18.2854  -24.2196  -12.1897 C   0  0  0  0  0  0  0  0  0  0  0  0
   16.9912  -23.6175  -11.8484 C   0  0  0  0  0  0  0  0  0  0  0  0
   16.0345  -23.4315  -12.6244 O   0  0  0  0  0  0  0  0  0  0  0  0
   19.8466  -26.4773  -13.2758 C   0  0  0  0  0  0  0  0  0  0  0  0
   19.2203  -27.4014  -13.8268 O   0  0  0  0  0  0  0  0  0  0  0  0
   16.8190  -23.2119  -10.5133 O   0  0  0  0  0  0  0  0  0  0  0  0
   20.5404  -26.7327  -12.0775 N   0  0  0  0  0  0  0  0  0  0  0  0
   20.7457  -28.1373  -11.6031 C   0  0  1  0  0  0  0  0  0  0  0  0
   21.7631  -28.1113  -10.5227 C   0  0  0  0  0  0  0  0  0  0  0  0
   22.0593  -29.3765   -9.8536 C   0  0  0  0  0  0  0  0  0  0  0  0
   21.5699  -30.6385   -9.9540 C   0  0  0  0  0  0  0  0  0  0  0  0
   22.2826  -31.4146   -9.1001 N   0  0  0  0  0  0  0  0  0  0  0  0
   23.1979  -30.6670   -8.4773 C   0  0  0  0  0  0  0  0  0  0  0  0
   23.0653  -29.4372   -8.9305 N   0  0  0  0  0  0  0  0  0  0  0  0
   19.4023  -28.4808  -11.0444 C   0  0  0  0  0  0  0  0  0  0  0  0
   18.6799  -27.5799  -10.2870 O   0  0  0  0  0  0  0  0  0  0  0  0
   18.9031  -29.5936  -11.2516 O   0  0  0  0  0  0  0  0  0  0  0  0
  2  1  1  0
  2  3  2  0
  4  3  1  0
  5  4  2  0
  6  5  1  0
  6  7  1  0
  7  8  1  1
  9  7  1  0
  9 10  2  0
 11 12  2  0
 11  5  1  0
 12  2  1  0
 13  9  1  0
 14 13  1  0
 14 15  1  6
 16 15  1  0
 16 17  1  0
 17 18  2  0
 19 14  1  0
 20 19  2  0
 21 17  1  0
 22 19  1  0
 23 24  1  1
 23 22  1  0
 25 24  1  0
 26 25  2  0
 27 28  1  0
 27 26  1  0
 28 29  2  0
 29 25  1  0
 30 23  1  0
 31 30  1  0
 32 30  2  0
M  END
$$$$
