YEH.pdb
     RDKit          3D

 32 33  0  0  1  0  0  0  0  0999 V2000
   25.5326  -15.7925  -15.7503 O   0  0  0  0  0  0  0  0  0  0  0  0
   26.5579  -14.9278  -16.0643 C   0  0  0  0  0  0  0  0  0  0  0  0
   26.6035  -14.2918  -17.2967 C   0  0  0  0  0  0  0  0  0  0  0  0
   27.6354  -13.4286  -17.5981 C   0  0  0  0  0  0  0  0  0  0  0  0
   28.6541  -13.1582  -16.7096 C   0  0  0  0  0  0  0  0  0  0  0  0
   29.7351  -12.2296  -17.0959 C   0  0  0  0  0  0  0  0  0  0  0  0
   30.4707  -12.6228  -18.3433 C   0  0  2  0  0  0  0  0  0  0  0  0
   31.0943  -13.9262  -18.0621 N   0  0  0  0  0  0  0  0  0  0  0  0
   31.5211  -11.6257  -18.6729 C   0  0  0  0  0  0  0  0  0  0  0  0
   32.7100  -11.7662  -18.2847 O   0  0  0  0  0  0  0  0  0  0  0  0
   28.6039  -13.7931  -15.4864 C   0  0  0  0  0  0  0  0  0  0  0  0
   27.5709  -14.6659  -15.1667 C   0  0  0  0  0  0  0  0  0  0  0  0
   31.2539  -10.4594  -19.4395 N   0  0  0  0  0  0  0  0  0  0  0  0
   32.2971   -9.5306  -19.8707 C   0  0  1  0  0  0  0  0  0  0  0  0
   32.9045  -10.0137  -21.1617 C   0  0  0  0  0  0  0  0  0  0  0  0
   33.9145  -11.0926  -20.9387 C   0  0  0  0  0  0  0  0  0  0  0  0
   34.5249  -11.6358  -22.1578 C   0  0  0  0  0  0  0  0  0  0  0  0
   34.2930  -11.2715  -23.3265 O   0  0  0  0  0  0  0  0  0  0  0  0
   31.7038   -8.1711  -20.1041 C   0  0  0  0  0  0  0  0  0  0  0  0
   30.5180   -8.0939  -20.4751 O   0  0  0  0  0  0  0  0  0  0  0  0
   35.4624  -12.6691  -21.9849 O   0  0  0  0  0  0  0  0  0  0  0  0
   32.4461   -6.9895  -19.9164 N   0  0  0  0  0  0  0  0  0  0  0  0
   31.8042   -5.6508  -20.1068 C   0  0  1  0  0  0  0  0  0  0  0  0
   30.7506   -5.4973  -19.0728 C   0  0  0  0  0  0  0  0  0  0  0  0
   29.4238   -6.0230  -19.3881 C   0  0  0  0  0  0  0  0  0  0  0  0
   28.9073   -6.7321  -20.4238 C   0  0  0  0  0  0  0  0  0  0  0  0
   27.6057   -6.9781  -20.1325 N   0  0  0  0  0  0  0  0  0  0  0  0
   27.3059   -6.4418  -18.9463 C   0  0  0  0  0  0  0  0  0  0  0  0
   28.4012   -5.8654  -18.4952 N   0  0  0  0  0  0  0  0  0  0  0  0
   32.9390   -4.7159  -19.8359 C   0  0  0  0  0  0  0  0  0  0  0  0
   33.7676   -4.2690  -20.8464 O   0  0  0  0  0  0  0  0  0  0  0  0
   33.1623   -4.3178  -18.6862 O   0  0  0  0  0  0  0  0  0  0  0  0
  2  1  1  0
  2  3  2  0
  4  3  1  0
  5  4  2  0
  6  5  1  0
  6  7  1  0
  7  8  1  1
  9  7  1  0
  9 10  2  0
 11 12  2  0
 11  5  1  0
 12  2  1  0
 13  9  1  0
 14 13  1  0
 14 15  1  6
 16 15  1  0
 16 17  1  0
 17 18  2  0
 19 14  1  0
 20 19  2  0
 21 17  1  0
 22 19  1  0
 23 24  1  1
 23 22  1  0
 25 24  1  0
 26 25  2  0
 27 28  1  0
 27 26  1  0
 28 29  2  0
 29 25  1  0
 30 23  1  0
 31 30  1  0
 32 30  2  0
M  END
$$$$
