YEH.pdb
     RDKit          3D

 32 33  0  0  1  0  0  0  0  0999 V2000
   31.2063   -8.6779  -17.6044 O   0  0  0  0  0  0  0  0  0  0  0  0
   29.8541   -8.4265  -17.5272 C   0  0  0  0  0  0  0  0  0  0  0  0
   29.3327   -7.1998  -17.9125 C   0  0  0  0  0  0  0  0  0  0  0  0
   27.9772   -6.9614  -17.8301 C   0  0  0  0  0  0  0  0  0  0  0  0
   27.0883   -7.9095  -17.3704 C   0  0  0  0  0  0  0  0  0  0  0  0
   25.6486   -7.5893  -17.2991 C   0  0  0  0  0  0  0  0  0  0  0  0
   24.8195   -8.2295  -18.3735 C   0  0  2  0  0  0  0  0  0  0  0  0
   25.2109   -7.5843  -19.6374 N   0  0  0  0  0  0  0  0  0  0  0  0
   23.3720   -8.0081  -18.1254 C   0  0  0  0  0  0  0  0  0  0  0  0
   22.7567   -7.0337  -18.6313 O   0  0  0  0  0  0  0  0  0  0  0  0
   27.6119   -9.1268  -16.9887 C   0  0  0  0  0  0  0  0  0  0  0  0
   28.9755   -9.3834  -17.0654 C   0  0  0  0  0  0  0  0  0  0  0  0
   22.5959   -8.8732  -17.3077 N   0  0  0  0  0  0  0  0  0  0  0  0
   21.1696   -8.6707  -17.0590 C   0  0  1  0  0  0  0  0  0  0  0  0
   20.5556   -9.9511  -16.5563 C   0  0  0  0  0  0  0  0  0  0  0  0
   20.4840  -10.9966  -17.6220 C   0  0  0  0  0  0  0  0  0  0  0  0
   19.9505  -12.2931  -17.1877 C   0  0  0  0  0  0  0  0  0  0  0  0
   19.5967  -12.5976  -16.0326 O   0  0  0  0  0  0  0  0  0  0  0  0
   20.9805   -7.6103  -16.0129 C   0  0  0  0  0  0  0  0  0  0  0  0
   21.6876   -7.6501  -14.9891 O   0  0  0  0  0  0  0  0  0  0  0  0
   19.8292  -13.2859  -18.1756 O   0  0  0  0  0  0  0  0  0  0  0  0
   20.0323   -6.5793  -16.1567 N   0  0  0  0  0  0  0  0  0  0  0  0
   19.8948   -5.5218  -15.1064 C   0  0  1  0  0  0  0  0  0  0  0  0
   19.9425   -4.1997  -15.7794 C   0  0  0  0  0  0  0  0  0  0  0  0
   21.2608   -3.6781  -16.1343 C   0  0  0  0  0  0  0  0  0  0  0  0
   22.4237   -4.2436  -16.5469 C   0  0  0  0  0  0  0  0  0  0  0  0
   23.3018   -3.2354  -16.7749 N   0  0  0  0  0  0  0  0  0  0  0  0
   22.7127   -2.0648  -16.5155 C   0  0  0  0  0  0  0  0  0  0  0  0
   21.4814   -2.3294  -16.1292 N   0  0  0  0  0  0  0  0  0  0  0  0
   18.5233   -5.7845  -14.5725 C   0  0  0  0  0  0  0  0  0  0  0  0
   18.0328   -5.1117  -13.4707 O   0  0  0  0  0  0  0  0  0  0  0  0
   17.7896   -6.6208  -15.1135 O   0  0  0  0  0  0  0  0  0  0  0  0
  2  1  1  0
  2  3  2  0
  4  3  1  0
  5  4  2  0
  6  5  1  0
  6  7  1  0
  7  8  1  6
  9  7  1  0
  9 10  2  0
 11 12  2  0
 11  5  1  0
 12  2  1  0
 13  9  1  0
 14 13  1  0
 14 15  1  1
 16 15  1  0
 16 17  1  0
 17 18  2  0
 19 14  1  0
 20 19  2  0
 21 17  1  0
 22 19  1  0
 23 24  1  6
 23 22  1  0
 25 24  1  0
 26 25  2  0
 27 28  1  0
 27 26  1  0
 28 29  2  0
 29 25  1  0
 30 23  1  0
 31 30  1  0
 32 30  2  0
M  END
$$$$
