YEH.pdb
     RDKit          3D

 32 33  0  0  1  0  0  0  0  0999 V2000
   35.9171  -13.8034   -8.9903 O   0  0  0  0  0  0  0  0  0  0  0  0
   36.5864  -12.6721   -8.5783 C   0  0  0  0  0  0  0  0  0  0  0  0
   36.7134  -12.3687   -7.2303 C   0  0  0  0  0  0  0  0  0  0  0  0
   37.3859  -11.2332   -6.8315 C   0  0  0  0  0  0  0  0  0  0  0  0
   37.9551  -10.3585   -7.7323 C   0  0  0  0  0  0  0  0  0  0  0  0
   38.6557   -9.1551   -7.2413 C   0  0  0  0  0  0  0  0  0  0  0  0
   40.1457   -9.1942   -7.4138 C   0  0  2  0  0  0  0  0  0  0  0  0
   40.6723   -9.9780   -6.2845 N   0  0  0  0  0  0  0  0  0  0  0  0
   40.7169   -7.8236   -7.3817 C   0  0  0  0  0  0  0  0  0  0  0  0
   41.0916   -7.2893   -6.3056 O   0  0  0  0  0  0  0  0  0  0  0  0
   37.8256  -10.6648   -9.0707 C   0  0  0  0  0  0  0  0  0  0  0  0
   37.1511  -11.8052   -9.4895 C   0  0  0  0  0  0  0  0  0  0  0  0
   40.8747   -7.0340   -8.5527 N   0  0  0  0  0  0  0  0  0  0  0  0
   41.3986   -5.6694   -8.5313 C   0  0  1  0  0  0  0  0  0  0  0  0
   41.8791   -5.2890   -9.9074 C   0  0  0  0  0  0  0  0  0  0  0  0
   43.0863   -6.0691  -10.3170 C   0  0  0  0  0  0  0  0  0  0  0  0
   43.5767   -5.7919  -11.6722 C   0  0  0  0  0  0  0  0  0  0  0  0
   43.2963   -6.4298  -12.7050 O   0  0  0  0  0  0  0  0  0  0  0  0
   40.3138   -4.7137   -8.1257 C   0  0  0  0  0  0  0  0  0  0  0  0
   39.1276   -5.0572   -8.2823 O   0  0  0  0  0  0  0  0  0  0  0  0
   44.4488   -4.6982  -11.8138 O   0  0  0  0  0  0  0  0  0  0  0  0
   40.5990   -3.4488   -7.5769 N   0  0  0  0  0  0  0  0  0  0  0  0
   39.6840   -2.8369   -6.5627 C   0  0  1  0  0  0  0  0  0  0  0  0
   39.7695   -3.6468   -5.3217 C   0  0  0  0  0  0  0  0  0  0  0  0
   38.9808   -3.1983   -4.1759 C   0  0  0  0  0  0  0  0  0  0  0  0
   38.0653   -2.2150   -3.9825 C   0  0  0  0  0  0  0  0  0  0  0  0
   37.6311   -2.3169   -2.7017 N   0  0  0  0  0  0  0  0  0  0  0  0
   38.2522   -3.3356   -2.1007 C   0  0  0  0  0  0  0  0  0  0  0  0
   39.0666   -3.8689   -2.9882 N   0  0  0  0  0  0  0  0  0  0  0  0
   40.3029   -1.4927   -6.3503 C   0  0  0  0  0  0  0  0  0  0  0  0
   41.6693   -1.3043   -6.4195 O   0  0  0  0  0  0  0  0  0  0  0  0
   39.5950   -0.5084   -6.1049 O   0  0  0  0  0  0  0  0  0  0  0  0
  2  1  1  0
  2  3  2  0
  4  3  1  0
  5  4  2  0
  6  5  1  0
  6  7  1  0
  7  8  1  1
  9  7  1  0
  9 10  2  0
 11 12  2  0
 11  5  1  0
 12  2  1  0
 13  9  1  0
 14 13  1  0
 14 15  1  6
 16 15  1  0
 16 17  1  0
 17 18  2  0
 19 14  1  0
 20 19  2  0
 21 17  1  0
 22 19  1  0
 23 24  1  1
 23 22  1  0
 25 24  1  0
 26 25  2  0
 27 28  1  0
 27 26  1  0
 28 29  2  0
 29 25  1  0
 30 23  1  0
 31 30  1  0
 32 30  2  0
M  END
$$$$
