YEH.pdb
     RDKit          3D

 32 33  0  0  1  0  0  0  0  0999 V2000
   24.5951   -1.4568  -17.9758 O   0  0  0  0  0  0  0  0  0  0  0  0
   24.2393   -2.6863  -17.4665 C   0  0  0  0  0  0  0  0  0  0  0  0
   25.0353   -3.3282  -16.5288 C   0  0  0  0  0  0  0  0  0  0  0  0
   24.6674   -4.5586  -16.0271 C   0  0  0  0  0  0  0  0  0  0  0  0
   23.5139   -5.2015  -16.4228 C   0  0  0  0  0  0  0  0  0  0  0  0
   23.1799   -6.5222  -15.8533 C   0  0  0  0  0  0  0  0  0  0  0  0
   21.8451   -6.5807  -15.1703 C   0  0  2  0  0  0  0  0  0  0  0  0
   22.0049   -5.8739  -13.8891 N   0  0  0  0  0  0  0  0  0  0  0  0
   21.4420   -7.9880  -14.9193 C   0  0  0  0  0  0  0  0  0  0  0  0
   21.7711   -8.5910  -13.8648 O   0  0  0  0  0  0  0  0  0  0  0  0
   22.7267   -4.5590  -17.3551 C   0  0  0  0  0  0  0  0  0  0  0  0
   23.0829   -3.3187  -17.8707 C   0  0  0  0  0  0  0  0  0  0  0  0
   20.6670   -8.7375  -15.8449 N   0  0  0  0  0  0  0  0  0  0  0  0
   20.2371  -10.1127  -15.5977 C   0  0  1  0  0  0  0  0  0  0  0  0
   18.7932  -10.2721  -15.9961 C   0  0  0  0  0  0  0  0  0  0  0  0
   18.2845  -11.6513  -15.7262 C   0  0  0  0  0  0  0  0  0  0  0  0
   16.8882  -11.8867  -16.1120 C   0  0  0  0  0  0  0  0  0  0  0  0
   16.4915  -12.4048  -17.1734 O   0  0  0  0  0  0  0  0  0  0  0  0
   21.0639  -11.0602  -16.4182 C   0  0  0  0  0  0  0  0  0  0  0  0
   21.4331  -10.7011  -17.5516 O   0  0  0  0  0  0  0  0  0  0  0  0
   15.9051  -11.4862  -15.1902 O   0  0  0  0  0  0  0  0  0  0  0  0
   21.4307  -12.3345  -15.9448 N   0  0  0  0  0  0  0  0  0  0  0  0
   22.2336  -13.2615  -16.8029 C   0  0  1  0  0  0  0  0  0  0  0  0
   23.4496  -13.6487  -16.0449 C   0  0  0  0  0  0  0  0  0  0  0  0
   24.6600  -12.8633  -16.2777 C   0  0  0  0  0  0  0  0  0  0  0  0
   24.9781  -11.8361  -17.1060 C   0  0  0  0  0  0  0  0  0  0  0  0
   26.2580  -11.4810  -16.8321 N   0  0  0  0  0  0  0  0  0  0  0  0
   26.7373  -12.2594  -15.8578 C   0  0  0  0  0  0  0  0  0  0  0  0
   25.7749  -13.0939  -15.5217 N   0  0  0  0  0  0  0  0  0  0  0  0
   21.3153  -14.4325  -16.9465 C   0  0  0  0  0  0  0  0  0  0  0  0
   20.2176  -14.5984  -16.1252 O   0  0  0  0  0  0  0  0  0  0  0  0
   21.5223  -15.2884  -17.8153 O   0  0  0  0  0  0  0  0  0  0  0  0
  2  1  1  0
  2  3  2  0
  4  3  1  0
  5  4  2  0
  6  5  1  0
  6  7  1  0
  7  8  1  1
  9  7  1  0
  9 10  2  0
 11 12  2  0
 11  5  1  0
 12  2  1  0
 13  9  1  0
 14 13  1  0
 14 15  1  6
 16 15  1  0
 16 17  1  0
 17 18  2  0
 19 14  1  0
 20 19  2  0
 21 17  1  0
 22 19  1  0
 23 24  1  1
 23 22  1  0
 25 24  1  0
 26 25  2  0
 27 28  1  0
 27 26  1  0
 28 29  2  0
 29 25  1  0
 30 23  1  0
 31 30  1  0
 32 30  2  0
M  END
$$$$
