QKG.pdb
     RDKit          3D

 23 22  0  0  1  0  0  0  0  0999 V2000
   22.4080  -21.2699  -13.8002 N   0  0  0  0  0  0  0  0  0  0  0  0
   22.0605  -20.7739  -15.1080 C   0  0  0  0  0  0  0  0  0  0  0  0
   20.9956  -21.1903  -15.6081 O   0  0  0  0  0  0  0  0  0  0  0  0
   22.9312  -19.8280  -15.8020 C   0  0  0  0  0  0  0  0  0  0  0  0
   24.1652  -19.4224  -15.1006 C   0  0  0  0  0  0  0  0  0  0  0  0
   25.2509  -20.4052  -14.9688 C   0  0  2  0  0  0  0  0  0  0  0  0
   25.4571  -20.8397  -13.5846 N   0  0  0  0  0  0  0  0  0  0  0  0
   26.5364  -20.1908  -15.6291 C   0  0  0  0  0  0  0  0  0  0  0  0
   27.3866  -19.3528  -15.1559 O   0  0  0  0  0  0  0  0  0  0  0  0
   26.9519  -20.8750  -16.8084 N   0  0  0  0  0  0  0  0  0  0  0  0
   28.2475  -20.6953  -17.4614 C   0  0  1  0  0  0  0  0  0  0  0  0
   28.8370  -22.0206  -17.7753 C   0  0  0  0  0  0  0  0  0  0  0  0
   29.4742  -22.7655  -16.6497 C   0  0  0  0  0  0  0  0  0  0  0  0
   30.0291  -24.1095  -17.1404 C   0  0  0  0  0  0  0  0  0  0  0  0
   30.8530  -24.8191  -16.1266 C   0  0  0  0  0  0  0  0  0  0  0  0
   31.3283  -26.1077  -16.5658 N   0  0  0  0  0  0  0  0  0  0  0  0
   28.1003  -19.7534  -18.5912 C   0  0  0  0  0  0  0  0  0  0  0  0
   27.0050  -19.7661  -19.2659 O   0  0  0  0  0  0  0  0  0  0  0  0
   29.0482  -18.8139  -19.0229 N   0  0  0  0  0  0  0  0  0  0  0  0
   28.7345  -17.8697  -20.1018 C   0  0  0  0  0  0  0  0  0  0  0  0
   29.9035  -17.0335  -20.4332 C   0  0  0  0  0  0  0  0  0  0  0  0
   29.9062  -16.1777  -21.5091 O   0  0  0  0  0  0  0  0  0  0  0  0
   30.9098  -17.1163  -19.7080 O   0  0  0  0  0  0  0  0  0  0  0  0
  1  2  1  0
  2  3  2  0
  4  2  1  0
  4  5  1  0
  6  7  1  1
  6  5  1  0
  6  8  1  0
  8  9  2  0
 10  8  1  0
 10 11  1  0
 11 17  1  0
 12 13  1  0
 11 12  1  6
 14 13  1  0
 15 14  1  0
 16 15  1  0
 17 18  2  0
 19 17  1  0
 19 20  1  0
 21 20  1  0
 21 22  1  0
 23 21  2  0
M  END
$$$$
