QKG.pdb
     RDKit          3D

 23 22  0  0  1  0  0  0  0  0999 V2000
   21.7577  -21.9489  -13.7998 N   0  0  0  0  0  0  0  0  0  0  0  0
   20.7125  -20.9763  -13.9966 C   0  0  0  0  0  0  0  0  0  0  0  0
   19.5405  -21.4033  -14.0373 O   0  0  0  0  0  0  0  0  0  0  0  0
   21.0319  -19.5581  -14.1424 C   0  0  0  0  0  0  0  0  0  0  0  0
   22.4483  -19.1755  -13.9793 C   0  0  0  0  0  0  0  0  0  0  0  0
   23.2595  -18.9620  -15.1869 C   0  0  2  0  0  0  0  0  0  0  0  0
   22.6162  -19.4745  -16.3997 N   0  0  0  0  0  0  0  0  0  0  0  0
   24.6848  -19.2829  -15.1955 C   0  0  0  0  0  0  0  0  0  0  0  0
   25.4396  -18.9489  -14.2117 O   0  0  0  0  0  0  0  0  0  0  0  0
   25.3399  -19.9792  -16.2527 N   0  0  0  0  0  0  0  0  0  0  0  0
   26.7762  -20.2455  -16.3085 C   0  0  1  0  0  0  0  0  0  0  0  0
   27.0071  -21.6839  -16.5919 C   0  0  0  0  0  0  0  0  0  0  0  0
   26.1059  -22.6636  -15.9166 C   0  0  0  0  0  0  0  0  0  0  0  0
   26.5290  -24.1009  -16.2486 C   0  0  0  0  0  0  0  0  0  0  0  0
   25.5995  -25.1326  -15.7178 C   0  0  0  0  0  0  0  0  0  0  0  0
   25.9742  -26.4817  -16.0625 N   0  0  0  0  0  0  0  0  0  0  0  0
   27.4183  -19.2802  -17.2255 C   0  0  0  0  0  0  0  0  0  0  0  0
   27.0343  -19.2465  -18.4530 O   0  0  0  0  0  0  0  0  0  0  0  0
   28.4286  -18.3639  -16.8982 N   0  0  0  0  0  0  0  0  0  0  0  0
   29.0433  -17.5210  -17.9305 C   0  0  0  0  0  0  0  0  0  0  0  0
   28.1033  -16.4867  -18.4017 C   0  0  0  0  0  0  0  0  0  0  0  0
   28.2370  -15.1647  -18.0488 O   0  0  0  0  0  0  0  0  0  0  0  0
   27.1663  -16.8365  -19.1400 O   0  0  0  0  0  0  0  0  0  0  0  0
  1  2  1  0
  2  3  2  0
  4  2  1  0
  4  5  1  0
  6  7  1  6
  6  5  1  0
  6  8  1  0
  8  9  2  0
 10  8  1  0
 10 11  1  0
 11 17  1  0
 12 13  1  0
 11 12  1  6
 14 13  1  0
 15 14  1  0
 16 15  1  0
 17 18  2  0
 19 17  1  0
 19 20  1  0
 21 20  1  0
 21 22  1  0
 23 21  2  0
M  END
$$$$
