QKG.pdb
     RDKit          3D

 23 22  0  0  1  0  0  0  0  0999 V2000
   28.2493  -23.5451  -15.6389 N   0  0  0  0  0  0  0  0  0  0  0  0
   28.2529  -22.6249  -16.7481 C   0  0  0  0  0  0  0  0  0  0  0  0
   28.2568  -23.1182  -17.8945 O   0  0  0  0  0  0  0  0  0  0  0  0
   28.2547  -21.1818  -16.5195 C   0  0  0  0  0  0  0  0  0  0  0  0
   28.2607  -20.7316  -15.1137 C   0  0  0  0  0  0  0  0  0  0  0  0
   27.0430  -20.1102  -14.5722 C   0  0  2  0  0  0  0  0  0  0  0  0
   26.0117  -21.0920  -14.2259 N   0  0  0  0  0  0  0  0  0  0  0  0
   26.4401  -18.9525  -15.2285 C   0  0  0  0  0  0  0  0  0  0  0  0
   27.1562  -17.9411  -15.5652 O   0  0  0  0  0  0  0  0  0  0  0  0
   25.0558  -18.8495  -15.5521 N   0  0  0  0  0  0  0  0  0  0  0  0
   24.4595  -17.7550  -16.3159 C   0  0  1  0  0  0  0  0  0  0  0  0
   25.1082  -17.6634  -17.6476 C   0  0  0  0  0  0  0  0  0  0  0  0
   25.1667  -18.9121  -18.4632 C   0  0  0  0  0  0  0  0  0  0  0  0
   25.8049  -18.6320  -19.8304 C   0  0  0  0  0  0  0  0  0  0  0  0
   25.8935  -19.8322  -20.7030 C   0  0  0  0  0  0  0  0  0  0  0  0
   26.4938  -19.5709  -21.9878 N   0  0  0  0  0  0  0  0  0  0  0  0
   22.9880  -17.8955  -16.3062 C   0  0  0  0  0  0  0  0  0  0  0  0
   22.2854  -17.0727  -17.0023 O   0  0  0  0  0  0  0  0  0  0  0  0
   22.2465  -18.8577  -15.6049 N   0  0  0  0  0  0  0  0  0  0  0  0
   20.7824  -18.8956  -15.6998 C   0  0  0  0  0  0  0  0  0  0  0  0
   20.2260  -20.0017  -14.8981 C   0  0  0  0  0  0  0  0  0  0  0  0
   18.8728  -20.2257  -14.8048 O   0  0  0  0  0  0  0  0  0  0  0  0
   21.0178  -20.7456  -14.2939 O   0  0  0  0  0  0  0  0  0  0  0  0
  1  2  1  0
  2  3  2  0
  4  2  1  0
  4  5  1  0
  6  7  1  6
  6  5  1  0
  6  8  1  0
  8  9  2  0
 10  8  1  0
 10 11  1  0
 11 17  1  0
 12 13  1  0
 11 12  1  6
 14 13  1  0
 15 14  1  0
 16 15  1  0
 17 18  2  0
 19 17  1  0
 19 20  1  0
 21 20  1  0
 21 22  1  0
 23 21  2  0
M  END
$$$$
