QKG.pdb
     RDKit          3D

 23 22  0  0  1  0  0  0  0  0999 V2000
   29.0691  -22.0342  -10.3095 N   0  0  0  0  0  0  0  0  0  0  0  0
   30.2597  -21.7138  -11.0558 C   0  0  0  0  0  0  0  0  0  0  0  0
   31.2179  -22.5081  -10.9636 O   0  0  0  0  0  0  0  0  0  0  0  0
   30.3229  -20.5065  -11.8761 C   0  0  0  0  0  0  0  0  0  0  0  0
   29.0625  -19.7600  -12.0585 C   0  0  0  0  0  0  0  0  0  0  0  0
   28.1236  -20.2140  -13.0950 C   0  0  2  0  0  0  0  0  0  0  0  0
   28.7194  -20.2253  -14.4338 N   0  0  0  0  0  0  0  0  0  0  0  0
   26.7618  -19.6878  -13.1513 C   0  0  0  0  0  0  0  0  0  0  0  0
   26.5488  -18.4274  -13.2742 O   0  0  0  0  0  0  0  0  0  0  0  0
   25.5901  -20.4969  -13.0879 N   0  0  0  0  0  0  0  0  0  0  0  0
   24.2259  -19.9795  -12.9972 C   0  0  1  0  0  0  0  0  0  0  0  0
   23.5217  -20.1985  -14.2851 C   0  0  0  0  0  0  0  0  0  0  0  0
   24.0607  -19.4915  -15.4840 C   0  0  0  0  0  0  0  0  0  0  0  0
   23.2030  -19.7973  -16.7193 C   0  0  0  0  0  0  0  0  0  0  0  0
   23.7523  -19.2324  -17.9799 C   0  0  0  0  0  0  0  0  0  0  0  0
   23.0458  -19.6598  -19.1620 N   0  0  0  0  0  0  0  0  0  0  0  0
   23.5746  -20.5243  -11.7872 C   0  0  0  0  0  0  0  0  0  0  0  0
   23.8150  -21.7433  -11.4533 O   0  0  0  0  0  0  0  0  0  0  0  0
   22.6990  -19.8400  -10.9313 N   0  0  0  0  0  0  0  0  0  0  0  0
   22.1371  -20.4987   -9.7462 C   0  0  0  0  0  0  0  0  0  0  0  0
   20.7368  -20.9013   -9.9755 C   0  0  0  0  0  0  0  0  0  0  0  0
   19.9464  -21.3982   -8.9664 O   0  0  0  0  0  0  0  0  0  0  0  0
   20.2711  -20.7818  -11.1220 O   0  0  0  0  0  0  0  0  0  0  0  0
  1  2  1  0
  2  3  2  0
  4  2  1  0
  4  5  1  0
  6  7  1  6
  6  5  1  0
  6  8  1  0
  8  9  2  0
 10  8  1  0
 10 11  1  0
 11 17  1  0
 12 13  1  0
 11 12  1  6
 14 13  1  0
 15 14  1  0
 16 15  1  0
 17 18  2  0
 19 17  1  0
 19 20  1  0
 21 20  1  0
 21 22  1  0
 23 21  2  0
M  END
$$$$
