QKG.pdb
     RDKit          3D

 23 22  0  0  1  0  0  0  0  0999 V2000
   25.5010  -19.7577   -8.7628 N   0  0  0  0  0  0  0  0  0  0  0  0
   24.7107  -20.9435   -8.9786 C   0  0  0  0  0  0  0  0  0  0  0  0
   23.7702  -21.1507   -8.1849 O   0  0  0  0  0  0  0  0  0  0  0  0
   25.0152  -21.8515  -10.0820 C   0  0  0  0  0  0  0  0  0  0  0  0
   26.0891  -21.4377  -11.0065 C   0  0  0  0  0  0  0  0  0  0  0  0
   25.7165  -20.7321  -12.2415 C   0  0  2  0  0  0  0  0  0  0  0  0
   24.5683  -21.3414  -12.9181 N   0  0  0  0  0  0  0  0  0  0  0  0
   26.7334  -20.3470  -13.2173 C   0  0  0  0  0  0  0  0  0  0  0  0
   27.8073  -19.7487  -12.8461 O   0  0  0  0  0  0  0  0  0  0  0  0
   26.6338  -20.6008  -14.6163 N   0  0  0  0  0  0  0  0  0  0  0  0
   27.6312  -20.2004  -15.6073 C   0  0  1  0  0  0  0  0  0  0  0  0
   28.0712  -21.3877  -16.3814 C   0  0  0  0  0  0  0  0  0  0  0  0
   29.1552  -21.1811  -17.3864 C   0  0  0  0  0  0  0  0  0  0  0  0
   29.4979  -22.5028  -18.0870 C   0  0  0  0  0  0  0  0  0  0  0  0
   30.5844  -22.3784  -19.0940 C   0  0  0  0  0  0  0  0  0  0  0  0
   30.9879  -23.6377  -19.6689 N   0  0  0  0  0  0  0  0  0  0  0  0
   27.1143  -19.0569  -16.3884 C   0  0  0  0  0  0  0  0  0  0  0  0
   25.8685  -19.0421  -16.7094 O   0  0  0  0  0  0  0  0  0  0  0  0
   27.8505  -17.9477  -16.8305 N   0  0  0  0  0  0  0  0  0  0  0  0
   27.1796  -16.7947  -17.4424 C   0  0  0  0  0  0  0  0  0  0  0  0
   27.0517  -16.9667  -18.9017 C   0  0  0  0  0  0  0  0  0  0  0  0
   26.4766  -16.0076  -19.7013 O   0  0  0  0  0  0  0  0  0  0  0  0
   27.4820  -18.0167  -19.4096 O   0  0  0  0  0  0  0  0  0  0  0  0
  1  2  1  0
  2  3  2  0
  4  2  1  0
  4  5  1  0
  6  7  1  6
  6  5  1  0
  6  8  1  0
  8  9  2  0
 10  8  1  0
 10 11  1  0
 11 17  1  0
 12 13  1  0
 11 12  1  6
 14 13  1  0
 15 14  1  0
 16 15  1  0
 17 18  2  0
 19 17  1  0
 19 20  1  0
 21 20  1  0
 21 22  1  0
 23 21  2  0
M  END
$$$$
