QKG.pdb
     RDKit          3D

 23 22  0  0  1  0  0  0  0  0999 V2000
   24.2006  -20.5676  -10.1459 N   0  0  0  0  0  0  0  0  0  0  0  0
   25.4445  -20.9027   -9.4997 C   0  0  0  0  0  0  0  0  0  0  0  0
   25.3756  -21.3724   -8.3455 O   0  0  0  0  0  0  0  0  0  0  0  0
   26.7192  -20.6916  -10.1817 C   0  0  0  0  0  0  0  0  0  0  0  0
   26.6655  -20.0369  -11.5037 C   0  0  0  0  0  0  0  0  0  0  0  0
   26.8975  -20.8576  -12.7014 C   0  0  2  0  0  0  0  0  0  0  0  0
   28.2714  -20.7556  -13.2009 N   0  0  0  0  0  0  0  0  0  0  0  0
   25.9513  -20.8388  -13.8145 C   0  0  0  0  0  0  0  0  0  0  0  0
   26.1619  -20.1002  -14.8436 O   0  0  0  0  0  0  0  0  0  0  0  0
   24.7586  -21.6177  -13.8615 N   0  0  0  0  0  0  0  0  0  0  0  0
   23.8327  -21.6535  -14.9922 C   0  0  1  0  0  0  0  0  0  0  0  0
   23.6762  -23.0512  -15.4659 C   0  0  0  0  0  0  0  0  0  0  0  0
   24.8907  -23.7237  -16.0143 C   0  0  0  0  0  0  0  0  0  0  0  0
   24.5686  -25.1683  -16.4196 C   0  0  0  0  0  0  0  0  0  0  0  0
   25.7419  -25.9148  -16.9450 C   0  0  0  0  0  0  0  0  0  0  0  0
   25.4690  -27.3039  -17.2190 N   0  0  0  0  0  0  0  0  0  0  0  0
   22.5919  -20.9351  -14.6324 C   0  0  0  0  0  0  0  0  0  0  0  0
   22.1008  -21.1040  -13.4553 O   0  0  0  0  0  0  0  0  0  0  0  0
   21.8675  -20.0585  -15.4535 N   0  0  0  0  0  0  0  0  0  0  0  0
   20.6376  -19.4190  -14.9713 C   0  0  0  0  0  0  0  0  0  0  0  0
   19.4810  -20.3252  -15.1010 C   0  0  0  0  0  0  0  0  0  0  0  0
   18.2094  -19.9392  -14.7489 O   0  0  0  0  0  0  0  0  0  0  0  0
   19.6782  -21.4700  -15.5437 O   0  0  0  0  0  0  0  0  0  0  0  0
  1  2  1  0
  2  3  2  0
  4  2  1  0
  4  5  1  0
  6  7  1  6
  6  5  1  0
  6  8  1  0
  8  9  2  0
 10  8  1  0
 10 11  1  0
 11 17  1  0
 12 13  1  0
 11 12  1  1
 14 13  1  0
 15 14  1  0
 16 15  1  0
 17 18  2  0
 19 17  1  0
 19 20  1  0
 21 20  1  0
 21 22  1  0
 23 21  2  0
M  END
$$$$
