QKG.pdb
     RDKit          3D

 23 22  0  0  1  0  0  0  0  0999 V2000
   30.0352  -16.0344  -19.5994 N   0  0  0  0  0  0  0  0  0  0  0  0
   30.8846  -14.9370  -19.2105 C   0  0  0  0  0  0  0  0  0  0  0  0
   31.8632  -15.2067  -18.4844 O   0  0  0  0  0  0  0  0  0  0  0  0
   30.5942  -13.5758  -19.6549 C   0  0  0  0  0  0  0  0  0  0  0  0
   30.4232  -12.5551  -18.6023 C   0  0  0  0  0  0  0  0  0  0  0  0
   31.1038  -11.2618  -18.7639 C   0  0  2  0  0  0  0  0  0  0  0  0
   31.6858  -11.0903  -20.0978 N   0  0  0  0  0  0  0  0  0  0  0  0
   32.0254  -10.7701  -17.7424 C   0  0  0  0  0  0  0  0  0  0  0  0
   31.7096  -10.8103  -16.4983 O   0  0  0  0  0  0  0  0  0  0  0  0
   33.3147  -10.2312  -18.0232 N   0  0  0  0  0  0  0  0  0  0  0  0
   34.2845   -9.8229  -17.0084 C   0  0  1  0  0  0  0  0  0  0  0  0
   35.6461  -10.2469  -17.4191 C   0  0  0  0  0  0  0  0  0  0  0  0
   36.7730   -9.8934  -16.5064 C   0  0  0  0  0  0  0  0  0  0  0  0
   37.3537  -11.1559  -15.8552 C   0  0  0  0  0  0  0  0  0  0  0  0
   38.4640  -10.8791  -14.9061 C   0  0  0  0  0  0  0  0  0  0  0  0
   39.0206  -12.0654  -14.3043 N   0  0  0  0  0  0  0  0  0  0  0  0
   34.1026   -8.3873  -16.7065 C   0  0  0  0  0  0  0  0  0  0  0  0
   34.1273   -7.5448  -17.6784 O   0  0  0  0  0  0  0  0  0  0  0  0
   33.8954   -7.8210  -15.4400 N   0  0  0  0  0  0  0  0  0  0  0  0
   33.8321   -6.3648  -15.2681 C   0  0  0  0  0  0  0  0  0  0  0  0
   32.4875   -5.8495  -15.5876 C   0  0  0  0  0  0  0  0  0  0  0  0
   31.9179   -6.0177  -16.8275 O   0  0  0  0  0  0  0  0  0  0  0  0
   31.8625   -5.2467  -14.6980 O   0  0  0  0  0  0  0  0  0  0  0  0
  1  2  1  0
  2  3  2  0
  4  2  1  0
  4  5  1  0
  6  7  1  6
  6  5  1  0
  6  8  1  0
  8  9  2  0
 10  8  1  0
 10 11  1  0
 11 17  1  0
 12 13  1  0
 11 12  1  6
 14 13  1  0
 15 14  1  0
 16 15  1  0
 17 18  2  0
 19 17  1  0
 19 20  1  0
 21 20  1  0
 21 22  1  0
 23 21  2  0
M  END
$$$$
