QKG.pdb
     RDKit          3D

 23 22  0  0  1  0  0  0  0  0999 V2000
   13.8691   -9.7328  -13.3721 N   0  0  0  0  0  0  0  0  0  0  0  0
   13.5803   -9.9655  -11.9794 C   0  0  0  0  0  0  0  0  0  0  0  0
   12.5240  -10.5746  -11.7131 O   0  0  0  0  0  0  0  0  0  0  0  0
   14.4952   -9.4986  -10.9403 C   0  0  0  0  0  0  0  0  0  0  0  0
   15.7017   -8.7778  -11.3918 C   0  0  0  0  0  0  0  0  0  0  0  0
   16.8780   -9.5637  -11.7925 C   0  0  2  0  0  0  0  0  0  0  0  0
   17.4025  -10.3936  -10.7046 N   0  0  0  0  0  0  0  0  0  0  0  0
   17.9757   -8.9421  -12.5296 C   0  0  0  0  0  0  0  0  0  0  0  0
   19.0858   -8.6660  -11.9463 O   0  0  0  0  0  0  0  0  0  0  0  0
   17.9192   -8.6082  -13.9141 N   0  0  0  0  0  0  0  0  0  0  0  0
   19.0411   -8.0804  -14.6888 C   0  0  1  0  0  0  0  0  0  0  0  0
   18.9719   -8.5915  -16.0804 C   0  0  0  0  0  0  0  0  0  0  0  0
   20.0661   -8.1840  -17.0100 C   0  0  0  0  0  0  0  0  0  0  0  0
   19.8745   -8.8374  -18.3853 C   0  0  0  0  0  0  0  0  0  0  0  0
   20.9527   -8.5103  -19.3551 C   0  0  0  0  0  0  0  0  0  0  0  0
   20.7375   -9.0644  -20.6688 N   0  0  0  0  0  0  0  0  0  0  0  0
   19.1010   -6.6124  -14.5264 C   0  0  0  0  0  0  0  0  0  0  0  0
   17.9984   -5.9506  -14.4885 O   0  0  0  0  0  0  0  0  0  0  0  0
   20.2609   -5.8337  -14.4008 N   0  0  0  0  0  0  0  0  0  0  0  0
   20.1748   -4.3836  -14.1913 C   0  0  0  0  0  0  0  0  0  0  0  0
   21.5169   -3.7760  -14.1194 C   0  0  0  0  0  0  0  0  0  0  0  0
   21.6974   -2.4173  -14.0129 O   0  0  0  0  0  0  0  0  0  0  0  0
   22.5055   -4.5288  -14.1575 O   0  0  0  0  0  0  0  0  0  0  0  0
  1  2  1  0
  2  3  2  0
  4  2  1  0
  4  5  1  0
  6  7  1  1
  6  5  1  0
  6  8  1  0
  8  9  2  0
 10  8  1  0
 10 11  1  0
 11 17  1  0
 12 13  1  0
 11 12  1  6
 14 13  1  0
 15 14  1  0
 16 15  1  0
 17 18  2  0
 19 17  1  0
 19 20  1  0
 21 20  1  0
 21 22  1  0
 23 21  2  0
M  END
$$$$
