QKG.pdb
     RDKit          3D

 23 22  0  0  1  0  0  0  0  0999 V2000
   20.7973  -11.2041  -15.7919 N   0  0  0  0  0  0  0  0  0  0  0  0
   19.5657  -11.7966  -16.2492 C   0  0  0  0  0  0  0  0  0  0  0  0
   19.6436  -12.6111  -17.1915 O   0  0  0  0  0  0  0  0  0  0  0  0
   18.2924  -11.4440  -15.6256 C   0  0  0  0  0  0  0  0  0  0  0  0
   18.3322  -10.4135  -14.5694 C   0  0  0  0  0  0  0  0  0  0  0  0
   17.1321  -10.2093  -13.7447 C   0  0  2  0  0  0  0  0  0  0  0  0
   15.8998  -10.6124  -14.4276 N   0  0  0  0  0  0  0  0  0  0  0  0
   16.9251   -8.9548  -13.0250 C   0  0  0  0  0  0  0  0  0  0  0  0
   16.0853   -8.0826  -13.4528 O   0  0  0  0  0  0  0  0  0  0  0  0
   17.6037   -8.6034  -11.8219 N   0  0  0  0  0  0  0  0  0  0  0  0
   17.4471   -7.3307  -11.1200 C   0  0  1  0  0  0  0  0  0  0  0  0
   16.7639   -7.5565   -9.8220 C   0  0  0  0  0  0  0  0  0  0  0  0
   15.2810   -7.7235   -9.8538 C   0  0  0  0  0  0  0  0  0  0  0  0
   14.7387   -7.9823   -8.4417 C   0  0  0  0  0  0  0  0  0  0  0  0
   13.2566   -8.0812   -8.3822 C   0  0  0  0  0  0  0  0  0  0  0  0
   12.7471   -8.3547   -7.0613 N   0  0  0  0  0  0  0  0  0  0  0  0
   18.7509   -6.6360  -11.0682 C   0  0  0  0  0  0  0  0  0  0  0  0
   18.8222   -5.5029  -10.4631 O   0  0  0  0  0  0  0  0  0  0  0  0
   19.9595   -7.0883  -11.6179 N   0  0  0  0  0  0  0  0  0  0  0  0
   21.1959   -6.3141  -11.4567 C   0  0  0  0  0  0  0  0  0  0  0  0
   21.3475   -5.3229  -12.5384 C   0  0  0  0  0  0  0  0  0  0  0  0
   22.4778   -4.5509  -12.6668 O   0  0  0  0  0  0  0  0  0  0  0  0
   20.4160   -5.1932  -13.3514 O   0  0  0  0  0  0  0  0  0  0  0  0
  1  2  1  0
  2  3  2  0
  4  2  1  0
  4  5  1  0
  6  7  1  6
  6  5  1  0
  6  8  1  0
  8  9  2  0
 10  8  1  0
 10 11  1  0
 11 17  1  0
 12 13  1  0
 11 12  1  1
 14 13  1  0
 15 14  1  0
 16 15  1  0
 17 18  2  0
 19 17  1  0
 19 20  1  0
 21 20  1  0
 21 22  1  0
 23 21  2  0
M  END
$$$$
