QKG.pdb
     RDKit          3D

 23 22  0  0  1  0  0  0  0  0999 V2000
   16.5355  -11.9045  -10.4472 N   0  0  0  0  0  0  0  0  0  0  0  0
   15.2848  -12.5959  -10.6337 C   0  0  0  0  0  0  0  0  0  0  0  0
   15.2871  -13.8309  -10.4545 O   0  0  0  0  0  0  0  0  0  0  0  0
   14.0793  -11.8652  -11.0180 C   0  0  0  0  0  0  0  0  0  0  0  0
   14.1976  -10.3978  -11.1265 C   0  0  0  0  0  0  0  0  0  0  0  0
   13.6992   -9.5713  -10.0173 C   0  0  2  0  0  0  0  0  0  0  0  0
   12.2617   -9.7388   -9.7870 N   0  0  0  0  0  0  0  0  0  0  0  0
   14.0680   -8.1615   -9.9122 C   0  0  0  0  0  0  0  0  0  0  0  0
   13.3354   -7.2493  -10.4417 O   0  0  0  0  0  0  0  0  0  0  0  0
   15.2256   -7.6880   -9.2287 N   0  0  0  0  0  0  0  0  0  0  0  0
   15.6518   -6.2903   -9.1845 C   0  0  1  0  0  0  0  0  0  0  0  0
   15.1388   -5.6503   -7.9477 C   0  0  0  0  0  0  0  0  0  0  0  0
   13.7917   -5.0118   -8.0206 C   0  0  0  0  0  0  0  0  0  0  0  0
   13.4019   -4.4218   -6.6586 C   0  0  0  0  0  0  0  0  0  0  0  0
   12.0424   -3.8207   -6.6375 C   0  0  0  0  0  0  0  0  0  0  0  0
   11.6794   -3.2546   -5.3619 N   0  0  0  0  0  0  0  0  0  0  0  0
   17.1107   -6.2156   -9.4107 C   0  0  0  0  0  0  0  0  0  0  0  0
   17.9006   -6.4375   -8.4197 O   0  0  0  0  0  0  0  0  0  0  0  0
   17.7531   -5.9249  -10.6233 N   0  0  0  0  0  0  0  0  0  0  0  0
   19.2125   -6.0228  -10.7442 C   0  0  0  0  0  0  0  0  0  0  0  0
   19.6446   -5.8282  -12.1409 C   0  0  0  0  0  0  0  0  0  0  0  0
   20.9706   -5.8475  -12.5033 O   0  0  0  0  0  0  0  0  0  0  0  0
   18.7712   -5.6423  -13.0058 O   0  0  0  0  0  0  0  0  0  0  0  0
  1  2  1  0
  2  3  2  0
  4  2  1  0
  4  5  1  0
  6  7  1  6
  6  5  1  0
  6  8  1  0
  8  9  2  0
 10  8  1  0
 10 11  1  0
 11 17  1  0
 12 13  1  0
 11 12  1  1
 14 13  1  0
 15 14  1  0
 16 15  1  0
 17 18  2  0
 19 17  1  0
 19 20  1  0
 21 20  1  0
 21 22  1  0
 23 21  2  0
M  END
$$$$
