QKG.pdb
     RDKit          3D

 23 22  0  0  1  0  0  0  0  0999 V2000
   21.7294  -21.1486  -11.7734 N   0  0  0  0  0  0  0  0  0  0  0  0
   22.0003  -20.8022  -10.4010 C   0  0  0  0  0  0  0  0  0  0  0  0
   21.0680  -20.9483   -9.5843 O   0  0  0  0  0  0  0  0  0  0  0  0
   23.3142  -20.3013  -10.0041 C   0  0  0  0  0  0  0  0  0  0  0  0
   24.3046  -20.1065  -11.0813 C   0  0  0  0  0  0  0  0  0  0  0  0
   25.0147  -21.2845  -11.6010 C   0  0  2  0  0  0  0  0  0  0  0  0
   26.1442  -21.6835  -10.7569 N   0  0  0  0  0  0  0  0  0  0  0  0
   25.3813  -21.3730  -13.0125 C   0  0  0  0  0  0  0  0  0  0  0  0
   26.3960  -20.7321  -13.4693 O   0  0  0  0  0  0  0  0  0  0  0  0
   24.6783  -22.1581  -13.9721 N   0  0  0  0  0  0  0  0  0  0  0  0
   25.0008  -22.2153  -15.3968 C   0  0  1  0  0  0  0  0  0  0  0  0
   25.1341  -23.6307  -15.8226 C   0  0  0  0  0  0  0  0  0  0  0  0
   26.5093  -24.1213  -16.1323 C   0  0  0  0  0  0  0  0  0  0  0  0
   26.4767  -25.6072  -16.5145 C   0  0  0  0  0  0  0  0  0  0  0  0
   27.8059  -26.1530  -16.8958 C   0  0  0  0  0  0  0  0  0  0  0  0
   27.7896  -27.5647  -17.1892 N   0  0  0  0  0  0  0  0  0  0  0  0
   24.0367  -21.3866  -16.1511 C   0  0  0  0  0  0  0  0  0  0  0  0
   22.8506  -21.2345  -15.6765 O   0  0  0  0  0  0  0  0  0  0  0  0
   24.2768  -20.7221  -17.3628 N   0  0  0  0  0  0  0  0  0  0  0  0
   25.1246  -19.5249  -17.4094 C   0  0  0  0  0  0  0  0  0  0  0  0
   24.4167  -18.3964  -18.0427 C   0  0  0  0  0  0  0  0  0  0  0  0
   24.4402  -17.1295  -17.5094 O   0  0  0  0  0  0  0  0  0  0  0  0
   23.7837  -18.6133  -19.0904 O   0  0  0  0  0  0  0  0  0  0  0  0
  1  2  1  0
  2  3  2  0
  4  2  1  0
  4  5  1  0
  6  7  1  1
  6  5  1  0
  6  8  1  0
  8  9  2  0
 10  8  1  0
 10 11  1  0
 11 17  1  0
 12 13  1  0
 11 12  1  6
 14 13  1  0
 15 14  1  0
 16 15  1  0
 17 18  2  0
 19 17  1  0
 19 20  1  0
 21 20  1  0
 21 22  1  0
 23 21  2  0
M  END
$$$$
