YDS.pdb
     RDKit          3D

 27 27  0  0  1  0  0  0  0  0999 V2000
   16.8844  -14.0772  -15.8834 O   0  0  0  0  0  0  0  0  0  0  0  0
   16.9904  -12.7277  -15.5467 C   0  0  0  0  0  0  0  0  0  0  0  0
   18.1368  -12.0144  -15.8291 C   0  0  0  0  0  0  0  0  0  0  0  0
   18.2629  -10.6788  -15.5047 C   0  0  0  0  0  0  0  0  0  0  0  0
   17.2392   -9.9914  -14.8778 C   0  0  0  0  0  0  0  0  0  0  0  0
   17.4093   -8.5564  -14.5434 C   0  0  0  0  0  0  0  0  0  0  0  0
   18.4569   -8.3797  -13.4285 C   0  0  2  0  0  0  0  0  0  0  0  0
   17.8846   -8.9037  -12.1864 N   0  0  0  0  0  0  0  0  0  0  0  0
   18.6217   -6.9081  -13.2863 C   0  0  0  0  0  0  0  0  0  0  0  0
   17.9538   -6.3194  -12.4038 O   0  0  0  0  0  0  0  0  0  0  0  0
   16.0947  -10.7053  -14.5963 C   0  0  0  0  0  0  0  0  0  0  0  0
   15.9650  -12.0467  -14.9210 C   0  0  0  0  0  0  0  0  0  0  0  0
   19.5134   -6.2391  -14.1387 N   0  0  0  0  0  0  0  0  0  0  0  0
   19.7054   -4.7931  -13.9740 C   0  0  1  0  0  0  0  0  0  0  0  0
   21.1536   -4.4560  -14.2121 C   0  0  0  0  0  0  0  0  0  0  0  0
   21.9996   -4.6940  -13.0387 C   0  0  0  0  0  0  0  0  0  0  0  0
   23.2596   -4.4732  -13.0905 O   0  0  0  0  0  0  0  0  0  0  0  0
   18.7612   -4.1411  -14.9008 C   0  0  0  0  0  0  0  0  0  0  0  0
   18.7127   -4.5342  -16.1276 O   0  0  0  0  0  0  0  0  0  0  0  0
   21.4722   -5.1568  -11.8522 O   0  0  0  0  0  0  0  0  0  0  0  0
   15.4365   -3.2827  -14.0170 O   0  0  0  0  0  0  0  0  0  0  0  0
   15.7239   -2.1647  -14.8187 C   0  0  0  0  0  0  0  0  0  0  0  0
   17.0557   -2.4416  -15.4867 C   0  0  2  0  0  0  0  0  0  0  0  0
   17.9031   -3.0948  -14.4797 N   0  0  0  0  0  0  0  0  0  0  0  0
   17.5985   -1.1458  -15.9365 C   0  0  0  0  0  0  0  0  0  0  0  0
   16.9152   -0.3369  -16.8165 O   0  0  0  0  0  0  0  0  0  0  0  0
   18.7112   -0.7341  -15.5275 O   0  0  0  0  0  0  0  0  0  0  0  0
  2  3  2  0
  2  1  1  0
  4  3  1  0
  5  4  2  0
  6  5  1  0
  7  6  1  0
  7  8  1  1
  9  7  1  0
  9 10  2  0
 11  5  1  0
 11 12  2  0
 12  2  1  0
 13  9  1  0
 14 13  1  0
 14 15  1  6
 16 15  1  0
 16 17  2  0
 18 14  1  0
 19 18  2  0
 20 16  1  0
 22 21  1  0
 23 22  1  1
 23 24  1  0
 24 18  1  0
 25 23  1  0
 26 25  1  0
 27 25  2  0
M  END
$$$$
