YDS.pdb
     RDKit          3D

 27 27  0  0  1  0  0  0  0  0999 V2000
   28.2530  -30.7561  -17.4747 O   0  0  0  0  0  0  0  0  0  0  0  0
   27.8613  -29.4715  -17.0976 C   0  0  0  0  0  0  0  0  0  0  0  0
   26.5486  -29.0659  -17.2202 C   0  0  0  0  0  0  0  0  0  0  0  0
   26.1395  -27.7998  -16.8533 C   0  0  0  0  0  0  0  0  0  0  0  0
   27.0330  -26.8751  -16.3434 C   0  0  0  0  0  0  0  0  0  0  0  0
   26.5585  -25.5231  -15.9597 C   0  0  0  0  0  0  0  0  0  0  0  0
   26.7912  -24.5211  -17.1058 C   0  0  2  0  0  0  0  0  0  0  0  0
   28.2096  -24.1563  -17.1033 N   0  0  0  0  0  0  0  0  0  0  0  0
   25.9960  -23.3204  -16.7332 C   0  0  0  0  0  0  0  0  0  0  0  0
   26.6084  -22.2494  -16.5115 O   0  0  0  0  0  0  0  0  0  0  0  0
   28.3440  -27.2817  -16.2216 C   0  0  0  0  0  0  0  0  0  0  0  0
   28.7579  -28.5526  -16.5890 C   0  0  0  0  0  0  0  0  0  0  0  0
   24.5998  -23.4307  -16.6460 N   0  0  0  0  0  0  0  0  0  0  0  0
   23.8096  -22.2329  -16.3368 C   0  0  1  0  0  0  0  0  0  0  0  0
   24.1196  -21.1610  -17.3481 C   0  0  0  0  0  0  0  0  0  0  0  0
   23.3010  -19.9566  -17.1784 C   0  0  0  0  0  0  0  0  0  0  0  0
   23.3451  -19.2897  -16.0865 O   0  0  0  0  0  0  0  0  0  0  0  0
   22.3988  -22.6626  -16.3082 C   0  0  0  0  0  0  0  0  0  0  0  0
   21.9092  -23.2790  -17.3291 O   0  0  0  0  0  0  0  0  0  0  0  0
   22.4669  -19.5057  -18.1787 O   0  0  0  0  0  0  0  0  0  0  0  0
   20.3115  -22.4095  -12.9373 O   0  0  0  0  0  0  0  0  0  0  0  0
   19.8787  -23.4179  -13.8154 C   0  0  0  0  0  0  0  0  0  0  0  0
   20.1905  -22.9346  -15.2174 C   0  0  2  0  0  0  0  0  0  0  0  0
   21.5660  -22.4188  -15.1878 N   0  0  0  0  0  0  0  0  0  0  0  0
   19.1982  -21.8965  -15.5543 C   0  0  0  0  0  0  0  0  0  0  0  0
   19.5627  -20.5888  -15.7840 O   0  0  0  0  0  0  0  0  0  0  0  0
   17.9776  -22.1739  -15.6439 O   0  0  0  0  0  0  0  0  0  0  0  0
  2  3  2  0
  2  1  1  0
  4  3  1  0
  5  4  2  0
  6  5  1  0
  7  6  1  0
  7  8  1  1
  9  7  1  0
  9 10  2  0
 11  5  1  0
 11 12  2  0
 12  2  1  0
 13  9  1  0
 14 13  1  0
 14 15  1  6
 16 15  1  0
 16 17  2  0
 18 14  1  0
 19 18  2  0
 20 16  1  0
 22 21  1  0
 23 22  1  1
 23 24  1  0
 24 18  1  0
 25 23  1  0
 26 25  1  0
 27 25  2  0
M  END
$$$$
