YDS.pdb
     RDKit          3D

 27 27  0  0  1  0  0  0  0  0999 V2000
   20.1822  -18.9889  -14.1565 O   0  0  0  0  0  0  0  0  0  0  0  0
   20.4466  -17.7358  -14.7094 C   0  0  0  0  0  0  0  0  0  0  0  0
   20.2446  -16.5823  -13.9805 C   0  0  0  0  0  0  0  0  0  0  0  0
   20.4996  -15.3326  -14.5080 C   0  0  0  0  0  0  0  0  0  0  0  0
   20.9719  -15.1798  -15.7991 C   0  0  0  0  0  0  0  0  0  0  0  0
   21.2347  -13.8214  -16.3337 C   0  0  0  0  0  0  0  0  0  0  0  0
   19.9613  -13.2327  -16.9688 C   0  0  2  0  0  0  0  0  0  0  0  0
   19.6318  -14.0389  -18.1462 N   0  0  0  0  0  0  0  0  0  0  0  0
   20.3537  -11.8722  -17.4251 C   0  0  0  0  0  0  0  0  0  0  0  0
   20.9295  -11.7619  -18.5331 O   0  0  0  0  0  0  0  0  0  0  0  0
   21.1732  -16.3330  -16.5260 C   0  0  0  0  0  0  0  0  0  0  0  0
   20.9182  -17.5895  -15.9990 C   0  0  0  0  0  0  0  0  0  0  0  0
   20.0651  -10.7711  -16.6045 N   0  0  0  0  0  0  0  0  0  0  0  0
   20.3253   -9.4184  -17.1117 C   0  0  1  0  0  0  0  0  0  0  0  0
   19.2177   -9.0209  -18.0514 C   0  0  0  0  0  0  0  0  0  0  0  0
   19.3579   -7.6526  -18.5588 C   0  0  0  0  0  0  0  0  0  0  0  0
   18.3338   -7.0045  -18.9713 O   0  0  0  0  0  0  0  0  0  0  0  0
   20.4682   -8.5515  -15.9269 C   0  0  0  0  0  0  0  0  0  0  0  0
   19.7811   -8.8159  -14.8686 O   0  0  0  0  0  0  0  0  0  0  0  0
   20.5837   -7.0240  -18.6066 O   0  0  0  0  0  0  0  0  0  0  0  0
   22.5683   -4.8091  -13.7655 O   0  0  0  0  0  0  0  0  0  0  0  0
   22.4520   -5.5460  -14.9565 C   0  0  0  0  0  0  0  0  0  0  0  0
   21.3836   -6.5933  -14.7153 C   0  0  2  0  0  0  0  0  0  0  0  0
   21.3422   -7.4360  -15.9183 N   0  0  0  0  0  0  0  0  0  0  0  0
   20.1157   -5.8790  -14.4742 C   0  0  0  0  0  0  0  0  0  0  0  0
   19.5513   -5.8014  -13.2208 O   0  0  0  0  0  0  0  0  0  0  0  0
   19.5043   -5.3128  -15.4126 O   0  0  0  0  0  0  0  0  0  0  0  0
  2  3  2  0
  2  1  1  0
  4  3  1  0
  5  4  2  0
  6  5  1  0
  7  6  1  0
  7  8  1  6
  9  7  1  0
  9 10  2  0
 11  5  1  0
 11 12  2  0
 12  2  1  0
 13  9  1  0
 14 13  1  0
 14 15  1  6
 16 15  1  0
 16 17  2  0
 18 14  1  0
 19 18  2  0
 20 16  1  0
 22 21  1  0
 23 22  1  6
 23 24  1  0
 24 18  1  0
 25 23  1  0
 26 25  1  0
 27 25  2  0
M  END
$$$$
