YDS.pdb
     RDKit          3D

 27 27  0  0  1  0  0  0  0  0999 V2000
   27.3154  -13.5678  -17.1757 O   0  0  0  0  0  0  0  0  0  0  0  0
   26.5254  -12.4201  -17.1078 C   0  0  0  0  0  0  0  0  0  0  0  0
   25.5089  -12.2043  -18.0150 C   0  0  0  0  0  0  0  0  0  0  0  0
   24.7156  -11.0759  -17.9661 C   0  0  0  0  0  0  0  0  0  0  0  0
   24.9055  -10.1048  -16.9995 C   0  0  0  0  0  0  0  0  0  0  0  0
   24.0343   -8.9045  -16.9771 C   0  0  0  0  0  0  0  0  0  0  0  0
   23.0339   -8.9822  -15.8089 C   0  0  2  0  0  0  0  0  0  0  0  0
   22.1382  -10.1137  -16.0581 N   0  0  0  0  0  0  0  0  0  0  0  0
   22.2413   -7.7264  -15.8982 C   0  0  0  0  0  0  0  0  0  0  0  0
   21.1205   -7.7715  -16.4576 O   0  0  0  0  0  0  0  0  0  0  0  0
   25.9213  -10.3217  -16.0941 C   0  0  0  0  0  0  0  0  0  0  0  0
   26.7197  -11.4540  -16.1405 C   0  0  0  0  0  0  0  0  0  0  0  0
   22.7740   -6.5471  -15.3553 N   0  0  0  0  0  0  0  0  0  0  0  0
   21.9260   -5.3511  -15.2826 C   0  0  1  0  0  0  0  0  0  0  0  0
   22.2238   -4.6103  -14.0058 C   0  0  0  0  0  0  0  0  0  0  0  0
   21.6593   -5.2602  -12.8191 C   0  0  0  0  0  0  0  0  0  0  0  0
   22.4212   -5.6462  -11.8655 O   0  0  0  0  0  0  0  0  0  0  0  0
   22.1856   -4.5830  -16.5148 C   0  0  0  0  0  0  0  0  0  0  0  0
   23.4031   -4.4056  -16.8996 O   0  0  0  0  0  0  0  0  0  0  0  0
   20.3036   -5.4734  -12.6908 O   0  0  0  0  0  0  0  0  0  0  0  0
   19.4342   -4.1557  -19.1804 O   0  0  0  0  0  0  0  0  0  0  0  0
   20.7313   -3.8771  -19.6441 C   0  0  0  0  0  0  0  0  0  0  0  0
   21.4814   -3.2540  -18.4841 C   0  0  2  0  0  0  0  0  0  0  0  0
   21.1329   -4.0358  -17.2899 N   0  0  0  0  0  0  0  0  0  0  0  0
   21.0525   -1.8457  -18.3903 C   0  0  0  0  0  0  0  0  0  0  0  0
   21.3303   -0.9329  -19.3830 O   0  0  0  0  0  0  0  0  0  0  0  0
   20.4139   -1.4295  -17.3933 O   0  0  0  0  0  0  0  0  0  0  0  0
  2  3  2  0
  2  1  1  0
  4  3  1  0
  5  4  2  0
  6  5  1  0
  7  6  1  0
  7  8  1  6
  9  7  1  0
  9 10  2  0
 11  5  1  0
 11 12  2  0
 12  2  1  0
 13  9  1  0
 14 13  1  0
 14 15  1  1
 16 15  1  0
 16 17  2  0
 18 14  1  0
 19 18  2  0
 20 16  1  0
 22 21  1  0
 23 22  1  6
 23 24  1  0
 24 18  1  0
 25 23  1  0
 26 25  1  0
 27 25  2  0
M  END
$$$$
