YDS.pdb
     RDKit          3D

 27 27  0  0  1  0  0  0  0  0999 V2000
   27.4443  -16.7169  -15.9640 O   0  0  0  0  0  0  0  0  0  0  0  0
   26.6290  -15.5894  -16.0641 C   0  0  0  0  0  0  0  0  0  0  0  0
   26.1416  -15.1730  -17.2854 C   0  0  0  0  0  0  0  0  0  0  0  0
   25.3338  -14.0605  -17.4071 C   0  0  0  0  0  0  0  0  0  0  0  0
   24.9747  -13.3085  -16.3030 C   0  0  0  0  0  0  0  0  0  0  0  0
   24.1052  -12.1186  -16.4707 C   0  0  0  0  0  0  0  0  0  0  0  0
   22.6302  -12.4854  -16.2233 C   0  0  2  0  0  0  0  0  0  0  0  0
   22.2286  -13.4510  -17.2486 N   0  0  0  0  0  0  0  0  0  0  0  0
   21.8777  -11.2217  -16.4469 C   0  0  0  0  0  0  0  0  0  0  0  0
   21.4344  -10.9914  -17.5966 O   0  0  0  0  0  0  0  0  0  0  0  0
   25.4624  -13.7256  -15.0836 C   0  0  0  0  0  0  0  0  0  0  0  0
   26.2738  -14.8426  -14.9582 C   0  0  0  0  0  0  0  0  0  0  0  0
   21.6925  -10.3419  -15.3696 N   0  0  0  0  0  0  0  0  0  0  0  0
   20.9257   -9.1083  -15.5822 C   0  0  1  0  0  0  0  0  0  0  0  0
   19.4794   -9.3609  -15.2473 C   0  0  0  0  0  0  0  0  0  0  0  0
   18.6398   -8.1674  -15.3885 C   0  0  0  0  0  0  0  0  0  0  0  0
   18.5928   -7.5339  -16.5001 O   0  0  0  0  0  0  0  0  0  0  0  0
   21.5753   -8.0693  -14.7612 C   0  0  0  0  0  0  0  0  0  0  0  0
   22.6918   -8.3384  -14.1757 O   0  0  0  0  0  0  0  0  0  0  0  0
   17.8795   -7.6934  -14.3411 O   0  0  0  0  0  0  0  0  0  0  0  0
   23.5228   -4.4513  -15.7373 O   0  0  0  0  0  0  0  0  0  0  0  0
   22.6639   -5.5605  -15.8217 C   0  0  0  0  0  0  0  0  0  0  0  0
   21.9124   -5.6275  -14.5075 C   0  0  2  0  0  0  0  0  0  0  0  0
   21.0071   -6.7811  -14.5996 N   0  0  0  0  0  0  0  0  0  0  0  0
   21.1942   -4.3490  -14.3473 C   0  0  0  0  0  0  0  0  0  0  0  0
   21.6651   -3.3478  -13.5278 O   0  0  0  0  0  0  0  0  0  0  0  0
   20.1205   -4.1298  -14.9587 O   0  0  0  0  0  0  0  0  0  0  0  0
  2  3  2  0
  2  1  1  0
  4  3  1  0
  5  4  2  0
  6  5  1  0
  7  6  1  0
  7  8  1  6
  9  7  1  0
  9 10  2  0
 11  5  1  0
 11 12  2  0
 12  2  1  0
 13  9  1  0
 14 13  1  0
 14 15  1  1
 16 15  1  0
 16 17  2  0
 18 14  1  0
 19 18  2  0
 20 16  1  0
 22 21  1  0
 23 22  1  6
 23 24  1  0
 24 18  1  0
 25 23  1  0
 26 25  1  0
 27 25  2  0
M  END
$$$$
