YDS.pdb
     RDKit          3D

 27 27  0  0  1  0  0  0  0  0999 V2000
   30.1721  -12.2914  -16.8302 O   0  0  0  0  0  0  0  0  0  0  0  0
   29.0841  -11.4220  -16.7509 C   0  0  0  0  0  0  0  0  0  0  0  0
   28.0544  -11.6540  -15.8628 C   0  0  0  0  0  0  0  0  0  0  0  0
   26.9688  -10.8070  -15.7681 C   0  0  0  0  0  0  0  0  0  0  0  0
   26.8638   -9.6808  -16.5643 C   0  0  0  0  0  0  0  0  0  0  0  0
   25.6827   -8.7928  -16.4359 C   0  0  0  0  0  0  0  0  0  0  0  0
   24.3938   -9.5465  -16.8131 C   0  0  2  0  0  0  0  0  0  0  0  0
   24.5579  -10.0657  -18.1727 N   0  0  0  0  0  0  0  0  0  0  0  0
   23.3317   -8.5051  -16.8324 C   0  0  0  0  0  0  0  0  0  0  0  0
   23.0829   -7.9324  -17.9193 O   0  0  0  0  0  0  0  0  0  0  0  0
   27.8932   -9.4503  -17.4509 C   0  0  0  0  0  0  0  0  0  0  0  0
   28.9849  -10.2990  -17.5484 C   0  0  0  0  0  0  0  0  0  0  0  0
   22.6521   -8.2060  -15.6416 N   0  0  0  0  0  0  0  0  0  0  0  0
   21.4948   -7.3044  -15.6903 C   0  0  1  0  0  0  0  0  0  0  0  0
   20.3980   -7.8598  -14.8207 C   0  0  0  0  0  0  0  0  0  0  0  0
   19.7717   -9.0606  -15.3821 C   0  0  0  0  0  0  0  0  0  0  0  0
   19.3112   -9.0551  -16.5766 O   0  0  0  0  0  0  0  0  0  0  0  0
   21.9877   -5.9745  -15.2852 C   0  0  0  0  0  0  0  0  0  0  0  0
   22.7954   -5.8820  -14.2847 O   0  0  0  0  0  0  0  0  0  0  0  0
   19.6607  -10.2239  -14.6512 O   0  0  0  0  0  0  0  0  0  0  0  0
   22.3741   -1.2734  -16.1654 O   0  0  0  0  0  0  0  0  0  0  0  0
   21.7422   -2.4733  -16.5341 C   0  0  0  0  0  0  0  0  0  0  0  0
   22.1556   -3.5126  -15.5117 C   0  0  2  0  0  0  0  0  0  0  0  0
   21.5998   -4.7943  -15.9670 N   0  0  0  0  0  0  0  0  0  0  0  0
   21.6130   -3.0854  -14.2081 C   0  0  0  0  0  0  0  0  0  0  0  0
   22.3614   -2.3548  -13.3128 O   0  0  0  0  0  0  0  0  0  0  0  0
   20.4402   -3.3764  -13.8695 O   0  0  0  0  0  0  0  0  0  0  0  0
  2  3  2  0
  2  1  1  0
  4  3  1  0
  5  4  2  0
  6  5  1  0
  7  6  1  0
  7  8  1  6
  9  7  1  0
  9 10  2  0
 11  5  1  0
 11 12  2  0
 12  2  1  0
 13  9  1  0
 14 13  1  0
 14 15  1  1
 16 15  1  0
 16 17  2  0
 18 14  1  0
 19 18  2  0
 20 16  1  0
 22 21  1  0
 23 22  1  6
 23 24  1  0
 24 18  1  0
 25 23  1  0
 26 25  1  0
 27 25  2  0
M  END
$$$$
