YDS.pdb
     RDKit          3D

 27 27  0  0  1  0  0  0  0  0999 V2000
   28.4513  -12.2369  -15.9990 O   0  0  0  0  0  0  0  0  0  0  0  0
   27.4154  -11.3086  -16.1033 C   0  0  0  0  0  0  0  0  0  0  0  0
   26.4839  -11.3965  -17.1168 C   0  0  0  0  0  0  0  0  0  0  0  0
   25.4513  -10.4888  -17.2387 C   0  0  0  0  0  0  0  0  0  0  0  0
   25.3034   -9.4437  -16.3446 C   0  0  0  0  0  0  0  0  0  0  0  0
   24.1819   -8.4865  -16.5060 C   0  0  0  0  0  0  0  0  0  0  0  0
   22.8939   -9.0488  -15.8764 C   0  0  2  0  0  0  0  0  0  0  0  0
   22.6432  -10.3660  -16.4654 N   0  0  0  0  0  0  0  0  0  0  0  0
   21.8156   -8.1235  -16.3171 C   0  0  0  0  0  0  0  0  0  0  0  0
   21.1855   -8.4036  -17.3639 O   0  0  0  0  0  0  0  0  0  0  0  0
   26.2347   -9.3572  -15.3327 C   0  0  0  0  0  0  0  0  0  0  0  0
   27.2728  -10.2673  -15.2076 C   0  0  0  0  0  0  0  0  0  0  0  0
   21.5453   -6.9808  -15.5489 N   0  0  0  0  0  0  0  0  0  0  0  0
   20.4606   -6.0838  -15.9656 C   0  0  1  0  0  0  0  0  0  0  0  0
   19.1726   -6.5363  -15.3298 C   0  0  0  0  0  0  0  0  0  0  0  0
   18.0479   -5.6379  -15.6074 C   0  0  0  0  0  0  0  0  0  0  0  0
   17.8448   -5.1982  -16.7924 O   0  0  0  0  0  0  0  0  0  0  0  0
   20.8842   -4.7204  -15.5949 C   0  0  0  0  0  0  0  0  0  0  0  0
   21.4591   -4.5288  -14.4571 O   0  0  0  0  0  0  0  0  0  0  0  0
   17.1795   -5.2422  -14.6128 O   0  0  0  0  0  0  0  0  0  0  0  0
   22.4659   -2.1296  -17.8198 O   0  0  0  0  0  0  0  0  0  0  0  0
   21.4081   -1.4546  -17.1870 C   0  0  0  0  0  0  0  0  0  0  0  0
   21.0378   -2.2755  -15.9682 C   0  0  2  0  0  0  0  0  0  0  0  0
   20.6789   -3.6141  -16.4565 N   0  0  0  0  0  0  0  0  0  0  0  0
   19.9141   -1.5899  -15.3024 C   0  0  0  0  0  0  0  0  0  0  0  0
   20.0996   -0.4529  -14.5485 O   0  0  0  0  0  0  0  0  0  0  0  0
   18.7411   -2.0244  -15.4028 O   0  0  0  0  0  0  0  0  0  0  0  0
  2  3  2  0
  2  1  1  0
  4  3  1  0
  5  4  2  0
  6  5  1  0
  7  6  1  0
  7  8  1  6
  9  7  1  0
  9 10  2  0
 11  5  1  0
 11 12  2  0
 12  2  1  0
 13  9  1  0
 14 13  1  0
 14 15  1  1
 16 15  1  0
 16 17  2  0
 18 14  1  0
 19 18  2  0
 20 16  1  0
 22 21  1  0
 23 22  1  6
 23 24  1  0
 24 18  1  0
 25 23  1  0
 26 25  1  0
 27 25  2  0
M  END
$$$$
