YDS.pdb
     RDKit          3D

 27 27  0  0  1  0  0  0  0  0999 V2000
   23.4906  -17.7403  -16.3255 O   0  0  0  0  0  0  0  0  0  0  0  0
   23.4628  -16.3956  -16.6954 C   0  0  0  0  0  0  0  0  0  0  0  0
   22.9995  -15.4304  -15.8256 C   0  0  0  0  0  0  0  0  0  0  0  0
   22.9631  -14.0946  -16.1711 C   0  0  0  0  0  0  0  0  0  0  0  0
   23.3921  -13.6612  -17.4127 C   0  0  0  0  0  0  0  0  0  0  0  0
   23.3384  -12.2179  -17.7504 C   0  0  0  0  0  0  0  0  0  0  0  0
   21.9980  -11.8675  -18.4227 C   0  0  2  0  0  0  0  0  0  0  0  0
   21.9613  -12.5330  -19.7268 N   0  0  0  0  0  0  0  0  0  0  0  0
   22.0531  -10.3978  -18.6460 C   0  0  0  0  0  0  0  0  0  0  0  0
   22.4485   -9.9821  -19.7606 O   0  0  0  0  0  0  0  0  0  0  0  0
   23.8546  -14.6265  -18.2805 C   0  0  0  0  0  0  0  0  0  0  0  0
   23.8924  -15.9688  -17.9364 C   0  0  0  0  0  0  0  0  0  0  0  0
   21.6619   -9.5380  -17.6083 N   0  0  0  0  0  0  0  0  0  0  0  0
   21.6574   -8.0898  -17.8479 C   0  0  1  0  0  0  0  0  0  0  0  0
   20.7804   -7.7873  -19.0343 C   0  0  0  0  0  0  0  0  0  0  0  0
   20.6819   -6.3540  -19.3257 C   0  0  0  0  0  0  0  0  0  0  0  0
   21.7389   -5.6468  -19.4729 O   0  0  0  0  0  0  0  0  0  0  0  0
   21.2235   -7.4618  -16.5858 C   0  0  0  0  0  0  0  0  0  0  0  0
   20.6508   -8.1876  -15.6875 O   0  0  0  0  0  0  0  0  0  0  0  0
   19.4611   -5.7266  -19.4514 O   0  0  0  0  0  0  0  0  0  0  0  0
   22.1788   -5.6359  -12.8277 O   0  0  0  0  0  0  0  0  0  0  0  0
   22.3507   -6.1438  -14.1268 C   0  0  0  0  0  0  0  0  0  0  0  0
   21.2144   -5.5895  -14.9625 C   0  0  2  0  0  0  0  0  0  0  0  0
   21.4209   -6.0817  -16.3315 N   0  0  0  0  0  0  0  0  0  0  0  0
   21.2777   -4.1188  -14.8684 C   0  0  0  0  0  0  0  0  0  0  0  0
   20.6231   -3.4244  -13.8759 O   0  0  0  0  0  0  0  0  0  0  0  0
   21.9369   -3.4458  -15.6975 O   0  0  0  0  0  0  0  0  0  0  0  0
  2  3  2  0
  2  1  1  0
  4  3  1  0
  5  4  2  0
  6  5  1  0
  7  6  1  0
  7  8  1  6
  9  7  1  0
  9 10  2  0
 11  5  1  0
 11 12  2  0
 12  2  1  0
 13  9  1  0
 14 13  1  0
 14 15  1  6
 16 15  1  0
 16 17  2  0
 18 14  1  0
 19 18  2  0
 20 16  1  0
 22 21  1  0
 23 22  1  1
 23 24  1  0
 24 18  1  0
 25 23  1  0
 26 25  1  0
 27 25  2  0
M  END
$$$$
