YDS.pdb
     RDKit          3D

 27 27  0  0  1  0  0  0  0  0999 V2000
   27.3180  -13.0254  -17.1458 O   0  0  0  0  0  0  0  0  0  0  0  0
   26.4963  -12.0510  -16.5791 C   0  0  0  0  0  0  0  0  0  0  0  0
   25.1234  -12.1837  -16.5964 C   0  0  0  0  0  0  0  0  0  0  0  0
   24.2919  -11.2319  -16.0418 C   0  0  0  0  0  0  0  0  0  0  0  0
   24.8010  -10.0951  -15.4402 C   0  0  0  0  0  0  0  0  0  0  0  0
   23.8778   -9.0926  -14.8546 C   0  0  0  0  0  0  0  0  0  0  0  0
   22.5473   -9.0627  -15.6295 C   0  0  2  0  0  0  0  0  0  0  0  0
   22.8545   -8.8251  -17.0417 N   0  0  0  0  0  0  0  0  0  0  0  0
   21.8214   -7.8770  -15.1001 C   0  0  0  0  0  0  0  0  0  0  0  0
   21.4962   -7.8730  -13.8896 O   0  0  0  0  0  0  0  0  0  0  0  0
   26.1726   -9.9638  -15.4237 C   0  0  0  0  0  0  0  0  0  0  0  0
   27.0104  -10.9181  -15.9798 C   0  0  0  0  0  0  0  0  0  0  0  0
   21.5314   -6.8143  -15.9695 N   0  0  0  0  0  0  0  0  0  0  0  0
   20.8232   -5.6400  -15.4460 C   0  0  1  0  0  0  0  0  0  0  0  0
   21.7702   -4.4699  -15.4021 C   0  0  0  0  0  0  0  0  0  0  0  0
   22.6546   -4.4898  -14.2330 C   0  0  0  0  0  0  0  0  0  0  0  0
   22.1668   -4.5169  -13.0497 O   0  0  0  0  0  0  0  0  0  0  0  0
   19.6449   -5.4460  -16.3118 C   0  0  0  0  0  0  0  0  0  0  0  0
   19.5407   -6.1374  -17.3949 O   0  0  0  0  0  0  0  0  0  0  0  0
   24.0264   -4.4821  -14.3673 O   0  0  0  0  0  0  0  0  0  0  0  0
   17.0859   -6.6374  -17.7679 O   0  0  0  0  0  0  0  0  0  0  0  0
   16.7690   -5.9003  -16.6140 C   0  0  0  0  0  0  0  0  0  0  0  0
   17.3925   -4.5304  -16.7902 C   0  0  2  0  0  0  0  0  0  0  0  0
   18.6217   -4.5216  -15.9852 N   0  0  0  0  0  0  0  0  0  0  0  0
   16.4031   -3.5362  -16.3333 C   0  0  0  0  0  0  0  0  0  0  0  0
   15.3596   -3.1276  -17.1332 O   0  0  0  0  0  0  0  0  0  0  0  0
   16.4807   -3.0256  -15.1895 O   0  0  0  0  0  0  0  0  0  0  0  0
  2  3  2  0
  2  1  1  0
  4  3  1  0
  5  4  2  0
  6  5  1  0
  7  6  1  0
  7  8  1  6
  9  7  1  0
  9 10  2  0
 11  5  1  0
 11 12  2  0
 12  2  1  0
 13  9  1  0
 14 13  1  0
 14 15  1  6
 16 15  1  0
 16 17  2  0
 18 14  1  0
 19 18  2  0
 20 16  1  0
 22 21  1  0
 23 22  1  1
 23 24  1  0
 24 18  1  0
 25 23  1  0
 26 25  1  0
 27 25  2  0
M  END
$$$$
