YDS.pdb
     RDKit          3D

 27 27  0  0  1  0  0  0  0  0999 V2000
   19.1698  -13.8630  -22.7278 O   0  0  0  0  0  0  0  0  0  0  0  0
   19.6943  -12.8913  -21.8753 C   0  0  0  0  0  0  0  0  0  0  0  0
   19.7496  -13.0987  -20.5127 C   0  0  0  0  0  0  0  0  0  0  0  0
   20.2642  -12.1509  -19.6514 C   0  0  0  0  0  0  0  0  0  0  0  0
   20.7503  -10.9431  -20.1187 C   0  0  0  0  0  0  0  0  0  0  0  0
   21.2959   -9.9474  -19.1642 C   0  0  0  0  0  0  0  0  0  0  0  0
   22.8317   -9.8877  -19.2614 C   0  0  2  0  0  0  0  0  0  0  0  0
   23.3687  -11.1071  -18.6535 N   0  0  0  0  0  0  0  0  0  0  0  0
   23.2250   -8.7283  -18.4164 C   0  0  0  0  0  0  0  0  0  0  0  0
   23.5495   -8.9461  -17.2253 O   0  0  0  0  0  0  0  0  0  0  0  0
   20.6943  -10.7373  -21.4800 C   0  0  0  0  0  0  0  0  0  0  0  0
   20.1782  -11.6873  -22.3477 C   0  0  0  0  0  0  0  0  0  0  0  0
   23.2193   -7.4435  -18.9808 N   0  0  0  0  0  0  0  0  0  0  0  0
   23.6934   -6.3110  -18.1762 C   0  0  1  0  0  0  0  0  0  0  0  0
   24.1809   -5.2215  -19.0943 C   0  0  0  0  0  0  0  0  0  0  0  0
   24.6585   -4.0358  -18.3765 C   0  0  0  0  0  0  0  0  0  0  0  0
   24.6744   -2.8915  -18.9503 O   0  0  0  0  0  0  0  0  0  0  0  0
   22.5696   -5.9231  -17.3031 C   0  0  0  0  0  0  0  0  0  0  0  0
   21.3635   -6.1742  -17.6829 O   0  0  0  0  0  0  0  0  0  0  0  0
   25.1000   -4.1121  -17.0729 O   0  0  0  0  0  0  0  0  0  0  0  0
   20.0670   -6.2262  -13.8629 O   0  0  0  0  0  0  0  0  0  0  0  0
   21.1573   -6.4358  -14.7245 C   0  0  0  0  0  0  0  0  0  0  0  0
   21.6177   -5.0663  -15.1817 C   0  0  2  0  0  0  0  0  0  0  0  0
   22.7786   -5.2835  -16.0559 N   0  0  0  0  0  0  0  0  0  0  0  0
   21.9503   -4.2892  -13.9728 C   0  0  0  0  0  0  0  0  0  0  0  0
   23.2463   -3.9404  -13.6659 O   0  0  0  0  0  0  0  0  0  0  0  0
   21.0542   -3.9167  -13.1771 O   0  0  0  0  0  0  0  0  0  0  0  0
  2  3  2  0
  2  1  1  0
  4  3  1  0
  5  4  2  0
  6  5  1  0
  7  6  1  0
  7  8  1  1
  9  7  1  0
  9 10  2  0
 11  5  1  0
 11 12  2  0
 12  2  1  0
 13  9  1  0
 14 13  1  0
 14 15  1  6
 16 15  1  0
 16 17  2  0
 18 14  1  0
 19 18  2  0
 20 16  1  0
 22 21  1  0
 23 22  1  1
 23 24  1  0
 24 18  1  0
 25 23  1  0
 26 25  1  0
 27 25  2  0
M  END
$$$$
