YDS.pdb
     RDKit          3D

 27 27  0  0  1  0  0  0  0  0999 V2000
   35.7870  -34.0630   -8.8610 O   0  0  0  0  0  0  0  0  0  0  0  0
   34.8587  -33.9795   -7.8231 C   0  0  0  0  0  0  0  0  0  0  0  0
   33.8109  -33.0840   -7.8794 C   0  0  0  0  0  0  0  0  0  0  0  0
   32.8815  -32.9848   -6.8639 C   0  0  0  0  0  0  0  0  0  0  0  0
   32.9594  -33.7836   -5.7373 C   0  0  0  0  0  0  0  0  0  0  0  0
   31.9432  -33.6498   -4.6651 C   0  0  0  0  0  0  0  0  0  0  0  0
   30.8734  -34.7504   -4.7913 C   0  0  2  0  0  0  0  0  0  0  0  0
   29.6686  -34.1434   -5.3613 N   0  0  0  0  0  0  0  0  0  0  0  0
   30.5769  -35.1597   -3.3921 C   0  0  0  0  0  0  0  0  0  0  0  0
   29.8156  -34.4334   -2.7109 O   0  0  0  0  0  0  0  0  0  0  0  0
   34.0066  -34.6776   -5.6825 C   0  0  0  0  0  0  0  0  0  0  0  0
   34.9416  -34.7797   -6.7008 C   0  0  0  0  0  0  0  0  0  0  0  0
   31.1555  -36.3361   -2.8916 N   0  0  0  0  0  0  0  0  0  0  0  0
   30.8772  -36.7318   -1.5057 C   0  0  1  0  0  0  0  0  0  0  0  0
   30.1709  -38.0618   -1.5032 C   0  0  0  0  0  0  0  0  0  0  0  0
   29.7631  -38.4935   -0.1629 C   0  0  0  0  0  0  0  0  0  0  0  0
   29.6089  -37.6376    0.7765 O   0  0  0  0  0  0  0  0  0  0  0  0
   32.1741  -36.7222   -0.8031 C   0  0  0  0  0  0  0  0  0  0  0  0
   33.1786  -37.3345   -1.3304 O   0  0  0  0  0  0  0  0  0  0  0  0
   29.5327  -39.8212    0.1273 O   0  0  0  0  0  0  0  0  0  0  0  0
   35.3591  -34.6798    1.8813 O   0  0  0  0  0  0  0  0  0  0  0  0
   34.0835  -34.6481    1.2922 C   0  0  0  0  0  0  0  0  0  0  0  0
   33.6759  -36.0896    1.0636 C   0  0  2  0  0  0  0  0  0  0  0  0
   32.3480  -36.0562    0.4356 N   0  0  0  0  0  0  0  0  0  0  0  0
   33.6693  -36.7573    2.3790 C   0  0  0  0  0  0  0  0  0  0  0  0
   34.8284  -36.9795    3.0879 O   0  0  0  0  0  0  0  0  0  0  0  0
   32.5966  -37.1480    2.9001 O   0  0  0  0  0  0  0  0  0  0  0  0
  2  3  2  0
  2  1  1  0
  4  3  1  0
  5  4  2  0
  6  5  1  0
  7  6  1  0
  7  8  1  1
  9  7  1  0
  9 10  2  0
 11  5  1  0
 11 12  2  0
 12  2  1  0
 13  9  1  0
 14 13  1  0
 14 15  1  6
 16 15  1  0
 16 17  2  0
 18 14  1  0
 19 18  2  0
 20 16  1  0
 22 21  1  0
 23 22  1  1
 23 24  1  0
 24 18  1  0
 25 23  1  0
 26 25  1  0
 27 25  2  0
M  END
$$$$
