YDS.pdb
     RDKit          3D

 27 27  0  0  1  0  0  0  0  0999 V2000
   17.8435  -25.5518   -7.3637 O   0  0  0  0  0  0  0  0  0  0  0  0
   18.1810  -24.7405   -8.4470 C   0  0  0  0  0  0  0  0  0  0  0  0
   19.2568  -25.0469   -9.2543 C   0  0  0  0  0  0  0  0  0  0  0  0
   19.6083  -24.2581  -10.3309 C   0  0  0  0  0  0  0  0  0  0  0  0
   18.8935  -23.1179  -10.6507 C   0  0  0  0  0  0  0  0  0  0  0  0
   19.2999  -22.2934  -11.8148 C   0  0  0  0  0  0  0  0  0  0  0  0
   20.7151  -21.7225  -11.6076 C   0  0  2  0  0  0  0  0  0  0  0  0
   20.6611  -20.7823  -10.4860 N   0  0  0  0  0  0  0  0  0  0  0  0
   21.0058  -20.9570  -12.8495 C   0  0  0  0  0  0  0  0  0  0  0  0
   20.5012  -19.8164  -12.9745 O   0  0  0  0  0  0  0  0  0  0  0  0
   17.8192  -22.8130   -9.8434 C   0  0  0  0  0  0  0  0  0  0  0  0
   17.4635  -23.6032   -8.7614 C   0  0  0  0  0  0  0  0  0  0  0  0
   21.8295  -21.5359  -13.8270 N   0  0  0  0  0  0  0  0  0  0  0  0
   22.2123  -20.7380  -14.9982 C   0  0  1  0  0  0  0  0  0  0  0  0
   23.6280  -21.0752  -15.3853 C   0  0  0  0  0  0  0  0  0  0  0  0
   24.1618  -20.1989  -16.4324 C   0  0  0  0  0  0  0  0  0  0  0  0
   25.3812  -20.3036  -16.8080 O   0  0  0  0  0  0  0  0  0  0  0  0
   21.2058  -21.0197  -16.0390 C   0  0  0  0  0  0  0  0  0  0  0  0
   20.7804  -22.2271  -16.1909 O   0  0  0  0  0  0  0  0  0  0  0  0
   23.3766  -19.2443  -17.0425 O   0  0  0  0  0  0  0  0  0  0  0  0
   17.6239  -19.4844  -17.1300 O   0  0  0  0  0  0  0  0  0  0  0  0
   18.7181  -19.1837  -17.9591 C   0  0  0  0  0  0  0  0  0  0  0  0
   19.6679  -20.3609  -17.8669 C   0  0  2  0  0  0  0  0  0  0  0  0
   20.6909  -19.9988  -16.8762 N   0  0  0  0  0  0  0  0  0  0  0  0
   20.2286  -20.5786  -19.2138 C   0  0  0  0  0  0  0  0  0  0  0  0
   19.4550  -21.0293  -20.2598 O   0  0  0  0  0  0  0  0  0  0  0  0
   21.4406  -20.3576  -19.4528 O   0  0  0  0  0  0  0  0  0  0  0  0
  2  3  2  0
  2  1  1  0
  4  3  1  0
  5  4  2  0
  6  5  1  0
  7  6  1  0
  7  8  1  1
  9  7  1  0
  9 10  2  0
 11  5  1  0
 11 12  2  0
 12  2  1  0
 13  9  1  0
 14 13  1  0
 14 15  1  6
 16 15  1  0
 16 17  2  0
 18 14  1  0
 19 18  2  0
 20 16  1  0
 22 21  1  0
 23 22  1  6
 23 24  1  0
 24 18  1  0
 25 23  1  0
 26 25  1  0
 27 25  2  0
M  END
$$$$
