YDS.pdb
     RDKit          3D

 27 27  0  0  1  0  0  0  0  0999 V2000
   21.0623  -17.8553  -15.2511 O   0  0  0  0  0  0  0  0  0  0  0  0
   21.3913  -16.5126  -15.4373 C   0  0  0  0  0  0  0  0  0  0  0  0
   22.6302  -16.0288  -15.0715 C   0  0  0  0  0  0  0  0  0  0  0  0
   22.9763  -14.7042  -15.2466 C   0  0  0  0  0  0  0  0  0  0  0  0
   22.0910  -13.7968  -15.8001 C   0  0  0  0  0  0  0  0  0  0  0  0
   22.4965  -12.3806  -15.9733 C   0  0  0  0  0  0  0  0  0  0  0  0
   22.6818  -12.0480  -17.4654 C   0  0  2  0  0  0  0  0  0  0  0  0
   23.9050  -12.7093  -17.9252 N   0  0  0  0  0  0  0  0  0  0  0  0
   22.8984  -10.5768  -17.5068 C   0  0  0  0  0  0  0  0  0  0  0  0
   24.0695  -10.1466  -17.3853 O   0  0  0  0  0  0  0  0  0  0  0  0
   20.8538  -14.2816  -16.1650 C   0  0  0  0  0  0  0  0  0  0  0  0
   20.5032  -15.6113  -15.9905 C   0  0  0  0  0  0  0  0  0  0  0  0
   21.7915   -9.7320  -17.6804 N   0  0  0  0  0  0  0  0  0  0  0  0
   22.0139   -8.2877  -17.8191 C   0  0  1  0  0  0  0  0  0  0  0  0
   21.2889   -7.7906  -19.0418 C   0  0  0  0  0  0  0  0  0  0  0  0
   21.3844   -6.3381  -19.2159 C   0  0  0  0  0  0  0  0  0  0  0  0
   20.3468   -5.6498  -19.5138 O   0  0  0  0  0  0  0  0  0  0  0  0
   21.5731   -7.6764  -16.5511 C   0  0  0  0  0  0  0  0  0  0  0  0
   20.6066   -8.2206  -15.8941 O   0  0  0  0  0  0  0  0  0  0  0  0
   22.5813   -5.6715  -19.0644 O   0  0  0  0  0  0  0  0  0  0  0  0
   22.2018   -4.4562  -13.0591 O   0  0  0  0  0  0  0  0  0  0  0  0
   22.7146   -5.0046  -14.2472 C   0  0  0  0  0  0  0  0  0  0  0  0
   21.6481   -5.9336  -14.7911 C   0  0  2  0  0  0  0  0  0  0  0  0
   22.1844   -6.5076  -16.0328 N   0  0  0  0  0  0  0  0  0  0  0  0
   20.4341   -5.1255  -15.0129 C   0  0  0  0  0  0  0  0  0  0  0  0
   19.3954   -5.1098  -14.1092 O   0  0  0  0  0  0  0  0  0  0  0  0
   20.3071   -4.4188  -16.0422 O   0  0  0  0  0  0  0  0  0  0  0  0
  2  3  2  0
  2  1  1  0
  4  3  1  0
  5  4  2  0
  6  5  1  0
  7  6  1  0
  7  8  1  1
  9  7  1  0
  9 10  2  0
 11  5  1  0
 11 12  2  0
 12  2  1  0
 13  9  1  0
 14 13  1  0
 14 15  1  6
 16 15  1  0
 16 17  2  0
 18 14  1  0
 19 18  2  0
 20 16  1  0
 22 21  1  0
 23 22  1  6
 23 24  1  0
 24 18  1  0
 25 23  1  0
 26 25  1  0
 27 25  2  0
M  END
$$$$
