YDS.pdb
     RDKit          3D

 27 27  0  0  1  0  0  0  0  0999 V2000
   15.6638  -15.4068  -15.7796 O   0  0  0  0  0  0  0  0  0  0  0  0
   16.6426  -14.4137  -15.8165 C   0  0  0  0  0  0  0  0  0  0  0  0
   16.4884  -13.2951  -16.6089 C   0  0  0  0  0  0  0  0  0  0  0  0
   17.4442  -12.3008  -16.6604 C   0  0  0  0  0  0  0  0  0  0  0  0
   18.6069  -12.3819  -15.9154 C   0  0  0  0  0  0  0  0  0  0  0  0
   19.6130  -11.2949  -15.9956 C   0  0  0  0  0  0  0  0  0  0  0  0
   20.3530  -11.3391  -17.3454 C   0  0  2  0  0  0  0  0  0  0  0  0
   21.3009  -12.4548  -17.3023 N   0  0  0  0  0  0  0  0  0  0  0  0
   21.1245  -10.0685  -17.4020 C   0  0  0  0  0  0  0  0  0  0  0  0
   22.2492  -10.0328  -16.8496 O   0  0  0  0  0  0  0  0  0  0  0  0
   18.7597  -13.4998  -15.1244 C   0  0  0  0  0  0  0  0  0  0  0  0
   17.8014  -14.5001  -15.0704 C   0  0  0  0  0  0  0  0  0  0  0  0
   20.5687   -8.9656  -18.0683 N   0  0  0  0  0  0  0  0  0  0  0  0
   21.3488   -7.7259  -18.1653 C   0  0  1  0  0  0  0  0  0  0  0  0
   21.0577   -7.0600  -19.4842 C   0  0  0  0  0  0  0  0  0  0  0  0
   21.6897   -7.7360  -20.6213 C   0  0  0  0  0  0  0  0  0  0  0  0
   21.0077   -8.0275  -21.6648 O   0  0  0  0  0  0  0  0  0  0  0  0
   20.9988   -6.9218  -16.9793 C   0  0  0  0  0  0  0  0  0  0  0  0
   19.7611   -6.8170  -16.6344 O   0  0  0  0  0  0  0  0  0  0  0  0
   23.0257   -8.0751  -20.6059 O   0  0  0  0  0  0  0  0  0  0  0  0
   22.3206   -4.7774  -12.9310 O   0  0  0  0  0  0  0  0  0  0  0  0
   22.7586   -5.4117  -14.1061 C   0  0  0  0  0  0  0  0  0  0  0  0
   21.5541   -5.5093  -15.0205 C   0  0  2  0  0  0  0  0  0  0  0  0
   21.9863   -6.2622  -16.2059 N   0  0  0  0  0  0  0  0  0  0  0  0
   21.1336   -4.1320  -15.3404 C   0  0  0  0  0  0  0  0  0  0  0  0
   20.0276   -3.5551  -14.7576 O   0  0  0  0  0  0  0  0  0  0  0  0
   21.7765   -3.4342  -16.1617 O   0  0  0  0  0  0  0  0  0  0  0  0
  2  3  2  0
  2  1  1  0
  4  3  1  0
  5  4  2  0
  6  5  1  0
  7  6  1  0
  7  8  1  1
  9  7  1  0
  9 10  2  0
 11  5  1  0
 11 12  2  0
 12  2  1  0
 13  9  1  0
 14 13  1  0
 14 15  1  6
 16 15  1  0
 16 17  2  0
 18 14  1  0
 19 18  2  0
 20 16  1  0
 22 21  1  0
 23 22  1  1
 23 24  1  0
 24 18  1  0
 25 23  1  0
 26 25  1  0
 27 25  2  0
M  END
$$$$
