MDC.pdb
     RDKit          3D

 23 22  0  0  1  0  0  0  0  0999 V2000
    8.4330  -11.8122   19.7364 C   0  0  0  0  0  0  0  0  0  0  0  0
    7.3376  -12.6227   20.9283 S   0  0  0  0  0  0  0  0  0  0  0  0
    7.7286  -14.3986   21.0934 C   0  0  0  0  0  0  0  0  0  0  0  0
    9.2322  -14.5454   20.7909 C   0  0  0  0  0  0  0  0  0  0  0  0
    9.5305  -15.9950   21.0112 C   0  0  2  0  0  0  0  0  0  0  0  0
    8.6335  -16.7828   20.2008 N   0  0  0  0  0  0  0  0  0  0  0  0
    9.5179  -16.4589   22.3964 C   0  0  0  0  0  0  0  0  0  0  0  0
    8.3932  -16.6820   22.9186 O   0  0  0  0  0  0  0  0  0  0  0  0
   10.7027  -16.6614   23.1487 N   0  0  0  0  0  0  0  0  0  0  0  0
   10.5363  -17.1214   24.5370 C   0  0  1  0  0  0  0  0  0  0  0  0
   11.5236  -18.1966   24.7776 C   0  0  0  0  0  0  0  0  0  0  0  0
   11.1461  -19.5367   24.2548 C   0  0  0  0  0  0  0  0  0  0  0  0
   11.9721  -20.1955   23.5753 O   0  0  0  0  0  0  0  0  0  0  0  0
   10.5754  -15.9443   25.4004 C   0  0  0  0  0  0  0  0  0  0  0  0
   11.5963  -15.1781   25.3249 O   0  0  0  0  0  0  0  0  0  0  0  0
    9.8833  -20.0798   24.5057 O   0  0  0  0  0  0  0  0  0  0  0  0
    9.5839  -15.5563   26.3238 N   0  0  0  0  0  0  0  0  0  0  0  0
    9.8394  -14.5631   27.3181 C   0  0  1  0  0  0  0  0  0  0  0  0
    8.6741  -13.6498   27.6281 C   0  0  0  0  0  0  0  0  0  0  0  0
    8.0143  -13.1286   25.9914 S   0  0  0  0  0  0  0  0  0  0  0  0
   10.3101  -15.1447   28.5996 C   0  0  0  0  0  0  0  0  0  0  0  0
   10.6189  -14.3474   29.5334 O   0  0  0  0  0  0  0  0  0  0  0  0
   10.4189  -16.4954   28.7984 O   0  0  0  0  0  0  0  0  0  0  0  0
  2  1  1  0
  2  3  1  0
  4  5  1  0
  4  3  1  0
  5  6  1  6
  7  5  1  0
  7  8  2  0
  9  7  1  0
 10  9  1  0
 10 14  1  0
 10 11  1  1
 12 13  2  0
 12 11  1  0
 14 17  1  0
 15 14  2  0
 16 12  1  0
 17 18  1  0
 18 21  1  0
 19 20  1  0
 18 19  1  1
 21 22  2  0
 21 23  1  0
M  END
$$$$
