MDC.pdb
     RDKit          3D

 23 22  0  0  1  0  0  0  0  0999 V2000
    8.0094  -12.1165   20.1389 C   0  0  0  0  0  0  0  0  0  0  0  0
    6.8258  -12.9477   21.2278 S   0  0  0  0  0  0  0  0  0  0  0  0
    6.9694  -14.7639   21.1070 C   0  0  0  0  0  0  0  0  0  0  0  0
    8.4598  -15.0695   20.8636 C   0  0  0  0  0  0  0  0  0  0  0  0
    8.5570  -16.5624   20.8905 C   0  0  2  0  0  0  0  0  0  0  0  0
    7.3901  -17.1162   20.2475 N   0  0  0  0  0  0  0  0  0  0  0  0
    8.7671  -17.1775   22.1989 C   0  0  0  0  0  0  0  0  0  0  0  0
    8.7078  -18.4346   22.2602 O   0  0  0  0  0  0  0  0  0  0  0  0
    9.0302  -16.4212   23.3690 N   0  0  0  0  0  0  0  0  0  0  0  0
   10.3932  -16.5028   23.9188 C   0  0  1  0  0  0  0  0  0  0  0  0
   11.3431  -16.3565   22.7941 C   0  0  0  0  0  0  0  0  0  0  0  0
   12.2170  -17.5329   22.5412 C   0  0  0  0  0  0  0  0  0  0  0  0
   12.2010  -18.5036   23.3385 O   0  0  0  0  0  0  0  0  0  0  0  0
   10.4820  -15.5520   25.0236 C   0  0  0  0  0  0  0  0  0  0  0  0
   11.6214  -15.3803   25.5778 O   0  0  0  0  0  0  0  0  0  0  0  0
   13.0606  -17.5794   21.4282 O   0  0  0  0  0  0  0  0  0  0  0  0
    9.4219  -14.7868   25.5502 N   0  0  0  0  0  0  0  0  0  0  0  0
    9.5395  -14.1152   26.8053 C   0  0  1  0  0  0  0  0  0  0  0  0
    8.4003  -13.1787   27.1420 C   0  0  0  0  0  0  0  0  0  0  0  0
    7.6688  -12.6990   25.5233 S   0  0  0  0  0  0  0  0  0  0  0  0
    9.7034  -15.0537   27.9430 C   0  0  0  0  0  0  0  0  0  0  0  0
    9.9600  -14.5640   29.0821 O   0  0  0  0  0  0  0  0  0  0  0  0
    9.5877  -16.4108   27.7995 O   0  0  0  0  0  0  0  0  0  0  0  0
  2  1  1  0
  2  3  1  0
  4  5  1  0
  4  3  1  0
  5  6  1  1
  7  5  1  0
  7  8  2  0
  9  7  1  0
 10  9  1  0
 10 14  1  0
 10 11  1  6
 12 13  2  0
 12 11  1  0
 14 17  1  0
 15 14  2  0
 16 12  1  0
 17 18  1  0
 18 21  1  0
 19 20  1  0
 18 19  1  1
 21 22  2  0
 21 23  1  0
M  END
$$$$
