MDC.pdb
     RDKit          3D

 23 22  0  0  1  0  0  0  0  0999 V2000
    7.8838  -11.9813   20.2820 C   0  0  0  0  0  0  0  0  0  0  0  0
    7.3709  -12.4784   18.6185 S   0  0  0  0  0  0  0  0  0  0  0  0
    7.7564  -14.2342   18.2982 C   0  0  0  0  0  0  0  0  0  0  0  0
    8.3208  -14.8050   19.6132 C   0  0  0  0  0  0  0  0  0  0  0  0
    8.7036  -16.2148   19.2891 C   0  0  2  0  0  0  0  0  0  0  0  0
    7.5284  -16.9261   18.8477 N   0  0  0  0  0  0  0  0  0  0  0  0
    9.3946  -16.9594   20.3390 C   0  0  0  0  0  0  0  0  0  0  0  0
    8.7201  -17.8065   20.9832 O   0  0  0  0  0  0  0  0  0  0  0  0
   10.7652  -16.7627   20.6442 N   0  0  0  0  0  0  0  0  0  0  0  0
   11.3203  -17.5627   21.7481 C   0  0  1  0  0  0  0  0  0  0  0  0
   12.7350  -17.8536   21.4277 C   0  0  0  0  0  0  0  0  0  0  0  0
   13.4504  -18.7033   22.4165 C   0  0  0  0  0  0  0  0  0  0  0  0
   14.6866  -18.5565   22.5851 O   0  0  0  0  0  0  0  0  0  0  0  0
   11.0265  -16.8605   22.9943 C   0  0  0  0  0  0  0  0  0  0  0  0
   11.7537  -15.8549   23.3026 O   0  0  0  0  0  0  0  0  0  0  0  0
   12.7706  -19.6676   23.1653 O   0  0  0  0  0  0  0  0  0  0  0  0
   10.0026  -17.1806   23.9085 N   0  0  0  0  0  0  0  0  0  0  0  0
    9.8618  -16.4796   25.1450 C   0  0  1  0  0  0  0  0  0  0  0  0
    8.4844  -15.9128   25.4087 C   0  0  0  0  0  0  0  0  0  0  0  0
    8.0925  -14.8793   23.9377 S   0  0  0  0  0  0  0  0  0  0  0  0
   10.2417  -17.3061   26.3174 C   0  0  0  0  0  0  0  0  0  0  0  0
   10.5621  -18.5136   26.1115 O   0  0  0  0  0  0  0  0  0  0  0  0
   10.2551  -16.8099   27.5938 O   0  0  0  0  0  0  0  0  0  0  0  0
  2  1  1  0
  2  3  1  0
  4  5  1  0
  4  3  1  0
  5  6  1  1
  7  5  1  0
  7  8  2  0
  9  7  1  0
 10  9  1  0
 10 14  1  0
 10 11  1  6
 12 13  2  0
 12 11  1  0
 14 17  1  0
 15 14  2  0
 16 12  1  0
 17 18  1  0
 18 21  1  0
 19 20  1  0
 18 19  1  1
 21 22  2  0
 21 23  1  0
M  END
$$$$
