MDC.pdb
     RDKit          3D

 23 22  0  0  1  0  0  0  0  0999 V2000
    8.4282  -11.4652   20.4162 C   0  0  0  0  0  0  0  0  0  0  0  0
    7.4868  -12.4850   19.2538 S   0  0  0  0  0  0  0  0  0  0  0  0
    7.8143  -14.2629   19.5092 C   0  0  0  0  0  0  0  0  0  0  0  0
    7.8844  -14.4804   21.0329 C   0  0  0  0  0  0  0  0  0  0  0  0
    8.0821  -15.9537   21.2039 C   0  0  2  0  0  0  0  0  0  0  0  0
    6.8863  -16.6365   20.7730 N   0  0  0  0  0  0  0  0  0  0  0  0
    8.4854  -16.4064   22.5330 C   0  0  0  0  0  0  0  0  0  0  0  0
    7.5794  -16.8430   23.2920 O   0  0  0  0  0  0  0  0  0  0  0  0
    9.8305  -16.3712   22.9803 N   0  0  0  0  0  0  0  0  0  0  0  0
   10.0908  -16.8730   24.3394 C   0  0  1  0  0  0  0  0  0  0  0  0
   11.2387  -17.8031   24.2649 C   0  0  0  0  0  0  0  0  0  0  0  0
   11.6244  -18.4433   25.5505 C   0  0  0  0  0  0  0  0  0  0  0  0
   12.7291  -19.0340   25.6455 O   0  0  0  0  0  0  0  0  0  0  0  0
   10.1973  -15.7166   25.2247 C   0  0  0  0  0  0  0  0  0  0  0  0
   11.2109  -14.9487   25.0900 O   0  0  0  0  0  0  0  0  0  0  0  0
   10.7769  -18.4010   26.6608 O   0  0  0  0  0  0  0  0  0  0  0  0
    9.2794  -15.3505   26.2296 N   0  0  0  0  0  0  0  0  0  0  0  0
    9.5813  -14.3247   27.1767 C   0  0  1  0  0  0  0  0  0  0  0  0
    8.5259  -13.2502   27.3181 C   0  0  0  0  0  0  0  0  0  0  0  0
    7.4003  -13.4801   25.8809 S   0  0  0  0  0  0  0  0  0  0  0  0
    9.8629  -14.8617   28.5310 C   0  0  0  0  0  0  0  0  0  0  0  0
   10.1385  -14.0353   29.4499 O   0  0  0  0  0  0  0  0  0  0  0  0
    9.8344  -16.2019   28.8115 O   0  0  0  0  0  0  0  0  0  0  0  0
  2  1  1  0
  2  3  1  0
  4  5  1  0
  4  3  1  0
  5  6  1  1
  7  5  1  0
  7  8  2  0
  9  7  1  0
 10  9  1  0
 10 14  1  0
 10 11  1  6
 12 13  2  0
 12 11  1  0
 14 17  1  0
 15 14  2  0
 16 12  1  0
 17 18  1  0
 18 21  1  0
 19 20  1  0
 18 19  1  1
 21 22  2  0
 21 23  1  0
M  END
$$$$
