MDC.pdb
     RDKit          3D

 23 22  0  0  1  0  0  0  0  0999 V2000
    7.2396  -11.4657   21.7297 C   0  0  0  0  0  0  0  0  0  0  0  0
    7.7096  -12.0634   20.0867 S   0  0  0  0  0  0  0  0  0  0  0  0
    7.8098  -13.8860   20.0431 C   0  0  0  0  0  0  0  0  0  0  0  0
    7.5636  -14.3722   21.4842 C   0  0  0  0  0  0  0  0  0  0  0  0
    7.6486  -15.8641   21.4080 C   0  0  2  0  0  0  0  0  0  0  0  0
    6.3113  -16.4056   21.3850 N   0  0  0  0  0  0  0  0  0  0  0  0
    8.4556  -16.5232   22.4320 C   0  0  0  0  0  0  0  0  0  0  0  0
    7.8441  -17.0216   23.4144 O   0  0  0  0  0  0  0  0  0  0  0  0
    9.8682  -16.6170   22.3532 N   0  0  0  0  0  0  0  0  0  0  0  0
   10.5556  -17.2472   23.4921 C   0  0  1  0  0  0  0  0  0  0  0  0
   11.8364  -17.7980   22.9975 C   0  0  0  0  0  0  0  0  0  0  0  0
   12.7319  -18.3640   24.0412 C   0  0  0  0  0  0  0  0  0  0  0  0
   12.2371  -18.9636   25.0280 O   0  0  0  0  0  0  0  0  0  0  0  0
   10.5987  -16.2713   24.5774 C   0  0  0  0  0  0  0  0  0  0  0  0
   10.7848  -15.0432   24.2736 O   0  0  0  0  0  0  0  0  0  0  0  0
   14.1205  -18.2406   23.9452 O   0  0  0  0  0  0  0  0  0  0  0  0
   10.4504  -16.5477   25.9515 N   0  0  0  0  0  0  0  0  0  0  0  0
   10.4795  -15.5061   26.9285 C   0  0  1  0  0  0  0  0  0  0  0  0
    9.2548  -14.6187   26.9580 C   0  0  0  0  0  0  0  0  0  0  0  0
    9.6171  -13.3294   28.2198 S   0  0  0  0  0  0  0  0  0  0  0  0
   10.6990  -16.0181   28.3039 C   0  0  0  0  0  0  0  0  0  0  0  0
   10.6156  -17.2676   28.4907 O   0  0  0  0  0  0  0  0  0  0  0  0
   10.9837  -15.1929   29.3592 O   0  0  0  0  0  0  0  0  0  0  0  0
  2  1  1  0
  2  3  1  0
  4  5  1  0
  4  3  1  0
  5  6  1  1
  7  5  1  0
  7  8  2  0
  9  7  1  0
 10  9  1  0
 10 14  1  0
 10 11  1  6
 12 13  2  0
 12 11  1  0
 14 17  1  0
 15 14  2  0
 16 12  1  0
 17 18  1  0
 18 21  1  0
 19 20  1  0
 18 19  1  1
 21 22  2  0
 21 23  1  0
M  END
$$$$
