MDC.pdb
     RDKit          3D

 23 22  0  0  1  0  0  0  0  0999 V2000
    6.4460  -11.4839   26.3177 C   0  0  0  0  0  0  0  0  0  0  0  0
    7.1330  -11.9982   24.7236 S   0  0  0  0  0  0  0  0  0  0  0  0
    6.4446  -13.6017   24.1865 C   0  0  0  0  0  0  0  0  0  0  0  0
    7.0947  -13.9236   22.8272 C   0  0  0  0  0  0  0  0  0  0  0  0
    8.5251  -14.2264   23.1456 C   0  0  2  0  0  0  0  0  0  0  0  0
    9.2453  -14.4210   21.9105 N   0  0  0  0  0  0  0  0  0  0  0  0
    8.7665  -15.3357   24.0650 C   0  0  0  0  0  0  0  0  0  0  0  0
    8.2273  -15.2688   25.2019 O   0  0  0  0  0  0  0  0  0  0  0  0
    9.5667  -16.4553   23.7235 N   0  0  0  0  0  0  0  0  0  0  0  0
    9.7390  -17.4878   24.7584 C   0  0  1  0  0  0  0  0  0  0  0  0
   10.2855  -18.6965   24.1034 C   0  0  0  0  0  0  0  0  0  0  0  0
   10.1568  -19.9566   24.8826 C   0  0  0  0  0  0  0  0  0  0  0  0
   10.0230  -19.9063   26.1307 O   0  0  0  0  0  0  0  0  0  0  0  0
   10.5007  -16.8934   25.8533 C   0  0  0  0  0  0  0  0  0  0  0  0
   11.6343  -16.3685   25.5804 O   0  0  0  0  0  0  0  0  0  0  0  0
   10.1825  -21.2023   24.2499 O   0  0  0  0  0  0  0  0  0  0  0  0
   10.1068  -16.8346   27.2053 N   0  0  0  0  0  0  0  0  0  0  0  0
   11.0046  -16.3924   28.2244 C   0  0  1  0  0  0  0  0  0  0  0  0
   10.6355  -15.0803   28.8806 C   0  0  0  0  0  0  0  0  0  0  0  0
   10.2896  -13.9218   27.4936 S   0  0  0  0  0  0  0  0  0  0  0  0
   11.1894  -17.3983   29.2996 C   0  0  0  0  0  0  0  0  0  0  0  0
   10.5439  -18.4840   29.2117 O   0  0  0  0  0  0  0  0  0  0  0  0
   12.0229  -17.1902   30.3662 O   0  0  0  0  0  0  0  0  0  0  0  0
  2  1  1  0
  2  3  1  0
  4  5  1  0
  4  3  1  0
  5  6  1  6
  7  5  1  0
  7  8  2  0
  9  7  1  0
 10  9  1  0
 10 14  1  0
 10 11  1  6
 12 13  2  0
 12 11  1  0
 14 17  1  0
 15 14  2  0
 16 12  1  0
 17 18  1  0
 18 21  1  0
 19 20  1  0
 18 19  1  1
 21 22  2  0
 21 23  1  0
M  END
$$$$
