MDC.pdb
     RDKit          3D

 23 22  0  0  1  0  0  0  0  0999 V2000
    8.3891  -12.1815   19.7927 C   0  0  0  0  0  0  0  0  0  0  0  0
    7.2565  -12.6597   21.1216 S   0  0  0  0  0  0  0  0  0  0  0  0
    7.1832  -14.4737   21.3155 C   0  0  0  0  0  0  0  0  0  0  0  0
    8.0869  -15.0678   20.2180 C   0  0  0  0  0  0  0  0  0  0  0  0
    8.1519  -16.5315   20.5220 C   0  0  2  0  0  0  0  0  0  0  0  0
    6.8243  -17.0873   20.4192 N   0  0  0  0  0  0  0  0  0  0  0  0
    8.7722  -16.9059   21.7905 C   0  0  0  0  0  0  0  0  0  0  0  0
    8.0485  -17.5038   22.6309 O   0  0  0  0  0  0  0  0  0  0  0  0
   10.1285  -16.6249   22.0939 N   0  0  0  0  0  0  0  0  0  0  0  0
   10.6364  -17.1220   23.3830 C   0  0  1  0  0  0  0  0  0  0  0  0
   11.9469  -17.7622   23.1351 C   0  0  0  0  0  0  0  0  0  0  0  0
   12.6534  -18.2572   24.3465 C   0  0  0  0  0  0  0  0  0  0  0  0
   13.2383  -17.4424   25.1030 O   0  0  0  0  0  0  0  0  0  0  0  0
   10.5786  -16.0175   24.3365 C   0  0  0  0  0  0  0  0  0  0  0  0
   10.6044  -14.8249   23.8760 O   0  0  0  0  0  0  0  0  0  0  0  0
   12.6799  -19.6185   24.6609 O   0  0  0  0  0  0  0  0  0  0  0  0
   10.4926  -16.1321   25.7386 N   0  0  0  0  0  0  0  0  0  0  0  0
   10.0026  -15.0600   26.5452 C   0  0  1  0  0  0  0  0  0  0  0  0
    8.6255  -14.5551   26.1750 C   0  0  0  0  0  0  0  0  0  0  0  0
    8.3264  -13.1070   27.2700 S   0  0  0  0  0  0  0  0  0  0  0  0
    9.9874  -15.3928   27.9912 C   0  0  0  0  0  0  0  0  0  0  0  0
    9.6544  -14.4817   28.8048 O   0  0  0  0  0  0  0  0  0  0  0  0
   10.3180  -16.6351   28.4635 O   0  0  0  0  0  0  0  0  0  0  0  0
  2  1  1  0
  2  3  1  0
  4  5  1  0
  4  3  1  0
  5  6  1  1
  7  5  1  0
  7  8  2  0
  9  7  1  0
 10  9  1  0
 10 14  1  0
 10 11  1  6
 12 13  2  0
 12 11  1  0
 14 17  1  0
 15 14  2  0
 16 12  1  0
 17 18  1  0
 18 21  1  0
 19 20  1  0
 18 19  1  6
 21 22  2  0
 21 23  1  0
M  END
$$$$
