MDC.pdb
     RDKit          3D

 23 22  0  0  1  0  0  0  0  0999 V2000
    7.7650  -11.6836   19.0801 C   0  0  0  0  0  0  0  0  0  0  0  0
    7.9914  -13.3516   19.7466 S   0  0  0  0  0  0  0  0  0  0  0  0
    6.6378  -13.8046   20.8852 C   0  0  0  0  0  0  0  0  0  0  0  0
    7.0586  -15.1231   21.5622 C   0  0  0  0  0  0  0  0  0  0  0  0
    8.2825  -14.7785   22.3510 C   0  0  2  0  0  0  0  0  0  0  0  0
    9.3566  -14.4780   21.4356 N   0  0  0  0  0  0  0  0  0  0  0  0
    8.7114  -15.7567   23.3477 C   0  0  0  0  0  0  0  0  0  0  0  0
    7.8623  -16.1118   24.2083 O   0  0  0  0  0  0  0  0  0  0  0  0
   10.0191  -16.3041   23.3725 N   0  0  0  0  0  0  0  0  0  0  0  0
   10.3643  -17.1449   24.5305 C   0  0  1  0  0  0  0  0  0  0  0  0
   11.3814  -18.1245   24.0897 C   0  0  0  0  0  0  0  0  0  0  0  0
   11.5886  -19.2814   25.0009 C   0  0  0  0  0  0  0  0  0  0  0  0
   11.8893  -19.0806   26.2040 O   0  0  0  0  0  0  0  0  0  0  0  0
   10.6996  -16.2550   25.6386 C   0  0  0  0  0  0  0  0  0  0  0  0
   11.7418  -15.5226   25.5262 O   0  0  0  0  0  0  0  0  0  0  0  0
   11.4553  -20.5945   24.5421 O   0  0  0  0  0  0  0  0  0  0  0  0
    9.9778  -16.1147   26.8411 N   0  0  0  0  0  0  0  0  0  0  0  0
   10.4377  -15.2625   27.8910 C   0  0  1  0  0  0  0  0  0  0  0  0
    9.5043  -14.1285   28.2533 C   0  0  0  0  0  0  0  0  0  0  0  0
    8.8903  -13.4707   26.6483 S   0  0  0  0  0  0  0  0  0  0  0  0
   10.7484  -16.0065   29.1368 C   0  0  0  0  0  0  0  0  0  0  0  0
   10.5274  -17.2531   29.1524 O   0  0  0  0  0  0  0  0  0  0  0  0
   11.2581  -15.3949   30.2512 O   0  0  0  0  0  0  0  0  0  0  0  0
  2  1  1  0
  2  3  1  0
  4  5  1  0
  4  3  1  0
  5  6  1  6
  7  5  1  0
  7  8  2  0
  9  7  1  0
 10  9  1  0
 10 14  1  0
 10 11  1  6
 12 13  2  0
 12 11  1  0
 14 17  1  0
 15 14  2  0
 16 12  1  0
 17 18  1  0
 18 21  1  0
 19 20  1  0
 18 19  1  1
 21 22  2  0
 21 23  1  0
M  END
$$$$
