MDC.pdb
     RDKit          3D

 23 22  0  0  1  0  0  0  0  0999 V2000
    7.8447  -11.6580   25.9817 C   0  0  0  0  0  0  0  0  0  0  0  0
    6.0830  -12.0681   25.9082 S   0  0  0  0  0  0  0  0  0  0  0  0
    5.8241  -13.8626   25.6928 C   0  0  0  0  0  0  0  0  0  0  0  0
    6.7619  -14.3063   24.5537 C   0  0  0  0  0  0  0  0  0  0  0  0
    6.5614  -15.7849   24.4425 C   0  0  2  0  0  0  0  0  0  0  0  0
    5.8936  -16.2546   25.6322 N   0  0  0  0  0  0  0  0  0  0  0  0
    7.7530  -16.5846   24.1688 C   0  0  0  0  0  0  0  0  0  0  0  0
    7.5789  -17.8023   23.8963 O   0  0  0  0  0  0  0  0  0  0  0  0
    9.0634  -16.0439   24.1985 N   0  0  0  0  0  0  0  0  0  0  0  0
   10.1764  -16.9934   24.0357 C   0  0  1  0  0  0  0  0  0  0  0  0
   11.0989  -16.4379   23.0213 C   0  0  0  0  0  0  0  0  0  0  0  0
   12.2751  -17.2879   22.6963 C   0  0  0  0  0  0  0  0  0  0  0  0
   12.2600  -18.5098   22.9876 O   0  0  0  0  0  0  0  0  0  0  0  0
   10.7077  -17.2837   25.3646 C   0  0  0  0  0  0  0  0  0  0  0  0
   11.5208  -16.4438   25.8827 O   0  0  0  0  0  0  0  0  0  0  0  0
   13.4030  -16.7506   22.0705 O   0  0  0  0  0  0  0  0  0  0  0  0
   10.4088  -18.4141   26.1516 N   0  0  0  0  0  0  0  0  0  0  0  0
   11.0375  -18.6290   27.4160 C   0  0  1  0  0  0  0  0  0  0  0  0
   10.1164  -18.5485   28.6133 C   0  0  0  0  0  0  0  0  0  0  0  0
    8.5368  -19.3172   28.0659 S   0  0  0  0  0  0  0  0  0  0  0  0
   11.7547  -19.9263   27.4850 C   0  0  0  0  0  0  0  0  0  0  0  0
   11.6969  -20.6889   26.4759 O   0  0  0  0  0  0  0  0  0  0  0  0
   12.4646  -20.3165   28.5892 O   0  0  0  0  0  0  0  0  0  0  0  0
  2  1  1  0
  2  3  1  0
  4  5  1  0
  4  3  1  0
  5  6  1  1
  7  5  1  0
  7  8  2  0
  9  7  1  0
 10  9  1  0
 10 14  1  0
 10 11  1  6
 12 13  2  0
 12 11  1  0
 14 17  1  0
 15 14  2  0
 16 12  1  0
 17 18  1  0
 18 21  1  0
 19 20  1  0
 18 19  1  1
 21 22  2  0
 21 23  1  0
M  END
$$$$
