MDC.pdb
     RDKit          3D

 23 22  0  0  1  0  0  0  0  0999 V2000
    7.7717  -12.3450   20.4249 C   0  0  0  0  0  0  0  0  0  0  0  0
    6.6174  -13.2711   21.4677 S   0  0  0  0  0  0  0  0  0  0  0  0
    7.3037  -14.8947   21.9439 C   0  0  0  0  0  0  0  0  0  0  0  0
    7.7500  -15.5807   20.6385 C   0  0  0  0  0  0  0  0  0  0  0  0
    8.1672  -16.9577   21.0494 C   0  0  2  0  0  0  0  0  0  0  0  0
    6.9938  -17.7038   21.4345 N   0  0  0  0  0  0  0  0  0  0  0  0
    9.1971  -17.0450   22.0818 C   0  0  0  0  0  0  0  0  0  0  0  0
    8.9673  -17.8031   23.0615 O   0  0  0  0  0  0  0  0  0  0  0  0
   10.4150  -16.3220   22.0138 N   0  0  0  0  0  0  0  0  0  0  0  0
   11.3990  -16.5789   23.0781 C   0  0  1  0  0  0  0  0  0  0  0  0
   12.7297  -16.1824   22.5676 C   0  0  0  0  0  0  0  0  0  0  0  0
   13.5029  -17.2622   21.8983 C   0  0  0  0  0  0  0  0  0  0  0  0
   14.6120  -16.9987   21.3706 O   0  0  0  0  0  0  0  0  0  0  0  0
   10.9098  -15.9392   24.2962 C   0  0  0  0  0  0  0  0  0  0  0  0
   11.6068  -16.0634   25.3610 O   0  0  0  0  0  0  0  0  0  0  0  0
   13.0165  -18.5711   21.8443 O   0  0  0  0  0  0  0  0  0  0  0  0
    9.7277  -15.1819   24.4215 N   0  0  0  0  0  0  0  0  0  0  0  0
    9.3715  -14.5552   25.6546 C   0  0  1  0  0  0  0  0  0  0  0  0
    8.2318  -13.5644   25.5659 C   0  0  0  0  0  0  0  0  0  0  0  0
    8.1308  -12.7872   27.2306 S   0  0  0  0  0  0  0  0  0  0  0  0
    9.0362  -15.5345   26.7178 C   0  0  0  0  0  0  0  0  0  0  0  0
    8.9443  -15.1090   27.9068 O   0  0  0  0  0  0  0  0  0  0  0  0
    8.8274  -16.8624   26.4555 O   0  0  0  0  0  0  0  0  0  0  0  0
  2  1  1  0
  2  3  1  0
  4  5  1  0
  4  3  1  0
  5  6  1  1
  7  5  1  0
  7  8  2  0
  9  7  1  0
 10  9  1  0
 10 14  1  0
 10 11  1  6
 12 13  2  0
 12 11  1  0
 14 17  1  0
 15 14  2  0
 16 12  1  0
 17 18  1  0
 18 21  1  0
 19 20  1  0
 18 19  1  6
 21 22  2  0
 21 23  1  0
M  END
$$$$
