MDC.pdb
     RDKit          3D

 23 22  0  0  1  0  0  0  0  0999 V2000
    8.4634  -11.0653   19.4459 C   0  0  0  0  0  0  0  0  0  0  0  0
    7.5920  -12.3462   20.3827 S   0  0  0  0  0  0  0  0  0  0  0  0
    8.5834  -13.8746   20.5045 C   0  0  0  0  0  0  0  0  0  0  0  0
    7.8671  -14.7805   21.5243 C   0  0  0  0  0  0  0  0  0  0  0  0
    8.6874  -16.0310   21.5727 C   0  0  2  0  0  0  0  0  0  0  0  0
    8.1041  -17.0047   20.6819 N   0  0  0  0  0  0  0  0  0  0  0  0
    8.9139  -16.6101   22.8947 C   0  0  0  0  0  0  0  0  0  0  0  0
    7.8963  -16.8805   23.5867 O   0  0  0  0  0  0  0  0  0  0  0  0
   10.2103  -16.8710   23.4063 N   0  0  0  0  0  0  0  0  0  0  0  0
   10.2950  -17.2946   24.8135 C   0  0  1  0  0  0  0  0  0  0  0  0
   11.3369  -18.3405   24.9080 C   0  0  0  0  0  0  0  0  0  0  0  0
   11.5658  -18.8904   26.2707 C   0  0  0  0  0  0  0  0  0  0  0  0
   12.2813  -18.2568   27.0860 O   0  0  0  0  0  0  0  0  0  0  0  0
   10.4494  -16.0927   25.6284 C   0  0  0  0  0  0  0  0  0  0  0  0
   11.5077  -15.3924   25.4709 O   0  0  0  0  0  0  0  0  0  0  0  0
   10.9978  -20.1052   26.6636 O   0  0  0  0  0  0  0  0  0  0  0  0
    9.5336  -15.6136   26.5867 N   0  0  0  0  0  0  0  0  0  0  0  0
    9.8690  -14.5390   27.4658 C   0  0  1  0  0  0  0  0  0  0  0  0
    8.7169  -13.6342   27.8430 C   0  0  0  0  0  0  0  0  0  0  0  0
    7.7473  -13.4085   26.2956 S   0  0  0  0  0  0  0  0  0  0  0  0
   10.5062  -15.0055   28.7221 C   0  0  0  0  0  0  0  0  0  0  0  0
   10.5346  -16.2518   28.9441 O   0  0  0  0  0  0  0  0  0  0  0  0
   11.0548  -14.1426   29.6332 O   0  0  0  0  0  0  0  0  0  0  0  0
  2  1  1  0
  2  3  1  0
  4  5  1  0
  4  3  1  0
  5  6  1  6
  7  5  1  0
  7  8  2  0
  9  7  1  0
 10  9  1  0
 10 14  1  0
 10 11  1  6
 12 13  2  0
 12 11  1  0
 14 17  1  0
 15 14  2  0
 16 12  1  0
 17 18  1  0
 18 21  1  0
 19 20  1  0
 18 19  1  1
 21 22  2  0
 21 23  1  0
M  END
$$$$
