MDC.pdb
     RDKit          3D

 23 22  0  0  1  0  0  0  0  0999 V2000
    7.3605  -12.0083   22.2079 C   0  0  0  0  0  0  0  0  0  0  0  0
    7.2353  -12.3801   20.4406 S   0  0  0  0  0  0  0  0  0  0  0  0
    7.3882  -14.1717   20.1232 C   0  0  0  0  0  0  0  0  0  0  0  0
    8.5330  -14.6788   21.0210 C   0  0  0  0  0  0  0  0  0  0  0  0
    8.4960  -16.1688   20.8888 C   0  0  2  0  0  0  0  0  0  0  0  0
    7.1326  -16.6157   21.0416 N   0  0  0  0  0  0  0  0  0  0  0  0
    9.3884  -16.9225   21.7663 C   0  0  0  0  0  0  0  0  0  0  0  0
    9.7605  -18.0591   21.3700 O   0  0  0  0  0  0  0  0  0  0  0  0
    9.8366  -16.4244   23.0159 N   0  0  0  0  0  0  0  0  0  0  0  0
   11.1889  -16.8207   23.4413 C   0  0  1  0  0  0  0  0  0  0  0  0
   12.1136  -16.5457   22.3197 C   0  0  0  0  0  0  0  0  0  0  0  0
   12.9454  -17.6984   21.8826 C   0  0  0  0  0  0  0  0  0  0  0  0
   12.5995  -18.8670   22.1870 O   0  0  0  0  0  0  0  0  0  0  0  0
   11.4540  -16.1790   24.7259 C   0  0  0  0  0  0  0  0  0  0  0  0
   12.2253  -15.1592   24.7398 O   0  0  0  0  0  0  0  0  0  0  0  0
   14.1110  -17.5054   21.1364 O   0  0  0  0  0  0  0  0  0  0  0  0
   10.9352  -16.5730   25.9758 N   0  0  0  0  0  0  0  0  0  0  0  0
   10.5155  -15.6113   26.9450 C   0  0  1  0  0  0  0  0  0  0  0  0
    9.3722  -14.7204   26.5124 C   0  0  0  0  0  0  0  0  0  0  0  0
    9.1504  -13.5121   27.8823 S   0  0  0  0  0  0  0  0  0  0  0  0
   10.1397  -16.2310   28.2399 C   0  0  0  0  0  0  0  0  0  0  0  0
    9.4077  -17.2637   28.2115 O   0  0  0  0  0  0  0  0  0  0  0  0
   10.5538  -15.7271   29.4441 O   0  0  0  0  0  0  0  0  0  0  0  0
  2  1  1  0
  2  3  1  0
  4  5  1  0
  4  3  1  0
  5  6  1  1
  7  5  1  0
  7  8  2  0
  9  7  1  0
 10  9  1  0
 10 14  1  0
 10 11  1  6
 12 13  2  0
 12 11  1  0
 14 17  1  0
 15 14  2  0
 16 12  1  0
 17 18  1  0
 18 21  1  0
 19 20  1  0
 18 19  1  6
 21 22  2  0
 21 23  1  0
M  END
$$$$
