MDC.pdb
     RDKit          3D

 23 22  0  0  1  0  0  0  0  0999 V2000
    6.3430  -10.5786   26.0725 C   0  0  0  0  0  0  0  0  0  0  0  0
    5.9209  -12.1472   26.8718 S   0  0  0  0  0  0  0  0  0  0  0  0
    5.8379  -13.5117   25.6614 C   0  0  0  0  0  0  0  0  0  0  0  0
    7.1098  -14.3567   25.8669 C   0  0  0  0  0  0  0  0  0  0  0  0
    7.0550  -15.4028   24.7984 C   0  0  2  0  0  0  0  0  0  0  0  0
    5.9424  -16.2821   25.0650 N   0  0  0  0  0  0  0  0  0  0  0  0
    8.2781  -16.1699   24.5751 C   0  0  0  0  0  0  0  0  0  0  0  0
    8.3508  -17.3069   25.1131 O   0  0  0  0  0  0  0  0  0  0  0  0
    9.3552  -15.6854   23.7905 N   0  0  0  0  0  0  0  0  0  0  0  0
   10.5532  -16.5370   23.7108 C   0  0  1  0  0  0  0  0  0  0  0  0
   11.2355  -16.2377   22.4328 C   0  0  0  0  0  0  0  0  0  0  0  0
   12.4348  -17.0674   22.1413 C   0  0  0  0  0  0  0  0  0  0  0  0
   12.7730  -17.9757   22.9404 O   0  0  0  0  0  0  0  0  0  0  0  0
   11.3044  -16.3606   24.9506 C   0  0  0  0  0  0  0  0  0  0  0  0
   11.8942  -15.2422   25.1411 O   0  0  0  0  0  0  0  0  0  0  0  0
   13.1972  -16.8545   20.9897 O   0  0  0  0  0  0  0  0  0  0  0  0
   11.4466  -17.3126   25.9802 N   0  0  0  0  0  0  0  0  0  0  0  0
   11.6420  -16.9172   27.3387 C   0  0  1  0  0  0  0  0  0  0  0  0
   10.6405  -15.9136   27.8660 C   0  0  0  0  0  0  0  0  0  0  0  0
   11.6308  -14.6930   28.8226 S   0  0  0  0  0  0  0  0  0  0  0  0
   11.6600  -18.0700   28.2728 C   0  0  0  0  0  0  0  0  0  0  0  0
   11.2318  -19.1831   27.8476 O   0  0  0  0  0  0  0  0  0  0  0  0
   12.1178  -17.9671   29.5595 O   0  0  0  0  0  0  0  0  0  0  0  0
  2  1  1  0
  2  3  1  0
  4  5  1  0
  4  3  1  0
  5  6  1  1
  7  5  1  0
  7  8  2  0
  9  7  1  0
 10  9  1  0
 10 14  1  0
 10 11  1  6
 12 13  2  0
 12 11  1  0
 14 17  1  0
 15 14  2  0
 16 12  1  0
 17 18  1  0
 18 21  1  0
 19 20  1  0
 18 19  1  1
 21 22  2  0
 21 23  1  0
M  END
$$$$
