MDC.pdb
     RDKit          3D

 23 22  0  0  1  0  0  0  0  0999 V2000
    6.0817  -12.1314   26.7403 C   0  0  0  0  0  0  0  0  0  0  0  0
    6.7312  -12.0136   25.0545 S   0  0  0  0  0  0  0  0  0  0  0  0
    6.9759  -13.6657   24.3167 C   0  0  0  0  0  0  0  0  0  0  0  0
    7.5831  -13.4353   22.9196 C   0  0  0  0  0  0  0  0  0  0  0  0
    7.7679  -14.8059   22.3483 C   0  0  2  0  0  0  0  0  0  0  0  0
    6.4798  -15.4498   22.2580 N   0  0  0  0  0  0  0  0  0  0  0  0
    8.7311  -15.6695   23.0270 C   0  0  0  0  0  0  0  0  0  0  0  0
    8.2692  -16.5513   23.7994 O   0  0  0  0  0  0  0  0  0  0  0  0
   10.1320  -15.5481   22.8451 N   0  0  0  0  0  0  0  0  0  0  0  0
   10.9752  -16.5687   23.4886 C   0  0  1  0  0  0  0  0  0  0  0  0
   12.0993  -16.8673   22.5744 C   0  0  0  0  0  0  0  0  0  0  0  0
   12.9826  -17.9873   22.9953 C   0  0  0  0  0  0  0  0  0  0  0  0
   12.7022  -18.6480   24.0262 O   0  0  0  0  0  0  0  0  0  0  0  0
   11.2886  -16.0985   24.8351 C   0  0  0  0  0  0  0  0  0  0  0  0
   11.8674  -14.9646   24.9555 O   0  0  0  0  0  0  0  0  0  0  0  0
   14.1250  -18.3201   22.2626 O   0  0  0  0  0  0  0  0  0  0  0  0
   11.0110  -16.7766   26.0391 N   0  0  0  0  0  0  0  0  0  0  0  0
   11.1542  -16.1336   27.3065 C   0  0  1  0  0  0  0  0  0  0  0  0
   10.3302  -14.8779   27.4864 C   0  0  0  0  0  0  0  0  0  0  0  0
   10.9038  -14.1413   29.0720 S   0  0  0  0  0  0  0  0  0  0  0  0
   10.8527  -17.0379   28.4437 C   0  0  0  0  0  0  0  0  0  0  0  0
   11.1777  -16.6556   29.6062 O   0  0  0  0  0  0  0  0  0  0  0  0
   10.2441  -18.2533   28.2758 O   0  0  0  0  0  0  0  0  0  0  0  0
  2  1  1  0
  2  3  1  0
  4  5  1  0
  4  3  1  0
  5  6  1  1
  7  5  1  0
  7  8  2  0
  9  7  1  0
 10  9  1  0
 10 14  1  0
 10 11  1  6
 12 13  2  0
 12 11  1  0
 14 17  1  0
 15 14  2  0
 16 12  1  0
 17 18  1  0
 18 21  1  0
 19 20  1  0
 18 19  1  6
 21 22  2  0
 21 23  1  0
M  END
$$$$
