MDC.pdb
     RDKit          3D

 23 22  0  0  1  0  0  0  0  0999 V2000
    7.7179  -11.3450   20.5105 C   0  0  0  0  0  0  0  0  0  0  0  0
    6.9457  -12.3999   19.2582 S   0  0  0  0  0  0  0  0  0  0  0  0
    7.6227  -14.0950   19.3041 C   0  0  0  0  0  0  0  0  0  0  0  0
    7.5511  -14.5551   20.7728 C   0  0  0  0  0  0  0  0  0  0  0  0
    8.1088  -15.9436   20.7699 C   0  0  2  0  0  0  0  0  0  0  0  0
    7.1817  -16.8158   20.0906 N   0  0  0  0  0  0  0  0  0  0  0  0
    8.4826  -16.4975   22.0690 C   0  0  0  0  0  0  0  0  0  0  0  0
    7.7969  -17.4617   22.5025 O   0  0  0  0  0  0  0  0  0  0  0  0
    9.5660  -15.9962   22.8341 N   0  0  0  0  0  0  0  0  0  0  0  0
    9.8334  -16.6608   24.1200 C   0  0  1  0  0  0  0  0  0  0  0  0
   11.2218  -16.3371   24.5151 C   0  0  0  0  0  0  0  0  0  0  0  0
   11.7571  -17.1199   25.6607 C   0  0  0  0  0  0  0  0  0  0  0  0
   11.2048  -18.1990   25.9899 O   0  0  0  0  0  0  0  0  0  0  0  0
    8.7548  -16.3012   25.0362 C   0  0  0  0  0  0  0  0  0  0  0  0
    8.3754  -17.1749   25.8893 O   0  0  0  0  0  0  0  0  0  0  0  0
   12.8682  -16.6754   26.3822 O   0  0  0  0  0  0  0  0  0  0  0  0
    8.0776  -15.0659   25.0805 N   0  0  0  0  0  0  0  0  0  0  0  0
    8.6643  -13.9161   25.6921 C   0  0  1  0  0  0  0  0  0  0  0  0
    8.0458  -12.5930   25.2983 C   0  0  0  0  0  0  0  0  0  0  0  0
    6.5756  -12.3986   26.3876 S   0  0  0  0  0  0  0  0  0  0  0  0
    8.6611  -13.9923   27.1741 C   0  0  0  0  0  0  0  0  0  0  0  0
    8.1447  -15.0151   27.7130 O   0  0  0  0  0  0  0  0  0  0  0  0
    9.1906  -13.0056   27.9625 O   0  0  0  0  0  0  0  0  0  0  0  0
  2  1  1  0
  2  3  1  0
  4  5  1  0
  4  3  1  0
  5  6  1  1
  7  5  1  0
  7  8  2  0
  9  7  1  0
 10  9  1  0
 10 14  1  0
 10 11  1  1
 12 13  2  0
 12 11  1  0
 14 17  1  0
 15 14  2  0
 16 12  1  0
 17 18  1  0
 18 21  1  0
 19 20  1  0
 18 19  1  1
 21 22  2  0
 21 23  1  0
M  END
$$$$
