QKT.pdb
     RDKit          3D

 26 25  0  0  1  0  0  0  0  0999 V2000
    8.3039  -12.7335   17.1786 N   0  0  0  0  0  0  0  0  0  0  0  0
    8.5188  -13.9859   16.4863 C   0  0  0  0  0  0  0  0  0  0  0  0
    8.1261  -14.0378   15.3107 O   0  0  0  0  0  0  0  0  0  0  0  0
    9.1689  -15.0878   17.2135 C   0  0  0  0  0  0  0  0  0  0  0  0
    9.5599  -14.8290   18.6153 C   0  0  0  0  0  0  0  0  0  0  0  0
    8.8849  -15.6467   19.6695 C   0  0  2  0  0  0  0  0  0  0  0  0
    7.6065  -16.0485   19.1750 N   0  0  0  0  0  0  0  0  0  0  0  0
    8.9663  -15.1867   21.0468 C   0  0  0  0  0  0  0  0  0  0  0  0
   10.1288  -14.8868   21.5013 O   0  0  0  0  0  0  0  0  0  0  0  0
    7.8864  -15.0299   21.9774 N   0  0  0  0  0  0  0  0  0  0  0  0
    8.1837  -14.5938   23.3250 C   0  0  1  0  0  0  0  0  0  0  0  0
    7.2449  -13.6078   23.9165 C   0  0  0  0  0  0  0  0  0  0  0  0
    7.3967  -13.1516   25.2958 C   0  0  0  0  0  0  0  0  0  0  0  0
    6.4449  -12.1661   25.8684 C   0  0  0  0  0  0  0  0  0  0  0  0
    6.8330  -11.8939   27.3537 C   0  0  0  0  0  0  0  0  0  0  0  0
    5.9205  -10.9180   27.9190 N   0  0  0  0  0  0  0  0  0  0  0  0
    8.2731  -15.8180   24.2127 C   0  0  0  0  0  0  0  0  0  0  0  0
    7.2252  -16.4195   24.4989 O   0  0  0  0  0  0  0  0  0  0  0  0
   10.2359  -18.7993   23.5239 C   0  0  0  0  0  0  0  0  0  0  0  0
   10.8556  -18.2812   24.8180 C   0  0  1  0  0  0  0  0  0  0  0  0
   11.9228  -17.4525   24.3689 O   0  0  0  0  0  0  0  0  0  0  0  0
    9.8606  -17.3468   25.5128 C   0  0  2  0  0  0  0  0  0  0  0  0
    9.5049  -16.2302   24.6743 N   0  0  0  0  0  0  0  0  0  0  0  0
   10.4556  -16.8393   26.7381 C   0  0  0  0  0  0  0  0  0  0  0  0
   10.7615  -17.6769   27.7875 O   0  0  0  0  0  0  0  0  0  0  0  0
   10.7039  -15.6191   26.8830 O   0  0  0  0  0  0  0  0  0  0  0  0
  1  2  1  0
  2  3  2  0
  4  5  1  0
  4  2  1  0
  5  6  1  0
  6  7  1  6
  8  9  2  0
  8  6  1  0
 10  8  1  0
 11 10  1  0
 11 12  1  1
 12 13  1  0
 13 14  1  0
 14 15  1  0
 15 16  1  0
 17 11  1  0
 18 17  2  0
 20 19  1  6
 20 22  1  0
 20 21  1  0
 22 23  1  6
 23 17  1  0
 24 25  1  0
 24 22  1  0
 26 24  2  0
M  END
$$$$
