QKT.pdb
     RDKit          3D

 26 25  0  0  1  0  0  0  0  0999 V2000
    8.4881  -12.5708   18.5317 N   0  0  0  0  0  0  0  0  0  0  0  0
    7.8771  -13.5217   17.6281 C   0  0  0  0  0  0  0  0  0  0  0  0
    8.1598  -13.3972   16.4267 O   0  0  0  0  0  0  0  0  0  0  0  0
    6.9777  -14.5437   18.1870 C   0  0  0  0  0  0  0  0  0  0  0  0
    6.8019  -14.5535   19.6547 C   0  0  0  0  0  0  0  0  0  0  0  0
    7.9130  -15.1380   20.4667 C   0  0  2  0  0  0  0  0  0  0  0  0
    8.5783  -16.1219   19.6734 N   0  0  0  0  0  0  0  0  0  0  0  0
    7.6456  -15.4566   21.8604 C   0  0  0  0  0  0  0  0  0  0  0  0
    6.6540  -14.8652   22.4214 O   0  0  0  0  0  0  0  0  0  0  0  0
    8.3721  -16.3637   22.7007 N   0  0  0  0  0  0  0  0  0  0  0  0
    7.9667  -16.5127   24.0820 C   0  0  1  0  0  0  0  0  0  0  0  0
    8.2390  -17.8318   24.7059 C   0  0  0  0  0  0  0  0  0  0  0  0
    7.9957  -18.0609   26.1278 C   0  0  0  0  0  0  0  0  0  0  0  0
    8.2898  -19.3838   26.7350 C   0  0  0  0  0  0  0  0  0  0  0  0
    7.8885  -19.3482   28.2411 C   0  0  0  0  0  0  0  0  0  0  0  0
    8.0288  -20.6759   28.8086 N   0  0  0  0  0  0  0  0  0  0  0  0
    8.6226  -15.4135   24.8920 C   0  0  0  0  0  0  0  0  0  0  0  0
    9.8405  -15.2187   24.7485 O   0  0  0  0  0  0  0  0  0  0  0  0
    6.7734  -11.9402   25.4716 C   0  0  0  0  0  0  0  0  0  0  0  0
    7.0915  -12.5799   26.8195 C   0  0  1  0  0  0  0  0  0  0  0  0
    5.9290  -13.3504   27.1060 O   0  0  0  0  0  0  0  0  0  0  0  0
    8.2312  -13.5873   26.6412 C   0  0  2  0  0  0  0  0  0  0  0  0
    7.8569  -14.6631   25.7586 N   0  0  0  0  0  0  0  0  0  0  0  0
    8.5827  -14.1469   27.9360 C   0  0  0  0  0  0  0  0  0  0  0  0
    9.0940  -13.3590   28.9430 O   0  0  0  0  0  0  0  0  0  0  0  0
    8.4383  -15.3687   28.1766 O   0  0  0  0  0  0  0  0  0  0  0  0
  1  2  1  0
  2  3  2  0
  4  5  1  0
  4  2  1  0
  5  6  1  0
  6  7  1  6
  8  9  2  0
  8  6  1  0
 10  8  1  0
 11 10  1  0
 11 12  1  1
 12 13  1  0
 13 14  1  0
 14 15  1  0
 15 16  1  0
 17 11  1  0
 18 17  2  0
 20 19  1  6
 20 22  1  0
 20 21  1  0
 22 23  1  6
 23 17  1  0
 24 25  1  0
 24 22  1  0
 26 24  2  0
M  END
$$$$
