QKT.pdb
     RDKit          3D

 26 25  0  0  1  0  0  0  0  0999 V2000
    9.6870  -14.0069   16.7498 N   0  0  0  0  0  0  0  0  0  0  0  0
    8.3612  -13.5303   17.0798 C   0  0  0  0  0  0  0  0  0  0  0  0
    7.5990  -13.3215   16.1235 O   0  0  0  0  0  0  0  0  0  0  0  0
    8.0208  -13.3258   18.4968 C   0  0  0  0  0  0  0  0  0  0  0  0
    9.0536  -13.6794   19.4935 C   0  0  0  0  0  0  0  0  0  0  0  0
    8.8572  -14.9539   20.2503 C   0  0  2  0  0  0  0  0  0  0  0  0
    7.7680  -15.6634   19.6584 N   0  0  0  0  0  0  0  0  0  0  0  0
    8.9259  -14.9033   21.7022 C   0  0  0  0  0  0  0  0  0  0  0  0
   10.0069  -14.4515   22.2266 O   0  0  0  0  0  0  0  0  0  0  0  0
    7.9160  -15.3094   22.6359 N   0  0  0  0  0  0  0  0  0  0  0  0
    8.1986  -15.2207   24.0525 C   0  0  1  0  0  0  0  0  0  0  0  0
    7.1601  -14.5673   24.8880 C   0  0  0  0  0  0  0  0  0  0  0  0
    7.2507  -13.1522   25.2384 C   0  0  0  0  0  0  0  0  0  0  0  0
    6.2031  -12.5197   26.0796 C   0  0  0  0  0  0  0  0  0  0  0  0
    6.6033  -11.0382   26.3547 C   0  0  0  0  0  0  0  0  0  0  0  0
    5.5717  -10.4004   27.1508 N   0  0  0  0  0  0  0  0  0  0  0  0
    8.4752  -16.6167   24.5713 C   0  0  0  0  0  0  0  0  0  0  0  0
    7.5275  -17.4143   24.6587 O   0  0  0  0  0  0  0  0  0  0  0  0
   10.5198  -19.1586   23.1622 C   0  0  0  0  0  0  0  0  0  0  0  0
   11.2522  -18.8648   24.4677 C   0  0  1  0  0  0  0  0  0  0  0  0
   12.1913  -17.8582   24.1045 O   0  0  0  0  0  0  0  0  0  0  0  0
   10.2822  -18.2013   25.4498 C   0  0  2  0  0  0  0  0  0  0  0  0
    9.7608  -16.9634   24.9280 N   0  0  0  0  0  0  0  0  0  0  0  0
   10.9767  -17.9263   26.6968 C   0  0  0  0  0  0  0  0  0  0  0  0
   11.4923  -18.9426   27.4700 O   0  0  0  0  0  0  0  0  0  0  0  0
   11.1232  -16.7533   27.1140 O   0  0  0  0  0  0  0  0  0  0  0  0
  1  2  1  0
  2  3  2  0
  4  5  1  0
  4  2  1  0
  5  6  1  0
  6  7  1  1
  8  9  2  0
  8  6  1  0
 10  8  1  0
 11 10  1  0
 11 12  1  1
 12 13  1  0
 13 14  1  0
 14 15  1  0
 15 16  1  0
 17 11  1  0
 18 17  2  0
 20 19  1  6
 20 22  1  0
 20 21  1  0
 22 23  1  6
 23 17  1  0
 24 25  1  0
 24 22  1  0
 26 24  2  0
M  END
$$$$
