QKT.pdb
     RDKit          3D

 26 25  0  0  1  0  0  0  0  0999 V2000
   14.4096  -16.6336   21.7091 N   0  0  0  0  0  0  0  0  0  0  0  0
   13.8690  -16.2269   20.4299 C   0  0  0  0  0  0  0  0  0  0  0  0
   14.6355  -16.3107   19.4582 O   0  0  0  0  0  0  0  0  0  0  0  0
   12.4789  -15.7469   20.3756 C   0  0  0  0  0  0  0  0  0  0  0  0
   11.7239  -15.7304   21.6463 C   0  0  0  0  0  0  0  0  0  0  0  0
   10.7695  -16.8568   21.8825 C   0  0  2  0  0  0  0  0  0  0  0  0
    9.7327  -16.7787   20.9032 N   0  0  0  0  0  0  0  0  0  0  0  0
   10.3871  -17.1513   23.2545 C   0  0  0  0  0  0  0  0  0  0  0  0
    9.4885  -16.4070   23.7896 O   0  0  0  0  0  0  0  0  0  0  0  0
   10.9056  -18.1878   24.0992 N   0  0  0  0  0  0  0  0  0  0  0  0
   10.3644  -18.3377   25.4330 C   0  0  1  0  0  0  0  0  0  0  0  0
   10.3450  -19.7171   25.9809 C   0  0  0  0  0  0  0  0  0  0  0  0
    9.8528  -19.9890   27.3290 C   0  0  0  0  0  0  0  0  0  0  0  0
   10.0414  -21.3294   27.9397 C   0  0  0  0  0  0  0  0  0  0  0  0
    9.3993  -21.3315   29.3604 C   0  0  0  0  0  0  0  0  0  0  0  0
    9.5964  -22.6301   29.9763 N   0  0  0  0  0  0  0  0  0  0  0  0
   11.1332  -17.4233   26.3644 C   0  0  0  0  0  0  0  0  0  0  0  0
   12.3649  -17.3418   26.2304 O   0  0  0  0  0  0  0  0  0  0  0  0
   10.3226  -13.7446   27.0732 C   0  0  0  0  0  0  0  0  0  0  0  0
   10.1170  -14.5105   28.3765 C   0  0  1  0  0  0  0  0  0  0  0  0
    8.7523  -14.9118   28.3162 O   0  0  0  0  0  0  0  0  0  0  0  0
   10.9382  -15.8026   28.3350 C   0  0  2  0  0  0  0  0  0  0  0  0
   10.4513  -16.7101   27.3271 N   0  0  0  0  0  0  0  0  0  0  0  0
   10.8634  -16.4594   29.6297 C   0  0  0  0  0  0  0  0  0  0  0  0
   11.3823  -15.8730   30.7625 O   0  0  0  0  0  0  0  0  0  0  0  0
   10.3295  -17.5864   29.7566 O   0  0  0  0  0  0  0  0  0  0  0  0
  1  2  1  0
  2  3  2  0
  4  5  1  0
  4  2  1  0
  5  6  1  0
  6  7  1  6
  8  9  2  0
  8  6  1  0
 10  8  1  0
 11 10  1  0
 11 12  1  1
 12 13  1  0
 13 14  1  0
 14 15  1  0
 15 16  1  0
 17 11  1  0
 18 17  2  0
 20 19  1  6
 20 22  1  0
 20 21  1  0
 22 23  1  6
 23 17  1  0
 24 25  1  0
 24 22  1  0
 26 24  2  0
M  END
$$$$
