QKT.pdb
     RDKit          3D

 26 25  0  0  1  0  0  0  0  0999 V2000
    8.0598  -17.6749   16.6327 N   0  0  0  0  0  0  0  0  0  0  0  0
    7.9150  -18.2099   17.9693 C   0  0  0  0  0  0  0  0  0  0  0  0
    6.7562  -18.2953   18.4040 O   0  0  0  0  0  0  0  0  0  0  0  0
    9.1283  -18.6006   18.7047 C   0  0  0  0  0  0  0  0  0  0  0  0
    9.3103  -18.0256   20.0543 C   0  0  0  0  0  0  0  0  0  0  0  0
    9.3882  -16.5355   20.1514 C   0  0  2  0  0  0  0  0  0  0  0  0
   10.3883  -16.0786   19.2398 N   0  0  0  0  0  0  0  0  0  0  0  0
    9.3506  -15.9349   21.4755 C   0  0  0  0  0  0  0  0  0  0  0  0
   10.3660  -16.1227   22.2379 O   0  0  0  0  0  0  0  0  0  0  0  0
    8.2950  -15.1484   22.0447 N   0  0  0  0  0  0  0  0  0  0  0  0
    8.4300  -14.6805   23.4076 C   0  0  1  0  0  0  0  0  0  0  0  0
    7.4547  -13.6511   23.8463 C   0  0  0  0  0  0  0  0  0  0  0  0
    7.4263  -13.1755   25.2271 C   0  0  0  0  0  0  0  0  0  0  0  0
    6.4718  -12.1133   25.6345 C   0  0  0  0  0  0  0  0  0  0  0  0
    6.6453  -11.8367   27.1590 C   0  0  0  0  0  0  0  0  0  0  0  0
    5.6734  -10.8465   27.5827 N   0  0  0  0  0  0  0  0  0  0  0  0
    8.3655  -15.8793   24.3312 C   0  0  0  0  0  0  0  0  0  0  0  0
    7.2810  -16.4704   24.4591 O   0  0  0  0  0  0  0  0  0  0  0  0
   10.1635  -18.9508   24.0774 C   0  0  0  0  0  0  0  0  0  0  0  0
   10.6893  -18.3984   25.3986 C   0  0  1  0  0  0  0  0  0  0  0  0
   11.8545  -17.6742   25.0177 O   0  0  0  0  0  0  0  0  0  0  0  0
    9.7031  -17.3570   25.9360 C   0  0  2  0  0  0  0  0  0  0  0  0
    9.5028  -16.2809   24.9988 N   0  0  0  0  0  0  0  0  0  0  0  0
   10.2191  -16.8045   27.1775 C   0  0  0  0  0  0  0  0  0  0  0  0
   10.5959  -15.4834   27.2728 O   0  0  0  0  0  0  0  0  0  0  0  0
   10.3451  -17.5155   28.2023 O   0  0  0  0  0  0  0  0  0  0  0  0
  1  2  1  0
  2  3  2  0
  4  5  1  0
  4  2  1  0
  5  6  1  0
  6  7  1  1
  8  9  2  0
  8  6  1  0
 10  8  1  0
 11 10  1  0
 11 12  1  1
 12 13  1  0
 13 14  1  0
 14 15  1  0
 15 16  1  0
 17 11  1  0
 18 17  2  0
 20 19  1  6
 20 22  1  0
 20 21  1  0
 22 23  1  6
 23 17  1  0
 24 25  1  0
 24 22  1  0
 26 24  2  0
M  END
$$$$
