QKT.pdb
     RDKit          3D

 26 25  0  0  1  0  0  0  0  0999 V2000
    9.3657  -11.5173   19.7371 N   0  0  0  0  0  0  0  0  0  0  0  0
    8.8824  -12.5911   18.8960 C   0  0  0  0  0  0  0  0  0  0  0  0
    9.6522  -12.9787   18.0038 O   0  0  0  0  0  0  0  0  0  0  0  0
    7.5373  -13.1312   19.1502 C   0  0  0  0  0  0  0  0  0  0  0  0
    7.2959  -13.7356   20.4774 C   0  0  0  0  0  0  0  0  0  0  0  0
    7.6218  -15.1868   20.6309 C   0  0  2  0  0  0  0  0  0  0  0  0
    6.7992  -15.9286   19.7292 N   0  0  0  0  0  0  0  0  0  0  0  0
    7.7960  -15.7087   21.9772 C   0  0  0  0  0  0  0  0  0  0  0  0
    6.7469  -15.8163   22.7090 O   0  0  0  0  0  0  0  0  0  0  0  0
    9.0209  -16.1200   22.5994 N   0  0  0  0  0  0  0  0  0  0  0  0
    9.0032  -16.4912   23.9981 C   0  0  1  0  0  0  0  0  0  0  0  0
    9.7167  -17.7438   24.3525 C   0  0  0  0  0  0  0  0  0  0  0  0
    9.6569  -18.9193   23.4875 C   0  0  0  0  0  0  0  0  0  0  0  0
   10.3592  -20.1698   23.8725 C   0  0  0  0  0  0  0  0  0  0  0  0
   10.1415  -21.2352   22.7552 C   0  0  0  0  0  0  0  0  0  0  0  0
   10.9128  -22.4239   23.0663 N   0  0  0  0  0  0  0  0  0  0  0  0
    9.5584  -15.3354   24.8046 C   0  0  0  0  0  0  0  0  0  0  0  0
   10.5758  -14.7578   24.3884 O   0  0  0  0  0  0  0  0  0  0  0  0
    7.7452  -12.2473   25.7034 C   0  0  0  0  0  0  0  0  0  0  0  0
    8.0190  -12.9344   27.0376 C   0  0  1  0  0  0  0  0  0  0  0  0
    6.8812  -13.7701   27.2225 O   0  0  0  0  0  0  0  0  0  0  0  0
    9.2143  -13.8791   26.8804 C   0  0  2  0  0  0  0  0  0  0  0  0
    8.9243  -14.9566   25.9685 N   0  0  0  0  0  0  0  0  0  0  0  0
    9.5527  -14.4431   28.1767 C   0  0  0  0  0  0  0  0  0  0  0  0
    9.4736  -15.7976   28.4124 O   0  0  0  0  0  0  0  0  0  0  0  0
    9.9216  -13.7131   29.1266 O   0  0  0  0  0  0  0  0  0  0  0  0
  1  2  1  0
  2  3  2  0
  4  5  1  0
  4  2  1  0
  5  6  1  0
  6  7  1  1
  8  9  2  0
  8  6  1  0
 10  8  1  0
 11 10  1  0
 11 12  1  6
 12 13  1  0
 13 14  1  0
 14 15  1  0
 15 16  1  0
 17 11  1  0
 18 17  2  0
 20 19  1  6
 20 22  1  0
 20 21  1  0
 22 23  1  6
 23 17  1  0
 24 25  1  0
 24 22  1  0
 26 24  2  0
M  END
$$$$
