QKT.pdb
     RDKit          3D

 26 25  0  0  1  0  0  0  0  0999 V2000
    9.9838  -12.8136   17.9468 N   0  0  0  0  0  0  0  0  0  0  0  0
    9.8530  -12.5388   19.3614 C   0  0  0  0  0  0  0  0  0  0  0  0
   10.7654  -11.8762   19.8786 O   0  0  0  0  0  0  0  0  0  0  0  0
    8.6742  -13.0595   20.0720 C   0  0  0  0  0  0  0  0  0  0  0  0
    7.7591  -13.9316   19.3059 C   0  0  0  0  0  0  0  0  0  0  0  0
    7.7977  -15.3938   19.6161 C   0  0  2  0  0  0  0  0  0  0  0  0
    6.8194  -16.0494   18.8079 N   0  0  0  0  0  0  0  0  0  0  0  0
    7.9052  -15.7933   21.0105 C   0  0  0  0  0  0  0  0  0  0  0  0
    6.8499  -15.6976   21.7350 O   0  0  0  0  0  0  0  0  0  0  0  0
    9.0699  -16.2848   21.6877 N   0  0  0  0  0  0  0  0  0  0  0  0
    8.9575  -16.6740   23.0771 C   0  0  1  0  0  0  0  0  0  0  0  0
    9.7459  -17.8618   23.4904 C   0  0  0  0  0  0  0  0  0  0  0  0
    9.6668  -18.3863   24.8514 C   0  0  0  0  0  0  0  0  0  0  0  0
   10.4851  -19.5591   25.2515 C   0  0  0  0  0  0  0  0  0  0  0  0
   10.1030  -19.9681   26.7066 C   0  0  0  0  0  0  0  0  0  0  0  0
   10.7381  -21.2305   27.0348 N   0  0  0  0  0  0  0  0  0  0  0  0
    9.3292  -15.4834   23.9366 C   0  0  0  0  0  0  0  0  0  0  0  0
   10.4463  -14.9648   23.7785 O   0  0  0  0  0  0  0  0  0  0  0  0
    6.9971  -12.3831   24.7193 C   0  0  0  0  0  0  0  0  0  0  0  0
    7.2605  -13.1658   26.0019 C   0  0  1  0  0  0  0  0  0  0  0  0
    6.2104  -14.1269   26.0282 O   0  0  0  0  0  0  0  0  0  0  0  0
    8.5582  -13.9641   25.8460 C   0  0  2  0  0  0  0  0  0  0  0  0
    8.4249  -15.0092   24.8628 N   0  0  0  0  0  0  0  0  0  0  0  0
    8.9066  -14.5661   27.1225 C   0  0  0  0  0  0  0  0  0  0  0  0
    9.2041  -13.7931   28.2227 O   0  0  0  0  0  0  0  0  0  0  0  0
    8.9547  -15.8109   27.2623 O   0  0  0  0  0  0  0  0  0  0  0  0
  1  2  1  0
  2  3  2  0
  4  5  1  0
  4  2  1  0
  5  6  1  0
  6  7  1  1
  8  9  2  0
  8  6  1  0
 10  8  1  0
 11 10  1  0
 11 12  1  6
 12 13  1  0
 13 14  1  0
 14 15  1  0
 15 16  1  0
 17 11  1  0
 18 17  2  0
 20 19  1  6
 20 22  1  0
 20 21  1  0
 22 23  1  6
 23 17  1  0
 24 25  1  0
 24 22  1  0
 26 24  2  0
M  END
$$$$
