QKT.pdb
     RDKit          3D

 26 25  0  0  1  0  0  0  0  0999 V2000
   11.4928  -14.0413   20.2091 N   0  0  0  0  0  0  0  0  0  0  0  0
   11.0983  -13.4238   18.9613 C   0  0  0  0  0  0  0  0  0  0  0  0
   11.9947  -13.2692   18.1177 O   0  0  0  0  0  0  0  0  0  0  0  0
    9.6921  -13.0261   18.7881 C   0  0  0  0  0  0  0  0  0  0  0  0
    8.7580  -13.3672   19.8819 C   0  0  0  0  0  0  0  0  0  0  0  0
    8.4466  -14.8161   20.0804 C   0  0  2  0  0  0  0  0  0  0  0  0
    7.6348  -15.2536   18.9897 N   0  0  0  0  0  0  0  0  0  0  0  0
    8.0845  -15.2597   21.4173 C   0  0  0  0  0  0  0  0  0  0  0  0
    6.8625  -15.1069   21.7792 O   0  0  0  0  0  0  0  0  0  0  0  0
    8.9442  -15.8528   22.4002 N   0  0  0  0  0  0  0  0  0  0  0  0
    8.3922  -16.2001   23.6921 C   0  0  1  0  0  0  0  0  0  0  0  0
    8.6928  -17.5669   24.1869 C   0  0  0  0  0  0  0  0  0  0  0  0
    8.2900  -17.9930   25.5247 C   0  0  0  0  0  0  0  0  0  0  0  0
    8.7359  -19.3045   26.0597 C   0  0  0  0  0  0  0  0  0  0  0  0
    8.1092  -19.5129   27.4720 C   0  0  0  0  0  0  0  0  0  0  0  0
    8.4488  -20.8364   27.9593 N   0  0  0  0  0  0  0  0  0  0  0  0
    8.8593  -15.1717   24.7015 C   0  0  0  0  0  0  0  0  0  0  0  0
   10.0794  -14.9803   24.8303 O   0  0  0  0  0  0  0  0  0  0  0  0
    6.5175  -11.8952   25.2250 C   0  0  0  0  0  0  0  0  0  0  0  0
    6.8253  -12.5799   26.5530 C   0  0  1  0  0  0  0  0  0  0  0  0
    5.7586  -13.5108   26.7039 O   0  0  0  0  0  0  0  0  0  0  0  0
    8.0981  -13.4185   26.4030 C   0  0  2  0  0  0  0  0  0  0  0  0
    7.9259  -14.4795   25.4432 N   0  0  0  0  0  0  0  0  0  0  0  0
    8.4405  -14.0036   27.6888 C   0  0  0  0  0  0  0  0  0  0  0  0
    8.3712  -15.3627   27.8998 O   0  0  0  0  0  0  0  0  0  0  0  0
    8.8040  -13.2883   28.6520 O   0  0  0  0  0  0  0  0  0  0  0  0
  1  2  1  0
  2  3  2  0
  4  5  1  0
  4  2  1  0
  5  6  1  0
  6  7  1  6
  8  9  2  0
  8  6  1  0
 10  8  1  0
 11 10  1  0
 11 12  1  1
 12 13  1  0
 13 14  1  0
 14 15  1  0
 15 16  1  0
 17 11  1  0
 18 17  2  0
 20 19  1  6
 20 22  1  0
 20 21  1  0
 22 23  1  6
 23 17  1  0
 24 25  1  0
 24 22  1  0
 26 24  2  0
M  END
$$$$
