QKT.pdb
     RDKit          3D

 26 25  0  0  1  0  0  0  0  0999 V2000
    9.8453  -14.1921   18.4095 N   0  0  0  0  0  0  0  0  0  0  0  0
    9.0173  -13.0080   18.3312 C   0  0  0  0  0  0  0  0  0  0  0  0
    9.5306  -12.0136   17.7959 O   0  0  0  0  0  0  0  0  0  0  0  0
    7.6557  -13.0652   18.8864 C   0  0  0  0  0  0  0  0  0  0  0  0
    7.5146  -13.5693   20.2688 C   0  0  0  0  0  0  0  0  0  0  0  0
    7.6611  -15.0435   20.4711 C   0  0  2  0  0  0  0  0  0  0  0  0
    6.7149  -15.7073   19.6320 N   0  0  0  0  0  0  0  0  0  0  0  0
    7.8241  -15.5332   21.8308 C   0  0  0  0  0  0  0  0  0  0  0  0
    6.7625  -15.6752   22.5384 O   0  0  0  0  0  0  0  0  0  0  0  0
    9.0499  -15.8775   22.4908 N   0  0  0  0  0  0  0  0  0  0  0  0
    9.0055  -16.2815   23.8798 C   0  0  1  0  0  0  0  0  0  0  0  0
    9.9055  -17.3967   24.2668 C   0  0  0  0  0  0  0  0  0  0  0  0
    9.9926  -17.8530   25.6516 C   0  0  0  0  0  0  0  0  0  0  0  0
   10.9904  -18.8818   26.0404 C   0  0  0  0  0  0  0  0  0  0  0  0
   10.8503  -19.1693   27.5664 C   0  0  0  0  0  0  0  0  0  0  0  0
   11.8935  -20.0879   27.9813 N   0  0  0  0  0  0  0  0  0  0  0  0
    9.2908  -15.0666   24.7384 C   0  0  0  0  0  0  0  0  0  0  0  0
   10.3567  -14.4545   24.5624 O   0  0  0  0  0  0  0  0  0  0  0  0
    6.7438  -12.2131   25.3110 C   0  0  0  0  0  0  0  0  0  0  0  0
    7.0329  -12.8550   26.6643 C   0  0  1  0  0  0  0  0  0  0  0  0
    6.0544  -13.8848   26.7613 O   0  0  0  0  0  0  0  0  0  0  0  0
    8.3881  -13.5660   26.6042 C   0  0  2  0  0  0  0  0  0  0  0  0
    8.3670  -14.6741   25.6833 N   0  0  0  0  0  0  0  0  0  0  0  0
    8.7263  -14.0649   27.9270 C   0  0  0  0  0  0  0  0  0  0  0  0
    8.9562  -13.2075   28.9798 O   0  0  0  0  0  0  0  0  0  0  0  0
    8.8270  -15.2940   28.1517 O   0  0  0  0  0  0  0  0  0  0  0  0
  1  2  1  0
  2  3  2  0
  4  5  1  0
  4  2  1  0
  5  6  1  0
  6  7  1  1
  8  9  2  0
  8  6  1  0
 10  8  1  0
 11 10  1  0
 11 12  1  6
 12 13  1  0
 13 14  1  0
 14 15  1  0
 15 16  1  0
 17 11  1  0
 18 17  2  0
 20 19  1  6
 20 22  1  0
 20 21  1  0
 22 23  1  6
 23 17  1  0
 24 25  1  0
 24 22  1  0
 26 24  2  0
M  END
$$$$
