QKT.pdb
     RDKit          3D

 26 25  0  0  1  0  0  0  0  0999 V2000
    9.6591  -12.7926   19.9020 N   0  0  0  0  0  0  0  0  0  0  0  0
    8.5930  -12.9700   18.9398 C   0  0  0  0  0  0  0  0  0  0  0  0
    8.8572  -12.6686   17.7658 O   0  0  0  0  0  0  0  0  0  0  0  0
    7.2962  -13.4791   19.4141 C   0  0  0  0  0  0  0  0  0  0  0  0
    7.1865  -13.8007   20.8527 C   0  0  0  0  0  0  0  0  0  0  0  0
    7.9618  -14.9808   21.3446 C   0  0  2  0  0  0  0  0  0  0  0  0
    7.9422  -15.9849   20.3290 N   0  0  0  0  0  0  0  0  0  0  0  0
    7.7611  -15.4036   22.7217 C   0  0  0  0  0  0  0  0  0  0  0  0
    7.5937  -14.4853   23.6028 O   0  0  0  0  0  0  0  0  0  0  0  0
    7.7325  -16.7465   23.2244 N   0  0  0  0  0  0  0  0  0  0  0  0
    7.6605  -16.9552   24.6547 C   0  0  1  0  0  0  0  0  0  0  0  0
    7.3944  -18.3456   25.1012 C   0  0  0  0  0  0  0  0  0  0  0  0
    6.2527  -19.0993   24.5894 C   0  0  0  0  0  0  0  0  0  0  0  0
    6.4364  -20.4792   24.0725 C   0  0  0  0  0  0  0  0  0  0  0  0
    5.0502  -21.0427   23.6347 C   0  0  0  0  0  0  0  0  0  0  0  0
    5.2315  -22.3444   23.0205 N   0  0  0  0  0  0  0  0  0  0  0  0
    8.9475  -16.4515   25.2747 C   0  0  0  0  0  0  0  0  0  0  0  0
    9.8231  -15.9873   24.5265 O   0  0  0  0  0  0  0  0  0  0  0  0
   10.2427  -13.6338   28.8073 C   0  0  0  0  0  0  0  0  0  0  0  0
    9.3653  -14.3594   27.7919 C   0  0  1  0  0  0  0  0  0  0  0  0
    9.5529  -13.6123   26.5944 O   0  0  0  0  0  0  0  0  0  0  0  0
    9.9540  -15.7467   27.5193 C   0  0  2  0  0  0  0  0  0  0  0  0
    9.1114  -16.5190   26.6418 N   0  0  0  0  0  0  0  0  0  0  0  0
   10.0977  -16.4616   28.7768 C   0  0  0  0  0  0  0  0  0  0  0  0
   11.1062  -16.1574   29.6638 O   0  0  0  0  0  0  0  0  0  0  0  0
    9.3110  -17.3851   29.0928 O   0  0  0  0  0  0  0  0  0  0  0  0
  1  2  1  0
  2  3  2  0
  4  5  1  0
  4  2  1  0
  5  6  1  0
  6  7  1  6
  8  9  2  0
  8  6  1  0
 10  8  1  0
 11 10  1  0
 11 12  1  6
 12 13  1  0
 13 14  1  0
 14 15  1  0
 15 16  1  0
 17 11  1  0
 18 17  2  0
 20 19  1  1
 20 22  1  0
 20 21  1  0
 22 23  1  6
 23 17  1  0
 24 25  1  0
 24 22  1  0
 26 24  2  0
M  END
$$$$
