QKT.pdb
     RDKit          3D

 26 25  0  0  1  0  0  0  0  0999 V2000
   11.6685  -19.9351   18.2092 N   0  0  0  0  0  0  0  0  0  0  0  0
   11.3355  -18.5471   17.9710 C   0  0  0  0  0  0  0  0  0  0  0  0
   12.2007  -17.8650   17.4009 O   0  0  0  0  0  0  0  0  0  0  0  0
   10.0236  -18.0529   18.4184 C   0  0  0  0  0  0  0  0  0  0  0  0
    8.8296  -18.6371   17.7719 C   0  0  0  0  0  0  0  0  0  0  0  0
    7.4980  -18.1207   18.2144 C   0  0  2  0  0  0  0  0  0  0  0  0
    7.1371  -17.0283   17.3679 N   0  0  0  0  0  0  0  0  0  0  0  0
    7.2602  -17.9808   19.6424 C   0  0  0  0  0  0  0  0  0  0  0  0
    7.5376  -16.8481   20.1789 O   0  0  0  0  0  0  0  0  0  0  0  0
    6.7494  -18.9748   20.5411 N   0  0  0  0  0  0  0  0  0  0  0  0
    6.5711  -18.6300   21.9353 C   0  0  1  0  0  0  0  0  0  0  0  0
    5.6578  -19.5031   22.7144 C   0  0  0  0  0  0  0  0  0  0  0  0
    4.7711  -20.4548   22.0500 C   0  0  0  0  0  0  0  0  0  0  0  0
    3.8671  -21.3207   22.8489 C   0  0  0  0  0  0  0  0  0  0  0  0
    2.9945  -22.1719   21.8769 C   0  0  0  0  0  0  0  0  0  0  0  0
    2.1273  -23.0440   22.6462 N   0  0  0  0  0  0  0  0  0  0  0  0
    7.9344  -18.5909   22.5943 C   0  0  0  0  0  0  0  0  0  0  0  0
    8.7984  -19.3984   22.2156 O   0  0  0  0  0  0  0  0  0  0  0  0
   10.2410  -15.8626   22.6598 C   0  0  0  0  0  0  0  0  0  0  0  0
    9.9368  -16.0380   24.1444 C   0  0  1  0  0  0  0  0  0  0  0  0
    8.8635  -15.1313   24.3748 O   0  0  0  0  0  0  0  0  0  0  0  0
    9.3626  -17.4385   24.3778 C   0  0  2  0  0  0  0  0  0  0  0  0
    8.1794  -17.6667   23.5874 N   0  0  0  0  0  0  0  0  0  0  0  0
    9.0212  -17.5882   25.7828 C   0  0  0  0  0  0  0  0  0  0  0  0
    9.9949  -17.6548   26.7544 O   0  0  0  0  0  0  0  0  0  0  0  0
    7.8273  -17.6690   26.1563 O   0  0  0  0  0  0  0  0  0  0  0  0
  1  2  1  0
  2  3  2  0
  4  5  1  0
  4  2  1  0
  5  6  1  0
  6  7  1  6
  8  9  2  0
  8  6  1  0
 10  8  1  0
 11 10  1  0
 11 12  1  1
 12 13  1  0
 13 14  1  0
 14 15  1  0
 15 16  1  0
 17 11  1  0
 18 17  2  0
 20 19  1  6
 20 22  1  0
 20 21  1  0
 22 23  1  6
 23 17  1  0
 24 25  1  0
 24 22  1  0
 26 24  2  0
M  END
$$$$
