QKT.pdb
     RDKit          3D

 26 25  0  0  1  0  0  0  0  0999 V2000
    8.1069  -12.3374   18.0184 N   0  0  0  0  0  0  0  0  0  0  0  0
    8.0708  -13.6002   17.3126 C   0  0  0  0  0  0  0  0  0  0  0  0
    8.3568  -13.5631   16.1061 O   0  0  0  0  0  0  0  0  0  0  0  0
    7.6991  -14.8122   18.0600 C   0  0  0  0  0  0  0  0  0  0  0  0
    7.4120  -14.6510   19.5011 C   0  0  0  0  0  0  0  0  0  0  0  0
    8.1511  -15.5458   20.4438 C   0  0  2  0  0  0  0  0  0  0  0  0
    8.3991  -16.7871   19.7821 N   0  0  0  0  0  0  0  0  0  0  0  0
    7.7107  -15.5908   21.8292 C   0  0  0  0  0  0  0  0  0  0  0  0
    7.1388  -14.5430   22.3011 O   0  0  0  0  0  0  0  0  0  0  0  0
    7.8454  -16.6818   22.7502 N   0  0  0  0  0  0  0  0  0  0  0  0
    7.2703  -16.5545   24.0722 C   0  0  1  0  0  0  0  0  0  0  0  0
    7.0637  -17.8193   24.8212 C   0  0  0  0  0  0  0  0  0  0  0  0
    6.4148  -18.9702   24.1983 C   0  0  0  0  0  0  0  0  0  0  0  0
    6.3430  -20.2689   24.9148 C   0  0  0  0  0  0  0  0  0  0  0  0
    5.5736  -21.2935   24.0265 C   0  0  0  0  0  0  0  0  0  0  0  0
    5.6253  -22.6037   24.6473 N   0  0  0  0  0  0  0  0  0  0  0  0
    8.1383  -15.6122   24.8804 C   0  0  0  0  0  0  0  0  0  0  0  0
    9.3720  -15.7287   24.8008 O   0  0  0  0  0  0  0  0  0  0  0  0
    6.9262  -11.7908   25.4244 C   0  0  0  0  0  0  0  0  0  0  0  0
    7.1853  -12.4785   26.7612 C   0  0  1  0  0  0  0  0  0  0  0  0
    5.9210  -13.0395   27.0986 O   0  0  0  0  0  0  0  0  0  0  0  0
    8.1277  -13.6656   26.5414 C   0  0  2  0  0  0  0  0  0  0  0  0
    7.5415  -14.6567   25.6749 N   0  0  0  0  0  0  0  0  0  0  0  0
    8.4262  -14.2839   27.8226 C   0  0  0  0  0  0  0  0  0  0  0  0
    8.1025  -15.5979   28.0778 O   0  0  0  0  0  0  0  0  0  0  0  0
    8.9827  -13.6381   28.7417 O   0  0  0  0  0  0  0  0  0  0  0  0
  1  2  1  0
  2  3  2  0
  4  5  1  0
  4  2  1  0
  5  6  1  0
  6  7  1  6
  8  9  2  0
  8  6  1  0
 10  8  1  0
 11 10  1  0
 11 12  1  1
 12 13  1  0
 13 14  1  0
 14 15  1  0
 15 16  1  0
 17 11  1  0
 18 17  2  0
 20 19  1  6
 20 22  1  0
 20 21  1  0
 22 23  1  6
 23 17  1  0
 24 25  1  0
 24 22  1  0
 26 24  2  0
M  END
$$$$
