QKT.pdb
     RDKit          3D

 26 25  0  0  1  0  0  0  0  0999 V2000
    5.4379  -19.5577   23.6007 N   0  0  0  0  0  0  0  0  0  0  0  0
    4.7804  -20.4467   22.6673 C   0  0  0  0  0  0  0  0  0  0  0  0
    3.6524  -20.8477   22.9927 O   0  0  0  0  0  0  0  0  0  0  0  0
    5.4849  -20.8088   21.4271 C   0  0  0  0  0  0  0  0  0  0  0  0
    6.8126  -20.1977   21.2059 C   0  0  0  0  0  0  0  0  0  0  0  0
    6.8768  -19.0381   20.2642 C   0  0  2  0  0  0  0  0  0  0  0  0
    7.0564  -19.5447   18.9409 N   0  0  0  0  0  0  0  0  0  0  0  0
    7.6618  -17.8796   20.6604 C   0  0  0  0  0  0  0  0  0  0  0  0
    8.9372  -17.9619   20.5411 O   0  0  0  0  0  0  0  0  0  0  0  0
    7.1751  -16.6359   21.1829 N   0  0  0  0  0  0  0  0  0  0  0  0
    8.1306  -15.6389   21.6162 C   0  0  1  0  0  0  0  0  0  0  0  0
    7.6448  -14.2367   21.6489 C   0  0  0  0  0  0  0  0  0  0  0  0
    7.9432  -13.3070   20.5626 C   0  0  0  0  0  0  0  0  0  0  0  0
    7.8337  -13.7466   19.1484 C   0  0  0  0  0  0  0  0  0  0  0  0
    8.2500  -12.5659   18.2192 C   0  0  0  0  0  0  0  0  0  0  0  0
    8.1420  -12.9819   16.8337 N   0  0  0  0  0  0  0  0  0  0  0  0
    8.6482  -16.0377   22.9828 C   0  0  0  0  0  0  0  0  0  0  0  0
    7.8743  -15.9708   23.9516 O   0  0  0  0  0  0  0  0  0  0  0  0
    9.6563  -19.0919   24.4391 C   0  0  0  0  0  0  0  0  0  0  0  0
   10.9787  -18.3394   24.3297 C   0  0  1  0  0  0  0  0  0  0  0  0
   11.4525  -18.6838   23.0319 O   0  0  0  0  0  0  0  0  0  0  0  0
   10.6987  -16.8342   24.2901 C   0  0  2  0  0  0  0  0  0  0  0  0
    9.9530  -16.4626   23.1144 N   0  0  0  0  0  0  0  0  0  0  0  0
   11.9603  -16.1121   24.2900 C   0  0  0  0  0  0  0  0  0  0  0  0
   12.7557  -16.0575   25.4128 O   0  0  0  0  0  0  0  0  0  0  0  0
   12.3633  -15.5083   23.2680 O   0  0  0  0  0  0  0  0  0  0  0  0
  1  2  1  0
  2  3  2  0
  4  5  1  0
  4  2  1  0
  5  6  1  0
  6  7  1  6
  8  9  2  0
  8  6  1  0
 10  8  1  0
 11 10  1  0
 11 12  1  1
 12 13  1  0
 13 14  1  0
 14 15  1  0
 15 16  1  0
 17 11  1  0
 18 17  2  0
 20 19  1  6
 20 22  1  0
 20 21  1  0
 22 23  1  6
 23 17  1  0
 24 25  1  0
 24 22  1  0
 26 24  2  0
M  END
$$$$
