QKT.pdb
     RDKit          3D

 26 25  0  0  1  0  0  0  0  0999 V2000
   15.7464  -17.0715   16.5872 N   0  0  0  0  0  0  0  0  0  0  0  0
   14.6079  -17.7855   16.0505 C   0  0  0  0  0  0  0  0  0  0  0  0
   14.7805  -18.3555   14.9623 O   0  0  0  0  0  0  0  0  0  0  0  0
   13.3507  -17.7792   16.8154 C   0  0  0  0  0  0  0  0  0  0  0  0
   13.4569  -17.6182   18.2809 C   0  0  0  0  0  0  0  0  0  0  0  0
   12.3620  -18.2104   19.1092 C   0  0  2  0  0  0  0  0  0  0  0  0
   11.3904  -18.7769   18.2287 N   0  0  0  0  0  0  0  0  0  0  0  0
   11.8815  -17.4486   20.2511 C   0  0  0  0  0  0  0  0  0  0  0  0
   12.7418  -17.1183   21.1446 O   0  0  0  0  0  0  0  0  0  0  0  0
   10.5375  -17.0187   20.5072 N   0  0  0  0  0  0  0  0  0  0  0  0
   10.2491  -16.3296   21.7468 C   0  0  1  0  0  0  0  0  0  0  0  0
    9.0700  -15.4279   21.7360 C   0  0  0  0  0  0  0  0  0  0  0  0
    8.9598  -14.3380   20.7698 C   0  0  0  0  0  0  0  0  0  0  0  0
    7.6256  -13.8771   20.3087 C   0  0  0  0  0  0  0  0  0  0  0  0
    7.8188  -12.7266   19.2743 C   0  0  0  0  0  0  0  0  0  0  0  0
    6.5250  -12.3177   18.7612 N   0  0  0  0  0  0  0  0  0  0  0  0
   10.0973  -17.3643   22.8426 C   0  0  0  0  0  0  0  0  0  0  0  0
    9.3264  -18.3190   22.6527 O   0  0  0  0  0  0  0  0  0  0  0  0
   13.2415  -17.2739   25.6331 C   0  0  0  0  0  0  0  0  0  0  0  0
   12.4059  -18.5214   25.3637 C   0  0  1  0  0  0  0  0  0  0  0  0
   12.4293  -19.2140   26.6074 O   0  0  0  0  0  0  0  0  0  0  0  0
   10.9479  -18.1105   25.1378 C   0  0  2  0  0  0  0  0  0  0  0  0
   10.8141  -17.2217   24.0115 N   0  0  0  0  0  0  0  0  0  0  0  0
   10.4506  -17.4365   26.3258 C   0  0  0  0  0  0  0  0  0  0  0  0
   10.2158  -18.1243   27.4955 O   0  0  0  0  0  0  0  0  0  0  0  0
   10.2120  -16.2058   26.3227 O   0  0  0  0  0  0  0  0  0  0  0  0
  1  2  1  0
  2  3  2  0
  4  5  1  0
  4  2  1  0
  5  6  1  0
  6  7  1  6
  8  9  2  0
  8  6  1  0
 10  8  1  0
 11 10  1  0
 11 12  1  6
 12 13  1  0
 13 14  1  0
 14 15  1  0
 15 16  1  0
 17 11  1  0
 18 17  2  0
 20 19  1  1
 20 22  1  0
 20 21  1  0
 22 23  1  6
 23 17  1  0
 24 25  1  0
 24 22  1  0
 26 24  2  0
M  END
$$$$
