QKT.pdb
     RDKit          3D

 26 25  0  0  1  0  0  0  0  0999 V2000
    8.0022  -12.2302   18.8633 N   0  0  0  0  0  0  0  0  0  0  0  0
    8.1164  -13.5024   18.1834 C   0  0  0  0  0  0  0  0  0  0  0  0
    8.6891  -13.4875   17.0831 O   0  0  0  0  0  0  0  0  0  0  0  0
    7.5510  -14.6974   18.8299 C   0  0  0  0  0  0  0  0  0  0  0  0
    7.9931  -14.9870   20.2103 C   0  0  0  0  0  0  0  0  0  0  0  0
    7.4463  -16.2216   20.8525 C   0  0  2  0  0  0  0  0  0  0  0  0
    6.3995  -16.7311   20.0250 N   0  0  0  0  0  0  0  0  0  0  0  0
    7.2278  -16.2037   22.2903 C   0  0  0  0  0  0  0  0  0  0  0  0
    6.3823  -15.3535   22.7484 O   0  0  0  0  0  0  0  0  0  0  0  0
    7.8581  -17.0322   23.2767 N   0  0  0  0  0  0  0  0  0  0  0  0
    7.5051  -16.8521   24.6686 C   0  0  1  0  0  0  0  0  0  0  0  0
    7.5571  -18.0670   25.5201 C   0  0  0  0  0  0  0  0  0  0  0  0
    7.0975  -19.3607   25.0215 C   0  0  0  0  0  0  0  0  0  0  0  0
    7.1471  -20.5610   25.8943 C   0  0  0  0  0  0  0  0  0  0  0  0
    6.6401  -21.7940   25.0860 C   0  0  0  0  0  0  0  0  0  0  0  0
    6.6184  -22.9600   25.9489 N   0  0  0  0  0  0  0  0  0  0  0  0
    8.3975  -15.7755   25.2507 C   0  0  0  0  0  0  0  0  0  0  0  0
    9.5802  -15.7205   24.8765 O   0  0  0  0  0  0  0  0  0  0  0  0
    7.1364  -12.0880   25.6502 C   0  0  0  0  0  0  0  0  0  0  0  0
    7.5343  -12.6103   27.0272 C   0  0  1  0  0  0  0  0  0  0  0  0
    6.3257  -13.1648   27.5361 O   0  0  0  0  0  0  0  0  0  0  0  0
    8.4995  -13.7874   26.8586 C   0  0  2  0  0  0  0  0  0  0  0  0
    7.8777  -14.8909   26.1715 N   0  0  0  0  0  0  0  0  0  0  0  0
    8.9363  -14.2401   28.1691 C   0  0  0  0  0  0  0  0  0  0  0  0
    9.7010  -13.4384   28.9869 O   0  0  0  0  0  0  0  0  0  0  0  0
    8.6366  -15.3801   28.5959 O   0  0  0  0  0  0  0  0  0  0  0  0
  1  2  1  0
  2  3  2  0
  4  5  1  0
  4  2  1  0
  5  6  1  0
  6  7  1  6
  8  9  2  0
  8  6  1  0
 10  8  1  0
 11 10  1  0
 11 12  1  1
 12 13  1  0
 13 14  1  0
 14 15  1  0
 15 16  1  0
 17 11  1  0
 18 17  2  0
 20 19  1  6
 20 22  1  0
 20 21  1  0
 22 23  1  1
 23 17  1  0
 24 25  1  0
 24 22  1  0
 26 24  2  0
M  END
$$$$
