QQL.pdb
     RDKit          3D

 27 26  0  0  1  0  0  0  0  0999 V2000
    9.5972  -21.1807   18.1805 N   0  0  0  0  0  0  0  0  0  0  0  0
    8.2257  -20.8008   18.0727 C   0  0  0  0  0  0  0  0  0  0  0  0
    7.5620  -21.2643   17.1511 O   0  0  0  0  0  0  0  0  0  0  0  0
    7.6757  -19.8735   19.0620 C   0  0  0  0  0  0  0  0  0  0  0  0
    8.7023  -19.3889   20.0198 C   0  0  0  0  0  0  0  0  0  0  0  0
    8.1694  -18.4514   21.0501 C   0  0  2  0  0  0  0  0  0  0  0  0
    7.2332  -17.4831   20.6290 N   0  0  0  0  0  0  0  0  0  0  0  0
    9.3751  -17.8770   21.7569 C   0  0  0  0  0  0  0  0  0  0  0  0
   10.1355  -18.7180   22.2636 O   0  0  0  0  0  0  0  0  0  0  0  0
   13.9941  -14.2535   20.9692 N   0  0  0  0  0  0  0  0  0  0  0  0
   13.0111  -14.5364   19.9959 C   0  0  0  0  0  0  0  0  0  0  0  0
   13.2056  -14.2523   18.7951 O   0  0  0  0  0  0  0  0  0  0  0  0
   11.7460  -15.1710   20.3949 C   0  0  0  0  0  0  0  0  0  0  0  0
   11.2939  -14.7270   21.7656 C   0  0  0  0  0  0  0  0  0  0  0  0
   10.6575  -15.8152   22.5443 C   0  0  2  0  0  0  0  0  0  0  0  0
    9.6199  -16.5143   21.8388 N   0  0  0  0  0  0  0  0  0  0  0  0
   10.3729  -15.6059   23.9469 C   0  0  0  0  0  0  0  0  0  0  0  0
   11.3275  -15.1605   24.6560 O   0  0  0  0  0  0  0  0  0  0  0  0
    5.6756  -13.3196   25.2973 C   0  0  0  0  0  0  0  0  0  0  0  0
    7.1367  -13.6200   25.4392 C   0  0  1  0  0  0  0  0  0  0  0  0
    7.7420  -12.4265   26.1511 C   0  0  0  0  0  0  0  0  0  0  0  0
    7.4999  -14.9153   25.9790 C   0  0  0  0  0  0  0  0  0  0  0  0
    8.8356  -15.4972   25.9876 C   0  0  2  0  0  0  0  0  0  0  0  0
    9.1532  -15.8461   24.5919 N   0  0  0  0  0  0  0  0  0  0  0  0
    9.0790  -16.5905   26.8892 C   0  0  0  0  0  0  0  0  0  0  0  0
    9.3153  -16.5400   28.2435 O   0  0  0  0  0  0  0  0  0  0  0  0
    9.0914  -17.7789   26.3985 O   0  0  0  0  0  0  0  0  0  0  0  0
  2  3  2  0
  2  1  1  0
  4  2  1  0
  5  4  1  0
  5  6  1  0
  6  8  1  0
  6  7  1  6
  8  9  2  0
 10 11  1  0
 11 13  1  0
 12 11  2  0
 13 14  1  0
 15 14  1  6
 16 15  1  0
 16  8  1  0
 17 24  1  0
 17 15  1  0
 18 17  2  0
 20 19  1  1
 20 21  1  0
 22 20  1  0
 23 22  1  6
 23 24  1  0
 25 26  1  0
 25 23  1  0
 27 25  2  0
M  END
$$$$
