QQL.pdb
     RDKit          3D

 27 26  0  0  1  0  0  0  0  0999 V2000
    5.7852  -18.9163   17.7562 N   0  0  0  0  0  0  0  0  0  0  0  0
    6.8307  -18.2276   17.0709 C   0  0  0  0  0  0  0  0  0  0  0  0
    6.8336  -18.2422   15.8444 O   0  0  0  0  0  0  0  0  0  0  0  0
    7.8528  -17.5408   17.8613 C   0  0  0  0  0  0  0  0  0  0  0  0
    7.4660  -16.1484   18.2045 C   0  0  0  0  0  0  0  0  0  0  0  0
    8.5049  -15.4082   18.9773 C   0  0  2  0  0  0  0  0  0  0  0  0
    9.8275  -15.4372   18.4858 N   0  0  0  0  0  0  0  0  0  0  0  0
    8.3691  -15.8697   20.4096 C   0  0  0  0  0  0  0  0  0  0  0  0
    7.2611  -15.6535   20.9271 O   0  0  0  0  0  0  0  0  0  0  0  0
   11.4440  -20.6678   23.0082 N   0  0  0  0  0  0  0  0  0  0  0  0
   10.9119  -20.0402   24.1556 C   0  0  0  0  0  0  0  0  0  0  0  0
   11.0290  -20.5692   25.2812 O   0  0  0  0  0  0  0  0  0  0  0  0
   10.2131  -18.7525   24.0291 C   0  0  0  0  0  0  0  0  0  0  0  0
   10.1774  -18.2621   22.6012 C   0  0  0  0  0  0  0  0  0  0  0  0
    9.4203  -16.9982   22.4437 C   0  0  2  0  0  0  0  0  0  0  0  0
    9.4003  -16.4879   21.1012 N   0  0  0  0  0  0  0  0  0  0  0  0
    9.5391  -15.9734   23.4574 C   0  0  0  0  0  0  0  0  0  0  0  0
   10.6275  -15.3194   23.4738 O   0  0  0  0  0  0  0  0  0  0  0  0
    7.8964  -11.5033   26.2873 C   0  0  0  0  0  0  0  0  0  0  0  0
    7.1542  -12.7973   26.4288 C   0  0  1  0  0  0  0  0  0  0  0  0
    5.6852  -12.4312   26.5025 C   0  0  0  0  0  0  0  0  0  0  0  0
    7.4842  -13.8583   25.4979 C   0  0  0  0  0  0  0  0  0  0  0  0
    8.7276  -14.6170   25.4677 C   0  0  2  0  0  0  0  0  0  0  0  0
    8.5747  -15.6368   24.4156 N   0  0  0  0  0  0  0  0  0  0  0  0
    9.1933  -15.1804   26.7060 C   0  0  0  0  0  0  0  0  0  0  0  0
   10.0089  -14.6016   27.6506 O   0  0  0  0  0  0  0  0  0  0  0  0
    8.8249  -16.3782   26.9939 O   0  0  0  0  0  0  0  0  0  0  0  0
  2  3  2  0
  2  1  1  0
  4  2  1  0
  5  4  1  0
  5  6  1  0
  6  8  1  0
  6  7  1  6
  8  9  2  0
 10 11  1  0
 11 13  1  0
 12 11  2  0
 13 14  1  0
 15 14  1  6
 16 15  1  0
 16  8  1  0
 17 24  1  0
 17 15  1  0
 18 17  2  0
 20 19  1  6
 20 21  1  0
 22 20  1  0
 23 22  1  1
 23 24  1  0
 25 26  1  0
 25 23  1  0
 27 25  2  0
M  END
$$$$
