QQL.pdb
     RDKit          3D

 27 26  0  0  1  0  0  0  0  0999 V2000
    8.5593  -12.3986   17.7075 N   0  0  0  0  0  0  0  0  0  0  0  0
    8.0324  -13.4420   16.8885 C   0  0  0  0  0  0  0  0  0  0  0  0
    7.9528  -13.2516   15.6794 O   0  0  0  0  0  0  0  0  0  0  0  0
    7.6072  -14.6876   17.5280 C   0  0  0  0  0  0  0  0  0  0  0  0
    7.8429  -14.6833   18.9945 C   0  0  0  0  0  0  0  0  0  0  0  0
    8.8199  -15.7139   19.4502 C   0  0  2  0  0  0  0  0  0  0  0  0
    9.0130  -16.8406   18.6226 N   0  0  0  0  0  0  0  0  0  0  0  0
    8.4389  -16.0518   20.8728 C   0  0  0  0  0  0  0  0  0  0  0  0
    7.2188  -16.1634   21.0761 O   0  0  0  0  0  0  0  0  0  0  0  0
   10.5317  -20.5747   23.9142 N   0  0  0  0  0  0  0  0  0  0  0  0
   11.4690  -19.6467   23.4104 C   0  0  0  0  0  0  0  0  0  0  0  0
   12.6524  -19.9884   23.2021 O   0  0  0  0  0  0  0  0  0  0  0  0
   11.0529  -18.2651   23.1268 C   0  0  0  0  0  0  0  0  0  0  0  0
    9.6266  -18.0025   23.5478 C   0  0  0  0  0  0  0  0  0  0  0  0
    9.1811  -16.6215   23.2477 C   0  0  2  0  0  0  0  0  0  0  0  0
    9.3755  -16.2246   21.8811 N   0  0  0  0  0  0  0  0  0  0  0  0
    9.4462  -15.5707   24.2056 C   0  0  0  0  0  0  0  0  0  0  0  0
   10.6393  -15.1385   24.2532 O   0  0  0  0  0  0  0  0  0  0  0  0
    6.9380  -12.4784   24.7707 C   0  0  0  0  0  0  0  0  0  0  0  0
    6.9678  -12.5724   26.2659 C   0  0  1  0  0  0  0  0  0  0  0  0
    5.5491  -12.3092   26.7300 C   0  0  0  0  0  0  0  0  0  0  0  0
    7.6054  -13.7377   26.8463 C   0  0  0  0  0  0  0  0  0  0  0  0
    8.8327  -14.3671   26.3768 C   0  0  2  0  0  0  0  0  0  0  0  0
    8.5185  -14.9892   25.0789 N   0  0  0  0  0  0  0  0  0  0  0  0
    9.4962  -15.2787   27.2692 C   0  0  0  0  0  0  0  0  0  0  0  0
    9.6606  -16.6374   27.1299 O   0  0  0  0  0  0  0  0  0  0  0  0
   10.0052  -14.7963   28.3469 O   0  0  0  0  0  0  0  0  0  0  0  0
  2  3  2  0
  2  1  1  0
  4  2  1  0
  5  4  1  0
  5  6  1  0
  6  8  1  0
  6  7  1  6
  8  9  2  0
 10 11  1  0
 11 13  1  0
 12 11  2  0
 13 14  1  0
 15 14  1  1
 16 15  1  0
 16  8  1  0
 17 24  1  0
 17 15  1  0
 18 17  2  0
 20 19  1  6
 20 21  1  0
 22 20  1  0
 23 22  1  1
 23 24  1  0
 25 26  1  0
 25 23  1  0
 27 25  2  0
M  END
$$$$
