QQL.pdb
     RDKit          3D

 27 26  0  0  1  0  0  0  0  0999 V2000
   10.1934  -20.1793   16.8362 N   0  0  0  0  0  0  0  0  0  0  0  0
    9.3431  -19.0404   16.9654 C   0  0  0  0  0  0  0  0  0  0  0  0
    8.8333  -18.5742   15.9519 O   0  0  0  0  0  0  0  0  0  0  0  0
    9.1223  -18.4784   18.2983 C   0  0  0  0  0  0  0  0  0  0  0  0
    9.7538  -19.2904   19.3697 C   0  0  0  0  0  0  0  0  0  0  0  0
    9.4858  -18.7834   20.7465 C   0  0  2  0  0  0  0  0  0  0  0  0
    8.1509  -18.8116   21.2036 N   0  0  0  0  0  0  0  0  0  0  0  0
   10.1356  -17.4215   20.8248 C   0  0  0  0  0  0  0  0  0  0  0  0
   10.9415  -17.1722   19.9134 O   0  0  0  0  0  0  0  0  0  0  0  0
    8.8463  -13.7758   18.4291 N   0  0  0  0  0  0  0  0  0  0  0  0
    8.0586  -13.0708   19.3650 C   0  0  0  0  0  0  0  0  0  0  0  0
    7.7490  -11.8773   19.1639 O   0  0  0  0  0  0  0  0  0  0  0  0
    7.5964  -13.7432   20.5883 C   0  0  0  0  0  0  0  0  0  0  0  0
    8.1670  -15.1349   20.7232 C   0  0  0  0  0  0  0  0  0  0  0  0
    9.2232  -15.2280   21.7583 C   0  0  2  0  0  0  0  0  0  0  0  0
    9.8589  -16.5136   21.8362 N   0  0  0  0  0  0  0  0  0  0  0  0
    9.0074  -14.6031   23.0447 C   0  0  0  0  0  0  0  0  0  0  0  0
    9.6626  -13.5393   23.2723 O   0  0  0  0  0  0  0  0  0  0  0  0
    5.3838  -12.4894   26.2820 C   0  0  0  0  0  0  0  0  0  0  0  0
    6.7801  -12.8688   25.8923 C   0  0  1  0  0  0  0  0  0  0  0  0
    7.6925  -11.8799   26.5903 C   0  0  0  0  0  0  0  0  0  0  0  0
    7.1532  -14.2627   26.0299 C   0  0  0  0  0  0  0  0  0  0  0  0
    8.3617  -14.8832   25.5032 C   0  0  2  0  0  0  0  0  0  0  0  0
    8.1507  -15.0567   24.0555 N   0  0  0  0  0  0  0  0  0  0  0  0
    8.8178  -16.0922   26.1340 C   0  0  0  0  0  0  0  0  0  0  0  0
    8.9890  -17.3345   25.5685 O   0  0  0  0  0  0  0  0  0  0  0  0
    9.1034  -16.0420   27.3867 O   0  0  0  0  0  0  0  0  0  0  0  0
  2  3  2  0
  2  1  1  0
  4  2  1  0
  5  4  1  0
  5  6  1  0
  6  8  1  0
  6  7  1  6
  8  9  2  0
 10 11  1  0
 11 13  1  0
 12 11  2  0
 13 14  1  0
 15 14  1  1
 16 15  1  0
 16  8  1  0
 17 24  1  0
 17 15  1  0
 18 17  2  0
 20 19  1  1
 20 21  1  0
 22 20  1  0
 23 22  1  1
 23 24  1  0
 25 26  1  0
 25 23  1  0
 27 25  2  0
M  END
$$$$
