QQL.pdb
     RDKit          3D

 27 26  0  0  1  0  0  0  0  0999 V2000
    8.0238  -12.3736   19.6244 N   0  0  0  0  0  0  0  0  0  0  0  0
    8.2442  -13.2378   18.5101 C   0  0  0  0  0  0  0  0  0  0  0  0
    8.6513  -12.7472   17.4622 O   0  0  0  0  0  0  0  0  0  0  0  0
    7.9702  -14.6666   18.6665 C   0  0  0  0  0  0  0  0  0  0  0  0
    7.5390  -15.0155   20.0444 C   0  0  0  0  0  0  0  0  0  0  0  0
    7.2616  -16.4680   20.2386 C   0  0  2  0  0  0  0  0  0  0  0  0
    6.2460  -17.0493   19.4498 N   0  0  0  0  0  0  0  0  0  0  0  0
    7.0756  -16.6634   21.7254 C   0  0  0  0  0  0  0  0  0  0  0  0
    5.9441  -16.3824   22.1533 O   0  0  0  0  0  0  0  0  0  0  0  0
    6.2068  -20.2662   25.4191 N   0  0  0  0  0  0  0  0  0  0  0  0
    7.0828  -19.6794   26.3582 C   0  0  0  0  0  0  0  0  0  0  0  0
    6.8794  -19.8086   27.5840 O   0  0  0  0  0  0  0  0  0  0  0  0
    8.2458  -18.9087   25.8937 C   0  0  0  0  0  0  0  0  0  0  0  0
    8.2497  -18.7323   24.3940 C   0  0  0  0  0  0  0  0  0  0  0  0
    8.0798  -17.3202   23.9783 C   0  0  2  0  0  0  0  0  0  0  0  0
    8.0879  -17.1206   22.5559 N   0  0  0  0  0  0  0  0  0  0  0  0
    8.7590  -16.2800   24.7190 C   0  0  0  0  0  0  0  0  0  0  0  0
    9.9623  -16.0453   24.3879 O   0  0  0  0  0  0  0  0  0  0  0  0
    5.8207  -12.2660   27.0651 C   0  0  0  0  0  0  0  0  0  0  0  0
    6.8806  -13.0021   26.3036 C   0  0  1  0  0  0  0  0  0  0  0  0
    7.2945  -12.0850   25.1699 C   0  0  0  0  0  0  0  0  0  0  0  0
    7.9704  -13.5765   27.0675 C   0  0  0  0  0  0  0  0  0  0  0  0
    8.9549  -14.5303   26.5736 C   0  0  2  0  0  0  0  0  0  0  0  0
    8.2192  -15.5130   25.7591 N   0  0  0  0  0  0  0  0  0  0  0  0
    9.8136  -15.1602   27.5397 C   0  0  0  0  0  0  0  0  0  0  0  0
    9.9086  -16.4972   27.8497 O   0  0  0  0  0  0  0  0  0  0  0  0
   10.5998  -14.4061   28.2226 O   0  0  0  0  0  0  0  0  0  0  0  0
  2  3  2  0
  2  1  1  0
  4  2  1  0
  5  4  1  0
  5  6  1  0
  6  8  1  0
  6  7  1  6
  8  9  2  0
 10 11  1  0
 11 13  1  0
 12 11  2  0
 13 14  1  0
 15 14  1  6
 16 15  1  0
 16  8  1  0
 17 24  1  0
 17 15  1  0
 18 17  2  0
 20 19  1  1
 20 21  1  0
 22 20  1  0
 23 22  1  1
 23 24  1  0
 25 26  1  0
 25 23  1  0
 27 25  2  0
M  END
$$$$
