QQL.pdb
     RDKit          3D

 27 26  0  0  1  0  0  0  0  0999 V2000
    8.4939  -19.3305   15.9280 N   0  0  0  0  0  0  0  0  0  0  0  0
    8.6737  -18.1338   16.6847 C   0  0  0  0  0  0  0  0  0  0  0  0
    8.1998  -17.0900   16.2480 O   0  0  0  0  0  0  0  0  0  0  0  0
    9.4181  -18.2052   17.9424 C   0  0  0  0  0  0  0  0  0  0  0  0
    8.5271  -18.3275   19.1245 C   0  0  0  0  0  0  0  0  0  0  0  0
    9.2571  -18.4111   20.4224 C   0  0  2  0  0  0  0  0  0  0  0  0
    9.7515  -19.6740   20.8125 N   0  0  0  0  0  0  0  0  0  0  0  0
    8.3628  -17.7552   21.4486 C   0  0  0  0  0  0  0  0  0  0  0  0
    7.9079  -16.6484   21.1164 O   0  0  0  0  0  0  0  0  0  0  0  0
    6.4515  -21.0477   26.3371 N   0  0  0  0  0  0  0  0  0  0  0  0
    5.8828  -21.0894   25.0455 C   0  0  0  0  0  0  0  0  0  0  0  0
    5.1998  -22.0707   24.6832 O   0  0  0  0  0  0  0  0  0  0  0  0
    6.0936  -19.9701   24.1153 C   0  0  0  0  0  0  0  0  0  0  0  0
    6.8715  -18.8418   24.7495 C   0  0  0  0  0  0  0  0  0  0  0  0
    7.3041  -17.8171   23.7705 C   0  0  2  0  0  0  0  0  0  0  0  0
    8.0687  -18.3386   22.6720 N   0  0  0  0  0  0  0  0  0  0  0  0
    7.7695  -16.5346   24.2506 C   0  0  0  0  0  0  0  0  0  0  0  0
    7.5949  -15.5444   23.4748 O   0  0  0  0  0  0  0  0  0  0  0  0
    7.6210  -11.6988   25.6679 C   0  0  0  0  0  0  0  0  0  0  0  0
    7.3563  -12.8453   26.5957 C   0  0  1  0  0  0  0  0  0  0  0  0
    6.0205  -12.5541   27.2501 C   0  0  0  0  0  0  0  0  0  0  0  0
    7.5067  -14.1834   26.0588 C   0  0  0  0  0  0  0  0  0  0  0  0
    8.7420  -14.9544   26.0104 C   0  0  2  0  0  0  0  0  0  0  0  0
    8.3899  -16.2833   25.4808 N   0  0  0  0  0  0  0  0  0  0  0  0
    9.5206  -15.0395   27.2162 C   0  0  0  0  0  0  0  0  0  0  0  0
    9.7015  -16.1286   28.0371 O   0  0  0  0  0  0  0  0  0  0  0  0
   10.1324  -13.9790   27.6091 O   0  0  0  0  0  0  0  0  0  0  0  0
  2  3  2  0
  2  1  1  0
  4  2  1  0
  5  4  1  0
  5  6  1  0
  6  8  1  0
  6  7  1  1
  8  9  2  0
 10 11  1  0
 11 13  1  0
 12 11  2  0
 13 14  1  0
 15 14  1  1
 16 15  1  0
 16  8  1  0
 17 24  1  0
 17 15  1  0
 18 17  2  0
 20 19  1  6
 20 21  1  0
 22 20  1  0
 23 22  1  1
 23 24  1  0
 25 26  1  0
 25 23  1  0
 27 25  2  0
M  END
$$$$
