QQL.pdb
     RDKit          3D

 27 26  0  0  1  0  0  0  0  0999 V2000
    9.9701  -12.1309   18.6998 N   0  0  0  0  0  0  0  0  0  0  0  0
    8.9649  -12.8909   18.0297 C   0  0  0  0  0  0  0  0  0  0  0  0
    9.2554  -13.4387   16.9714 O   0  0  0  0  0  0  0  0  0  0  0  0
    7.6343  -12.9779   18.6321 C   0  0  0  0  0  0  0  0  0  0  0  0
    7.6314  -13.7605   19.8945 C   0  0  0  0  0  0  0  0  0  0  0  0
    8.0058  -15.1930   19.7155 C   0  0  2  0  0  0  0  0  0  0  0  0
    7.2212  -15.9670   18.8340 N   0  0  0  0  0  0  0  0  0  0  0  0
    8.1232  -15.7718   21.1063 C   0  0  0  0  0  0  0  0  0  0  0  0
    7.0610  -15.8126   21.7484 O   0  0  0  0  0  0  0  0  0  0  0  0
   11.6113  -20.7441   24.9967 N   0  0  0  0  0  0  0  0  0  0  0  0
   11.8186  -19.5583   24.2589 C   0  0  0  0  0  0  0  0  0  0  0  0
   12.8581  -19.4035   23.5836 O   0  0  0  0  0  0  0  0  0  0  0  0
   10.8045  -18.4936   24.2826 C   0  0  0  0  0  0  0  0  0  0  0  0
   10.5687  -17.9014   22.9137 C   0  0  0  0  0  0  0  0  0  0  0  0
    9.5985  -16.7816   22.9283 C   0  0  2  0  0  0  0  0  0  0  0  0
    9.3238  -16.2242   21.6334 N   0  0  0  0  0  0  0  0  0  0  0  0
    9.6733  -15.7970   23.9852 C   0  0  0  0  0  0  0  0  0  0  0  0
    9.8482  -14.5925   23.6230 O   0  0  0  0  0  0  0  0  0  0  0  0
    8.2913  -11.9173   26.9284 C   0  0  0  0  0  0  0  0  0  0  0  0
    7.5289  -13.1858   26.6939 C   0  0  1  0  0  0  0  0  0  0  0  0
    6.1724  -12.7665   26.1632 C   0  0  0  0  0  0  0  0  0  0  0  0
    8.1938  -14.2320   25.9426 C   0  0  0  0  0  0  0  0  0  0  0  0
    9.3231  -15.0310   26.3998 C   0  0  2  0  0  0  0  0  0  0  0  0
    9.5719  -16.0445   25.3599 N   0  0  0  0  0  0  0  0  0  0  0  0
    9.2398  -15.6102   27.7133 C   0  0  0  0  0  0  0  0  0  0  0  0
    9.7909  -15.1449   28.8848 O   0  0  0  0  0  0  0  0  0  0  0  0
    8.5798  -16.7061   27.8427 O   0  0  0  0  0  0  0  0  0  0  0  0
  2  3  2  0
  2  1  1  0
  4  2  1  0
  5  4  1  0
  5  6  1  0
  6  8  1  0
  6  7  1  6
  8  9  2  0
 10 11  1  0
 11 13  1  0
 12 11  2  0
 13 14  1  0
 15 14  1  6
 16 15  1  0
 16  8  1  0
 17 24  1  0
 17 15  1  0
 18 17  2  0
 20 19  1  6
 20 21  1  0
 22 20  1  0
 23 22  1  6
 23 24  1  0
 25 26  1  0
 25 23  1  0
 27 25  2  0
M  END
$$$$
