QQL.pdb
     RDKit          3D

 27 26  0  0  1  0  0  0  0  0999 V2000
    9.9343  -19.0822   16.6581 N   0  0  0  0  0  0  0  0  0  0  0  0
    8.6061  -18.9918   17.1727 C   0  0  0  0  0  0  0  0  0  0  0  0
    7.6680  -19.0975   16.3895 O   0  0  0  0  0  0  0  0  0  0  0  0
    8.4242  -18.7726   18.6079 C   0  0  0  0  0  0  0  0  0  0  0  0
    9.7042  -18.4920   19.3072 C   0  0  0  0  0  0  0  0  0  0  0  0
    9.5577  -18.3080   20.7800 C   0  0  2  0  0  0  0  0  0  0  0  0
    8.3627  -18.7617   21.3783 N   0  0  0  0  0  0  0  0  0  0  0  0
    9.8714  -16.8555   21.0536 C   0  0  0  0  0  0  0  0  0  0  0  0
   10.9852  -16.4761   20.6562 O   0  0  0  0  0  0  0  0  0  0  0  0
    8.4746  -12.1385   18.8727 N   0  0  0  0  0  0  0  0  0  0  0  0
    7.8050  -13.3813   18.8493 C   0  0  0  0  0  0  0  0  0  0  0  0
    7.1561  -13.7346   17.8420 O   0  0  0  0  0  0  0  0  0  0  0  0
    7.8695  -14.2707   20.0186 C   0  0  0  0  0  0  0  0  0  0  0  0
    8.6141  -13.6415   21.1719 C   0  0  0  0  0  0  0  0  0  0  0  0
    9.1719  -14.6410   22.1130 C   0  0  2  0  0  0  0  0  0  0  0  0
    8.9877  -16.0044   21.7004 N   0  0  0  0  0  0  0  0  0  0  0  0
    9.0161  -14.4342   23.5360 C   0  0  0  0  0  0  0  0  0  0  0  0
    8.8750  -13.2318   23.9193 O   0  0  0  0  0  0  0  0  0  0  0  0
    5.7689  -12.6629   26.0840 C   0  0  0  0  0  0  0  0  0  0  0  0
    7.1850  -13.1309   25.9389 C   0  0  1  0  0  0  0  0  0  0  0  0
    8.0082  -12.2705   26.8768 C   0  0  0  0  0  0  0  0  0  0  0  0
    7.4267  -14.5572   26.0309 C   0  0  0  0  0  0  0  0  0  0  0  0
    8.7249  -15.2139   25.9540 C   0  0  2  0  0  0  0  0  0  0  0  0
    9.0063  -15.4271   24.5237 N   0  0  0  0  0  0  0  0  0  0  0  0
    8.9116  -16.4113   26.7281 C   0  0  0  0  0  0  0  0  0  0  0  0
    9.3099  -16.5226   28.0401 O   0  0  0  0  0  0  0  0  0  0  0  0
    8.6941  -17.5381   26.1483 O   0  0  0  0  0  0  0  0  0  0  0  0
  2  3  2  0
  2  1  1  0
  4  2  1  0
  5  4  1  0
  5  6  1  0
  6  8  1  0
  6  7  1  6
  8  9  2  0
 10 11  1  0
 11 13  1  0
 12 11  2  0
 13 14  1  0
 15 14  1  6
 16 15  1  0
 16  8  1  0
 17 24  1  0
 17 15  1  0
 18 17  2  0
 20 19  1  1
 20 21  1  0
 22 20  1  0
 23 22  1  6
 23 24  1  0
 25 26  1  0
 25 23  1  0
 27 25  2  0
M  END
$$$$
