LCC.pdb
     RDKit          3D

 21 20  0  0  1  0  0  0  0  0999 V2000
   15.0668  -12.0887  -16.8415 C   0  0  0  0  0  0  0  0  0  0  0  0
   15.4551  -13.2137  -15.8808 C   0  0  2  0  0  0  0  0  0  0  0  0
   14.1969  -13.7239  -15.2510 C   0  0  0  0  0  0  0  0  0  0  0  0
   16.4195  -12.6202  -14.9067 C   0  0  0  0  0  0  0  0  0  0  0  0
   17.6709  -12.0452  -15.5252 C   0  0  2  0  0  0  0  0  0  0  0  0
   18.5408  -13.1866  -15.7900 N   0  0  0  0  0  0  0  0  0  0  0  0
   18.2874  -11.0900  -14.6057 C   0  0  0  0  0  0  0  0  0  0  0  0
   18.8565  -11.4612  -13.5498 O   0  0  0  0  0  0  0  0  0  0  0  0
   18.2961   -9.6706  -14.8254 N   0  0  0  0  0  0  0  0  0  0  0  0
   18.8794   -8.7551  -13.8642 C   0  0  1  0  0  0  0  0  0  0  0  0
   19.7023   -7.7516  -14.6749 C   0  0  0  0  0  0  0  0  0  0  0  0
   20.5542   -6.6791  -13.4748 S   0  0  0  0  0  0  0  0  0  0  0  0
   17.8394   -7.9669  -13.1537 C   0  0  0  0  0  0  0  0  0  0  0  0
   16.8591   -7.4891  -13.7818 O   0  0  0  0  0  0  0  0  0  0  0  0
   17.9425   -7.7442  -11.7531 N   0  0  0  0  0  0  0  0  0  0  0  0
   16.9641   -7.0019  -10.9987 C   0  0  1  0  0  0  0  0  0  0  0  0
   16.8850   -7.4638   -9.5602 C   0  0  0  0  0  0  0  0  0  0  0  0
   16.0717   -6.2164   -8.5259 S   0  0  0  0  0  0  0  0  0  0  0  0
   17.1610   -5.5380  -11.1085 C   0  0  0  0  0  0  0  0  0  0  0  0
   18.4182   -4.9569  -11.0769 O   0  0  0  0  0  0  0  0  0  0  0  0
   16.1714   -4.7773  -11.2352 O   0  0  0  0  0  0  0  0  0  0  0  0
  2  1  1  6
  2  3  1  0
  4  2  1  0
  5  4  1  0
  5  6  1  1
  7  5  1  0
  7  8  2  0
  9  7  1  0
 10 13  1  0
 10  9  1  0
 10 11  1  6
 12 11  1  0
 13 15  1  0
 14 13  2  0
 15 16  1  0
 16 19  1  0
 17 18  1  0
 16 17  1  1
 19 21  2  0
 19 20  1  0
M  END
$$$$
