LCC.pdb
     RDKit          3D

 21 20  0  0  1  0  0  0  0  0999 V2000
   26.0055  -15.3660  -14.5263 C   0  0  0  0  0  0  0  0  0  0  0  0
   26.1179  -15.2071  -16.0434 C   0  0  2  0  0  0  0  0  0  0  0  0
   27.5403  -14.8629  -16.3570 C   0  0  0  0  0  0  0  0  0  0  0  0
   25.1413  -14.1444  -16.4280 C   0  0  0  0  0  0  0  0  0  0  0  0
   23.6963  -14.4817  -16.1497 C   0  0  2  0  0  0  0  0  0  0  0  0
   23.3996  -15.6527  -16.9687 N   0  0  0  0  0  0  0  0  0  0  0  0
   22.8441  -13.3444  -16.4934 C   0  0  0  0  0  0  0  0  0  0  0  0
   22.7460  -12.9238  -17.6723 O   0  0  0  0  0  0  0  0  0  0  0  0
   22.0594  -12.6225  -15.5311 N   0  0  0  0  0  0  0  0  0  0  0  0
   21.1448  -11.5705  -15.9300 C   0  0  1  0  0  0  0  0  0  0  0  0
   19.8729  -11.7742  -15.1038 C   0  0  0  0  0  0  0  0  0  0  0  0
   19.1289  -13.3399  -15.6617 S   0  0  0  0  0  0  0  0  0  0  0  0
   21.6647  -10.2250  -15.5735 C   0  0  0  0  0  0  0  0  0  0  0  0
   22.2700  -10.0411  -14.4857 O   0  0  0  0  0  0  0  0  0  0  0  0
   21.4825   -9.1291  -16.4611 N   0  0  0  0  0  0  0  0  0  0  0  0
   22.0370   -7.8204  -16.2221 C   0  0  1  0  0  0  0  0  0  0  0  0
   22.2984   -7.0698  -17.5094 C   0  0  0  0  0  0  0  0  0  0  0  0
   20.7430   -6.5294  -18.2682 S   0  0  0  0  0  0  0  0  0  0  0  0
   21.2257   -7.0312  -15.2666 C   0  0  0  0  0  0  0  0  0  0  0  0
   21.7256   -5.9122  -14.6207 O   0  0  0  0  0  0  0  0  0  0  0  0
   20.0430   -7.3674  -15.0171 O   0  0  0  0  0  0  0  0  0  0  0  0
  2  1  1  1
  2  3  1  0
  4  2  1  0
  5  4  1  0
  5  6  1  6
  7  5  1  0
  7  8  2  0
  9  7  1  0
 10 13  1  0
 10  9  1  0
 10 11  1  1
 12 11  1  0
 13 15  1  0
 14 13  2  0
 15 16  1  0
 16 19  1  0
 17 18  1  0
 16 17  1  6
 19 21  2  0
 19 20  1  0
M  END
$$$$
