LCC.pdb
     RDKit          3D

 21 20  0  0  1  0  0  0  0  0999 V2000
   30.5338  -23.4829  -17.9887 C   0  0  0  0  0  0  0  0  0  0  0  0
   29.6844  -22.4916  -18.7858 C   0  0  2  0  0  0  0  0  0  0  0  0
   30.5990  -21.7618  -19.7190 C   0  0  0  0  0  0  0  0  0  0  0  0
   29.0166  -21.6090  -17.7827 C   0  0  0  0  0  0  0  0  0  0  0  0
   28.2436  -22.3399  -16.7115 C   0  0  2  0  0  0  0  0  0  0  0  0
   27.3895  -23.2886  -17.4189 N   0  0  0  0  0  0  0  0  0  0  0  0
   27.4648  -21.3874  -15.9215 C   0  0  0  0  0  0  0  0  0  0  0  0
   28.0126  -20.4642  -15.2703 O   0  0  0  0  0  0  0  0  0  0  0  0
   26.0323  -21.4234  -15.8230 N   0  0  0  0  0  0  0  0  0  0  0  0
   25.3077  -20.5342  -14.9361 C   0  0  1  0  0  0  0  0  0  0  0  0
   23.9614  -20.2621  -15.6105 C   0  0  0  0  0  0  0  0  0  0  0  0
   22.9736  -19.2820  -14.4356 S   0  0  0  0  0  0  0  0  0  0  0  0
   25.0009  -21.1841  -13.6356 C   0  0  0  0  0  0  0  0  0  0  0  0
   24.5833  -22.3706  -13.5967 O   0  0  0  0  0  0  0  0  0  0  0  0
   25.1767  -20.4691  -12.4191 N   0  0  0  0  0  0  0  0  0  0  0  0
   24.8381  -21.0140  -11.1284 C   0  0  1  0  0  0  0  0  0  0  0  0
   25.8598  -20.6526  -10.0727 C   0  0  0  0  0  0  0  0  0  0  0  0
   25.0950  -20.5882   -8.4302 S   0  0  0  0  0  0  0  0  0  0  0  0
   23.4581  -20.6685  -10.7160 C   0  0  0  0  0  0  0  0  0  0  0  0
   22.6487  -21.5562  -10.0261 O   0  0  0  0  0  0  0  0  0  0  0  0
   22.9833  -19.5398  -10.9891 O   0  0  0  0  0  0  0  0  0  0  0  0
  2  1  1  1
  2  3  1  0
  4  2  1  0
  5  4  1  0
  5  6  1  6
  7  5  1  0
  7  8  2  0
  9  7  1  0
 10 13  1  0
 10  9  1  0
 10 11  1  6
 12 11  1  0
 13 15  1  0
 14 13  2  0
 15 16  1  0
 16 19  1  0
 17 18  1  0
 16 17  1  1
 19 21  2  0
 19 20  1  0
M  END
$$$$
