LCC.pdb
     RDKit          3D

 21 20  0  0  1  0  0  0  0  0999 V2000
   25.1307  -16.6011  -18.0345 C   0  0  0  0  0  0  0  0  0  0  0  0
   23.9502  -17.5366  -17.7687 C   0  0  2  0  0  0  0  0  0  0  0  0
   22.7571  -16.6839  -17.4694 C   0  0  0  0  0  0  0  0  0  0  0  0
   24.3604  -18.4192  -16.6356 C   0  0  0  0  0  0  0  0  0  0  0  0
   25.6322  -19.1985  -16.8685 C   0  0  2  0  0  0  0  0  0  0  0  0
   25.3347  -20.1229  -17.9579 N   0  0  0  0  0  0  0  0  0  0  0  0
   26.0169  -19.9012  -15.6454 C   0  0  0  0  0  0  0  0  0  0  0  0
   25.2261  -20.6731  -15.0494 O   0  0  0  0  0  0  0  0  0  0  0  0
   27.3084  -19.7727  -15.0301 N   0  0  0  0  0  0  0  0  0  0  0  0
   27.6128  -20.4030  -13.7604 C   0  0  1  0  0  0  0  0  0  0  0  0
   29.0798  -20.0829  -13.4653 C   0  0  0  0  0  0  0  0  0  0  0  0
   29.4382  -20.7425  -11.8060 S   0  0  0  0  0  0  0  0  0  0  0  0
   26.8234  -19.8115  -12.6492 C   0  0  0  0  0  0  0  0  0  0  0  0
   26.6895  -18.5639  -12.5536 O   0  0  0  0  0  0  0  0  0  0  0  0
   26.2100  -20.6524  -11.6803 N   0  0  0  0  0  0  0  0  0  0  0  0
   25.5384  -20.1467  -10.5095 C   0  0  1  0  0  0  0  0  0  0  0  0
   24.0996  -19.7762  -10.7948 C   0  0  0  0  0  0  0  0  0  0  0  0
   23.0982  -21.2584  -11.0902 S   0  0  0  0  0  0  0  0  0  0  0  0
   25.6640  -21.0600   -9.3502 C   0  0  0  0  0  0  0  0  0  0  0  0
   25.1877  -20.7275   -8.0925 O   0  0  0  0  0  0  0  0  0  0  0  0
   26.2164  -22.1781   -9.4864 O   0  0  0  0  0  0  0  0  0  0  0  0
  2  1  1  1
  2  3  1  0
  4  2  1  0
  5  4  1  0
  5  6  1  6
  7  5  1  0
  7  8  2  0
  9  7  1  0
 10 13  1  0
 10  9  1  0
 10 11  1  1
 12 11  1  0
 13 15  1  0
 14 13  2  0
 15 16  1  0
 16 19  1  0
 17 18  1  0
 16 17  1  6
 19 21  2  0
 19 20  1  0
M  END
$$$$
