LCC.pdb
     RDKit          3D

 21 20  0  0  1  0  0  0  0  0999 V2000
   25.0713  -20.8111   -7.6224 C   0  0  0  0  0  0  0  0  0  0  0  0
   26.4399  -20.3577   -8.1331 C   0  0  2  0  0  0  0  0  0  0  0  0
   26.9676  -19.3419   -7.1689 C   0  0  0  0  0  0  0  0  0  0  0  0
   26.2185  -19.8239   -9.5105 C   0  0  0  0  0  0  0  0  0  0  0  0
   25.7285  -20.8412  -10.5125 C   0  0  2  0  0  0  0  0  0  0  0  0
   26.7362  -21.8968  -10.5284 N   0  0  0  0  0  0  0  0  0  0  0  0
   25.5737  -20.2140  -11.8242 C   0  0  0  0  0  0  0  0  0  0  0  0
   24.6842  -19.3561  -12.0463 O   0  0  0  0  0  0  0  0  0  0  0  0
   26.4093  -20.5183  -12.9521 N   0  0  0  0  0  0  0  0  0  0  0  0
   26.1795  -19.9207  -14.2530 C   0  0  1  0  0  0  0  0  0  0  0  0
   27.3577  -20.3452  -15.1323 C   0  0  0  0  0  0  0  0  0  0  0  0
   27.8165  -22.0310  -14.6184 S   0  0  0  0  0  0  0  0  0  0  0  0
   24.9571  -20.4638  -14.8998 C   0  0  0  0  0  0  0  0  0  0  0  0
   24.5697  -21.6353  -14.6527 O   0  0  0  0  0  0  0  0  0  0  0  0
   24.2112  -19.6623  -15.8072 N   0  0  0  0  0  0  0  0  0  0  0  0
   22.8709  -19.9860  -16.2269 C   0  0  1  0  0  0  0  0  0  0  0  0
   21.9122  -20.0631  -15.0591 C   0  0  0  0  0  0  0  0  0  0  0  0
   21.3416  -18.4094  -14.5828 S   0  0  0  0  0  0  0  0  0  0  0  0
   22.3826  -19.0845  -17.2959 C   0  0  0  0  0  0  0  0  0  0  0  0
   21.2008  -19.3204  -17.9791 O   0  0  0  0  0  0  0  0  0  0  0  0
   23.0440  -18.0662  -17.6116 O   0  0  0  0  0  0  0  0  0  0  0  0
  2  1  1  1
  2  3  1  0
  4  2  1  0
  5  4  1  0
  5  6  1  6
  7  5  1  0
  7  8  2  0
  9  7  1  0
 10 13  1  0
 10  9  1  0
 10 11  1  6
 12 11  1  0
 13 15  1  0
 14 13  2  0
 15 16  1  0
 16 19  1  0
 17 18  1  0
 16 17  1  1
 19 21  2  0
 19 20  1  0
M  END
$$$$
