LCC.pdb
     RDKit          3D

 21 20  0  0  1  0  0  0  0  0999 V2000
   36.0343  -10.0267  -13.8104 C   0  0  0  0  0  0  0  0  0  0  0  0
   36.5668   -8.8459  -14.6237 C   0  0  2  0  0  0  0  0  0  0  0  0
   36.9541   -7.7705  -13.6575 C   0  0  0  0  0  0  0  0  0  0  0  0
   35.4704   -8.4509  -15.5581 C   0  0  0  0  0  0  0  0  0  0  0  0
   35.0514   -9.5251  -16.5326 C   0  0  2  0  0  0  0  0  0  0  0  0
   36.2427   -9.8323  -17.3177 N   0  0  0  0  0  0  0  0  0  0  0  0
   33.9558   -9.0385  -17.3697 C   0  0  0  0  0  0  0  0  0  0  0  0
   34.1449   -8.2006  -18.2855 O   0  0  0  0  0  0  0  0  0  0  0  0
   32.5933   -9.4680  -17.2208 N   0  0  0  0  0  0  0  0  0  0  0  0
   31.5179   -8.8668  -17.9851 C   0  0  1  0  0  0  0  0  0  0  0  0
   30.2880   -9.7488  -17.7589 C   0  0  0  0  0  0  0  0  0  0  0  0
   28.9133   -8.9777  -18.6710 S   0  0  0  0  0  0  0  0  0  0  0  0
   31.1656   -7.5176  -17.4719 C   0  0  0  0  0  0  0  0  0  0  0  0
   30.9509   -7.3361  -16.2453 O   0  0  0  0  0  0  0  0  0  0  0  0
   31.0677   -6.4153  -18.3649 N   0  0  0  0  0  0  0  0  0  0  0  0
   30.6409   -5.1019  -17.9523 C   0  0  1  0  0  0  0  0  0  0  0  0
   31.7992   -4.1343  -17.8478 C   0  0  0  0  0  0  0  0  0  0  0  0
   31.2338   -2.5113  -17.2704 S   0  0  0  0  0  0  0  0  0  0  0  0
   29.5437   -4.5755  -18.7968 C   0  0  0  0  0  0  0  0  0  0  0  0
   29.1486   -5.1995  -19.9688 O   0  0  0  0  0  0  0  0  0  0  0  0
   28.9363   -3.5305  -18.4606 O   0  0  0  0  0  0  0  0  0  0  0  0
  2  1  1  1
  2  3  1  0
  4  2  1  0
  5  4  1  0
  5  6  1  6
  7  5  1  0
  7  8  2  0
  9  7  1  0
 10 13  1  0
 10  9  1  0
 10 11  1  1
 12 11  1  0
 13 15  1  0
 14 13  2  0
 15 16  1  0
 16 19  1  0
 17 18  1  0
 16 17  1  6
 19 21  2  0
 19 20  1  0
M  END
$$$$
