LCC.pdb
     RDKit          3D

 21 20  0  0  1  0  0  0  0  0999 V2000
   23.5836  -22.2710  -12.5492 C   0  0  0  0  0  0  0  0  0  0  0  0
   23.8000  -21.5599  -11.2124 C   0  0  2  0  0  0  0  0  0  0  0  0
   22.4628  -21.0948  -10.7270 C   0  0  0  0  0  0  0  0  0  0  0  0
   24.7645  -20.4507  -11.4779 C   0  0  0  0  0  0  0  0  0  0  0  0
   26.0659  -20.8812  -12.1105 C   0  0  2  0  0  0  0  0  0  0  0  0
   26.9366  -21.2612  -11.0027 N   0  0  0  0  0  0  0  0  0  0  0  0
   26.6268  -19.7814  -12.8939 C   0  0  0  0  0  0  0  0  0  0  0  0
   27.1126  -18.7606  -12.3476 O   0  0  0  0  0  0  0  0  0  0  0  0
   26.6704  -19.7724  -14.3296 N   0  0  0  0  0  0  0  0  0  0  0  0
   27.1616  -18.6259  -15.0689 C   0  0  1  0  0  0  0  0  0  0  0  0
   28.1756  -19.1705  -16.0774 C   0  0  0  0  0  0  0  0  0  0  0  0
   28.7753  -17.7463  -17.0410 S   0  0  0  0  0  0  0  0  0  0  0  0
   26.0847  -17.9816  -15.8644 C   0  0  0  0  0  0  0  0  0  0  0  0
   25.2516  -18.6810  -16.4972 O   0  0  0  0  0  0  0  0  0  0  0  0
   25.9850  -16.5641  -15.9180 N   0  0  0  0  0  0  0  0  0  0  0  0
   24.9591  -15.8734  -16.6582 C   0  0  1  0  0  0  0  0  0  0  0  0
   24.1378  -14.9600  -15.7750 C   0  0  0  0  0  0  0  0  0  0  0  0
   24.4279  -13.2211  -16.1986 S   0  0  0  0  0  0  0  0  0  0  0  0
   25.4980  -15.1709  -17.8456 C   0  0  0  0  0  0  0  0  0  0  0  0
   24.7531  -14.9922  -18.9999 O   0  0  0  0  0  0  0  0  0  0  0  0
   26.6660  -14.7131  -17.8301 O   0  0  0  0  0  0  0  0  0  0  0  0
  2  1  1  6
  2  3  1  0
  4  2  1  0
  5  4  1  0
  5  6  1  1
  7  5  1  0
  7  8  2  0
  9  7  1  0
 10 13  1  0
 10  9  1  0
 10 11  1  6
 12 11  1  0
 13 15  1  0
 14 13  2  0
 15 16  1  0
 16 19  1  0
 17 18  1  0
 16 17  1  1
 19 21  2  0
 19 20  1  0
M  END
$$$$
