LCC.pdb
     RDKit          3D

 21 20  0  0  1  0  0  0  0  0999 V2000
   24.7795  -14.8220  -14.5032 C   0  0  0  0  0  0  0  0  0  0  0  0
   25.2855  -14.6043  -15.9301 C   0  0  2  0  0  0  0  0  0  0  0  0
   26.7573  -14.3436  -15.8522 C   0  0  0  0  0  0  0  0  0  0  0  0
   24.4991  -13.4620  -16.4850 C   0  0  0  0  0  0  0  0  0  0  0  0
   23.0059  -13.6809  -16.5236 C   0  0  2  0  0  0  0  0  0  0  0  0
   22.7880  -14.7450  -17.4983 N   0  0  0  0  0  0  0  0  0  0  0  0
   22.3305  -12.4420  -16.9070 C   0  0  0  0  0  0  0  0  0  0  0  0
   22.5031  -11.9161  -18.0339 O   0  0  0  0  0  0  0  0  0  0  0  0
   21.4279  -11.7316  -16.0447 N   0  0  0  0  0  0  0  0  0  0  0  0
   20.8194  -10.4783  -16.4463 C   0  0  1  0  0  0  0  0  0  0  0  0
   19.3064  -10.6972  -16.3793 C   0  0  0  0  0  0  0  0  0  0  0  0
   18.5261   -9.1437  -16.9216 S   0  0  0  0  0  0  0  0  0  0  0  0
   21.1272   -9.3853  -15.4880 C   0  0  0  0  0  0  0  0  0  0  0  0
   21.1368   -9.6052  -14.2490 O   0  0  0  0  0  0  0  0  0  0  0  0
   21.4148   -8.0765  -15.9636 N   0  0  0  0  0  0  0  0  0  0  0  0
   21.7600   -6.9799  -15.0943 C   0  0  1  0  0  0  0  0  0  0  0  0
   23.0256   -6.2794  -15.5375 C   0  0  0  0  0  0  0  0  0  0  0  0
   23.4347   -4.9154  -14.4154 S   0  0  0  0  0  0  0  0  0  0  0  0
   20.6337   -6.0370  -14.9032 C   0  0  0  0  0  0  0  0  0  0  0  0
   20.3920   -5.4103  -13.6916 O   0  0  0  0  0  0  0  0  0  0  0  0
   19.8584   -5.7810  -15.8557 O   0  0  0  0  0  0  0  0  0  0  0  0
  2  1  1  1
  2  3  1  0
  4  2  1  0
  5  4  1  0
  5  6  1  6
  7  5  1  0
  7  8  2  0
  9  7  1  0
 10 13  1  0
 10  9  1  0
 10 11  1  1
 12 11  1  0
 13 15  1  0
 14 13  2  0
 15 16  1  0
 16 19  1  0
 17 18  1  0
 16 17  1  6
 19 21  2  0
 19 20  1  0
M  END
$$$$
