LCC.pdb
     RDKit          3D

 21 20  0  0  1  0  0  0  0  0999 V2000
   20.4422  -12.3549  -20.9751 C   0  0  0  0  0  0  0  0  0  0  0  0
   19.1698  -12.7467  -20.2222 C   0  0  2  0  0  0  0  0  0  0  0  0
   18.0038  -12.3885  -21.0895 C   0  0  0  0  0  0  0  0  0  0  0  0
   19.2054  -12.0084  -18.9242 C   0  0  0  0  0  0  0  0  0  0  0  0
   20.4234  -12.2800  -18.0746 C   0  0  2  0  0  0  0  0  0  0  0  0
   20.2616  -13.6424  -17.5769 N   0  0  0  0  0  0  0  0  0  0  0  0
   20.4991  -11.3062  -16.9866 C   0  0  0  0  0  0  0  0  0  0  0  0
   19.6228  -11.2475  -16.0893 O   0  0  0  0  0  0  0  0  0  0  0  0
   21.5621  -10.3497  -16.8512 N   0  0  0  0  0  0  0  0  0  0  0  0
   21.6304   -9.4424  -15.7224 C   0  0  1  0  0  0  0  0  0  0  0  0
   23.1085   -9.3507  -15.3369 C   0  0  0  0  0  0  0  0  0  0  0  0
   23.4522  -10.7583  -14.2337 S   0  0  0  0  0  0  0  0  0  0  0  0
   21.2089   -8.0673  -16.0955 C   0  0  0  0  0  0  0  0  0  0  0  0
   21.6687   -7.5160  -17.1291 O   0  0  0  0  0  0  0  0  0  0  0  0
   20.2792   -7.3592  -15.2854 N   0  0  0  0  0  0  0  0  0  0  0  0
   19.7757   -6.0514  -15.6225 C   0  0  1  0  0  0  0  0  0  0  0  0
   18.2960   -5.9204  -15.3358 C   0  0  0  0  0  0  0  0  0  0  0  0
   17.3633   -7.2529  -16.1369 S   0  0  0  0  0  0  0  0  0  0  0  0
   20.5669   -4.9656  -14.9988 C   0  0  0  0  0  0  0  0  0  0  0  0
   21.5905   -5.2194  -14.1004 O   0  0  0  0  0  0  0  0  0  0  0  0
   20.3210   -3.7674  -15.2775 O   0  0  0  0  0  0  0  0  0  0  0  0
  2  1  1  6
  2  3  1  0
  4  2  1  0
  5  4  1  0
  5  6  1  1
  7  5  1  0
  7  8  2  0
  9  7  1  0
 10 13  1  0
 10  9  1  0
 10 11  1  6
 12 11  1  0
 13 15  1  0
 14 13  2  0
 15 16  1  0
 16 19  1  0
 17 18  1  0
 16 17  1  1
 19 21  2  0
 19 20  1  0
M  END
$$$$
