LCC.pdb
     RDKit          3D

 21 20  0  0  1  0  0  0  0  0999 V2000
   20.8167  -11.7382    5.2847 C   0  0  0  0  0  0  0  0  0  0  0  0
   20.0468  -11.4581    6.5763 C   0  0  2  0  0  0  0  0  0  0  0  0
   21.0487  -11.3341    7.6812 C   0  0  0  0  0  0  0  0  0  0  0  0
   19.0930  -12.5942    6.7516 C   0  0  0  0  0  0  0  0  0  0  0  0
   18.2023  -12.8623    5.5626 C   0  0  2  0  0  0  0  0  0  0  0  0
   17.2603  -11.7486    5.5160 N   0  0  0  0  0  0  0  0  0  0  0  0
   17.5226  -14.1462    5.7287 C   0  0  0  0  0  0  0  0  0  0  0  0
   16.5325  -14.2769    6.4897 O   0  0  0  0  0  0  0  0  0  0  0  0
   17.9202  -15.3475    5.0491 N   0  0  0  0  0  0  0  0  0  0  0  0
   17.2321  -16.6058    5.2620 C   0  0  1  0  0  0  0  0  0  0  0  0
   17.4077  -17.4122    3.9734 C   0  0  0  0  0  0  0  0  0  0  0  0
   16.2446  -16.7177    2.7562 S   0  0  0  0  0  0  0  0  0  0  0  0
   17.8653  -17.4029    6.3443 C   0  0  0  0  0  0  0  0  0  0  0  0
   18.9965  -17.0845    6.7947 O   0  0  0  0  0  0  0  0  0  0  0  0
   17.1970  -18.5365    6.8830 N   0  0  0  0  0  0  0  0  0  0  0  0
   17.5162  -19.1022    8.1697 C   0  0  1  0  0  0  0  0  0  0  0  0
   17.4535  -18.0715    9.2754 C   0  0  0  0  0  0  0  0  0  0  0  0
   18.3344  -18.6528   10.7497 S   0  0  0  0  0  0  0  0  0  0  0  0
   16.7035  -20.3025    8.4741 C   0  0  0  0  0  0  0  0  0  0  0  0
   17.1845  -21.3429    9.2521 O   0  0  0  0  0  0  0  0  0  0  0  0
   15.5370  -20.4040    8.0235 O   0  0  0  0  0  0  0  0  0  0  0  0
  2  1  1  6
  2  3  1  0
  4  2  1  0
  5  4  1  0
  5  6  1  1
  7  5  1  0
  7  8  2  0
  9  7  1  0
 10 13  1  0
 10  9  1  0
 10 11  1  6
 12 11  1  0
 13 15  1  0
 14 13  2  0
 15 16  1  0
 16 19  1  0
 17 18  1  0
 16 17  1  1
 19 21  2  0
 19 20  1  0
M  END
$$$$
