LCC.pdb
     RDKit          3D

 21 20  0  0  1  0  0  0  0  0999 V2000
   15.7498   -8.4355  -17.0671 C   0  0  0  0  0  0  0  0  0  0  0  0
   15.1719   -9.7448  -16.5275 C   0  0  2  0  0  0  0  0  0  0  0  0
   13.6830   -9.6693  -16.6595 C   0  0  0  0  0  0  0  0  0  0  0  0
   15.6471   -9.8638  -15.1164 C   0  0  0  0  0  0  0  0  0  0  0  0
   17.1465   -9.8175  -14.9473 C   0  0  2  0  0  0  0  0  0  0  0  0
   17.6156  -11.1740  -15.2114 N   0  0  0  0  0  0  0  0  0  0  0  0
   17.4819   -9.3772  -13.5939 C   0  0  0  0  0  0  0  0  0  0  0  0
   17.1286  -10.0281  -12.5800 O   0  0  0  0  0  0  0  0  0  0  0  0
   18.2305   -8.1845  -13.3110 N   0  0  0  0  0  0  0  0  0  0  0  0
   18.4921   -7.7546  -11.9512 C   0  0  1  0  0  0  0  0  0  0  0  0
   19.7988   -6.9596  -11.9984 C   0  0  0  0  0  0  0  0  0  0  0  0
   21.1550   -8.1723  -11.9179 S   0  0  0  0  0  0  0  0  0  0  0  0
   17.4491   -6.8171  -11.4604 C   0  0  0  0  0  0  0  0  0  0  0  0
   16.8949   -6.0077  -12.2486 O   0  0  0  0  0  0  0  0  0  0  0  0
   17.0662   -6.8258  -10.0909 N   0  0  0  0  0  0  0  0  0  0  0  0
   16.0545   -5.9536   -9.5496 C   0  0  1  0  0  0  0  0  0  0  0  0
   14.8249   -6.7154   -9.1060 C   0  0  0  0  0  0  0  0  0  0  0  0
   13.6297   -5.6059   -8.3136 S   0  0  0  0  0  0  0  0  0  0  0  0
   16.5835   -5.0713   -8.4839 C   0  0  0  0  0  0  0  0  0  0  0  0
   16.2313   -3.7349   -8.3883 O   0  0  0  0  0  0  0  0  0  0  0  0
   17.3789   -5.5263   -7.6270 O   0  0  0  0  0  0  0  0  0  0  0  0
  2  1  1  1
  2  3  1  0
  4  2  1  0
  5  4  1  0
  5  6  1  1
  7  5  1  0
  7  8  2  0
  9  7  1  0
 10 13  1  0
 10  9  1  0
 10 11  1  6
 12 11  1  0
 13 15  1  0
 14 13  2  0
 15 16  1  0
 16 19  1  0
 17 18  1  0
 16 17  1  1
 19 21  2  0
 19 20  1  0
M  END
$$$$
