LCC.pdb
     RDKit          3D

 21 20  0  0  1  0  0  0  0  0999 V2000
   24.2795  -14.5329  -14.6515 C   0  0  0  0  0  0  0  0  0  0  0  0
   24.7194  -14.2419  -16.0872 C   0  0  2  0  0  0  0  0  0  0  0  0
   26.2151  -14.1887  -16.0989 C   0  0  0  0  0  0  0  0  0  0  0  0
   24.0670  -12.9551  -16.4739 C   0  0  0  0  0  0  0  0  0  0  0  0
   22.5579  -12.9896  -16.4880 C   0  0  2  0  0  0  0  0  0  0  0  0
   22.1943  -13.9211  -17.5510 N   0  0  0  0  0  0  0  0  0  0  0  0
   22.0311  -11.6479  -16.7334 C   0  0  0  0  0  0  0  0  0  0  0  0
   22.1757  -11.0727  -17.8401 O   0  0  0  0  0  0  0  0  0  0  0  0
   21.3158  -10.8848  -15.7491 N   0  0  0  0  0  0  0  0  0  0  0  0
   20.8040   -9.5593  -16.0379 C   0  0  1  0  0  0  0  0  0  0  0  0
   19.3549   -9.5444  -15.5465 C   0  0  0  0  0  0  0  0  0  0  0  0
   18.4288  -10.7010  -16.6053 S   0  0  0  0  0  0  0  0  0  0  0  0
   21.5195   -8.5124  -15.2636 C   0  0  0  0  0  0  0  0  0  0  0  0
   21.9006   -8.7369  -14.0855 O   0  0  0  0  0  0  0  0  0  0  0  0
   21.7812   -7.2429  -15.8485 N   0  0  0  0  0  0  0  0  0  0  0  0
   22.4597   -6.1788  -15.1522 C   0  0  1  0  0  0  0  0  0  0  0  0
   23.2433   -5.2916  -16.0944 C   0  0  0  0  0  0  0  0  0  0  0  0
   24.0420   -3.9377  -15.1909 S   0  0  0  0  0  0  0  0  0  0  0  0
   21.5462   -5.4043  -14.2807 C   0  0  0  0  0  0  0  0  0  0  0  0
   21.9205   -4.9675  -13.0204 O   0  0  0  0  0  0  0  0  0  0  0  0
   20.3891   -5.1216  -14.6746 O   0  0  0  0  0  0  0  0  0  0  0  0
  2  1  1  1
  2  3  1  0
  4  2  1  0
  5  4  1  0
  5  6  1  6
  7  5  1  0
  7  8  2  0
  9  7  1  0
 10 13  1  0
 10  9  1  0
 10 11  1  1
 12 11  1  0
 13 15  1  0
 14 13  2  0
 15 16  1  0
 16 19  1  0
 17 18  1  0
 16 17  1  6
 19 21  2  0
 19 20  1  0
M  END
$$$$
