FIH.pdb
     RDKit          3D

 30 31  0  0  1  0  0  0  0  0999 V2000
   16.3931  -10.0249  -13.5373 N   0  0  0  0  0  0  0  0  0  0  0  0
   17.1665   -9.5373  -14.6336 C   0  0  1  0  0  0  0  0  0  0  0  0
   16.3924   -8.6042  -15.5496 C   0  0  0  0  0  0  0  0  0  0  0  0
   15.2238   -9.2807  -16.1553 C   0  0  0  0  0  0  0  0  0  0  0  0
   13.9457   -9.0501  -15.7059 C   0  0  0  0  0  0  0  0  0  0  0  0
   12.8989   -9.7106  -16.3107 C   0  0  0  0  0  0  0  0  0  0  0  0
   13.0664  -10.6016  -17.3555 C   0  0  0  0  0  0  0  0  0  0  0  0
   14.3699  -10.8079  -17.7807 C   0  0  0  0  0  0  0  0  0  0  0  0
   15.4308  -10.1596  -17.1919 C   0  0  0  0  0  0  0  0  0  0  0  0
   18.4084   -8.8411  -14.2068 C   0  0  0  0  0  0  0  0  0  0  0  0
   18.4074   -8.3015  -13.0591 O   0  0  0  0  0  0  0  0  0  0  0  0
   23.0589  -11.1949  -14.3125 C   0  0  0  0  0  0  0  0  0  0  0  0
   21.8501  -10.2957  -14.0425 C   0  0  0  0  0  0  0  0  0  0  0  0
   21.9984   -8.9801  -14.7704 C   0  0  2  0  0  0  0  0  0  0  0  0
   23.3232   -8.3400  -14.4628 C   0  0  0  0  0  0  0  0  0  0  0  0
   20.8099   -8.1047  -14.5806 C   0  0  2  0  0  0  0  0  0  0  0  0
   19.5748   -8.7495  -15.0008 N   0  0  0  0  0  0  0  0  0  0  0  0
   20.9540   -6.8177  -15.3297 C   0  0  0  0  0  0  0  0  0  0  0  0
   21.0110   -6.7573  -16.5837 O   0  0  0  0  0  0  0  0  0  0  0  0
   21.0352   -5.5758  -14.6507 N   0  0  0  0  0  0  0  0  0  0  0  0
   21.0946   -4.3221  -15.4089 C   0  0  1  0  0  0  0  0  0  0  0  0
   20.4492   -3.1973  -14.6820 C   0  0  0  0  0  0  0  0  0  0  0  0
   18.9902   -3.2933  -14.7810 C   0  0  0  0  0  0  0  0  0  0  0  0
   18.2014   -4.2551  -15.3504 C   0  0  0  0  0  0  0  0  0  0  0  0
   16.8950   -3.9255  -15.1254 N   0  0  0  0  0  0  0  0  0  0  0  0
   16.8651   -2.7893  -14.4333 C   0  0  0  0  0  0  0  0  0  0  0  0
   18.1248   -2.4045  -14.2231 N   0  0  0  0  0  0  0  0  0  0  0  0
   22.5865   -4.0151  -15.3768 C   0  0  0  0  0  0  0  0  0  0  0  0
   23.3250   -4.4758  -14.4365 O   0  0  0  0  0  0  0  0  0  0  0  0
   23.2453   -3.2545  -16.3009 O   0  0  0  0  0  0  0  0  0  0  0  0
  2  1  1  1
  2 10  1  0
  3  2  1  0
  3  4  1  0
  4  9  1  0
  4  5  2  0
  5  6  1  0
  6  7  2  0
  8  7  1  0
  9  8  2  0
 10 11  2  0
 13 12  1  0
 14 13  1  0
 14 15  1  1
 16 14  1  0
 17 10  1  0
 16 17  1  6
 18 16  1  0
 18 19  2  0
 20 18  1  0
 21 20  1  0
 21 22  1  1
 23 24  2  0
 23 22  1  0
 25 24  1  0
 26 27  2  0
 26 25  1  0
 27 23  1  0
 28 30  1  0
 28 21  1  0
 29 28  2  0
M  END
$$$$
