FIH.pdb
     RDKit          3D

 30 31  0  0  1  0  0  0  0  0999 V2000
   28.4790  -19.3576  -16.3194 N   0  0  0  0  0  0  0  0  0  0  0  0
   27.4910  -18.8519  -15.4216 C   0  0  1  0  0  0  0  0  0  0  0  0
   26.5751  -17.8174  -16.0538 C   0  0  0  0  0  0  0  0  0  0  0  0
   27.3068  -16.5769  -16.3940 C   0  0  0  0  0  0  0  0  0  0  0  0
   27.5670  -15.6126  -15.4500 C   0  0  0  0  0  0  0  0  0  0  0  0
   28.2528  -14.4794  -15.8285 C   0  0  0  0  0  0  0  0  0  0  0  0
   28.6977  -14.2577  -17.1195 C   0  0  0  0  0  0  0  0  0  0  0  0
   28.4163  -15.2528  -18.0430 C   0  0  0  0  0  0  0  0  0  0  0  0
   27.7330  -16.3928  -17.6880 C   0  0  0  0  0  0  0  0  0  0  0  0
   26.6434  -19.9183  -14.8269 C   0  0  0  0  0  0  0  0  0  0  0  0
   26.3769  -20.9225  -15.5542 O   0  0  0  0  0  0  0  0  0  0  0  0
   25.4168  -20.1654   -9.1805 C   0  0  0  0  0  0  0  0  0  0  0  0
   25.1675  -19.8844  -10.6643 C   0  0  0  0  0  0  0  0  0  0  0  0
   25.4959  -21.1035  -11.4942 C   0  0  2  0  0  0  0  0  0  0  0  0
   26.8646  -21.6289  -11.1626 C   0  0  0  0  0  0  0  0  0  0  0  0
   25.2362  -20.8747  -12.9417 C   0  0  2  0  0  0  0  0  0  0  0  0
   26.1254  -19.8737  -13.5121 N   0  0  0  0  0  0  0  0  0  0  0  0
   23.8224  -20.4484  -13.1824 C   0  0  0  0  0  0  0  0  0  0  0  0
   23.4034  -19.2907  -12.9305 O   0  0  0  0  0  0  0  0  0  0  0  0
   22.8640  -21.3456  -13.7174 N   0  0  0  0  0  0  0  0  0  0  0  0
   21.5193  -20.8717  -14.0601 C   0  0  1  0  0  0  0  0  0  0  0  0
   21.0247  -21.4624  -15.3314 C   0  0  0  0  0  0  0  0  0  0  0  0
   19.6676  -20.9913  -15.6215 C   0  0  0  0  0  0  0  0  0  0  0  0
   18.9464  -19.9692  -15.0675 C   0  0  0  0  0  0  0  0  0  0  0  0
   17.7516  -19.8838  -15.7239 N   0  0  0  0  0  0  0  0  0  0  0  0
   17.7243  -20.8252  -16.6642 C   0  0  0  0  0  0  0  0  0  0  0  0
   18.8764  -21.4949  -16.6066 N   0  0  0  0  0  0  0  0  0  0  0  0
   20.6788  -21.5174  -12.9657 C   0  0  0  0  0  0  0  0  0  0  0  0
   21.0467  -22.6215  -12.4295 O   0  0  0  0  0  0  0  0  0  0  0  0
   19.5092  -21.0067  -12.4781 O   0  0  0  0  0  0  0  0  0  0  0  0
  2  1  1  6
  2 10  1  0
  3  2  1  0
  3  4  1  0
  4  9  1  0
  4  5  2  0
  5  6  1  0
  6  7  2  0
  8  7  1  0
  9  8  2  0
 10 11  2  0
 13 12  1  0
 14 13  1  0
 14 15  1  6
 16 14  1  0
 17 10  1  0
 16 17  1  1
 18 16  1  0
 18 19  2  0
 20 18  1  0
 21 20  1  0
 21 22  1  6
 23 24  2  0
 23 22  1  0
 25 24  1  0
 26 27  2  0
 26 25  1  0
 27 23  1  0
 28 30  1  0
 28 21  1  0
 29 28  2  0
M  END
$$$$
