FIH.pdb
     RDKit          3D

 30 31  0  0  1  0  0  0  0  0999 V2000
   16.8953  -17.5153    2.9255 N   0  0  0  0  0  0  0  0  0  0  0  0
   18.0860  -18.1008    3.4520 C   0  0  1  0  0  0  0  0  0  0  0  0
   19.1180  -17.0761    3.8920 C   0  0  0  0  0  0  0  0  0  0  0  0
   19.6418  -16.3027    2.7442 C   0  0  0  0  0  0  0  0  0  0  0  0
   19.1304  -15.0709    2.4126 C   0  0  0  0  0  0  0  0  0  0  0  0
   19.6603  -14.3997    1.3326 C   0  0  0  0  0  0  0  0  0  0  0  0
   20.6889  -14.9034    0.5567 C   0  0  0  0  0  0  0  0  0  0  0  0
   21.1782  -16.1481    0.9223 C   0  0  0  0  0  0  0  0  0  0  0  0
   20.6647  -16.8367    1.9969 C   0  0  0  0  0  0  0  0  0  0  0  0
   17.8292  -19.0180    4.5931 C   0  0  0  0  0  0  0  0  0  0  0  0
   16.7689  -18.8298    5.2631 O   0  0  0  0  0  0  0  0  0  0  0  0
   19.3863  -23.9357    4.1788 C   0  0  0  0  0  0  0  0  0  0  0  0
   18.4078  -22.9449    4.8140 C   0  0  0  0  0  0  0  0  0  0  0  0
   19.0453  -22.2617    6.0012 C   0  0  2  0  0  0  0  0  0  0  0  0
   18.9712  -23.1292    7.2265 C   0  0  0  0  0  0  0  0  0  0  0  0
   18.5441  -20.8712    6.1754 C   0  0  2  0  0  0  0  0  0  0  0  0
   18.6917  -20.0743    4.9666 N   0  0  0  0  0  0  0  0  0  0  0  0
   19.2486  -20.1727    7.2952 C   0  0  0  0  0  0  0  0  0  0  0  0
   20.3860  -19.6527    7.1710 O   0  0  0  0  0  0  0  0  0  0  0  0
   18.6583  -20.0591    8.5792 N   0  0  0  0  0  0  0  0  0  0  0  0
   19.3046  -19.2539    9.6204 C   0  0  1  0  0  0  0  0  0  0  0  0
   18.3209  -18.4707   10.4135 C   0  0  0  0  0  0  0  0  0  0  0  0
   17.9949  -17.2158    9.7304 C   0  0  0  0  0  0  0  0  0  0  0  0
   18.3984  -16.7376    8.5138 C   0  0  0  0  0  0  0  0  0  0  0  0
   17.7677  -15.5467    8.2915 N   0  0  0  0  0  0  0  0  0  0  0  0
   16.9893  -15.2854    9.3388 C   0  0  0  0  0  0  0  0  0  0  0  0
   17.1225  -16.2881   10.2083 N   0  0  0  0  0  0  0  0  0  0  0  0
   19.8149  -20.3317   10.5685 C   0  0  0  0  0  0  0  0  0  0  0  0
   19.1927  -21.4462   10.6811 O   0  0  0  0  0  0  0  0  0  0  0  0
   20.9282  -20.2166   11.3520 O   0  0  0  0  0  0  0  0  0  0  0  0
  2  1  1  1
  2 10  1  0
  3  2  1  0
  3  4  1  0
  4  9  1  0
  4  5  2  0
  5  6  1  0
  6  7  2  0
  8  7  1  0
  9  8  2  0
 10 11  2  0
 13 12  1  0
 14 13  1  0
 14 15  1  1
 16 14  1  0
 17 10  1  0
 16 17  1  6
 18 16  1  0
 18 19  2  0
 20 18  1  0
 21 20  1  0
 21 22  1  1
 23 24  2  0
 23 22  1  0
 25 24  1  0
 26 27  2  0
 26 25  1  0
 27 23  1  0
 28 30  1  0
 28 21  1  0
 29 28  2  0
M  END
$$$$
