FIH.pdb
     RDKit          3D

 30 31  0  0  1  0  0  0  0  0999 V2000
   28.0816  -21.3474   -9.4439 N   0  0  0  0  0  0  0  0  0  0  0  0
   26.8433  -20.6530   -9.2946 C   0  0  1  0  0  0  0  0  0  0  0  0
   26.9325  -19.4548   -8.3644 C   0  0  0  0  0  0  0  0  0  0  0  0
   27.5606  -19.8127   -7.0732 C   0  0  0  0  0  0  0  0  0  0  0  0
   26.9196  -20.6130   -6.1581 C   0  0  0  0  0  0  0  0  0  0  0  0
   27.5567  -20.9107   -4.9736 C   0  0  0  0  0  0  0  0  0  0  0  0
   28.8185  -20.4433   -4.6525 C   0  0  0  0  0  0  0  0  0  0  0  0
   29.4327  -19.6393   -5.6005 C   0  0  0  0  0  0  0  0  0  0  0  0
   28.8158  -19.3287   -6.7903 C   0  0  0  0  0  0  0  0  0  0  0  0
   26.2732  -20.1932  -10.5879 C   0  0  0  0  0  0  0  0  0  0  0  0
   26.9143  -19.3009  -11.2214 O   0  0  0  0  0  0  0  0  0  0  0  0
   27.2518  -22.7904  -14.3465 C   0  0  0  0  0  0  0  0  0  0  0  0
   26.7312  -21.5980  -13.5405 C   0  0  0  0  0  0  0  0  0  0  0  0
   25.2333  -21.6923  -13.3669 C   0  0  2  0  0  0  0  0  0  0  0  0
   24.5494  -21.9007  -14.6891 C   0  0  0  0  0  0  0  0  0  0  0  0
   24.6992  -20.5730  -12.5442 C   0  0  2  0  0  0  0  0  0  0  0  0
   25.0712  -20.6903  -11.1421 N   0  0  0  0  0  0  0  0  0  0  0  0
   23.2082  -20.4905  -12.6360 C   0  0  0  0  0  0  0  0  0  0  0  0
   22.5958  -20.3386  -13.7228 O   0  0  0  0  0  0  0  0  0  0  0  0
   22.3933  -20.5813  -11.4794 N   0  0  0  0  0  0  0  0  0  0  0  0
   20.9322  -20.5711  -11.6028 C   0  0  1  0  0  0  0  0  0  0  0  0
   20.4869  -20.1088  -12.9437 C   0  0  0  0  0  0  0  0  0  0  0  0
   20.3724  -18.6480  -12.9700 C   0  0  0  0  0  0  0  0  0  0  0  0
   20.5779  -17.7244  -11.9819 C   0  0  0  0  0  0  0  0  0  0  0  0
   20.4087  -16.4795  -12.5179 N   0  0  0  0  0  0  0  0  0  0  0  0
   20.1067  -16.6180  -13.8065 C   0  0  0  0  0  0  0  0  0  0  0  0
   20.0838  -17.9225  -14.0838 N   0  0  0  0  0  0  0  0  0  0  0  0
   20.6114  -22.0600  -11.5665 C   0  0  0  0  0  0  0  0  0  0  0  0
   21.1412  -22.8601  -12.4155 O   0  0  0  0  0  0  0  0  0  0  0  0
   19.7677  -22.6534  -10.6707 O   0  0  0  0  0  0  0  0  0  0  0  0
  2  1  1  6
  2 10  1  0
  3  2  1  0
  3  4  1  0
  4  9  1  0
  4  5  2  0
  5  6  1  0
  6  7  2  0
  8  7  1  0
  9  8  2  0
 10 11  2  0
 13 12  1  0
 14 13  1  0
 14 15  1  6
 16 14  1  0
 17 10  1  0
 16 17  1  1
 18 16  1  0
 18 19  2  0
 20 18  1  0
 21 20  1  0
 21 22  1  6
 23 24  2  0
 23 22  1  0
 25 24  1  0
 26 27  2  0
 26 25  1  0
 27 23  1  0
 28 30  1  0
 28 21  1  0
 29 28  2  0
M  END
$$$$
