FIH.pdb
     RDKit          3D

 30 31  0  0  1  0  0  0  0  0999 V2000
   20.8538  -27.4050  -13.3401 N   0  0  0  0  0  0  0  0  0  0  0  0
   20.4695  -27.7242  -12.0029 C   0  0  1  0  0  0  0  0  0  0  0  0
   19.0601  -27.2738  -11.6570 C   0  0  0  0  0  0  0  0  0  0  0  0
   18.8785  -25.8238  -11.8907 C   0  0  0  0  0  0  0  0  0  0  0  0
   18.2196  -25.3503  -12.9999 C   0  0  0  0  0  0  0  0  0  0  0  0
   18.0828  -23.9891  -13.1614 C   0  0  0  0  0  0  0  0  0  0  0  0
   18.5775  -23.0646  -12.2591 C   0  0  0  0  0  0  0  0  0  0  0  0
   19.2358  -23.5806  -11.1533 C   0  0  0  0  0  0  0  0  0  0  0  0
   19.3844  -24.9360  -10.9710 C   0  0  0  0  0  0  0  0  0  0  0  0
   20.5804  -29.1740  -11.6948 C   0  0  0  0  0  0  0  0  0  0  0  0
   20.4448  -29.9855  -12.6599 O   0  0  0  0  0  0  0  0  0  0  0  0
   24.4566  -30.9356   -8.3582 C   0  0  0  0  0  0  0  0  0  0  0  0
   23.0078  -30.5555   -8.6734 C   0  0  0  0  0  0  0  0  0  0  0  0
   22.4790  -31.3932   -9.8141 C   0  0  2  0  0  0  0  0  0  0  0  0
   23.4003  -31.3320  -11.0002 C   0  0  0  0  0  0  0  0  0  0  0  0
   21.0496  -31.0965  -10.1033 C   0  0  2  0  0  0  0  0  0  0  0  0
   20.8256  -29.6897  -10.4013 N   0  0  0  0  0  0  0  0  0  0  0  0
   20.1683  -31.4870   -8.9592 C   0  0  0  0  0  0  0  0  0  0  0  0
   19.6898  -30.6553   -8.1476 O   0  0  0  0  0  0  0  0  0  0  0  0
   19.8206  -32.8417   -8.7269 N   0  0  0  0  0  0  0  0  0  0  0  0
   18.9957  -33.2045   -7.5701 C   0  0  1  0  0  0  0  0  0  0  0  0
   18.2842  -34.4940   -7.7723 C   0  0  0  0  0  0  0  0  0  0  0  0
   17.5232  -34.8529   -6.5723 C   0  0  0  0  0  0  0  0  0  0  0  0
   16.8159  -34.0682   -5.7031 C   0  0  0  0  0  0  0  0  0  0  0  0
   16.2257  -34.8802   -4.7768 N   0  0  0  0  0  0  0  0  0  0  0  0
   16.5526  -36.1393   -5.0577 C   0  0  0  0  0  0  0  0  0  0  0  0
   17.3339  -36.1281   -6.1386 N   0  0  0  0  0  0  0  0  0  0  0  0
   20.0568  -33.4945   -6.5160 C   0  0  0  0  0  0  0  0  0  0  0  0
   21.1522  -34.0755   -6.8390 O   0  0  0  0  0  0  0  0  0  0  0  0
   19.9452  -33.1801   -5.1912 O   0  0  0  0  0  0  0  0  0  0  0  0
  2  1  1  6
  2 10  1  0
  3  2  1  0
  3  4  1  0
  4  9  1  0
  4  5  2  0
  5  6  1  0
  6  7  2  0
  8  7  1  0
  9  8  2  0
 10 11  2  0
 13 12  1  0
 14 13  1  0
 14 15  1  6
 16 14  1  0
 17 10  1  0
 16 17  1  1
 18 16  1  0
 18 19  2  0
 20 18  1  0
 21 20  1  0
 21 22  1  6
 23 24  2  0
 23 22  1  0
 25 24  1  0
 26 27  2  0
 26 25  1  0
 27 23  1  0
 28 30  1  0
 28 21  1  0
 29 28  2  0
M  END
$$$$
