FIH.pdb
     RDKit          3D

 30 31  0  0  1  0  0  0  0  0999 V2000
   39.9184  -27.6410    1.9417 N   0  0  0  0  0  0  0  0  0  0  0  0
   38.6994  -27.8364    2.6583 C   0  0  1  0  0  0  0  0  0  0  0  0
   38.4108  -29.2953    2.9703 C   0  0  0  0  0  0  0  0  0  0  0  0
   38.1417  -30.0727    1.7402 C   0  0  0  0  0  0  0  0  0  0  0  0
   39.1607  -30.6107    0.9912 C   0  0  0  0  0  0  0  0  0  0  0  0
   38.8462  -31.3245   -0.1442 C   0  0  0  0  0  0  0  0  0  0  0  0
   37.5479  -31.5310   -0.5751 C   0  0  0  0  0  0  0  0  0  0  0  0
   36.5478  -30.9731    0.2065 C   0  0  0  0  0  0  0  0  0  0  0  0
   36.8381  -30.2564    1.3443 C   0  0  0  0  0  0  0  0  0  0  0  0
   38.6425  -27.0713    3.9314 C   0  0  0  0  0  0  0  0  0  0  0  0
   39.7253  -26.9367    4.5777 O   0  0  0  0  0  0  0  0  0  0  0  0
   35.2368  -23.0297    4.1555 C   0  0  0  0  0  0  0  0  0  0  0  0
   36.5597  -23.6654    4.5896 C   0  0  0  0  0  0  0  0  0  0  0  0
   36.3198  -24.7014    5.6629 C   0  0  2  0  0  0  0  0  0  0  0  0
   36.0206  -24.0498    6.9840 C   0  0  0  0  0  0  0  0  0  0  0  0
   37.3950  -25.7301    5.6903 C   0  0  2  0  0  0  0  0  0  0  0  0
   37.4622  -26.4934    4.4531 N   0  0  0  0  0  0  0  0  0  0  0  0
   37.2102  -26.6833    6.8285 C   0  0  0  0  0  0  0  0  0  0  0  0
   36.2114  -27.4385    6.9348 O   0  0  0  0  0  0  0  0  0  0  0  0
   38.1708  -26.7858    7.8662 N   0  0  0  0  0  0  0  0  0  0  0  0
   37.9788  -27.7455    8.9581 C   0  0  1  0  0  0  0  0  0  0  0  0
   39.2118  -27.9249    9.7689 C   0  0  0  0  0  0  0  0  0  0  0  0
   38.9553  -28.8206   10.9002 C   0  0  0  0  0  0  0  0  0  0  0  0
   38.5479  -30.1264   10.9227 C   0  0  0  0  0  0  0  0  0  0  0  0
   38.5158  -30.5422   12.2234 N   0  0  0  0  0  0  0  0  0  0  0  0
   38.8936  -29.5261   12.9953 C   0  0  0  0  0  0  0  0  0  0  0  0
   39.1597  -28.4867   12.2028 N   0  0  0  0  0  0  0  0  0  0  0  0
   37.0121  -26.9912    9.8623 C   0  0  0  0  0  0  0  0  0  0  0  0
   37.1564  -25.7340   10.0633 O   0  0  0  0  0  0  0  0  0  0  0  0
   35.9532  -27.5567   10.5146 O   0  0  0  0  0  0  0  0  0  0  0  0
  2  1  1  1
  2 10  1  0
  3  2  1  0
  3  4  1  0
  4  9  1  0
  4  5  2  0
  5  6  1  0
  6  7  2  0
  8  7  1  0
  9  8  2  0
 10 11  2  0
 13 12  1  0
 14 13  1  0
 14 15  1  1
 16 14  1  0
 17 10  1  0
 16 17  1  6
 18 16  1  0
 18 19  2  0
 20 18  1  0
 21 20  1  0
 21 22  1  1
 23 24  2  0
 23 22  1  0
 25 24  1  0
 26 27  2  0
 26 25  1  0
 27 23  1  0
 28 30  1  0
 28 21  1  0
 29 28  2  0
M  END
$$$$
