FIH.pdb
     RDKit          3D

 30 31  0  0  1  0  0  0  0  0999 V2000
   16.5824  -11.4366  -15.5845 N   0  0  0  0  0  0  0  0  0  0  0  0
   17.6170  -10.7560  -16.2947 C   0  0  1  0  0  0  0  0  0  0  0  0
   17.0928   -9.7797  -17.3345 C   0  0  0  0  0  0  0  0  0  0  0  0
   16.2780  -10.4642  -18.3629 C   0  0  0  0  0  0  0  0  0  0  0  0
   16.8365  -11.3535  -19.2495 C   0  0  0  0  0  0  0  0  0  0  0  0
   16.0255  -11.9588  -20.1841 C   0  0  0  0  0  0  0  0  0  0  0  0
   14.6666  -11.7175  -20.2792 C   0  0  0  0  0  0  0  0  0  0  0  0
   14.1402  -10.8148  -19.3680 C   0  0  0  0  0  0  0  0  0  0  0  0
   14.9307  -10.1983  -18.4259 C   0  0  0  0  0  0  0  0  0  0  0  0
   18.5519  -10.0227  -15.4017 C   0  0  0  0  0  0  0  0  0  0  0  0
   18.1116   -9.6633  -14.2681 O   0  0  0  0  0  0  0  0  0  0  0  0
   23.2722  -11.8915  -14.2488 C   0  0  0  0  0  0  0  0  0  0  0  0
   21.9270  -11.1627  -14.2963 C   0  0  0  0  0  0  0  0  0  0  0  0
   22.1180   -9.7317  -14.7416 C   0  0  2  0  0  0  0  0  0  0  0  0
   23.1549   -9.0395  -13.9018 C   0  0  0  0  0  0  0  0  0  0  0  0
   20.8208   -9.0135  -14.8700 C   0  0  2  0  0  0  0  0  0  0  0  0
   19.8875   -9.7088  -15.7438 N   0  0  0  0  0  0  0  0  0  0  0  0
   21.0147   -7.6240  -15.3897 C   0  0  0  0  0  0  0  0  0  0  0  0
   21.4170   -7.3778  -16.5545 O   0  0  0  0  0  0  0  0  0  0  0  0
   20.7495   -6.4914  -14.5792 N   0  0  0  0  0  0  0  0  0  0  0  0
   20.9593   -5.1397  -15.1077 C   0  0  1  0  0  0  0  0  0  0  0  0
   19.9849   -4.1640  -14.5523 C   0  0  0  0  0  0  0  0  0  0  0  0
   18.6900   -4.2931  -15.2263 C   0  0  0  0  0  0  0  0  0  0  0  0
   18.2851   -5.1502  -16.2127 C   0  0  0  0  0  0  0  0  0  0  0  0
   16.9616   -4.9218  -16.4614 N   0  0  0  0  0  0  0  0  0  0  0  0
   16.5473   -3.9494  -15.6529 C   0  0  0  0  0  0  0  0  0  0  0  0
   17.5848   -3.5675  -14.9066 N   0  0  0  0  0  0  0  0  0  0  0  0
   22.2973   -4.7697  -14.4800 C   0  0  0  0  0  0  0  0  0  0  0  0
   22.6866   -5.3354  -13.3983 O   0  0  0  0  0  0  0  0  0  0  0  0
   23.1651   -3.8432  -14.9851 O   0  0  0  0  0  0  0  0  0  0  0  0
  2  1  1  1
  2 10  1  0
  3  2  1  0
  3  4  1  0
  4  9  1  0
  4  5  2  0
  5  6  1  0
  6  7  2  0
  8  7  1  0
  9  8  2  0
 10 11  2  0
 13 12  1  0
 14 13  1  0
 14 15  1  1
 16 14  1  0
 17 10  1  0
 16 17  1  6
 18 16  1  0
 18 19  2  0
 20 18  1  0
 21 20  1  0
 21 22  1  1
 23 24  2  0
 23 22  1  0
 25 24  1  0
 26 27  2  0
 26 25  1  0
 27 23  1  0
 28 30  1  0
 28 21  1  0
 29 28  2  0
M  END
$$$$
