FIH.pdb
     RDKit          3D

 30 31  0  0  1  0  0  0  0  0999 V2000
   28.2765  -21.1874   -8.3705 N   0  0  0  0  0  0  0  0  0  0  0  0
   26.8917  -20.8537   -8.2769 C   0  0  1  0  0  0  0  0  0  0  0  0
   26.5918  -19.8200   -7.2043 C   0  0  0  0  0  0  0  0  0  0  0  0
   27.5968  -19.8539   -6.1186 C   0  0  0  0  0  0  0  0  0  0  0  0
   28.7268  -19.0727   -6.1589 C   0  0  0  0  0  0  0  0  0  0  0  0
   29.6254  -19.1490   -5.1175 C   0  0  0  0  0  0  0  0  0  0  0  0
   29.4500  -19.9772   -4.0233 C   0  0  0  0  0  0  0  0  0  0  0  0
   28.2985  -20.7494   -4.0188 C   0  0  0  0  0  0  0  0  0  0  0  0
   27.3872  -20.6899   -5.0476 C   0  0  0  0  0  0  0  0  0  0  0  0
   26.3213  -20.3673   -9.5604 C   0  0  0  0  0  0  0  0  0  0  0  0
   26.1451  -19.1173   -9.6816 O   0  0  0  0  0  0  0  0  0  0  0  0
   28.9463  -21.1054  -13.7145 C   0  0  0  0  0  0  0  0  0  0  0  0
   27.9480  -20.6589  -12.6435 C   0  0  0  0  0  0  0  0  0  0  0  0
   26.5493  -21.0961  -13.0112 C   0  0  2  0  0  0  0  0  0  0  0  0
   26.1915  -20.6465  -14.4002 C   0  0  0  0  0  0  0  0  0  0  0  0
   25.5626  -20.7429  -11.9546 C   0  0  2  0  0  0  0  0  0  0  0  0
   25.9695  -21.2119  -10.6384 N   0  0  0  0  0  0  0  0  0  0  0  0
   24.2093  -21.3019  -12.2619 C   0  0  0  0  0  0  0  0  0  0  0  0
   23.8745  -22.4801  -11.9808 O   0  0  0  0  0  0  0  0  0  0  0  0
   23.2156  -20.5162  -12.8985 N   0  0  0  0  0  0  0  0  0  0  0  0
   21.8133  -20.9448  -12.8832 C   0  0  1  0  0  0  0  0  0  0  0  0
   20.9871  -20.1239  -11.9594 C   0  0  0  0  0  0  0  0  0  0  0  0
   19.5978  -20.5902  -11.9632 C   0  0  0  0  0  0  0  0  0  0  0  0
   19.0376  -21.7038  -12.5268 C   0  0  0  0  0  0  0  0  0  0  0  0
   17.7127  -21.7305  -12.1960 N   0  0  0  0  0  0  0  0  0  0  0  0
   17.4491  -20.6641  -11.4448 C   0  0  0  0  0  0  0  0  0  0  0  0
   18.5816  -19.9741  -11.3015 N   0  0  0  0  0  0  0  0  0  0  0  0
   21.3577  -20.5521  -14.2829 C   0  0  0  0  0  0  0  0  0  0  0  0
   21.8443  -19.5157  -14.8581 O   0  0  0  0  0  0  0  0  0  0  0  0
   20.4307  -21.2329  -15.0201 O   0  0  0  0  0  0  0  0  0  0  0  0
  2  1  1  6
  2 10  1  0
  3  2  1  0
  3  4  1  0
  4  9  1  0
  4  5  2  0
  5  6  1  0
  6  7  2  0
  8  7  1  0
  9  8  2  0
 10 11  2  0
 13 12  1  0
 14 13  1  0
 14 15  1  6
 16 14  1  0
 17 10  1  0
 16 17  1  1
 18 16  1  0
 18 19  2  0
 20 18  1  0
 21 20  1  0
 21 22  1  1
 23 24  2  0
 23 22  1  0
 25 24  1  0
 26 27  2  0
 26 25  1  0
 27 23  1  0
 28 30  1  0
 28 21  1  0
 29 28  2  0
M  END
$$$$
