FIH.pdb
     RDKit          3D

 30 31  0  0  1  0  0  0  0  0999 V2000
   25.5244  -20.7939   -8.5254 N   0  0  0  0  0  0  0  0  0  0  0  0
   24.8732  -20.8821   -9.7926 C   0  0  1  0  0  0  0  0  0  0  0  0
   23.4055  -20.4915   -9.7446 C   0  0  0  0  0  0  0  0  0  0  0  0
   22.6538  -21.3156   -8.7720 C   0  0  0  0  0  0  0  0  0  0  0  0
   22.9187  -21.2598   -7.4246 C   0  0  0  0  0  0  0  0  0  0  0  0
   22.1845  -22.0516   -6.5692 C   0  0  0  0  0  0  0  0  0  0  0  0
   21.1858  -22.9078   -6.9973 C   0  0  0  0  0  0  0  0  0  0  0  0
   20.9480  -22.9362   -8.3630 C   0  0  0  0  0  0  0  0  0  0  0  0
   21.6685  -22.1545   -9.2361 C   0  0  0  0  0  0  0  0  0  0  0  0
   25.5342  -20.0677  -10.8456 C   0  0  0  0  0  0  0  0  0  0  0  0
   26.0077  -18.9432  -10.4994 O   0  0  0  0  0  0  0  0  0  0  0  0
   29.0352  -19.4161  -15.6493 C   0  0  0  0  0  0  0  0  0  0  0  0
   27.7070  -18.9948  -15.0158 C   0  0  0  0  0  0  0  0  0  0  0  0
   27.3277  -19.9455  -13.9045 C   0  0  2  0  0  0  0  0  0  0  0  0
   27.4587  -21.3751  -14.3498 C   0  0  0  0  0  0  0  0  0  0  0  0
   26.0194  -19.5877  -13.2917 C   0  0  2  0  0  0  0  0  0  0  0  0
   25.6618  -20.4737  -12.1940 N   0  0  0  0  0  0  0  0  0  0  0  0
   24.9172  -19.6134  -14.3029 C   0  0  0  0  0  0  0  0  0  0  0  0
   24.2218  -20.6346  -14.5330 O   0  0  0  0  0  0  0  0  0  0  0  0
   24.5939  -18.4650  -15.0688 N   0  0  0  0  0  0  0  0  0  0  0  0
   23.4223  -18.4711  -15.9505 C   0  0  1  0  0  0  0  0  0  0  0  0
   22.6599  -17.1970  -15.8773 C   0  0  0  0  0  0  0  0  0  0  0  0
   21.5384  -17.2160  -16.8206 C   0  0  0  0  0  0  0  0  0  0  0  0
   21.0209  -18.2424  -17.5623 C   0  0  0  0  0  0  0  0  0  0  0  0
   19.9320  -17.7735  -18.2407 N   0  0  0  0  0  0  0  0  0  0  0  0
   19.7703  -16.4891  -17.9323 C   0  0  0  0  0  0  0  0  0  0  0  0
   20.7354  -16.1486  -17.0769 N   0  0  0  0  0  0  0  0  0  0  0  0
   24.0749  -18.4677  -17.3271 C   0  0  0  0  0  0  0  0  0  0  0  0
   25.2115  -17.9041  -17.5064 O   0  0  0  0  0  0  0  0  0  0  0  0
   23.5352  -19.0354  -18.4465 O   0  0  0  0  0  0  0  0  0  0  0  0
  2  1  1  1
  2 10  1  0
  3  2  1  0
  3  4  1  0
  4  9  1  0
  4  5  2  0
  5  6  1  0
  6  7  2  0
  8  7  1  0
  9  8  2  0
 10 11  2  0
 13 12  1  0
 14 13  1  0
 14 15  1  6
 16 14  1  0
 17 10  1  0
 16 17  1  1
 18 16  1  0
 18 19  2  0
 20 18  1  0
 21 20  1  0
 21 22  1  6
 23 24  2  0
 23 22  1  0
 25 24  1  0
 26 27  2  0
 26 25  1  0
 27 23  1  0
 28 30  1  0
 28 21  1  0
 29 28  2  0
M  END
$$$$
