FIH.pdb
     RDKit          3D

 30 31  0  0  1  0  0  0  0  0999 V2000
   21.3576  -31.4600  -12.7388 N   0  0  0  0  0  0  0  0  0  0  0  0
   21.7345  -31.1285  -11.4024 C   0  0  1  0  0  0  0  0  0  0  0  0
   20.6324  -30.4342  -10.6199 C   0  0  0  0  0  0  0  0  0  0  0  0
   20.2551  -29.1437  -11.2382 C   0  0  0  0  0  0  0  0  0  0  0  0
   19.1782  -29.0390  -12.0856 C   0  0  0  0  0  0  0  0  0  0  0  0
   18.8774  -27.8098  -12.6299 C   0  0  0  0  0  0  0  0  0  0  0  0
   19.6075  -26.6646  -12.3671 C   0  0  0  0  0  0  0  0  0  0  0  0
   20.6860  -26.8103  -11.5080 C   0  0  0  0  0  0  0  0  0  0  0  0
   21.0053  -28.0277  -10.9526 C   0  0  0  0  0  0  0  0  0  0  0  0
   22.1892  -32.3050  -10.6161 C   0  0  0  0  0  0  0  0  0  0  0  0
   21.9917  -33.4522  -11.1194 O   0  0  0  0  0  0  0  0  0  0  0  0
   26.6308  -33.8104   -6.6406 C   0  0  0  0  0  0  0  0  0  0  0  0
   25.2937  -34.1931   -7.2798 C   0  0  0  0  0  0  0  0  0  0  0  0
   24.6727  -32.9956   -7.9605 C   0  0  2  0  0  0  0  0  0  0  0  0
   24.6063  -31.8192   -7.0273 C   0  0  0  0  0  0  0  0  0  0  0  0
   23.3934  -33.3442   -8.6364 C   0  0  2  0  0  0  0  0  0  0  0  0
   22.8214  -32.2150   -9.3546 N   0  0  0  0  0  0  0  0  0  0  0  0
   22.3795  -33.8502   -7.6595 C   0  0  0  0  0  0  0  0  0  0  0  0
   22.5608  -34.8724   -6.9513 O   0  0  0  0  0  0  0  0  0  0  0  0
   21.1379  -33.1901   -7.4788 N   0  0  0  0  0  0  0  0  0  0  0  0
   20.1105  -33.7742   -6.6107 C   0  0  1  0  0  0  0  0  0  0  0  0
   19.5549  -32.7808   -5.6545 C   0  0  0  0  0  0  0  0  0  0  0  0
   20.4641  -32.5979   -4.5197 C   0  0  0  0  0  0  0  0  0  0  0  0
   21.1870  -33.5141   -3.8060 C   0  0  0  0  0  0  0  0  0  0  0  0
   21.9378  -32.8422   -2.8837 N   0  0  0  0  0  0  0  0  0  0  0  0
   21.6937  -31.5407   -3.0159 C   0  0  0  0  0  0  0  0  0  0  0  0
   20.8067  -31.3883   -4.0004 N   0  0  0  0  0  0  0  0  0  0  0  0
   18.9875  -34.0441   -7.6042 C   0  0  0  0  0  0  0  0  0  0  0  0
   19.1346  -33.7596   -8.8448 O   0  0  0  0  0  0  0  0  0  0  0  0
   17.7757  -34.5862   -7.2816 O   0  0  0  0  0  0  0  0  0  0  0  0
  2  1  1  6
  2 10  1  0
  3  2  1  0
  3  4  1  0
  4  9  1  0
  4  5  2  0
  5  6  1  0
  6  7  2  0
  8  7  1  0
  9  8  2  0
 10 11  2  0
 13 12  1  0
 14 13  1  0
 14 15  1  1
 16 14  1  0
 17 10  1  0
 16 17  1  1
 18 16  1  0
 18 19  2  0
 20 18  1  0
 21 20  1  0
 21 22  1  1
 23 24  2  0
 23 22  1  0
 25 24  1  0
 26 27  2  0
 26 25  1  0
 27 23  1  0
 28 30  1  0
 28 21  1  0
 29 28  2  0
M  END
$$$$
