FIH.pdb
     RDKit          3D

 30 31  0  0  1  0  0  0  0  0999 V2000
   23.6690  -19.9798  -21.6157 N   0  0  0  0  0  0  0  0  0  0  0  0
   23.2221  -18.8994  -20.7966 C   0  0  1  0  0  0  0  0  0  0  0  0
   21.9041  -18.2994  -21.2567 C   0  0  0  0  0  0  0  0  0  0  0  0
   22.0559  -17.5629  -22.5312 C   0  0  0  0  0  0  0  0  0  0  0  0
   22.4084  -18.2032  -23.6951 C   0  0  0  0  0  0  0  0  0  0  0  0
   22.5340  -17.4625  -24.8497 C   0  0  0  0  0  0  0  0  0  0  0  0
   22.3226  -16.0963  -24.9014 C   0  0  0  0  0  0  0  0  0  0  0  0
   21.9687  -15.4864  -23.7077 C   0  0  0  0  0  0  0  0  0  0  0  0
   21.8373  -16.2057  -22.5424 C   0  0  0  0  0  0  0  0  0  0  0  0
   23.0858  -19.2717  -19.3641 C   0  0  0  0  0  0  0  0  0  0  0  0
   23.0097  -20.5074  -19.0892 O   0  0  0  0  0  0  0  0  0  0  0  0
   26.2882  -17.0630  -15.7611 C   0  0  0  0  0  0  0  0  0  0  0  0
   25.3610  -17.9487  -16.5969 C   0  0  0  0  0  0  0  0  0  0  0  0
   23.9424  -17.8581  -16.0850 C   0  0  2  0  0  0  0  0  0  0  0  0
   23.8885  -18.0929  -14.6014 C   0  0  0  0  0  0  0  0  0  0  0  0
   23.0073  -18.6863  -16.8943 C   0  0  2  0  0  0  0  0  0  0  0  0
   23.0371  -18.3349  -18.3062 N   0  0  0  0  0  0  0  0  0  0  0  0
   21.6002  -18.5606  -16.4018 C   0  0  0  0  0  0  0  0  0  0  0  0
   20.9698  -17.4735  -16.3984 O   0  0  0  0  0  0  0  0  0  0  0  0
   20.8916  -19.6831  -15.9038 N   0  0  0  0  0  0  0  0  0  0  0  0
   19.5067  -19.5376  -15.4443 C   0  0  1  0  0  0  0  0  0  0  0  0
   18.5578  -20.3342  -16.2659 C   0  0  0  0  0  0  0  0  0  0  0  0
   18.3178  -19.6766  -17.5534 C   0  0  0  0  0  0  0  0  0  0  0  0
   18.8225  -18.5109  -18.0615 C   0  0  0  0  0  0  0  0  0  0  0  0
   18.3467  -18.3568  -19.3326 N   0  0  0  0  0  0  0  0  0  0  0  0
   17.5664  -19.3972  -19.6145 C   0  0  0  0  0  0  0  0  0  0  0  0
   17.5459  -20.1953  -18.5460 N   0  0  0  0  0  0  0  0  0  0  0  0
   19.5562  -20.2427  -14.0947 C   0  0  0  0  0  0  0  0  0  0  0  0
   18.5551  -20.1900  -13.2966 O   0  0  0  0  0  0  0  0  0  0  0  0
   20.6213  -20.9604  -13.6293 O   0  0  0  0  0  0  0  0  0  0  0  0
  2  1  1  6
  2 10  1  0
  3  2  1  0
  3  4  1  0
  4  9  1  0
  4  5  2  0
  5  6  1  0
  6  7  2  0
  8  7  1  0
  9  8  2  0
 10 11  2  0
 13 12  1  0
 14 13  1  0
 14 15  1  1
 16 14  1  0
 17 10  1  0
 16 17  1  6
 18 16  1  0
 18 19  2  0
 20 18  1  0
 21 20  1  0
 21 22  1  6
 23 24  2  0
 23 22  1  0
 25 24  1  0
 26 27  2  0
 26 25  1  0
 27 23  1  0
 28 30  1  0
 28 21  1  0
 29 28  2  0
M  END
$$$$
