YAH.pdb
     RDKit          3D

 28 29  0  0  1  0  0  0  0  0999 V2000
    8.2005  -12.3373   17.1286 O   0  0  0  0  0  0  0  0  0  0  0  0
    7.9878  -12.9489   18.3570 C   0  0  0  0  0  0  0  0  0  0  0  0
    6.7311  -13.3915   18.7217 C   0  0  0  0  0  0  0  0  0  0  0  0
    6.5384  -13.9882   19.9273 C   0  0  0  0  0  0  0  0  0  0  0  0
    7.5780  -14.1739   20.8254 C   0  0  0  0  0  0  0  0  0  0  0  0
    7.3426  -14.8299   22.1396 C   0  0  0  0  0  0  0  0  0  0  0  0
    7.8274  -16.2582   22.0520 C   0  0  2  0  0  0  0  0  0  0  0  0
    6.8797  -17.0126   21.2262 N   0  0  0  0  0  0  0  0  0  0  0  0
    7.8784  -16.9225   23.3605 C   0  0  0  0  0  0  0  0  0  0  0  0
    6.9155  -17.6237   23.8244 O   0  0  0  0  0  0  0  0  0  0  0  0
    8.8516  -13.7388   20.4853 C   0  0  0  0  0  0  0  0  0  0  0  0
    9.0231  -13.1343   19.2526 C   0  0  0  0  0  0  0  0  0  0  0  0
    9.8264  -18.8611   25.3533 C   0  0  0  0  0  0  0  0  0  0  0  0
    9.0888  -17.5329   25.4821 C   0  0  2  0  0  0  0  0  0  0  0  0
    9.0193  -16.8378   24.2288 N   0  0  0  0  0  0  0  0  0  0  0  0
    9.8801  -16.7075   26.4291 C   0  0  0  0  0  0  0  0  0  0  0  0
   10.9545  -16.2001   26.0284 O   0  0  0  0  0  0  0  0  0  0  0  0
    9.4831  -16.4644   27.7612 N   0  0  0  0  0  0  0  0  0  0  0  0
   10.3035  -15.5874   28.5910 C   0  0  1  0  0  0  0  0  0  0  0  0
    9.4794  -14.4544   29.1477 C   0  0  0  0  0  0  0  0  0  0  0  0
    8.7257  -13.7800   28.0908 C   0  0  0  0  0  0  0  0  0  0  0  0
    9.1968  -12.7595   27.2862 C   0  0  0  0  0  0  0  0  0  0  0  0
    8.1939  -12.4181   26.4683 N   0  0  0  0  0  0  0  0  0  0  0  0
    7.1259  -13.1788   26.7292 C   0  0  0  0  0  0  0  0  0  0  0  0
    7.4319  -14.0250   27.7258 N   0  0  0  0  0  0  0  0  0  0  0  0
   10.9507  -16.4282   29.6118 C   0  0  0  0  0  0  0  0  0  0  0  0
   10.6952  -17.6504   29.6689 O   0  0  0  0  0  0  0  0  0  0  0  0
   11.8459  -15.9021   30.5215 O   0  0  0  0  0  0  0  0  0  0  0  0
  2 12  2  0
  2  1  1  0
  3  2  1  0
  4  5  1  0
  4  3  2  0
  5 11  2  0
  6  5  1  0
  6  7  1  0
  7  8  1  6
  9  7  1  0
  9 15  1  0
 10  9  2  0
 11 12  1  0
 14 13  1  6
 14 15  1  0
 14 16  1  0
 16 17  2  0
 16 18  1  0
 18 19  1  0
 19 26  1  0
 19 20  1  1
 21 20  1  0
 22 21  2  0
 23 24  1  0
 23 22  1  0
 24 25  2  0
 25 21  1  0
 26 27  2  0
 26 28  1  0
M  END
$$$$
