YAH.pdb
     RDKit          3D

 28 29  0  0  1  0  0  0  0  0999 V2000
    7.3095  -12.3366   16.4708 O   0  0  0  0  0  0  0  0  0  0  0  0
    7.6401  -13.0394   17.6219 C   0  0  0  0  0  0  0  0  0  0  0  0
    6.7216  -13.2069   18.6400 C   0  0  0  0  0  0  0  0  0  0  0  0
    7.0598  -13.8972   19.7606 C   0  0  0  0  0  0  0  0  0  0  0  0
    8.3195  -14.4523   19.9249 C   0  0  0  0  0  0  0  0  0  0  0  0
    8.6665  -15.2039   21.1608 C   0  0  0  0  0  0  0  0  0  0  0  0
    8.7892  -16.6680   20.8086 C   0  0  2  0  0  0  0  0  0  0  0  0
    7.4649  -17.1550   20.4110 N   0  0  0  0  0  0  0  0  0  0  0  0
    9.2252  -17.4912   21.9437 C   0  0  0  0  0  0  0  0  0  0  0  0
    8.4742  -17.7523   22.9446 O   0  0  0  0  0  0  0  0  0  0  0  0
    9.2626  -14.2996   18.9178 C   0  0  0  0  0  0  0  0  0  0  0  0
    8.8951  -13.5929   17.7865 C   0  0  0  0  0  0  0  0  0  0  0  0
   12.3051  -19.5397   22.8743 C   0  0  0  0  0  0  0  0  0  0  0  0
   10.9663  -18.8604   23.1407 C   0  0  2  0  0  0  0  0  0  0  0  0
   10.5363  -18.0722   22.0214 N   0  0  0  0  0  0  0  0  0  0  0  0
   11.1829  -17.9515   24.2944 C   0  0  0  0  0  0  0  0  0  0  0  0
   11.7805  -16.8667   24.0987 O   0  0  0  0  0  0  0  0  0  0  0  0
   10.7491  -18.2477   25.6041 N   0  0  0  0  0  0  0  0  0  0  0  0
   10.9594  -17.2575   26.6559 C   0  0  1  0  0  0  0  0  0  0  0  0
    9.7392  -16.3877   26.8220 C   0  0  0  0  0  0  0  0  0  0  0  0
    9.8951  -15.4681   27.9489 C   0  0  0  0  0  0  0  0  0  0  0  0
   10.9744  -15.4210   28.8114 C   0  0  0  0  0  0  0  0  0  0  0  0
   10.7152  -14.4563   29.7022 N   0  0  0  0  0  0  0  0  0  0  0  0
    9.5276  -13.9054   29.4314 C   0  0  0  0  0  0  0  0  0  0  0  0
    9.0049  -14.5141   28.3547 N   0  0  0  0  0  0  0  0  0  0  0  0
   11.3575  -17.9863   27.8716 C   0  0  0  0  0  0  0  0  0  0  0  0
   11.1430  -19.2143   27.9629 O   0  0  0  0  0  0  0  0  0  0  0  0
   11.9711  -17.3471   28.9303 O   0  0  0  0  0  0  0  0  0  0  0  0
  2 12  2  0
  2  1  1  0
  3  2  1  0
  4  5  1  0
  4  3  2  0
  5 11  2  0
  6  5  1  0
  6  7  1  0
  7  8  1  1
  9  7  1  0
  9 15  1  0
 10  9  2  0
 11 12  1  0
 14 13  1  6
 14 15  1  0
 14 16  1  0
 16 17  2  0
 16 18  1  0
 18 19  1  0
 19 26  1  0
 19 20  1  1
 21 20  1  0
 22 21  2  0
 23 24  1  0
 23 22  1  0
 24 25  2  0
 25 21  1  0
 26 27  2  0
 26 28  1  0
M  END
$$$$
