YAH.pdb
     RDKit          3D

 28 29  0  0  1  0  0  0  0  0999 V2000
   17.3368  -21.7367   16.4361 O   0  0  0  0  0  0  0  0  0  0  0  0
   16.3211  -21.6137   17.3750 C   0  0  0  0  0  0  0  0  0  0  0  0
   16.2379  -20.5012   18.1895 C   0  0  0  0  0  0  0  0  0  0  0  0
   15.2382  -20.3949   19.1037 C   0  0  0  0  0  0  0  0  0  0  0  0
   14.2769  -21.3826   19.2537 C   0  0  0  0  0  0  0  0  0  0  0  0
   13.1918  -21.2440   20.2617 C   0  0  0  0  0  0  0  0  0  0  0  0
   11.8938  -20.9895   19.5314 C   0  0  2  0  0  0  0  0  0  0  0  0
   11.9455  -19.6383   18.9650 N   0  0  0  0  0  0  0  0  0  0  0  0
   10.7240  -21.0378   20.4176 C   0  0  0  0  0  0  0  0  0  0  0  0
   10.2240  -19.9987   20.9694 O   0  0  0  0  0  0  0  0  0  0  0  0
   14.3359  -22.5118   18.4485 C   0  0  0  0  0  0  0  0  0  0  0  0
   15.3628  -22.5973   17.5251 C   0  0  0  0  0  0  0  0  0  0  0  0
    7.9080  -23.3954   21.1397 C   0  0  0  0  0  0  0  0  0  0  0  0
    8.8779  -22.3014   21.5726 C   0  0  2  0  0  0  0  0  0  0  0  0
   10.0440  -22.2617   20.7376 N   0  0  0  0  0  0  0  0  0  0  0  0
    9.3046  -22.6455   22.9523 C   0  0  0  0  0  0  0  0  0  0  0  0
    8.4314  -22.7161   23.8495 O   0  0  0  0  0  0  0  0  0  0  0  0
   10.6471  -22.8980   23.3062 N   0  0  0  0  0  0  0  0  0  0  0  0
   10.9682  -23.1618   24.7055 C   0  0  1  0  0  0  0  0  0  0  0  0
   11.4811  -24.5688   24.8796 C   0  0  0  0  0  0  0  0  0  0  0  0
   12.5560  -24.8606   23.9313 C   0  0  0  0  0  0  0  0  0  0  0  0
   13.0835  -23.9764   23.0091 C   0  0  0  0  0  0  0  0  0  0  0  0
   14.0286  -24.6409   22.3334 N   0  0  0  0  0  0  0  0  0  0  0  0
   14.1101  -25.8933   22.7940 C   0  0  0  0  0  0  0  0  0  0  0  0
   13.2112  -26.0501   23.7792 N   0  0  0  0  0  0  0  0  0  0  0  0
   11.9039  -22.1139   25.1462 C   0  0  0  0  0  0  0  0  0  0  0  0
   11.6238  -20.9093   24.9651 O   0  0  0  0  0  0  0  0  0  0  0  0
   13.0989  -22.4238   25.7639 O   0  0  0  0  0  0  0  0  0  0  0  0
  2 12  2  0
  2  1  1  0
  3  2  1  0
  4  5  1  0
  4  3  2  0
  5 11  2  0
  6  5  1  0
  6  7  1  0
  7  8  1  1
  9  7  1  0
  9 15  1  0
 10  9  2  0
 11 12  1  0
 14 13  1  6
 14 15  1  0
 14 16  1  0
 16 17  2  0
 16 18  1  0
 18 19  1  0
 19 26  1  0
 19 20  1  6
 21 20  1  0
 22 21  2  0
 23 24  1  0
 23 22  1  0
 24 25  2  0
 25 21  1  0
 26 27  2  0
 26 28  1  0
M  END
$$$$
