YAH.pdb
     RDKit          3D

 28 29  0  0  1  0  0  0  0  0999 V2000
   10.7175  -14.4150   30.2859 O   0  0  0  0  0  0  0  0  0  0  0  0
   10.3915  -14.6254   28.9526 C   0  0  0  0  0  0  0  0  0  0  0  0
   10.5624  -15.8647   28.3669 C   0  0  0  0  0  0  0  0  0  0  0  0
   10.2389  -16.0554   27.0609 C   0  0  0  0  0  0  0  0  0  0  0  0
    9.7326  -15.0308   26.2762 C   0  0  0  0  0  0  0  0  0  0  0  0
    9.3856  -15.2636   24.8486 C   0  0  0  0  0  0  0  0  0  0  0  0
    7.8808  -15.2400   24.7147 C   0  0  2  0  0  0  0  0  0  0  0  0
    7.3404  -16.4014   25.4276 N   0  0  0  0  0  0  0  0  0  0  0  0
    7.4324  -15.3466   23.3206 C   0  0  0  0  0  0  0  0  0  0  0  0
    6.9456  -16.4196   22.8249 O   0  0  0  0  0  0  0  0  0  0  0  0
    9.5504  -13.7747   26.8387 C   0  0  0  0  0  0  0  0  0  0  0  0
    9.8869  -13.6050   28.1700 C   0  0  0  0  0  0  0  0  0  0  0  0
    6.9480  -12.9843   20.3723 C   0  0  0  0  0  0  0  0  0  0  0  0
    7.0517  -14.3514   21.0395 C   0  0  2  0  0  0  0  0  0  0  0  0
    7.5047  -14.2491   22.3971 N   0  0  0  0  0  0  0  0  0  0  0  0
    8.0633  -15.1158   20.2673 C   0  0  0  0  0  0  0  0  0  0  0  0
    7.8324  -15.3659   19.0605 O   0  0  0  0  0  0  0  0  0  0  0  0
    9.2752  -15.5764   20.8244 N   0  0  0  0  0  0  0  0  0  0  0  0
   10.2400  -16.2440   19.9558 C   0  0  1  0  0  0  0  0  0  0  0  0
   10.6758  -15.3293   18.8394 C   0  0  0  0  0  0  0  0  0  0  0  0
   10.1167  -15.7571   17.5571 C   0  0  0  0  0  0  0  0  0  0  0  0
    9.1768  -16.7545   17.3766 C   0  0  0  0  0  0  0  0  0  0  0  0
    8.9504  -16.8385   16.0601 N   0  0  0  0  0  0  0  0  0  0  0  0
    9.7055  -15.9408   15.4188 C   0  0  0  0  0  0  0  0  0  0  0  0
   10.4321  -15.2636   16.3224 N   0  0  0  0  0  0  0  0  0  0  0  0
   11.3375  -16.7282   20.8095 C   0  0  0  0  0  0  0  0  0  0  0  0
   11.5140  -16.2312   21.9427 O   0  0  0  0  0  0  0  0  0  0  0  0
   12.1906  -17.7303   20.3926 O   0  0  0  0  0  0  0  0  0  0  0  0
  2 12  2  0
  2  1  1  0
  3  2  1  0
  4  5  1  0
  4  3  2  0
  5 11  2  0
  6  5  1  0
  6  7  1  0
  7  8  1  1
  9  7  1  0
  9 15  1  0
 10  9  2  0
 11 12  1  0
 14 13  1  6
 14 15  1  0
 14 16  1  0
 16 17  2  0
 16 18  1  0
 18 19  1  0
 19 26  1  0
 19 20  1  6
 21 20  1  0
 22 21  2  0
 23 24  1  0
 23 22  1  0
 24 25  2  0
 25 21  1  0
 26 27  2  0
 26 28  1  0
M  END
$$$$
