YAH.pdb
     RDKit          3D

 28 29  0  0  1  0  0  0  0  0999 V2000
    7.4705  -12.0034   17.5612 O   0  0  0  0  0  0  0  0  0  0  0  0
    7.6947  -12.6894   18.7475 C   0  0  0  0  0  0  0  0  0  0  0  0
    6.6454  -13.0378   19.5755 C   0  0  0  0  0  0  0  0  0  0  0  0
    6.8804  -13.7091   20.7334 C   0  0  0  0  0  0  0  0  0  0  0  0
    8.1618  -14.0657   21.1243 C   0  0  0  0  0  0  0  0  0  0  0  0
    8.3944  -14.8006   22.3966 C   0  0  0  0  0  0  0  0  0  0  0  0
    8.9257  -16.1748   22.0620 C   0  0  2  0  0  0  0  0  0  0  0  0
    7.8421  -16.9462   21.4457 N   0  0  0  0  0  0  0  0  0  0  0  0
    9.3606  -16.9208   23.2497 C   0  0  0  0  0  0  0  0  0  0  0  0
    8.5437  -17.4379   24.0859 O   0  0  0  0  0  0  0  0  0  0  0  0
    9.2355  -13.7285   20.3116 C   0  0  0  0  0  0  0  0  0  0  0  0
    8.9712  -13.0452   19.1378 C   0  0  0  0  0  0  0  0  0  0  0  0
   12.6181  -18.2640   24.6721 C   0  0  0  0  0  0  0  0  0  0  0  0
   11.1682  -17.8015   24.7649 C   0  0  2  0  0  0  0  0  0  0  0  0
   10.7450  -17.1307   23.5692 N   0  0  0  0  0  0  0  0  0  0  0  0
   11.1116  -16.8319   25.8877 C   0  0  0  0  0  0  0  0  0  0  0  0
   10.8901  -15.6255   25.6270 O   0  0  0  0  0  0  0  0  0  0  0  0
   11.2951  -17.2003   27.2374 N   0  0  0  0  0  0  0  0  0  0  0  0
   10.7876  -16.3171   28.2831 C   0  0  1  0  0  0  0  0  0  0  0  0
    9.2891  -16.1823   28.1875 C   0  0  0  0  0  0  0  0  0  0  0  0
    8.9116  -14.9229   27.5463 C   0  0  0  0  0  0  0  0  0  0  0  0
    9.7789  -13.9137   27.1719 C   0  0  0  0  0  0  0  0  0  0  0  0
    9.0315  -12.9396   26.6391 N   0  0  0  0  0  0  0  0  0  0  0  0
    7.7440  -13.2987   26.6665 C   0  0  0  0  0  0  0  0  0  0  0  0
    7.6476  -14.5176   27.2216 N   0  0  0  0  0  0  0  0  0  0  0  0
   11.2708  -16.8399   29.5718 C   0  0  0  0  0  0  0  0  0  0  0  0
   11.3332  -16.0875   30.5680 O   0  0  0  0  0  0  0  0  0  0  0  0
   11.6623  -18.1557   29.7182 O   0  0  0  0  0  0  0  0  0  0  0  0
  2 12  2  0
  2  1  1  0
  3  2  1  0
  4  5  1  0
  4  3  2  0
  5 11  2  0
  6  5  1  0
  6  7  1  0
  7  8  1  1
  9  7  1  0
  9 15  1  0
 10  9  2  0
 11 12  1  0
 14 13  1  6
 14 15  1  0
 14 16  1  0
 16 17  2  0
 16 18  1  0
 18 19  1  0
 19 26  1  0
 19 20  1  1
 21 20  1  0
 22 21  2  0
 23 24  1  0
 23 22  1  0
 24 25  2  0
 25 21  1  0
 26 27  2  0
 26 28  1  0
M  END
$$$$
