YAH.pdb
     RDKit          3D

 28 29  0  0  1  0  0  0  0  0999 V2000
   11.7192  -12.7221   18.9361 O   0  0  0  0  0  0  0  0  0  0  0  0
   10.4802  -13.1282   19.4135 C   0  0  0  0  0  0  0  0  0  0  0  0
    9.3268  -12.8832   18.6938 C   0  0  0  0  0  0  0  0  0  0  0  0
    8.1213  -13.2867   19.1739 C   0  0  0  0  0  0  0  0  0  0  0  0
    8.0018  -13.9498   20.3855 C   0  0  0  0  0  0  0  0  0  0  0  0
    6.6711  -14.3819   20.8905 C   0  0  0  0  0  0  0  0  0  0  0  0
    6.4003  -15.7790   20.3830 C   0  0  2  0  0  0  0  0  0  0  0  0
    5.0281  -16.1409   20.7508 N   0  0  0  0  0  0  0  0  0  0  0  0
    7.2845  -16.7842   20.9862 C   0  0  0  0  0  0  0  0  0  0  0  0
    7.1425  -17.2091   22.1835 O   0  0  0  0  0  0  0  0  0  0  0  0
    9.1443  -14.2095   21.1300 C   0  0  0  0  0  0  0  0  0  0  0  0
   10.3602  -13.7891   20.6206 C   0  0  0  0  0  0  0  0  0  0  0  0
    8.9022  -19.7674   20.1588 C   0  0  0  0  0  0  0  0  0  0  0  0
    9.1849  -18.4284   20.8312 C   0  0  2  0  0  0  0  0  0  0  0  0
    8.3852  -17.3740   20.2767 N   0  0  0  0  0  0  0  0  0  0  0  0
   10.6123  -18.1209   20.5624 C   0  0  0  0  0  0  0  0  0  0  0  0
   10.9274  -17.6790   19.4320 O   0  0  0  0  0  0  0  0  0  0  0  0
   11.6352  -18.3013   21.5174 N   0  0  0  0  0  0  0  0  0  0  0  0
   12.9283  -17.6622   21.2928 C   0  0  1  0  0  0  0  0  0  0  0  0
   12.7504  -16.2092   20.9323 C   0  0  0  0  0  0  0  0  0  0  0  0
   13.4223  -15.8911   19.6724 C   0  0  0  0  0  0  0  0  0  0  0  0
   14.1013  -16.7877   18.8688 C   0  0  0  0  0  0  0  0  0  0  0  0
   14.5759  -16.0917   17.8287 N   0  0  0  0  0  0  0  0  0  0  0  0
   14.2226  -14.8082   17.9514 C   0  0  0  0  0  0  0  0  0  0  0  0
   13.5110  -14.6625   19.0808 N   0  0  0  0  0  0  0  0  0  0  0  0
   13.7477  -17.8955   22.4936 C   0  0  0  0  0  0  0  0  0  0  0  0
   14.9167  -18.3231   22.3794 O   0  0  0  0  0  0  0  0  0  0  0  0
   13.2593  -17.6521   23.7616 O   0  0  0  0  0  0  0  0  0  0  0  0
  2 12  2  0
  2  1  1  0
  3  2  1  0
  4  5  1  0
  4  3  2  0
  5 11  2  0
  6  5  1  0
  6  7  1  0
  7  8  1  1
  9  7  1  0
  9 15  1  0
 10  9  2  0
 11 12  1  0
 14 13  1  6
 14 15  1  0
 14 16  1  0
 16 17  2  0
 16 18  1  0
 18 19  1  0
 19 26  1  0
 19 20  1  1
 21 20  1  0
 22 21  2  0
 23 24  1  0
 23 22  1  0
 24 25  2  0
 25 21  1  0
 26 27  2  0
 26 28  1  0
M  END
$$$$
