YAH.pdb
     RDKit          3D

 28 29  0  0  1  0  0  0  0  0999 V2000
    6.6986  -13.3032   14.9482 O   0  0  0  0  0  0  0  0  0  0  0  0
    7.6158  -13.8362   15.8442 C   0  0  0  0  0  0  0  0  0  0  0  0
    8.7160  -14.5424   15.3982 C   0  0  0  0  0  0  0  0  0  0  0  0
    9.6050  -15.0582   16.2871 C   0  0  0  0  0  0  0  0  0  0  0  0
    9.4466  -14.8994   17.6552 C   0  0  0  0  0  0  0  0  0  0  0  0
   10.4332  -15.4733   18.6091 C   0  0  0  0  0  0  0  0  0  0  0  0
   10.2594  -16.9740   18.6278 C   0  0  2  0  0  0  0  0  0  0  0  0
    8.8306  -17.2668   18.7751 N   0  0  0  0  0  0  0  0  0  0  0  0
   10.9459  -17.6117   19.7585 C   0  0  0  0  0  0  0  0  0  0  0  0
   10.3687  -17.8678   20.8699 O   0  0  0  0  0  0  0  0  0  0  0  0
    8.3499  -14.1941   18.1318 C   0  0  0  0  0  0  0  0  0  0  0  0
    7.4586  -13.6784   17.2075 C   0  0  0  0  0  0  0  0  0  0  0  0
   13.5357  -20.1115   20.0147 C   0  0  0  0  0  0  0  0  0  0  0  0
   12.9176  -18.8827   20.6726 C   0  0  2  0  0  0  0  0  0  0  0  0
   12.3273  -18.0009   19.7068 N   0  0  0  0  0  0  0  0  0  0  0  0
   14.0315  -18.1635   21.3404 C   0  0  0  0  0  0  0  0  0  0  0  0
   14.5847  -18.7013   22.3288 O   0  0  0  0  0  0  0  0  0  0  0  0
   14.5005  -16.9015   20.9178 N   0  0  0  0  0  0  0  0  0  0  0  0
   14.6973  -15.8538   21.9151 C   0  0  1  0  0  0  0  0  0  0  0  0
   13.3875  -15.4776   22.5600 C   0  0  0  0  0  0  0  0  0  0  0  0
   12.5669  -14.6700   21.6576 C   0  0  0  0  0  0  0  0  0  0  0  0
   12.9045  -14.3012   20.3689 C   0  0  0  0  0  0  0  0  0  0  0  0
   11.8933  -13.5593   19.9018 N   0  0  0  0  0  0  0  0  0  0  0  0
   10.9472  -13.4520   20.8402 C   0  0  0  0  0  0  0  0  0  0  0  0
   11.3420  -14.1291   21.9305 N   0  0  0  0  0  0  0  0  0  0  0  0
   15.7242  -16.3309   22.8561 C   0  0  0  0  0  0  0  0  0  0  0  0
   16.8781  -15.8519   22.8179 O   0  0  0  0  0  0  0  0  0  0  0  0
   15.4491  -17.3048   23.7950 O   0  0  0  0  0  0  0  0  0  0  0  0
  2 12  2  0
  2  1  1  0
  3  2  1  0
  4  5  1  0
  4  3  2  0
  5 11  2  0
  6  5  1  0
  6  7  1  0
  7  8  1  1
  9  7  1  0
  9 15  1  0
 10  9  2  0
 11 12  1  0
 14 13  1  6
 14 15  1  0
 14 16  1  0
 16 17  2  0
 16 18  1  0
 18 19  1  0
 19 26  1  0
 19 20  1  1
 21 20  1  0
 22 21  2  0
 23 24  1  0
 23 22  1  0
 24 25  2  0
 25 21  1  0
 26 27  2  0
 26 28  1  0
M  END
$$$$
