YAH.pdb
     RDKit          3D

 28 29  0  0  1  0  0  0  0  0999 V2000
    5.4976  -10.4878   27.2300 O   0  0  0  0  0  0  0  0  0  0  0  0
    6.2459  -11.5211   26.6818 C   0  0  0  0  0  0  0  0  0  0  0  0
    6.8666  -11.3758   25.4564 C   0  0  0  0  0  0  0  0  0  0  0  0
    7.5955  -12.3960   24.9326 C   0  0  0  0  0  0  0  0  0  0  0  0
    7.7435  -13.6044   25.5960 C   0  0  0  0  0  0  0  0  0  0  0  0
    8.5465  -14.7069   25.0025 C   0  0  0  0  0  0  0  0  0  0  0  0
    7.5979  -15.7053   24.3812 C   0  0  2  0  0  0  0  0  0  0  0  0
    7.0568  -16.5487   25.4513 N   0  0  0  0  0  0  0  0  0  0  0  0
    8.2611  -16.6005   23.4246 C   0  0  0  0  0  0  0  0  0  0  0  0
    8.7285  -17.7451   23.7495 O   0  0  0  0  0  0  0  0  0  0  0  0
    7.1306  -13.7784   26.8293 C   0  0  0  0  0  0  0  0  0  0  0  0
    6.3938  -12.7255   27.3421 C   0  0  0  0  0  0  0  0  0  0  0  0
    8.6836  -16.7334   19.6476 C   0  0  0  0  0  0  0  0  0  0  0  0
    8.9512  -17.1923   21.0768 C   0  0  2  0  0  0  0  0  0  0  0  0
    8.4392  -16.2608   22.0406 N   0  0  0  0  0  0  0  0  0  0  0  0
   10.4271  -17.2521   21.2253 C   0  0  0  0  0  0  0  0  0  0  0  0
   11.0684  -18.0631   20.5157 O   0  0  0  0  0  0  0  0  0  0  0  0
   11.1470  -16.4401   22.1273 N   0  0  0  0  0  0  0  0  0  0  0  0
   12.5903  -16.6251   22.2428 C   0  0  1  0  0  0  0  0  0  0  0  0
   13.3225  -15.3627   21.8646 C   0  0  0  0  0  0  0  0  0  0  0  0
   13.3244  -15.1669   20.4149 C   0  0  0  0  0  0  0  0  0  0  0  0
   12.8412  -16.0602   19.4772 C   0  0  0  0  0  0  0  0  0  0  0  0
   13.0457  -15.5074   18.2756 N   0  0  0  0  0  0  0  0  0  0  0  0
   13.6321  -14.3155   18.4261 C   0  0  0  0  0  0  0  0  0  0  0  0
   13.8130  -14.0859   19.7367 N   0  0  0  0  0  0  0  0  0  0  0  0
   12.8639  -17.1015   23.6088 C   0  0  0  0  0  0  0  0  0  0  0  0
   14.0427  -17.2766   23.9856 O   0  0  0  0  0  0  0  0  0  0  0  0
   11.8441  -17.3639   24.5016 O   0  0  0  0  0  0  0  0  0  0  0  0
  2 12  2  0
  2  1  1  0
  3  2  1  0
  4  5  1  0
  4  3  2  0
  5 11  2  0
  6  5  1  0
  6  7  1  0
  7  8  1  1
  9  7  1  0
  9 15  1  0
 10  9  2  0
 11 12  1  0
 14 13  1  6
 14 15  1  0
 14 16  1  0
 16 17  2  0
 16 18  1  0
 18 19  1  0
 19 26  1  0
 19 20  1  1
 21 20  1  0
 22 21  2  0
 23 24  1  0
 23 22  1  0
 24 25  2  0
 25 21  1  0
 26 27  2  0
 26 28  1  0
M  END
$$$$
