YAH.pdb
     RDKit          3D

 28 29  0  0  1  0  0  0  0  0999 V2000
    7.2550  -12.1390   17.3890 O   0  0  0  0  0  0  0  0  0  0  0  0
    7.6303  -12.8986   18.4891 C   0  0  0  0  0  0  0  0  0  0  0  0
    8.9239  -13.3644   18.6223 C   0  0  0  0  0  0  0  0  0  0  0  0
    9.2764  -14.1066   19.7047 C   0  0  0  0  0  0  0  0  0  0  0  0
    8.3671  -14.4214   20.7027 C   0  0  0  0  0  0  0  0  0  0  0  0
    8.7764  -15.2355   21.8784 C   0  0  0  0  0  0  0  0  0  0  0  0
    8.9914  -16.6589   21.4198 C   0  0  2  0  0  0  0  0  0  0  0  0
    7.6996  -17.1995   20.9861 N   0  0  0  0  0  0  0  0  0  0  0  0
    9.4834  -17.5335   22.4918 C   0  0  0  0  0  0  0  0  0  0  0  0
    8.7405  -17.9573   23.4419 O   0  0  0  0  0  0  0  0  0  0  0  0
    7.0600  -13.9664   20.5949 C   0  0  0  0  0  0  0  0  0  0  0  0
    6.7249  -13.2126   19.4840 C   0  0  0  0  0  0  0  0  0  0  0  0
   12.5564  -19.6260   23.1836 C   0  0  0  0  0  0  0  0  0  0  0  0
   11.3242  -18.8363   23.6112 C   0  0  2  0  0  0  0  0  0  0  0  0
   10.8449  -17.9854   22.5600 N   0  0  0  0  0  0  0  0  0  0  0  0
   11.7521  -17.9793   24.7455 C   0  0  0  0  0  0  0  0  0  0  0  0
   12.3183  -16.8894   24.4926 O   0  0  0  0  0  0  0  0  0  0  0  0
   11.5532  -18.3302   26.0977 N   0  0  0  0  0  0  0  0  0  0  0  0
   11.3437  -17.2680   27.0768 C   0  0  1  0  0  0  0  0  0  0  0  0
   10.2292  -16.3514   26.6401 C   0  0  0  0  0  0  0  0  0  0  0  0
    9.9607  -15.3275   27.6498 C   0  0  0  0  0  0  0  0  0  0  0  0
   10.6235  -15.1857   28.8545 C   0  0  0  0  0  0  0  0  0  0  0  0
   10.0647  -14.1444   29.4828 N   0  0  0  0  0  0  0  0  0  0  0  0
    9.0884  -13.6363   28.7240 C   0  0  0  0  0  0  0  0  0  0  0  0
    9.0072  -14.3505   27.5898 N   0  0  0  0  0  0  0  0  0  0  0  0
   11.1260  -17.9117   28.3829 C   0  0  0  0  0  0  0  0  0  0  0  0
   10.3608  -18.8957   28.4752 O   0  0  0  0  0  0  0  0  0  0  0  0
   11.7508  -17.4571   29.5270 O   0  0  0  0  0  0  0  0  0  0  0  0
  2 12  2  0
  2  1  1  0
  3  2  1  0
  4  5  1  0
  4  3  2  0
  5 11  2  0
  6  5  1  0
  6  7  1  0
  7  8  1  1
  9  7  1  0
  9 15  1  0
 10  9  2  0
 11 12  1  0
 14 13  1  6
 14 15  1  0
 14 16  1  0
 16 17  2  0
 16 18  1  0
 18 19  1  0
 19 26  1  0
 19 20  1  6
 21 20  1  0
 22 21  2  0
 23 24  1  0
 23 22  1  0
 24 25  2  0
 25 21  1  0
 26 27  2  0
 26 28  1  0
M  END
$$$$
