YAH.pdb
     RDKit          3D

 28 29  0  0  1  0  0  0  0  0999 V2000
    6.6753  -24.3154   20.5625 O   0  0  0  0  0  0  0  0  0  0  0  0
    7.1414  -23.0602   20.9303 C   0  0  0  0  0  0  0  0  0  0  0  0
    8.4268  -22.8918   21.4074 C   0  0  0  0  0  0  0  0  0  0  0  0
    8.8689  -21.6571   21.7634 C   0  0  0  0  0  0  0  0  0  0  0  0
    8.0612  -20.5348   21.6639 C   0  0  0  0  0  0  0  0  0  0  0  0
    8.5674  -19.1932   22.0598 C   0  0  0  0  0  0  0  0  0  0  0  0
    8.3934  -18.2545   20.8889 C   0  0  2  0  0  0  0  0  0  0  0  0
    9.2001  -18.7600   19.7741 N   0  0  0  0  0  0  0  0  0  0  0  0
    8.8649  -16.8938   21.1761 C   0  0  0  0  0  0  0  0  0  0  0  0
   10.0959  -16.5550   21.1140 O   0  0  0  0  0  0  0  0  0  0  0  0
    6.7647  -20.6744   21.1877 C   0  0  0  0  0  0  0  0  0  0  0  0
    6.3373  -21.9413   20.8316 C   0  0  0  0  0  0  0  0  0  0  0  0
    7.3078  -13.4781   21.7370 C   0  0  0  0  0  0  0  0  0  0  0  0
    8.4391  -14.4971   21.8189 C   0  0  2  0  0  0  0  0  0  0  0  0
    7.9773  -15.8291   21.5516 N   0  0  0  0  0  0  0  0  0  0  0  0
    8.9416  -14.4498   23.2151 C   0  0  0  0  0  0  0  0  0  0  0  0
    9.4096  -13.3697   23.6471 O   0  0  0  0  0  0  0  0  0  0  0  0
    8.9191  -15.5621   24.0830 N   0  0  0  0  0  0  0  0  0  0  0  0
    9.4792  -15.4201   25.4235 C   0  0  1  0  0  0  0  0  0  0  0  0
    8.3853  -15.4085   26.4609 C   0  0  0  0  0  0  0  0  0  0  0  0
    7.6714  -14.1318   26.4619 C   0  0  0  0  0  0  0  0  0  0  0  0
    8.2287  -12.8933   26.7195 C   0  0  0  0  0  0  0  0  0  0  0  0
    7.2371  -11.9983   26.6354 N   0  0  0  0  0  0  0  0  0  0  0  0
    6.0940  -12.6246   26.3383 C   0  0  0  0  0  0  0  0  0  0  0  0
    6.3389  -13.9401   26.2269 N   0  0  0  0  0  0  0  0  0  0  0  0
   10.4737  -16.4915   25.5995 C   0  0  0  0  0  0  0  0  0  0  0  0
   10.6829  -17.3081   24.6766 O   0  0  0  0  0  0  0  0  0  0  0  0
   11.1950  -16.6245   26.7690 O   0  0  0  0  0  0  0  0  0  0  0  0
  2 12  2  0
  2  1  1  0
  3  2  1  0
  4  5  1  0
  4  3  2  0
  5 11  2  0
  6  5  1  0
  6  7  1  0
  7  8  1  6
  9  7  1  0
  9 15  1  0
 10  9  2  0
 11 12  1  0
 14 13  1  1
 14 15  1  0
 14 16  1  0
 16 17  2  0
 16 18  1  0
 18 19  1  0
 19 26  1  0
 19 20  1  1
 21 20  1  0
 22 21  2  0
 23 24  1  0
 23 22  1  0
 24 25  2  0
 25 21  1  0
 26 27  2  0
 26 28  1  0
M  END
$$$$
