YAH.pdb
     RDKit          3D

 28 29  0  0  1  0  0  0  0  0999 V2000
    2.0178  -27.1041   32.6318 O   0  0  0  0  0  0  0  0  0  0  0  0
    3.3155  -26.6615   32.8510 C   0  0  0  0  0  0  0  0  0  0  0  0
    4.3531  -27.0730   32.0372 C   0  0  0  0  0  0  0  0  0  0  0  0
    5.6180  -26.6313   32.2641 C   0  0  0  0  0  0  0  0  0  0  0  0
    5.9138  -25.7640   33.3044 C   0  0  0  0  0  0  0  0  0  0  0  0
    7.3064  -25.2941   33.5331 C   0  0  0  0  0  0  0  0  0  0  0  0
    8.0915  -26.4211   34.1625 C   0  0  2  0  0  0  0  0  0  0  0  0
    7.7060  -26.5141   35.5739 N   0  0  0  0  0  0  0  0  0  0  0  0
    9.5416  -26.1918   34.1290 C   0  0  0  0  0  0  0  0  0  0  0  0
   10.1232  -25.3014   34.8382 O   0  0  0  0  0  0  0  0  0  0  0  0
    4.8906  -25.3340   34.1383 C   0  0  0  0  0  0  0  0  0  0  0  0
    3.6112  -25.7973   33.8874 C   0  0  0  0  0  0  0  0  0  0  0  0
   12.5966  -27.9320   32.7053 C   0  0  0  0  0  0  0  0  0  0  0  0
   11.8445  -26.7296   33.2653 C   0  0  2  0  0  0  0  0  0  0  0  0
   10.4274  -26.9528   33.2930 N   0  0  0  0  0  0  0  0  0  0  0  0
   12.1200  -25.5997   32.3425 C   0  0  0  0  0  0  0  0  0  0  0  0
   13.3048  -25.2125   32.2064 O   0  0  0  0  0  0  0  0  0  0  0  0
   11.1129  -24.9376   31.6086 N   0  0  0  0  0  0  0  0  0  0  0  0
   11.5024  -23.9068   30.6512 C   0  0  1  0  0  0  0  0  0  0  0  0
   11.2134  -24.3521   29.2401 C   0  0  0  0  0  0  0  0  0  0  0  0
   11.4851  -23.2808   28.2817 C   0  0  0  0  0  0  0  0  0  0  0  0
   10.6639  -22.1995   28.0225 C   0  0  0  0  0  0  0  0  0  0  0  0
   11.2701  -21.4717   27.0770 N   0  0  0  0  0  0  0  0  0  0  0  0
   12.4265  -22.0517   26.7396 C   0  0  0  0  0  0  0  0  0  0  0  0
   12.5786  -23.1681   27.4701 N   0  0  0  0  0  0  0  0  0  0  0  0
   10.8247  -22.6612   31.0473 C   0  0  0  0  0  0  0  0  0  0  0  0
   11.4428  -21.5753   31.0140 O   0  0  0  0  0  0  0  0  0  0  0  0
    9.5072  -22.6537   31.4597 O   0  0  0  0  0  0  0  0  0  0  0  0
  2 12  2  0
  2  1  1  0
  3  2  1  0
  4  5  1  0
  4  3  2  0
  5 11  2  0
  6  5  1  0
  6  7  1  0
  7  8  1  1
  9  7  1  0
  9 15  1  0
 10  9  2  0
 11 12  1  0
 14 13  1  6
 14 15  1  0
 14 16  1  0
 16 17  2  0
 16 18  1  0
 18 19  1  0
 19 26  1  0
 19 20  1  6
 21 20  1  0
 22 21  2  0
 23 24  1  0
 23 22  1  0
 24 25  2  0
 25 21  1  0
 26 27  2  0
 26 28  1  0
M  END
$$$$
