YAH.pdb
     RDKit          3D

 28 29  0  0  1  0  0  0  0  0999 V2000
    7.4781  -12.3778   16.9769 O   0  0  0  0  0  0  0  0  0  0  0  0
    7.8343  -13.0855   18.1173 C   0  0  0  0  0  0  0  0  0  0  0  0
    6.9283  -13.2857   19.1406 C   0  0  0  0  0  0  0  0  0  0  0  0
    7.2914  -13.9804   20.2506 C   0  0  0  0  0  0  0  0  0  0  0  0
    8.5650  -14.5078   20.3987 C   0  0  0  0  0  0  0  0  0  0  0  0
    8.9394  -15.2649   21.6232 C   0  0  0  0  0  0  0  0  0  0  0  0
    9.1204  -16.7172   21.2479 C   0  0  2  0  0  0  0  0  0  0  0  0
    7.8220  -17.2425   20.8149 N   0  0  0  0  0  0  0  0  0  0  0  0
    9.5623  -17.5453   22.3771 C   0  0  0  0  0  0  0  0  0  0  0  0
    8.7888  -17.8875   23.3355 O   0  0  0  0  0  0  0  0  0  0  0  0
    9.4961  -14.3220   19.3860 C   0  0  0  0  0  0  0  0  0  0  0  0
    9.1030  -13.6114   18.2657 C   0  0  0  0  0  0  0  0  0  0  0  0
   12.5998  -19.6256   23.2866 C   0  0  0  0  0  0  0  0  0  0  0  0
   11.3408  -18.8297   23.6125 C   0  0  2  0  0  0  0  0  0  0  0  0
   10.9054  -18.0400   22.4965 N   0  0  0  0  0  0  0  0  0  0  0  0
   11.7047  -17.9102   24.7199 C   0  0  0  0  0  0  0  0  0  0  0  0
   12.0856  -16.7501   24.4347 O   0  0  0  0  0  0  0  0  0  0  0  0
   11.6435  -18.2769   26.0811 N   0  0  0  0  0  0  0  0  0  0  0  0
   11.4803  -17.2299   27.0852 C   0  0  1  0  0  0  0  0  0  0  0  0
   10.3008  -16.3514   26.7538 C   0  0  0  0  0  0  0  0  0  0  0  0
   10.0987  -15.3286   27.7800 C   0  0  0  0  0  0  0  0  0  0  0  0
   10.8428  -15.1841   28.9359 C   0  0  0  0  0  0  0  0  0  0  0  0
   10.3247  -14.1451   29.6017 N   0  0  0  0  0  0  0  0  0  0  0  0
    9.2962  -13.6408   28.9124 C   0  0  0  0  0  0  0  0  0  0  0  0
    9.1395  -14.3554   27.7863 N   0  0  0  0  0  0  0  0  0  0  0  0
   11.3974  -17.8904   28.3985 C   0  0  0  0  0  0  0  0  0  0  0  0
   10.6262  -18.8603   28.5630 O   0  0  0  0  0  0  0  0  0  0  0  0
   12.1570  -17.4672   29.4707 O   0  0  0  0  0  0  0  0  0  0  0  0
  2 12  2  0
  2  1  1  0
  3  2  1  0
  4  5  1  0
  4  3  2  0
  5 11  2  0
  6  5  1  0
  6  7  1  0
  7  8  1  1
  9  7  1  0
  9 15  1  0
 10  9  2  0
 11 12  1  0
 14 13  1  6
 14 15  1  0
 14 16  1  0
 16 17  2  0
 16 18  1  0
 18 19  1  0
 19 26  1  0
 19 20  1  6
 21 20  1  0
 22 21  2  0
 23 24  1  0
 23 22  1  0
 24 25  2  0
 25 21  1  0
 26 27  2  0
 26 28  1  0
M  END
$$$$
