MKY.pdb
     RDKit          3D

 30 30  0  0  1  0  0  0  0  0999 V2000
    8.6412  -12.1715   17.0190 C   0  0  0  0  0  0  0  0  0  0  0  0
    8.4226  -13.1541   18.5483 S   0  0  0  0  0  0  0  0  0  0  0  0
    6.7508  -13.8640   18.4781 C   0  0  0  0  0  0  0  0  0  0  0  0
    6.4988  -14.5674   19.7657 C   0  0  0  0  0  0  0  0  0  0  0  0
    7.7270  -15.2941   20.2519 C   0  0  2  0  0  0  0  0  0  0  0  0
    8.0144  -16.4266   19.3620 N   0  0  0  0  0  0  0  0  0  0  0  0
    7.4788  -15.8535   21.5995 C   0  0  0  0  0  0  0  0  0  0  0  0
    7.1676  -15.1256   22.5707 O   0  0  0  0  0  0  0  0  0  0  0  0
    7.5893  -17.2395   21.8198 N   0  0  0  0  0  0  0  0  0  0  0  0
    7.2980  -17.7615   23.1624 C   0  0  1  0  0  0  0  0  0  0  0  0
    7.2414  -19.2517   23.1394 C   0  0  0  0  0  0  0  0  0  0  0  0
    7.0950  -19.8557   24.4848 C   0  0  0  0  0  0  0  0  0  0  0  0
    7.1017  -21.3553   24.4336 C   0  0  0  0  0  0  0  0  0  0  0  0
    6.8794  -21.9800   25.7787 C   0  0  0  0  0  0  0  0  0  0  0  0
    6.9232  -23.4256   25.7267 N   0  0  0  0  0  0  0  0  0  0  0  0
    8.4470  -17.3127   23.9984 C   0  0  0  0  0  0  0  0  0  0  0  0
    9.6150  -17.6272   23.6561 O   0  0  0  0  0  0  0  0  0  0  0  0
    5.3914  -11.3856   27.1490 O   0  0  0  0  0  0  0  0  0  0  0  0
    6.4639  -12.2026   26.7980 C   0  0  0  0  0  0  0  0  0  0  0  0
    7.5280  -12.4048   27.6529 C   0  0  0  0  0  0  0  0  0  0  0  0
    8.6083  -13.2243   27.3060 C   0  0  0  0  0  0  0  0  0  0  0  0
    8.6166  -13.8478   26.0826 C   0  0  0  0  0  0  0  0  0  0  0  0
    9.7233  -14.7113   25.6648 C   0  0  0  0  0  0  0  0  0  0  0  0
    9.4677  -16.1850   25.9468 C   0  0  2  0  0  0  0  0  0  0  0  0
    8.2969  -16.5380   25.1788 N   0  0  0  0  0  0  0  0  0  0  0  0
    9.1945  -16.4531   27.3756 C   0  0  0  0  0  0  0  0  0  0  0  0
    7.9906  -16.9509   27.7846 O   0  0  0  0  0  0  0  0  0  0  0  0
    7.5472  -13.6432   25.2265 C   0  0  0  0  0  0  0  0  0  0  0  0
    6.4762  -12.8324   25.5672 C   0  0  0  0  0  0  0  0  0  0  0  0
   10.0982  -16.2120   28.2086 O   0  0  0  0  0  0  0  0  0  0  0  0
  1  2  1  0
  3  2  1  0
  4  5  1  0
  4  3  1  0
  5  6  1  6
  7  5  1  0
  8  7  2  0
  9  7  1  0
 10 11  1  6
 10  9  1  0
 11 12  1  0
 12 13  1  0
 13 14  1  0
 15 14  1  0
 16 25  1  0
 16 10  1  0
 17 16  2  0
 19 29  2  0
 19 18  1  0
 20 19  1  0
 21 22  1  0
 21 20  2  0
 22 28  2  0
 23 22  1  0
 24 23  1  1
 24 25  1  0
 26 24  1  0
 26 27  1  0
 28 29  1  0
 30 26  2  0
M  END
$$$$
