MKY.pdb
     RDKit          3D

 30 30  0  0  1  0  0  0  0  0999 V2000
    6.4779  -11.7306   19.4880 C   0  0  0  0  0  0  0  0  0  0  0  0
    7.0421  -12.1812   17.8055 S   0  0  0  0  0  0  0  0  0  0  0  0
    8.5763  -13.1347   18.0071 C   0  0  0  0  0  0  0  0  0  0  0  0
    8.5462  -13.7694   19.3533 C   0  0  0  0  0  0  0  0  0  0  0  0
    9.8521  -14.4499   19.6764 C   0  0  2  0  0  0  0  0  0  0  0  0
   10.3265  -15.1902   18.4999 N   0  0  0  0  0  0  0  0  0  0  0  0
    9.6486  -15.4392   20.7582 C   0  0  0  0  0  0  0  0  0  0  0  0
    9.0169  -15.1563   21.8027 O   0  0  0  0  0  0  0  0  0  0  0  0
   10.1699  -16.7407   20.6320 N   0  0  0  0  0  0  0  0  0  0  0  0
    9.8563  -17.7261   21.6763 C   0  0  1  0  0  0  0  0  0  0  0  0
   10.4427  -19.0532   21.3312 C   0  0  0  0  0  0  0  0  0  0  0  0
    9.5330  -19.9088   20.5332 C   0  0  0  0  0  0  0  0  0  0  0  0
   10.1474  -21.2394   20.2119 C   0  0  0  0  0  0  0  0  0  0  0  0
    9.2688  -22.0855   19.3393 C   0  0  0  0  0  0  0  0  0  0  0  0
    9.9417  -23.2805   18.8770 N   0  0  0  0  0  0  0  0  0  0  0  0
   10.5063  -17.1912   22.9060 C   0  0  0  0  0  0  0  0  0  0  0  0
   11.6831  -16.7545   22.8379 O   0  0  0  0  0  0  0  0  0  0  0  0
   11.3078  -14.6799   31.3678 O   0  0  0  0  0  0  0  0  0  0  0  0
   10.9029  -14.9278   30.0581 C   0  0  0  0  0  0  0  0  0  0  0  0
   11.0360  -13.9756   29.0683 C   0  0  0  0  0  0  0  0  0  0  0  0
   10.6310  -14.2186   27.7508 C   0  0  0  0  0  0  0  0  0  0  0  0
   10.0851  -15.4362   27.4265 C   0  0  0  0  0  0  0  0  0  0  0  0
    9.6388  -15.7432   26.0658 C   0  0  0  0  0  0  0  0  0  0  0  0
   10.5942  -16.6633   25.3192 C   0  0  2  0  0  0  0  0  0  0  0  0
    9.8631  -17.1458   24.1711 N   0  0  0  0  0  0  0  0  0  0  0  0
   11.0191  -17.8243   26.1313 C   0  0  0  0  0  0  0  0  0  0  0  0
   12.1932  -17.8087   26.8282 O   0  0  0  0  0  0  0  0  0  0  0  0
    9.9528  -16.3902   28.4218 C   0  0  0  0  0  0  0  0  0  0  0  0
   10.3529  -16.1525   29.7272 C   0  0  0  0  0  0  0  0  0  0  0  0
   10.2731  -18.8298   26.1662 O   0  0  0  0  0  0  0  0  0  0  0  0
  1  2  1  0
  3  2  1  0
  4  5  1  0
  4  3  1  0
  5  6  1  6
  7  5  1  0
  8  7  2  0
  9  7  1  0
 10 11  1  6
 10  9  1  0
 11 12  1  0
 12 13  1  0
 13 14  1  0
 15 14  1  0
 16 25  1  0
 16 10  1  0
 17 16  2  0
 19 29  2  0
 19 18  1  0
 20 19  1  0
 21 22  1  0
 21 20  2  0
 22 28  2  0
 23 22  1  0
 24 23  1  1
 24 25  1  0
 26 24  1  0
 26 27  1  0
 28 29  1  0
 30 26  2  0
M  END
$$$$
