MKY.pdb
     RDKit          3D

 30 30  0  0  1  0  0  0  0  0999 V2000
    6.8185  -11.1435   19.0883 C   0  0  0  0  0  0  0  0  0  0  0  0
    7.6993  -12.3947   20.0937 S   0  0  0  0  0  0  0  0  0  0  0  0
    6.7372  -13.9321   19.9740 C   0  0  0  0  0  0  0  0  0  0  0  0
    7.4643  -14.9864   20.7329 C   0  0  0  0  0  0  0  0  0  0  0  0
    7.8019  -16.1675   19.8589 C   0  0  2  0  0  0  0  0  0  0  0  0
    6.5911  -16.9619   19.6141 N   0  0  0  0  0  0  0  0  0  0  0  0
    8.7652  -17.0488   20.5560 C   0  0  0  0  0  0  0  0  0  0  0  0
    8.3924  -17.9102   21.3860 O   0  0  0  0  0  0  0  0  0  0  0  0
   10.1437  -16.9343   20.2949 N   0  0  0  0  0  0  0  0  0  0  0  0
   11.0776  -17.7440   21.0900 C   0  0  1  0  0  0  0  0  0  0  0  0
   12.3787  -17.8879   20.3753 C   0  0  0  0  0  0  0  0  0  0  0  0
   12.3642  -18.9419   19.3335 C   0  0  0  0  0  0  0  0  0  0  0  0
   13.6878  -19.0653   18.6375 C   0  0  0  0  0  0  0  0  0  0  0  0
   13.7141  -20.1863   17.6416 C   0  0  0  0  0  0  0  0  0  0  0  0
   15.0192  -20.3546   17.0389 N   0  0  0  0  0  0  0  0  0  0  0  0
   11.2748  -16.9666   22.3460 C   0  0  0  0  0  0  0  0  0  0  0  0
   11.6099  -15.7572   22.2731 O   0  0  0  0  0  0  0  0  0  0  0  0
   10.9474  -14.4103   30.7565 O   0  0  0  0  0  0  0  0  0  0  0  0
   10.7503  -14.9210   29.4754 C   0  0  0  0  0  0  0  0  0  0  0  0
   10.4796  -14.0962   28.4028 C   0  0  0  0  0  0  0  0  0  0  0  0
   10.2806  -14.6032   27.1135 C   0  0  0  0  0  0  0  0  0  0  0  0
   10.3552  -15.9580   26.9023 C   0  0  0  0  0  0  0  0  0  0  0  0
   10.1499  -16.5441   25.5760 C   0  0  0  0  0  0  0  0  0  0  0  0
   11.4462  -16.7313   24.8006 C   0  0  2  0  0  0  0  0  0  0  0  0
   11.1038  -17.5218   23.6416 N   0  0  0  0  0  0  0  0  0  0  0  0
   12.4764  -17.4539   25.5781 C   0  0  0  0  0  0  0  0  0  0  0  0
   13.3844  -16.7823   26.3455 O   0  0  0  0  0  0  0  0  0  0  0  0
   10.6271  -16.7835   27.9807 C   0  0  0  0  0  0  0  0  0  0  0  0
   10.8246  -16.2845   29.2584 C   0  0  0  0  0  0  0  0  0  0  0  0
   12.4981  -18.7047   25.5170 O   0  0  0  0  0  0  0  0  0  0  0  0
  1  2  1  0
  3  2  1  0
  4  5  1  0
  4  3  1  0
  5  6  1  1
  7  5  1  0
  8  7  2  0
  9  7  1  0
 10 11  1  6
 10  9  1  0
 11 12  1  0
 12 13  1  0
 13 14  1  0
 15 14  1  0
 16 25  1  0
 16 10  1  0
 17 16  2  0
 19 29  2  0
 19 18  1  0
 20 19  1  0
 21 22  1  0
 21 20  2  0
 22 28  2  0
 23 22  1  0
 24 23  1  1
 24 25  1  0
 26 24  1  0
 26 27  1  0
 28 29  1  0
 30 26  2  0
M  END
$$$$
