MKY.pdb
     RDKit          3D

 30 30  0  0  1  0  0  0  0  0999 V2000
    7.3230  -12.3534   26.5564 C   0  0  0  0  0  0  0  0  0  0  0  0
    6.8392  -11.5469   24.9855 S   0  0  0  0  0  0  0  0  0  0  0  0
    6.2200  -12.8609   23.8930 C   0  0  0  0  0  0  0  0  0  0  0  0
    7.2811  -13.8989   23.7799 C   0  0  0  0  0  0  0  0  0  0  0  0
    6.8732  -15.0116   22.8481 C   0  0  2  0  0  0  0  0  0  0  0  0
    5.7044  -15.7112   23.3974 N   0  0  0  0  0  0  0  0  0  0  0  0
    7.9648  -16.0058   22.7452 C   0  0  0  0  0  0  0  0  0  0  0  0
    8.0609  -16.9674   23.5428 O   0  0  0  0  0  0  0  0  0  0  0  0
    8.9334  -15.8882   21.7305 N   0  0  0  0  0  0  0  0  0  0  0  0
   10.0590  -16.8332   21.7228 C   0  0  1  0  0  0  0  0  0  0  0  0
   10.7626  -16.7922   20.4084 C   0  0  0  0  0  0  0  0  0  0  0  0
    9.9900  -17.4151   19.3078 C   0  0  0  0  0  0  0  0  0  0  0  0
   10.7227  -17.3549   17.9998 C   0  0  0  0  0  0  0  0  0  0  0  0
    9.8878  -17.8292   16.8478 C   0  0  0  0  0  0  0  0  0  0  0  0
   10.5924  -17.7425   15.5867 N   0  0  0  0  0  0  0  0  0  0  0  0
   10.9682  -16.3446   22.7976 C   0  0  0  0  0  0  0  0  0  0  0  0
   11.1249  -15.1071   22.9537 O   0  0  0  0  0  0  0  0  0  0  0  0
   10.9568  -15.3813   31.2010 O   0  0  0  0  0  0  0  0  0  0  0  0
   10.8719  -15.6910   29.8453 C   0  0  0  0  0  0  0  0  0  0  0  0
   11.1319  -16.9627   29.3772 C   0  0  0  0  0  0  0  0  0  0  0  0
   11.0483  -17.2799   28.0165 C   0  0  0  0  0  0  0  0  0  0  0  0
   10.6985  -16.3036   27.1164 C   0  0  0  0  0  0  0  0  0  0  0  0
   10.6014  -16.5774   25.6810 C   0  0  0  0  0  0  0  0  0  0  0  0
   11.9575  -16.7806   25.0205 C   0  0  2  0  0  0  0  0  0  0  0  0
   11.6799  -17.2099   23.6699 N   0  0  0  0  0  0  0  0  0  0  0  0
   12.7678  -17.8212   25.6903 C   0  0  0  0  0  0  0  0  0  0  0  0
   13.6398  -17.5034   26.6919 O   0  0  0  0  0  0  0  0  0  0  0  0
   10.4380  -15.0281   27.5891 C   0  0  0  0  0  0  0  0  0  0  0  0
   10.5199  -14.7110   28.9356 C   0  0  0  0  0  0  0  0  0  0  0  0
   12.6360  -19.0091   25.3160 O   0  0  0  0  0  0  0  0  0  0  0  0
  1  2  1  0
  3  2  1  0
  4  5  1  0
  4  3  1  0
  5  6  1  1
  7  5  1  0
  8  7  2  0
  9  7  1  0
 10 11  1  6
 10  9  1  0
 11 12  1  0
 12 13  1  0
 13 14  1  0
 15 14  1  0
 16 25  1  0
 16 10  1  0
 17 16  2  0
 19 29  2  0
 19 18  1  0
 20 19  1  0
 21 22  1  0
 21 20  2  0
 22 28  2  0
 23 22  1  0
 24 23  1  1
 24 25  1  0
 26 24  1  0
 26 27  1  0
 28 29  1  0
 30 26  2  0
M  END
$$$$
