MKY.pdb
     RDKit          3D

 30 30  0  0  1  0  0  0  0  0999 V2000
    9.1961  -11.3694   18.7451 C   0  0  0  0  0  0  0  0  0  0  0  0
    7.8051  -12.5575   18.8217 S   0  0  0  0  0  0  0  0  0  0  0  0
    8.1206  -13.8138   17.5467 C   0  0  0  0  0  0  0  0  0  0  0  0
    8.2124  -15.1373   18.2221 C   0  0  0  0  0  0  0  0  0  0  0  0
    9.3012  -15.1550   19.2647 C   0  0  2  0  0  0  0  0  0  0  0  0
   10.6027  -15.3575   18.6150 N   0  0  0  0  0  0  0  0  0  0  0  0
    9.0949  -16.2943   20.1867 C   0  0  0  0  0  0  0  0  0  0  0  0
    7.9794  -16.5313   20.7058 O   0  0  0  0  0  0  0  0  0  0  0  0
   10.1674  -17.1492   20.5036 N   0  0  0  0  0  0  0  0  0  0  0  0
   10.0104  -18.0847   21.6262 C   0  0  1  0  0  0  0  0  0  0  0  0
   11.1446  -19.0526   21.6583 C   0  0  0  0  0  0  0  0  0  0  0  0
   11.0677  -20.0118   22.7854 C   0  0  0  0  0  0  0  0  0  0  0  0
   12.1919  -21.0052   22.7584 C   0  0  0  0  0  0  0  0  0  0  0  0
   12.1288  -21.9798   23.8965 C   0  0  0  0  0  0  0  0  0  0  0  0
   13.1717  -22.9804   23.8208 N   0  0  0  0  0  0  0  0  0  0  0  0
   10.0469  -17.2236   22.8418 C   0  0  0  0  0  0  0  0  0  0  0  0
   10.9558  -16.3628   22.9572 O   0  0  0  0  0  0  0  0  0  0  0  0
    6.4921  -11.0890   27.7746 O   0  0  0  0  0  0  0  0  0  0  0  0
    6.8280  -12.1402   26.9244 C   0  0  0  0  0  0  0  0  0  0  0  0
    7.9372  -12.0810   26.1058 C   0  0  0  0  0  0  0  0  0  0  0  0
    8.2798  -13.1338   25.2495 C   0  0  0  0  0  0  0  0  0  0  0  0
    7.4950  -14.2602   25.2175 C   0  0  0  0  0  0  0  0  0  0  0  0
    7.8024  -15.3893   24.3370 C   0  0  0  0  0  0  0  0  0  0  0  0
    8.9703  -16.2302   24.8328 C   0  0  2  0  0  0  0  0  0  0  0  0
    9.0994  -17.3206   23.8948 N   0  0  0  0  0  0  0  0  0  0  0  0
    8.7368  -16.7915   26.1812 C   0  0  0  0  0  0  0  0  0  0  0  0
    9.1982  -16.1597   27.3004 O   0  0  0  0  0  0  0  0  0  0  0  0
    6.3823  -14.3170   26.0403 C   0  0  0  0  0  0  0  0  0  0  0  0
    6.0406  -13.2763   26.8892 C   0  0  0  0  0  0  0  0  0  0  0  0
    8.1020  -17.8671   26.2752 O   0  0  0  0  0  0  0  0  0  0  0  0
  1  2  1  0
  3  2  1  0
  4  5  1  0
  4  3  1  0
  5  6  1  6
  7  5  1  0
  8  7  2  0
  9  7  1  0
 10 11  1  1
 10  9  1  0
 11 12  1  0
 12 13  1  0
 13 14  1  0
 15 14  1  0
 16 25  1  0
 16 10  1  0
 17 16  2  0
 19 29  2  0
 19 18  1  0
 20 19  1  0
 21 22  1  0
 21 20  2  0
 22 28  2  0
 23 22  1  0
 24 23  1  6
 24 25  1  0
 26 24  1  0
 26 27  1  0
 28 29  1  0
 30 26  2  0
M  END
$$$$
