MKY.pdb
     RDKit          3D

 30 30  0  0  1  0  0  0  0  0999 V2000
    8.7896  -11.6121   20.5095 C   0  0  0  0  0  0  0  0  0  0  0  0
    7.2936  -12.3211   19.7276 S   0  0  0  0  0  0  0  0  0  0  0  0
    7.5684  -14.1135   19.6046 C   0  0  0  0  0  0  0  0  0  0  0  0
    7.5842  -14.6692   20.9856 C   0  0  0  0  0  0  0  0  0  0  0  0
    8.9857  -14.9891   21.4399 C   0  0  2  0  0  0  0  0  0  0  0  0
    9.7292  -15.6173   20.3401 N   0  0  0  0  0  0  0  0  0  0  0  0
    8.9426  -15.9682   22.5490 C   0  0  0  0  0  0  0  0  0  0  0  0
    7.9272  -16.1065   23.2700 O   0  0  0  0  0  0  0  0  0  0  0  0
   10.0619  -16.7778   22.8199 N   0  0  0  0  0  0  0  0  0  0  0  0
   10.0071  -17.6870   23.9734 C   0  0  1  0  0  0  0  0  0  0  0  0
   11.0023  -18.7866   23.8159 C   0  0  0  0  0  0  0  0  0  0  0  0
   10.5977  -19.8082   22.8214 C   0  0  0  0  0  0  0  0  0  0  0  0
    9.5872  -20.7678   23.3776 C   0  0  0  0  0  0  0  0  0  0  0  0
    9.1460  -21.7891   22.3720 C   0  0  0  0  0  0  0  0  0  0  0  0
    8.1561  -22.6975   22.9101 N   0  0  0  0  0  0  0  0  0  0  0  0
   10.3746  -16.8368   25.1407 C   0  0  0  0  0  0  0  0  0  0  0  0
   11.3535  -16.0538   25.0459 O   0  0  0  0  0  0  0  0  0  0  0  0
    5.7810  -12.1503   24.9168 O   0  0  0  0  0  0  0  0  0  0  0  0
    6.5625  -12.9714   25.7267 C   0  0  0  0  0  0  0  0  0  0  0  0
    7.6718  -12.4875   26.3896 C   0  0  0  0  0  0  0  0  0  0  0  0
    8.4608  -13.3075   27.2045 C   0  0  0  0  0  0  0  0  0  0  0  0
    8.1281  -14.6314   27.3533 C   0  0  0  0  0  0  0  0  0  0  0  0
    8.9208  -15.5364   28.1885 C   0  0  0  0  0  0  0  0  0  0  0  0
   10.1583  -16.0694   27.4805 C   0  0  2  0  0  0  0  0  0  0  0  0
    9.6720  -16.8602   26.3744 N   0  0  0  0  0  0  0  0  0  0  0  0
   10.9860  -16.9325   28.3510 C   0  0  0  0  0  0  0  0  0  0  0  0
   11.6872  -16.4134   29.4014 O   0  0  0  0  0  0  0  0  0  0  0  0
    7.0141  -15.1144   26.6870 C   0  0  0  0  0  0  0  0  0  0  0  0
    6.2309  -14.3050   25.8795 C   0  0  0  0  0  0  0  0  0  0  0  0
   11.0301  -18.1592   28.1021 O   0  0  0  0  0  0  0  0  0  0  0  0
  1  2  1  0
  3  2  1  0
  4  5  1  0
  4  3  1  0
  5  6  1  6
  7  5  1  0
  8  7  2  0
  9  7  1  0
 10 11  1  6
 10  9  1  0
 11 12  1  0
 12 13  1  0
 13 14  1  0
 15 14  1  0
 16 25  1  0
 16 10  1  0
 17 16  2  0
 19 29  2  0
 19 18  1  0
 20 19  1  0
 21 22  1  0
 21 20  2  0
 22 28  2  0
 23 22  1  0
 24 23  1  1
 24 25  1  0
 26 24  1  0
 26 27  1  0
 28 29  1  0
 30 26  2  0
M  END
$$$$
