MKY.pdb
     RDKit          3D

 30 30  0  0  1  0  0  0  0  0999 V2000
    8.5344  -18.1081   16.0967 C   0  0  0  0  0  0  0  0  0  0  0  0
    8.7270  -19.8340   16.6767 S   0  0  0  0  0  0  0  0  0  0  0  0
    8.6598  -19.7852   18.4924 C   0  0  0  0  0  0  0  0  0  0  0  0
    9.1377  -18.4454   18.9314 C   0  0  0  0  0  0  0  0  0  0  0  0
    9.2307  -18.3531   20.4333 C   0  0  2  0  0  0  0  0  0  0  0  0
    7.9579  -18.7744   21.0330 N   0  0  0  0  0  0  0  0  0  0  0  0
    9.4559  -16.9470   20.8369 C   0  0  0  0  0  0  0  0  0  0  0  0
   10.5217  -16.3449   20.5697 O   0  0  0  0  0  0  0  0  0  0  0  0
    8.4585  -16.2464   21.5412 N   0  0  0  0  0  0  0  0  0  0  0  0
    8.7257  -14.8569   21.9388 C   0  0  1  0  0  0  0  0  0  0  0  0
    7.5502  -13.9928   21.6291 C   0  0  0  0  0  0  0  0  0  0  0  0
    7.1710  -14.0066   20.1965 C   0  0  0  0  0  0  0  0  0  0  0  0
    8.2019  -13.3400   19.3337 C   0  0  0  0  0  0  0  0  0  0  0  0
    7.7906  -13.2685   17.8933 C   0  0  0  0  0  0  0  0  0  0  0  0
    8.8110  -12.6693   17.0600 N   0  0  0  0  0  0  0  0  0  0  0  0
    8.9313  -14.9202   23.4134 C   0  0  0  0  0  0  0  0  0  0  0  0
    8.5017  -13.9838   24.1338 O   0  0  0  0  0  0  0  0  0  0  0  0
    6.1840  -10.9133   27.1425 O   0  0  0  0  0  0  0  0  0  0  0  0
    6.6594  -12.1880   26.8426 C   0  0  0  0  0  0  0  0  0  0  0  0
    5.8473  -13.1459   26.2709 C   0  0  0  0  0  0  0  0  0  0  0  0
    6.3192  -14.4282   25.9674 C   0  0  0  0  0  0  0  0  0  0  0  0
    7.6254  -14.7493   26.2434 C   0  0  0  0  0  0  0  0  0  0  0  0
    8.1710  -16.0769   25.9526 C   0  0  0  0  0  0  0  0  0  0  0  0
    9.6255  -16.0381   25.5057 C   0  0  2  0  0  0  0  0  0  0  0  0
    9.5954  -15.9941   24.0626 N   0  0  0  0  0  0  0  0  0  0  0  0
   10.3834  -17.2367   25.9265 C   0  0  0  0  0  0  0  0  0  0  0  0
   10.8757  -18.1207   25.0097 O   0  0  0  0  0  0  0  0  0  0  0  0
    8.4384  -13.7859   26.8172 C   0  0  0  0  0  0  0  0  0  0  0  0
    7.9741  -12.5154   27.1188 C   0  0  0  0  0  0  0  0  0  0  0  0
   10.5654  -17.4246   27.1514 O   0  0  0  0  0  0  0  0  0  0  0  0
  1  2  1  0
  3  2  1  0
  4  5  1  0
  4  3  1  0
  5  6  1  1
  7  5  1  0
  8  7  2  0
  9  7  1  0
 10 11  1  1
 10  9  1  0
 11 12  1  0
 12 13  1  0
 13 14  1  0
 15 14  1  0
 16 25  1  0
 16 10  1  0
 17 16  2  0
 19 29  2  0
 19 18  1  0
 20 19  1  0
 21 22  1  0
 21 20  2  0
 22 28  2  0
 23 22  1  0
 24 23  1  1
 24 25  1  0
 26 24  1  0
 26 27  1  0
 28 29  1  0
 30 26  2  0
M  END
$$$$
