MKY.pdb
     RDKit          3D

 30 30  0  0  1  0  0  0  0  0999 V2000
   11.6628  -18.1523   16.4134 C   0  0  0  0  0  0  0  0  0  0  0  0
   11.1657  -19.8511   16.8817 S   0  0  0  0  0  0  0  0  0  0  0  0
   10.5297  -19.7591   18.5819 C   0  0  0  0  0  0  0  0  0  0  0  0
   11.1403  -18.5684   19.2343 C   0  0  0  0  0  0  0  0  0  0  0  0
   10.6990  -18.4334   20.6695 C   0  0  2  0  0  0  0  0  0  0  0  0
    9.2898  -18.8290   20.7912 N   0  0  0  0  0  0  0  0  0  0  0  0
   10.7900  -17.0178   21.0918 C   0  0  0  0  0  0  0  0  0  0  0  0
   11.8690  -16.3824   21.0468 O   0  0  0  0  0  0  0  0  0  0  0  0
    9.6451  -16.3458   21.5602 N   0  0  0  0  0  0  0  0  0  0  0  0
    9.7827  -14.9511   22.0027 C   0  0  1  0  0  0  0  0  0  0  0  0
    8.6413  -14.1322   21.5017 C   0  0  0  0  0  0  0  0  0  0  0  0
    8.8249  -13.6563   20.1102 C   0  0  0  0  0  0  0  0  0  0  0  0
    7.6535  -12.8508   19.6304 C   0  0  0  0  0  0  0  0  0  0  0  0
    7.8269  -12.3610   18.2235 C   0  0  0  0  0  0  0  0  0  0  0  0
    7.8721  -13.4455   17.2663 N   0  0  0  0  0  0  0  0  0  0  0  0
    9.7383  -15.0221   23.4906 C   0  0  0  0  0  0  0  0  0  0  0  0
    9.8690  -13.9659   24.1597 O   0  0  0  0  0  0  0  0  0  0  0  0
    5.9698  -10.9959   26.7499 O   0  0  0  0  0  0  0  0  0  0  0  0
    6.4672  -12.2835   26.5617 C   0  0  0  0  0  0  0  0  0  0  0  0
    5.7929  -13.2138   25.7974 C   0  0  0  0  0  0  0  0  0  0  0  0
    6.2875  -14.5089   25.6047 C   0  0  0  0  0  0  0  0  0  0  0  0
    7.4759  -14.8712   26.1894 C   0  0  0  0  0  0  0  0  0  0  0  0
    8.0375  -16.2140   26.0266 C   0  0  0  0  0  0  0  0  0  0  0  0
    9.5125  -16.2010   25.6513 C   0  0  2  0  0  0  0  0  0  0  0  0
    9.5543  -16.2334   24.2082 N   0  0  0  0  0  0  0  0  0  0  0  0
   10.2437  -17.3768   26.1720 C   0  0  0  0  0  0  0  0  0  0  0  0
   10.3540  -17.6042   27.5139 O   0  0  0  0  0  0  0  0  0  0  0  0
    8.1506  -13.9355   26.9559 C   0  0  0  0  0  0  0  0  0  0  0  0
    7.6636  -12.6524   27.1484 C   0  0  0  0  0  0  0  0  0  0  0  0
   10.7633  -18.1653   25.3493 O   0  0  0  0  0  0  0  0  0  0  0  0
  1  2  1  0
  3  2  1  0
  4  5  1  0
  4  3  1  0
  5  6  1  6
  7  5  1  0
  8  7  2  0
  9  7  1  0
 10 11  1  6
 10  9  1  0
 11 12  1  0
 12 13  1  0
 13 14  1  0
 15 14  1  0
 16 25  1  0
 16 10  1  0
 17 16  2  0
 19 29  2  0
 19 18  1  0
 20 19  1  0
 21 22  1  0
 21 20  2  0
 22 28  2  0
 23 22  1  0
 24 23  1  6
 24 25  1  0
 26 24  1  0
 26 27  1  0
 28 29  1  0
 30 26  2  0
M  END
$$$$
