MKY.pdb
     RDKit          3D

 30 30  0  0  1  0  0  0  0  0999 V2000
    2.0438  -18.6217   20.2413 C   0  0  0  0  0  0  0  0  0  0  0  0
    2.3516  -20.0035   21.4024 S   0  0  0  0  0  0  0  0  0  0  0  0
    3.4700  -19.3674   22.6862 C   0  0  0  0  0  0  0  0  0  0  0  0
    4.6905  -18.8464   22.0116 C   0  0  0  0  0  0  0  0  0  0  0  0
    5.7003  -18.3345   23.0072 C   0  0  2  0  0  0  0  0  0  0  0  0
    5.0568  -17.3731   23.9121 N   0  0  0  0  0  0  0  0  0  0  0  0
    6.7793  -17.6090   22.3001 C   0  0  0  0  0  0  0  0  0  0  0  0
    7.5418  -18.1844   21.4893 O   0  0  0  0  0  0  0  0  0  0  0  0
    6.9728  -16.2335   22.5288 N   0  0  0  0  0  0  0  0  0  0  0  0
    8.0974  -15.5631   21.8612 C   0  0  1  0  0  0  0  0  0  0  0  0
    7.6331  -14.3158   21.1882 C   0  0  0  0  0  0  0  0  0  0  0  0
    7.2610  -14.5172   19.7679 C   0  0  0  0  0  0  0  0  0  0  0  0
    7.8932  -13.4959   18.8687 C   0  0  0  0  0  0  0  0  0  0  0  0
    7.5225  -13.6863   17.4281 C   0  0  0  0  0  0  0  0  0  0  0  0
    8.1403  -12.7004   16.5673 N   0  0  0  0  0  0  0  0  0  0  0  0
    9.0400  -15.2211   22.9635 C   0  0  0  0  0  0  0  0  0  0  0  0
    8.6268  -14.5382   23.9347 O   0  0  0  0  0  0  0  0  0  0  0  0
    9.6894  -14.4448   30.3468 O   0  0  0  0  0  0  0  0  0  0  0  0
    9.8381  -14.9859   29.0717 C   0  0  0  0  0  0  0  0  0  0  0  0
   10.4228  -16.2201   28.8744 C   0  0  0  0  0  0  0  0  0  0  0  0
   10.5750  -16.7689   27.5959 C   0  0  0  0  0  0  0  0  0  0  0  0
   10.1328  -16.0654   26.5026 C   0  0  0  0  0  0  0  0  0  0  0  0
   10.2715  -16.5883   25.1417 C   0  0  0  0  0  0  0  0  0  0  0  0
   11.1045  -15.6883   24.2401 C   0  0  2  0  0  0  0  0  0  0  0  0
   10.4002  -15.6281   22.9808 N   0  0  0  0  0  0  0  0  0  0  0  0
   12.4620  -16.2234   23.9975 C   0  0  0  0  0  0  0  0  0  0  0  0
   13.5285  -15.8125   24.7446 O   0  0  0  0  0  0  0  0  0  0  0  0
    9.5462  -14.8269   26.7036 C   0  0  0  0  0  0  0  0  0  0  0  0
    9.3940  -14.2810   27.9682 C   0  0  0  0  0  0  0  0  0  0  0  0
   12.6133  -17.0680   23.0851 O   0  0  0  0  0  0  0  0  0  0  0  0
  1  2  1  0
  3  2  1  0
  4  5  1  0
  4  3  1  0
  5  6  1  1
  7  5  1  0
  8  7  2  0
  9  7  1  0
 10 11  1  1
 10  9  1  0
 11 12  1  0
 12 13  1  0
 13 14  1  0
 15 14  1  0
 16 25  1  0
 16 10  1  0
 17 16  2  0
 19 29  2  0
 19 18  1  0
 20 19  1  0
 21 22  1  0
 21 20  2  0
 22 28  2  0
 23 22  1  0
 24 23  1  1
 24 25  1  0
 26 24  1  0
 26 27  1  0
 28 29  1  0
 30 26  2  0
M  END
$$$$
