MKY.pdb
     RDKit          3D

 30 30  0  0  1  0  0  0  0  0999 V2000
    6.4771  -12.1942   19.8255 C   0  0  0  0  0  0  0  0  0  0  0  0
    7.9247  -12.4280   18.7291 S   0  0  0  0  0  0  0  0  0  0  0  0
    8.5992  -14.0748   19.0990 C   0  0  0  0  0  0  0  0  0  0  0  0
    8.2103  -14.4253   20.4926 C   0  0  0  0  0  0  0  0  0  0  0  0
    9.1305  -15.4640   21.0818 C   0  0  2  0  0  0  0  0  0  0  0  0
    9.4697  -16.4604   20.0574 N   0  0  0  0  0  0  0  0  0  0  0  0
    8.4402  -16.1840   22.1752 C   0  0  0  0  0  0  0  0  0  0  0  0
    7.7339  -15.5848   23.0191 O   0  0  0  0  0  0  0  0  0  0  0  0
    8.5658  -17.5814   22.2900 N   0  0  0  0  0  0  0  0  0  0  0  0
    7.8348  -18.2652   23.3662 C   0  0  1  0  0  0  0  0  0  0  0  0
    7.6732  -19.7128   23.0460 C   0  0  0  0  0  0  0  0  0  0  0  0
    6.8578  -20.4480   24.0414 C   0  0  0  0  0  0  0  0  0  0  0  0
    6.6775  -21.8901   23.6685 C   0  0  0  0  0  0  0  0  0  0  0  0
    6.0903  -22.7055   24.7818 C   0  0  0  0  0  0  0  0  0  0  0  0
    4.6445  -22.7460   24.7292 N   0  0  0  0  0  0  0  0  0  0  0  0
    8.7008  -18.1076   24.5686 C   0  0  0  0  0  0  0  0  0  0  0  0
    8.8680  -19.0881   25.3374 O   0  0  0  0  0  0  0  0  0  0  0  0
    6.6354  -10.6749   25.9840 O   0  0  0  0  0  0  0  0  0  0  0  0
    6.9466  -12.0248   26.1310 C   0  0  0  0  0  0  0  0  0  0  0  0
    6.4565  -12.9780   25.2620 C   0  0  0  0  0  0  0  0  0  0  0  0
    6.7656  -14.3356   25.4045 C   0  0  0  0  0  0  0  0  0  0  0  0
    7.5785  -14.7379   26.4356 C   0  0  0  0  0  0  0  0  0  0  0  0
    7.9300  -16.1453   26.6361 C   0  0  0  0  0  0  0  0  0  0  0  0
    9.3766  -16.4546   26.2777 C   0  0  2  0  0  0  0  0  0  0  0  0
    9.3585  -16.8943   24.9023 N   0  0  0  0  0  0  0  0  0  0  0  0
    9.9526  -17.5324   27.1111 C   0  0  0  0  0  0  0  0  0  0  0  0
   10.3539  -18.7155   26.5598 O   0  0  0  0  0  0  0  0  0  0  0  0
    8.0692  -13.7790   27.3063 C   0  0  0  0  0  0  0  0  0  0  0  0
    7.7649  -12.4341   27.1677 C   0  0  0  0  0  0  0  0  0  0  0  0
   10.0653  -17.3350   28.3427 O   0  0  0  0  0  0  0  0  0  0  0  0
  1  2  1  0
  3  2  1  0
  4  5  1  0
  4  3  1  0
  5  6  1  6
  7  5  1  0
  8  7  2  0
  9  7  1  0
 10 11  1  6
 10  9  1  0
 11 12  1  0
 12 13  1  0
 13 14  1  0
 15 14  1  0
 16 25  1  0
 16 10  1  0
 17 16  2  0
 19 29  2  0
 19 18  1  0
 20 19  1  0
 21 22  1  0
 21 20  2  0
 22 28  2  0
 23 22  1  0
 24 23  1  1
 24 25  1  0
 26 24  1  0
 26 27  1  0
 28 29  1  0
 30 26  2  0
M  END
$$$$
