MKY.pdb
     RDKit          3D

 30 30  0  0  1  0  0  0  0  0999 V2000
    9.9368  -12.3450   18.8888 C   0  0  0  0  0  0  0  0  0  0  0  0
    8.1915  -12.3957   18.3377 S   0  0  0  0  0  0  0  0  0  0  0  0
    7.7044  -14.1465   18.3067 C   0  0  0  0  0  0  0  0  0  0  0  0
    8.0869  -14.7504   19.6125 C   0  0  0  0  0  0  0  0  0  0  0  0
    7.7682  -16.2232   19.6584 C   0  0  2  0  0  0  0  0  0  0  0  0
    6.3194  -16.4188   19.5179 N   0  0  0  0  0  0  0  0  0  0  0  0
    8.1554  -16.7798   20.9740 C   0  0  0  0  0  0  0  0  0  0  0  0
    7.4396  -16.6309   21.9916 O   0  0  0  0  0  0  0  0  0  0  0  0
    9.3569  -17.5006   21.1097 N   0  0  0  0  0  0  0  0  0  0  0  0
    9.6645  -18.1126   22.4101 C   0  0  1  0  0  0  0  0  0  0  0  0
   10.6909  -19.1829   22.2507 C   0  0  0  0  0  0  0  0  0  0  0  0
   10.1244  -20.4810   21.8144 C   0  0  0  0  0  0  0  0  0  0  0  0
   10.8193  -21.0195   20.5985 C   0  0  0  0  0  0  0  0  0  0  0  0
   10.2504  -22.3296   20.1410 C   0  0  0  0  0  0  0  0  0  0  0  0
   10.8818  -22.8095   18.9304 N   0  0  0  0  0  0  0  0  0  0  0  0
   10.2200  -16.9982   23.2287 C   0  0  0  0  0  0  0  0  0  0  0  0
   10.7241  -16.0030   22.6492 O   0  0  0  0  0  0  0  0  0  0  0  0
    5.6835  -11.4640   27.7546 O   0  0  0  0  0  0  0  0  0  0  0  0
    6.3570  -12.4625   27.0545 C   0  0  0  0  0  0  0  0  0  0  0  0
    7.6629  -12.7967   27.3498 C   0  0  0  0  0  0  0  0  0  0  0  0
    8.3448  -13.7988   26.6501 C   0  0  0  0  0  0  0  0  0  0  0  0
    7.7031  -14.4726   25.6401 C   0  0  0  0  0  0  0  0  0  0  0  0
    8.3695  -15.5258   24.8711 C   0  0  0  0  0  0  0  0  0  0  0  0
    9.7860  -15.8081   25.3512 C   0  0  2  0  0  0  0  0  0  0  0  0
   10.2131  -16.9952   24.6485 N   0  0  0  0  0  0  0  0  0  0  0  0
    9.8536  -16.0694   26.8056 C   0  0  0  0  0  0  0  0  0  0  0  0
    9.5409  -17.2951   27.3196 O   0  0  0  0  0  0  0  0  0  0  0  0
    6.3924  -14.1352   25.3459 C   0  0  0  0  0  0  0  0  0  0  0  0
    5.7146  -13.1435   26.0370 C   0  0  0  0  0  0  0  0  0  0  0  0
   10.2067  -15.1350   27.5612 O   0  0  0  0  0  0  0  0  0  0  0  0
  1  2  1  0
  3  2  1  0
  4  5  1  0
  4  3  1  0
  5  6  1  1
  7  5  1  0
  8  7  2  0
  9  7  1  0
 10 11  1  6
 10  9  1  0
 11 12  1  0
 12 13  1  0
 13 14  1  0
 15 14  1  0
 16 25  1  0
 16 10  1  0
 17 16  2  0
 19 29  2  0
 19 18  1  0
 20 19  1  0
 21 22  1  0
 21 20  2  0
 22 28  2  0
 23 22  1  0
 24 23  1  6
 24 25  1  0
 26 24  1  0
 26 27  1  0
 28 29  1  0
 30 26  2  0
M  END
$$$$
