MKY.pdb
     RDKit          3D

 30 30  0  0  1  0  0  0  0  0999 V2000
    7.9415  -10.9952   21.2018 C   0  0  0  0  0  0  0  0  0  0  0  0
    8.6932  -12.3789   20.2678 S   0  0  0  0  0  0  0  0  0  0  0  0
    7.4509  -13.7044   20.2083 C   0  0  0  0  0  0  0  0  0  0  0  0
    8.0678  -14.8787   19.5325 C   0  0  0  0  0  0  0  0  0  0  0  0
    9.2971  -15.3575   20.2622 C   0  0  2  0  0  0  0  0  0  0  0  0
    9.9545  -16.4131   19.4808 N   0  0  0  0  0  0  0  0  0  0  0  0
    8.9098  -15.9557   21.5594 C   0  0  0  0  0  0  0  0  0  0  0  0
    8.1765  -15.3493   22.3747 O   0  0  0  0  0  0  0  0  0  0  0  0
    9.3659  -17.2409   21.9084 N   0  0  0  0  0  0  0  0  0  0  0  0
    8.8440  -17.8613   23.1343 C   0  0  1  0  0  0  0  0  0  0  0  0
    9.1884  -19.3120   23.1696 C   0  0  0  0  0  0  0  0  0  0  0  0
    8.3492  -20.1379   22.2697 C   0  0  0  0  0  0  0  0  0  0  0  0
    8.7331  -21.5878   22.3133 C   0  0  0  0  0  0  0  0  0  0  0  0
    7.9812  -22.4147   21.3133 C   0  0  0  0  0  0  0  0  0  0  0  0
    8.4048  -23.7985   21.3157 N   0  0  0  0  0  0  0  0  0  0  0  0
    9.5412  -17.1498   24.2426 C   0  0  0  0  0  0  0  0  0  0  0  0
   10.6736  -16.6461   24.0322 O   0  0  0  0  0  0  0  0  0  0  0  0
    5.7066  -11.6055   24.8954 O   0  0  0  0  0  0  0  0  0  0  0  0
    6.4353  -12.6125   25.5244 C   0  0  0  0  0  0  0  0  0  0  0  0
    5.9433  -13.8966   25.6387 C   0  0  0  0  0  0  0  0  0  0  0  0
    6.6706  -14.9125   26.2695 C   0  0  0  0  0  0  0  0  0  0  0  0
    7.9090  -14.6310   26.7918 C   0  0  0  0  0  0  0  0  0  0  0  0
    8.7112  -15.6532   27.4675 C   0  0  0  0  0  0  0  0  0  0  0  0
    9.7436  -16.2994   26.5546 C   0  0  2  0  0  0  0  0  0  0  0  0
    8.9919  -17.0056   25.5439 N   0  0  0  0  0  0  0  0  0  0  0  0
   10.6064  -17.2681   27.2654 C   0  0  0  0  0  0  0  0  0  0  0  0
   10.5657  -18.6008   26.9711 O   0  0  0  0  0  0  0  0  0  0  0  0
    8.4005  -13.3414   26.6757 C   0  0  0  0  0  0  0  0  0  0  0  0
    7.6828  -12.3335   26.0516 C   0  0  0  0  0  0  0  0  0  0  0  0
   11.3810  -16.8363   28.1498 O   0  0  0  0  0  0  0  0  0  0  0  0
  1  2  1  0
  3  2  1  0
  4  5  1  0
  4  3  1  0
  5  6  1  6
  7  5  1  0
  8  7  2  0
  9  7  1  0
 10 11  1  6
 10  9  1  0
 11 12  1  0
 12 13  1  0
 13 14  1  0
 15 14  1  0
 16 25  1  0
 16 10  1  0
 17 16  2  0
 19 29  2  0
 19 18  1  0
 20 19  1  0
 21 22  1  0
 21 20  2  0
 22 28  2  0
 23 22  1  0
 24 23  1  1
 24 25  1  0
 26 24  1  0
 26 27  1  0
 28 29  1  0
 30 26  2  0
M  END
$$$$
