MKY.pdb
     RDKit          3D

 30 30  0  0  1  0  0  0  0  0999 V2000
    7.2666  -11.6684   20.5886 C   0  0  0  0  0  0  0  0  0  0  0  0
    8.0847  -12.7983   19.4027 S   0  0  0  0  0  0  0  0  0  0  0  0
    6.8902  -14.1161   19.0282 C   0  0  0  0  0  0  0  0  0  0  0  0
    6.4953  -14.7538   20.3141 C   0  0  0  0  0  0  0  0  0  0  0  0
    7.6936  -15.2680   21.0706 C   0  0  2  0  0  0  0  0  0  0  0  0
    8.3641  -16.3104   20.2826 N   0  0  0  0  0  0  0  0  0  0  0  0
    7.2560  -15.8961   22.3373 C   0  0  0  0  0  0  0  0  0  0  0  0
    6.4740  -15.3173   23.1269 O   0  0  0  0  0  0  0  0  0  0  0  0
    7.7181  -17.1794   22.6855 N   0  0  0  0  0  0  0  0  0  0  0  0
    7.2763  -17.7617   23.9606 C   0  0  1  0  0  0  0  0  0  0  0  0
    7.3201  -19.2510   23.8944 C   0  0  0  0  0  0  0  0  0  0  0  0
    6.9571  -19.9076   25.1724 C   0  0  0  0  0  0  0  0  0  0  0  0
    6.9725  -21.4039   25.0622 C   0  0  0  0  0  0  0  0  0  0  0  0
    6.4948  -22.0801   26.3127 C   0  0  0  0  0  0  0  0  0  0  0  0
    6.6688  -23.5159   26.2611 N   0  0  0  0  0  0  0  0  0  0  0  0
    8.2659  -17.2715   24.9612 C   0  0  0  0  0  0  0  0  0  0  0  0
    9.4844  -17.2381   24.6539 O   0  0  0  0  0  0  0  0  0  0  0  0
    6.7921  -10.8684   24.7033 O   0  0  0  0  0  0  0  0  0  0  0  0
    7.1504  -11.9418   25.5159 C   0  0  0  0  0  0  0  0  0  0  0  0
    6.4414  -12.2507   26.6588 C   0  0  0  0  0  0  0  0  0  0  0  0
    6.7965  -13.3277   27.4792 C   0  0  0  0  0  0  0  0  0  0  0  0
    7.8793  -14.1028   27.1441 C   0  0  0  0  0  0  0  0  0  0  0  0
    8.2995  -15.2380   27.9686 C   0  0  0  0  0  0  0  0  0  0  0  0
    8.9354  -16.3590   27.1587 C   0  0  2  0  0  0  0  0  0  0  0  0
    7.9066  -16.8332   26.2631 N   0  0  0  0  0  0  0  0  0  0  0  0
    9.3849  -17.4877   28.0024 C   0  0  0  0  0  0  0  0  0  0  0  0
   10.4611  -17.3651   28.8338 O   0  0  0  0  0  0  0  0  0  0  0  0
    8.5890  -13.7905   25.9965 C   0  0  0  0  0  0  0  0  0  0  0  0
    8.2399  -12.7249   25.1822 C   0  0  0  0  0  0  0  0  0  0  0  0
    8.7522  -18.5667   27.9373 O   0  0  0  0  0  0  0  0  0  0  0  0
  1  2  1  0
  3  2  1  0
  4  5  1  0
  4  3  1  0
  5  6  1  6
  7  5  1  0
  8  7  2  0
  9  7  1  0
 10 11  1  6
 10  9  1  0
 11 12  1  0
 12 13  1  0
 13 14  1  0
 15 14  1  0
 16 25  1  0
 16 10  1  0
 17 16  2  0
 19 29  2  0
 19 18  1  0
 20 19  1  0
 21 22  1  0
 21 20  2  0
 22 28  2  0
 23 22  1  0
 24 23  1  1
 24 25  1  0
 26 24  1  0
 26 27  1  0
 28 29  1  0
 30 26  2  0
M  END
$$$$
