MKY.pdb
     RDKit          3D

 30 30  0  0  1  0  0  0  0  0999 V2000
    5.9106  -10.8124   26.6703 C   0  0  0  0  0  0  0  0  0  0  0  0
    7.2328  -12.0642   26.4782 S   0  0  0  0  0  0  0  0  0  0  0  0
    6.4919  -13.4767   25.6066 C   0  0  0  0  0  0  0  0  0  0  0  0
    7.5644  -14.4819   25.3712 C   0  0  0  0  0  0  0  0  0  0  0  0
    7.0638  -15.6490   24.5587 C   0  0  2  0  0  0  0  0  0  0  0  0
    6.1479  -16.4592   25.3722 N   0  0  0  0  0  0  0  0  0  0  0  0
    8.1980  -16.5224   24.1829 C   0  0  0  0  0  0  0  0  0  0  0  0
    8.5530  -17.4892   24.8966 O   0  0  0  0  0  0  0  0  0  0  0  0
    8.9125  -16.2795   22.9945 N   0  0  0  0  0  0  0  0  0  0  0  0
    9.9838  -17.2123   22.6174 C   0  0  1  0  0  0  0  0  0  0  0  0
   10.5555  -16.8381   21.2917 C   0  0  0  0  0  0  0  0  0  0  0  0
   11.6398  -17.7428   20.8420 C   0  0  0  0  0  0  0  0  0  0  0  0
   11.1976  -18.6416   19.7248 C   0  0  0  0  0  0  0  0  0  0  0  0
   12.2996  -19.5283   19.2264 C   0  0  0  0  0  0  0  0  0  0  0  0
   11.8868  -20.3358   18.0985 N   0  0  0  0  0  0  0  0  0  0  0  0
   11.0176  -17.0470   23.6778 C   0  0  0  0  0  0  0  0  0  0  0  0
   11.4964  -15.9052   23.8957 O   0  0  0  0  0  0  0  0  0  0  0  0
    9.1387  -13.8401   29.2591 O   0  0  0  0  0  0  0  0  0  0  0  0
    9.7788  -14.9151   28.6463 C   0  0  0  0  0  0  0  0  0  0  0  0
    9.3007  -15.4690   27.4764 C   0  0  0  0  0  0  0  0  0  0  0  0
    9.9392  -16.5490   26.8561 C   0  0  0  0  0  0  0  0  0  0  0  0
   11.0735  -17.0776   27.4216 C   0  0  0  0  0  0  0  0  0  0  0  0
   11.7790  -18.2109   26.8194 C   0  0  0  0  0  0  0  0  0  0  0  0
   12.4675  -17.8555   25.5092 C   0  0  2  0  0  0  0  0  0  0  0  0
   11.5016  -18.1219   24.4693 N   0  0  0  0  0  0  0  0  0  0  0  0
   13.6721  -18.6762   25.2572 C   0  0  0  0  0  0  0  0  0  0  0  0
   14.8138  -18.4993   25.9850 O   0  0  0  0  0  0  0  0  0  0  0  0
   11.5512  -16.5196   28.5958 C   0  0  0  0  0  0  0  0  0  0  0  0
   10.9212  -15.4503   29.2123 C   0  0  0  0  0  0  0  0  0  0  0  0
   13.6219  -19.5434   24.3549 O   0  0  0  0  0  0  0  0  0  0  0  0
  1  2  1  0
  3  2  1  0
  4  5  1  0
  4  3  1  0
  5  6  1  1
  7  5  1  0
  8  7  2  0
  9  7  1  0
 10 11  1  6
 10  9  1  0
 11 12  1  0
 12 13  1  0
 13 14  1  0
 15 14  1  0
 16 25  1  0
 16 10  1  0
 17 16  2  0
 19 29  2  0
 19 18  1  0
 20 19  1  0
 21 22  1  0
 21 20  2  0
 22 28  2  0
 23 22  1  0
 24 23  1  1
 24 25  1  0
 26 24  1  0
 26 27  1  0
 28 29  1  0
 30 26  2  0
M  END
$$$$
