MKY.pdb
     RDKit          3D

 30 30  0  0  1  0  0  0  0  0999 V2000
    5.5833  -12.0821   27.2923 C   0  0  0  0  0  0  0  0  0  0  0  0
    6.6140  -13.2004   26.2727 S   0  0  0  0  0  0  0  0  0  0  0  0
    6.2692  -14.8918   26.8418 C   0  0  0  0  0  0  0  0  0  0  0  0
    7.0575  -15.8284   25.9947 C   0  0  0  0  0  0  0  0  0  0  0  0
    6.2839  -16.2597   24.7747 C   0  0  2  0  0  0  0  0  0  0  0  0
    5.7807  -17.6261   24.9675 N   0  0  0  0  0  0  0  0  0  0  0  0
    7.1796  -16.2897   23.5969 C   0  0  0  0  0  0  0  0  0  0  0  0
    7.7507  -17.3418   23.2270 O   0  0  0  0  0  0  0  0  0  0  0  0
    7.4111  -15.1153   22.8560 N   0  0  0  0  0  0  0  0  0  0  0  0
    8.2580  -15.1978   21.6576 C   0  0  1  0  0  0  0  0  0  0  0  0
    8.0345  -14.0121   20.7810 C   0  0  0  0  0  0  0  0  0  0  0  0
    8.8222  -14.0512   19.5263 C   0  0  0  0  0  0  0  0  0  0  0  0
    7.9454  -14.1498   18.3127 C   0  0  0  0  0  0  0  0  0  0  0  0
    8.7312  -14.2480   17.0391 C   0  0  0  0  0  0  0  0  0  0  0  0
    7.8887  -14.1570   15.8658 N   0  0  0  0  0  0  0  0  0  0  0  0
    9.6532  -15.1830   22.1809 C   0  0  0  0  0  0  0  0  0  0  0  0
   10.4046  -14.2156   21.8981 O   0  0  0  0  0  0  0  0  0  0  0  0
    9.4647  -15.6148   29.5018 O   0  0  0  0  0  0  0  0  0  0  0  0
   10.0051  -15.4461   28.2289 C   0  0  0  0  0  0  0  0  0  0  0  0
   11.0282  -16.2481   27.7663 C   0  0  0  0  0  0  0  0  0  0  0  0
   11.5752  -16.0834   26.4886 C   0  0  0  0  0  0  0  0  0  0  0  0
   11.0855  -15.0983   25.6668 C   0  0  0  0  0  0  0  0  0  0  0  0
   11.6238  -14.8770   24.3229 C   0  0  0  0  0  0  0  0  0  0  0  0
   11.5607  -16.1184   23.4444 C   0  0  2  0  0  0  0  0  0  0  0  0
   10.1923  -16.2152   22.9933 N   0  0  0  0  0  0  0  0  0  0  0  0
   11.9049  -17.3551   24.1793 C   0  0  0  0  0  0  0  0  0  0  0  0
   13.1595  -17.5551   24.6796 O   0  0  0  0  0  0  0  0  0  0  0  0
   10.0585  -14.2947   26.1337 C   0  0  0  0  0  0  0  0  0  0  0  0
    9.5148  -14.4554   27.3982 C   0  0  0  0  0  0  0  0  0  0  0  0
   11.0139  -18.2216   24.3340 O   0  0  0  0  0  0  0  0  0  0  0  0
  1  2  1  0
  3  2  1  0
  4  5  1  0
  4  3  1  0
  5  6  1  1
  7  5  1  0
  8  7  2  0
  9  7  1  0
 10 11  1  6
 10  9  1  0
 11 12  1  0
 12 13  1  0
 13 14  1  0
 15 14  1  0
 16 25  1  0
 16 10  1  0
 17 16  2  0
 19 29  2  0
 19 18  1  0
 20 19  1  0
 21 22  1  0
 21 20  2  0
 22 28  2  0
 23 22  1  0
 24 23  1  1
 24 25  1  0
 26 24  1  0
 26 27  1  0
 28 29  1  0
 30 26  2  0
M  END
$$$$
