VQW.pdb
     RDKit          3D

 31 32  0  0  1  0  0  0  0  0999 V2000
    7.4857  -12.4415   19.0937 C   0  0  0  0  0  0  0  0  0  0  0  0
    7.7388  -13.3620   20.2725 C   0  0  2  0  0  0  0  0  0  0  0  0
    8.6195  -12.6124   21.2490 C   0  0  0  0  0  0  0  0  0  0  0  0
    8.3924  -14.6003   19.7680 C   0  0  2  0  0  0  0  0  0  0  0  0
    7.6016  -15.1781   18.6682 N   0  0  0  0  0  0  0  0  0  0  0  0
    8.6181  -15.6543   20.7398 C   0  0  0  0  0  0  0  0  0  0  0  0
    7.6519  -16.4616   20.9586 O   0  0  0  0  0  0  0  0  0  0  0  0
   13.0297  -20.2519   20.9069 N   0  0  0  0  0  0  0  0  0  0  0  0
   12.6357  -18.9982   20.3997 C   0  0  0  0  0  0  0  0  0  0  0  0
   13.4564  -18.3821   19.6782 O   0  0  0  0  0  0  0  0  0  0  0  0
   11.2848  -18.4928   20.7510 C   0  0  0  0  0  0  0  0  0  0  0  0
   11.3506  -17.5663   21.9044 C   0  0  0  0  0  0  0  0  0  0  0  0
   10.0539  -16.9667   22.3741 C   0  0  2  0  0  0  0  0  0  0  0  0
    9.8346  -15.8252   21.4414 N   0  0  0  0  0  0  0  0  0  0  0  0
   10.2266  -16.4227   23.7443 C   0  0  0  0  0  0  0  0  0  0  0  0
   10.9231  -15.3636   23.9242 O   0  0  0  0  0  0  0  0  0  0  0  0
    9.6656  -16.9887   24.9126 N   0  0  0  0  0  0  0  0  0  0  0  0
   10.0353  -16.4986   26.2610 C   0  0  1  0  0  0  0  0  0  0  0  0
    8.8023  -16.4285   27.0924 C   0  0  0  0  0  0  0  0  0  0  0  0
    7.7175  -15.6302   26.4984 C   0  0  0  0  0  0  0  0  0  0  0  0
    6.6664  -16.1453   25.7183 C   0  0  0  0  0  0  0  0  0  0  0  0
    5.8713  -15.1635   25.3026 N   0  0  0  0  0  0  0  0  0  0  0  0
    6.3559  -14.0097   25.7798 C   0  0  0  0  0  0  0  0  0  0  0  0
    5.9071  -12.6959   25.6622 C   0  0  0  0  0  0  0  0  0  0  0  0
    6.5920  -11.6796   26.2792 C   0  0  0  0  0  0  0  0  0  0  0  0
    7.7258  -11.9250   27.0215 C   0  0  0  0  0  0  0  0  0  0  0  0
    8.1507  -13.2269   27.1236 C   0  0  0  0  0  0  0  0  0  0  0  0
    7.4768  -14.2638   26.5103 C   0  0  0  0  0  0  0  0  0  0  0  0
   11.1060  -17.3107   26.7931 C   0  0  0  0  0  0  0  0  0  0  0  0
   11.6617  -17.0617   27.9097 O   0  0  0  0  0  0  0  0  0  0  0  0
   11.6188  -18.4282   26.1348 O   0  0  0  0  0  0  0  0  0  0  0  0
  2  3  1  1
  2  1  1  0
  4  2  1  0
  4  5  1  6
  6  4  1  0
  6  7  2  0
  8  9  1  0
  9 10  2  0
 11 12  1  0
 11  9  1  0
 13 14  1  0
 13 12  1  6
 14  6  1  0
 15 13  1  0
 16 15  2  0
 17 15  1  0
 18 17  1  0
 18 19  1  1
 20 19  1  0
 20 28  1  0
 21 22  1  0
 21 20  2  0
 22 23  1  0
 23 28  2  0
 23 24  1  0
 24 25  2  0
 25 26  1  0
 27 26  2  0
 28 27  1  0
 29 18  1  0
 29 31  1  0
 30 29  2  0
M  END
$$$$
