VQW.pdb
     RDKit          3D

 31 32  0  0  1  0  0  0  0  0999 V2000
    6.0926  -21.3228   24.1959 C   0  0  0  0  0  0  0  0  0  0  0  0
    7.0844  -20.2130   23.9029 C   0  0  2  0  0  0  0  0  0  0  0  0
    6.7943  -19.0828   24.8670 C   0  0  0  0  0  0  0  0  0  0  0  0
    6.9139  -19.7949   22.4848 C   0  0  2  0  0  0  0  0  0  0  0  0
    6.9905  -20.9683   21.5982 N   0  0  0  0  0  0  0  0  0  0  0  0
    7.8550  -18.8105   21.9832 C   0  0  0  0  0  0  0  0  0  0  0  0
    9.0002  -19.2370   21.6093 O   0  0  0  0  0  0  0  0  0  0  0  0
    6.1808  -13.4228   19.8145 N   0  0  0  0  0  0  0  0  0  0  0  0
    7.5642  -13.2046   19.6626 C   0  0  0  0  0  0  0  0  0  0  0  0
    7.9223  -12.2071   18.9913 O   0  0  0  0  0  0  0  0  0  0  0  0
    8.4997  -14.1634   20.3023 C   0  0  0  0  0  0  0  0  0  0  0  0
    7.7640  -15.3040   20.8947 C   0  0  0  0  0  0  0  0  0  0  0  0
    8.5868  -16.4392   21.4388 C   0  0  2  0  0  0  0  0  0  0  0  0
    7.5679  -17.4283   21.8911 N   0  0  0  0  0  0  0  0  0  0  0  0
    9.3466  -15.9761   22.6267 C   0  0  0  0  0  0  0  0  0  0  0  0
   10.3074  -15.1425   22.4810 O   0  0  0  0  0  0  0  0  0  0  0  0
    9.0917  -16.3855   23.9562 N   0  0  0  0  0  0  0  0  0  0  0  0
    9.9685  -15.9652   25.0741 C   0  0  1  0  0  0  0  0  0  0  0  0
    9.1449  -15.8714   26.3107 C   0  0  0  0  0  0  0  0  0  0  0  0
    7.9449  -15.0296   26.1751 C   0  0  0  0  0  0  0  0  0  0  0  0
    6.6372  -15.5089   25.9777 C   0  0  0  0  0  0  0  0  0  0  0  0
    5.7833  -14.4961   25.8598 N   0  0  0  0  0  0  0  0  0  0  0  0
    6.4771  -13.3560   25.9727 C   0  0  0  0  0  0  0  0  0  0  0  0
    6.0791  -12.0211   25.9419 C   0  0  0  0  0  0  0  0  0  0  0  0
    7.0080  -11.0247   26.1058 C   0  0  0  0  0  0  0  0  0  0  0  0
    8.3407  -11.3109   26.3027 C   0  0  0  0  0  0  0  0  0  0  0  0
    8.7110  -12.6330   26.3289 C   0  0  0  0  0  0  0  0  0  0  0  0
    7.7926  -13.6505   26.1654 C   0  0  0  0  0  0  0  0  0  0  0  0
   11.1129  -16.8451   25.1471 C   0  0  0  0  0  0  0  0  0  0  0  0
   11.2316  -17.8736   24.4082 O   0  0  0  0  0  0  0  0  0  0  0  0
   12.1772  -16.6453   26.0259 O   0  0  0  0  0  0  0  0  0  0  0  0
  2  3  1  1
  2  1  1  0
  4  2  1  0
  4  5  1  6
  6  4  1  0
  6  7  2  0
  8  9  1  0
  9 10  2  0
 11 12  1  0
 11  9  1  0
 13 14  1  0
 13 12  1  1
 14  6  1  0
 15 13  1  0
 16 15  2  0
 17 15  1  0
 18 17  1  0
 18 19  1  1
 20 19  1  0
 20 28  1  0
 21 22  1  0
 21 20  2  0
 22 23  1  0
 23 28  2  0
 23 24  1  0
 24 25  2  0
 25 26  1  0
 27 26  2  0
 28 27  1  0
 29 18  1  0
 29 31  1  0
 30 29  2  0
M  END
$$$$
