VQW.pdb
     RDKit          3D

 31 32  0  0  1  0  0  0  0  0999 V2000
    7.7303  -12.8036   18.1345 C   0  0  0  0  0  0  0  0  0  0  0  0
    8.0881  -13.5863   19.3837 C   0  0  2  0  0  0  0  0  0  0  0  0
    9.1224  -12.7804   20.1399 C   0  0  0  0  0  0  0  0  0  0  0  0
    8.6108  -14.9167   18.9691 C   0  0  2  0  0  0  0  0  0  0  0  0
    7.6138  -15.6169   18.1417 N   0  0  0  0  0  0  0  0  0  0  0  0
    8.9995  -15.8200   20.0365 C   0  0  0  0  0  0  0  0  0  0  0  0
    8.0624  -16.4400   20.6453 O   0  0  0  0  0  0  0  0  0  0  0  0
   13.8066  -18.7834   18.8225 N   0  0  0  0  0  0  0  0  0  0  0  0
   13.9518  -17.6964   19.7065 C   0  0  0  0  0  0  0  0  0  0  0  0
   15.1027  -17.4562   20.1441 O   0  0  0  0  0  0  0  0  0  0  0  0
   12.7412  -16.9130   20.0594 C   0  0  0  0  0  0  0  0  0  0  0  0
   11.9746  -17.5813   21.1359 C   0  0  0  0  0  0  0  0  0  0  0  0
   10.6953  -16.9230   21.5736 C   0  0  2  0  0  0  0  0  0  0  0  0
   10.3416  -16.0410   20.4256 N   0  0  0  0  0  0  0  0  0  0  0  0
   10.9581  -16.0658   22.7565 C   0  0  0  0  0  0  0  0  0  0  0  0
   11.2874  -14.8396   22.5919 O   0  0  0  0  0  0  0  0  0  0  0  0
   10.8694  -16.4976   24.1003 N   0  0  0  0  0  0  0  0  0  0  0  0
    9.9210  -15.8712   25.0506 C   0  0  1  0  0  0  0  0  0  0  0  0
    8.6157  -15.6829   24.3599 C   0  0  0  0  0  0  0  0  0  0  0  0
    7.5973  -14.9944   25.1696 C   0  0  0  0  0  0  0  0  0  0  0  0
    6.3548  -15.5386   25.5424 C   0  0  0  0  0  0  0  0  0  0  0  0
    5.6501  -14.6534   26.2414 N   0  0  0  0  0  0  0  0  0  0  0  0
    6.3809  -13.5361   26.3487 C   0  0  0  0  0  0  0  0  0  0  0  0
    6.1308  -12.3217   26.9843 C   0  0  0  0  0  0  0  0  0  0  0  0
    7.0758  -11.3273   26.9592 C   0  0  0  0  0  0  0  0  0  0  0  0
    8.2810  -11.4982   26.3148 C   0  0  0  0  0  0  0  0  0  0  0  0
    8.5062  -12.7025   25.6945 C   0  0  0  0  0  0  0  0  0  0  0  0
    7.5686  -13.7156   25.7073 C   0  0  0  0  0  0  0  0  0  0  0  0
    9.8797  -16.6439   26.2714 C   0  0  0  0  0  0  0  0  0  0  0  0
    9.8169  -17.9142   26.2736 O   0  0  0  0  0  0  0  0  0  0  0  0
    9.9051  -16.0695   27.5420 O   0  0  0  0  0  0  0  0  0  0  0  0
  2  3  1  6
  2  1  1  0
  4  2  1  0
  4  5  1  1
  6  4  1  0
  6  7  2  0
  8  9  1  0
  9 10  2  0
 11 12  1  0
 11  9  1  0
 13 14  1  0
 13 12  1  6
 14  6  1  0
 15 13  1  0
 16 15  2  0
 17 15  1  0
 18 17  1  0
 18 19  1  6
 20 19  1  0
 20 28  1  0
 21 22  1  0
 21 20  2  0
 22 23  1  0
 23 28  2  0
 23 24  1  0
 24 25  2  0
 25 26  1  0
 27 26  2  0
 28 27  1  0
 29 18  1  0
 29 31  1  0
 30 29  2  0
M  END
$$$$
