VQW.pdb
     RDKit          3D

 31 32  0  0  1  0  0  0  0  0999 V2000
    7.9331  -12.1286   18.6325 C   0  0  0  0  0  0  0  0  0  0  0  0
    7.8137  -13.2387   19.6595 C   0  0  2  0  0  0  0  0  0  0  0  0
    8.3012  -12.6846   20.9810 C   0  0  0  0  0  0  0  0  0  0  0  0
    8.6350  -14.3918   19.2004 C   0  0  2  0  0  0  0  0  0  0  0  0
    8.1654  -14.8556   17.8840 N   0  0  0  0  0  0  0  0  0  0  0  0
    8.6754  -15.5471   20.0780 C   0  0  0  0  0  0  0  0  0  0  0  0
    8.1190  -16.6178   19.6573 O   0  0  0  0  0  0  0  0  0  0  0  0
   12.5289  -19.0986   20.1027 N   0  0  0  0  0  0  0  0  0  0  0  0
   12.1530  -19.3535   21.4362 C   0  0  0  0  0  0  0  0  0  0  0  0
   12.9909  -19.9255   22.1742 O   0  0  0  0  0  0  0  0  0  0  0  0
   10.7995  -18.9316   21.8760 C   0  0  0  0  0  0  0  0  0  0  0  0
   10.4843  -17.5708   21.3841 C   0  0  0  0  0  0  0  0  0  0  0  0
    9.4566  -16.7873   22.1532 C   0  0  2  0  0  0  0  0  0  0  0  0
    9.2903  -15.5417   21.3520 N   0  0  0  0  0  0  0  0  0  0  0  0
   10.0067  -16.4174   23.4812 C   0  0  0  0  0  0  0  0  0  0  0  0
   10.9598  -15.5661   23.5595 O   0  0  0  0  0  0  0  0  0  0  0  0
    9.5519  -16.9377   24.7152 N   0  0  0  0  0  0  0  0  0  0  0  0
   10.1363  -16.4930   26.0019 C   0  0  1  0  0  0  0  0  0  0  0  0
    9.0569  -16.4677   27.0270 C   0  0  0  0  0  0  0  0  0  0  0  0
    7.8880  -15.6545   26.6538 C   0  0  0  0  0  0  0  0  0  0  0  0
    6.6927  -16.1567   26.1080 C   0  0  0  0  0  0  0  0  0  0  0  0
    5.8465  -15.1640   25.8487 N   0  0  0  0  0  0  0  0  0  0  0  0
    6.4365  -14.0152   26.2040 C   0  0  0  0  0  0  0  0  0  0  0  0
    5.9951  -12.6943   26.1626 C   0  0  0  0  0  0  0  0  0  0  0  0
    6.8072  -11.6855   26.6160 C   0  0  0  0  0  0  0  0  0  0  0  0
    8.0632  -11.9455   27.1177 C   0  0  0  0  0  0  0  0  0  0  0  0
    8.4782  -13.2542   27.1485 C   0  0  0  0  0  0  0  0  0  0  0  0
    7.6773  -14.2837   26.6967 C   0  0  0  0  0  0  0  0  0  0  0  0
   11.2844  -17.3116   26.3192 C   0  0  0  0  0  0  0  0  0  0  0  0
   11.5795  -18.3587   25.6603 O   0  0  0  0  0  0  0  0  0  0  0  0
   12.1614  -17.0274   27.3658 O   0  0  0  0  0  0  0  0  0  0  0  0
  2  3  1  1
  2  1  1  0
  4  2  1  0
  4  5  1  6
  6  4  1  0
  6  7  2  0
  8  9  1  0
  9 10  2  0
 11 12  1  0
 11  9  1  0
 13 14  1  0
 13 12  1  6
 14  6  1  0
 15 13  1  0
 16 15  2  0
 17 15  1  0
 18 17  1  0
 18 19  1  1
 20 19  1  0
 20 28  1  0
 21 22  1  0
 21 20  2  0
 22 23  1  0
 23 28  2  0
 23 24  1  0
 24 25  2  0
 25 26  1  0
 27 26  2  0
 28 27  1  0
 29 18  1  0
 29 31  1  0
 30 29  2  0
M  END
$$$$
