VQW.pdb
     RDKit          3D

 31 32  0  0  1  0  0  0  0  0999 V2000
    7.6999  -12.3369   18.5526 C   0  0  0  0  0  0  0  0  0  0  0  0
    7.5663  -13.4848   19.5353 C   0  0  2  0  0  0  0  0  0  0  0  0
    7.7558  -12.9135   20.9242 C   0  0  0  0  0  0  0  0  0  0  0  0
    8.5979  -14.5057   19.2060 C   0  0  2  0  0  0  0  0  0  0  0  0
    8.4052  -14.9947   17.8303 N   0  0  0  0  0  0  0  0  0  0  0  0
    8.6586  -15.6671   20.0742 C   0  0  0  0  0  0  0  0  0  0  0  0
    8.1662  -16.7572   19.6244 O   0  0  0  0  0  0  0  0  0  0  0  0
   11.3812  -19.1598   19.0592 N   0  0  0  0  0  0  0  0  0  0  0  0
   11.9776  -18.3655   20.0582 C   0  0  0  0  0  0  0  0  0  0  0  0
   13.1628  -18.6278   20.3749 O   0  0  0  0  0  0  0  0  0  0  0  0
   11.1690  -17.2789   20.6656 C   0  0  0  0  0  0  0  0  0  0  0  0
   10.0883  -17.8343   21.5121 C   0  0  0  0  0  0  0  0  0  0  0  0
    9.2243  -16.8496   22.2506 C   0  0  2  0  0  0  0  0  0  0  0  0
    9.2269  -15.6476   21.3696 N   0  0  0  0  0  0  0  0  0  0  0  0
    9.8725  -16.4872   23.5358 C   0  0  0  0  0  0  0  0  0  0  0  0
   10.9162  -15.7457   23.5340 O   0  0  0  0  0  0  0  0  0  0  0  0
    9.4205  -16.8998   24.8108 N   0  0  0  0  0  0  0  0  0  0  0  0
   10.1007  -16.4573   26.0504 C   0  0  1  0  0  0  0  0  0  0  0  0
    9.0668  -16.2014   27.0906 C   0  0  0  0  0  0  0  0  0  0  0  0
    7.9266  -15.3957   26.6241 C   0  0  0  0  0  0  0  0  0  0  0  0
    6.7160  -15.9148   26.1305 C   0  0  0  0  0  0  0  0  0  0  0  0
    5.9041  -14.9289   25.7591 N   0  0  0  0  0  0  0  0  0  0  0  0
    6.5320  -13.7684   25.9890 C   0  0  0  0  0  0  0  0  0  0  0  0
    6.1354  -12.4461   25.8004 C   0  0  0  0  0  0  0  0  0  0  0  0
    6.9803  -11.4212   26.1444 C   0  0  0  0  0  0  0  0  0  0  0  0
    8.2261  -11.6661   26.6782 C   0  0  0  0  0  0  0  0  0  0  0  0
    8.5967  -12.9765   26.8549 C   0  0  0  0  0  0  0  0  0  0  0  0
    7.7622  -14.0222   26.5148 C   0  0  0  0  0  0  0  0  0  0  0  0
   11.1259  -17.4121   26.4057 C   0  0  0  0  0  0  0  0  0  0  0  0
   11.2423  -18.5372   25.8239 O   0  0  0  0  0  0  0  0  0  0  0  0
   12.0688  -17.1854   27.4080 O   0  0  0  0  0  0  0  0  0  0  0  0
  2  3  1  1
  2  1  1  0
  4  2  1  0
  4  5  1  6
  6  4  1  0
  6  7  2  0
  8  9  1  0
  9 10  2  0
 11 12  1  0
 11  9  1  0
 13 14  1  0
 13 12  1  6
 14  6  1  0
 15 13  1  0
 16 15  2  0
 17 15  1  0
 18 17  1  0
 18 19  1  1
 20 19  1  0
 20 28  1  0
 21 22  1  0
 21 20  2  0
 22 23  1  0
 23 28  2  0
 23 24  1  0
 24 25  2  0
 25 26  1  0
 27 26  2  0
 28 27  1  0
 29 18  1  0
 29 31  1  0
 30 29  2  0
M  END
$$$$
