VQW.pdb
     RDKit          3D

 31 32  0  0  1  0  0  0  0  0999 V2000
    8.1569  -20.2076   24.9925 C   0  0  0  0  0  0  0  0  0  0  0  0
    6.8074  -19.8457   24.4019 C   0  0  2  0  0  0  0  0  0  0  0  0
    5.8107  -20.8745   24.8910 C   0  0  0  0  0  0  0  0  0  0  0  0
    6.9296  -19.8478   22.9186 C   0  0  2  0  0  0  0  0  0  0  0  0
    7.2779  -21.1967   22.4412 N   0  0  0  0  0  0  0  0  0  0  0  0
    7.8924  -18.9240   22.3477 C   0  0  0  0  0  0  0  0  0  0  0  0
    9.0670  -19.3733   22.1208 O   0  0  0  0  0  0  0  0  0  0  0  0
    6.3365  -13.6650   19.7171 N   0  0  0  0  0  0  0  0  0  0  0  0
    7.7265  -13.4736   19.5921 C   0  0  0  0  0  0  0  0  0  0  0  0
    8.1168  -12.4916   18.9159 O   0  0  0  0  0  0  0  0  0  0  0  0
    8.6307  -14.4405   20.2638 C   0  0  0  0  0  0  0  0  0  0  0  0
    7.8576  -15.5244   20.9122 C   0  0  0  0  0  0  0  0  0  0  0  0
    8.6433  -16.6246   21.5706 C   0  0  2  0  0  0  0  0  0  0  0  0
    7.5955  -17.5761   22.0373 N   0  0  0  0  0  0  0  0  0  0  0  0
    9.3481  -16.0867   22.7610 C   0  0  0  0  0  0  0  0  0  0  0  0
   10.2612  -15.2016   22.6126 O   0  0  0  0  0  0  0  0  0  0  0  0
    9.0883  -16.4760   24.0956 N   0  0  0  0  0  0  0  0  0  0  0  0
    9.9023  -15.9613   25.2214 C   0  0  1  0  0  0  0  0  0  0  0  0
    9.0329  -15.8613   26.4258 C   0  0  0  0  0  0  0  0  0  0  0  0
    7.8298  -15.0347   26.2356 C   0  0  0  0  0  0  0  0  0  0  0  0
    6.5440  -15.5291   25.9507 C   0  0  0  0  0  0  0  0  0  0  0  0
    5.6825  -14.5267   25.8023 N   0  0  0  0  0  0  0  0  0  0  0  0
    6.3500  -13.3791   25.9794 C   0  0  0  0  0  0  0  0  0  0  0  0
    5.9331  -12.0499   25.9516 C   0  0  0  0  0  0  0  0  0  0  0  0
    6.8345  -11.0435   26.1908 C   0  0  0  0  0  0  0  0  0  0  0  0
    8.1576  -11.3140   26.4613 C   0  0  0  0  0  0  0  0  0  0  0  0
    8.5468  -12.6307   26.4831 C   0  0  0  0  0  0  0  0  0  0  0  0
    7.6562  -13.6581   26.2445 C   0  0  0  0  0  0  0  0  0  0  0  0
   11.0892  -16.7728   25.3695 C   0  0  0  0  0  0  0  0  0  0  0  0
   11.2781  -17.8355   24.6967 O   0  0  0  0  0  0  0  0  0  0  0  0
   12.1219  -16.4642   26.2547 O   0  0  0  0  0  0  0  0  0  0  0  0
  2  3  1  6
  2  1  1  0
  4  2  1  0
  4  5  1  1
  6  4  1  0
  6  7  2  0
  8  9  1  0
  9 10  2  0
 11 12  1  0
 11  9  1  0
 13 14  1  0
 13 12  1  1
 14  6  1  0
 15 13  1  0
 16 15  2  0
 17 15  1  0
 18 17  1  0
 18 19  1  1
 20 19  1  0
 20 28  1  0
 21 22  1  0
 21 20  2  0
 22 23  1  0
 23 28  2  0
 23 24  1  0
 24 25  2  0
 25 26  1  0
 27 26  2  0
 28 27  1  0
 29 18  1  0
 29 31  1  0
 30 29  2  0
M  END
$$$$
