VQW.pdb
     RDKit          3D

 31 32  0  0  1  0  0  0  0  0999 V2000
    7.4302  -13.2613   21.4246 C   0  0  0  0  0  0  0  0  0  0  0  0
    8.3736  -13.3176   20.2380 C   0  0  2  0  0  0  0  0  0  0  0  0
    7.9114  -12.2732   19.2447 C   0  0  0  0  0  0  0  0  0  0  0  0
    8.3262  -14.6911   19.6668 C   0  0  2  0  0  0  0  0  0  0  0  0
    6.9945  -14.9567   19.0968 N   0  0  0  0  0  0  0  0  0  0  0  0
    8.6338  -15.7803   20.5753 C   0  0  0  0  0  0  0  0  0  0  0  0
    7.6496  -16.3406   21.1674 O   0  0  0  0  0  0  0  0  0  0  0  0
   13.3974  -19.5995   20.1103 N   0  0  0  0  0  0  0  0  0  0  0  0
   13.3509  -19.5238   21.5162 C   0  0  0  0  0  0  0  0  0  0  0  0
   14.3620  -19.9108   22.1501 O   0  0  0  0  0  0  0  0  0  0  0  0
   12.1168  -18.9951   22.1495 C   0  0  0  0  0  0  0  0  0  0  0  0
   11.4949  -17.9503   21.3041 C   0  0  0  0  0  0  0  0  0  0  0  0
   10.2265  -17.3240   21.8143 C   0  0  2  0  0  0  0  0  0  0  0  0
    9.9470  -16.2406   20.8298 N   0  0  0  0  0  0  0  0  0  0  0  0
   10.4792  -16.6986   23.1365 C   0  0  0  0  0  0  0  0  0  0  0  0
   11.2291  -15.6641   23.2171 O   0  0  0  0  0  0  0  0  0  0  0  0
    9.9415  -17.1582   24.3612 N   0  0  0  0  0  0  0  0  0  0  0  0
   10.4345  -16.6449   25.6607 C   0  0  1  0  0  0  0  0  0  0  0  0
   10.1698  -15.1811   25.7213 C   0  0  0  0  0  0  0  0  0  0  0  0
    8.7417  -14.8244   25.7146 C   0  0  0  0  0  0  0  0  0  0  0  0
    7.6826  -15.7257   25.5029 C   0  0  0  0  0  0  0  0  0  0  0  0
    6.5166  -15.0863   25.5228 N   0  0  0  0  0  0  0  0  0  0  0  0
    6.7615  -13.7878   25.7415 C   0  0  0  0  0  0  0  0  0  0  0  0
    5.9103  -12.6923   25.8704 C   0  0  0  0  0  0  0  0  0  0  0  0
    6.4291  -11.4462   26.1171 C   0  0  0  0  0  0  0  0  0  0  0  0
    7.7858  -11.2453   26.2426 C   0  0  0  0  0  0  0  0  0  0  0  0
    8.6063  -12.3387   26.1113 C   0  0  0  0  0  0  0  0  0  0  0  0
    8.1049  -13.6005   25.8623 C   0  0  0  0  0  0  0  0  0  0  0  0
    9.8703  -17.4300   26.7352 C   0  0  0  0  0  0  0  0  0  0  0  0
    9.0910  -18.4131   26.5261 O   0  0  0  0  0  0  0  0  0  0  0  0
   10.1290  -17.1807   28.0828 O   0  0  0  0  0  0  0  0  0  0  0  0
  2  3  1  6
  2  1  1  0
  4  2  1  0
  4  5  1  1
  6  4  1  0
  6  7  2  0
  8  9  1  0
  9 10  2  0
 11 12  1  0
 11  9  1  0
 13 14  1  0
 13 12  1  6
 14  6  1  0
 15 13  1  0
 16 15  2  0
 17 15  1  0
 18 17  1  0
 18 19  1  1
 20 19  1  0
 20 28  1  0
 21 22  1  0
 21 20  2  0
 22 23  1  0
 23 28  2  0
 23 24  1  0
 24 25  2  0
 25 26  1  0
 27 26  2  0
 28 27  1  0
 29 18  1  0
 29 31  1  0
 30 29  2  0
M  END
$$$$
