VQW.pdb
     RDKit          3D

 31 32  0  0  1  0  0  0  0  0999 V2000
    7.4126  -12.6875   19.1143 C   0  0  0  0  0  0  0  0  0  0  0  0
    7.6709  -13.6082   20.2918 C   0  0  2  0  0  0  0  0  0  0  0  0
    8.4582  -12.8198   21.3164 C   0  0  0  0  0  0  0  0  0  0  0  0
    8.4234  -14.7951   19.8020 C   0  0  2  0  0  0  0  0  0  0  0  0
    7.6803  -15.4518   18.7133 N   0  0  0  0  0  0  0  0  0  0  0  0
    8.7382  -15.8131   20.7874 C   0  0  0  0  0  0  0  0  0  0  0  0
    7.8790  -16.7434   20.9587 O   0  0  0  0  0  0  0  0  0  0  0  0
   13.5822  -18.2457   19.1876 N   0  0  0  0  0  0  0  0  0  0  0  0
   13.0870  -18.5745   20.4647 C   0  0  0  0  0  0  0  0  0  0  0  0
   13.8661  -19.1607   21.2540 O   0  0  0  0  0  0  0  0  0  0  0  0
   11.6854  -18.2082   20.7890 C   0  0  0  0  0  0  0  0  0  0  0  0
   11.6252  -17.3865   22.0195 C   0  0  0  0  0  0  0  0  0  0  0  0
   10.2639  -16.9405   22.4774 C   0  0  2  0  0  0  0  0  0  0  0  0
    9.9290  -15.8220   21.5511 N   0  0  0  0  0  0  0  0  0  0  0  0
   10.3583  -16.3935   23.8540 C   0  0  0  0  0  0  0  0  0  0  0  0
   11.0560  -15.3428   24.0737 O   0  0  0  0  0  0  0  0  0  0  0  0
    9.7183  -16.9477   24.9869 N   0  0  0  0  0  0  0  0  0  0  0  0
   10.0180  -16.4647   26.3551 C   0  0  1  0  0  0  0  0  0  0  0  0
    8.7481  -16.4268   27.1312 C   0  0  0  0  0  0  0  0  0  0  0  0
    7.6945  -15.5959   26.5259 C   0  0  0  0  0  0  0  0  0  0  0  0
    6.6265  -16.0807   25.7493 C   0  0  0  0  0  0  0  0  0  0  0  0
    5.8688  -15.0751   25.3209 N   0  0  0  0  0  0  0  0  0  0  0  0
    6.3948  -13.9345   25.7861 C   0  0  0  0  0  0  0  0  0  0  0  0
    5.9949  -12.6066   25.6528 C   0  0  0  0  0  0  0  0  0  0  0  0
    6.7158  -11.6092   26.2597 C   0  0  0  0  0  0  0  0  0  0  0  0
    7.8385  -11.8878   27.0072 C   0  0  0  0  0  0  0  0  0  0  0  0
    8.2149  -13.2031   27.1248 C   0  0  0  0  0  0  0  0  0  0  0  0
    7.5043  -14.2214   26.5218 C   0  0  0  0  0  0  0  0  0  0  0  0
   11.0797  -17.2617   26.9267 C   0  0  0  0  0  0  0  0  0  0  0  0
   11.5736  -17.0194   28.0734 O   0  0  0  0  0  0  0  0  0  0  0  0
   11.6499  -18.3561   26.2770 O   0  0  0  0  0  0  0  0  0  0  0  0
  2  3  1  1
  2  1  1  0
  4  2  1  0
  4  5  1  6
  6  4  1  0
  6  7  2  0
  8  9  1  0
  9 10  2  0
 11 12  1  0
 11  9  1  0
 13 14  1  0
 13 12  1  6
 14  6  1  0
 15 13  1  0
 16 15  2  0
 17 15  1  0
 18 17  1  0
 18 19  1  1
 20 19  1  0
 20 28  1  0
 21 22  1  0
 21 20  2  0
 22 23  1  0
 23 28  2  0
 23 24  1  0
 24 25  2  0
 25 26  1  0
 27 26  2  0
 28 27  1  0
 29 18  1  0
 29 31  1  0
 30 29  2  0
M  END
$$$$
