VQW.pdb
     RDKit          3D

 31 32  0  0  1  0  0  0  0  0999 V2000
    6.9389  -13.4476   20.8320 C   0  0  0  0  0  0  0  0  0  0  0  0
    8.1361  -13.3257   19.9084 C   0  0  2  0  0  0  0  0  0  0  0  0
    7.7352  -12.4144   18.7684 C   0  0  0  0  0  0  0  0  0  0  0  0
    8.5011  -14.6878   19.4326 C   0  0  2  0  0  0  0  0  0  0  0  0
    7.4333  -15.2270   18.5735 N   0  0  0  0  0  0  0  0  0  0  0  0
    8.7752  -15.6788   20.4568 C   0  0  0  0  0  0  0  0  0  0  0  0
    7.8325  -16.4907   20.7490 O   0  0  0  0  0  0  0  0  0  0  0  0
   12.9195  -19.5989   20.3437 N   0  0  0  0  0  0  0  0  0  0  0  0
   13.0276  -19.4453   21.7398 C   0  0  0  0  0  0  0  0  0  0  0  0
   14.0337  -19.9426   22.3004 O   0  0  0  0  0  0  0  0  0  0  0  0
   11.9506  -18.7106   22.4497 C   0  0  0  0  0  0  0  0  0  0  0  0
   11.4022  -17.6274   21.6018 C   0  0  0  0  0  0  0  0  0  0  0  0
   10.2609  -16.8282   22.1676 C   0  0  2  0  0  0  0  0  0  0  0  0
   10.0135  -15.7847   21.1326 N   0  0  0  0  0  0  0  0  0  0  0  0
   10.6984  -16.1531   23.4150 C   0  0  0  0  0  0  0  0  0  0  0  0
   11.9407  -15.9058   23.6014 O   0  0  0  0  0  0  0  0  0  0  0  0
    9.8323  -15.7389   24.4535 N   0  0  0  0  0  0  0  0  0  0  0  0
   10.0509  -16.1644   25.8557 C   0  0  1  0  0  0  0  0  0  0  0  0
    8.7426  -16.5784   26.4330 C   0  0  0  0  0  0  0  0  0  0  0  0
    7.6762  -15.5729   26.2958 C   0  0  0  0  0  0  0  0  0  0  0  0
    6.3353  -15.8527   25.9759 C   0  0  0  0  0  0  0  0  0  0  0  0
    5.6322  -14.7269   25.8928 N   0  0  0  0  0  0  0  0  0  0  0  0
    6.4587  -13.7042   26.1474 C   0  0  0  0  0  0  0  0  0  0  0  0
    6.2419  -12.3292   26.2073 C   0  0  0  0  0  0  0  0  0  0  0  0
    7.2784  -11.4844   26.5149 C   0  0  0  0  0  0  0  0  0  0  0  0
    8.5441  -11.9640   26.7696 C   0  0  0  0  0  0  0  0  0  0  0  0
    8.7355  -13.3222   26.7044 C   0  0  0  0  0  0  0  0  0  0  0  0
    7.7066  -14.1893   26.3960 C   0  0  0  0  0  0  0  0  0  0  0  0
   11.0997  -17.1579   25.9008 C   0  0  0  0  0  0  0  0  0  0  0  0
   11.3558  -17.9253   24.9194 O   0  0  0  0  0  0  0  0  0  0  0  0
   11.9152  -17.3601   27.0140 O   0  0  0  0  0  0  0  0  0  0  0  0
  2  3  1  6
  2  1  1  0
  4  2  1  0
  4  5  1  1
  6  4  1  0
  6  7  2  0
  8  9  1  0
  9 10  2  0
 11 12  1  0
 11  9  1  0
 13 14  1  0
 13 12  1  6
 14  6  1  0
 15 13  1  0
 16 15  2  0
 17 15  1  0
 18 17  1  0
 18 19  1  6
 20 19  1  0
 20 28  1  0
 21 22  1  0
 21 20  2  0
 22 23  1  0
 23 28  2  0
 23 24  1  0
 24 25  2  0
 25 26  1  0
 27 26  2  0
 28 27  1  0
 29 18  1  0
 29 31  1  0
 30 29  2  0
M  END
$$$$
