VQW.pdb
     RDKit          3D

 31 32  0  0  1  0  0  0  0  0999 V2000
    7.2087  -12.8193   19.7975 C   0  0  0  0  0  0  0  0  0  0  0  0
    7.6878  -13.6728   20.9565 C   0  0  2  0  0  0  0  0  0  0  0  0
    8.8097  -12.9190   21.6379 C   0  0  0  0  0  0  0  0  0  0  0  0
    8.1426  -14.9830   20.4167 C   0  0  2  0  0  0  0  0  0  0  0  0
    7.0604  -15.6152   19.6435 N   0  0  0  0  0  0  0  0  0  0  0  0
    8.6072  -15.9564   21.3878 C   0  0  0  0  0  0  0  0  0  0  0  0
    7.7195  -16.6685   21.9692 O   0  0  0  0  0  0  0  0  0  0  0  0
   13.0290  -19.3637   20.7258 N   0  0  0  0  0  0  0  0  0  0  0  0
   13.1667  -19.5475   22.1156 C   0  0  0  0  0  0  0  0  0  0  0  0
   13.8260  -20.5411   22.5053 O   0  0  0  0  0  0  0  0  0  0  0  0
   12.5262  -18.5602   23.0204 C   0  0  0  0  0  0  0  0  0  0  0  0
   11.8066  -17.5230   22.2461 C   0  0  0  0  0  0  0  0  0  0  0  0
   10.4099  -17.1853   22.6897 C   0  0  2  0  0  0  0  0  0  0  0  0
    9.9704  -16.1488   21.7132 N   0  0  0  0  0  0  0  0  0  0  0  0
   10.4537  -16.5667   24.0382 C   0  0  0  0  0  0  0  0  0  0  0  0
   11.1788  -15.5307   24.2387 O   0  0  0  0  0  0  0  0  0  0  0  0
    9.7354  -17.0345   25.1631 N   0  0  0  0  0  0  0  0  0  0  0  0
   10.0130  -16.5192   26.5242 C   0  0  1  0  0  0  0  0  0  0  0  0
    8.7189  -16.3657   27.2440 C   0  0  0  0  0  0  0  0  0  0  0  0
    7.7079  -15.5869   26.5102 C   0  0  0  0  0  0  0  0  0  0  0  0
    6.6488  -16.1341   25.7635 C   0  0  0  0  0  0  0  0  0  0  0  0
    5.9336  -15.1683   25.1938 N   0  0  0  0  0  0  0  0  0  0  0  0
    6.4794  -13.9939   25.5357 C   0  0  0  0  0  0  0  0  0  0  0  0
    6.1228  -12.6819   25.2315 C   0  0  0  0  0  0  0  0  0  0  0  0
    6.8550  -11.6375   25.7374 C   0  0  0  0  0  0  0  0  0  0  0  0
    7.9472  -11.8528   26.5483 C   0  0  0  0  0  0  0  0  0  0  0  0
    8.2812  -13.1537   26.8346 C   0  0  0  0  0  0  0  0  0  0  0  0
    7.5585  -14.2185   26.3355 C   0  0  0  0  0  0  0  0  0  0  0  0
   10.9938  -17.3627   27.1689 C   0  0  0  0  0  0  0  0  0  0  0  0
   11.4031  -18.4509   26.6532 O   0  0  0  0  0  0  0  0  0  0  0  0
   11.5722  -17.0597   28.4013 O   0  0  0  0  0  0  0  0  0  0  0  0
  2  3  1  6
  2  1  1  0
  4  2  1  0
  4  5  1  1
  6  4  1  0
  6  7  2  0
  8  9  1  0
  9 10  2  0
 11 12  1  0
 11  9  1  0
 13 14  1  0
 13 12  1  6
 14  6  1  0
 15 13  1  0
 16 15  2  0
 17 15  1  0
 18 17  1  0
 18 19  1  1
 20 19  1  0
 20 28  1  0
 21 22  1  0
 21 20  2  0
 22 23  1  0
 23 28  2  0
 23 24  1  0
 24 25  2  0
 25 26  1  0
 27 26  2  0
 28 27  1  0
 29 18  1  0
 29 31  1  0
 30 29  2  0
M  END
$$$$
