VQW.pdb
     RDKit          3D

 31 32  0  0  1  0  0  0  0  0999 V2000
    7.1643  -12.8191   18.5668 C   0  0  0  0  0  0  0  0  0  0  0  0
    7.7277  -13.6282   19.7195 C   0  0  2  0  0  0  0  0  0  0  0  0
    8.7758  -12.7741   20.4000 C   0  0  0  0  0  0  0  0  0  0  0  0
    8.3028  -14.8867   19.1713 C   0  0  2  0  0  0  0  0  0  0  0  0
    7.2939  -15.5960   18.3665 N   0  0  0  0  0  0  0  0  0  0  0  0
    8.8287  -15.8325   20.1385 C   0  0  0  0  0  0  0  0  0  0  0  0
    7.9830  -16.5645   20.7566 O   0  0  0  0  0  0  0  0  0  0  0  0
   14.2907  -18.2669   19.8291 N   0  0  0  0  0  0  0  0  0  0  0  0
   14.0420  -18.7411   21.1320 C   0  0  0  0  0  0  0  0  0  0  0  0
   14.9011  -19.4969   21.6464 O   0  0  0  0  0  0  0  0  0  0  0  0
   12.7881  -18.3182   21.8047 C   0  0  0  0  0  0  0  0  0  0  0  0
   12.0021  -17.4121   20.9363 C   0  0  0  0  0  0  0  0  0  0  0  0
   10.7010  -16.8966   21.4865 C   0  0  2  0  0  0  0  0  0  0  0  0
   10.2070  -15.9778   20.4221 N   0  0  0  0  0  0  0  0  0  0  0  0
   10.9618  -16.0963   22.7090 C   0  0  0  0  0  0  0  0  0  0  0  0
   11.3023  -14.8667   22.6028 O   0  0  0  0  0  0  0  0  0  0  0  0
   10.8596  -16.5881   24.0311 N   0  0  0  0  0  0  0  0  0  0  0  0
    9.8762  -16.0290   24.9879 C   0  0  1  0  0  0  0  0  0  0  0  0
    8.6518  -15.6422   24.2346 C   0  0  0  0  0  0  0  0  0  0  0  0
    7.6274  -14.9699   25.0505 C   0  0  0  0  0  0  0  0  0  0  0  0
    6.4005  -15.5375   25.4394 C   0  0  0  0  0  0  0  0  0  0  0  0
    5.6845  -14.6628   26.1401 N   0  0  0  0  0  0  0  0  0  0  0  0
    6.3928  -13.5297   26.2329 C   0  0  0  0  0  0  0  0  0  0  0  0
    6.1237  -12.3168   26.8634 C   0  0  0  0  0  0  0  0  0  0  0  0
    7.0474  -11.3030   26.8224 C   0  0  0  0  0  0  0  0  0  0  0  0
    8.2493  -11.4528   26.1667 C   0  0  0  0  0  0  0  0  0  0  0  0
    8.4934  -12.6561   25.5517 C   0  0  0  0  0  0  0  0  0  0  0  0
    7.5775  -13.6885   25.5804 C   0  0  0  0  0  0  0  0  0  0  0  0
    9.6766  -16.9608   26.0747 C   0  0  0  0  0  0  0  0  0  0  0  0
    9.5527  -18.2126   25.8867 O   0  0  0  0  0  0  0  0  0  0  0  0
    9.6033  -16.5724   27.4122 O   0  0  0  0  0  0  0  0  0  0  0  0
  2  3  1  6
  2  1  1  0
  4  2  1  0
  4  5  1  1
  6  4  1  0
  6  7  2  0
  8  9  1  0
  9 10  2  0
 11 12  1  0
 11  9  1  0
 13 14  1  0
 13 12  1  6
 14  6  1  0
 15 13  1  0
 16 15  2  0
 17 15  1  0
 18 17  1  0
 18 19  1  6
 20 19  1  0
 20 28  1  0
 21 22  1  0
 21 20  2  0
 22 23  1  0
 23 28  2  0
 23 24  1  0
 24 25  2  0
 25 26  1  0
 27 26  2  0
 28 27  1  0
 29 18  1  0
 29 31  1  0
 30 29  2  0
M  END
$$$$
