VQW.pdb
     RDKit          3D

 31 32  0  0  1  0  0  0  0  0999 V2000
    7.7235  -12.5668   18.5895 C   0  0  0  0  0  0  0  0  0  0  0  0
    7.8824  -13.4055   19.8434 C   0  0  2  0  0  0  0  0  0  0  0  0
    8.9832  -12.7764   20.6701 C   0  0  0  0  0  0  0  0  0  0  0  0
    8.2159  -14.7977   19.4365 C   0  0  2  0  0  0  0  0  0  0  0  0
    7.1808  -15.3218   18.5295 N   0  0  0  0  0  0  0  0  0  0  0  0
    8.3821  -15.7624   20.5080 C   0  0  0  0  0  0  0  0  0  0  0  0
    7.3199  -16.1998   21.0680 O   0  0  0  0  0  0  0  0  0  0  0  0
   12.9055  -19.6230   20.6652 N   0  0  0  0  0  0  0  0  0  0  0  0
   12.5207  -19.8937   21.9929 C   0  0  0  0  0  0  0  0  0  0  0  0
   13.1453  -20.7936   22.6043 O   0  0  0  0  0  0  0  0  0  0  0  0
   11.4087  -19.1017   22.5760 C   0  0  0  0  0  0  0  0  0  0  0  0
   10.8855  -18.1236   21.5949 C   0  0  0  0  0  0  0  0  0  0  0  0
    9.7690  -17.2265   22.0533 C   0  0  2  0  0  0  0  0  0  0  0  0
    9.6410  -16.2311   20.9515 N   0  0  0  0  0  0  0  0  0  0  0  0
   10.1834  -16.5085   23.2845 C   0  0  0  0  0  0  0  0  0  0  0  0
   11.1619  -15.6840   23.2402 O   0  0  0  0  0  0  0  0  0  0  0  0
    9.5677  -16.6558   24.5492 N   0  0  0  0  0  0  0  0  0  0  0  0
   10.3011  -16.3626   25.8027 C   0  0  1  0  0  0  0  0  0  0  0  0
    9.8703  -15.0273   26.3004 C   0  0  0  0  0  0  0  0  0  0  0  0
    8.4182  -14.7962   26.2313 C   0  0  0  0  0  0  0  0  0  0  0  0
    7.4450  -15.7992   26.0717 C   0  0  0  0  0  0  0  0  0  0  0  0
    6.2295  -15.2627   26.0113 N   0  0  0  0  0  0  0  0  0  0  0  0
    6.3583  -13.9345   26.1261 C   0  0  0  0  0  0  0  0  0  0  0  0
    5.4151  -12.9092   26.1434 C   0  0  0  0  0  0  0  0  0  0  0  0
    5.8203  -11.6073   26.2967 C   0  0  0  0  0  0  0  0  0  0  0  0
    7.1511  -11.2812   26.4359 C   0  0  0  0  0  0  0  0  0  0  0  0
    8.0636  -12.3072   26.4153 C   0  0  0  0  0  0  0  0  0  0  0  0
    7.6772  -13.6234   26.2615 C   0  0  0  0  0  0  0  0  0  0  0  0
   10.1348  -17.4610   26.7274 C   0  0  0  0  0  0  0  0  0  0  0  0
    9.3646  -18.4444   26.4881 O   0  0  0  0  0  0  0  0  0  0  0  0
   10.7985  -17.5380   27.9516 O   0  0  0  0  0  0  0  0  0  0  0  0
  2  3  1  1
  2  1  1  0
  4  2  1  0
  4  5  1  6
  6  4  1  0
  6  7  2  0
  8  9  1  0
  9 10  2  0
 11 12  1  0
 11  9  1  0
 13 14  1  0
 13 12  1  6
 14  6  1  0
 15 13  1  0
 16 15  2  0
 17 15  1  0
 18 17  1  0
 18 19  1  1
 20 19  1  0
 20 28  1  0
 21 22  1  0
 21 20  2  0
 22 23  1  0
 23 28  2  0
 23 24  1  0
 24 25  2  0
 25 26  1  0
 27 26  2  0
 28 27  1  0
 29 18  1  0
 29 31  1  0
 30 29  2  0
M  END
$$$$
