VQW.pdb
     RDKit          3D

 31 32  0  0  1  0  0  0  0  0999 V2000
    7.4681  -12.9955   20.6734 C   0  0  0  0  0  0  0  0  0  0  0  0
    8.6102  -13.2531   19.7088 C   0  0  2  0  0  0  0  0  0  0  0  0
    8.5008  -12.2313   18.5975 C   0  0  0  0  0  0  0  0  0  0  0  0
    8.4884  -14.6465   19.2002 C   0  0  2  0  0  0  0  0  0  0  0  0
    7.2466  -14.7948   18.4225 N   0  0  0  0  0  0  0  0  0  0  0  0
    8.5048  -15.7022   20.1960 C   0  0  0  0  0  0  0  0  0  0  0  0
    7.3807  -16.0505   20.6942 O   0  0  0  0  0  0  0  0  0  0  0  0
   11.9311  -20.9379   20.6631 N   0  0  0  0  0  0  0  0  0  0  0  0
   11.3318  -20.1736   19.6428 C   0  0  0  0  0  0  0  0  0  0  0  0
   11.7464  -20.3459   18.4714 O   0  0  0  0  0  0  0  0  0  0  0  0
   10.2571  -19.2213   20.0194 C   0  0  0  0  0  0  0  0  0  0  0  0
   10.6510  -18.4202   21.2009 C   0  0  0  0  0  0  0  0  0  0  0  0
    9.6649  -17.3965   21.6921 C   0  0  2  0  0  0  0  0  0  0  0  0
    9.6847  -16.3500   20.6312 N   0  0  0  0  0  0  0  0  0  0  0  0
   10.1638  -16.7921   22.9526 C   0  0  0  0  0  0  0  0  0  0  0  0
   11.1554  -15.9828   22.9202 O   0  0  0  0  0  0  0  0  0  0  0  0
    9.6182  -17.0360   24.2344 N   0  0  0  0  0  0  0  0  0  0  0  0
   10.2791  -16.5346   25.4619 C   0  0  1  0  0  0  0  0  0  0  0  0
    9.9742  -15.0843   25.6036 C   0  0  0  0  0  0  0  0  0  0  0  0
    8.5440  -14.7815   25.7765 C   0  0  0  0  0  0  0  0  0  0  0  0
    7.5026  -15.7249   25.7114 C   0  0  0  0  0  0  0  0  0  0  0  0
    6.3246  -15.1294   25.8743 N   0  0  0  0  0  0  0  0  0  0  0  0
    6.5445  -13.8195   26.0468 C   0  0  0  0  0  0  0  0  0  0  0  0
    5.6746  -12.7549   26.2728 C   0  0  0  0  0  0  0  0  0  0  0  0
    6.1716  -11.4867   26.4385 C   0  0  0  0  0  0  0  0  0  0  0  0
    7.5244  -11.2333   26.3869 C   0  0  0  0  0  0  0  0  0  0  0  0
    8.3634  -12.2969   26.1624 C   0  0  0  0  0  0  0  0  0  0  0  0
    7.8840  -13.5802   25.9925 C   0  0  0  0  0  0  0  0  0  0  0  0
    9.9083  -17.3667   26.5841 C   0  0  0  0  0  0  0  0  0  0  0  0
    9.0179  -18.2709   26.4988 O   0  0  0  0  0  0  0  0  0  0  0  0
   10.4893  -17.2523   27.8468 O   0  0  0  0  0  0  0  0  0  0  0  0
  2  3  1  6
  2  1  1  0
  4  2  1  0
  4  5  1  1
  6  4  1  0
  6  7  2  0
  8  9  1  0
  9 10  2  0
 11 12  1  0
 11  9  1  0
 13 14  1  0
 13 12  1  6
 14  6  1  0
 15 13  1  0
 16 15  2  0
 17 15  1  0
 18 17  1  0
 18 19  1  1
 20 19  1  0
 20 28  1  0
 21 22  1  0
 21 20  2  0
 22 23  1  0
 23 28  2  0
 23 24  1  0
 24 25  2  0
 25 26  1  0
 27 26  2  0
 28 27  1  0
 29 18  1  0
 29 31  1  0
 30 29  2  0
M  END
$$$$
