VQW.pdb
     RDKit          3D

 31 32  0  0  1  0  0  0  0  0999 V2000
    7.7114  -12.4981   19.4112 C   0  0  0  0  0  0  0  0  0  0  0  0
    7.9996  -13.3535   20.6303 C   0  0  2  0  0  0  0  0  0  0  0  0
    9.1216  -12.6848   21.3953 C   0  0  0  0  0  0  0  0  0  0  0  0
    8.3747  -14.7173   20.1675 C   0  0  2  0  0  0  0  0  0  0  0  0
    7.2960  -15.2864   19.3420 N   0  0  0  0  0  0  0  0  0  0  0  0
    8.6877  -15.6876   21.2005 C   0  0  0  0  0  0  0  0  0  0  0  0
    7.7096  -16.3365   21.7058 O   0  0  0  0  0  0  0  0  0  0  0  0
   11.7943  -20.6813   20.3618 N   0  0  0  0  0  0  0  0  0  0  0  0
   12.3998  -19.4980   20.8282 C   0  0  0  0  0  0  0  0  0  0  0  0
   13.5847  -19.5754   21.2332 O   0  0  0  0  0  0  0  0  0  0  0  0
   11.6008  -18.2471   20.8101 C   0  0  0  0  0  0  0  0  0  0  0  0
   11.6031  -17.5993   22.1417 C   0  0  0  0  0  0  0  0  0  0  0  0
   10.2967  -17.0372   22.6304 C   0  0  2  0  0  0  0  0  0  0  0  0
    9.9999  -15.9424   21.6638 N   0  0  0  0  0  0  0  0  0  0  0  0
   10.4874  -16.4345   23.9734 C   0  0  0  0  0  0  0  0  0  0  0  0
   11.2885  -15.4463   24.1183 O   0  0  0  0  0  0  0  0  0  0  0  0
    9.8352  -16.8677   25.1511 N   0  0  0  0  0  0  0  0  0  0  0  0
   10.2384  -16.3652   26.4853 C   0  0  1  0  0  0  0  0  0  0  0  0
    9.0240  -16.2712   27.3413 C   0  0  0  0  0  0  0  0  0  0  0  0
    7.8995  -15.5542   26.7182 C   0  0  0  0  0  0  0  0  0  0  0  0
    6.8376  -16.1607   26.0229 C   0  0  0  0  0  0  0  0  0  0  0  0
    6.0034  -15.2385   25.5513 N   0  0  0  0  0  0  0  0  0  0  0  0
    6.4723  -14.0360   25.9090 C   0  0  0  0  0  0  0  0  0  0  0  0
    5.9850  -12.7487   25.6931 C   0  0  0  0  0  0  0  0  0  0  0  0
    6.6623  -11.6660   26.1950 C   0  0  0  0  0  0  0  0  0  0  0  0
    7.8260  -11.8182   26.9159 C   0  0  0  0  0  0  0  0  0  0  0  0
    8.2885  -13.0956   27.1161 C   0  0  0  0  0  0  0  0  0  0  0  0
    7.6228  -14.1981   26.6193 C   0  0  0  0  0  0  0  0  0  0  0  0
   11.3112  -17.1826   27.0050 C   0  0  0  0  0  0  0  0  0  0  0  0
   11.6726  -18.2684   26.4500 O   0  0  0  0  0  0  0  0  0  0  0  0
   12.0374  -16.8551   28.1497 O   0  0  0  0  0  0  0  0  0  0  0  0
  2  3  1  6
  2  1  1  0
  4  2  1  0
  4  5  1  1
  6  4  1  0
  6  7  2  0
  8  9  1  0
  9 10  2  0
 11 12  1  0
 11  9  1  0
 13 14  1  0
 13 12  1  6
 14  6  1  0
 15 13  1  0
 16 15  2  0
 17 15  1  0
 18 17  1  0
 18 19  1  1
 20 19  1  0
 20 28  1  0
 21 22  1  0
 21 20  2  0
 22 23  1  0
 23 28  2  0
 23 24  1  0
 24 25  2  0
 25 26  1  0
 27 26  2  0
 28 27  1  0
 29 18  1  0
 29 31  1  0
 30 29  2  0
M  END
$$$$
