VQW.pdb
     RDKit          3D

 31 32  0  0  1  0  0  0  0  0999 V2000
    6.9547  -13.3517   21.3392 C   0  0  0  0  0  0  0  0  0  0  0  0
    8.2142  -13.1845   20.5105 C   0  0  2  0  0  0  0  0  0  0  0  0
    7.9333  -12.1181   19.4736 C   0  0  0  0  0  0  0  0  0  0  0  0
    8.5428  -14.4958   19.8880 C   0  0  2  0  0  0  0  0  0  0  0  0
    7.5045  -14.8672   18.9118 N   0  0  0  0  0  0  0  0  0  0  0  0
    8.7078  -15.6181   20.7933 C   0  0  0  0  0  0  0  0  0  0  0  0
    7.7150  -16.4122   20.9237 O   0  0  0  0  0  0  0  0  0  0  0  0
   12.8738  -20.7335   21.3836 N   0  0  0  0  0  0  0  0  0  0  0  0
   12.9454  -19.5034   22.0664 C   0  0  0  0  0  0  0  0  0  0  0  0
   14.0669  -18.9457   22.1375 O   0  0  0  0  0  0  0  0  0  0  0  0
   11.6976  -18.9531   22.6526 C   0  0  0  0  0  0  0  0  0  0  0  0
   11.2424  -17.7603   21.9022 C   0  0  0  0  0  0  0  0  0  0  0  0
   10.0300  -17.0433   22.4290 C   0  0  2  0  0  0  0  0  0  0  0  0
    9.8938  -15.8679   21.5229 N   0  0  0  0  0  0  0  0  0  0  0  0
   10.3049  -16.5456   23.8001 C   0  0  0  0  0  0  0  0  0  0  0  0
   11.1324  -15.5841   23.9729 O   0  0  0  0  0  0  0  0  0  0  0  0
    9.7084  -17.0549   24.9769 N   0  0  0  0  0  0  0  0  0  0  0  0
   10.0861  -16.5450   26.3157 C   0  0  1  0  0  0  0  0  0  0  0  0
    8.8449  -16.3519   27.1148 C   0  0  0  0  0  0  0  0  0  0  0  0
    7.8316  -15.5065   26.4625 C   0  0  0  0  0  0  0  0  0  0  0  0
    6.7253  -15.9827   25.7358 C   0  0  0  0  0  0  0  0  0  0  0  0
    6.0203  -14.9680   25.2437 N   0  0  0  0  0  0  0  0  0  0  0  0
    6.6185  -13.8296   25.6182 C   0  0  0  0  0  0  0  0  0  0  0  0
    6.2940  -12.4936   25.3925 C   0  0  0  0  0  0  0  0  0  0  0  0
    7.0807  -11.4990   25.9165 C   0  0  0  0  0  0  0  0  0  0  0  0
    8.1971  -11.7882   26.6694 C   0  0  0  0  0  0  0  0  0  0  0  0
    8.4987  -13.1114   26.8787 C   0  0  0  0  0  0  0  0  0  0  0  0
    7.7210  -14.1272   26.3600 C   0  0  0  0  0  0  0  0  0  0  0  0
   11.0805  -17.4155   26.9010 C   0  0  0  0  0  0  0  0  0  0  0  0
   11.3750  -18.5480   26.4025 O   0  0  0  0  0  0  0  0  0  0  0  0
   11.7978  -17.0927   28.0527 O   0  0  0  0  0  0  0  0  0  0  0  0
  2  3  1  6
  2  1  1  0
  4  2  1  0
  4  5  1  6
  6  4  1  0
  6  7  2  0
  8  9  1  0
  9 10  2  0
 11 12  1  0
 11  9  1  0
 13 14  1  0
 13 12  1  6
 14  6  1  0
 15 13  1  0
 16 15  2  0
 17 15  1  0
 18 17  1  0
 18 19  1  1
 20 19  1  0
 20 28  1  0
 21 22  1  0
 21 20  2  0
 22 23  1  0
 23 28  2  0
 23 24  1  0
 24 25  2  0
 25 26  1  0
 27 26  2  0
 28 27  1  0
 29 18  1  0
 29 31  1  0
 30 29  2  0
M  END
$$$$
