VRK.pdb
     RDKit          3D

 28 27  0  0  1  0  0  0  0  0999 V2000
   12.2190  -12.5657  -14.2063 C   0  0  0  0  0  0  0  0  0  0  0  0
   13.1008  -11.4040  -13.8910 C   0  0  2  0  0  0  0  0  0  0  0  0
   13.1559  -10.4454  -15.0594 C   0  0  0  0  0  0  0  0  0  0  0  0
   14.5049  -11.8295  -13.5101 C   0  0  2  0  0  0  0  0  0  0  0  0
   14.3913  -12.6647  -12.3327 N   0  0  0  0  0  0  0  0  0  0  0  0
   15.3553  -10.6705  -13.1650 C   0  0  0  0  0  0  0  0  0  0  0  0
   15.0619   -9.9772  -12.1642 O   0  0  0  0  0  0  0  0  0  0  0  0
   20.9851   -5.7474  -15.7343 N   0  0  0  0  0  0  0  0  0  0  0  0
   21.7230   -6.1237  -14.5614 C   0  0  0  0  0  0  0  0  0  0  0  0
   22.2151   -5.2175  -13.8197 N   0  0  0  0  0  0  0  0  0  0  0  0
   21.9051   -7.4821  -14.2255 N   0  0  0  0  0  0  0  0  0  0  0  0
   20.9344   -8.5035  -14.5433 C   0  0  0  0  0  0  0  0  0  0  0  0
   19.5945   -8.1642  -13.8823 C   0  0  0  0  0  0  0  0  0  0  0  0
   18.7034   -9.3509  -14.1157 C   0  0  0  0  0  0  0  0  0  0  0  0
   17.2816   -9.0996  -13.6044 C   0  0  2  0  0  0  0  0  0  0  0  0
   16.4967  -10.2907  -13.9062 N   0  0  0  0  0  0  0  0  0  0  0  0
   16.6783   -7.8928  -14.2273 C   0  0  0  0  0  0  0  0  0  0  0  0
   16.0513   -7.9932  -15.3284 O   0  0  0  0  0  0  0  0  0  0  0  0
   22.7404   -5.4269  -12.9490 N   0  0  0  0  0  0  0  0  0  0  0  0
   16.7743   -6.6351  -13.6418 C   0  0  2  0  0  0  0  0  0  0  0  0
   16.0592   -5.4224  -14.1654 C   0  0  0  0  0  0  0  0  0  0  0  0
   14.6377   -5.7476  -13.8325 C   0  0  0  0  0  0  0  0  0  0  0  0
   13.5958   -4.7431  -13.7279 C   0  0  0  0  0  0  0  0  0  0  0  0
   12.2307   -5.1749  -13.3756 C   0  0  0  0  0  0  0  0  0  0  0  0
   11.2614   -3.9549  -13.4498 N   0  0  0  0  0  0  0  0  0  0  0  0
    9.9558   -4.4744  -13.0913 C   0  0  0  0  0  0  0  0  0  0  0  0
   16.6683   -4.3453  -13.3448 O   0  0  0  0  0  0  0  0  0  0  0  0
   16.5637   -2.9880  -13.5496 O   0  0  0  0  0  0  0  0  0  0  0  0
  2  1  1  6
  3  2  1  0
  4  5  1  1
  4  2  1  0
  6  4  1  0
  7  6  2  0
  9 10  2  0
  9  8  1  0
 11  9  1  0
 12 11  1  0
 12 13  1  0
 14 13  1  0
 15 14  1  6
 15 16  1  0
 16  6  1  0
 17 15  1  0
 17 18  2  0
 19 17  1  0
 20 19  1  0
 20 26  1  0
 20 21  1  1
 22 21  1  0
 23 22  1  0
 24 23  1  0
 24 25  1  0
 26 27  1  0
 28 26  2  0
M  END
$$$$
