VRK.pdb
     RDKit          3D

 28 27  0  0  1  0  0  0  0  0999 V2000
   27.1519  -12.5746  -16.8459 C   0  0  0  0  0  0  0  0  0  0  0  0
   26.4977  -13.8767  -17.1670 C   0  0  2  0  0  0  0  0  0  0  0  0
   26.2785  -14.0086  -18.6576 C   0  0  0  0  0  0  0  0  0  0  0  0
   25.1820  -14.0594  -16.4369 C   0  0  2  0  0  0  0  0  0  0  0  0
   25.4180  -13.7302  -15.0467 N   0  0  0  0  0  0  0  0  0  0  0  0
   24.7093  -15.4588  -16.4989 C   0  0  0  0  0  0  0  0  0  0  0  0
   24.4149  -15.9527  -17.6114 O   0  0  0  0  0  0  0  0  0  0  0  0
   25.1437  -23.4480  -12.9402 N   0  0  0  0  0  0  0  0  0  0  0  0
   25.9305  -23.1175  -14.0949 C   0  0  0  0  0  0  0  0  0  0  0  0
   26.3678  -24.0513  -14.8367 N   0  0  0  0  0  0  0  0  0  0  0  0
   26.2204  -21.7736  -14.4129 N   0  0  0  0  0  0  0  0  0  0  0  0
   25.6930  -20.6600  -13.6590 C   0  0  0  0  0  0  0  0  0  0  0  0
   24.6260  -19.9366  -14.4870 C   0  0  0  0  0  0  0  0  0  0  0  0
   25.0891  -18.5129  -14.6095 C   0  0  0  0  0  0  0  0  0  0  0  0
   24.1143  -17.6703  -15.4377 C   0  0  2  0  0  0  0  0  0  0  0  0
   24.5670  -16.2865  -15.3627 N   0  0  0  0  0  0  0  0  0  0  0  0
   22.7184  -17.8011  -14.9449 C   0  0  0  0  0  0  0  0  0  0  0  0
   22.4050  -17.3483  -13.7993 O   0  0  0  0  0  0  0  0  0  0  0  0
   26.9747  -23.8775  -15.6610 N   0  0  0  0  0  0  0  0  0  0  0  0
   21.7236  -18.4102  -15.7019 C   0  0  2  0  0  0  0  0  0  0  0  0
   20.2811  -18.4594  -15.2859 C   0  0  0  0  0  0  0  0  0  0  0  0
   19.6068  -17.8536  -16.4757 C   0  0  0  0  0  0  0  0  0  0  0  0
   18.5980  -16.8156  -16.3751 C   0  0  0  0  0  0  0  0  0  0  0  0
   17.9579  -16.3298  -17.6113 C   0  0  0  0  0  0  0  0  0  0  0  0
   17.0557  -15.1002  -17.2842 N   0  0  0  0  0  0  0  0  0  0  0  0
   17.9675  -13.9874  -17.1019 C   0  0  0  0  0  0  0  0  0  0  0  0
   20.0732  -19.9200  -15.1192 O   0  0  0  0  0  0  0  0  0  0  0  0
   19.1835  -20.5387  -14.2703 O   0  0  0  0  0  0  0  0  0  0  0  0
  2  1  1  6
  3  2  1  0
  4  5  1  1
  4  2  1  0
  6  4  1  0
  7  6  2  0
  9 10  2  0
  9  8  1  0
 11  9  1  0
 12 11  1  0
 12 13  1  0
 14 13  1  0
 15 14  1  1
 15 16  1  0
 16  6  1  0
 17 15  1  0
 17 18  2  0
 19 17  1  0
 20 19  1  0
 20 26  1  0
 20 21  1  1
 22 21  1  0
 23 22  1  0
 24 23  1  0
 24 25  1  0
 26 27  1  0
 28 26  2  0
M  END
$$$$
