VRK.pdb
     RDKit          3D

 28 27  0  0  1  0  0  0  0  0999 V2000
   27.9085  -18.5483  -16.6974 C   0  0  0  0  0  0  0  0  0  0  0  0
   28.0159  -19.7968  -17.5074 C   0  0  2  0  0  0  0  0  0  0  0  0
   26.7651  -20.0056  -18.3314 C   0  0  0  0  0  0  0  0  0  0  0  0
   28.2773  -21.0210  -16.6527 C   0  0  2  0  0  0  0  0  0  0  0  0
   28.4347  -22.1432  -17.5542 N   0  0  0  0  0  0  0  0  0  0  0  0
   27.1414  -21.3158  -15.7537 C   0  0  0  0  0  0  0  0  0  0  0  0
   26.1042  -21.8292  -16.2322 O   0  0  0  0  0  0  0  0  0  0  0  0
   23.3042  -20.0422   -9.4290 N   0  0  0  0  0  0  0  0  0  0  0  0
   23.7576  -21.0690   -8.5336 C   0  0  0  0  0  0  0  0  0  0  0  0
   22.9944  -21.4561   -7.5949 N   0  0  0  0  0  0  0  0  0  0  0  0
   25.0346  -21.6499   -8.6854 N   0  0  0  0  0  0  0  0  0  0  0  0
   25.9778  -21.2147   -9.6892 C   0  0  0  0  0  0  0  0  0  0  0  0
   25.3656  -21.3922  -11.0825 C   0  0  0  0  0  0  0  0  0  0  0  0
   26.4583  -21.0680  -12.0611 C   0  0  0  0  0  0  0  0  0  0  0  0
   25.9891  -21.2378  -13.5093 C   0  0  2  0  0  0  0  0  0  0  0  0
   27.1538  -21.0501  -14.3660 N   0  0  0  0  0  0  0  0  0  0  0  0
   24.9128  -20.2734  -13.8554 C   0  0  0  0  0  0  0  0  0  0  0  0
   25.1681  -19.0292  -13.9067 O   0  0  0  0  0  0  0  0  0  0  0  0
   23.2604  -22.2042   -6.9259 N   0  0  0  0  0  0  0  0  0  0  0  0
   23.6138  -20.6863  -14.1308 C   0  0  2  0  0  0  0  0  0  0  0  0
   22.5196  -19.7478  -14.5528 C   0  0  0  0  0  0  0  0  0  0  0  0
   22.6100  -19.8353  -16.0432 C   0  0  0  0  0  0  0  0  0  0  0  0
   21.9681  -18.8884  -16.9357 C   0  0  0  0  0  0  0  0  0  0  0  0
   22.0365  -19.1286  -18.3889 C   0  0  0  0  0  0  0  0  0  0  0  0
   21.2808  -17.9911  -19.1427 N   0  0  0  0  0  0  0  0  0  0  0  0
   21.4369  -18.2899  -20.5530 C   0  0  0  0  0  0  0  0  0  0  0  0
   21.3271  -20.3991  -13.9543 O   0  0  0  0  0  0  0  0  0  0  0  0
   20.0931  -19.8288  -13.7370 O   0  0  0  0  0  0  0  0  0  0  0  0
  2  1  1  1
  3  2  1  0
  4  5  1  6
  4  2  1  0
  6  4  1  0
  7  6  2  0
  9 10  2  0
  9  8  1  0
 11  9  1  0
 12 11  1  0
 12 13  1  0
 14 13  1  0
 15 14  1  1
 15 16  1  0
 16  6  1  0
 17 15  1  0
 17 18  2  0
 19 17  1  0
 20 19  1  0
 20 26  1  0
 20 21  1  6
 22 21  1  0
 23 22  1  0
 24 23  1  0
 24 25  1  0
 26 27  1  0
 28 26  2  0
M  END
$$$$
