VRK.pdb
     RDKit          3D

 28 27  0  0  1  0  0  0  0  0999 V2000
   28.1049  -10.9627  -17.1445 C   0  0  0  0  0  0  0  0  0  0  0  0
   27.7982  -12.0673  -16.1893 C   0  0  2  0  0  0  0  0  0  0  0  0
   29.0552  -12.8312  -15.8380 C   0  0  0  0  0  0  0  0  0  0  0  0
   26.7505  -13.0224  -16.7257 C   0  0  2  0  0  0  0  0  0  0  0  0
   27.3275  -13.6828  -17.8780 N   0  0  0  0  0  0  0  0  0  0  0  0
   25.5345  -12.3097  -17.1717 C   0  0  0  0  0  0  0  0  0  0  0  0
   25.4736  -11.8890  -18.3496 O   0  0  0  0  0  0  0  0  0  0  0  0
   17.4760  -11.8578  -14.2037 N   0  0  0  0  0  0  0  0  0  0  0  0
   17.3266  -11.5728  -15.6030 C   0  0  0  0  0  0  0  0  0  0  0  0
   16.2819  -10.9736  -16.0069 N   0  0  0  0  0  0  0  0  0  0  0  0
   18.3231  -11.9485  -16.5288 N   0  0  0  0  0  0  0  0  0  0  0  0
   19.6152  -12.4531  -16.1257 C   0  0  0  0  0  0  0  0  0  0  0  0
   20.7147  -11.5088  -16.6225 C   0  0  0  0  0  0  0  0  0  0  0  0
   22.0164  -12.1256  -16.1961 C   0  0  0  0  0  0  0  0  0  0  0  0
   23.2161  -11.3854  -16.7954 C   0  0  2  0  0  0  0  0  0  0  0  0
   24.4193  -12.0701  -16.3380 N   0  0  0  0  0  0  0  0  0  0  0  0
   23.2343   -9.9539  -16.3969 C   0  0  0  0  0  0  0  0  0  0  0  0
   23.6466   -9.6223  -15.2411 O   0  0  0  0  0  0  0  0  0  0  0  0
   16.1247  -10.7265  -17.0029 N   0  0  0  0  0  0  0  0  0  0  0  0
   22.8105   -8.9447  -17.2545 C   0  0  2  0  0  0  0  0  0  0  0  0
   22.6753   -7.5079  -16.8378 C   0  0  0  0  0  0  0  0  0  0  0  0
   22.5157   -6.8277  -18.1603 C   0  0  0  0  0  0  0  0  0  0  0  0
   22.2844   -5.4019  -18.2983 C   0  0  0  0  0  0  0  0  0  0  0  0
   22.2300   -4.8226  -19.6531 C   0  0  0  0  0  0  0  0  0  0  0  0
   21.9689   -3.2878  -19.5550 N   0  0  0  0  0  0  0  0  0  0  0  0
   23.2094   -2.7134  -19.0713 C   0  0  0  0  0  0  0  0  0  0  0  0
   21.4486   -7.5585  -16.0029 O   0  0  0  0  0  0  0  0  0  0  0  0
   21.1413   -6.7499  -14.9320 O   0  0  0  0  0  0  0  0  0  0  0  0
  2  1  1  6
  3  2  1  0
  4  5  1  6
  4  2  1  0
  6  4  1  0
  7  6  2  0
  9 10  2  0
  9  8  1  0
 11  9  1  0
 12 11  1  0
 12 13  1  0
 14 13  1  0
 15 14  1  1
 15 16  1  0
 16  6  1  0
 17 15  1  0
 17 18  2  0
 19 17  1  0
 20 19  1  0
 20 26  1  0
 20 21  1  6
 22 21  1  0
 23 22  1  0
 24 23  1  0
 24 25  1  0
 26 27  1  0
 28 26  2  0
M  END
$$$$
