VRK.pdb
     RDKit          3D

 28 27  0  0  1  0  0  0  0  0999 V2000
   24.3194  -20.0242  -17.2983 C   0  0  0  0  0  0  0  0  0  0  0  0
   23.0195  -19.7416  -17.9743 C   0  0  2  0  0  0  0  0  0  0  0  0
   23.0033  -18.3348  -18.5292 C   0  0  0  0  0  0  0  0  0  0  0  0
   21.8322  -19.9437  -17.0540 C   0  0  2  0  0  0  0  0  0  0  0  0
   21.8867  -18.8979  -16.0539 N   0  0  0  0  0  0  0  0  0  0  0  0
   21.8944  -21.2448  -16.3550 C   0  0  0  0  0  0  0  0  0  0  0  0
   21.9833  -22.2951  -17.0314 O   0  0  0  0  0  0  0  0  0  0  0  0
   25.8236  -22.1034  -10.4233 N   0  0  0  0  0  0  0  0  0  0  0  0
   26.1092  -21.1239  -11.4337 C   0  0  0  0  0  0  0  0  0  0  0  0
   26.4938  -19.9649  -11.0843 N   0  0  0  0  0  0  0  0  0  0  0  0
   25.9687  -21.4344  -12.8030 N   0  0  0  0  0  0  0  0  0  0  0  0
   25.4589  -22.7029  -13.2694 C   0  0  0  0  0  0  0  0  0  0  0  0
   24.2749  -22.4668  -14.2127 C   0  0  0  0  0  0  0  0  0  0  0  0
   23.0430  -22.8260  -13.4318 C   0  0  0  0  0  0  0  0  0  0  0  0
   21.7734  -22.6686  -14.2743 C   0  0  2  0  0  0  0  0  0  0  0  0
   21.8592  -21.3790  -14.9489 N   0  0  0  0  0  0  0  0  0  0  0  0
   20.5462  -22.7525  -13.4406 C   0  0  0  0  0  0  0  0  0  0  0  0
   20.1378  -21.7286  -12.8077 O   0  0  0  0  0  0  0  0  0  0  0  0
   26.7026  -19.2117  -11.7677 N   0  0  0  0  0  0  0  0  0  0  0  0
   19.8135  -23.9287  -13.3238 C   0  0  2  0  0  0  0  0  0  0  0  0
   18.5437  -24.0366  -12.5286 C   0  0  0  0  0  0  0  0  0  0  0  0
   19.0739  -24.2910  -11.1534 C   0  0  0  0  0  0  0  0  0  0  0  0
   18.2584  -24.1975   -9.9569 C   0  0  0  0  0  0  0  0  0  0  0  0
   18.9072  -24.3698   -8.6441 C   0  0  0  0  0  0  0  0  0  0  0  0
   17.8786  -24.0719   -7.5098 N   0  0  0  0  0  0  0  0  0  0  0  0
   18.6013  -24.2713   -6.2685 C   0  0  0  0  0  0  0  0  0  0  0  0
   17.9516  -22.6910  -12.7370 O   0  0  0  0  0  0  0  0  0  0  0  0
   18.6254  -21.5234  -13.0154 O   0  0  0  0  0  0  0  0  0  0  0  0
  2  1  1  1
  3  2  1  0
  4  5  1  1
  4  2  1  0
  6  4  1  0
  7  6  2  0
  9 10  2  0
  9  8  1  0
 11  9  1  0
 12 11  1  0
 12 13  1  0
 14 13  1  0
 15 14  1  1
 15 16  1  0
 16  6  1  0
 17 15  1  0
 17 18  2  0
 19 17  1  0
 20 19  1  0
 20 26  1  0
 20 21  1  1
 22 21  1  0
 23 22  1  0
 24 23  1  0
 24 25  1  0
 26 27  1  0
 28 26  2  0
M  END
$$$$
