VRK.pdb
     RDKit          3D

 28 27  0  0  1  0  0  0  0  0999 V2000
   16.9586  -12.2857  -17.2669 C   0  0  0  0  0  0  0  0  0  0  0  0
   18.0195  -11.4479  -16.6351 C   0  0  2  0  0  0  0  0  0  0  0  0
   17.5148  -10.0426  -16.3951 C   0  0  0  0  0  0  0  0  0  0  0  0
   19.2899  -11.4027  -17.4607 C   0  0  2  0  0  0  0  0  0  0  0  0
   18.9649  -10.7369  -18.7048 N   0  0  0  0  0  0  0  0  0  0  0  0
   19.7823  -12.7582  -17.7855 C   0  0  0  0  0  0  0  0  0  0  0  0
   19.2260  -13.4038  -18.7032 O   0  0  0  0  0  0  0  0  0  0  0  0
   27.8650  -14.4755  -18.4632 N   0  0  0  0  0  0  0  0  0  0  0  0
   26.9996  -14.8547  -19.5444 C   0  0  0  0  0  0  0  0  0  0  0  0
   27.4980  -15.4029  -20.5761 N   0  0  0  0  0  0  0  0  0  0  0  0
   25.6089  -14.6268  -19.4725 N   0  0  0  0  0  0  0  0  0  0  0  0
   24.9580  -14.1298  -18.2826 C   0  0  0  0  0  0  0  0  0  0  0  0
   23.4434  -14.0769  -18.5079 C   0  0  0  0  0  0  0  0  0  0  0  0
   22.8225  -14.7577  -17.3215 C   0  0  0  0  0  0  0  0  0  0  0  0
   21.2927  -14.7429  -17.3976 C   0  0  2  0  0  0  0  0  0  0  0  0
   20.8587  -13.3802  -17.1142 N   0  0  0  0  0  0  0  0  0  0  0  0
   20.6852  -15.7047  -16.4415 C   0  0  0  0  0  0  0  0  0  0  0  0
   20.6197  -15.4150  -15.2055 O   0  0  0  0  0  0  0  0  0  0  0  0
   26.9423  -15.6061  -21.4292 N   0  0  0  0  0  0  0  0  0  0  0  0
   20.1760  -16.9314  -16.8534 C   0  0  2  0  0  0  0  0  0  0  0  0
   19.4493  -17.8747  -15.9379 C   0  0  0  0  0  0  0  0  0  0  0  0
   18.7606  -18.7704  -16.9181 C   0  0  0  0  0  0  0  0  0  0  0  0
   17.8509  -19.8299  -16.5242 C   0  0  0  0  0  0  0  0  0  0  0  0
   17.1670  -20.6023  -17.5776 C   0  0  0  0  0  0  0  0  0  0  0  0
   16.2027  -21.6389  -16.9228 N   0  0  0  0  0  0  0  0  0  0  0  0
   15.6393  -22.3947  -18.0247 C   0  0  0  0  0  0  0  0  0  0  0  0
   20.5783  -18.4966  -15.2009 O   0  0  0  0  0  0  0  0  0  0  0  0
   21.8514  -18.7228  -15.6730 O   0  0  0  0  0  0  0  0  0  0  0  0
  2  1  1  6
  3  2  1  0
  4  5  1  6
  4  2  1  0
  6  4  1  0
  7  6  2  0
  9 10  2  0
  9  8  1  0
 11  9  1  0
 12 11  1  0
 12 13  1  0
 14 13  1  0
 15 14  1  1
 15 16  1  0
 16  6  1  0
 17 15  1  0
 17 18  2  0
 19 17  1  0
 20 19  1  0
 20 26  1  0
 20 21  1  6
 22 21  1  0
 23 22  1  0
 24 23  1  0
 24 25  1  0
 26 27  1  0
 28 26  2  0
M  END
$$$$
