VRK.pdb
     RDKit          3D

 28 27  0  0  1  0  0  0  0  0999 V2000
   25.5615  -19.5815   -9.5195 C   0  0  0  0  0  0  0  0  0  0  0  0
   24.9965  -20.8993   -9.9325 C   0  0  2  0  0  0  0  0  0  0  0  0
   25.9985  -22.0064   -9.6924 C   0  0  0  0  0  0  0  0  0  0  0  0
   24.5561  -20.9117  -11.3828 C   0  0  2  0  0  0  0  0  0  0  0  0
   24.5256  -22.2961  -11.8060 N   0  0  0  0  0  0  0  0  0  0  0  0
   25.5100  -20.1913  -12.2525 C   0  0  0  0  0  0  0  0  0  0  0  0
   25.5490  -18.9404  -12.2077 O   0  0  0  0  0  0  0  0  0  0  0  0
   32.0487  -20.6628  -11.0811 N   0  0  0  0  0  0  0  0  0  0  0  0
   32.1287  -21.8992  -11.8068 C   0  0  0  0  0  0  0  0  0  0  0  0
   32.7849  -22.8681  -11.3129 N   0  0  0  0  0  0  0  0  0  0  0  0
   31.4885  -22.0484  -13.0554 N   0  0  0  0  0  0  0  0  0  0  0  0
   30.9059  -20.9387  -13.7735 C   0  0  0  0  0  0  0  0  0  0  0  0
   29.5317  -20.6073  -13.1825 C   0  0  0  0  0  0  0  0  0  0  0  0
   28.5296  -20.9284  -14.2545 C   0  0  0  0  0  0  0  0  0  0  0  0
   27.2422  -20.1155  -14.0870 C   0  0  2  0  0  0  0  0  0  0  0  0
   26.3946  -20.8369  -13.1453 N   0  0  0  0  0  0  0  0  0  0  0  0
   26.5456  -19.9149  -15.3842 C   0  0  0  0  0  0  0  0  0  0  0  0
   25.9034  -20.8751  -15.9147 O   0  0  0  0  0  0  0  0  0  0  0  0
   32.9272  -23.7654  -11.8154 N   0  0  0  0  0  0  0  0  0  0  0  0
   26.5691  -18.6957  -16.0526 C   0  0  2  0  0  0  0  0  0  0  0  0
   25.8624  -18.4531  -17.3556 C   0  0  0  0  0  0  0  0  0  0  0  0
   25.7664  -16.9605  -17.3694 C   0  0  0  0  0  0  0  0  0  0  0  0
   25.1990  -16.2104  -18.4743 C   0  0  0  0  0  0  0  0  0  0  0  0
   25.2481  -14.7375  -18.4277 C   0  0  0  0  0  0  0  0  0  0  0  0
   24.6334  -14.1526  -19.7367 N   0  0  0  0  0  0  0  0  0  0  0  0
   24.8236  -12.7178  -19.6472 C   0  0  0  0  0  0  0  0  0  0  0  0
   26.8268  -19.0317  -18.3249 O   0  0  0  0  0  0  0  0  0  0  0  0
   26.5506  -19.4987  -19.5901 O   0  0  0  0  0  0  0  0  0  0  0  0
  2  1  1  6
  3  2  1  0
  4  5  1  6
  4  2  1  0
  6  4  1  0
  7  6  2  0
  9 10  2  0
  9  8  1  0
 11  9  1  0
 12 11  1  0
 12 13  1  0
 14 13  1  0
 15 14  1  6
 15 16  1  0
 16  6  1  0
 17 15  1  0
 17 18  2  0
 19 17  1  0
 20 19  1  0
 20 26  1  0
 20 21  1  1
 22 21  1  0
 23 22  1  0
 24 23  1  0
 24 25  1  0
 26 27  1  0
 28 26  2  0
M  END
$$$$
