VRK.pdb
     RDKit          3D

 28 27  0  0  1  0  0  0  0  0999 V2000
   28.1548  -21.1555  -17.1362 C   0  0  0  0  0  0  0  0  0  0  0  0
   27.2952  -20.1805  -17.8689 C   0  0  2  0  0  0  0  0  0  0  0  0
   28.1294  -19.3339  -18.8041 C   0  0  0  0  0  0  0  0  0  0  0  0
   26.5068  -19.2860  -16.9331 C   0  0  2  0  0  0  0  0  0  0  0  0
   27.4620  -18.4405  -16.2479 N   0  0  0  0  0  0  0  0  0  0  0  0
   25.7767  -20.0672  -15.9122 C   0  0  0  0  0  0  0  0  0  0  0  0
   24.8499  -20.8270  -16.2754 O   0  0  0  0  0  0  0  0  0  0  0  0
   24.3343  -22.9878   -8.4587 N   0  0  0  0  0  0  0  0  0  0  0  0
   24.5241  -21.6423   -7.9947 C   0  0  0  0  0  0  0  0  0  0  0  0
   23.9196  -21.2554   -6.9468 N   0  0  0  0  0  0  0  0  0  0  0  0
   25.3714  -20.7507   -8.6865 N   0  0  0  0  0  0  0  0  0  0  0  0
   26.1489  -21.1450   -9.8383 C   0  0  0  0  0  0  0  0  0  0  0  0
   25.2417  -21.2207  -11.0707 C   0  0  0  0  0  0  0  0  0  0  0  0
   26.0347  -20.6407  -12.2071 C   0  0  0  0  0  0  0  0  0  0  0  0
   25.2419  -20.6596  -13.5176 C   0  0  2  0  0  0  0  0  0  0  0  0
   26.0646  -20.0088  -14.5301 N   0  0  0  0  0  0  0  0  0  0  0  0
   23.9305  -19.9751  -13.3769 C   0  0  0  0  0  0  0  0  0  0  0  0
   23.8736  -18.8106  -12.8706 O   0  0  0  0  0  0  0  0  0  0  0  0
   23.9713  -20.2799   -6.5952 N   0  0  0  0  0  0  0  0  0  0  0  0
   22.7414  -20.5694  -13.7852 C   0  0  1  0  0  0  0  0  0  0  0  0
   21.4081  -19.8804  -13.7220 C   0  0  0  0  0  0  0  0  0  0  0  0
   20.9376  -20.0112  -15.1357 C   0  0  0  0  0  0  0  0  0  0  0  0
   21.2096  -19.0194  -16.1593 C   0  0  0  0  0  0  0  0  0  0  0  0
   20.7525  -19.2812  -17.5364 C   0  0  0  0  0  0  0  0  0  0  0  0
   21.1850  -18.1035  -18.4633 N   0  0  0  0  0  0  0  0  0  0  0  0
   20.7387  -18.4721  -19.7929 C   0  0  0  0  0  0  0  0  0  0  0  0
   20.6873  -20.7256  -12.7369 O   0  0  0  0  0  0  0  0  0  0  0  0
   19.6469  -20.3425  -11.9208 O   0  0  0  0  0  0  0  0  0  0  0  0
  2  1  1  1
  3  2  1  0
  4  5  1  1
  4  2  1  0
  6  4  1  0
  7  6  2  0
  9 10  2  0
  9  8  1  0
 11  9  1  0
 12 11  1  0
 12 13  1  0
 14 13  1  0
 15 14  1  1
 15 16  1  0
 16  6  1  0
 17 15  1  0
 17 18  2  0
 19 17  1  0
 20 19  1  0
 20 26  1  0
 20 21  1  1
 22 21  1  0
 23 22  1  0
 24 23  1  0
 24 25  1  0
 26 27  1  0
 28 26  2  0
M  END
$$$$
