VRK.pdb
     RDKit          3D

 28 27  0  0  1  0  0  0  0  0999 V2000
   26.6027  -20.7925  -11.0486 C   0  0  0  0  0  0  0  0  0  0  0  0
   25.2327  -20.4076  -10.5999 C   0  0  2  0  0  0  0  0  0  0  0  0
   24.9704  -20.9128   -9.1987 C   0  0  0  0  0  0  0  0  0  0  0  0
   24.1534  -20.9116  -11.5372 C   0  0  2  0  0  0  0  0  0  0  0  0
   24.1670  -22.3576  -11.4629 N   0  0  0  0  0  0  0  0  0  0  0  0
   24.4198  -20.5259  -12.9393 C   0  0  0  0  0  0  0  0  0  0  0  0
   24.3831  -19.3144  -13.2544 O   0  0  0  0  0  0  0  0  0  0  0  0
   30.3356  -22.0601  -18.5162 N   0  0  0  0  0  0  0  0  0  0  0  0
   28.9639  -22.4523  -18.6782 C   0  0  0  0  0  0  0  0  0  0  0  0
   28.5430  -22.7782  -19.8315 N   0  0  0  0  0  0  0  0  0  0  0  0
   28.0839  -22.4803  -17.5754 N   0  0  0  0  0  0  0  0  0  0  0  0
   28.4766  -22.0606  -16.2502 C   0  0  0  0  0  0  0  0  0  0  0  0
   27.3878  -21.1653  -15.6497 C   0  0  0  0  0  0  0  0  0  0  0  0
   26.0851  -21.8704  -15.8996 C   0  0  0  0  0  0  0  0  0  0  0  0
   24.8963  -21.0711  -15.3573 C   0  0  2  0  0  0  0  0  0  0  0  0
   24.7180  -21.4541  -13.9619 N   0  0  0  0  0  0  0  0  0  0  0  0
   23.6595  -21.3249  -16.1410 C   0  0  0  0  0  0  0  0  0  0  0  0
   22.9522  -22.3520  -15.8953 O   0  0  0  0  0  0  0  0  0  0  0  0
   27.5457  -22.9903  -20.0271 N   0  0  0  0  0  0  0  0  0  0  0  0
   23.2379  -20.4669  -17.1508 C   0  0  1  0  0  0  0  0  0  0  0  0
   21.9187  -20.6047  -17.8560 C   0  0  0  0  0  0  0  0  0  0  0  0
   20.9588  -20.2528  -16.7642 C   0  0  0  0  0  0  0  0  0  0  0  0
   19.5275  -20.1352  -16.9712 C   0  0  0  0  0  0  0  0  0  0  0  0
   18.6813  -19.7189  -15.8378 C   0  0  0  0  0  0  0  0  0  0  0  0
   17.1860  -19.6998  -16.2815 N   0  0  0  0  0  0  0  0  0  0  0  0
   16.4286  -19.4060  -15.0803 C   0  0  0  0  0  0  0  0  0  0  0  0
   22.0522  -19.5881  -18.9298 O   0  0  0  0  0  0  0  0  0  0  0  0
   21.2731  -19.4679  -20.0584 O   0  0  0  0  0  0  0  0  0  0  0  0
  2  1  1  6
  3  2  1  0
  4  5  1  6
  4  2  1  0
  6  4  1  0
  7  6  2  0
  9 10  2  0
  9  8  1  0
 11  9  1  0
 12 11  1  0
 12 13  1  0
 14 13  1  0
 15 14  1  6
 15 16  1  0
 16  6  1  0
 17 15  1  0
 17 18  2  0
 19 17  1  0
 20 19  1  0
 20 26  1  0
 20 21  1  6
 22 21  1  0
 23 22  1  0
 24 23  1  0
 24 25  1  0
 26 27  1  0
 28 26  2  0
M  END
$$$$
