VRK.pdb
     RDKit          3D

 28 27  0  0  1  0  0  0  0  0999 V2000
   21.9950  -21.8590  -17.1881 C   0  0  0  0  0  0  0  0  0  0  0  0
   20.6925  -22.2796  -17.7825 C   0  0  2  0  0  0  0  0  0  0  0  0
   20.4844  -21.6211  -19.1279 C   0  0  0  0  0  0  0  0  0  0  0  0
   19.5169  -21.9754  -16.8752 C   0  0  2  0  0  0  0  0  0  0  0  0
   19.3464  -20.5375  -16.8680 N   0  0  0  0  0  0  0  0  0  0  0  0
   19.7692  -22.4104  -15.4851 C   0  0  0  0  0  0  0  0  0  0  0  0
   19.7694  -23.6347  -15.2213 O   0  0  0  0  0  0  0  0  0  0  0  0
   24.4851  -20.7842   -8.8061 N   0  0  0  0  0  0  0  0  0  0  0  0
   24.5620  -20.4408  -10.1982 C   0  0  0  0  0  0  0  0  0  0  0  0
   25.6838  -20.4982  -10.7911 N   0  0  0  0  0  0  0  0  0  0  0  0
   23.4104  -20.0435  -10.9105 N   0  0  0  0  0  0  0  0  0  0  0  0
   22.0915  -20.0314  -10.3215 C   0  0  0  0  0  0  0  0  0  0  0  0
   21.2625  -21.1873  -10.8909 C   0  0  0  0  0  0  0  0  0  0  0  0
   21.0518  -20.8712  -12.3443 C   0  0  0  0  0  0  0  0  0  0  0  0
   20.2271  -21.9553  -13.0449 C   0  0  2  0  0  0  0  0  0  0  0  0
   20.0139  -21.5163  -14.4188 N   0  0  0  0  0  0  0  0  0  0  0  0
   18.9325  -22.1933  -12.3553 C   0  0  0  0  0  0  0  0  0  0  0  0
   17.9357  -21.4437  -12.6006 O   0  0  0  0  0  0  0  0  0  0  0  0
   25.8062  -20.2411  -11.7895 N   0  0  0  0  0  0  0  0  0  0  0  0
   18.7657  -23.2230  -11.4357 C   0  0  2  0  0  0  0  0  0  0  0  0
   17.4889  -23.4584  -10.6802 C   0  0  0  0  0  0  0  0  0  0  0  0
   17.9626  -24.3243   -9.5564 C   0  0  0  0  0  0  0  0  0  0  0  0
   17.0748  -24.8813   -8.5530 C   0  0  0  0  0  0  0  0  0  0  0  0
   17.6299  -25.8203   -7.5610 C   0  0  0  0  0  0  0  0  0  0  0  0
   16.5442  -26.1525   -6.4913 N   0  0  0  0  0  0  0  0  0  0  0  0
   17.2118  -26.9796   -5.5049 C   0  0  0  0  0  0  0  0  0  0  0  0
   17.1160  -22.0737  -10.2952 O   0  0  0  0  0  0  0  0  0  0  0  0
   15.8446  -21.5780  -10.1142 O   0  0  0  0  0  0  0  0  0  0  0  0
  2  1  1  1
  3  2  1  0
  4  5  1  1
  4  2  1  0
  6  4  1  0
  7  6  2  0
  9 10  2  0
  9  8  1  0
 11  9  1  0
 12 11  1  0
 12 13  1  0
 14 13  1  0
 15 14  1  1
 15 16  1  0
 16  6  1  0
 17 15  1  0
 17 18  2  0
 19 17  1  0
 20 19  1  0
 20 26  1  0
 20 21  1  6
 22 21  1  0
 23 22  1  0
 24 23  1  0
 24 25  1  0
 26 27  1  0
 28 26  2  0
M  END
$$$$
