VRK.pdb
     RDKit          3D

 28 27  0  0  1  0  0  0  0  0999 V2000
   28.5796  -17.2250  -18.6911 C   0  0  0  0  0  0  0  0  0  0  0  0
   27.4156  -17.8398  -17.9886 C   0  0  2  0  0  0  0  0  0  0  0  0
   26.6345  -16.7882  -17.2327 C   0  0  0  0  0  0  0  0  0  0  0  0
   27.8302  -18.9494  -17.0428 C   0  0  2  0  0  0  0  0  0  0  0  0
   28.5501  -19.9302  -17.8279 N   0  0  0  0  0  0  0  0  0  0  0  0
   26.6604  -19.6210  -16.4379 C   0  0  0  0  0  0  0  0  0  0  0  0
   25.8717  -20.2526  -17.1777 O   0  0  0  0  0  0  0  0  0  0  0  0
   23.8508  -21.4312  -10.3214 N   0  0  0  0  0  0  0  0  0  0  0  0
   25.0765  -20.8433   -9.8590 C   0  0  0  0  0  0  0  0  0  0  0  0
   25.0519  -20.0632   -8.8568 N   0  0  0  0  0  0  0  0  0  0  0  0
   26.3011  -21.1225  -10.5020 N   0  0  0  0  0  0  0  0  0  0  0  0
   26.4505  -22.1791  -11.4756 C   0  0  0  0  0  0  0  0  0  0  0  0
   26.6126  -21.5725  -12.8732 C   0  0  0  0  0  0  0  0  0  0  0  0
   25.5330  -20.5363  -13.0045 C   0  0  0  0  0  0  0  0  0  0  0  0
   25.2051  -20.2441  -14.4719 C   0  0  2  0  0  0  0  0  0  0  0  0
   26.3727  -19.5940  -15.0549 N   0  0  0  0  0  0  0  0  0  0  0  0
   23.9974  -19.3886  -14.6058 C   0  0  0  0  0  0  0  0  0  0  0  0
   24.0453  -18.1652  -14.2639 O   0  0  0  0  0  0  0  0  0  0  0  0
   25.9085  -19.6331   -8.4577 N   0  0  0  0  0  0  0  0  0  0  0  0
   22.7951  -19.8829  -15.0997 C   0  0  1  0  0  0  0  0  0  0  0  0
   21.5522  -19.0504  -15.2359 C   0  0  0  0  0  0  0  0  0  0  0  0
   21.4160  -18.9590  -16.7226 C   0  0  0  0  0  0  0  0  0  0  0  0
   20.3912  -18.1698  -17.3802 C   0  0  0  0  0  0  0  0  0  0  0  0
   20.3787  -18.1141  -18.8535 C   0  0  0  0  0  0  0  0  0  0  0  0
   19.3285  -17.0627  -19.3277 N   0  0  0  0  0  0  0  0  0  0  0  0
   19.4921  -16.9723  -20.7657 C   0  0  0  0  0  0  0  0  0  0  0  0
   20.5471  -19.9111  -14.5625 O   0  0  0  0  0  0  0  0  0  0  0  0
   19.3128  -19.5280  -14.0885 O   0  0  0  0  0  0  0  0  0  0  0  0
  2  1  1  1
  3  2  1  0
  4  5  1  6
  4  2  1  0
  6  4  1  0
  7  6  2  0
  9 10  2  0
  9  8  1  0
 11  9  1  0
 12 11  1  0
 12 13  1  0
 14 13  1  0
 15 14  1  1
 15 16  1  0
 16  6  1  0
 17 15  1  0
 17 18  2  0
 19 17  1  0
 20 19  1  0
 20 26  1  0
 20 21  1  1
 22 21  1  0
 23 22  1  0
 24 23  1  0
 24 25  1  0
 26 27  1  0
 28 26  2  0
M  END
$$$$
