VRK.pdb
     RDKit          3D

 28 27  0  0  1  0  0  0  0  0999 V2000
   17.0452  -27.1014   -9.7835 C   0  0  0  0  0  0  0  0  0  0  0  0
   18.2538  -26.2887  -10.1080 C   0  0  2  0  0  0  0  0  0  0  0  0
   19.4979  -26.9364   -9.5426 C   0  0  0  0  0  0  0  0  0  0  0  0
   18.1445  -24.8626   -9.6060 C   0  0  2  0  0  0  0  0  0  0  0  0
   19.3931  -24.2026   -9.9257 N   0  0  0  0  0  0  0  0  0  0  0  0
   17.9644  -24.8090   -8.1397 C   0  0  0  0  0  0  0  0  0  0  0  0
   18.9741  -24.8581   -7.4005 O   0  0  0  0  0  0  0  0  0  0  0  0
   11.4199  -21.1415   -3.4063 N   0  0  0  0  0  0  0  0  0  0  0  0
   12.4203  -21.5527   -2.4619 C   0  0  0  0  0  0  0  0  0  0  0  0
   12.3017  -21.2129   -1.2438 N   0  0  0  0  0  0  0  0  0  0  0  0
   13.5271  -22.3268   -2.8708 N   0  0  0  0  0  0  0  0  0  0  0  0
   13.8134  -22.6110   -4.2578 C   0  0  0  0  0  0  0  0  0  0  0  0
   15.0506  -23.5096   -4.3547 C   0  0  0  0  0  0  0  0  0  0  0  0
   15.3236  -23.6846   -5.8214 C   0  0  0  0  0  0  0  0  0  0  0  0
   16.5422  -24.5795   -6.0670 C   0  0  2  0  0  0  0  0  0  0  0  0
   16.7036  -24.7039   -7.5107 N   0  0  0  0  0  0  0  0  0  0  0  0
   16.3816  -25.9137   -5.4326 C   0  0  0  0  0  0  0  0  0  0  0  0
   15.7352  -26.8284   -6.0336 O   0  0  0  0  0  0  0  0  0  0  0  0
   12.9992  -21.4679   -0.5182 N   0  0  0  0  0  0  0  0  0  0  0  0
   16.9209  -26.2060   -4.1846 C   0  0  2  0  0  0  0  0  0  0  0  0
   16.8295  -27.5601   -3.5408 C   0  0  0  0  0  0  0  0  0  0  0  0
   17.9056  -27.4713   -2.5057 C   0  0  0  0  0  0  0  0  0  0  0  0
   18.1552  -28.5129   -1.5269 C   0  0  0  0  0  0  0  0  0  0  0  0
   19.1799  -28.2800   -0.4926 C   0  0  0  0  0  0  0  0  0  0  0  0
   19.1490  -29.4443    0.5451 N   0  0  0  0  0  0  0  0  0  0  0  0
   20.1091  -29.0777    1.5682 C   0  0  0  0  0  0  0  0  0  0  0  0
   15.4425  -27.5404   -3.0114 O   0  0  0  0  0  0  0  0  0  0  0  0
   14.6021  -28.6186   -2.8495 O   0  0  0  0  0  0  0  0  0  0  0  0
  2  1  1  1
  3  2  1  0
  4  5  1  1
  4  2  1  0
  6  4  1  0
  7  6  2  0
  9 10  2  0
  9  8  1  0
 11  9  1  0
 12 11  1  0
 12 13  1  0
 14 13  1  0
 15 14  1  6
 15 16  1  0
 16  6  1  0
 17 15  1  0
 17 18  2  0
 19 17  1  0
 20 19  1  0
 20 26  1  0
 20 21  1  6
 22 21  1  0
 23 22  1  0
 24 23  1  0
 24 25  1  0
 26 27  1  0
 28 26  2  0
M  END
$$$$
