DLA.pdb
     RDKit          3D

 22 21  0  0  1  0  0  0  0  0999 V2000
    9.8307  -16.3489   20.8427 N   0  0  0  0  0  0  0  0  0  0  0  0
    8.8677  -16.7256   21.8457 C   0  0  1  0  0  0  0  0  0  0  0  0
    9.0282  -18.2126   22.1215 C   0  0  0  0  0  0  0  0  0  0  0  0
    8.5355  -18.9375   20.9285 C   0  0  0  0  0  0  0  0  0  0  0  0
    9.2308  -19.8103   20.3625 O   0  0  0  0  0  0  0  0  0  0  0  0
    9.0765  -15.9215   23.0617 C   0  0  0  0  0  0  0  0  0  0  0  0
   10.2507  -15.7050   23.4539 O   0  0  0  0  0  0  0  0  0  0  0  0
    7.2790  -18.6377   20.4354 O   0  0  0  0  0  0  0  0  0  0  0  0
    7.9546  -11.7849   26.4901 C   0  0  0  0  0  0  0  0  0  0  0  0
    7.0159  -12.9643   26.5113 C   0  0  1  0  0  0  0  0  0  0  0  0
    5.6010  -12.3827   26.6320 C   0  0  0  0  0  0  0  0  0  0  0  0
    7.0410  -13.7636   25.2574 C   0  0  0  0  0  0  0  0  0  0  0  0
    8.2849  -14.5881   25.0540 C   0  0  2  0  0  0  0  0  0  0  0  0
    8.0343  -15.3673   23.8311 N   0  0  0  0  0  0  0  0  0  0  0  0
    8.4640  -15.5417   26.1775 C   0  0  0  0  0  0  0  0  0  0  0  0
    8.7915  -15.1114   27.3172 O   0  0  0  0  0  0  0  0  0  0  0  0
    7.5869  -19.1348   26.8980 C   0  0  0  0  0  0  0  0  0  0  0  0
    8.3513  -17.8437   27.1844 C   0  0  2  0  0  0  0  0  0  0  0  0
    8.2808  -16.9534   26.0327 N   0  0  0  0  0  0  0  0  0  0  0  0
    9.7610  -18.1417   27.4922 C   0  0  0  0  0  0  0  0  0  0  0  0
   10.0682  -18.7883   28.5488 O   0  0  0  0  0  0  0  0  0  0  0  0
   10.7868  -17.7376   26.6596 O   0  0  0  0  0  0  0  0  0  0  0  0
  2  1  1  6
  3  2  1  0
  3  4  1  0
  4  5  2  0
  6  2  1  0
  6  7  2  0
  8  4  1  0
 10  9  1  6
 10 12  1  0
 10 11  1  0
 13 12  1  1
 13 14  1  0
 14  6  1  0
 15 13  1  0
 16 15  2  0
 18 19  1  0
 18 17  1  6
 19 15  1  0
 20 18  1  0
 21 20  2  0
 22 20  1  0
M  END
$$$$
