DLA.pdb
     RDKit          3D

 22 21  0  0  1  0  0  0  0  0999 V2000
    8.8366  -15.2899   20.5963 N   0  0  0  0  0  0  0  0  0  0  0  0
    8.6768  -16.0757   21.7930 C   0  0  1  0  0  0  0  0  0  0  0  0
    9.6009  -17.2798   21.6959 C   0  0  0  0  0  0  0  0  0  0  0  0
    9.0697  -18.1576   20.6288 C   0  0  0  0  0  0  0  0  0  0  0  0
    7.9706  -18.7425   20.7523 O   0  0  0  0  0  0  0  0  0  0  0  0
    8.9818  -15.2501   22.9739 C   0  0  0  0  0  0  0  0  0  0  0  0
   10.0057  -14.5215   22.9589 O   0  0  0  0  0  0  0  0  0  0  0  0
    9.8104  -18.3296   19.4739 O   0  0  0  0  0  0  0  0  0  0  0  0
    5.2110  -12.5318   26.0350 C   0  0  0  0  0  0  0  0  0  0  0  0
    6.4560  -12.9343   25.2864 C   0  0  1  0  0  0  0  0  0  0  0  0
    7.3787  -11.7081   25.3005 C   0  0  0  0  0  0  0  0  0  0  0  0
    7.2081  -14.0391   25.9387 C   0  0  0  0  0  0  0  0  0  0  0  0
    8.5295  -14.3735   25.2978 C   0  0  2  0  0  0  0  0  0  0  0  0
    8.1930  -15.2185   24.1410 N   0  0  0  0  0  0  0  0  0  0  0  0
    9.3666  -15.1758   26.2245 C   0  0  0  0  0  0  0  0  0  0  0  0
    9.3757  -16.4338   26.1295 O   0  0  0  0  0  0  0  0  0  0  0  0
   11.6412  -14.5378   29.2052 C   0  0  0  0  0  0  0  0  0  0  0  0
   10.9829  -15.4093   28.1374 C   0  0  2  0  0  0  0  0  0  0  0  0
   10.1813  -14.5851   27.2417 N   0  0  0  0  0  0  0  0  0  0  0  0
   10.1271  -16.4302   28.7669 C   0  0  0  0  0  0  0  0  0  0  0  0
   10.6473  -17.4500   29.3310 O   0  0  0  0  0  0  0  0  0  0  0  0
    8.7497  -16.3216   28.7692 O   0  0  0  0  0  0  0  0  0  0  0  0
  2  1  1  6
  3  2  1  0
  3  4  1  0
  4  5  2  0
  6  2  1  0
  6  7  2  0
  8  4  1  0
 10  9  1  1
 10 12  1  0
 10 11  1  0
 13 12  1  1
 13 14  1  0
 14  6  1  0
 15 13  1  0
 16 15  2  0
 18 19  1  0
 18 17  1  1
 19 15  1  0
 20 18  1  0
 21 20  2  0
 22 20  1  0
M  END
$$$$
