DLA.pdb
     RDKit          3D

 22 21  0  0  1  0  0  0  0  0999 V2000
   10.6433  -17.7569   17.3909 N   0  0  0  0  0  0  0  0  0  0  0  0
   10.0679  -18.0160   18.6859 C   0  0  1  0  0  0  0  0  0  0  0  0
   10.7254  -19.2637   19.2552 C   0  0  0  0  0  0  0  0  0  0  0  0
   10.6104  -20.3278   18.2324 C   0  0  0  0  0  0  0  0  0  0  0  0
   10.9828  -20.1413   17.0526 O   0  0  0  0  0  0  0  0  0  0  0  0
   10.2682  -16.8485   19.5610 C   0  0  0  0  0  0  0  0  0  0  0  0
   11.4234  -16.3685   19.6802 O   0  0  0  0  0  0  0  0  0  0  0  0
   10.0788  -21.5511   18.5970 O   0  0  0  0  0  0  0  0  0  0  0  0
    6.2849  -13.2251   20.0455 C   0  0  0  0  0  0  0  0  0  0  0  0
    7.6655  -13.8237   19.9560 C   0  0  1  0  0  0  0  0  0  0  0  0
    8.6024  -12.6789   19.5479 C   0  0  0  0  0  0  0  0  0  0  0  0
    8.1709  -14.3436   21.2545 C   0  0  0  0  0  0  0  0  0  0  0  0
    9.4855  -15.0747   21.1780 C   0  0  2  0  0  0  0  0  0  0  0  0
    9.2376  -16.2199   20.2878 N   0  0  0  0  0  0  0  0  0  0  0  0
    9.8626  -15.6038   22.5127 C   0  0  0  0  0  0  0  0  0  0  0  0
   10.1086  -14.8035   23.4564 O   0  0  0  0  0  0  0  0  0  0  0  0
    9.8874  -18.8606   24.3834 C   0  0  0  0  0  0  0  0  0  0  0  0
   10.4667  -17.4817   24.0730 C   0  0  2  0  0  0  0  0  0  0  0  0
    9.9639  -17.0036   22.7913 N   0  0  0  0  0  0  0  0  0  0  0  0
   11.9383  -17.5422   24.0343 C   0  0  0  0  0  0  0  0  0  0  0  0
   12.5643  -17.3344   22.9417 O   0  0  0  0  0  0  0  0  0  0  0  0
   12.6832  -17.8220   25.1637 O   0  0  0  0  0  0  0  0  0  0  0  0
  2  1  1  6
  3  2  1  0
  3  4  1  0
  4  5  2  0
  6  2  1  0
  6  7  2  0
  8  4  1  0
 10  9  1  1
 10 12  1  0
 10 11  1  0
 13 12  1  1
 13 14  1  0
 14  6  1  0
 15 13  1  0
 16 15  2  0
 18 19  1  0
 18 17  1  6
 19 15  1  0
 20 18  1  0
 21 20  2  0
 22 20  1  0
M  END
$$$$
