DLA.pdb
     RDKit          3D

 22 21  0  0  1  0  0  0  0  0999 V2000
    7.3078  -16.4751   21.9756 N   0  0  0  0  0  0  0  0  0  0  0  0
    8.7028  -16.1221   22.0422 C   0  0  1  0  0  0  0  0  0  0  0  0
    8.9966  -15.1387   20.9197 C   0  0  0  0  0  0  0  0  0  0  0  0
    8.8882  -15.8816   19.6438 C   0  0  0  0  0  0  0  0  0  0  0  0
    8.4917  -17.0678   19.6115 O   0  0  0  0  0  0  0  0  0  0  0  0
    9.0070  -15.5460   23.3630 C   0  0  0  0  0  0  0  0  0  0  0  0
   10.1942  -15.2334   23.6318 O   0  0  0  0  0  0  0  0  0  0  0  0
    9.2347  -15.2436   18.4670 O   0  0  0  0  0  0  0  0  0  0  0  0
    5.8031  -11.9499   25.9153 C   0  0  0  0  0  0  0  0  0  0  0  0
    7.0272  -12.7046   25.4632 C   0  0  1  0  0  0  0  0  0  0  0  0
    8.2322  -11.8378   25.8525 C   0  0  0  0  0  0  0  0  0  0  0  0
    7.2045  -14.0115   26.1504 C   0  0  0  0  0  0  0  0  0  0  0  0
    8.4001  -14.8092   25.7003 C   0  0  2  0  0  0  0  0  0  0  0  0
    8.0439  -15.3163   24.3655 N   0  0  0  0  0  0  0  0  0  0  0  0
    8.6108  -15.9760   26.5935 C   0  0  0  0  0  0  0  0  0  0  0  0
    8.8611  -15.7909   27.8160 O   0  0  0  0  0  0  0  0  0  0  0  0
    7.9901  -19.6773   26.5376 C   0  0  0  0  0  0  0  0  0  0  0  0
    8.7402  -18.4470   27.0444 C   0  0  2  0  0  0  0  0  0  0  0  0
    8.5435  -17.3284   26.1310 N   0  0  0  0  0  0  0  0  0  0  0  0
   10.1794  -18.7390   27.1642 C   0  0  0  0  0  0  0  0  0  0  0  0
   11.0204  -18.1673   26.3929 O   0  0  0  0  0  0  0  0  0  0  0  0
   10.6637  -19.6297   28.1027 O   0  0  0  0  0  0  0  0  0  0  0  0
  2  1  1  1
  3  2  1  0
  3  4  1  0
  4  5  2  0
  6  2  1  0
  6  7  2  0
  8  4  1  0
 10  9  1  1
 10 12  1  0
 10 11  1  0
 13 12  1  1
 13 14  1  0
 14  6  1  0
 15 13  1  0
 16 15  2  0
 18 19  1  0
 18 17  1  6
 19 15  1  0
 20 18  1  0
 21 20  2  0
 22 20  1  0
M  END
$$$$
