DLA.pdb
     RDKit          3D

 22 21  0  0  1  0  0  0  0  0999 V2000
    9.3476  -15.2321   20.8093 N   0  0  0  0  0  0  0  0  0  0  0  0
    8.4750  -15.7463   21.8337 C   0  0  1  0  0  0  0  0  0  0  0  0
    8.5310  -17.2654   21.7848 C   0  0  0  0  0  0  0  0  0  0  0  0
    8.0880  -17.6791   20.4341 C   0  0  0  0  0  0  0  0  0  0  0  0
    7.9457  -16.8465   19.5111 O   0  0  0  0  0  0  0  0  0  0  0  0
    8.8929  -15.2291   23.1478 C   0  0  0  0  0  0  0  0  0  0  0  0
   10.0977  -14.9186   23.3245 O   0  0  0  0  0  0  0  0  0  0  0  0
    7.8281  -19.0161   20.1958 O   0  0  0  0  0  0  0  0  0  0  0  0
    5.6545  -12.0879   26.3353 C   0  0  0  0  0  0  0  0  0  0  0  0
    6.8759  -12.6650   25.6661 C   0  0  1  0  0  0  0  0  0  0  0  0
    8.0249  -11.6911   25.9598 C   0  0  0  0  0  0  0  0  0  0  0  0
    7.2857  -13.9839   26.2176 C   0  0  0  0  0  0  0  0  0  0  0  0
    8.4922  -14.6007   25.5600 C   0  0  2  0  0  0  0  0  0  0  0  0
    8.0218  -15.0543   24.2415 N   0  0  0  0  0  0  0  0  0  0  0  0
    8.9449  -15.7921   26.3209 C   0  0  0  0  0  0  0  0  0  0  0  0
    9.2667  -15.6740   27.5350 O   0  0  0  0  0  0  0  0  0  0  0  0
    9.2034  -19.5369   25.7391 C   0  0  0  0  0  0  0  0  0  0  0  0
    9.4208  -18.2524   26.5365 C   0  0  2  0  0  0  0  0  0  0  0  0
    9.0374  -17.0954   25.7375 N   0  0  0  0  0  0  0  0  0  0  0  0
   10.8341  -18.1307   26.9347 C   0  0  0  0  0  0  0  0  0  0  0  0
   11.5939  -17.2778   26.3654 O   0  0  0  0  0  0  0  0  0  0  0  0
   11.3801  -18.9245   27.9250 O   0  0  0  0  0  0  0  0  0  0  0  0
  2  1  1  6
  3  2  1  0
  3  4  1  0
  4  5  2  0
  6  2  1  0
  6  7  2  0
  8  4  1  0
 10  9  1  1
 10 12  1  0
 10 11  1  0
 13 12  1  1
 13 14  1  0
 14  6  1  0
 15 13  1  0
 16 15  2  0
 18 19  1  0
 18 17  1  6
 19 15  1  0
 20 18  1  0
 21 20  2  0
 22 20  1  0
M  END
$$$$
