DLA.pdb
     RDKit          3D

 22 21  0  0  1  0  0  0  0  0999 V2000
    8.1952  -16.7290   21.5076 N   0  0  0  0  0  0  0  0  0  0  0  0
    9.5592  -16.5071   21.9145 C   0  0  1  0  0  0  0  0  0  0  0  0
   10.2873  -15.8148   20.7727 C   0  0  0  0  0  0  0  0  0  0  0  0
   10.1397  -16.6701   19.5735 C   0  0  0  0  0  0  0  0  0  0  0  0
   10.2144  -17.9168   19.6483 O   0  0  0  0  0  0  0  0  0  0  0  0
    9.5851  -15.6986   23.1453 C   0  0  0  0  0  0  0  0  0  0  0  0
   10.6945  -15.3415   23.6154 O   0  0  0  0  0  0  0  0  0  0  0  0
    9.9147  -16.0704   18.3480 O   0  0  0  0  0  0  0  0  0  0  0  0
    7.8309  -11.7052   26.4811 C   0  0  0  0  0  0  0  0  0  0  0  0
    7.0258  -12.9787   26.4304 C   0  0  1  0  0  0  0  0  0  0  0  0
    5.5514  -12.5538   26.4556 C   0  0  0  0  0  0  0  0  0  0  0  0
    7.2229  -13.7544   25.1770 C   0  0  0  0  0  0  0  0  0  0  0  0
    8.5041  -14.5436   25.1128 C   0  0  2  0  0  0  0  0  0  0  0  0
    8.4333  -15.2896   23.8463 N   0  0  0  0  0  0  0  0  0  0  0  0
    8.5627  -15.5276   26.2227 C   0  0  0  0  0  0  0  0  0  0  0  0
    8.6700  -15.1229   27.4127 O   0  0  0  0  0  0  0  0  0  0  0  0
    7.8578  -19.1653   26.8009 C   0  0  0  0  0  0  0  0  0  0  0  0
    8.6108  -17.8759   27.1224 C   0  0  2  0  0  0  0  0  0  0  0  0
    8.5026  -16.9413   26.0093 N   0  0  0  0  0  0  0  0  0  0  0  0
   10.0310  -18.1656   27.3872 C   0  0  0  0  0  0  0  0  0  0  0  0
   10.9313  -17.7843   26.5669 O   0  0  0  0  0  0  0  0  0  0  0  0
   10.4335  -18.8507   28.5174 O   0  0  0  0  0  0  0  0  0  0  0  0
  2  1  1  6
  3  2  1  0
  3  4  1  0
  4  5  2  0
  6  2  1  0
  6  7  2  0
  8  4  1  0
 10  9  1  6
 10 12  1  0
 10 11  1  0
 13 12  1  1
 13 14  1  0
 14  6  1  0
 15 13  1  0
 16 15  2  0
 18 19  1  0
 18 17  1  6
 19 15  1  0
 20 18  1  0
 21 20  2  0
 22 20  1  0
M  END
$$$$
