DLA.pdb
     RDKit          3D

 22 21  0  0  1  0  0  0  0  0999 V2000
    8.8354  -15.8293   19.8491 N   0  0  0  0  0  0  0  0  0  0  0  0
    7.8542  -16.0577   20.8788 C   0  0  1  0  0  0  0  0  0  0  0  0
    7.5809  -17.5522   20.9494 C   0  0  0  0  0  0  0  0  0  0  0  0
    6.7369  -17.9010   19.7843 C   0  0  0  0  0  0  0  0  0  0  0  0
    7.1568  -17.7714   18.6128 O   0  0  0  0  0  0  0  0  0  0  0  0
    8.3508  -15.5347   22.1629 C   0  0  0  0  0  0  0  0  0  0  0  0
    9.5824  -15.5888   22.4066 O   0  0  0  0  0  0  0  0  0  0  0  0
    5.4584  -18.3796   20.0040 O   0  0  0  0  0  0  0  0  0  0  0  0
    8.4085  -11.9845   26.2987 C   0  0  0  0  0  0  0  0  0  0  0  0
    7.2789  -12.9825   26.3188 C   0  0  1  0  0  0  0  0  0  0  0  0
    6.0265  -12.2025   26.7409 C   0  0  0  0  0  0  0  0  0  0  0  0
    6.9839  -13.5699   24.9848 C   0  0  0  0  0  0  0  0  0  0  0  0
    8.0636  -14.4615   24.4300 C   0  0  2  0  0  0  0  0  0  0  0  0
    7.5280  -14.9675   23.1562 N   0  0  0  0  0  0  0  0  0  0  0  0
    8.2887  -15.6226   25.3270 C   0  0  0  0  0  0  0  0  0  0  0  0
    7.3115  -16.3361   25.6841 O   0  0  0  0  0  0  0  0  0  0  0  0
   10.9274  -18.0264   25.9001 C   0  0  0  0  0  0  0  0  0  0  0  0
    9.7933  -17.2302   26.5428 C   0  0  2  0  0  0  0  0  0  0  0  0
    9.5833  -15.9829   25.8185 N   0  0  0  0  0  0  0  0  0  0  0  0
   10.1095  -16.9357   27.9513 C   0  0  0  0  0  0  0  0  0  0  0  0
   10.2747  -15.7305   28.3374 O   0  0  0  0  0  0  0  0  0  0  0  0
   10.2367  -17.9397   28.8919 O   0  0  0  0  0  0  0  0  0  0  0  0
  2  1  1  6
  3  2  1  0
  3  4  1  0
  4  5  2  0
  6  2  1  0
  6  7  2  0
  8  4  1  0
 10  9  1  6
 10 12  1  0
 10 11  1  0
 13 12  1  1
 13 14  1  0
 14  6  1  0
 15 13  1  0
 16 15  2  0
 18 19  1  0
 18 17  1  6
 19 15  1  0
 20 18  1  0
 21 20  2  0
 22 20  1  0
M  END
$$$$
