DLA.pdb
     RDKit          3D

 22 21  0  0  1  0  0  0  0  0999 V2000
    8.7877  -16.7433   21.6221 N   0  0  0  0  0  0  0  0  0  0  0  0
   10.0662  -16.6317   22.2765 C   0  0  1  0  0  0  0  0  0  0  0  0
   11.0441  -15.9966   21.3000 C   0  0  0  0  0  0  0  0  0  0  0  0
   11.0946  -16.8632   20.1009 C   0  0  0  0  0  0  0  0  0  0  0  0
   10.7439  -18.0632   20.1483 O   0  0  0  0  0  0  0  0  0  0  0  0
    9.9274  -15.8313   23.5049 C   0  0  0  0  0  0  0  0  0  0  0  0
   10.9632  -15.4926   24.1308 O   0  0  0  0  0  0  0  0  0  0  0  0
   11.5402  -16.3272   18.9067 O   0  0  0  0  0  0  0  0  0  0  0  0
    7.6781  -11.8192   26.5488 C   0  0  0  0  0  0  0  0  0  0  0  0
    6.9166  -13.1110   26.3938 C   0  0  1  0  0  0  0  0  0  0  0  0
    5.4425  -12.7206   26.2220 C   0  0  0  0  0  0  0  0  0  0  0  0
    7.2965  -13.8802   25.1790 C   0  0  0  0  0  0  0  0  0  0  0  0
    8.5959  -14.6345   25.2850 C   0  0  2  0  0  0  0  0  0  0  0  0
    8.6930  -15.4104   24.0383 N   0  0  0  0  0  0  0  0  0  0  0  0
    8.5488  -15.5914   26.4189 C   0  0  0  0  0  0  0  0  0  0  0  0
    8.3005  -15.1712   27.5822 O   0  0  0  0  0  0  0  0  0  0  0  0
    7.5990  -18.9356   27.1756 C   0  0  0  0  0  0  0  0  0  0  0  0
    8.7037  -17.9039   27.3957 C   0  0  2  0  0  0  0  0  0  0  0  0
    8.7747  -16.9952   26.2585 N   0  0  0  0  0  0  0  0  0  0  0  0
   10.0030  -18.5757   27.5725 C   0  0  0  0  0  0  0  0  0  0  0  0
   10.9099  -18.4720   26.6805 O   0  0  0  0  0  0  0  0  0  0  0  0
   10.2825  -19.3315   28.6948 O   0  0  0  0  0  0  0  0  0  0  0  0
  2  1  1  6
  3  2  1  0
  3  4  1  0
  4  5  2  0
  6  2  1  0
  6  7  2  0
  8  4  1  0
 10  9  1  6
 10 12  1  0
 10 11  1  0
 13 12  1  6
 13 14  1  0
 14  6  1  0
 15 13  1  0
 16 15  2  0
 18 19  1  0
 18 17  1  6
 19 15  1  0
 20 18  1  0
 21 20  2  0
 22 20  1  0
M  END
$$$$
