DLA.pdb
     RDKit          3D

 22 21  0  0  1  0  0  0  0  0999 V2000
   10.4983  -18.4038   15.8254 N   0  0  0  0  0  0  0  0  0  0  0  0
    9.6322  -18.5680   16.9647 C   0  0  1  0  0  0  0  0  0  0  0  0
    9.8810  -19.9480   17.5537 C   0  0  0  0  0  0  0  0  0  0  0  0
    9.4953  -20.9415   16.5262 C   0  0  0  0  0  0  0  0  0  0  0  0
    8.4834  -20.7783   15.8087 O   0  0  0  0  0  0  0  0  0  0  0  0
    9.8954  -17.5024   17.9466 C   0  0  0  0  0  0  0  0  0  0  0  0
   11.0786  -17.1186   18.1255 O   0  0  0  0  0  0  0  0  0  0  0  0
   10.2754  -22.0713   16.3622 O   0  0  0  0  0  0  0  0  0  0  0  0
    8.6586  -12.7200   20.1960 C   0  0  0  0  0  0  0  0  0  0  0  0
    7.9311  -13.9037   20.7807 C   0  0  1  0  0  0  0  0  0  0  0  0
    6.4814  -13.4498   20.9985 C   0  0  0  0  0  0  0  0  0  0  0  0
    7.8763  -15.0756   19.8668 C   0  0  0  0  0  0  0  0  0  0  0  0
    9.1943  -15.7696   19.6436 C   0  0  2  0  0  0  0  0  0  0  0  0
    8.8966  -16.8709   18.7140 N   0  0  0  0  0  0  0  0  0  0  0  0
    9.6901  -16.3606   20.9118 C   0  0  0  0  0  0  0  0  0  0  0  0
    9.0469  -17.2979   21.4589 O   0  0  0  0  0  0  0  0  0  0  0  0
   12.8616  -16.2406   22.9654 C   0  0  0  0  0  0  0  0  0  0  0  0
   11.3874  -16.5807   22.7548 C   0  0  2  0  0  0  0  0  0  0  0  0
   10.8848  -15.9139   21.5603 N   0  0  0  0  0  0  0  0  0  0  0  0
   10.5942  -16.1627   23.9240 C   0  0  0  0  0  0  0  0  0  0  0  0
   10.8034  -16.6894   25.0676 O   0  0  0  0  0  0  0  0  0  0  0  0
    9.6092  -15.1989   23.8259 O   0  0  0  0  0  0  0  0  0  0  0  0
  2  1  1  6
  3  2  1  0
  3  4  1  0
  4  5  2  0
  6  2  1  0
  6  7  2  0
  8  4  1  0
 10  9  1  6
 10 12  1  0
 10 11  1  0
 13 12  1  1
 13 14  1  0
 14  6  1  0
 15 13  1  0
 16 15  2  0
 18 19  1  0
 18 17  1  1
 19 15  1  0
 20 18  1  0
 21 20  2  0
 22 20  1  0
M  END
$$$$
