DLA.pdb
     RDKit          3D

 22 21  0  0  1  0  0  0  0  0999 V2000
    8.7126  -14.9031   20.2884 N   0  0  0  0  0  0  0  0  0  0  0  0
    7.9064  -15.5881   21.2662 C   0  0  1  0  0  0  0  0  0  0  0  0
    7.9191  -17.0723   20.9346 C   0  0  0  0  0  0  0  0  0  0  0  0
    7.0107  -17.2741   19.7832 C   0  0  0  0  0  0  0  0  0  0  0  0
    6.6466  -16.3170   19.0643 O   0  0  0  0  0  0  0  0  0  0  0  0
    8.4350  -15.3281   22.6160 C   0  0  0  0  0  0  0  0  0  0  0  0
    9.6795  -15.3202   22.7911 O   0  0  0  0  0  0  0  0  0  0  0  0
    6.5594  -18.5507   19.5032 O   0  0  0  0  0  0  0  0  0  0  0  0
    5.8169  -12.0533   26.3056 C   0  0  0  0  0  0  0  0  0  0  0  0
    6.9436  -12.7057   25.5457 C   0  0  1  0  0  0  0  0  0  0  0  0
    8.2306  -12.0087   26.0070 C   0  0  0  0  0  0  0  0  0  0  0  0
    7.1085  -14.1507   25.8560 C   0  0  0  0  0  0  0  0  0  0  0  0
    8.1979  -14.8465   25.0829 C   0  0  2  0  0  0  0  0  0  0  0  0
    7.6300  -15.0832   23.7461 N   0  0  0  0  0  0  0  0  0  0  0  0
    8.5042  -16.1652   25.6917 C   0  0  0  0  0  0  0  0  0  0  0  0
    7.5813  -17.0103   25.8511 O   0  0  0  0  0  0  0  0  0  0  0  0
   11.2210  -18.5286   25.8832 C   0  0  0  0  0  0  0  0  0  0  0  0
   10.0887  -17.8609   26.6612 C   0  0  2  0  0  0  0  0  0  0  0  0
    9.8193  -16.5362   26.1164 N   0  0  0  0  0  0  0  0  0  0  0  0
   10.4460  -17.7453   28.0859 C   0  0  0  0  0  0  0  0  0  0  0  0
   10.5299  -16.5983   28.6392 O   0  0  0  0  0  0  0  0  0  0  0  0
   10.6995  -18.8589   28.8633 O   0  0  0  0  0  0  0  0  0  0  0  0
  2  1  1  6
  3  2  1  0
  3  4  1  0
  4  5  2  0
  6  2  1  0
  6  7  2  0
  8  4  1  0
 10  9  1  1
 10 12  1  0
 10 11  1  0
 13 12  1  1
 13 14  1  0
 14  6  1  0
 15 13  1  0
 16 15  2  0
 18 19  1  0
 18 17  1  6
 19 15  1  0
 20 18  1  0
 21 20  2  0
 22 20  1  0
M  END
$$$$
