DLA.pdb
     RDKit          3D

 22 21  0  0  1  0  0  0  0  0999 V2000
    8.1514  -16.2655   22.1126 N   0  0  0  0  0  0  0  0  0  0  0  0
    9.5158  -16.2131   22.5718 C   0  0  1  0  0  0  0  0  0  0  0  0
   10.3135  -15.3679   21.5908 C   0  0  0  0  0  0  0  0  0  0  0  0
   10.4939  -16.1726   20.3614 C   0  0  0  0  0  0  0  0  0  0  0  0
    9.9607  -17.2973   20.2341 O   0  0  0  0  0  0  0  0  0  0  0  0
    9.5605  -15.6532   23.9333 C   0  0  0  0  0  0  0  0  0  0  0  0
   10.6622  -15.2626   24.3947 O   0  0  0  0  0  0  0  0  0  0  0  0
   11.2698  -15.6632   19.3365 O   0  0  0  0  0  0  0  0  0  0  0  0
    5.6236  -12.4580   25.8919 C   0  0  0  0  0  0  0  0  0  0  0  0
    6.9810  -13.0677   25.6505 C   0  0  1  0  0  0  0  0  0  0  0  0
    8.0051  -12.0552   26.1807 C   0  0  0  0  0  0  0  0  0  0  0  0
    7.2048  -14.3312   26.4022 C   0  0  0  0  0  0  0  0  0  0  0  0
    8.5299  -14.9987   26.1431 C   0  0  2  0  0  0  0  0  0  0  0  0
    8.4352  -15.5221   24.7710 N   0  0  0  0  0  0  0  0  0  0  0  0
    8.7188  -16.1496   27.0614 C   0  0  0  0  0  0  0  0  0  0  0  0
    8.7189  -15.9612   28.3089 O   0  0  0  0  0  0  0  0  0  0  0  0
    8.8359  -19.9201   26.8769 C   0  0  0  0  0  0  0  0  0  0  0  0
    9.1717  -18.5794   27.5271 C   0  0  2  0  0  0  0  0  0  0  0  0
    8.9045  -17.4900   26.5965 N   0  0  0  0  0  0  0  0  0  0  0  0
   10.5884  -18.5474   27.9306 C   0  0  0  0  0  0  0  0  0  0  0  0
   11.4179  -17.7973   27.3157 O   0  0  0  0  0  0  0  0  0  0  0  0
   11.0632  -19.3174   28.9749 O   0  0  0  0  0  0  0  0  0  0  0  0
  2  1  1  6
  3  2  1  0
  3  4  1  0
  4  5  2  0
  6  2  1  0
  6  7  2  0
  8  4  1  0
 10  9  1  1
 10 12  1  0
 10 11  1  0
 13 12  1  1
 13 14  1  0
 14  6  1  0
 15 13  1  0
 16 15  2  0
 18 19  1  0
 18 17  1  6
 19 15  1  0
 20 18  1  0
 21 20  2  0
 22 20  1  0
M  END
$$$$
