YCP.pdb
     RDKit          3D

 26 27  0  0  1  0  0  0  0  0999 V2000
    8.8050  -13.2771   15.7351 O   0  0  0  0  0  0  0  0  0  0  0  0
    8.5092  -13.5080   17.0790 C   0  0  0  0  0  0  0  0  0  0  0  0
    9.1805  -14.4536   17.8000 C   0  0  0  0  0  0  0  0  0  0  0  0
    8.8895  -14.6867   19.1372 C   0  0  0  0  0  0  0  0  0  0  0  0
    7.9081  -13.9634   19.7744 C   0  0  0  0  0  0  0  0  0  0  0  0
    7.5807  -14.1950   21.2004 C   0  0  0  0  0  0  0  0  0  0  0  0
    7.1176  -15.6374   21.4289 C   0  0  2  0  0  0  0  0  0  0  0  0
    5.8575  -15.8894   20.7809 N   0  0  0  0  0  0  0  0  0  0  0  0
    7.0139  -15.8068   22.9073 C   0  0  0  0  0  0  0  0  0  0  0  0
    6.0716  -15.1725   23.4706 O   0  0  0  0  0  0  0  0  0  0  0  0
    7.2167  -13.0008   19.0611 C   0  0  0  0  0  0  0  0  0  0  0  0
    7.5242  -12.7886   17.7355 C   0  0  0  0  0  0  0  0  0  0  0  0
    7.9049  -16.6227   23.6542 N   0  0  0  0  0  0  0  0  0  0  0  0
    7.8429  -16.6317   25.1136 C   0  0  1  0  0  0  0  0  0  0  0  0
    7.3977  -18.0514   25.4659 C   0  0  0  0  0  0  0  0  0  0  0  0
    7.6395  -18.3178   27.2601 S   0  0  0  0  0  0  0  0  0  0  0  0
    9.1677  -16.3518   25.7071 C   0  0  0  0  0  0  0  0  0  0  0  0
   10.1873  -16.6633   25.0417 O   0  0  0  0  0  0  0  0  0  0  0  0
    9.2847  -15.7596   26.9657 N   0  0  0  0  0  0  0  0  0  0  0  0
    8.2182  -15.4150   27.8596 C   0  0  0  0  0  0  0  0  0  0  0  0
    8.7128  -14.0996   28.4321 C   0  0  0  0  0  0  0  0  0  0  0  0
   10.1637  -13.9628   28.0745 C   0  0  0  0  0  0  0  0  0  0  0  0
   10.5121  -15.3761   27.6211 C   0  0  1  0  0  0  0  0  0  0  0  0
   10.8378  -16.2091   28.7808 C   0  0  0  0  0  0  0  0  0  0  0  0
   11.9661  -16.0243   29.5632 O   0  0  0  0  0  0  0  0  0  0  0  0
   10.0663  -17.1467   29.1005 O   0  0  0  0  0  0  0  0  0  0  0  0
  2  3  2  0
  2  1  1  0
  4  3  1  0
  5  4  2  0
  6  5  1  0
  7  9  1  0
  7  6  1  0
  7  8  1  6
  9 10  2  0
 11  5  1  0
 11 12  2  0
 12  2  1  0
 13 14  1  0
 13  9  1  0
 14 15  1  1
 15 16  1  0
 17 19  1  0
 17 14  1  0
 18 17  2  0
 19 20  1  0
 21 20  1  0
 22 21  1  0
 23 22  1  0
 23 19  1  0
 23 24  1  1
 25 24  1  0
 26 24  2  0
M  END
$$$$
