YCP.pdb
     RDKit          3D

 26 27  0  0  1  0  0  0  0  0999 V2000
    9.8567  -21.3696   18.0403 O   0  0  0  0  0  0  0  0  0  0  0  0
   10.0179  -20.3470   18.9757 C   0  0  0  0  0  0  0  0  0  0  0  0
    9.2792  -20.3139   20.1237 C   0  0  0  0  0  0  0  0  0  0  0  0
    9.4361  -19.2984   21.0572 C   0  0  0  0  0  0  0  0  0  0  0  0
   10.3488  -18.2909   20.8458 C   0  0  0  0  0  0  0  0  0  0  0  0
   10.5331  -17.1974   21.8279 C   0  0  0  0  0  0  0  0  0  0  0  0
    9.5845  -16.0310   21.5336 C   0  0  2  0  0  0  0  0  0  0  0  0
   10.0701  -15.2261   20.4438 N   0  0  0  0  0  0  0  0  0  0  0  0
    9.4975  -15.2427   22.7970 C   0  0  0  0  0  0  0  0  0  0  0  0
   10.5807  -14.7178   23.1956 O   0  0  0  0  0  0  0  0  0  0  0  0
   11.1066  -18.3067   19.6888 C   0  0  0  0  0  0  0  0  0  0  0  0
   10.9322  -19.3252   18.7783 C   0  0  0  0  0  0  0  0  0  0  0  0
    8.2869  -15.0789   23.5217 N   0  0  0  0  0  0  0  0  0  0  0  0
    8.3033  -14.4703   24.8495 C   0  0  1  0  0  0  0  0  0  0  0  0
    6.8265  -14.3031   25.2087 C   0  0  0  0  0  0  0  0  0  0  0  0
    6.6976  -13.8304   26.9717 S   0  0  0  0  0  0  0  0  0  0  0  0
    8.9697  -15.3501   25.8331 C   0  0  0  0  0  0  0  0  0  0  0  0
    9.1783  -16.5454   25.5059 O   0  0  0  0  0  0  0  0  0  0  0  0
    9.3567  -14.8703   27.0855 N   0  0  0  0  0  0  0  0  0  0  0  0
    8.8333  -13.7246   27.7700 C   0  0  0  0  0  0  0  0  0  0  0  0
   10.0856  -13.1511   28.4068 C   0  0  0  0  0  0  0  0  0  0  0  0
   11.1629  -14.1913   28.3132 C   0  0  0  0  0  0  0  0  0  0  0  0
   10.3669  -15.4386   27.9457 C   0  0  1  0  0  0  0  0  0  0  0  0
    9.8204  -16.0593   29.1543 C   0  0  0  0  0  0  0  0  0  0  0  0
   10.6040  -16.6457   30.1350 O   0  0  0  0  0  0  0  0  0  0  0  0
    8.5773  -16.0715   29.3310 O   0  0  0  0  0  0  0  0  0  0  0  0
  2  3  2  0
  2  1  1  0
  4  3  1  0
  5  4  2  0
  6  5  1  0
  7  9  1  0
  7  6  1  0
  7  8  1  6
  9 10  2  0
 11  5  1  0
 11 12  2  0
 12  2  1  0
 13 14  1  0
 13  9  1  0
 14 15  1  1
 15 16  1  0
 17 19  1  0
 17 14  1  0
 18 17  2  0
 19 20  1  0
 21 20  1  0
 22 21  1  0
 23 22  1  0
 23 19  1  0
 23 24  1  1
 25 24  1  0
 26 24  2  0
M  END
$$$$
