YCP.pdb
     RDKit          3D

 26 27  0  0  1  0  0  0  0  0999 V2000
   15.5634  -20.7859   18.6896 O   0  0  0  0  0  0  0  0  0  0  0  0
   14.9165  -19.9154   19.5674 C   0  0  0  0  0  0  0  0  0  0  0  0
   15.0964  -18.5642   19.4864 C   0  0  0  0  0  0  0  0  0  0  0  0
   14.4548  -17.6944   20.3576 C   0  0  0  0  0  0  0  0  0  0  0  0
   13.6140  -18.1777   21.3332 C   0  0  0  0  0  0  0  0  0  0  0  0
   12.9190  -17.2684   22.2736 C   0  0  0  0  0  0  0  0  0  0  0  0
   11.5238  -16.9057   21.7548 C   0  0  2  0  0  0  0  0  0  0  0  0
   11.6015  -15.9993   20.6396 N   0  0  0  0  0  0  0  0  0  0  0  0
   10.8032  -16.2914   22.9074 C   0  0  0  0  0  0  0  0  0  0  0  0
   11.2023  -15.1399   23.2573 O   0  0  0  0  0  0  0  0  0  0  0  0
   13.4187  -19.5435   21.4315 C   0  0  0  0  0  0  0  0  0  0  0  0
   14.0667  -20.3855   20.5552 C   0  0  0  0  0  0  0  0  0  0  0  0
    9.7351  -16.9397   23.5829 N   0  0  0  0  0  0  0  0  0  0  0  0
    9.1281  -16.3216   24.7591 C   0  0  1  0  0  0  0  0  0  0  0  0
    7.7934  -17.0491   24.9240 C   0  0  0  0  0  0  0  0  0  0  0  0
    7.1957  -16.8051   26.6362 S   0  0  0  0  0  0  0  0  0  0  0  0
    9.9671  -16.5193   25.9603 C   0  0  0  0  0  0  0  0  0  0  0  0
   10.8185  -17.4433   25.9369 O   0  0  0  0  0  0  0  0  0  0  0  0
    9.8206  -15.7059   27.0852 N   0  0  0  0  0  0  0  0  0  0  0  0
    8.7764  -14.7553   27.3326 C   0  0  0  0  0  0  0  0  0  0  0  0
    9.5415  -13.6288   28.0021 C   0  0  0  0  0  0  0  0  0  0  0  0
   10.8927  -14.1581   28.3835 C   0  0  0  0  0  0  0  0  0  0  0  0
   10.6976  -15.6624   28.2308 C   0  0  1  0  0  0  0  0  0  0  0  0
   10.0961  -16.2162   29.4458 C   0  0  0  0  0  0  0  0  0  0  0  0
   10.7720  -16.3338   30.6494 O   0  0  0  0  0  0  0  0  0  0  0  0
    8.9047  -16.6117   29.4168 O   0  0  0  0  0  0  0  0  0  0  0  0
  2  3  2  0
  2  1  1  0
  4  3  1  0
  5  4  2  0
  6  5  1  0
  7  9  1  0
  7  6  1  0
  7  8  1  6
  9 10  2  0
 11  5  1  0
 11 12  2  0
 12  2  1  0
 13 14  1  0
 13  9  1  0
 14 15  1  1
 15 16  1  0
 17 19  1  0
 17 14  1  0
 18 17  2  0
 19 20  1  0
 21 20  1  0
 22 21  1  0
 23 22  1  0
 23 19  1  0
 23 24  1  1
 25 24  1  0
 26 24  2  0
M  END
$$$$
