YCP.pdb
     RDKit          3D

 26 27  0  0  1  0  0  0  0  0999 V2000
   10.5092  -14.6673   30.4122 O   0  0  0  0  0  0  0  0  0  0  0  0
   10.1668  -14.8709   29.0750 C   0  0  0  0  0  0  0  0  0  0  0  0
    9.7064  -13.8471   28.2976 C   0  0  0  0  0  0  0  0  0  0  0  0
    9.3645  -14.0450   26.9668 C   0  0  0  0  0  0  0  0  0  0  0  0
    9.4825  -15.2900   26.3935 C   0  0  0  0  0  0  0  0  0  0  0  0
    9.1236  -15.5245   24.9756 C   0  0  0  0  0  0  0  0  0  0  0  0
    7.6082  -15.4299   24.7712 C   0  0  2  0  0  0  0  0  0  0  0  0
    6.9239  -16.5072   25.4364 N   0  0  0  0  0  0  0  0  0  0  0  0
    7.3886  -15.4728   23.2964 C   0  0  0  0  0  0  0  0  0  0  0  0
    7.0969  -16.6089   22.8148 O   0  0  0  0  0  0  0  0  0  0  0  0
    9.9470  -16.3402   27.1646 C   0  0  0  0  0  0  0  0  0  0  0  0
   10.2796  -16.1180   28.4825 C   0  0  0  0  0  0  0  0  0  0  0  0
    7.4950  -14.3244   22.4673 N   0  0  0  0  0  0  0  0  0  0  0  0
    7.3969  -14.4558   21.0158 C   0  0  1  0  0  0  0  0  0  0  0  0
    7.4435  -13.0169   20.5005 C   0  0  0  0  0  0  0  0  0  0  0  0
    9.0669  -12.2890   20.9284 S   0  0  0  0  0  0  0  0  0  0  0  0
    8.5332  -15.2285   20.4706 C   0  0  0  0  0  0  0  0  0  0  0  0
    9.3707  -15.6947   21.2833 O   0  0  0  0  0  0  0  0  0  0  0  0
    8.6728  -15.4359   19.0972 N   0  0  0  0  0  0  0  0  0  0  0  0
    7.8121  -14.9492   18.0593 C   0  0  0  0  0  0  0  0  0  0  0  0
    7.7939  -16.1256   17.1011 C   0  0  0  0  0  0  0  0  0  0  0  0
    8.9017  -17.0560   17.4993 C   0  0  0  0  0  0  0  0  0  0  0  0
    9.7203  -16.1858   18.4463 C   0  0  1  0  0  0  0  0  0  0  0  0
   10.6476  -15.3481   17.6827 C   0  0  0  0  0  0  0  0  0  0  0  0
   10.3273  -14.0854   17.2109 O   0  0  0  0  0  0  0  0  0  0  0  0
   11.8001  -15.7783   17.4310 O   0  0  0  0  0  0  0  0  0  0  0  0
  2  3  2  0
  2  1  1  0
  4  3  1  0
  5  4  2  0
  6  5  1  0
  7  9  1  0
  7  6  1  0
  7  8  1  1
  9 10  2  0
 11  5  1  0
 11 12  2  0
 12  2  1  0
 13 14  1  0
 13  9  1  0
 14 15  1  6
 15 16  1  0
 17 19  1  0
 17 14  1  0
 18 17  2  0
 19 20  1  0
 21 20  1  0
 22 21  1  0
 23 22  1  0
 23 19  1  0
 23 24  1  6
 25 24  1  0
 26 24  2  0
M  END
$$$$
