YCP.pdb
     RDKit          3D

 26 27  0  0  1  0  0  0  0  0999 V2000
   10.6260  -14.7713   30.8030 O   0  0  0  0  0  0  0  0  0  0  0  0
   10.2652  -14.8752   29.4592 C   0  0  0  0  0  0  0  0  0  0  0  0
    9.8300  -13.7884   28.7563 C   0  0  0  0  0  0  0  0  0  0  0  0
    9.4700  -13.8870   27.4192 C   0  0  0  0  0  0  0  0  0  0  0  0
    9.5437  -15.0943   26.7637 C   0  0  0  0  0  0  0  0  0  0  0  0
    9.1648  -15.2231   25.3375 C   0  0  0  0  0  0  0  0  0  0  0  0
    7.6482  -15.3781   25.1854 C   0  0  2  0  0  0  0  0  0  0  0  0
    7.1706  -16.5432   25.8824 N   0  0  0  0  0  0  0  0  0  0  0  0
    7.3896  -15.4755   23.7196 C   0  0  0  0  0  0  0  0  0  0  0  0
    6.7933  -16.5255   23.3331 O   0  0  0  0  0  0  0  0  0  0  0  0
    9.9822  -16.2070   27.4586 C   0  0  0  0  0  0  0  0  0  0  0  0
   10.3336  -16.0830   28.7844 C   0  0  0  0  0  0  0  0  0  0  0  0
    7.7792  -14.4661   22.7993 N   0  0  0  0  0  0  0  0  0  0  0  0
    7.6149  -14.6794   21.3635 C   0  0  1  0  0  0  0  0  0  0  0  0
    7.6121  -13.2709   20.7684 C   0  0  0  0  0  0  0  0  0  0  0  0
    7.8363  -13.3951   18.9566 S   0  0  0  0  0  0  0  0  0  0  0  0
    8.7375  -15.4644   20.8074 C   0  0  0  0  0  0  0  0  0  0  0  0
    9.8692  -15.3274   21.3362 O   0  0  0  0  0  0  0  0  0  0  0  0
    8.5484  -16.3317   19.7301 N   0  0  0  0  0  0  0  0  0  0  0  0
    7.3607  -16.4817   18.9414 C   0  0  0  0  0  0  0  0  0  0  0  0
    7.3375  -17.9807   18.7065 C   0  0  0  0  0  0  0  0  0  0  0  0
    8.6816  -18.5242   19.0932 C   0  0  0  0  0  0  0  0  0  0  0  0
    9.5194  -17.2544   19.1926 C   0  0  1  0  0  0  0  0  0  0  0  0
   10.0128  -16.8737   17.8673 C   0  0  0  0  0  0  0  0  0  0  0  0
    9.5400  -15.7806   17.1594 O   0  0  0  0  0  0  0  0  0  0  0  0
   10.9126  -17.5616   17.3252 O   0  0  0  0  0  0  0  0  0  0  0  0
  2  3  2  0
  2  1  1  0
  4  3  1  0
  5  4  2  0
  6  5  1  0
  7  9  1  0
  7  6  1  0
  7  8  1  1
  9 10  2  0
 11  5  1  0
 11 12  2  0
 12  2  1  0
 13 14  1  0
 13  9  1  0
 14 15  1  6
 15 16  1  0
 17 19  1  0
 17 14  1  0
 18 17  2  0
 19 20  1  0
 21 20  1  0
 22 21  1  0
 23 22  1  0
 23 19  1  0
 23 24  1  6
 25 24  1  0
 26 24  2  0
M  END
$$$$
