YCP.pdb
     RDKit          3D

 26 27  0  0  1  0  0  0  0  0999 V2000
   11.5009  -14.1730   29.8267 O   0  0  0  0  0  0  0  0  0  0  0  0
   10.8855  -15.1201   29.0077 C   0  0  0  0  0  0  0  0  0  0  0  0
   10.4670  -14.8022   27.7474 C   0  0  0  0  0  0  0  0  0  0  0  0
    9.8542  -15.7412   26.9289 C   0  0  0  0  0  0  0  0  0  0  0  0
    9.6519  -17.0277   27.3725 C   0  0  0  0  0  0  0  0  0  0  0  0
    9.0003  -18.0461   26.5167 C   0  0  0  0  0  0  0  0  0  0  0  0
    7.4835  -18.0538   26.7324 C   0  0  2  0  0  0  0  0  0  0  0  0
    6.9634  -19.3958   26.7306 N   0  0  0  0  0  0  0  0  0  0  0  0
    6.9058  -17.2437   25.6210 C   0  0  0  0  0  0  0  0  0  0  0  0
    6.8648  -17.8114   24.4880 O   0  0  0  0  0  0  0  0  0  0  0  0
   10.0688  -17.3693   28.6463 C   0  0  0  0  0  0  0  0  0  0  0  0
   10.6742  -16.4195   29.4388 C   0  0  0  0  0  0  0  0  0  0  0  0
    6.4268  -15.9188   25.8011 N   0  0  0  0  0  0  0  0  0  0  0  0
    6.6192  -14.9202   24.7523 C   0  0  1  0  0  0  0  0  0  0  0  0
    7.0032  -13.6468   25.5066 C   0  0  0  0  0  0  0  0  0  0  0  0
    7.3814  -12.3322   24.2912 S   0  0  0  0  0  0  0  0  0  0  0  0
    7.7070  -15.3140   23.8318 C   0  0  0  0  0  0  0  0  0  0  0  0
    8.4389  -16.2794   24.1658 O   0  0  0  0  0  0  0  0  0  0  0  0
    7.9155  -14.6371   22.6289 N   0  0  0  0  0  0  0  0  0  0  0  0
    7.2490  -13.4499   22.1802 C   0  0  0  0  0  0  0  0  0  0  0  0
    7.0866  -13.7326   20.6982 C   0  0  0  0  0  0  0  0  0  0  0  0
    7.9630  -14.9021   20.3578 C   0  0  0  0  0  0  0  0  0  0  0  0
    8.8518  -15.0010   21.5925 C   0  0  1  0  0  0  0  0  0  0  0  0
    9.9793  -14.0738   21.4747 C   0  0  0  0  0  0  0  0  0  0  0  0
   11.1061  -14.1331   22.2785 O   0  0  0  0  0  0  0  0  0  0  0  0
    9.9430  -13.1690   20.6049 O   0  0  0  0  0  0  0  0  0  0  0  0
  2  3  2  0
  2  1  1  0
  4  3  1  0
  5  4  2  0
  6  5  1  0
  7  9  1  0
  7  6  1  0
  7  8  1  6
  9 10  2  0
 11  5  1  0
 11 12  2  0
 12  2  1  0
 13 14  1  0
 13  9  1  0
 14 15  1  1
 15 16  1  0
 17 19  1  0
 17 14  1  0
 18 17  2  0
 19 20  1  0
 21 20  1  0
 22 21  1  0
 23 22  1  0
 23 19  1  0
 23 24  1  6
 25 24  1  0
 26 24  2  0
M  END
$$$$
