YCP.pdb
     RDKit          3D

 26 27  0  0  1  0  0  0  0  0999 V2000
   11.6751  -15.8960   31.4739 O   0  0  0  0  0  0  0  0  0  0  0  0
   11.0095  -16.2405   30.2971 C   0  0  0  0  0  0  0  0  0  0  0  0
   10.3456  -15.3036   29.5581 C   0  0  0  0  0  0  0  0  0  0  0  0
    9.6820  -15.6418   28.3866 C   0  0  0  0  0  0  0  0  0  0  0  0
    9.6774  -16.9421   27.9375 C   0  0  0  0  0  0  0  0  0  0  0  0
    8.9761  -17.3259   26.6905 C   0  0  0  0  0  0  0  0  0  0  0  0
    7.4639  -17.4181   26.9184 C   0  0  2  0  0  0  0  0  0  0  0  0
    7.0372  -18.7873   27.0392 N   0  0  0  0  0  0  0  0  0  0  0  0
    6.8295  -16.7509   25.7447 C   0  0  0  0  0  0  0  0  0  0  0  0
    6.5785  -17.5003   24.7532 O   0  0  0  0  0  0  0  0  0  0  0  0
   10.3442  -17.9059   28.6721 C   0  0  0  0  0  0  0  0  0  0  0  0
   10.9950  -17.5450   29.8309 C   0  0  0  0  0  0  0  0  0  0  0  0
    6.5187  -15.3652   25.7205 N   0  0  0  0  0  0  0  0  0  0  0  0
    6.6396  -14.6078   24.4774 C   0  0  1  0  0  0  0  0  0  0  0  0
    6.8103  -13.1577   24.9314 C   0  0  0  0  0  0  0  0  0  0  0  0
    8.4646  -12.9676   25.6901 S   0  0  0  0  0  0  0  0  0  0  0  0
    7.8207  -15.0400   23.7003 C   0  0  0  0  0  0  0  0  0  0  0  0
    8.5862  -15.8910   24.2190 O   0  0  0  0  0  0  0  0  0  0  0  0
    8.0787  -14.5214   22.4302 N   0  0  0  0  0  0  0  0  0  0  0  0
    7.8860  -13.1693   21.9948 C   0  0  0  0  0  0  0  0  0  0  0  0
    7.3740  -13.3738   20.5811 C   0  0  0  0  0  0  0  0  0  0  0  0
    7.6285  -14.8041   20.2058 C   0  0  0  0  0  0  0  0  0  0  0  0
    8.5959  -15.2498   21.2965 C   0  0  1  0  0  0  0  0  0  0  0  0
    9.9648  -14.8729   20.9377 C   0  0  0  0  0  0  0  0  0  0  0  0
   10.6912  -13.9008   21.6061 O   0  0  0  0  0  0  0  0  0  0  0  0
   10.5292  -15.4495   19.9755 O   0  0  0  0  0  0  0  0  0  0  0  0
  2  3  2  0
  2  1  1  0
  4  3  1  0
  5  4  2  0
  6  5  1  0
  7  9  1  0
  7  6  1  0
  7  8  1  6
  9 10  2  0
 11  5  1  0
 11 12  2  0
 12  2  1  0
 13 14  1  0
 13  9  1  0
 14 15  1  1
 15 16  1  0
 17 19  1  0
 17 14  1  0
 18 17  2  0
 19 20  1  0
 21 20  1  0
 22 21  1  0
 23 22  1  0
 23 19  1  0
 23 24  1  6
 25 24  1  0
 26 24  2  0
M  END
$$$$
