YCP.pdb
     RDKit          3D

 26 27  0  0  1  0  0  0  0  0999 V2000
   10.4173  -16.4473   31.6908 O   0  0  0  0  0  0  0  0  0  0  0  0
   10.3272  -16.0960   30.3435 C   0  0  0  0  0  0  0  0  0  0  0  0
    9.8691  -16.9807   29.4096 C   0  0  0  0  0  0  0  0  0  0  0  0
    9.7777  -16.6355   28.0681 C   0  0  0  0  0  0  0  0  0  0  0  0
   10.1502  -15.3813   27.6431 C   0  0  0  0  0  0  0  0  0  0  0  0
   10.0612  -14.9911   26.2169 C   0  0  0  0  0  0  0  0  0  0  0  0
   10.8661  -15.9509   25.3350 C   0  0  2  0  0  0  0  0  0  0  0  0
   12.2471  -15.9954   25.7379 N   0  0  0  0  0  0  0  0  0  0  0  0
   10.7216  -15.4460   23.9388 C   0  0  0  0  0  0  0  0  0  0  0  0
   10.8602  -14.1948   23.7875 O   0  0  0  0  0  0  0  0  0  0  0  0
   10.6168  -14.4708   28.5740 C   0  0  0  0  0  0  0  0  0  0  0  0
   10.6981  -14.8375   29.8989 C   0  0  0  0  0  0  0  0  0  0  0  0
   10.4461  -16.2974   22.8358 N   0  0  0  0  0  0  0  0  0  0  0  0
   10.1637  -15.7267   21.5211 C   0  0  1  0  0  0  0  0  0  0  0  0
   11.0598  -16.5146   20.5649 C   0  0  0  0  0  0  0  0  0  0  0  0
   12.7961  -16.3614   21.1219 S   0  0  0  0  0  0  0  0  0  0  0  0
    8.7434  -15.9081   21.1530 C   0  0  0  0  0  0  0  0  0  0  0  0
    8.0548  -16.7026   21.8413 O   0  0  0  0  0  0  0  0  0  0  0  0
    8.1827  -15.2189   20.0764 N   0  0  0  0  0  0  0  0  0  0  0  0
    8.8399  -14.2770   19.2184 C   0  0  0  0  0  0  0  0  0  0  0  0
    7.7462  -13.2481   19.0001 C   0  0  0  0  0  0  0  0  0  0  0  0
    6.4547  -13.8469   19.4745 C   0  0  0  0  0  0  0  0  0  0  0  0
    6.8206  -15.3207   19.6100 C   0  0  1  0  0  0  0  0  0  0  0  0
    6.6978  -15.9895   18.3130 C   0  0  0  0  0  0  0  0  0  0  0  0
    5.4937  -16.4360   17.7930 O   0  0  0  0  0  0  0  0  0  0  0  0
    7.7268  -16.1785   17.6187 O   0  0  0  0  0  0  0  0  0  0  0  0
  2  3  2  0
  2  1  1  0
  4  3  1  0
  5  4  2  0
  6  5  1  0
  7  9  1  0
  7  6  1  0
  7  8  1  1
  9 10  2  0
 11  5  1  0
 11 12  2  0
 12  2  1  0
 13 14  1  0
 13  9  1  0
 14 15  1  6
 15 16  1  0
 17 19  1  0
 17 14  1  0
 18 17  2  0
 19 20  1  0
 21 20  1  0
 22 21  1  0
 23 22  1  0
 23 19  1  0
 23 24  1  6
 25 24  1  0
 26 24  2  0
M  END
$$$$
