YCP.pdb
     RDKit          3D

 26 27  0  0  1  0  0  0  0  0999 V2000
    2.5029  -20.4632   20.4972 O   0  0  0  0  0  0  0  0  0  0  0  0
    3.5738  -19.7471   21.0330 C   0  0  0  0  0  0  0  0  0  0  0  0
    3.4390  -19.0270   22.1854 C   0  0  0  0  0  0  0  0  0  0  0  0
    4.5017  -18.3130   22.7221 C   0  0  0  0  0  0  0  0  0  0  0  0
    5.7285  -18.3139   22.0996 C   0  0  0  0  0  0  0  0  0  0  0  0
    6.8763  -17.5594   22.6541 C   0  0  0  0  0  0  0  0  0  0  0  0
    6.8888  -16.1191   22.1323 C   0  0  2  0  0  0  0  0  0  0  0  0
    7.5624  -16.0299   20.8636 N   0  0  0  0  0  0  0  0  0  0  0  0
    7.5821  -15.3094   23.1757 C   0  0  0  0  0  0  0  0  0  0  0  0
    8.8466  -15.4012   23.1956 O   0  0  0  0  0  0  0  0  0  0  0  0
    5.8852  -19.0373   20.9311 C   0  0  0  0  0  0  0  0  0  0  0  0
    4.8155  -19.7373   20.4189 C   0  0  0  0  0  0  0  0  0  0  0  0
    6.8872  -14.4821   24.0976 N   0  0  0  0  0  0  0  0  0  0  0  0
    7.5856  -13.9221   25.2519 C   0  0  1  0  0  0  0  0  0  0  0  0
    6.5483  -13.0209   25.9227 C   0  0  0  0  0  0  0  0  0  0  0  0
    7.1817  -12.5103   27.5617 S   0  0  0  0  0  0  0  0  0  0  0  0
    8.0151  -14.9854   26.1850 C   0  0  0  0  0  0  0  0  0  0  0  0
    7.4119  -16.0869   26.1385 O   0  0  0  0  0  0  0  0  0  0  0  0
    9.0579  -14.7752   27.0888 N   0  0  0  0  0  0  0  0  0  0  0  0
    9.5622  -13.5136   27.5461 C   0  0  0  0  0  0  0  0  0  0  0  0
   11.0533  -13.7867   27.6123 C   0  0  0  0  0  0  0  0  0  0  0  0
   11.2507  -15.2706   27.5092 C   0  0  0  0  0  0  0  0  0  0  0  0
    9.8390  -15.7946   27.7476 C   0  0  1  0  0  0  0  0  0  0  0  0
    9.5758  -15.8916   29.1850 C   0  0  0  0  0  0  0  0  0  0  0  0
    8.6559  -15.0972   29.8500 O   0  0  0  0  0  0  0  0  0  0  0  0
   10.2070  -16.7335   29.8702 O   0  0  0  0  0  0  0  0  0  0  0  0
  2  3  2  0
  2  1  1  0
  4  3  1  0
  5  4  2  0
  6  5  1  0
  7  9  1  0
  7  6  1  0
  7  8  1  6
  9 10  2  0
 11  5  1  0
 11 12  2  0
 12  2  1  0
 13 14  1  0
 13  9  1  0
 14 15  1  1
 15 16  1  0
 17 19  1  0
 17 14  1  0
 18 17  2  0
 19 20  1  0
 21 20  1  0
 22 21  1  0
 23 22  1  0
 23 19  1  0
 23 24  1  1
 25 24  1  0
 26 24  2  0
M  END
$$$$
