YCP.pdb
     RDKit          3D

 26 27  0  0  1  0  0  0  0  0999 V2000
   10.7796  -19.4803   29.0217 O   0  0  0  0  0  0  0  0  0  0  0  0
   10.0004  -19.5104   27.8647 C   0  0  0  0  0  0  0  0  0  0  0  0
    8.9932  -20.4197   27.7121 C   0  0  0  0  0  0  0  0  0  0  0  0
    8.2154  -20.4533   26.5627 C   0  0  0  0  0  0  0  0  0  0  0  0
    8.4431  -19.5624   25.5395 C   0  0  0  0  0  0  0  0  0  0  0  0
    7.6259  -19.5798   24.3042 C   0  0  0  0  0  0  0  0  0  0  0  0
    6.1735  -19.1940   24.6026 C   0  0  2  0  0  0  0  0  0  0  0  0
    5.2536  -20.1337   24.0175 N   0  0  0  0  0  0  0  0  0  0  0  0
    5.9873  -17.8256   24.0388 C   0  0  0  0  0  0  0  0  0  0  0  0
    5.6963  -17.7717   22.8059 O   0  0  0  0  0  0  0  0  0  0  0  0
    9.4589  -18.6334   25.6751 C   0  0  0  0  0  0  0  0  0  0  0  0
   10.2164  -18.6205   26.8252 C   0  0  0  0  0  0  0  0  0  0  0  0
    6.1230  -16.6458   24.8179 N   0  0  0  0  0  0  0  0  0  0  0  0
    6.6970  -15.4390   24.2280 C   0  0  1  0  0  0  0  0  0  0  0  0
    7.1150  -14.5909   25.4297 C   0  0  0  0  0  0  0  0  0  0  0  0
    8.0790  -13.1550   24.8321 S   0  0  0  0  0  0  0  0  0  0  0  0
    7.8767  -15.7592   23.3963 C   0  0  0  0  0  0  0  0  0  0  0  0
    8.5279  -16.7972   23.6749 O   0  0  0  0  0  0  0  0  0  0  0  0
    8.2562  -14.9366   22.3342 N   0  0  0  0  0  0  0  0  0  0  0  0
    7.9042  -13.5605   22.1402 C   0  0  0  0  0  0  0  0  0  0  0  0
    7.6925  -13.5084   20.6385 C   0  0  0  0  0  0  0  0  0  0  0  0
    8.2601  -14.7682   20.0534 C   0  0  0  0  0  0  0  0  0  0  0  0
    9.0855  -15.3119   21.2141 C   0  0  1  0  0  0  0  0  0  0  0  0
   10.4064  -14.6796   21.2301 C   0  0  0  0  0  0  0  0  0  0  0  0
   11.3947  -14.9479   20.2970 O   0  0  0  0  0  0  0  0  0  0  0  0
   10.6784  -13.8466   22.1293 O   0  0  0  0  0  0  0  0  0  0  0  0
  2  3  2  0
  2  1  1  0
  4  3  1  0
  5  4  2  0
  6  5  1  0
  7  9  1  0
  7  6  1  0
  7  8  1  6
  9 10  2  0
 11  5  1  0
 11 12  2  0
 12  2  1  0
 13 14  1  0
 13  9  1  0
 14 15  1  1
 15 16  1  0
 17 19  1  0
 17 14  1  0
 18 17  2  0
 19 20  1  0
 21 20  1  0
 22 21  1  0
 23 22  1  0
 23 19  1  0
 23 24  1  1
 25 24  1  0
 26 24  2  0
M  END
$$$$
