YCP.pdb
     RDKit          3D

 26 27  0  0  1  0  0  0  0  0999 V2000
   11.3217  -13.6511   29.0099 O   0  0  0  0  0  0  0  0  0  0  0  0
   10.6624  -14.8264   28.6483 C   0  0  0  0  0  0  0  0  0  0  0  0
   10.0618  -15.6186   29.5843 C   0  0  0  0  0  0  0  0  0  0  0  0
    9.4047  -16.7888   29.2291 C   0  0  0  0  0  0  0  0  0  0  0  0
    9.3423  -17.1822   27.9123 C   0  0  0  0  0  0  0  0  0  0  0  0
    8.6467  -18.4266   27.5103 C   0  0  0  0  0  0  0  0  0  0  0  0
    7.1526  -18.1717   27.2873 C   0  0  2  0  0  0  0  0  0  0  0  0
    6.4425  -19.4019   27.0558 N   0  0  0  0  0  0  0  0  0  0  0  0
    7.0620  -17.2600   26.1101 C   0  0  0  0  0  0  0  0  0  0  0  0
    7.2137  -17.8065   24.9761 O   0  0  0  0  0  0  0  0  0  0  0  0
    9.9446  -16.3930   26.9492 C   0  0  0  0  0  0  0  0  0  0  0  0
   10.5903  -15.2368   27.3271 C   0  0  0  0  0  0  0  0  0  0  0  0
    6.8216  -15.8655   26.2317 N   0  0  0  0  0  0  0  0  0  0  0  0
    6.8568  -15.0090   25.0489 C   0  0  1  0  0  0  0  0  0  0  0  0
    6.8721  -13.5868   25.6103 C   0  0  0  0  0  0  0  0  0  0  0  0
    5.3830  -13.3449   26.6458 S   0  0  0  0  0  0  0  0  0  0  0  0
    8.0752  -15.2530   24.2479 C   0  0  0  0  0  0  0  0  0  0  0  0
    8.9781  -15.9659   24.7536 O   0  0  0  0  0  0  0  0  0  0  0  0
    8.2198  -14.7105   22.9698 N   0  0  0  0  0  0  0  0  0  0  0  0
    7.6881  -13.4667   22.4952 C   0  0  0  0  0  0  0  0  0  0  0  0
    7.2851  -13.8281   21.0776 C   0  0  0  0  0  0  0  0  0  0  0  0
    7.9180  -15.1474   20.7453 C   0  0  0  0  0  0  0  0  0  0  0  0
    8.9402  -15.2988   21.8661 C   0  0  1  0  0  0  0  0  0  0  0  0
   10.1697  -14.5803   21.5243 C   0  0  0  0  0  0  0  0  0  0  0  0
   11.1689  -15.1105   20.7243 O   0  0  0  0  0  0  0  0  0  0  0  0
   10.3479  -13.4200   21.9699 O   0  0  0  0  0  0  0  0  0  0  0  0
  2  3  2  0
  2  1  1  0
  4  3  1  0
  5  4  2  0
  6  5  1  0
  7  9  1  0
  7  6  1  0
  7  8  1  6
  9 10  2  0
 11  5  1  0
 11 12  2  0
 12  2  1  0
 13 14  1  0
 13  9  1  0
 14 15  1  1
 15 16  1  0
 17 19  1  0
 17 14  1  0
 18 17  2  0
 19 20  1  0
 21 20  1  0
 22 21  1  0
 23 22  1  0
 23 19  1  0
 23 24  1  6
 25 24  1  0
 26 24  2  0
M  END
$$$$
