YCP.pdb
     RDKit          3D

 26 27  0  0  1  0  0  0  0  0999 V2000
   16.8424  -24.2616   14.1387 O   0  0  0  0  0  0  0  0  0  0  0  0
   16.1123  -23.3587   14.9123 C   0  0  0  0  0  0  0  0  0  0  0  0
   15.4894  -23.7523   16.0619 C   0  0  0  0  0  0  0  0  0  0  0  0
   14.7620  -22.8574   16.8347 C   0  0  0  0  0  0  0  0  0  0  0  0
   14.6501  -21.5393   16.4569 C   0  0  0  0  0  0  0  0  0  0  0  0
   13.8791  -20.5669   17.2658 C   0  0  0  0  0  0  0  0  0  0  0  0
   12.3724  -20.7715   17.0790 C   0  0  2  0  0  0  0  0  0  0  0  0
   11.9594  -20.4179   15.7464 N   0  0  0  0  0  0  0  0  0  0  0  0
   11.7104  -19.9104   18.1014 C   0  0  0  0  0  0  0  0  0  0  0  0
   11.6550  -18.6734   17.8287 O   0  0  0  0  0  0  0  0  0  0  0  0
   15.2739  -21.1211   15.2954 C   0  0  0  0  0  0  0  0  0  0  0  0
   15.9898  -22.0283   14.5462 C   0  0  0  0  0  0  0  0  0  0  0  0
   11.1702  -20.4252   19.3100 N   0  0  0  0  0  0  0  0  0  0  0  0
   10.6207  -19.5170   20.3135 C   0  0  1  0  0  0  0  0  0  0  0  0
    9.7101  -20.4004   21.1669 C   0  0  0  0  0  0  0  0  0  0  0  0
   10.7247  -21.6985   21.9632 S   0  0  0  0  0  0  0  0  0  0  0  0
   11.6911  -18.9323   21.1491 C   0  0  0  0  0  0  0  0  0  0  0  0
   12.8639  -19.3506   20.9793 O   0  0  0  0  0  0  0  0  0  0  0  0
   11.4103  -17.9462   22.0964 N   0  0  0  0  0  0  0  0  0  0  0  0
   10.1247  -17.3990   22.4172 C   0  0  0  0  0  0  0  0  0  0  0  0
   10.4623  -15.9362   22.6386 C   0  0  0  0  0  0  0  0  0  0  0  0
   11.9541  -15.8243   22.7537 C   0  0  0  0  0  0  0  0  0  0  0  0
   12.3663  -17.2792   22.9475 C   0  0  1  0  0  0  0  0  0  0  0  0
   12.2476  -17.6505   24.3592 C   0  0  0  0  0  0  0  0  0  0  0  0
   11.2011  -18.4030   24.8673 O   0  0  0  0  0  0  0  0  0  0  0  0
   13.1310  -17.2771   25.1696 O   0  0  0  0  0  0  0  0  0  0  0  0
  2  3  2  0
  2  1  1  0
  4  3  1  0
  5  4  2  0
  6  5  1  0
  7  9  1  0
  7  6  1  0
  7  8  1  6
  9 10  2  0
 11  5  1  0
 11 12  2  0
 12  2  1  0
 13 14  1  0
 13  9  1  0
 14 15  1  1
 15 16  1  0
 17 19  1  0
 17 14  1  0
 18 17  2  0
 19 20  1  0
 21 20  1  0
 22 21  1  0
 23 22  1  0
 23 19  1  0
 23 24  1  1
 25 24  1  0
 26 24  2  0
M  END
$$$$
