YCP.pdb
     RDKit          3D

 26 27  0  0  1  0  0  0  0  0999 V2000
    9.0958  -13.5303   15.5795 O   0  0  0  0  0  0  0  0  0  0  0  0
    8.7221  -13.7208   16.9102 C   0  0  0  0  0  0  0  0  0  0  0  0
    7.4469  -13.4725   17.3306 C   0  0  0  0  0  0  0  0  0  0  0  0
    7.0706  -13.6606   18.6536 C   0  0  0  0  0  0  0  0  0  0  0  0
    7.9827  -14.1062   19.5821 C   0  0  0  0  0  0  0  0  0  0  0  0
    7.6037  -14.3140   20.9989 C   0  0  0  0  0  0  0  0  0  0  0  0
    7.4565  -15.8062   21.3135 C   0  0  2  0  0  0  0  0  0  0  0  0
    6.3697  -16.3906   20.5727 N   0  0  0  0  0  0  0  0  0  0  0  0
    7.2241  -15.8956   22.7842 C   0  0  0  0  0  0  0  0  0  0  0  0
    6.0105  -15.9200   23.1506 O   0  0  0  0  0  0  0  0  0  0  0  0
    9.2796  -14.3634   19.1758 C   0  0  0  0  0  0  0  0  0  0  0  0
    9.6280  -14.1688   17.8576 C   0  0  0  0  0  0  0  0  0  0  0  0
    8.2823  -15.9508   23.7300 N   0  0  0  0  0  0  0  0  0  0  0  0
    7.9898  -16.1474   25.1476 C   0  0  1  0  0  0  0  0  0  0  0  0
    7.2521  -17.4857   25.2010 C   0  0  0  0  0  0  0  0  0  0  0  0
    7.0402  -17.9735   26.9518 S   0  0  0  0  0  0  0  0  0  0  0  0
    9.2325  -16.2193   25.9453 C   0  0  0  0  0  0  0  0  0  0  0  0
   10.1779  -16.9165   25.4989 O   0  0  0  0  0  0  0  0  0  0  0  0
    9.3544  -15.5344   27.1555 N   0  0  0  0  0  0  0  0  0  0  0  0
    8.3348  -14.7849   27.8293 C   0  0  0  0  0  0  0  0  0  0  0  0
    9.1275  -13.6101   28.3714 C   0  0  0  0  0  0  0  0  0  0  0  0
   10.5845  -13.9480   28.2512 C   0  0  0  0  0  0  0  0  0  0  0  0
   10.5397  -15.4465   27.9743 C   0  0  1  0  0  0  0  0  0  0  0  0
   10.4335  -16.1864   29.2337 C   0  0  0  0  0  0  0  0  0  0  0  0
    9.3543  -16.9917   29.5597 O   0  0  0  0  0  0  0  0  0  0  0  0
   11.3595  -16.1004   30.0774 O   0  0  0  0  0  0  0  0  0  0  0  0
  2  3  2  0
  2  1  1  0
  4  3  1  0
  5  4  2  0
  6  5  1  0
  7  9  1  0
  7  6  1  0
  7  8  1  6
  9 10  2  0
 11  5  1  0
 11 12  2  0
 12  2  1  0
 13 14  1  0
 13  9  1  0
 14 15  1  6
 15 16  1  0
 17 19  1  0
 17 14  1  0
 18 17  2  0
 19 20  1  0
 21 20  1  0
 22 21  1  0
 23 22  1  0
 23 19  1  0
 23 24  1  1
 25 24  1  0
 26 24  2  0
M  END
$$$$
