DGG.pdb
     RDKit          3D

 17 16  0  0  1  0  0  0  0  0999 V2000
   19.9997  -11.8586  -15.0277 N   0  0  0  0  0  0  0  0  0  0  0  0
   19.1335  -11.6969  -16.1665 C   0  0  1  0  0  0  0  0  0  0  0  0
   17.8012  -12.3914  -15.9702 C   0  0  0  0  0  0  0  0  0  0  0  0
   17.9605  -13.8035  -15.5961 C   0  0  0  0  0  0  0  0  0  0  0  0
   18.7699  -14.5160  -16.2342 O   0  0  0  0  0  0  0  0  0  0  0  0
   18.9516  -10.2560  -16.4746 C   0  0  0  0  0  0  0  0  0  0  0  0
   18.2880   -9.9162  -17.4967 O   0  0  0  0  0  0  0  0  0  0  0  0
   17.2442  -14.3572  -14.5660 O   0  0  0  0  0  0  0  0  0  0  0  0
   19.4890   -9.2317  -15.6739 N   0  0  0  0  0  0  0  0  0  0  0  0
   19.2164   -7.8242  -15.8896 C   0  0  0  0  0  0  0  0  0  0  0  0
   19.8964   -6.9810  -14.8791 C   0  0  0  0  0  0  0  0  0  0  0  0
   19.5574   -5.7787  -14.7867 O   0  0  0  0  0  0  0  0  0  0  0  0
   20.9028   -7.5013  -14.0333 N   0  0  0  0  0  0  0  0  0  0  0  0
   21.4736   -6.6320  -13.0220 C   0  0  0  0  0  0  0  0  0  0  0  0
   22.2023   -5.5122  -13.6367 C   0  0  0  0  0  0  0  0  0  0  0  0
   22.2355   -5.3881  -15.0118 O   0  0  0  0  0  0  0  0  0  0  0  0
   22.7917   -4.6718  -12.9296 O   0  0  0  0  0  0  0  0  0  0  0  0
  2  1  1  1
  2  3  1  0
  3  4  1  0
  4  8  1  0
  4  5  2  0
  6  7  2  0
  6  2  1  0
  9  6  1  0
 10 11  1  0
 10  9  1  0
 11 13  1  0
 12 11  2  0
 13 14  1  0
 14 15  1  0
 15 17  2  0
 15 16  1  0
M  END
$$$$
