DGG.pdb
     RDKit          3D

 17 16  0  0  1  0  0  0  0  0999 V2000
   19.4442  -12.3531  -16.3231 N   0  0  0  0  0  0  0  0  0  0  0  0
   18.1213  -11.9761  -15.8977 C   0  0  1  0  0  0  0  0  0  0  0  0
   17.4556  -13.0644  -15.0801 C   0  0  0  0  0  0  0  0  0  0  0  0
   17.3710  -14.3359  -15.8120 C   0  0  0  0  0  0  0  0  0  0  0  0
   17.1767  -14.3156  -17.0497 O   0  0  0  0  0  0  0  0  0  0  0  0
   18.1661  -10.6921  -15.1536 C   0  0  0  0  0  0  0  0  0  0  0  0
   17.1606  -10.3285  -14.4772 O   0  0  0  0  0  0  0  0  0  0  0  0
   17.4998  -15.5415  -15.1712 O   0  0  0  0  0  0  0  0  0  0  0  0
   19.2890   -9.8448  -15.1625 N   0  0  0  0  0  0  0  0  0  0  0  0
   19.3482   -8.5909  -14.4373 C   0  0  0  0  0  0  0  0  0  0  0  0
   20.6050   -7.8603  -14.7226 C   0  0  0  0  0  0  0  0  0  0  0  0
   21.4608   -8.4162  -15.4489 O   0  0  0  0  0  0  0  0  0  0  0  0
   20.8495   -6.5703  -14.1983 N   0  0  0  0  0  0  0  0  0  0  0  0
   22.0572   -5.8766  -14.6040 C   0  0  0  0  0  0  0  0  0  0  0  0
   22.1529   -4.5587  -13.9584 C   0  0  0  0  0  0  0  0  0  0  0  0
   23.2492   -3.7544  -14.2005 O   0  0  0  0  0  0  0  0  0  0  0  0
   21.2540   -4.1582  -13.1933 O   0  0  0  0  0  0  0  0  0  0  0  0
  2  1  1  1
  2  3  1  0
  3  4  1  0
  4  8  1  0
  4  5  2  0
  6  7  2  0
  6  2  1  0
  9  6  1  0
 10 11  1  0
 10  9  1  0
 11 13  1  0
 12 11  2  0
 13 14  1  0
 14 15  1  0
 15 17  2  0
 15 16  1  0
M  END
$$$$
