DGG.pdb
     RDKit          3D

 17 16  0  0  1  0  0  0  0  0999 V2000
   19.2227   -8.7596  -16.1494 N   0  0  0  0  0  0  0  0  0  0  0  0
   20.0431   -9.6001  -15.3164 C   0  0  1  0  0  0  0  0  0  0  0  0
   20.6893  -10.7224  -16.1031 C   0  0  0  0  0  0  0  0  0  0  0  0
   19.6978  -11.6526  -16.6606 C   0  0  0  0  0  0  0  0  0  0  0  0
   19.1559  -12.4920  -15.9044 O   0  0  0  0  0  0  0  0  0  0  0  0
   21.0590   -8.7848  -14.6042 C   0  0  0  0  0  0  0  0  0  0  0  0
   21.9018   -9.3562  -13.8533 O   0  0  0  0  0  0  0  0  0  0  0  0
   19.3532  -11.6221  -17.9877 O   0  0  0  0  0  0  0  0  0  0  0  0
   21.1333   -7.3851  -14.7238 N   0  0  0  0  0  0  0  0  0  0  0  0
   22.0520   -6.5664  -13.9572 C   0  0  0  0  0  0  0  0  0  0  0  0
   21.8588   -5.1256  -14.2423 C   0  0  0  0  0  0  0  0  0  0  0  0
   22.5162   -4.2964  -13.5721 O   0  0  0  0  0  0  0  0  0  0  0  0
   20.9613   -4.6797  -15.2396 N   0  0  0  0  0  0  0  0  0  0  0  0
   20.7798   -3.2516  -15.4178 C   0  0  0  0  0  0  0  0  0  0  0  0
   21.8328   -2.6871  -16.2753 C   0  0  0  0  0  0  0  0  0  0  0  0
   21.6905   -1.4122  -16.7871 O   0  0  0  0  0  0  0  0  0  0  0  0
   22.8548   -3.3473  -16.5462 O   0  0  0  0  0  0  0  0  0  0  0  0
  2  1  1  6
  2  3  1  0
  3  4  1  0
  4  8  1  0
  4  5  2  0
  6  7  2  0
  6  2  1  0
  9  6  1  0
 10 11  1  0
 10  9  1  0
 11 13  1  0
 12 11  2  0
 13 14  1  0
 14 15  1  0
 15 17  2  0
 15 16  1  0
M  END
$$$$
