DGG.pdb
     RDKit          3D

 17 16  0  0  1  0  0  0  0  0999 V2000
   19.3543  -11.8771  -17.8988 N   0  0  0  0  0  0  0  0  0  0  0  0
   18.8134  -11.5797  -16.5979 C   0  0  1  0  0  0  0  0  0  0  0  0
   18.6248  -12.8292  -15.7618 C   0  0  0  0  0  0  0  0  0  0  0  0
   17.4991  -13.6480  -16.2326 C   0  0  0  0  0  0  0  0  0  0  0  0
   16.5790  -13.1026  -16.8854 O   0  0  0  0  0  0  0  0  0  0  0  0
   19.6678  -10.5863  -15.8998 C   0  0  0  0  0  0  0  0  0  0  0  0
   19.3373  -10.1799  -14.7482 O   0  0  0  0  0  0  0  0  0  0  0  0
   17.4337  -14.9932  -15.9737 O   0  0  0  0  0  0  0  0  0  0  0  0
   20.8465  -10.0649  -16.4636 N   0  0  0  0  0  0  0  0  0  0  0  0
   21.7544   -9.1903  -15.7475 C   0  0  0  0  0  0  0  0  0  0  0  0
   21.2135   -7.8148  -15.6477 C   0  0  0  0  0  0  0  0  0  0  0  0
   20.2429   -7.5062  -16.3768 O   0  0  0  0  0  0  0  0  0  0  0  0
   21.7646   -6.8627  -14.7597 N   0  0  0  0  0  0  0  0  0  0  0  0
   21.1830   -5.5343  -14.7222 C   0  0  0  0  0  0  0  0  0  0  0  0
   21.8548   -4.6904  -13.7224 C   0  0  0  0  0  0  0  0  0  0  0  0
   21.5210   -3.3544  -13.6170 O   0  0  0  0  0  0  0  0  0  0  0  0
   22.7239   -5.1680  -12.9673 O   0  0  0  0  0  0  0  0  0  0  0  0
  2  1  1  6
  2  3  1  0
  3  4  1  0
  4  8  1  0
  4  5  2  0
  6  7  2  0
  6  2  1  0
  9  6  1  0
 10 11  1  0
 10  9  1  0
 11 13  1  0
 12 11  2  0
 13 14  1  0
 14 15  1  0
 15 17  2  0
 15 16  1  0
M  END
$$$$
