DGG.pdb
     RDKit          3D

 17 16  0  0  1  0  0  0  0  0999 V2000
   25.7348  -20.0297  -17.2156 N   0  0  0  0  0  0  0  0  0  0  0  0
   26.0021  -18.7028  -16.7246 C   0  0  1  0  0  0  0  0  0  0  0  0
   24.7288  -17.9571  -16.3801 C   0  0  0  0  0  0  0  0  0  0  0  0
   23.8737  -17.7452  -17.5562 C   0  0  0  0  0  0  0  0  0  0  0  0
   23.0937  -18.6576  -17.9157 O   0  0  0  0  0  0  0  0  0  0  0  0
   26.9259  -18.7597  -15.5637 C   0  0  0  0  0  0  0  0  0  0  0  0
   27.3195  -17.6837  -15.0271 O   0  0  0  0  0  0  0  0  0  0  0  0
   23.9106  -16.5732  -18.2673 O   0  0  0  0  0  0  0  0  0  0  0  0
   27.3937  -19.9702  -15.0207 N   0  0  0  0  0  0  0  0  0  0  0  0
   28.2484  -20.0428  -13.8519 C   0  0  0  0  0  0  0  0  0  0  0  0
   27.4893  -20.4679  -12.6528 C   0  0  0  0  0  0  0  0  0  0  0  0
   28.1341  -20.8327  -11.6429 O   0  0  0  0  0  0  0  0  0  0  0  0
   26.0757  -20.4685  -12.6305 N   0  0  0  0  0  0  0  0  0  0  0  0
   25.4015  -21.1761  -11.5585 C   0  0  0  0  0  0  0  0  0  0  0  0
   24.0163  -21.5028  -11.9292 C   0  0  0  0  0  0  0  0  0  0  0  0
   22.9677  -20.9241  -11.2413 O   0  0  0  0  0  0  0  0  0  0  0  0
   23.7769  -22.2975  -12.8591 O   0  0  0  0  0  0  0  0  0  0  0  0
  2  1  1  1
  2  3  1  0
  3  4  1  0
  4  8  1  0
  4  5  2  0
  6  7  2  0
  6  2  1  0
  9  6  1  0
 10 11  1  0
 10  9  1  0
 11 13  1  0
 12 11  2  0
 13 14  1  0
 14 15  1  0
 15 17  2  0
 15 16  1  0
M  END
$$$$
