DGG.pdb
     RDKit          3D

 17 16  0  0  1  0  0  0  0  0999 V2000
   19.3776  -10.1681  -14.8775 N   0  0  0  0  0  0  0  0  0  0  0  0
   20.2118  -10.9787  -15.7262 C   0  0  1  0  0  0  0  0  0  0  0  0
   19.4635  -11.4841  -16.9430 C   0  0  0  0  0  0  0  0  0  0  0  0
   18.3513  -12.3738  -16.5813 C   0  0  0  0  0  0  0  0  0  0  0  0
   18.3145  -12.8675  -15.4302 O   0  0  0  0  0  0  0  0  0  0  0  0
   21.4328  -10.2293  -16.1155 C   0  0  0  0  0  0  0  0  0  0  0  0
   22.2429  -10.7430  -16.9404 O   0  0  0  0  0  0  0  0  0  0  0  0
   17.3549  -12.6750  -17.4743 O   0  0  0  0  0  0  0  0  0  0  0  0
   21.7401   -8.9550  -15.6048 N   0  0  0  0  0  0  0  0  0  0  0  0
   22.8421   -8.1463  -16.0879 C   0  0  0  0  0  0  0  0  0  0  0  0
   22.9220   -6.8550  -15.3663 C   0  0  0  0  0  0  0  0  0  0  0  0
   23.7703   -6.0158  -15.7469 O   0  0  0  0  0  0  0  0  0  0  0  0
   22.0723   -6.5601  -14.2754 N   0  0  0  0  0  0  0  0  0  0  0  0
   22.1837   -5.2587  -13.6444 C   0  0  0  0  0  0  0  0  0  0  0  0
   21.3151   -4.2736  -14.3061 C   0  0  0  0  0  0  0  0  0  0  0  0
   21.1507   -3.0205  -13.7489 O   0  0  0  0  0  0  0  0  0  0  0  0
   20.7241   -4.5568  -15.3663 O   0  0  0  0  0  0  0  0  0  0  0  0
  2  1  1  6
  2  3  1  0
  3  4  1  0
  4  8  1  0
  4  5  2  0
  6  7  2  0
  6  2  1  0
  9  6  1  0
 10 11  1  0
 10  9  1  0
 11 13  1  0
 12 11  2  0
 13 14  1  0
 14 15  1  0
 15 17  2  0
 15 16  1  0
M  END
$$$$
