DGG.pdb
     RDKit          3D

 17 16  0  0  1  0  0  0  0  0999 V2000
   19.0365  -11.4259  -16.3536 N   0  0  0  0  0  0  0  0  0  0  0  0
   19.1376   -9.9938  -16.2436 C   0  0  1  0  0  0  0  0  0  0  0  0
   17.7817   -9.3212  -16.3152 C   0  0  0  0  0  0  0  0  0  0  0  0
   17.0878   -9.6032  -17.5795 C   0  0  0  0  0  0  0  0  0  0  0  0
   17.6200  -10.3783  -18.4078 O   0  0  0  0  0  0  0  0  0  0  0  0
   19.8599   -9.6226  -15.0007 C   0  0  0  0  0  0  0  0  0  0  0  0
   19.8989  -10.4391  -14.0351 O   0  0  0  0  0  0  0  0  0  0  0  0
   15.8731   -9.0378  -17.8718 O   0  0  0  0  0  0  0  0  0  0  0  0
   20.5145   -8.3879  -14.8395 N   0  0  0  0  0  0  0  0  0  0  0  0
   21.2901   -8.0435  -13.6640 C   0  0  0  0  0  0  0  0  0  0  0  0
   21.7554   -6.6380  -13.7163 C   0  0  0  0  0  0  0  0  0  0  0  0
   22.3476   -6.1731  -12.7152 O   0  0  0  0  0  0  0  0  0  0  0  0
   21.5458   -5.8281  -14.8561 N   0  0  0  0  0  0  0  0  0  0  0  0
   22.0454   -4.4664  -14.8380 C   0  0  0  0  0  0  0  0  0  0  0  0
   21.0747   -3.5547  -14.2141 C   0  0  0  0  0  0  0  0  0  0  0  0
   21.3008   -2.1924  -14.2366 O   0  0  0  0  0  0  0  0  0  0  0  0
   20.0479   -3.9980  -13.6639 O   0  0  0  0  0  0  0  0  0  0  0  0
  2  1  1  1
  2  3  1  0
  3  4  1  0
  4  8  1  0
  4  5  2  0
  6  7  2  0
  6  2  1  0
  9  6  1  0
 10 11  1  0
 10  9  1  0
 11 13  1  0
 12 11  2  0
 13 14  1  0
 14 15  1  0
 15 17  2  0
 15 16  1  0
M  END
$$$$
