DGG.pdb
     RDKit          3D

 17 16  0  0  1  0  0  0  0  0999 V2000
   22.3682  -21.0964  -13.0921 N   0  0  0  0  0  0  0  0  0  0  0  0
   22.6179  -20.8319  -14.4853 C   0  0  1  0  0  0  0  0  0  0  0  0
   21.4264  -20.1869  -15.1637 C   0  0  0  0  0  0  0  0  0  0  0  0
   20.2191  -21.0201  -15.0762 C   0  0  0  0  0  0  0  0  0  0  0  0
   19.4574  -20.8888  -14.0900 O   0  0  0  0  0  0  0  0  0  0  0  0
   23.8413  -20.0053  -14.6412 C   0  0  0  0  0  0  0  0  0  0  0  0
   23.8682  -19.0906  -15.5148 O   0  0  0  0  0  0  0  0  0  0  0  0
   19.9087  -21.9363  -16.0483 O   0  0  0  0  0  0  0  0  0  0  0  0
   24.9919  -20.1908  -13.8534 N   0  0  0  0  0  0  0  0  0  0  0  0
   26.1675  -19.3475  -13.9470 C   0  0  0  0  0  0  0  0  0  0  0  0
   27.1204  -19.8592  -14.9592 C   0  0  0  0  0  0  0  0  0  0  0  0
   27.6909  -20.9517  -14.7360 O   0  0  0  0  0  0  0  0  0  0  0  0
   27.3914  -19.1479  -16.1507 N   0  0  0  0  0  0  0  0  0  0  0  0
   28.3456  -19.7082  -17.0887 C   0  0  0  0  0  0  0  0  0  0  0  0
   28.5050  -18.8390  -18.2642 C   0  0  0  0  0  0  0  0  0  0  0  0
   29.5254  -19.0813  -19.1629 O   0  0  0  0  0  0  0  0  0  0  0  0
   27.7284  -17.8838  -18.4594 O   0  0  0  0  0  0  0  0  0  0  0  0
  2  1  1  1
  2  3  1  0
  3  4  1  0
  4  8  1  0
  4  5  2  0
  6  7  2  0
  6  2  1  0
  9  6  1  0
 10 11  1  0
 10  9  1  0
 11 13  1  0
 12 11  2  0
 13 14  1  0
 14 15  1  0
 15 17  2  0
 15 16  1  0
M  END
$$$$
