DGG.pdb
     RDKit          3D

 17 16  0  0  1  0  0  0  0  0999 V2000
   16.5765  -10.9128  -15.9159 N   0  0  0  0  0  0  0  0  0  0  0  0
   17.6954  -11.3189  -15.1058 C   0  0  1  0  0  0  0  0  0  0  0  0
   17.9365  -12.8131  -15.1776 C   0  0  0  0  0  0  0  0  0  0  0  0
   16.8442  -13.5821  -14.5653 C   0  0  0  0  0  0  0  0  0  0  0  0
   16.6406  -13.4778  -13.3334 O   0  0  0  0  0  0  0  0  0  0  0  0
   18.9109  -10.5565  -15.4872 C   0  0  0  0  0  0  0  0  0  0  0  0
   19.9895  -10.7452  -14.8533 O   0  0  0  0  0  0  0  0  0  0  0  0
   16.0445  -14.4097  -15.3112 O   0  0  0  0  0  0  0  0  0  0  0  0
   18.9246   -9.6188  -16.5358 N   0  0  0  0  0  0  0  0  0  0  0  0
   20.0687   -8.7836  -16.8445 C   0  0  0  0  0  0  0  0  0  0  0  0
   20.1690   -7.6378  -15.9110 C   0  0  0  0  0  0  0  0  0  0  0  0
   19.1125   -7.1876  -15.4110 O   0  0  0  0  0  0  0  0  0  0  0  0
   21.4143   -7.0551  -15.5814 N   0  0  0  0  0  0  0  0  0  0  0  0
   21.4242   -5.8782  -14.7334 C   0  0  0  0  0  0  0  0  0  0  0  0
   21.9420   -6.1954  -13.3940 C   0  0  0  0  0  0  0  0  0  0  0  0
   22.2352   -5.1735  -12.5124 O   0  0  0  0  0  0  0  0  0  0  0  0
   22.1198   -7.3785  -13.0442 O   0  0  0  0  0  0  0  0  0  0  0  0
  2  1  1  6
  2  3  1  0
  3  4  1  0
  4  8  1  0
  4  5  2  0
  6  7  2  0
  6  2  1  0
  9  6  1  0
 10 11  1  0
 10  9  1  0
 11 13  1  0
 12 11  2  0
 13 14  1  0
 14 15  1  0
 15 17  2  0
 15 16  1  0
M  END
$$$$
