DGG.pdb
     RDKit          3D

 17 16  0  0  1  0  0  0  0  0999 V2000
   18.1914  -10.5837  -15.1396 N   0  0  0  0  0  0  0  0  0  0  0  0
   19.2962  -11.4690  -15.4022 C   0  0  1  0  0  0  0  0  0  0  0  0
   19.1582  -12.1688  -16.7391 C   0  0  0  0  0  0  0  0  0  0  0  0
   17.9671  -13.0275  -16.7963 C   0  0  0  0  0  0  0  0  0  0  0  0
   17.5579  -13.5739  -15.7456 O   0  0  0  0  0  0  0  0  0  0  0  0
   20.5810  -10.7309  -15.3086 C   0  0  0  0  0  0  0  0  0  0  0  0
   21.6396  -11.2641  -15.7510 O   0  0  0  0  0  0  0  0  0  0  0  0
   17.2952  -13.2435  -17.9721 O   0  0  0  0  0  0  0  0  0  0  0  0
   20.6828   -9.4468  -14.7433 N   0  0  0  0  0  0  0  0  0  0  0  0
   21.9054   -8.6677  -14.7478 C   0  0  0  0  0  0  0  0  0  0  0  0
   21.7278   -7.3793  -14.0385 C   0  0  0  0  0  0  0  0  0  0  0  0
   21.3973   -7.4093  -12.8308 O   0  0  0  0  0  0  0  0  0  0  0  0
   21.9217   -6.1397  -14.6904 N   0  0  0  0  0  0  0  0  0  0  0  0
   21.7750   -4.9214  -13.9169 C   0  0  0  0  0  0  0  0  0  0  0  0
   21.8267   -3.7346  -14.7839 C   0  0  0  0  0  0  0  0  0  0  0  0
   21.6194   -2.4807  -14.2432 O   0  0  0  0  0  0  0  0  0  0  0  0
   22.0560   -3.8473  -16.0039 O   0  0  0  0  0  0  0  0  0  0  0  0
  2  1  1  6
  2  3  1  0
  3  4  1  0
  4  8  1  0
  4  5  2  0
  6  7  2  0
  6  2  1  0
  9  6  1  0
 10 11  1  0
 10  9  1  0
 11 13  1  0
 12 11  2  0
 13 14  1  0
 14 15  1  0
 15 17  2  0
 15 16  1  0
M  END
$$$$
