EMI.pdb
     RDKit          3D

 26 25  0  0  1  0  0  0  0  0999 V2000
   16.0349  -12.4644  -11.5810 N   0  0  0  0  0  0  0  0  0  0  0  0
   16.0993  -11.1770  -12.2466 C   0  0  1  0  0  0  0  0  0  0  0  0
   14.8251  -10.9729  -12.9845 C   0  0  0  0  0  0  0  0  0  0  0  0
   13.6711  -11.8053  -12.5354 C   0  0  0  0  0  0  0  0  0  0  0  0
   12.4974  -11.5254  -13.3946 C   0  0  0  0  0  0  0  0  0  0  0  0
   12.5930  -10.7250  -14.3513 O   0  0  0  0  0  0  0  0  0  0  0  0
   16.5180  -10.0968  -11.3570 C   0  0  0  0  0  0  0  0  0  0  0  0
   16.3591  -10.1650  -10.1130 O   0  0  0  0  0  0  0  0  0  0  0  0
   11.2802  -12.1379  -13.1595 O   0  0  0  0  0  0  0  0  0  0  0  0
   22.7562   -8.8011  -12.4861 C   0  0  0  0  0  0  0  0  0  0  0  0
   21.5570   -7.5126  -12.0103 S   0  0  0  0  0  0  0  0  0  0  0  0
   19.9645   -8.2806  -11.6304 C   0  0  0  0  0  0  0  0  0  0  0  0
   18.8871   -7.2150  -11.4119 C   0  0  0  0  0  0  0  0  0  0  0  0
   17.6093   -7.8662  -10.9330 C   0  0  2  0  0  0  0  0  0  0  0  0
   17.1390   -8.8817  -11.8304 N   0  0  0  0  0  0  0  0  0  0  0  0
   16.5908   -6.7973  -10.8365 C   0  0  0  0  0  0  0  0  0  0  0  0
   15.8991   -6.4104  -11.8107 O   0  0  0  0  0  0  0  0  0  0  0  0
   12.4720   -5.6711   -6.7259 C   0  0  0  0  0  0  0  0  0  0  0  0
   13.3182   -5.0152   -7.7489 C   0  0  0  0  0  0  0  0  0  0  0  0
   14.4328   -5.7754   -8.3373 C   0  0  2  0  0  0  0  0  0  0  0  0
   15.2767   -6.3239   -7.1687 C   0  0  0  0  0  0  0  0  0  0  0  0
   15.2854   -5.1832   -9.3858 C   0  0  2  0  0  0  0  0  0  0  0  0
   16.3749   -6.1700   -9.5864 N   0  0  0  0  0  0  0  0  0  0  0  0
   15.9279   -3.9092   -9.1777 C   0  0  0  0  0  0  0  0  0  0  0  0
   15.3049   -2.8254   -9.1659 O   0  0  0  0  0  0  0  0  0  0  0  0
   17.3174   -3.7804   -8.9694 O   0  0  0  0  0  0  0  0  0  0  0  0
  2  7  1  0
  2  1  1  1
  3  2  1  0
  4  3  1  0
  5  9  1  0
  5  4  1  0
  6  5  2  0
  7  8  2  0
 10 11  1  0
 11 12  1  0
 13 12  1  0
 14 13  1  6
 15 14  1  0
 15  7  1  0
 16 17  2  0
 16 14  1  0
 19 18  1  0
 19 20  1  0
 20 22  1  0
 20 21  1  1
 22 24  1  0
 22 23  1  1
 23 16  1  0
 24 26  1  0
 25 24  2  0
M  END
$$$$
