EMI.pdb
     RDKit          3D

 26 25  0  0  1  0  0  0  0  0999 V2000
   27.9294  -21.4156  -14.9678 N   0  0  0  0  0  0  0  0  0  0  0  0
   27.8018  -19.9947  -14.7045 C   0  0  1  0  0  0  0  0  0  0  0  0
   27.4649  -19.3153  -15.9831 C   0  0  0  0  0  0  0  0  0  0  0  0
   27.1284  -20.2107  -17.1282 C   0  0  0  0  0  0  0  0  0  0  0  0
   25.8553  -19.7681  -17.7427 C   0  0  0  0  0  0  0  0  0  0  0  0
   24.9944  -20.6091  -18.0844 O   0  0  0  0  0  0  0  0  0  0  0  0
   26.9380  -19.7027  -13.5635 C   0  0  0  0  0  0  0  0  0  0  0  0
   26.7432  -18.5277  -13.1647 O   0  0  0  0  0  0  0  0  0  0  0  0
   25.5930  -18.4266  -17.9503 O   0  0  0  0  0  0  0  0  0  0  0  0
   20.9393  -21.4277  -11.7409 C   0  0  0  0  0  0  0  0  0  0  0  0
   21.6071  -20.8431  -13.3336 S   0  0  0  0  0  0  0  0  0  0  0  0
   23.2925  -20.2328  -13.0941 C   0  0  0  0  0  0  0  0  0  0  0  0
   23.9735  -20.9628  -11.9333 C   0  0  0  0  0  0  0  0  0  0  0  0
   25.3669  -20.4133  -11.7269 C   0  0  2  0  0  0  0  0  0  0  0  0
   26.2491  -20.7271  -12.8137 N   0  0  0  0  0  0  0  0  0  0  0  0
   25.8921  -21.0250  -10.4863 C   0  0  0  0  0  0  0  0  0  0  0  0
   26.3581  -22.1901  -10.4327 O   0  0  0  0  0  0  0  0  0  0  0  0
   28.8617  -19.2481   -5.5901 C   0  0  0  0  0  0  0  0  0  0  0  0
   27.9346  -20.2523   -6.1602 C   0  0  0  0  0  0  0  0  0  0  0  0
   27.2042  -19.9195   -7.3940 C   0  0  2  0  0  0  0  0  0  0  0  0
   26.5741  -18.5270   -7.1884 C   0  0  0  0  0  0  0  0  0  0  0  0
   26.2378  -20.8664   -7.9825 C   0  0  2  0  0  0  0  0  0  0  0  0
   25.8742  -20.2683   -9.2906 N   0  0  0  0  0  0  0  0  0  0  0  0
   24.9946  -21.1587   -7.3128 C   0  0  0  0  0  0  0  0  0  0  0  0
   23.9066  -20.6349   -7.6365 O   0  0  0  0  0  0  0  0  0  0  0  0
   24.9034  -22.0629   -6.2337 O   0  0  0  0  0  0  0  0  0  0  0  0
  2  7  1  0
  2  1  1  6
  3  2  1  0
  4  3  1  0
  5  9  1  0
  5  4  1  0
  6  5  2  0
  7  8  2  0
 10 11  1  0
 11 12  1  0
 13 12  1  0
 14 13  1  6
 15 14  1  0
 15  7  1  0
 16 17  2  0
 16 14  1  0
 19 18  1  0
 19 20  1  0
 20 22  1  0
 20 21  1  1
 22 24  1  0
 22 23  1  6
 23 16  1  0
 24 26  1  0
 25 24  2  0
M  END
$$$$
