EMI.pdb
     RDKit          3D

 26 25  0  0  1  0  0  0  0  0999 V2000
   26.7819  -18.2825  -15.9085 N   0  0  0  0  0  0  0  0  0  0  0  0
   26.0537  -19.4116  -16.4558 C   0  0  1  0  0  0  0  0  0  0  0  0
   26.6886  -19.7909  -17.7453 C   0  0  0  0  0  0  0  0  0  0  0  0
   28.1736  -19.6589  -17.8047 C   0  0  0  0  0  0  0  0  0  0  0  0
   28.7875  -21.0066  -17.8356 C   0  0  0  0  0  0  0  0  0  0  0  0
   29.6389  -21.3313  -16.9783 O   0  0  0  0  0  0  0  0  0  0  0  0
   25.8558  -20.4854  -15.4856 C   0  0  0  0  0  0  0  0  0  0  0  0
   25.3404  -21.5838  -15.8103 O   0  0  0  0  0  0  0  0  0  0  0  0
   28.4358  -21.9276  -18.8050 O   0  0  0  0  0  0  0  0  0  0  0  0
   26.3278  -19.7229   -8.6130 C   0  0  0  0  0  0  0  0  0  0  0  0
   26.1403  -21.4907   -9.0180 S   0  0  0  0  0  0  0  0  0  0  0  0
   25.3712  -21.6589  -10.6461 C   0  0  0  0  0  0  0  0  0  0  0  0
   26.1262  -20.8321  -11.6903 C   0  0  0  0  0  0  0  0  0  0  0  0
   25.4934  -21.0199  -13.0506 C   0  0  2  0  0  0  0  0  0  0  0  0
   26.2316  -20.3712  -14.0957 N   0  0  0  0  0  0  0  0  0  0  0  0
   24.1376  -20.4317  -12.9801 C   0  0  0  0  0  0  0  0  0  0  0  0
   23.9189  -19.1949  -12.9794 O   0  0  0  0  0  0  0  0  0  0  0  0
   19.8050  -19.9779  -16.3086 C   0  0  0  0  0  0  0  0  0  0  0  0
   20.0338  -20.1262  -14.8530 C   0  0  0  0  0  0  0  0  0  0  0  0
   21.3068  -20.7045  -14.3930 C   0  0  2  0  0  0  0  0  0  0  0  0
   21.4568  -22.0778  -15.0786 C   0  0  0  0  0  0  0  0  0  0  0  0
   21.6295  -20.7821  -12.9555 C   0  0  2  0  0  0  0  0  0  0  0  0
   23.0201  -21.2970  -12.9094 N   0  0  0  0  0  0  0  0  0  0  0  0
   20.8583  -21.6228  -12.0736 C   0  0  0  0  0  0  0  0  0  0  0  0
   21.1360  -22.8230  -11.8604 O   0  0  0  0  0  0  0  0  0  0  0  0
   19.7231  -21.1586  -11.3761 O   0  0  0  0  0  0  0  0  0  0  0  0
  2  7  1  0
  2  1  1  1
  3  2  1  0
  4  3  1  0
  5  9  1  0
  5  4  1  0
  6  5  2  0
  7  8  2  0
 10 11  1  0
 11 12  1  0
 13 12  1  0
 14 13  1  1
 15 14  1  0
 15  7  1  0
 16 17  2  0
 16 14  1  0
 19 18  1  0
 19 20  1  0
 20 22  1  0
 20 21  1  1
 22 24  1  0
 22 23  1  6
 23 16  1  0
 24 26  1  0
 25 24  2  0
M  END
$$$$
