EMI.pdb
     RDKit          3D

 26 25  0  0  1  0  0  0  0  0999 V2000
   28.5815  -21.2046  -16.2178 N   0  0  0  0  0  0  0  0  0  0  0  0
   28.0576  -20.2268  -15.2831 C   0  0  1  0  0  0  0  0  0  0  0  0
   27.5638  -19.0605  -16.0613 C   0  0  0  0  0  0  0  0  0  0  0  0
   28.5982  -18.2959  -16.8174 C   0  0  0  0  0  0  0  0  0  0  0  0
   28.2919  -18.3514  -18.2655 C   0  0  0  0  0  0  0  0  0  0  0  0
   27.3032  -17.7376  -18.7248 O   0  0  0  0  0  0  0  0  0  0  0  0
   27.1293  -20.8052  -14.3151 C   0  0  0  0  0  0  0  0  0  0  0  0
   26.3276  -21.7188  -14.6315 O   0  0  0  0  0  0  0  0  0  0  0  0
   29.0859  -19.0771  -19.1343 O   0  0  0  0  0  0  0  0  0  0  0  0
   27.2830  -19.8844   -7.7705 C   0  0  0  0  0  0  0  0  0  0  0  0
   25.6471  -20.6718   -7.9386 S   0  0  0  0  0  0  0  0  0  0  0  0
   25.4219  -21.2383   -9.6412 C   0  0  0  0  0  0  0  0  0  0  0  0
   26.3523  -20.4807  -10.5922 C   0  0  0  0  0  0  0  0  0  0  0  0
   26.1074  -20.9276  -12.0157 C   0  0  2  0  0  0  0  0  0  0  0  0
   27.0602  -20.3786  -12.9369 N   0  0  0  0  0  0  0  0  0  0  0  0
   24.7530  -20.4616  -12.3867 C   0  0  0  0  0  0  0  0  0  0  0  0
   24.4602  -19.2525  -12.5593 O   0  0  0  0  0  0  0  0  0  0  0  0
   21.1761  -22.6371  -16.5211 C   0  0  0  0  0  0  0  0  0  0  0  0
   21.1752  -21.8255  -15.2824 C   0  0  0  0  0  0  0  0  0  0  0  0
   22.3444  -21.8952  -14.3911 C   0  0  2  0  0  0  0  0  0  0  0  0
   22.5835  -23.3845  -14.0697 C   0  0  0  0  0  0  0  0  0  0  0  0
   22.4227  -21.0627  -13.1755 C   0  0  2  0  0  0  0  0  0  0  0  0
   23.7246  -21.4183  -12.5593 N   0  0  0  0  0  0  0  0  0  0  0  0
   21.4346  -21.1898  -12.1330 C   0  0  0  0  0  0  0  0  0  0  0  0
   20.2567  -20.7900  -12.2579 O   0  0  0  0  0  0  0  0  0  0  0  0
   21.7167  -21.7778  -10.8819 O   0  0  0  0  0  0  0  0  0  0  0  0
  2  7  1  0
  2  1  1  6
  3  2  1  0
  4  3  1  0
  5  9  1  0
  5  4  1  0
  6  5  2  0
  7  8  2  0
 10 11  1  0
 11 12  1  0
 13 12  1  0
 14 13  1  1
 15 14  1  0
 15  7  1  0
 16 17  2  0
 16 14  1  0
 19 18  1  0
 19 20  1  0
 20 22  1  0
 20 21  1  1
 22 24  1  0
 22 23  1  1
 23 16  1  0
 24 26  1  0
 25 24  2  0
M  END
$$$$
