EMI.pdb
     RDKit          3D

 26 25  0  0  1  0  0  0  0  0999 V2000
   28.2435  -21.0913  -15.5195 N   0  0  0  0  0  0  0  0  0  0  0  0
   27.7006  -20.2090  -14.5040 C   0  0  1  0  0  0  0  0  0  0  0  0
   27.2713  -18.9494  -15.1665 C   0  0  0  0  0  0  0  0  0  0  0  0
   28.3327  -18.2087  -15.9089 C   0  0  0  0  0  0  0  0  0  0  0  0
   28.4799  -18.7859  -17.2651 C   0  0  0  0  0  0  0  0  0  0  0  0
   27.4905  -18.8670  -18.0265 O   0  0  0  0  0  0  0  0  0  0  0  0
   26.7149  -20.8645  -13.6484 C   0  0  0  0  0  0  0  0  0  0  0  0
   26.0040  -21.8128  -14.0644 O   0  0  0  0  0  0  0  0  0  0  0  0
   29.7044  -19.2439  -17.7154 O   0  0  0  0  0  0  0  0  0  0  0  0
   26.3345  -19.3892   -7.3629 C   0  0  0  0  0  0  0  0  0  0  0  0
   27.0394  -21.0324   -7.7198 S   0  0  0  0  0  0  0  0  0  0  0  0
   26.8197  -21.4158   -9.4734 C   0  0  0  0  0  0  0  0  0  0  0  0
   25.5574  -20.7443  -10.0210 C   0  0  0  0  0  0  0  0  0  0  0  0
   25.4163  -21.0409  -11.4969 C   0  0  2  0  0  0  0  0  0  0  0  0
   26.4825  -20.4800  -12.2757 N   0  0  0  0  0  0  0  0  0  0  0  0
   24.1339  -20.4471  -11.9351 C   0  0  0  0  0  0  0  0  0  0  0  0
   23.9714  -19.2170  -12.1295 O   0  0  0  0  0  0  0  0  0  0  0  0
   20.6798  -21.4926  -16.4094 C   0  0  0  0  0  0  0  0  0  0  0  0
   20.6423  -20.9582  -15.0289 C   0  0  0  0  0  0  0  0  0  0  0  0
   21.7426  -21.2943  -14.1108 C   0  0  2  0  0  0  0  0  0  0  0  0
   21.9243  -22.8250  -14.1594 C   0  0  0  0  0  0  0  0  0  0  0  0
   21.7521  -20.7946  -12.7227 C   0  0  2  0  0  0  0  0  0  0  0  0
   23.0244  -21.2989  -12.1501 N   0  0  0  0  0  0  0  0  0  0  0  0
   20.7140  -21.1758  -11.7974 C   0  0  0  0  0  0  0  0  0  0  0  0
   20.8409  -22.1119  -10.9785 O   0  0  0  0  0  0  0  0  0  0  0  0
   19.4653  -20.5215  -11.7396 O   0  0  0  0  0  0  0  0  0  0  0  0
  2  7  1  0
  2  1  1  6
  3  2  1  0
  4  3  1  0
  5  9  1  0
  5  4  1  0
  6  5  2  0
  7  8  2  0
 10 11  1  0
 11 12  1  0
 13 12  1  0
 14 13  1  1
 15 14  1  0
 15  7  1  0
 16 17  2  0
 16 14  1  0
 19 18  1  0
 19 20  1  0
 20 22  1  0
 20 21  1  1
 22 24  1  0
 22 23  1  1
 23 16  1  0
 24 26  1  0
 25 24  2  0
M  END
$$$$
