EMI.pdb
     RDKit          3D

 26 25  0  0  1  0  0  0  0  0999 V2000
   26.4555  -22.2434  -13.9420 N   0  0  0  0  0  0  0  0  0  0  0  0
   25.6473  -21.3031  -13.1889 C   0  0  1  0  0  0  0  0  0  0  0  0
   24.2572  -21.3644  -13.7121 C   0  0  0  0  0  0  0  0  0  0  0  0
   23.7428  -20.1147  -14.3443 C   0  0  0  0  0  0  0  0  0  0  0  0
   24.3962  -19.9224  -15.6596 C   0  0  0  0  0  0  0  0  0  0  0  0
   25.2185  -18.9942  -15.8254 O   0  0  0  0  0  0  0  0  0  0  0  0
   25.8071  -21.4449  -11.7440 C   0  0  0  0  0  0  0  0  0  0  0  0
   25.7346  -22.5633  -11.1769 O   0  0  0  0  0  0  0  0  0  0  0  0
   24.1137  -20.7581  -16.7244 O   0  0  0  0  0  0  0  0  0  0  0  0
   29.8497  -18.9601   -6.4832 C   0  0  0  0  0  0  0  0  0  0  0  0
   28.1302  -18.3551   -6.5235 S   0  0  0  0  0  0  0  0  0  0  0  0
   27.0694  -19.6017   -7.2922 C   0  0  0  0  0  0  0  0  0  0  0  0
   26.9402  -19.3502   -8.7969 C   0  0  0  0  0  0  0  0  0  0  0  0
   26.1805  -20.4858   -9.4447 C   0  0  2  0  0  0  0  0  0  0  0  0
   26.0575  -20.3265  -10.8650 N   0  0  0  0  0  0  0  0  0  0  0  0
   24.8295  -20.4998   -8.8414 C   0  0  0  0  0  0  0  0  0  0  0  0
   23.8446  -19.8972   -9.3355 O   0  0  0  0  0  0  0  0  0  0  0  0
   24.4509  -22.8967   -3.6247 C   0  0  0  0  0  0  0  0  0  0  0  0
   24.3869  -21.9462   -4.7584 C   0  0  0  0  0  0  0  0  0  0  0  0
   23.4703  -22.2363   -5.8730 C   0  0  2  0  0  0  0  0  0  0  0  0
   23.8202  -23.6446   -6.3952 C   0  0  0  0  0  0  0  0  0  0  0  0
   23.2968  -21.2786   -6.9817 C   0  0  2  0  0  0  0  0  0  0  0  0
   24.6229  -21.2268   -7.6449 N   0  0  0  0  0  0  0  0  0  0  0  0
   22.9230  -19.9108   -6.7196 C   0  0  0  0  0  0  0  0  0  0  0  0
   23.7255  -18.9562   -6.8066 O   0  0  0  0  0  0  0  0  0  0  0  0
   21.6162  -19.5359   -6.3419 O   0  0  0  0  0  0  0  0  0  0  0  0
  2  7  1  0
  2  1  1  6
  3  2  1  0
  4  3  1  0
  5  9  1  0
  5  4  1  0
  6  5  2  0
  7  8  2  0
 10 11  1  0
 11 12  1  0
 13 12  1  0
 14 13  1  1
 15 14  1  0
 15  7  1  0
 16 17  2  0
 16 14  1  0
 19 18  1  0
 19 20  1  0
 20 22  1  0
 20 21  1  6
 22 24  1  0
 22 23  1  1
 23 16  1  0
 24 26  1  0
 25 24  2  0
M  END
$$$$
