EMI.pdb
     RDKit          3D

 26 25  0  0  1  0  0  0  0  0999 V2000
   22.0976  -15.1403  -17.4541 N   0  0  0  0  0  0  0  0  0  0  0  0
   21.8975  -13.7656  -17.8719 C   0  0  1  0  0  0  0  0  0  0  0  0
   20.4691  -13.5993  -18.2485 C   0  0  0  0  0  0  0  0  0  0  0  0
   19.4852  -14.3630  -17.4271 C   0  0  0  0  0  0  0  0  0  0  0  0
   18.6193  -13.4155  -16.6878 C   0  0  0  0  0  0  0  0  0  0  0  0
   18.9965  -12.9382  -15.5946 O   0  0  0  0  0  0  0  0  0  0  0  0
   22.4383  -12.7974  -16.9214 C   0  0  0  0  0  0  0  0  0  0  0  0
   23.0813  -13.1570  -15.9042 O   0  0  0  0  0  0  0  0  0  0  0  0
   17.3850  -13.0410  -17.1860 O   0  0  0  0  0  0  0  0  0  0  0  0
   27.7600  -12.7902  -14.9880 C   0  0  0  0  0  0  0  0  0  0  0  0
   26.9454  -11.6049  -16.1088 S   0  0  0  0  0  0  0  0  0  0  0  0
   25.1928  -11.4772  -15.6821 C   0  0  0  0  0  0  0  0  0  0  0  0
   24.4925  -10.4450  -16.5700 C   0  0  0  0  0  0  0  0  0  0  0  0
   23.0102  -10.4314  -16.2719 C   0  0  2  0  0  0  0  0  0  0  0  0
   22.2788  -11.3699  -17.0733 N   0  0  0  0  0  0  0  0  0  0  0  0
   22.5244   -9.0648  -16.5641 C   0  0  0  0  0  0  0  0  0  0  0  0
   22.5004   -8.5708  -17.7186 O   0  0  0  0  0  0  0  0  0  0  0  0
   17.7485   -6.6903  -17.1153 C   0  0  0  0  0  0  0  0  0  0  0  0
   19.0793   -6.2757  -16.6152 C   0  0  0  0  0  0  0  0  0  0  0  0
   20.0460   -7.3172  -16.2315 C   0  0  2  0  0  0  0  0  0  0  0  0
   19.3220   -8.2763  -15.2649 C   0  0  0  0  0  0  0  0  0  0  0  0
   21.3875   -6.9603  -15.7318 C   0  0  2  0  0  0  0  0  0  0  0  0
   22.0594   -8.2618  -15.4956 N   0  0  0  0  0  0  0  0  0  0  0  0
   21.5406   -6.2005  -14.5158 C   0  0  0  0  0  0  0  0  0  0  0  0
   21.6796   -6.7321  -13.3929 O   0  0  0  0  0  0  0  0  0  0  0  0
   21.5462   -4.7898  -14.4931 O   0  0  0  0  0  0  0  0  0  0  0  0
  2  7  1  0
  2  1  1  1
  3  2  1  0
  4  3  1  0
  5  9  1  0
  5  4  1  0
  6  5  2  0
  7  8  2  0
 10 11  1  0
 11 12  1  0
 13 12  1  0
 14 13  1  6
 15 14  1  0
 15  7  1  0
 16 17  2  0
 16 14  1  0
 19 18  1  0
 19 20  1  0
 20 22  1  0
 20 21  1  1
 22 24  1  0
 22 23  1  1
 23 16  1  0
 24 26  1  0
 25 24  2  0
M  END
$$$$
