EMI.pdb
     RDKit          3D

 26 25  0  0  1  0  0  0  0  0999 V2000
   14.8145  -22.3323    1.5004 N   0  0  0  0  0  0  0  0  0  0  0  0
   15.3643  -21.9608    2.7904 C   0  0  1  0  0  0  0  0  0  0  0  0
   16.7298  -22.5390    2.8957 C   0  0  0  0  0  0  0  0  0  0  0  0
   16.8083  -24.0290    2.8997 C   0  0  0  0  0  0  0  0  0  0  0  0
   16.6344  -24.5282    4.2834 C   0  0  0  0  0  0  0  0  0  0  0  0
   16.7346  -25.7506    4.5298 O   0  0  0  0  0  0  0  0  0  0  0  0
   15.2368  -20.5336    3.0737 C   0  0  0  0  0  0  0  0  0  0  0  0
   15.1134  -19.6853    2.1558 O   0  0  0  0  0  0  0  0  0  0  0  0
   16.3596  -23.6607    5.3244 O   0  0  0  0  0  0  0  0  0  0  0  0
   12.1668  -17.6795    8.2683 C   0  0  0  0  0  0  0  0  0  0  0  0
   13.5354  -16.5313    7.9035 S   0  0  0  0  0  0  0  0  0  0  0  0
   14.1719  -16.8590    6.2428 C   0  0  0  0  0  0  0  0  0  0  0  0
   14.4521  -18.3524    6.0546 C   0  0  0  0  0  0  0  0  0  0  0  0
   15.0145  -18.6000    4.6731 C   0  0  2  0  0  0  0  0  0  0  0  0
   15.2426  -19.9921    4.4127 N   0  0  0  0  0  0  0  0  0  0  0  0
   16.3030  -17.8767    4.5963 C   0  0  0  0  0  0  0  0  0  0  0  0
   17.3732  -18.3156    5.0855 O   0  0  0  0  0  0  0  0  0  0  0  0
   18.9528  -17.5954    0.5908 C   0  0  0  0  0  0  0  0  0  0  0  0
   18.5776  -17.3965    2.0095 C   0  0  0  0  0  0  0  0  0  0  0  0
   18.0483  -16.0869    2.4236 C   0  0  2  0  0  0  0  0  0  0  0  0
   19.0652  -15.0205    1.9686 C   0  0  0  0  0  0  0  0  0  0  0  0
   17.6056  -15.8517    3.8112 C   0  0  2  0  0  0  0  0  0  0  0  0
   16.3453  -16.6237    3.9398 N   0  0  0  0  0  0  0  0  0  0  0  0
   17.3107  -14.5177    4.2722 C   0  0  0  0  0  0  0  0  0  0  0  0
   18.1783  -13.7533    4.7475 O   0  0  0  0  0  0  0  0  0  0  0  0
   16.0142  -13.9632    4.2247 O   0  0  0  0  0  0  0  0  0  0  0  0
  2  7  1  0
  2  1  1  6
  3  2  1  0
  4  3  1  0
  5  9  1  0
  5  4  1  0
  6  5  2  0
  7  8  2  0
 10 11  1  0
 11 12  1  0
 13 12  1  0
 14 13  1  1
 15 14  1  0
 15  7  1  0
 16 17  2  0
 16 14  1  0
 19 18  1  0
 19 20  1  0
 20 22  1  0
 20 21  1  1
 22 24  1  0
 22 23  1  6
 23 16  1  0
 24 26  1  0
 25 24  2  0
M  END
$$$$
