EMI.pdb
     RDKit          3D

 26 25  0  0  1  0  0  0  0  0999 V2000
   15.4604  -20.6900    1.6450 N   0  0  0  0  0  0  0  0  0  0  0  0
   14.3900  -20.3676    2.5696 C   0  0  1  0  0  0  0  0  0  0  0  0
   13.4597  -21.5258    2.6231 C   0  0  0  0  0  0  0  0  0  0  0  0
   12.9433  -22.0084    1.3091 C   0  0  0  0  0  0  0  0  0  0  0  0
   13.9640  -22.8657    0.6630 C   0  0  0  0  0  0  0  0  0  0  0  0
   14.2271  -22.7259   -0.5521 O   0  0  0  0  0  0  0  0  0  0  0  0
   14.8774  -19.8630    3.8507 C   0  0  0  0  0  0  0  0  0  0  0  0
   14.0923  -19.5326    4.7737 O   0  0  0  0  0  0  0  0  0  0  0  0
   14.6427  -23.8313    1.3831 O   0  0  0  0  0  0  0  0  0  0  0  0
   20.9983  -22.6182    4.7820 C   0  0  0  0  0  0  0  0  0  0  0  0
   19.7539  -22.0181    5.9719 S   0  0  0  0  0  0  0  0  0  0  0  0
   18.7085  -20.7751    5.1767 C   0  0  0  0  0  0  0  0  0  0  0  0
   17.6040  -20.3068    6.1280 C   0  0  0  0  0  0  0  0  0  0  0  0
   16.7389  -19.2734    5.4425 C   0  0  2  0  0  0  0  0  0  0  0  0
   16.2809  -19.7060    4.1537 N   0  0  0  0  0  0  0  0  0  0  0  0
   17.5673  -18.0585    5.2780 C   0  0  0  0  0  0  0  0  0  0  0  0
   18.5199  -17.9753    4.4638 O   0  0  0  0  0  0  0  0  0  0  0  0
   17.6043  -13.9962    2.4739 C   0  0  0  0  0  0  0  0  0  0  0  0
   18.2540  -14.7140    3.5944 C   0  0  0  0  0  0  0  0  0  0  0  0
   17.4808  -14.9525    4.8239 C   0  0  2  0  0  0  0  0  0  0  0  0
   16.8907  -13.5963    5.2607 C   0  0  0  0  0  0  0  0  0  0  0  0
   18.0743  -15.6744    5.9656 C   0  0  2  0  0  0  0  0  0  0  0  0
   17.2816  -16.9237    6.0738 N   0  0  0  0  0  0  0  0  0  0  0  0
   18.0831  -15.0865    7.2823 C   0  0  0  0  0  0  0  0  0  0  0  0
   18.8381  -14.1429    7.6024 O   0  0  0  0  0  0  0  0  0  0  0  0
   17.2374  -15.5293    8.3212 O   0  0  0  0  0  0  0  0  0  0  0  0
  2  7  1  0
  2  1  1  6
  3  2  1  0
  4  3  1  0
  5  9  1  0
  5  4  1  0
  6  5  2  0
  7  8  2  0
 10 11  1  0
 11 12  1  0
 13 12  1  0
 14 13  1  6
 15 14  1  0
 15  7  1  0
 16 17  2  0
 16 14  1  0
 19 18  1  0
 19 20  1  0
 20 22  1  0
 20 21  1  1
 22 24  1  0
 22 23  1  1
 23 16  1  0
 24 26  1  0
 25 24  2  0
M  END
$$$$
