EMI.pdb
     RDKit          3D

 26 25  0  0  1  0  0  0  0  0999 V2000
   25.4663  -25.2119  -16.2978 N   0  0  0  0  0  0  0  0  0  0  0  0
   25.0682  -24.5729  -15.0577 C   0  0  1  0  0  0  0  0  0  0  0  0
   25.8881  -23.3449  -14.8857 C   0  0  0  0  0  0  0  0  0  0  0  0
   26.3098  -22.6610  -16.1429 C   0  0  0  0  0  0  0  0  0  0  0  0
   27.1517  -21.4891  -15.8082 C   0  0  0  0  0  0  0  0  0  0  0  0
   27.4044  -21.2150  -14.6140 O   0  0  0  0  0  0  0  0  0  0  0  0
   23.6213  -24.4130  -14.9388 C   0  0  0  0  0  0  0  0  0  0  0  0
   22.9073  -24.0982  -15.9230 O   0  0  0  0  0  0  0  0  0  0  0  0
   27.6723  -20.6793  -16.8006 O   0  0  0  0  0  0  0  0  0  0  0  0
   19.6446  -27.3876  -10.6797 C   0  0  0  0  0  0  0  0  0  0  0  0
   18.5825  -25.9836  -11.1544 S   0  0  0  0  0  0  0  0  0  0  0  0
   19.3428  -25.0896  -12.5303 C   0  0  0  0  0  0  0  0  0  0  0  0
   20.8652  -25.2498  -12.5057 C   0  0  0  0  0  0  0  0  0  0  0  0
   21.4883  -24.4108  -13.5983 C   0  0  2  0  0  0  0  0  0  0  0  0
   22.9067  -24.6014  -13.6978 N   0  0  0  0  0  0  0  0  0  0  0  0
   21.2133  -22.9958  -13.2649 C   0  0  0  0  0  0  0  0  0  0  0  0
   21.6894  -22.4170  -12.2570 O   0  0  0  0  0  0  0  0  0  0  0  0
   23.0614  -19.5665  -16.1982 C   0  0  0  0  0  0  0  0  0  0  0  0
   22.3572  -20.2694  -15.1015 C   0  0  0  0  0  0  0  0  0  0  0  0
   20.8945  -20.1386  -15.0026 C   0  0  2  0  0  0  0  0  0  0  0  0
   20.5652  -18.6344  -15.0889 C   0  0  0  0  0  0  0  0  0  0  0  0
   20.1462  -20.7919  -13.9118 C   0  0  2  0  0  0  0  0  0  0  0  0
   20.3713  -22.2437  -14.1182 N   0  0  0  0  0  0  0  0  0  0  0  0
   18.7198  -20.6177  -13.7921 C   0  0  0  0  0  0  0  0  0  0  0  0
   17.8955  -21.2428  -14.4939 O   0  0  0  0  0  0  0  0  0  0  0  0
   18.1349  -19.7244  -12.8698 O   0  0  0  0  0  0  0  0  0  0  0  0
  2  7  1  0
  2  1  1  6
  3  2  1  0
  4  3  1  0
  5  9  1  0
  5  4  1  0
  6  5  2  0
  7  8  2  0
 10 11  1  0
 11 12  1  0
 13 12  1  0
 14 13  1  1
 15 14  1  0
 15  7  1  0
 16 17  2  0
 16 14  1  0
 19 18  1  0
 19 20  1  0
 20 22  1  0
 20 21  1  1
 22 24  1  0
 22 23  1  6
 23 16  1  0
 24 26  1  0
 25 24  2  0
M  END
$$$$
