EMI.pdb
     RDKit          3D

 26 25  0  0  1  0  0  0  0  0999 V2000
   27.8355  -19.1120  -14.7137 N   0  0  0  0  0  0  0  0  0  0  0  0
   27.3350  -20.3880  -15.1889 C   0  0  1  0  0  0  0  0  0  0  0  0
   28.5005  -21.2372  -15.5499 C   0  0  0  0  0  0  0  0  0  0  0  0
   28.1790  -22.5930  -16.0834 C   0  0  0  0  0  0  0  0  0  0  0  0
   29.4368  -23.3232  -16.3646 C   0  0  0  0  0  0  0  0  0  0  0  0
   29.4055  -24.5310  -16.6890 O   0  0  0  0  0  0  0  0  0  0  0  0
   26.3483  -20.9824  -14.2909 C   0  0  0  0  0  0  0  0  0  0  0  0
   25.6760  -21.9907  -14.6208 O   0  0  0  0  0  0  0  0  0  0  0  0
   30.6630  -22.6906  -16.2752 O   0  0  0  0  0  0  0  0  0  0  0  0
   28.1601  -20.9678   -7.6955 C   0  0  0  0  0  0  0  0  0  0  0  0
   26.5500  -20.4520   -8.3780 S   0  0  0  0  0  0  0  0  0  0  0  0
   26.4300  -20.9771  -10.1044 C   0  0  0  0  0  0  0  0  0  0  0  0
   25.1043  -20.5200  -10.7191 C   0  0  0  0  0  0  0  0  0  0  0  0
   25.0142  -20.9882  -12.1539 C   0  0  2  0  0  0  0  0  0  0  0  0
   26.0710  -20.4654  -12.9710 N   0  0  0  0  0  0  0  0  0  0  0  0
   23.7159  -20.5136  -12.6814 C   0  0  0  0  0  0  0  0  0  0  0  0
   23.5360  -19.3588  -13.1411 O   0  0  0  0  0  0  0  0  0  0  0  0
   19.8960  -22.2798  -16.6134 C   0  0  0  0  0  0  0  0  0  0  0  0
   19.9700  -21.5361  -15.3350 C   0  0  0  0  0  0  0  0  0  0  0  0
   21.1510  -21.7223  -14.4765 C   0  0  2  0  0  0  0  0  0  0  0  0
   21.3358  -23.2407  -14.2797 C   0  0  0  0  0  0  0  0  0  0  0  0
   21.2840  -20.9938  -13.2004 C   0  0  2  0  0  0  0  0  0  0  0  0
   22.6108  -21.3976  -12.6733 N   0  0  0  0  0  0  0  0  0  0  0  0
   20.3421  -21.2087  -12.1300 C   0  0  0  0  0  0  0  0  0  0  0  0
   20.5773  -21.9544  -11.1545 O   0  0  0  0  0  0  0  0  0  0  0  0
   19.0731  -20.5930  -12.0951 O   0  0  0  0  0  0  0  0  0  0  0  0
  2  7  1  0
  2  1  1  1
  3  2  1  0
  4  3  1  0
  5  9  1  0
  5  4  1  0
  6  5  2  0
  7  8  2  0
 10 11  1  0
 11 12  1  0
 13 12  1  0
 14 13  1  1
 15 14  1  0
 15  7  1  0
 16 17  2  0
 16 14  1  0
 19 18  1  0
 19 20  1  0
 20 22  1  0
 20 21  1  1
 22 24  1  0
 22 23  1  1
 23 16  1  0
 24 26  1  0
 25 24  2  0
M  END
$$$$
