EMI.pdb
     RDKit          3D

 26 25  0  0  1  0  0  0  0  0999 V2000
   28.3416  -20.7288  -15.4723 N   0  0  0  0  0  0  0  0  0  0  0  0
   27.7185  -19.9487  -14.4198 C   0  0  1  0  0  0  0  0  0  0  0  0
   27.2014  -18.6909  -15.0200 C   0  0  0  0  0  0  0  0  0  0  0  0
   28.2173  -17.8137  -15.6717 C   0  0  0  0  0  0  0  0  0  0  0  0
   28.3829  -18.2184  -17.0870 C   0  0  0  0  0  0  0  0  0  0  0  0
   29.4856  -18.6454  -17.4957 O   0  0  0  0  0  0  0  0  0  0  0  0
   26.7756  -20.7247  -13.6184 C   0  0  0  0  0  0  0  0  0  0  0  0
   26.1295  -21.6862  -14.1038 O   0  0  0  0  0  0  0  0  0  0  0  0
   27.3307  -18.1337  -17.9800 O   0  0  0  0  0  0  0  0  0  0  0  0
   25.8329  -19.8918   -7.2077 C   0  0  0  0  0  0  0  0  0  0  0  0
   27.0644  -21.1400   -7.7076 S   0  0  0  0  0  0  0  0  0  0  0  0
   26.8519  -21.5294   -9.4608 C   0  0  0  0  0  0  0  0  0  0  0  0
   25.5701  -20.8937  -10.0058 C   0  0  0  0  0  0  0  0  0  0  0  0
   25.4762  -21.1232  -11.4973 C   0  0  2  0  0  0  0  0  0  0  0  0
   26.5149  -20.4520  -12.2242 N   0  0  0  0  0  0  0  0  0  0  0  0
   24.1640  -20.5963  -11.9326 C   0  0  0  0  0  0  0  0  0  0  0  0
   23.9187  -19.3715  -12.0633 O   0  0  0  0  0  0  0  0  0  0  0  0
   22.3837  -22.7479  -16.3154 C   0  0  0  0  0  0  0  0  0  0  0  0
   22.6106  -21.8648  -15.1486 C   0  0  0  0  0  0  0  0  0  0  0  0
   21.6771  -21.9402  -14.0131 C   0  0  2  0  0  0  0  0  0  0  0  0
   20.2503  -21.8386  -14.5894 C   0  0  0  0  0  0  0  0  0  0  0  0
   21.8449  -21.0698  -12.8337 C   0  0  2  0  0  0  0  0  0  0  0  0
   23.1220  -21.5098  -12.2202 N   0  0  0  0  0  0  0  0  0  0  0  0
   20.8667  -21.0711  -11.7744 C   0  0  0  0  0  0  0  0  0  0  0  0
   20.8668  -21.9100  -10.8474 O   0  0  0  0  0  0  0  0  0  0  0  0
   19.8252  -20.1224  -11.6963 O   0  0  0  0  0  0  0  0  0  0  0  0
  2  7  1  0
  2  1  1  6
  3  2  1  0
  4  3  1  0
  5  9  1  0
  5  4  1  0
  6  5  2  0
  7  8  2  0
 10 11  1  0
 11 12  1  0
 13 12  1  0
 14 13  1  1
 15 14  1  0
 15  7  1  0
 16 17  2  0
 16 14  1  0
 19 18  1  0
 19 20  1  0
 20 22  1  0
 20 21  1  6
 22 24  1  0
 22 23  1  1
 23 16  1  0
 24 26  1  0
 25 24  2  0
M  END
$$$$
