EMI.pdb
     RDKit          3D

 26 25  0  0  1  0  0  0  0  0999 V2000
   17.8313  -12.2473  -17.0309 N   0  0  0  0  0  0  0  0  0  0  0  0
   18.1286  -10.8383  -17.2059 C   0  0  1  0  0  0  0  0  0  0  0  0
   16.8512  -10.0822  -17.1269 C   0  0  0  0  0  0  0  0  0  0  0  0
   16.0022  -10.1063  -18.3536 C   0  0  0  0  0  0  0  0  0  0  0  0
   15.5369   -8.7334  -18.6582 C   0  0  0  0  0  0  0  0  0  0  0  0
   16.1927   -8.0030  -19.4338 O   0  0  0  0  0  0  0  0  0  0  0  0
   19.2150  -10.3748  -16.3467 C   0  0  0  0  0  0  0  0  0  0  0  0
   19.1150  -10.3766  -15.0947 O   0  0  0  0  0  0  0  0  0  0  0  0
   14.3767   -8.2334  -18.0964 O   0  0  0  0  0  0  0  0  0  0  0  0
   26.7790  -10.2612  -14.5818 C   0  0  0  0  0  0  0  0  0  0  0  0
   25.5086  -10.6682  -15.8247 S   0  0  0  0  0  0  0  0  0  0  0  0
   23.9675   -9.8157  -15.4143 C   0  0  0  0  0  0  0  0  0  0  0  0
   22.8640  -10.1807  -16.4110 C   0  0  0  0  0  0  0  0  0  0  0  0
   21.5628   -9.5304  -15.9985 C   0  0  2  0  0  0  0  0  0  0  0  0
   20.4726   -9.8846  -16.8609 N   0  0  0  0  0  0  0  0  0  0  0  0
   21.7732   -8.0673  -16.0619 C   0  0  0  0  0  0  0  0  0  0  0  0
   22.0628   -7.4548  -17.1195 O   0  0  0  0  0  0  0  0  0  0  0  0
   18.2921   -4.7939  -16.4156 C   0  0  0  0  0  0  0  0  0  0  0  0
   19.6814   -5.3002  -16.3354 C   0  0  0  0  0  0  0  0  0  0  0  0
   20.3330   -5.3703  -15.0174 C   0  0  2  0  0  0  0  0  0  0  0  0
   20.1174   -4.0066  -14.3301 C   0  0  0  0  0  0  0  0  0  0  0  0
   21.7302   -5.8252  -14.8849 C   0  0  2  0  0  0  0  0  0  0  0  0
   21.6442   -7.3063  -14.8758 N   0  0  0  0  0  0  0  0  0  0  0  0
   22.5159   -5.4594  -13.7325 C   0  0  0  0  0  0  0  0  0  0  0  0
   23.1990   -4.4138  -13.6773 O   0  0  0  0  0  0  0  0  0  0  0  0
   22.5787   -6.2540  -12.5683 O   0  0  0  0  0  0  0  0  0  0  0  0
  2  7  1  0
  2  1  1  1
  3  2  1  0
  4  3  1  0
  5  9  1  0
  5  4  1  0
  6  5  2  0
  7  8  2  0
 10 11  1  0
 11 12  1  0
 13 12  1  0
 14 13  1  6
 15 14  1  0
 15  7  1  0
 16 17  2  0
 16 14  1  0
 19 18  1  0
 19 20  1  0
 20 22  1  0
 20 21  1  6
 22 24  1  0
 22 23  1  1
 23 16  1  0
 24 26  1  0
 25 24  2  0
M  END
$$$$
