EMI.pdb
     RDKit          3D

 26 25  0  0  1  0  0  0  0  0999 V2000
   28.1778  -21.3504  -14.3311 N   0  0  0  0  0  0  0  0  0  0  0  0
   27.7760  -20.2486  -13.4771 C   0  0  1  0  0  0  0  0  0  0  0  0
   26.9718  -19.3005  -14.2922 C   0  0  0  0  0  0  0  0  0  0  0  0
   27.7477  -18.3518  -15.1431 C   0  0  0  0  0  0  0  0  0  0  0  0
   27.9262  -18.9336  -16.4936 C   0  0  0  0  0  0  0  0  0  0  0  0
   29.0151  -19.4593  -16.8146 O   0  0  0  0  0  0  0  0  0  0  0  0
   27.1830  -20.6916  -12.2179 C   0  0  0  0  0  0  0  0  0  0  0  0
   26.2795  -21.5633  -12.1825 O   0  0  0  0  0  0  0  0  0  0  0  0
   26.9012  -18.9085  -17.4213 O   0  0  0  0  0  0  0  0  0  0  0  0
   26.9804  -20.6218   -4.2740 C   0  0  0  0  0  0  0  0  0  0  0  0
   27.6642  -19.7935   -5.7474 S   0  0  0  0  0  0  0  0  0  0  0  0
   26.8501  -20.4313   -7.2309 C   0  0  0  0  0  0  0  0  0  0  0  0
   27.5412  -19.9115   -8.4944 C   0  0  0  0  0  0  0  0  0  0  0  0
   26.9052  -20.5288   -9.7193 C   0  0  2  0  0  0  0  0  0  0  0  0
   27.5827  -20.1698  -10.9317 N   0  0  0  0  0  0  0  0  0  0  0  0
   25.5128  -20.0320   -9.7788 C   0  0  0  0  0  0  0  0  0  0  0  0
   25.2156  -18.8266   -9.9686 O   0  0  0  0  0  0  0  0  0  0  0  0
   22.9310  -20.8400  -13.7120 C   0  0  0  0  0  0  0  0  0  0  0  0
   23.2669  -20.3253  -12.3647 C   0  0  0  0  0  0  0  0  0  0  0  0
   22.7155  -21.0150  -11.1870 C   0  0  2  0  0  0  0  0  0  0  0  0
   21.1924  -21.1308  -11.3992 C   0  0  0  0  0  0  0  0  0  0  0  0
   23.0359  -20.5582   -9.8212 C   0  0  2  0  0  0  0  0  0  0  0  0
   24.4510  -20.9530   -9.6148 N   0  0  0  0  0  0  0  0  0  0  0  0
   22.3055  -21.0661   -8.6863 C   0  0  0  0  0  0  0  0  0  0  0  0
   22.7175  -22.0099   -7.9775 O   0  0  0  0  0  0  0  0  0  0  0  0
   21.0616  -20.5379   -8.2809 O   0  0  0  0  0  0  0  0  0  0  0  0
  2  7  1  0
  2  1  1  6
  3  2  1  0
  4  3  1  0
  5  9  1  0
  5  4  1  0
  6  5  2  0
  7  8  2  0
 10 11  1  0
 11 12  1  0
 13 12  1  0
 14 13  1  1
 15 14  1  0
 15  7  1  0
 16 17  2  0
 16 14  1  0
 19 18  1  0
 19 20  1  0
 20 22  1  0
 20 21  1  6
 22 24  1  0
 22 23  1  1
 23 16  1  0
 24 26  1  0
 25 24  2  0
M  END
$$$$
