HPT.pdb
     RDKit          3D

 25 26  0  0  1  0  0  0  0  0999 V2000
    9.2778  -14.9675   21.1274 N   0  0  0  0  0  0  0  0  0  0  0  0
    8.2796  -15.0525   22.1671 C   0  0  1  0  0  0  0  0  0  0  0  0
    7.6412  -16.4310   22.2000 C   0  0  0  0  0  0  0  0  0  0  0  0
    7.1265  -16.8612   20.8771 C   0  0  0  0  0  0  0  0  0  0  0  0
    6.7127  -16.0341   19.8567 C   0  0  0  0  0  0  0  0  0  0  0  0
    6.3118  -16.7412   18.7929 N   0  0  0  0  0  0  0  0  0  0  0  0
    6.4688  -18.0399   19.1309 C   0  0  0  0  0  0  0  0  0  0  0  0
    6.9590  -18.1129   20.3847 N   0  0  0  0  0  0  0  0  0  0  0  0
    8.7565  -14.6339   23.4934 C   0  0  0  0  0  0  0  0  0  0  0  0
    9.9535  -14.9059   23.7772 O   0  0  0  0  0  0  0  0  0  0  0  0
    7.9619  -13.9446   24.4796 N   0  0  0  0  0  0  0  0  0  0  0  0
    6.6060  -13.5603   24.2357 C   0  0  0  0  0  0  0  0  0  0  0  0
    6.1565  -12.8576   25.4892 C   0  0  0  0  0  0  0  0  0  0  0  0
    7.4578  -12.4386   26.1755 C   0  0  0  0  0  0  0  0  0  0  0  0
    8.3472  -13.5535   25.7846 C   0  0  1  0  0  0  0  0  0  0  0  0
    8.4165  -14.6717   26.7573 C   0  0  0  0  0  0  0  0  0  0  0  0
    7.4427  -15.4421   26.9508 O   0  0  0  0  0  0  0  0  0  0  0  0
   10.6344  -17.3644   26.5043 C   0  0  0  0  0  0  0  0  0  0  0  0
   10.9470  -16.9022   27.9091 C   0  0  1  0  0  0  0  0  0  0  0  0
   12.0667  -16.0558   27.8194 O   0  0  0  0  0  0  0  0  0  0  0  0
    9.8083  -16.0212   28.3842 C   0  0  2  0  0  0  0  0  0  0  0  0
    9.5902  -14.9022   27.4976 N   0  0  0  0  0  0  0  0  0  0  0  0
    9.9853  -15.6192   29.7908 C   0  0  0  0  0  0  0  0  0  0  0  0
   10.0803  -14.4043   30.0645 O   0  0  0  0  0  0  0  0  0  0  0  0
   10.0461  -16.5464   30.7870 O   0  0  0  0  0  0  0  0  0  0  0  0
  2  1  1  6
  3  2  1  0
  4  3  1  0
  5  4  2  0
  6  7  1  0
  6  5  1  0
  7  8  2  0
  8  4  1  0
  9  2  1  0
  9 11  1  0
 10  9  2  0
 11 15  1  0
 12 11  1  0
 12 13  1  0
 13 14  1  0
 15 16  1  1
 15 14  1  0
 16 17  2  0
 19 18  1  6
 19 20  1  0
 19 21  1  0
 21 22  1  6
 22 16  1  0
 23 25  1  0
 23 21  1  0
 24 23  2  0
M  END
$$$$
