HPT.pdb
     RDKit          3D

 25 26  0  0  1  0  0  0  0  0999 V2000
    9.1024  -18.5051   19.1889 N   0  0  0  0  0  0  0  0  0  0  0  0
    8.3063  -17.9861   20.2758 C   0  0  1  0  0  0  0  0  0  0  0  0
    7.9837  -19.0752   21.2851 C   0  0  0  0  0  0  0  0  0  0  0  0
    7.0800  -18.6119   22.3662 C   0  0  0  0  0  0  0  0  0  0  0  0
    7.3845  -18.5428   23.7075 C   0  0  0  0  0  0  0  0  0  0  0  0
    6.3491  -18.0743   24.4153 N   0  0  0  0  0  0  0  0  0  0  0  0
    5.3651  -17.8384   23.5201 C   0  0  0  0  0  0  0  0  0  0  0  0
    5.8041  -18.1615   22.2870 N   0  0  0  0  0  0  0  0  0  0  0  0
    8.8720  -16.7901   20.9170 C   0  0  0  0  0  0  0  0  0  0  0  0
   10.0033  -16.9176   21.4565 O   0  0  0  0  0  0  0  0  0  0  0  0
    8.2319  -15.4992   20.9728 N   0  0  0  0  0  0  0  0  0  0  0  0
    6.8519  -15.3158   20.6449 C   0  0  0  0  0  0  0  0  0  0  0  0
    6.5936  -13.8412   20.8069 C   0  0  0  0  0  0  0  0  0  0  0  0
    7.9812  -13.2027   20.7247 C   0  0  0  0  0  0  0  0  0  0  0  0
    8.8088  -14.2605   21.3435 C   0  0  1  0  0  0  0  0  0  0  0  0
    9.0337  -14.1086   22.8022 C   0  0  0  0  0  0  0  0  0  0  0  0
    9.7479  -13.1862   23.2694 O   0  0  0  0  0  0  0  0  0  0  0  0
    6.7270  -13.1628   25.2038 C   0  0  0  0  0  0  0  0  0  0  0  0
    7.1226  -14.5271   25.7210 C   0  0  1  0  0  0  0  0  0  0  0  0
    6.2276  -15.4523   25.1542 O   0  0  0  0  0  0  0  0  0  0  0  0
    8.4832  -14.8757   25.1503 C   0  0  2  0  0  0  0  0  0  0  0  0
    8.4446  -15.0048   23.7124 N   0  0  0  0  0  0  0  0  0  0  0  0
    9.0670  -16.0505   25.8215 C   0  0  0  0  0  0  0  0  0  0  0  0
    9.3034  -17.0755   25.1481 O   0  0  0  0  0  0  0  0  0  0  0  0
    9.3495  -16.0335   27.1541 O   0  0  0  0  0  0  0  0  0  0  0  0
  2  1  1  6
  3  2  1  0
  4  3  1  0
  5  4  2  0
  6  7  1  0
  6  5  1  0
  7  8  2  0
  8  4  1  0
  9  2  1  0
  9 11  1  0
 10  9  2  0
 11 15  1  0
 12 11  1  0
 12 13  1  0
 13 14  1  0
 15 16  1  1
 15 14  1  0
 16 17  2  0
 19 18  1  6
 19 20  1  0
 19 21  1  0
 21 22  1  6
 22 16  1  0
 23 25  1  0
 23 21  1  0
 24 23  2  0
M  END
$$$$
