HPT.pdb
     RDKit          3D

 25 26  0  0  1  0  0  0  0  0999 V2000
    9.9426  -14.4316   21.5770 N   0  0  0  0  0  0  0  0  0  0  0  0
    8.8209  -14.1139   22.4287 C   0  0  1  0  0  0  0  0  0  0  0  0
    7.5182  -14.6109   21.8244 C   0  0  0  0  0  0  0  0  0  0  0  0
    7.3667  -14.2431   20.3955 C   0  0  0  0  0  0  0  0  0  0  0  0
    7.2779  -12.9656   19.8890 C   0  0  0  0  0  0  0  0  0  0  0  0
    7.1548  -12.9808   18.5559 N   0  0  0  0  0  0  0  0  0  0  0  0
    7.1642  -14.2836   18.1981 C   0  0  0  0  0  0  0  0  0  0  0  0
    7.2918  -15.0437   19.3043 N   0  0  0  0  0  0  0  0  0  0  0  0
    8.9832  -14.5496   23.8235 C   0  0  0  0  0  0  0  0  0  0  0  0
    9.8664  -15.4200   24.0463 O   0  0  0  0  0  0  0  0  0  0  0  0
    8.2129  -14.0590   24.9394 N   0  0  0  0  0  0  0  0  0  0  0  0
    6.9613  -13.3885   24.7679 C   0  0  0  0  0  0  0  0  0  0  0  0
    6.5071  -13.0255   26.1569 C   0  0  0  0  0  0  0  0  0  0  0  0
    7.7857  -13.0652   26.9956 C   0  0  0  0  0  0  0  0  0  0  0  0
    8.5273  -14.1497   26.3168 C   0  0  1  0  0  0  0  0  0  0  0  0
    8.3317  -15.5016   26.8958 C   0  0  0  0  0  0  0  0  0  0  0  0
    7.2069  -16.0621   26.9036 O   0  0  0  0  0  0  0  0  0  0  0  0
    9.5355  -18.4707   25.7388 C   0  0  0  0  0  0  0  0  0  0  0  0
   10.1028  -18.5325   27.1386 C   0  0  1  0  0  0  0  0  0  0  0  0
   11.4208  -18.0470   27.0652 O   0  0  0  0  0  0  0  0  0  0  0  0
    9.3505  -17.5378   28.0008 C   0  0  2  0  0  0  0  0  0  0  0  0
    9.4150  -16.2011   27.4580 N   0  0  0  0  0  0  0  0  0  0  0  0
    9.7764  -17.6117   29.4096 C   0  0  0  0  0  0  0  0  0  0  0  0
   10.3663  -16.6333   29.9144 O   0  0  0  0  0  0  0  0  0  0  0  0
    9.5376  -18.7224   30.1614 O   0  0  0  0  0  0  0  0  0  0  0  0
  2  1  1  6
  3  2  1  0
  4  3  1  0
  5  4  2  0
  6  7  1  0
  6  5  1  0
  7  8  2  0
  8  4  1  0
  9  2  1  0
  9 11  1  0
 10  9  2  0
 11 15  1  0
 12 11  1  0
 12 13  1  0
 13 14  1  0
 15 16  1  1
 15 14  1  0
 16 17  2  0
 19 18  1  6
 19 20  1  0
 19 21  1  0
 21 22  1  6
 22 16  1  0
 23 25  1  0
 23 21  1  0
 24 23  2  0
M  END
$$$$
