HPT.pdb
     RDKit          3D

 25 26  0  0  1  0  0  0  0  0999 V2000
    9.8043  -14.6232   21.1293 N   0  0  0  0  0  0  0  0  0  0  0  0
    8.6611  -14.2015   21.9037 C   0  0  1  0  0  0  0  0  0  0  0  0
    7.3641  -14.5038   21.1721 C   0  0  0  0  0  0  0  0  0  0  0  0
    7.3866  -14.0714   19.7534 C   0  0  0  0  0  0  0  0  0  0  0  0
    7.4676  -12.7738   19.2994 C   0  0  0  0  0  0  0  0  0  0  0  0
    7.4730  -12.7286   17.9614 N   0  0  0  0  0  0  0  0  0  0  0  0
    7.3943  -14.0122   17.5472 C   0  0  0  0  0  0  0  0  0  0  0  0
    7.3424  -14.8208   18.6249 N   0  0  0  0  0  0  0  0  0  0  0  0
    8.6483  -14.7118   23.2826 C   0  0  0  0  0  0  0  0  0  0  0  0
    9.4614  -15.6354   23.5527 O   0  0  0  0  0  0  0  0  0  0  0  0
    7.7818  -14.2376   24.3331 N   0  0  0  0  0  0  0  0  0  0  0  0
    6.5770  -13.5160   24.0624 C   0  0  0  0  0  0  0  0  0  0  0  0
    5.9921  -13.1913   25.4114 C   0  0  0  0  0  0  0  0  0  0  0  0
    7.1743  -13.3100   26.3748 C   0  0  0  0  0  0  0  0  0  0  0  0
    7.9477  -14.3932   25.7305 C   0  0  1  0  0  0  0  0  0  0  0  0
    7.6496  -15.7588   26.2281 C   0  0  0  0  0  0  0  0  0  0  0  0
    6.5012  -16.2608   26.1365 O   0  0  0  0  0  0  0  0  0  0  0  0
    8.1395  -18.6616   25.0077 C   0  0  0  0  0  0  0  0  0  0  0  0
    8.9164  -18.9146   26.2795 C   0  0  1  0  0  0  0  0  0  0  0  0
   10.2641  -18.6283   25.9969 O   0  0  0  0  0  0  0  0  0  0  0  0
    8.4898  -17.8871   27.3096 C   0  0  2  0  0  0  0  0  0  0  0  0
    8.6586  -16.5379   26.8229 N   0  0  0  0  0  0  0  0  0  0  0  0
    9.1439  -18.1197   28.6094 C   0  0  0  0  0  0  0  0  0  0  0  0
    9.9203  -17.2508   29.0590 O   0  0  0  0  0  0  0  0  0  0  0  0
    8.9151  -19.2591   29.3203 O   0  0  0  0  0  0  0  0  0  0  0  0
  2  1  1  6
  3  2  1  0
  4  3  1  0
  5  4  2  0
  6  7  1  0
  6  5  1  0
  7  8  2  0
  8  4  1  0
  9  2  1  0
  9 11  1  0
 10  9  2  0
 11 15  1  0
 12 11  1  0
 12 13  1  0
 13 14  1  0
 15 16  1  1
 15 14  1  0
 16 17  2  0
 19 18  1  6
 19 20  1  0
 19 21  1  0
 21 22  1  6
 22 16  1  0
 23 25  1  0
 23 21  1  0
 24 23  2  0
M  END
$$$$
