HPT.pdb
     RDKit          3D

 25 26  0  0  1  0  0  0  0  0999 V2000
    7.2069  -12.7891   19.0684 N   0  0  0  0  0  0  0  0  0  0  0  0
    7.4632  -14.1860   19.3278 C   0  0  1  0  0  0  0  0  0  0  0  0
    8.7439  -14.6418   18.6488 C   0  0  0  0  0  0  0  0  0  0  0  0
    8.6179  -14.7239   17.1732 C   0  0  0  0  0  0  0  0  0  0  0  0
    8.9398  -13.7331   16.2726 C   0  0  0  0  0  0  0  0  0  0  0  0
    8.7146  -14.1310   15.0142 N   0  0  0  0  0  0  0  0  0  0  0  0
    8.2417  -15.3934   15.1041 C   0  0  0  0  0  0  0  0  0  0  0  0
    8.1833  -15.7510   16.4027 N   0  0  0  0  0  0  0  0  0  0  0  0
    7.4359  -14.5473   20.7527 C   0  0  0  0  0  0  0  0  0  0  0  0
    7.8287  -13.6703   21.5674 O   0  0  0  0  0  0  0  0  0  0  0  0
    6.9987  -15.8175   21.2769 N   0  0  0  0  0  0  0  0  0  0  0  0
    6.5685  -16.8865   20.4296 C   0  0  0  0  0  0  0  0  0  0  0  0
    6.1809  -18.0049   21.3602 C   0  0  0  0  0  0  0  0  0  0  0  0
    5.9345  -17.3125   22.7018 C   0  0  0  0  0  0  0  0  0  0  0  0
    6.9254  -16.2171   22.6332 C   0  0  1  0  0  0  0  0  0  0  0  0
    8.2412  -16.5216   23.2475 C   0  0  0  0  0  0  0  0  0  0  0  0
    9.3114  -16.4427   22.5935 O   0  0  0  0  0  0  0  0  0  0  0  0
    7.3696  -14.6854   26.3336 C   0  0  0  0  0  0  0  0  0  0  0  0
    8.7530  -14.7805   25.7317 C   0  0  1  0  0  0  0  0  0  0  0  0
    9.6465  -14.2499   26.6796 O   0  0  0  0  0  0  0  0  0  0  0  0
    9.1170  -16.2469   25.6060 C   0  0  2  0  0  0  0  0  0  0  0  0
    8.3261  -16.9111   24.5966 N   0  0  0  0  0  0  0  0  0  0  0  0
    9.0789  -16.9281   26.9122 C   0  0  0  0  0  0  0  0  0  0  0  0
    8.0224  -17.4902   27.2697 O   0  0  0  0  0  0  0  0  0  0  0  0
   10.1704  -16.9525   27.7270 O   0  0  0  0  0  0  0  0  0  0  0  0
  2  1  1  1
  3  2  1  0
  4  3  1  0
  5  4  2  0
  6  7  1  0
  6  5  1  0
  7  8  2  0
  8  4  1  0
  9  2  1  0
  9 11  1  0
 10  9  2  0
 11 15  1  0
 12 11  1  0
 12 13  1  0
 13 14  1  0
 15 16  1  6
 15 14  1  0
 16 17  2  0
 19 18  1  1
 19 20  1  0
 19 21  1  0
 21 22  1  6
 22 16  1  0
 23 25  1  0
 23 21  1  0
 24 23  2  0
M  END
$$$$
