HPT.pdb
     RDKit          3D

 25 26  0  0  1  0  0  0  0  0999 V2000
    6.6098  -17.7785   18.2439 N   0  0  0  0  0  0  0  0  0  0  0  0
    8.0227  -18.0751   18.2419 C   0  0  1  0  0  0  0  0  0  0  0  0
    8.5701  -18.1172   16.8250 C   0  0  0  0  0  0  0  0  0  0  0  0
   10.0101  -18.4689   16.7719 C   0  0  0  0  0  0  0  0  0  0  0  0
   10.5706  -19.6647   17.1621 C   0  0  0  0  0  0  0  0  0  0  0  0
   11.8967  -19.6605   16.9782 N   0  0  0  0  0  0  0  0  0  0  0  0
   12.1953  -18.4477   16.4632 C   0  0  0  0  0  0  0  0  0  0  0  0
   11.0607  -17.7301   16.3388 N   0  0  0  0  0  0  0  0  0  0  0  0
    8.8209  -17.2029   19.1157 C   0  0  0  0  0  0  0  0  0  0  0  0
   10.0732  -17.2754   18.9979 O   0  0  0  0  0  0  0  0  0  0  0  0
    8.2797  -16.2836   20.0859 N   0  0  0  0  0  0  0  0  0  0  0  0
    6.8815  -15.9938   20.1669 C   0  0  0  0  0  0  0  0  0  0  0  0
    6.7443  -14.9861   21.2773 C   0  0  0  0  0  0  0  0  0  0  0  0
    8.1436  -14.3841   21.4169 C   0  0  0  0  0  0  0  0  0  0  0  0
    8.9823  -15.5529   21.0744 C   0  0  1  0  0  0  0  0  0  0  0  0
    9.4244  -16.3690   22.2319 C   0  0  0  0  0  0  0  0  0  0  0  0
    8.8461  -17.4393   22.5468 O   0  0  0  0  0  0  0  0  0  0  0  0
   13.5762  -17.5794   24.4690 C   0  0  0  0  0  0  0  0  0  0  0  0
   12.8069  -16.5655   23.6534 C   0  0  1  0  0  0  0  0  0  0  0  0
   13.0761  -16.8424   22.3010 O   0  0  0  0  0  0  0  0  0  0  0  0
   11.3259  -16.8334   23.8363 C   0  0  2  0  0  0  0  0  0  0  0  0
   10.5179  -15.9606   23.0171 N   0  0  0  0  0  0  0  0  0  0  0  0
   10.9430  -16.8101   25.2591 C   0  0  0  0  0  0  0  0  0  0  0  0
   11.3599  -17.7156   26.0117 O   0  0  0  0  0  0  0  0  0  0  0  0
   10.1480  -15.8235   25.7595 O   0  0  0  0  0  0  0  0  0  0  0  0
  2  1  1  6
  3  2  1  0
  4  3  1  0
  5  4  2  0
  6  7  1  0
  6  5  1  0
  7  8  2  0
  8  4  1  0
  9  2  1  0
  9 11  1  0
 10  9  2  0
 11 15  1  0
 12 11  1  0
 12 13  1  0
 13 14  1  0
 15 16  1  1
 15 14  1  0
 16 17  2  0
 19 18  1  1
 19 20  1  0
 19 21  1  0
 21 22  1  6
 22 16  1  0
 23 25  1  0
 23 21  1  0
 24 23  2  0
M  END
$$$$
