HPT.pdb
     RDKit          3D

 25 26  0  0  1  0  0  0  0  0999 V2000
    9.2943  -14.9333   21.0143 N   0  0  0  0  0  0  0  0  0  0  0  0
    8.3235  -15.0224   22.0793 C   0  0  1  0  0  0  0  0  0  0  0  0
    7.5737  -16.3430   22.0259 C   0  0  0  0  0  0  0  0  0  0  0  0
    6.9260  -16.5872   20.7141 C   0  0  0  0  0  0  0  0  0  0  0  0
    7.4776  -17.2609   19.6472 C   0  0  0  0  0  0  0  0  0  0  0  0
    6.6269  -17.3115   18.6145 N   0  0  0  0  0  0  0  0  0  0  0  0
    5.5134  -16.6626   19.0201 C   0  0  0  0  0  0  0  0  0  0  0  0
    5.6925  -16.2266   20.2832 N   0  0  0  0  0  0  0  0  0  0  0  0
    8.8724  -14.7535   23.4165 C   0  0  0  0  0  0  0  0  0  0  0  0
   10.0914  -15.0184   23.5926 O   0  0  0  0  0  0  0  0  0  0  0  0
    8.1243  -14.2167   24.5262 N   0  0  0  0  0  0  0  0  0  0  0  0
    6.7777  -13.7550   24.3879 C   0  0  0  0  0  0  0  0  0  0  0  0
    6.3808  -13.2607   25.7537 C   0  0  0  0  0  0  0  0  0  0  0  0
    7.7108  -13.0042   26.4644 C   0  0  0  0  0  0  0  0  0  0  0  0
    8.5518  -14.0638   25.8672 C   0  0  1  0  0  0  0  0  0  0  0  0
    8.6031  -15.3320   26.6356 C   0  0  0  0  0  0  0  0  0  0  0  0
    7.5949  -16.0718   26.7603 O   0  0  0  0  0  0  0  0  0  0  0  0
   10.6309  -17.9434   25.7019 C   0  0  0  0  0  0  0  0  0  0  0  0
   11.0378  -17.8579   27.1552 C   0  0  1  0  0  0  0  0  0  0  0  0
   12.2286  -17.1108   27.2011 O   0  0  0  0  0  0  0  0  0  0  0  0
   10.0062  -17.0243   27.8896 C   0  0  2  0  0  0  0  0  0  0  0  0
    9.7980  -15.7452   27.2523 N   0  0  0  0  0  0  0  0  0  0  0  0
   10.3231  -16.9113   29.3243 C   0  0  0  0  0  0  0  0  0  0  0  0
   10.5681  -15.7835   29.8019 O   0  0  0  0  0  0  0  0  0  0  0  0
   10.3523  -18.0103   30.1289 O   0  0  0  0  0  0  0  0  0  0  0  0
  2  1  1  6
  3  2  1  0
  4  3  1  0
  5  4  2  0
  6  7  1  0
  6  5  1  0
  7  8  2  0
  8  4  1  0
  9  2  1  0
  9 11  1  0
 10  9  2  0
 11 15  1  0
 12 11  1  0
 12 13  1  0
 13 14  1  0
 15 16  1  1
 15 14  1  0
 16 17  2  0
 19 18  1  6
 19 20  1  0
 19 21  1  0
 21 22  1  6
 22 16  1  0
 23 25  1  0
 23 21  1  0
 24 23  2  0
M  END
$$$$
