HPT.pdb
     RDKit          3D

 25 26  0  0  1  0  0  0  0  0999 V2000
    9.1790  -17.1479   16.8584 N   0  0  0  0  0  0  0  0  0  0  0  0
    8.4210  -17.2030   18.0860 C   0  0  1  0  0  0  0  0  0  0  0  0
    8.0020  -18.6281   18.4058 C   0  0  0  0  0  0  0  0  0  0  0  0
    7.2183  -19.2585   17.3157 C   0  0  0  0  0  0  0  0  0  0  0  0
    7.6904  -20.1661   16.3939 C   0  0  0  0  0  0  0  0  0  0  0  0
    6.7234  -20.5456   15.5492 N   0  0  0  0  0  0  0  0  0  0  0  0
    5.6144  -19.8748   15.9306 C   0  0  0  0  0  0  0  0  0  0  0  0
    5.9112  -19.1003   16.9934 N   0  0  0  0  0  0  0  0  0  0  0  0
    9.0794  -16.5522   19.2282 C   0  0  0  0  0  0  0  0  0  0  0  0
   10.3060  -16.7919   19.3873 O   0  0  0  0  0  0  0  0  0  0  0  0
    8.4295  -15.6721   20.1675 N   0  0  0  0  0  0  0  0  0  0  0  0
    7.0530  -15.3039   20.0430 C   0  0  0  0  0  0  0  0  0  0  0  0
    6.7820  -14.3702   21.1928 C   0  0  0  0  0  0  0  0  0  0  0  0
    8.1661  -13.8662   21.6054 C   0  0  0  0  0  0  0  0  0  0  0  0
    8.9922  -15.0571   21.3119 C   0  0  1  0  0  0  0  0  0  0  0  0
    9.1950  -15.9780   22.4573 C   0  0  0  0  0  0  0  0  0  0  0  0
    8.2924  -16.7621   22.8443 O   0  0  0  0  0  0  0  0  0  0  0  0
   11.6204  -18.4641   22.4708 C   0  0  0  0  0  0  0  0  0  0  0  0
   11.9459  -17.8059   23.7922 C   0  0  1  0  0  0  0  0  0  0  0  0
   13.0105  -16.9184   23.5533 O   0  0  0  0  0  0  0  0  0  0  0  0
   10.7714  -16.9341   24.1911 C   0  0  2  0  0  0  0  0  0  0  0  0
   10.4199  -15.9983   23.1488 N   0  0  0  0  0  0  0  0  0  0  0  0
   10.9950  -16.2889   25.4970 C   0  0  0  0  0  0  0  0  0  0  0  0
   11.0971  -15.0451   25.5466 O   0  0  0  0  0  0  0  0  0  0  0  0
   11.0910  -17.0243   26.6397 O   0  0  0  0  0  0  0  0  0  0  0  0
  2  1  1  6
  3  2  1  0
  4  3  1  0
  5  4  2  0
  6  7  1  0
  6  5  1  0
  7  8  2  0
  8  4  1  0
  9  2  1  0
  9 11  1  0
 10  9  2  0
 11 15  1  0
 12 11  1  0
 12 13  1  0
 13 14  1  0
 15 16  1  1
 15 14  1  0
 16 17  2  0
 19 18  1  6
 19 20  1  0
 19 21  1  0
 21 22  1  6
 22 16  1  0
 23 25  1  0
 23 21  1  0
 24 23  2  0
M  END
$$$$
