HPT.pdb
     RDKit          3D

 25 26  0  0  1  0  0  0  0  0999 V2000
    9.9812  -14.4321   20.9485 N   0  0  0  0  0  0  0  0  0  0  0  0
    8.8268  -14.1072   21.7525 C   0  0  1  0  0  0  0  0  0  0  0  0
    7.5510  -14.6279   21.1121 C   0  0  0  0  0  0  0  0  0  0  0  0
    7.4588  -14.3101   19.6662 C   0  0  0  0  0  0  0  0  0  0  0  0
    7.6722  -13.0784   19.0885 C   0  0  0  0  0  0  0  0  0  0  0  0
    7.5164  -13.1333   17.7599 N   0  0  0  0  0  0  0  0  0  0  0  0
    7.1986  -14.4157   17.4771 C   0  0  0  0  0  0  0  0  0  0  0  0
    7.1639  -15.1244   18.6235 N   0  0  0  0  0  0  0  0  0  0  0  0
    8.9422  -14.5129   23.1609 C   0  0  0  0  0  0  0  0  0  0  0  0
    9.9261  -15.2396   23.4627 O   0  0  0  0  0  0  0  0  0  0  0  0
    8.0209  -14.1443   24.2071 N   0  0  0  0  0  0  0  0  0  0  0  0
    6.7816  -13.4837   23.9361 C   0  0  0  0  0  0  0  0  0  0  0  0
    6.1425  -13.2621   25.2814 C   0  0  0  0  0  0  0  0  0  0  0  0
    7.3040  -13.3575   26.2723 C   0  0  0  0  0  0  0  0  0  0  0  0
    8.1591  -14.3591   25.5997 C   0  0  1  0  0  0  0  0  0  0  0  0
    7.9322  -15.7631   26.0223 C   0  0  0  0  0  0  0  0  0  0  0  0
    6.9935  -16.4529   25.5509 O   0  0  0  0  0  0  0  0  0  0  0  0
   10.4372  -19.6020   26.0473 C   0  0  0  0  0  0  0  0  0  0  0  0
   10.1567  -18.1192   25.9598 C   0  0  1  0  0  0  0  0  0  0  0  0
    9.5305  -17.8959   24.7204 O   0  0  0  0  0  0  0  0  0  0  0  0
    9.1194  -17.7689   27.0085 C   0  0  2  0  0  0  0  0  0  0  0  0
    8.7740  -16.3671   26.9739 N   0  0  0  0  0  0  0  0  0  0  0  0
    9.5250  -18.2322   28.3473 C   0  0  0  0  0  0  0  0  0  0  0  0
   10.1359  -17.4444   29.0997 O   0  0  0  0  0  0  0  0  0  0  0  0
    9.2452  -19.4964   28.7709 O   0  0  0  0  0  0  0  0  0  0  0  0
  2  1  1  6
  3  2  1  0
  4  3  1  0
  5  4  2  0
  6  7  1  0
  6  5  1  0
  7  8  2  0
  8  4  1  0
  9  2  1  0
  9 11  1  0
 10  9  2  0
 11 15  1  0
 12 11  1  0
 12 13  1  0
 13 14  1  0
 15 16  1  6
 15 14  1  0
 16 17  2  0
 19 18  1  6
 19 20  1  0
 19 21  1  0
 21 22  1  1
 22 16  1  0
 23 25  1  0
 23 21  1  0
 24 23  2  0
M  END
$$$$
