HPT.pdb
     RDKit          3D

 25 26  0  0  1  0  0  0  0  0999 V2000
   10.1883  -14.4135   20.9903 N   0  0  0  0  0  0  0  0  0  0  0  0
    9.0067  -14.1672   21.7826 C   0  0  1  0  0  0  0  0  0  0  0  0
    7.7563  -14.6406   21.0605 C   0  0  0  0  0  0  0  0  0  0  0  0
    7.7043  -14.1996   19.6453 C   0  0  0  0  0  0  0  0  0  0  0  0
    7.9187  -12.9202   19.1833 C   0  0  0  0  0  0  0  0  0  0  0  0
    7.8046  -12.8613   17.8506 N   0  0  0  0  0  0  0  0  0  0  0  0
    7.5131  -14.1177   17.4481 C   0  0  0  0  0  0  0  0  0  0  0  0
    7.4526  -14.9235   18.5273 N   0  0  0  0  0  0  0  0  0  0  0  0
    9.0831  -14.6912   23.1542 C   0  0  0  0  0  0  0  0  0  0  0  0
    9.9680  -15.5587   23.3810 O   0  0  0  0  0  0  0  0  0  0  0  0
    8.2278  -14.2890   24.2432 N   0  0  0  0  0  0  0  0  0  0  0  0
    7.0213  -13.5498   24.0344 C   0  0  0  0  0  0  0  0  0  0  0  0
    6.4504  -13.3174   25.4082 C   0  0  0  0  0  0  0  0  0  0  0  0
    7.6421  -13.5022   26.3494 C   0  0  0  0  0  0  0  0  0  0  0  0
    8.4075  -14.5396   25.6251 C   0  0  1  0  0  0  0  0  0  0  0  0
    8.1125  -15.9357   26.0315 C   0  0  0  0  0  0  0  0  0  0  0  0
    6.9893  -16.4612   25.8280 O   0  0  0  0  0  0  0  0  0  0  0  0
    8.9399  -18.7484   24.6853 C   0  0  0  0  0  0  0  0  0  0  0  0
    9.5497  -19.0446   26.0364 C   0  0  1  0  0  0  0  0  0  0  0  0
   10.9072  -18.6850   25.9578 O   0  0  0  0  0  0  0  0  0  0  0  0
    8.9370  -18.1000   27.0518 C   0  0  2  0  0  0  0  0  0  0  0  0
    9.0961  -16.7183   26.6632 N   0  0  0  0  0  0  0  0  0  0  0  0
    9.4258  -18.3782   28.4139 C   0  0  0  0  0  0  0  0  0  0  0  0
   10.0746  -17.4961   29.0147 O   0  0  0  0  0  0  0  0  0  0  0  0
    9.1817  -19.5733   29.0205 O   0  0  0  0  0  0  0  0  0  0  0  0
  2  1  1  6
  3  2  1  0
  4  3  1  0
  5  4  2  0
  6  7  1  0
  6  5  1  0
  7  8  2  0
  8  4  1  0
  9  2  1  0
  9 11  1  0
 10  9  2  0
 11 15  1  0
 12 11  1  0
 12 13  1  0
 13 14  1  0
 15 16  1  6
 15 14  1  0
 16 17  2  0
 19 18  1  6
 19 20  1  0
 19 21  1  0
 21 22  1  6
 22 16  1  0
 23 25  1  0
 23 21  1  0
 24 23  2  0
M  END
$$$$
