HPT.pdb
     RDKit          3D

 25 26  0  0  1  0  0  0  0  0999 V2000
   10.1159  -13.7887   17.4639 N   0  0  0  0  0  0  0  0  0  0  0  0
    9.0385  -14.2838   18.2877 C   0  0  1  0  0  0  0  0  0  0  0  0
    8.4334  -15.5456   17.6953 C   0  0  0  0  0  0  0  0  0  0  0  0
    9.4163  -16.6478   17.5568 C   0  0  0  0  0  0  0  0  0  0  0  0
   10.7449  -16.6033   17.9162 C   0  0  0  0  0  0  0  0  0  0  0  0
   11.3533  -17.7694   17.6660 N   0  0  0  0  0  0  0  0  0  0  0  0
   10.4060  -18.5757   17.1389 C   0  0  0  0  0  0  0  0  0  0  0  0
    9.2402  -17.9016   17.0729 N   0  0  0  0  0  0  0  0  0  0  0  0
    9.3950  -14.4555   19.7037 C   0  0  0  0  0  0  0  0  0  0  0  0
   10.6196  -14.5888   19.9677 O   0  0  0  0  0  0  0  0  0  0  0  0
    8.4551  -14.4832   20.7969 N   0  0  0  0  0  0  0  0  0  0  0  0
    7.0469  -14.3319   20.5978 C   0  0  0  0  0  0  0  0  0  0  0  0
    6.4381  -14.3959   21.9735 C   0  0  0  0  0  0  0  0  0  0  0  0
    7.5975  -14.0682   22.9159 C   0  0  0  0  0  0  0  0  0  0  0  0
    8.7318  -14.6597   22.1741 C   0  0  1  0  0  0  0  0  0  0  0  0
    9.0690  -16.0546   22.5509 C   0  0  0  0  0  0  0  0  0  0  0  0
    8.6921  -17.0359   21.8624 O   0  0  0  0  0  0  0  0  0  0  0  0
   12.6773  -16.2384   23.0686 C   0  0  0  0  0  0  0  0  0  0  0  0
   11.8233  -17.4675   22.8562 C   0  0  1  0  0  0  0  0  0  0  0  0
   12.6210  -18.5787   23.1834 O   0  0  0  0  0  0  0  0  0  0  0  0
   10.7062  -17.4530   23.8811 C   0  0  2  0  0  0  0  0  0  0  0  0
    9.8306  -16.3183   23.7039 N   0  0  0  0  0  0  0  0  0  0  0  0
   11.2290  -17.5719   25.2537 C   0  0  0  0  0  0  0  0  0  0  0  0
   11.0470  -16.6298   26.0532 O   0  0  0  0  0  0  0  0  0  0  0  0
   11.9019  -18.6853   25.6582 O   0  0  0  0  0  0  0  0  0  0  0  0
  2  1  1  6
  3  2  1  0
  4  3  1  0
  5  4  2  0
  6  7  1  0
  6  5  1  0
  7  8  2  0
  8  4  1  0
  9  2  1  0
  9 11  1  0
 10  9  2  0
 11 15  1  0
 12 11  1  0
 12 13  1  0
 13 14  1  0
 15 16  1  6
 15 14  1  0
 16 17  2  0
 19 18  1  1
 19 20  1  0
 19 21  1  0
 21 22  1  1
 22 16  1  0
 23 25  1  0
 23 21  1  0
 24 23  2  0
M  END
$$$$
