HPT.pdb
     RDKit          3D

 25 26  0  0  1  0  0  0  0  0999 V2000
   10.1515  -14.6284   21.2676 N   0  0  0  0  0  0  0  0  0  0  0  0
    8.9120  -14.2877   21.9248 C   0  0  1  0  0  0  0  0  0  0  0  0
    7.7170  -14.7860   21.1295 C   0  0  0  0  0  0  0  0  0  0  0  0
    7.6591  -14.2219   19.7589 C   0  0  0  0  0  0  0  0  0  0  0  0
    8.5128  -13.2796   19.2301 C   0  0  0  0  0  0  0  0  0  0  0  0
    8.1901  -12.9908   17.9632 N   0  0  0  0  0  0  0  0  0  0  0  0
    7.1154  -13.7558   17.6714 C   0  0  0  0  0  0  0  0  0  0  0  0
    6.7954  -14.4969   18.7512 N   0  0  0  0  0  0  0  0  0  0  0  0
    8.8466  -14.6996   23.3347 C   0  0  0  0  0  0  0  0  0  0  0  0
    9.7221  -15.5157   23.7280 O   0  0  0  0  0  0  0  0  0  0  0  0
    7.8639  -14.2430   24.2862 N   0  0  0  0  0  0  0  0  0  0  0  0
    6.7662  -13.4072   23.9094 C   0  0  0  0  0  0  0  0  0  0  0  0
    6.0055  -13.1459   25.1823 C   0  0  0  0  0  0  0  0  0  0  0  0
    7.0160  -13.4367   26.2933 C   0  0  0  0  0  0  0  0  0  0  0  0
    7.8036  -14.5234   25.6726 C   0  0  1  0  0  0  0  0  0  0  0  0
    7.3412  -15.8961   25.9941 C   0  0  0  0  0  0  0  0  0  0  0  0
    6.1300  -16.2219   25.9166 O   0  0  0  0  0  0  0  0  0  0  0  0
    7.4967  -18.7646   24.4005 C   0  0  0  0  0  0  0  0  0  0  0  0
    8.2318  -19.2140   25.6426 C   0  0  1  0  0  0  0  0  0  0  0  0
    9.6051  -19.0594   25.3810 O   0  0  0  0  0  0  0  0  0  0  0  0
    7.9183  -18.2383   26.7598 C   0  0  2  0  0  0  0  0  0  0  0  0
    8.2593  -16.8822   26.3988 N   0  0  0  0  0  0  0  0  0  0  0  0
    8.5181  -18.6657   28.0362 C   0  0  0  0  0  0  0  0  0  0  0  0
    8.1459  -19.7425   28.5480 O   0  0  0  0  0  0  0  0  0  0  0  0
    9.4642  -17.9090   28.6593 O   0  0  0  0  0  0  0  0  0  0  0  0
  2  1  1  6
  3  2  1  0
  4  3  1  0
  5  4  2  0
  6  7  1  0
  6  5  1  0
  7  8  2  0
  8  4  1  0
  9  2  1  0
  9 11  1  0
 10  9  2  0
 11 15  1  0
 12 11  1  0
 12 13  1  0
 13 14  1  0
 15 16  1  6
 15 14  1  0
 16 17  2  0
 19 18  1  6
 19 20  1  0
 19 21  1  0
 21 22  1  6
 22 16  1  0
 23 25  1  0
 23 21  1  0
 24 23  2  0
M  END
$$$$
