HPT.pdb
     RDKit          3D

 25 26  0  0  1  0  0  0  0  0999 V2000
    7.0220  -17.9179   20.0606 N   0  0  0  0  0  0  0  0  0  0  0  0
    7.9786  -17.1360   20.8077 C   0  0  1  0  0  0  0  0  0  0  0  0
    8.4917  -15.9673   19.9833 C   0  0  0  0  0  0  0  0  0  0  0  0
    9.1789  -16.3945   18.7402 C   0  0  0  0  0  0  0  0  0  0  0  0
   10.3006  -17.1896   18.6626 C   0  0  0  0  0  0  0  0  0  0  0  0
   10.6628  -17.3927   17.3898 N   0  0  0  0  0  0  0  0  0  0  0  0
    9.7642  -16.7206   16.6374 C   0  0  0  0  0  0  0  0  0  0  0  0
    8.8710  -16.1198   17.4491 N   0  0  0  0  0  0  0  0  0  0  0  0
    7.5028  -16.7100   22.1320 C   0  0  0  0  0  0  0  0  0  0  0  0
    6.6119  -15.8195   22.1547 O   0  0  0  0  0  0  0  0  0  0  0  0
    7.9780  -17.2309   23.3898 N   0  0  0  0  0  0  0  0  0  0  0  0
    8.9629  -18.2653   23.4652 C   0  0  0  0  0  0  0  0  0  0  0  0
    9.1562  -18.5288   24.9351 C   0  0  0  0  0  0  0  0  0  0  0  0
    7.8880  -17.9767   25.5884 C   0  0  0  0  0  0  0  0  0  0  0  0
    7.5898  -16.8379   24.6934 C   0  0  1  0  0  0  0  0  0  0  0  0
    8.1522  -15.5351   25.1266 C   0  0  0  0  0  0  0  0  0  0  0  0
    9.2686  -15.1272   24.7184 O   0  0  0  0  0  0  0  0  0  0  0  0
    6.3504  -12.3141   24.8381 C   0  0  0  0  0  0  0  0  0  0  0  0
    6.7421  -12.3776   26.2967 C   0  0  1  0  0  0  0  0  0  0  0  0
    5.6431  -12.9159   26.9901 O   0  0  0  0  0  0  0  0  0  0  0  0
    7.8554  -13.3959   26.4461 C   0  0  2  0  0  0  0  0  0  0  0  0
    7.4404  -14.7110   26.0172 N   0  0  0  0  0  0  0  0  0  0  0  0
    8.4223  -13.3827   27.8062 C   0  0  0  0  0  0  0  0  0  0  0  0
    8.3617  -14.4222   28.4960 O   0  0  0  0  0  0  0  0  0  0  0  0
    9.0058  -12.2624   28.3164 O   0  0  0  0  0  0  0  0  0  0  0  0
  2  1  1  6
  3  2  1  0
  4  3  1  0
  5  4  2  0
  6  7  1  0
  6  5  1  0
  7  8  2  0
  8  4  1  0
  9  2  1  0
  9 11  1  0
 10  9  2  0
 11 15  1  0
 12 11  1  0
 12 13  1  0
 13 14  1  0
 15 16  1  1
 15 14  1  0
 16 17  2  0
 19 18  1  6
 19 20  1  0
 19 21  1  0
 21 22  1  1
 22 16  1  0
 23 25  1  0
 23 21  1  0
 24 23  2  0
M  END
$$$$
