CLF.pdb
     RDKit          3D

 26 26  0  0  1  0  0  0  0  0999 V2000
    5.9253  -18.7955   21.7635 N   0  0  0  0  0  0  0  0  0  0  0  0
    7.1597  -19.2118   21.1466 C   0  0  1  0  0  0  0  0  0  0  0  0
    6.8872  -19.9204   19.8377 C   0  0  0  0  0  0  0  0  0  0  0  0
    6.0414  -21.4787   20.2193 S   0  0  0  0  0  0  0  0  0  0  0  0
    8.0447  -18.0572   20.9974 C   0  0  0  0  0  0  0  0  0  0  0  0
    9.1819  -18.1045   20.4538 O   0  0  0  0  0  0  0  0  0  0  0  0
    7.5468  -11.9105   21.1281 C   0  0  0  0  0  0  0  0  0  0  0  0
    8.3777  -13.1478   21.0646 C   0  0  2  0  0  0  0  0  0  0  0  0
    9.0119  -13.2119   19.6867 C   0  0  0  0  0  0  0  0  0  0  0  0
    7.6119  -14.4135   21.2599 C   0  0  0  0  0  0  0  0  0  0  0  0
    8.4912  -15.6262   21.4585 C   0  0  2  0  0  0  0  0  0  0  0  0
    7.6411  -16.7940   21.4769 N   0  0  0  0  0  0  0  0  0  0  0  0
    9.1385  -15.4700   22.7842 C   0  0  0  0  0  0  0  0  0  0  0  0
   10.1192  -14.6979   22.8765 O   0  0  0  0  0  0  0  0  0  0  0  0
    8.6728  -16.1669   23.9210 N   0  0  0  0  0  0  0  0  0  0  0  0
    9.2544  -16.0203   25.2624 C   0  0  1  0  0  0  0  0  0  0  0  0
    8.1418  -15.8780   26.2340 C   0  0  0  0  0  0  0  0  0  0  0  0
    7.6027  -14.5112   26.2235 C   0  0  0  0  0  0  0  0  0  0  0  0
    8.3400  -13.4245   26.6270 C   0  0  0  0  0  0  0  0  0  0  0  0
    7.8067  -12.1433   26.6019 C   0  0  0  0  0  0  0  0  0  0  0  0
    6.5116  -11.9649   26.1627 C   0  0  0  0  0  0  0  0  0  0  0  0
    5.7560  -13.0455   25.7537 C   0  0  0  0  0  0  0  0  0  0  0  0
    6.2947  -14.3223   25.7812 C   0  0  0  0  0  0  0  0  0  0  0  0
   10.1521  -17.1487   25.5720 C   0  0  0  0  0  0  0  0  0  0  0  0
   10.8202  -17.1473   26.8128 O   0  0  0  0  0  0  0  0  0  0  0  0
   10.3646  -18.1111   24.8134 O   0  0  0  0  0  0  0  0  0  0  0  0
  2  5  1  0
  2  1  1  6
  3  2  1  0
  4  3  1  0
  5  6  2  0
  8  7  1  6
  8  9  1  0
 10  8  1  0
 11 10  1  1
 12 11  1  0
 12  5  1  0
 13 11  1  0
 13 14  2  0
 15 13  1  0
 16 15  1  0
 16 24  1  0
 16 17  1  1
 18 19  2  0
 18 17  1  0
 20 19  1  0
 21 20  2  0
 22 21  1  0
 22 23  2  0
 23 18  1  0
 24 26  2  0
 24 25  1  0
M  END
$$$$
