CLF.pdb
     RDKit          3D

 26 26  0  0  1  0  0  0  0  0999 V2000
    8.5534  -19.5167   18.6456 N   0  0  0  0  0  0  0  0  0  0  0  0
    8.4979  -19.1295   20.0329 C   0  0  1  0  0  0  0  0  0  0  0  0
    8.8897  -20.2881   20.9240 C   0  0  0  0  0  0  0  0  0  0  0  0
    8.5474  -19.8060   22.6386 S   0  0  0  0  0  0  0  0  0  0  0  0
    9.3261  -17.9427   20.2422 C   0  0  0  0  0  0  0  0  0  0  0  0
   10.4583  -17.7694   19.7138 O   0  0  0  0  0  0  0  0  0  0  0  0
    8.4057  -13.4506   19.3164 C   0  0  0  0  0  0  0  0  0  0  0  0
    7.6560  -14.1720   20.3855 C   0  0  2  0  0  0  0  0  0  0  0  0
    6.5837  -13.2362   20.9140 C   0  0  0  0  0  0  0  0  0  0  0  0
    8.4927  -14.5899   21.5482 C   0  0  0  0  0  0  0  0  0  0  0  0
    9.5347  -15.6273   21.1999 C   0  0  2  0  0  0  0  0  0  0  0  0
    8.8691  -16.9035   21.0788 N   0  0  0  0  0  0  0  0  0  0  0  0
   10.4843  -15.6756   22.3386 C   0  0  0  0  0  0  0  0  0  0  0  0
   11.4886  -14.9295   22.3036 O   0  0  0  0  0  0  0  0  0  0  0  0
   10.2750  -16.5349   23.4398 N   0  0  0  0  0  0  0  0  0  0  0  0
   10.4637  -16.1284   24.8391 C   0  0  1  0  0  0  0  0  0  0  0  0
    9.5912  -14.9569   25.1004 C   0  0  0  0  0  0  0  0  0  0  0  0
    9.7090  -14.5109   26.4954 C   0  0  0  0  0  0  0  0  0  0  0  0
   10.7271  -14.9263   27.3189 C   0  0  0  0  0  0  0  0  0  0  0  0
   10.8166  -14.4849   28.6318 C   0  0  0  0  0  0  0  0  0  0  0  0
    9.8621  -13.6131   29.1122 C   0  0  0  0  0  0  0  0  0  0  0  0
    8.8319  -13.1853   28.2988 C   0  0  0  0  0  0  0  0  0  0  0  0
    8.7485  -13.6299   26.9887 C   0  0  0  0  0  0  0  0  0  0  0  0
   10.2065  -17.2567   25.7533 C   0  0  0  0  0  0  0  0  0  0  0  0
    9.3054  -18.2577   25.3389 O   0  0  0  0  0  0  0  0  0  0  0  0
   10.7314  -17.3927   26.8726 O   0  0  0  0  0  0  0  0  0  0  0  0
  2  5  1  0
  2  1  1  6
  3  2  1  0
  4  3  1  0
  5  6  2  0
  8  7  1  6
  8  9  1  0
 10  8  1  0
 11 10  1  1
 12 11  1  0
 12  5  1  0
 13 11  1  0
 13 14  2  0
 15 13  1  0
 16 15  1  0
 16 24  1  0
 16 17  1  1
 18 19  2  0
 18 17  1  0
 20 19  1  0
 21 20  2  0
 22 21  1  0
 22 23  2  0
 23 18  1  0
 24 26  2  0
 24 25  1  0
M  END
$$$$
