CLF.pdb
     RDKit          3D

 26 26  0  0  1  0  0  0  0  0999 V2000
    6.2608  -19.7685   21.6610 N   0  0  0  0  0  0  0  0  0  0  0  0
    6.1157  -18.3982   22.0837 C   0  0  1  0  0  0  0  0  0  0  0  0
    5.5531  -18.3316   23.4869 C   0  0  0  0  0  0  0  0  0  0  0  0
    6.7091  -19.1939   24.5865 S   0  0  0  0  0  0  0  0  0  0  0  0
    7.3974  -17.7073   21.9490 C   0  0  0  0  0  0  0  0  0  0  0  0
    8.4934  -18.2897   21.7239 O   0  0  0  0  0  0  0  0  0  0  0  0
    8.4897  -14.1740   19.0824 C   0  0  0  0  0  0  0  0  0  0  0  0
    7.6000  -13.9317   20.2551 C   0  0  2  0  0  0  0  0  0  0  0  0
    7.1149  -12.4950   20.1820 C   0  0  0  0  0  0  0  0  0  0  0  0
    8.2656  -14.1086   21.5788 C   0  0  0  0  0  0  0  0  0  0  0  0
    8.6644  -15.5371   21.8676 C   0  0  2  0  0  0  0  0  0  0  0  0
    7.4572  -16.3037   22.0712 N   0  0  0  0  0  0  0  0  0  0  0  0
    9.4486  -15.5137   23.1267 C   0  0  0  0  0  0  0  0  0  0  0  0
   10.5922  -15.0056   23.1022 O   0  0  0  0  0  0  0  0  0  0  0  0
    8.9330  -16.0464   24.3288 N   0  0  0  0  0  0  0  0  0  0  0  0
    9.6689  -16.0515   25.6006 C   0  0  1  0  0  0  0  0  0  0  0  0
    9.8679  -14.6431   26.0236 C   0  0  0  0  0  0  0  0  0  0  0  0
    8.5801  -13.9669   26.2315 C   0  0  0  0  0  0  0  0  0  0  0  0
    8.4737  -12.7736   26.9036 C   0  0  0  0  0  0  0  0  0  0  0  0
    7.2442  -12.1544   27.0812 C   0  0  0  0  0  0  0  0  0  0  0  0
    6.1120  -12.7541   26.5709 C   0  0  0  0  0  0  0  0  0  0  0  0
    6.2001  -13.9535   25.8929 C   0  0  0  0  0  0  0  0  0  0  0  0
    7.4310  -14.5664   25.7190 C   0  0  0  0  0  0  0  0  0  0  0  0
    8.9670  -16.8652   26.6106 C   0  0  0  0  0  0  0  0  0  0  0  0
    7.7914  -17.5389   26.2234 O   0  0  0  0  0  0  0  0  0  0  0  0
    9.3393  -17.0037   27.7892 O   0  0  0  0  0  0  0  0  0  0  0  0
  2  5  1  0
  2  1  1  1
  3  2  1  0
  4  3  1  0
  5  6  2  0
  8  7  1  6
  8  9  1  0
 10  8  1  0
 11 10  1  1
 12 11  1  0
 12  5  1  0
 13 11  1  0
 13 14  2  0
 15 13  1  0
 16 15  1  0
 16 24  1  0
 16 17  1  1
 18 19  2  0
 18 17  1  0
 20 19  1  0
 21 20  2  0
 22 21  1  0
 22 23  2  0
 23 18  1  0
 24 26  2  0
 24 25  1  0
M  END
$$$$
