CLF.pdb
     RDKit          3D

 26 26  0  0  1  0  0  0  0  0999 V2000
    5.9604  -19.9798   21.2037 N   0  0  0  0  0  0  0  0  0  0  0  0
    6.1059  -18.9279   22.1784 C   0  0  1  0  0  0  0  0  0  0  0  0
    6.3930  -19.5071   23.5466 C   0  0  0  0  0  0  0  0  0  0  0  0
    6.3145  -18.1506   24.7478 S   0  0  0  0  0  0  0  0  0  0  0  0
    7.1306  -17.9857   21.7307 C   0  0  0  0  0  0  0  0  0  0  0  0
    8.2096  -18.3275   21.1739 O   0  0  0  0  0  0  0  0  0  0  0  0
    7.5902  -11.8258   21.0524 C   0  0  0  0  0  0  0  0  0  0  0  0
    8.2140  -13.1809   21.0651 C   0  0  2  0  0  0  0  0  0  0  0  0
    8.7513  -13.4588   19.6726 C   0  0  0  0  0  0  0  0  0  0  0  0
    7.2733  -14.2876   21.4069 C   0  0  0  0  0  0  0  0  0  0  0  0
    7.9599  -15.6139   21.6365 C   0  0  2  0  0  0  0  0  0  0  0  0
    6.9414  -16.6002   21.9133 N   0  0  0  0  0  0  0  0  0  0  0  0
    8.8189  -15.4466   22.8344 C   0  0  0  0  0  0  0  0  0  0  0  0
    9.8714  -14.7791   22.7191 O   0  0  0  0  0  0  0  0  0  0  0  0
    8.4725  -16.0188   24.0783 N   0  0  0  0  0  0  0  0  0  0  0  0
    9.2119  -15.7720   25.3238 C   0  0  1  0  0  0  0  0  0  0  0  0
    8.2249  -15.5568   26.4108 C   0  0  0  0  0  0  0  0  0  0  0  0
    7.6067  -14.2279   26.3076 C   0  0  0  0  0  0  0  0  0  0  0  0
    6.2600  -14.0552   26.0985 C   0  0  0  0  0  0  0  0  0  0  0  0
    5.7020  -12.7874   26.0100 C   0  0  0  0  0  0  0  0  0  0  0  0
    6.5206  -11.6846   26.1352 C   0  0  0  0  0  0  0  0  0  0  0  0
    7.8763  -11.8394   26.3455 C   0  0  0  0  0  0  0  0  0  0  0  0
    8.4271  -13.1082   26.4330 C   0  0  0  0  0  0  0  0  0  0  0  0
   10.1507  -16.8742   25.6047 C   0  0  0  0  0  0  0  0  0  0  0  0
   10.1869  -17.9626   24.7103 O   0  0  0  0  0  0  0  0  0  0  0  0
   10.9211  -16.9147   26.5803 O   0  0  0  0  0  0  0  0  0  0  0  0
  2  5  1  0
  2  1  1  6
  3  2  1  0
  4  3  1  0
  5  6  2  0
  8  7  1  6
  8  9  1  0
 10  8  1  0
 11 10  1  1
 12 11  1  0
 12  5  1  0
 13 11  1  0
 13 14  2  0
 15 13  1  0
 16 15  1  0
 16 24  1  0
 16 17  1  1
 18 19  2  0
 18 17  1  0
 20 19  1  0
 21 20  2  0
 22 21  1  0
 22 23  2  0
 23 18  1  0
 24 26  2  0
 24 25  1  0
M  END
$$$$
