CLF.pdb
     RDKit          3D

 26 26  0  0  1  0  0  0  0  0999 V2000
    8.1305  -16.4454   19.3381 N   0  0  0  0  0  0  0  0  0  0  0  0
    7.6140  -16.8179   20.6312 C   0  0  1  0  0  0  0  0  0  0  0  0
    7.6739  -18.3186   20.8152 C   0  0  0  0  0  0  0  0  0  0  0  0
    9.4089  -18.7727   21.0853 S   0  0  0  0  0  0  0  0  0  0  0  0
    8.3323  -16.0856   21.6733 C   0  0  0  0  0  0  0  0  0  0  0  0
    9.5110  -15.6540   21.5487 O   0  0  0  0  0  0  0  0  0  0  0  0
    8.1694  -12.3665   24.8243 C   0  0  0  0  0  0  0  0  0  0  0  0
    6.9748  -13.2568   24.8993 C   0  0  2  0  0  0  0  0  0  0  0  0
    6.1999  -12.8909   26.1525 C   0  0  0  0  0  0  0  0  0  0  0  0
    7.2964  -14.7113   24.9852 C   0  0  0  0  0  0  0  0  0  0  0  0
    8.3611  -15.1527   24.0080 C   0  0  2  0  0  0  0  0  0  0  0  0
    7.7060  -15.8240   22.9094 N   0  0  0  0  0  0  0  0  0  0  0  0
    9.2253  -16.1196   24.7283 C   0  0  0  0  0  0  0  0  0  0  0  0
    8.7133  -17.1918   25.1220 O   0  0  0  0  0  0  0  0  0  0  0  0
   10.5906  -15.8524   24.9715 N   0  0  0  0  0  0  0  0  0  0  0  0
   11.4885  -16.7744   25.6806 C   0  0  1  0  0  0  0  0  0  0  0  0
   12.3322  -15.9766   26.6046 C   0  0  0  0  0  0  0  0  0  0  0  0
   11.5162  -15.3359   27.6450 C   0  0  0  0  0  0  0  0  0  0  0  0
   11.2600  -15.9349   28.8544 C   0  0  0  0  0  0  0  0  0  0  0  0
   10.4895  -15.3040   29.8213 C   0  0  0  0  0  0  0  0  0  0  0  0
    9.9745  -14.0524   29.5563 C   0  0  0  0  0  0  0  0  0  0  0  0
   10.2217  -13.4355   28.3463 C   0  0  0  0  0  0  0  0  0  0  0  0
   10.9920  -14.0710   27.3851 C   0  0  0  0  0  0  0  0  0  0  0  0
   10.7217  -17.8321   26.3649 C   0  0  0  0  0  0  0  0  0  0  0  0
    9.3153  -17.7935   26.2844 O   0  0  0  0  0  0  0  0  0  0  0  0
   11.2283  -18.7652   27.0127 O   0  0  0  0  0  0  0  0  0  0  0  0
  2  5  1  0
  2  1  1  6
  3  2  1  0
  4  3  1  0
  5  6  2  0
  8  7  1  1
  8  9  1  0
 10  8  1  0
 11 10  1  1
 12 11  1  0
 12  5  1  0
 13 11  1  0
 13 14  2  0
 15 13  1  0
 16 15  1  0
 16 24  1  0
 16 17  1  1
 18 19  2  0
 18 17  1  0
 20 19  1  0
 21 20  2  0
 22 21  1  0
 22 23  2  0
 23 18  1  0
 24 26  2  0
 24 25  1  0
M  END
$$$$
