CLF.pdb
     RDKit          3D

 26 26  0  0  1  0  0  0  0  0999 V2000
    6.3312  -20.2061   21.2482 N   0  0  0  0  0  0  0  0  0  0  0  0
    6.2999  -19.1088   22.1823 C   0  0  1  0  0  0  0  0  0  0  0  0
    6.5134  -19.6073   23.5950 C   0  0  0  0  0  0  0  0  0  0  0  0
    4.9241  -20.2320   24.2059 S   0  0  0  0  0  0  0  0  0  0  0  0
    7.2762  -18.0972   21.7802 C   0  0  0  0  0  0  0  0  0  0  0  0
    8.4097  -18.3630   21.2948 O   0  0  0  0  0  0  0  0  0  0  0  0
    7.3184  -11.9395   20.9600 C   0  0  0  0  0  0  0  0  0  0  0  0
    8.0446  -13.2344   21.1059 C   0  0  2  0  0  0  0  0  0  0  0  0
    8.7310  -13.5342   19.7853 C   0  0  0  0  0  0  0  0  0  0  0  0
    7.1676  -14.3988   21.4246 C   0  0  0  0  0  0  0  0  0  0  0  0
    7.9325  -15.6711   21.7066 C   0  0  2  0  0  0  0  0  0  0  0  0
    6.9726  -16.7279   21.9268 N   0  0  0  0  0  0  0  0  0  0  0  0
    8.7003  -15.4382   22.9543 C   0  0  0  0  0  0  0  0  0  0  0  0
    9.6442  -14.6168   22.9236 O   0  0  0  0  0  0  0  0  0  0  0  0
    8.3875  -16.1173   24.1526 N   0  0  0  0  0  0  0  0  0  0  0  0
    9.0782  -15.8816   25.4279 C   0  0  1  0  0  0  0  0  0  0  0  0
    8.0501  -15.6562   26.4740 C   0  0  0  0  0  0  0  0  0  0  0  0
    7.5448  -14.2772   26.4297 C   0  0  0  0  0  0  0  0  0  0  0  0
    8.3622  -13.1863   26.5999 C   0  0  0  0  0  0  0  0  0  0  0  0
    7.8583  -11.8941   26.5482 C   0  0  0  0  0  0  0  0  0  0  0  0
    6.5106  -11.7089   26.3215 C   0  0  0  0  0  0  0  0  0  0  0  0
    5.6742  -12.7935   26.1484 C   0  0  0  0  0  0  0  0  0  0  0  0
    6.1840  -14.0814   26.2012 C   0  0  0  0  0  0  0  0  0  0  0  0
    9.9913  -16.9955   25.7446 C   0  0  0  0  0  0  0  0  0  0  0  0
   10.0781  -18.0657   24.8319 O   0  0  0  0  0  0  0  0  0  0  0  0
   10.6980  -17.0611   26.7659 O   0  0  0  0  0  0  0  0  0  0  0  0
  2  5  1  0
  2  1  1  6
  3  2  1  0
  4  3  1  0
  5  6  2  0
  8  7  1  6
  8  9  1  0
 10  8  1  0
 11 10  1  1
 12 11  1  0
 12  5  1  0
 13 11  1  0
 13 14  2  0
 15 13  1  0
 16 15  1  0
 16 24  1  0
 16 17  1  1
 18 19  2  0
 18 17  1  0
 20 19  1  0
 21 20  2  0
 22 21  1  0
 22 23  2  0
 23 18  1  0
 24 26  2  0
 24 25  1  0
M  END
$$$$
