CLF.pdb
     RDKit          3D

 26 26  0  0  1  0  0  0  0  0999 V2000
    6.8929  -19.2352   20.0875 N   0  0  0  0  0  0  0  0  0  0  0  0
    6.6142  -18.3872   21.2193 C   0  0  1  0  0  0  0  0  0  0  0  0
    6.1525  -19.2124   22.4006 C   0  0  0  0  0  0  0  0  0  0  0  0
    5.3661  -18.0874   23.5861 S   0  0  0  0  0  0  0  0  0  0  0  0
    7.7893  -17.5699   21.5181 C   0  0  0  0  0  0  0  0  0  0  0  0
    8.9750  -17.9989   21.4852 O   0  0  0  0  0  0  0  0  0  0  0  0
    7.9796  -11.9826   20.2176 C   0  0  0  0  0  0  0  0  0  0  0  0
    8.4500  -13.3811   20.4376 C   0  0  2  0  0  0  0  0  0  0  0  0
    7.6855  -14.2841   19.4863 C   0  0  0  0  0  0  0  0  0  0  0  0
    8.2212  -13.8967   21.8190 C   0  0  0  0  0  0  0  0  0  0  0  0
    8.7397  -15.2997   22.0330 C   0  0  2  0  0  0  0  0  0  0  0  0
    7.6327  -16.2131   21.8693 N   0  0  0  0  0  0  0  0  0  0  0  0
    9.2261  -15.3647   23.4330 C   0  0  0  0  0  0  0  0  0  0  0  0
   10.2833  -14.7597   23.7208 O   0  0  0  0  0  0  0  0  0  0  0  0
    8.5268  -16.0857   24.4259 N   0  0  0  0  0  0  0  0  0  0  0  0
    8.8995  -16.0878   25.8472 C   0  0  1  0  0  0  0  0  0  0  0  0
    7.6770  -15.8200   26.6446 C   0  0  0  0  0  0  0  0  0  0  0  0
    7.3034  -14.4005   26.5785 C   0  0  0  0  0  0  0  0  0  0  0  0
    8.2009  -13.3895   26.8225 C   0  0  0  0  0  0  0  0  0  0  0  0
    7.8215  -12.0565   26.7481 C   0  0  0  0  0  0  0  0  0  0  0  0
    6.5173  -11.7481   26.4226 C   0  0  0  0  0  0  0  0  0  0  0  0
    5.6018  -12.7511   26.1743 C   0  0  0  0  0  0  0  0  0  0  0  0
    5.9873  -14.0803   26.2503 C   0  0  0  0  0  0  0  0  0  0  0  0
    9.5642  -17.3520   26.2142 C   0  0  0  0  0  0  0  0  0  0  0  0
   10.0120  -17.5084   27.5412 O   0  0  0  0  0  0  0  0  0  0  0  0
    9.7598  -18.3000   25.4331 O   0  0  0  0  0  0  0  0  0  0  0  0
  2  5  1  0
  2  1  1  6
  3  2  1  0
  4  3  1  0
  5  6  2  0
  8  7  1  1
  8  9  1  0
 10  8  1  0
 11 10  1  1
 12 11  1  0
 12  5  1  0
 13 11  1  0
 13 14  2  0
 15 13  1  0
 16 15  1  0
 16 24  1  0
 16 17  1  1
 18 19  2  0
 18 17  1  0
 20 19  1  0
 21 20  2  0
 22 21  1  0
 22 23  2  0
 23 18  1  0
 24 26  2  0
 24 25  1  0
M  END
$$$$
