CLF.pdb
     RDKit          3D

 26 26  0  0  1  0  0  0  0  0999 V2000
    6.0341  -19.8848   21.7243 N   0  0  0  0  0  0  0  0  0  0  0  0
    6.0498  -18.4469   21.8236 C   0  0  1  0  0  0  0  0  0  0  0  0
    5.4744  -17.9994   23.1496 C   0  0  0  0  0  0  0  0  0  0  0  0
    6.6412  -18.4859   24.4500 S   0  0  0  0  0  0  0  0  0  0  0  0
    7.4085  -17.9566   21.5961 C   0  0  0  0  0  0  0  0  0  0  0  0
    8.4246  -18.7004   21.5216 O   0  0  0  0  0  0  0  0  0  0  0  0
    6.3315  -14.2378   21.0879 C   0  0  0  0  0  0  0  0  0  0  0  0
    7.7559  -13.7966   21.1298 C   0  0  2  0  0  0  0  0  0  0  0  0
    7.8399  -12.4323   20.4691 C   0  0  0  0  0  0  0  0  0  0  0  0
    8.7004  -14.6983   20.4078 C   0  0  0  0  0  0  0  0  0  0  0  0
    8.9318  -16.0163   21.1095 C   0  0  2  0  0  0  0  0  0  0  0  0
    7.6423  -16.5742   21.4452 N   0  0  0  0  0  0  0  0  0  0  0  0
    9.6733  -15.7097   22.3572 C   0  0  0  0  0  0  0  0  0  0  0  0
   10.8267  -15.2337   22.2583 O   0  0  0  0  0  0  0  0  0  0  0  0
    9.1073  -15.9431   23.6300 N   0  0  0  0  0  0  0  0  0  0  0  0
    9.7927  -15.6438   24.8948 C   0  0  1  0  0  0  0  0  0  0  0  0
    8.7699  -15.2266   25.8857 C   0  0  0  0  0  0  0  0  0  0  0  0
    9.3940  -14.8414   27.1589 C   0  0  0  0  0  0  0  0  0  0  0  0
    9.5466  -13.5300   27.5385 C   0  0  0  0  0  0  0  0  0  0  0  0
   10.1357  -13.1951   28.7498 C   0  0  0  0  0  0  0  0  0  0  0  0
   10.5739  -14.2027   29.5832 C   0  0  0  0  0  0  0  0  0  0  0  0
   10.4287  -15.5261   29.2180 C   0  0  0  0  0  0  0  0  0  0  0  0
    9.8396  -15.8537   28.0069 C   0  0  0  0  0  0  0  0  0  0  0  0
   10.5958  -16.7967   25.3427 C   0  0  0  0  0  0  0  0  0  0  0  0
   11.8332  -16.5440   25.9678 O   0  0  0  0  0  0  0  0  0  0  0  0
   10.2589  -17.9866   25.2100 O   0  0  0  0  0  0  0  0  0  0  0  0
  2  5  1  0
  2  1  1  1
  3  2  1  0
  4  3  1  0
  5  6  2  0
  8  7  1  6
  8  9  1  0
 10  8  1  0
 11 10  1  1
 12 11  1  0
 12  5  1  0
 13 11  1  0
 13 14  2  0
 15 13  1  0
 16 15  1  0
 16 24  1  0
 16 17  1  1
 18 19  2  0
 18 17  1  0
 20 19  1  0
 21 20  2  0
 22 21  1  0
 22 23  2  0
 23 18  1  0
 24 26  2  0
 24 25  1  0
M  END
$$$$
