CLF.pdb
     RDKit          3D

 26 26  0  0  1  0  0  0  0  0999 V2000
   13.2226  -17.0169   19.8188 N   0  0  0  0  0  0  0  0  0  0  0  0
   12.1030  -17.6453   20.4741 C   0  0  1  0  0  0  0  0  0  0  0  0
   12.5541  -18.8709   21.2384 C   0  0  0  0  0  0  0  0  0  0  0  0
   11.0950  -19.5882   22.0420 S   0  0  0  0  0  0  0  0  0  0  0  0
   11.4185  -16.6662   21.3174 C   0  0  0  0  0  0  0  0  0  0  0  0
   12.0114  -15.8258   22.0477 O   0  0  0  0  0  0  0  0  0  0  0  0
    6.0683  -14.0479   20.5908 C   0  0  0  0  0  0  0  0  0  0  0  0
    7.3874  -14.1516   21.2798 C   0  0  2  0  0  0  0  0  0  0  0  0
    8.4134  -13.4206   20.4326 C   0  0  0  0  0  0  0  0  0  0  0  0
    7.8774  -15.5491   21.4626 C   0  0  0  0  0  0  0  0  0  0  0  0
    9.2566  -15.6298   22.0746 C   0  0  2  0  0  0  0  0  0  0  0  0
   10.0093  -16.6243   21.3460 N   0  0  0  0  0  0  0  0  0  0  0  0
    9.0745  -16.0818   23.4758 C   0  0  0  0  0  0  0  0  0  0  0  0
   10.0079  -16.7139   24.0196 O   0  0  0  0  0  0  0  0  0  0  0  0
    7.8860  -15.8144   24.1904 N   0  0  0  0  0  0  0  0  0  0  0  0
    7.6406  -16.2712   25.5652 C   0  0  1  0  0  0  0  0  0  0  0  0
    6.4642  -15.5358   26.0922 C   0  0  0  0  0  0  0  0  0  0  0  0
    6.7631  -14.1061   26.2519 C   0  0  0  0  0  0  0  0  0  0  0  0
    5.8994  -13.1214   25.8378 C   0  0  0  0  0  0  0  0  0  0  0  0
    6.2055  -11.7780   26.0059 C   0  0  0  0  0  0  0  0  0  0  0  0
    7.4008  -11.4323   26.6004 C   0  0  0  0  0  0  0  0  0  0  0  0
    8.2809  -12.4086   27.0226 C   0  0  0  0  0  0  0  0  0  0  0  0
    7.9691  -13.7482   26.8518 C   0  0  0  0  0  0  0  0  0  0  0  0
    7.4750  -17.7359   25.6105 C   0  0  0  0  0  0  0  0  0  0  0  0
    7.5366  -18.3748   26.8651 O   0  0  0  0  0  0  0  0  0  0  0  0
    7.2820  -18.4562   24.6150 O   0  0  0  0  0  0  0  0  0  0  0  0
  2  5  1  0
  2  1  1  1
  3  2  1  0
  4  3  1  0
  5  6  2  0
  8  7  1  6
  8  9  1  0
 10  8  1  0
 11 10  1  6
 12 11  1  0
 12  5  1  0
 13 11  1  0
 13 14  2  0
 15 13  1  0
 16 15  1  0
 16 24  1  0
 16 17  1  6
 18 19  2  0
 18 17  1  0
 20 19  1  0
 21 20  2  0
 22 21  1  0
 22 23  2  0
 23 18  1  0
 24 26  2  0
 24 25  1  0
M  END
$$$$
