CLF.pdb
     RDKit          3D

 26 26  0  0  1  0  0  0  0  0999 V2000
    8.3396  -19.2621   19.6816 N   0  0  0  0  0  0  0  0  0  0  0  0
    7.7673  -18.5973   20.8253 C   0  0  1  0  0  0  0  0  0  0  0  0
    7.5002  -19.5881   21.9374 C   0  0  0  0  0  0  0  0  0  0  0  0
    6.3927  -18.7914   23.1323 S   0  0  0  0  0  0  0  0  0  0  0  0
    8.6387  -17.4977   21.2375 C   0  0  0  0  0  0  0  0  0  0  0  0
    9.8984  -17.5371   21.1853 O   0  0  0  0  0  0  0  0  0  0  0  0
    8.9619  -13.4207   19.5526 C   0  0  0  0  0  0  0  0  0  0  0  0
    7.7507  -13.6906   20.3806 C   0  0  2  0  0  0  0  0  0  0  0  0
    6.8387  -12.4812   20.2790 C   0  0  0  0  0  0  0  0  0  0  0  0
    8.0330  -13.9130   21.8289 C   0  0  0  0  0  0  0  0  0  0  0  0
    8.8630  -15.1464   22.0994 C   0  0  2  0  0  0  0  0  0  0  0  0
    8.0778  -16.3011   21.7296 N   0  0  0  0  0  0  0  0  0  0  0  0
    9.1190  -15.1749   23.5604 C   0  0  0  0  0  0  0  0  0  0  0  0
    9.7696  -14.2326   24.0656 O   0  0  0  0  0  0  0  0  0  0  0  0
    8.6484  -16.2299   24.3730 N   0  0  0  0  0  0  0  0  0  0  0  0
    8.7942  -16.2610   25.8347 C   0  0  1  0  0  0  0  0  0  0  0  0
    7.4904  -15.8860   26.4361 C   0  0  0  0  0  0  0  0  0  0  0  0
    7.3148  -14.4273   26.4496 C   0  0  0  0  0  0  0  0  0  0  0  0
    8.2762  -13.5732   26.9328 C   0  0  0  0  0  0  0  0  0  0  0  0
    8.0854  -12.1984   26.9287 C   0  0  0  0  0  0  0  0  0  0  0  0
    6.9062  -11.6869   26.4290 C   0  0  0  0  0  0  0  0  0  0  0  0
    5.9290  -12.5303   25.9396 C   0  0  0  0  0  0  0  0  0  0  0  0
    6.1259  -13.9023   25.9464 C   0  0  0  0  0  0  0  0  0  0  0  0
    9.2823  -17.5774   26.2861 C   0  0  0  0  0  0  0  0  0  0  0  0
    9.5602  -18.5553   25.3102 O   0  0  0  0  0  0  0  0  0  0  0  0
    9.4699  -17.8917   27.4748 O   0  0  0  0  0  0  0  0  0  0  0  0
  2  5  1  0
  2  1  1  6
  3  2  1  0
  4  3  1  0
  5  6  2  0
  8  7  1  6
  8  9  1  0
 10  8  1  0
 11 10  1  1
 12 11  1  0
 12  5  1  0
 13 11  1  0
 13 14  2  0
 15 13  1  0
 16 15  1  0
 16 24  1  0
 16 17  1  1
 18 19  2  0
 18 17  1  0
 20 19  1  0
 21 20  2  0
 22 21  1  0
 22 23  2  0
 23 18  1  0
 24 26  2  0
 24 25  1  0
M  END
$$$$
