CLF.pdb
     RDKit          3D

 26 26  0  0  1  0  0  0  0  0999 V2000
    7.6616  -18.8092   21.2043 N   0  0  0  0  0  0  0  0  0  0  0  0
    8.9299  -18.6513   20.5378 C   0  0  1  0  0  0  0  0  0  0  0  0
    8.7733  -18.8431   19.0450 C   0  0  0  0  0  0  0  0  0  0  0  0
    7.9365  -20.4296   18.7772 S   0  0  0  0  0  0  0  0  0  0  0  0
    9.5082  -17.3550   20.8894 C   0  0  0  0  0  0  0  0  0  0  0  0
   10.7019  -17.0256   20.6494 O   0  0  0  0  0  0  0  0  0  0  0  0
    8.9028  -13.3188   19.4511 C   0  0  0  0  0  0  0  0  0  0  0  0
    7.7977  -13.8890   20.2752 C   0  0  2  0  0  0  0  0  0  0  0  0
    6.6232  -12.9295   20.2061 C   0  0  0  0  0  0  0  0  0  0  0  0
    8.1371  -14.0718   21.7168 C   0  0  0  0  0  0  0  0  0  0  0  0
    9.2217  -15.0963   21.9561 C   0  0  2  0  0  0  0  0  0  0  0  0
    8.7177  -16.3839   21.5380 N   0  0  0  0  0  0  0  0  0  0  0  0
    9.4707  -15.1186   23.4184 C   0  0  0  0  0  0  0  0  0  0  0  0
   10.1489  -14.1924   23.9173 O   0  0  0  0  0  0  0  0  0  0  0  0
    8.9635  -16.1500   24.2391 N   0  0  0  0  0  0  0  0  0  0  0  0
    9.1768  -16.2162   25.6914 C   0  0  1  0  0  0  0  0  0  0  0  0
    7.8704  -15.9948   26.3596 C   0  0  0  0  0  0  0  0  0  0  0  0
    7.5340  -14.5651   26.4016 C   0  0  0  0  0  0  0  0  0  0  0  0
    8.3900  -13.6207   26.9138 C   0  0  0  0  0  0  0  0  0  0  0  0
    8.0480  -12.2757   26.9363 C   0  0  0  0  0  0  0  0  0  0  0  0
    6.8241  -11.8869   26.4334 C   0  0  0  0  0  0  0  0  0  0  0  0
    5.9512  -12.8224   25.9149 C   0  0  0  0  0  0  0  0  0  0  0  0
    6.2990  -14.1639   25.8954 C   0  0  0  0  0  0  0  0  0  0  0  0
    9.8123  -17.4915   26.0716 C   0  0  0  0  0  0  0  0  0  0  0  0
   10.1871  -18.3811   25.0449 O   0  0  0  0  0  0  0  0  0  0  0  0
   10.0455  -17.8435   27.2415 O   0  0  0  0  0  0  0  0  0  0  0  0
  2  5  1  0
  2  1  1  1
  3  2  1  0
  4  3  1  0
  5  6  2  0
  8  7  1  6
  8  9  1  0
 10  8  1  0
 11 10  1  1
 12 11  1  0
 12  5  1  0
 13 11  1  0
 13 14  2  0
 15 13  1  0
 16 15  1  0
 16 24  1  0
 16 17  1  1
 18 19  2  0
 18 17  1  0
 20 19  1  0
 21 20  2  0
 22 21  1  0
 22 23  2  0
 23 18  1  0
 24 26  2  0
 24 25  1  0
M  END
$$$$
