CLF.pdb
     RDKit          3D

 26 26  0  0  1  0  0  0  0  0999 V2000
    7.5207  -17.0193   20.2451 N   0  0  0  0  0  0  0  0  0  0  0  0
    7.2527  -16.9922   21.6611 C   0  0  1  0  0  0  0  0  0  0  0  0
    7.4253  -18.3706   22.2611 C   0  0  0  0  0  0  0  0  0  0  0  0
    9.2025  -18.7261   22.3251 S   0  0  0  0  0  0  0  0  0  0  0  0
    8.0965  -15.9822   22.2985 C   0  0  0  0  0  0  0  0  0  0  0  0
    9.1378  -15.4994   21.7754 O   0  0  0  0  0  0  0  0  0  0  0  0
    7.0050  -11.8614   24.0561 C   0  0  0  0  0  0  0  0  0  0  0  0
    6.5624  -13.0643   24.8194 C   0  0  2  0  0  0  0  0  0  0  0  0
    5.7432  -12.5873   26.0053 C   0  0  0  0  0  0  0  0  0  0  0  0
    7.6784  -13.8964   25.3569 C   0  0  0  0  0  0  0  0  0  0  0  0
    8.5489  -14.5051   24.2823 C   0  0  2  0  0  0  0  0  0  0  0  0
    7.7619  -15.4899   23.5769 N   0  0  0  0  0  0  0  0  0  0  0  0
    9.6722  -15.1809   24.9767 C   0  0  0  0  0  0  0  0  0  0  0  0
   10.6223  -14.4777   25.3881 O   0  0  0  0  0  0  0  0  0  0  0  0
    9.6842  -16.5791   25.1760 N   0  0  0  0  0  0  0  0  0  0  0  0
   10.6555  -17.2725   26.0331 C   0  0  1  0  0  0  0  0  0  0  0  0
   10.0426  -17.4518   27.3727 C   0  0  0  0  0  0  0  0  0  0  0  0
   10.3073  -16.2915   28.2343 C   0  0  0  0  0  0  0  0  0  0  0  0
   11.3078  -16.2849   29.1757 C   0  0  0  0  0  0  0  0  0  0  0  0
   11.5387  -15.1725   29.9731 C   0  0  0  0  0  0  0  0  0  0  0  0
   10.7450  -14.0562   29.8121 C   0  0  0  0  0  0  0  0  0  0  0  0
    9.7349  -14.0452   28.8712 C   0  0  0  0  0  0  0  0  0  0  0  0
    9.5097  -15.1594   28.0781 C   0  0  0  0  0  0  0  0  0  0  0  0
   11.0856  -18.5425   25.4190 C   0  0  0  0  0  0  0  0  0  0  0  0
   10.5450  -18.8931   24.1657 O   0  0  0  0  0  0  0  0  0  0  0  0
   11.8982  -19.3342   25.9288 O   0  0  0  0  0  0  0  0  0  0  0  0
  2  5  1  0
  2  1  1  6
  3  2  1  0
  4  3  1  0
  5  6  2  0
  8  7  1  1
  8  9  1  0
 10  8  1  0
 11 10  1  1
 12 11  1  0
 12  5  1  0
 13 11  1  0
 13 14  2  0
 15 13  1  0
 16 15  1  0
 16 24  1  0
 16 17  1  1
 18 19  2  0
 18 17  1  0
 20 19  1  0
 21 20  2  0
 22 21  1  0
 22 23  2  0
 23 18  1  0
 24 26  2  0
 24 25  1  0
M  END
$$$$
