IEK.pdb
     RDKit          3D

 27 26  0  0  1  0  0  0  0  0999 V2000
    6.4377  -11.2044   26.9441 C   0  0  0  0  0  0  0  0  0  0  0  0
    5.8203  -12.3554   26.1651 C   0  0  0  0  0  0  0  0  0  0  0  0
    6.9017  -13.3055   25.6763 C   0  0  2  0  0  0  0  0  0  0  0  0
    7.8457  -12.5954   24.7354 C   0  0  0  0  0  0  0  0  0  0  0  0
    6.3577  -14.5569   25.0617 C   0  0  2  0  0  0  0  0  0  0  0  0
    5.4875  -15.2059   26.0254 N   0  0  0  0  0  0  0  0  0  0  0  0
    7.4608  -15.4362   24.5967 C   0  0  0  0  0  0  0  0  0  0  0  0
    8.0401  -16.2177   25.3927 O   0  0  0  0  0  0  0  0  0  0  0  0
    7.9311  -15.4524   23.2372 N   0  0  0  0  0  0  0  0  0  0  0  0
    8.8916  -16.3919   22.7679 C   0  0  1  0  0  0  0  0  0  0  0  0
    9.2329  -16.3208   21.3124 C   0  0  0  0  0  0  0  0  0  0  0  0
   10.1795  -17.3636   20.8045 C   0  0  0  0  0  0  0  0  0  0  0  0
   10.4767  -17.3095   19.3760 C   0  0  0  0  0  0  0  0  0  0  0  0
   11.5386  -17.8754   18.9480 O   0  0  0  0  0  0  0  0  0  0  0  0
   10.1813  -16.2982   23.5358 C   0  0  0  0  0  0  0  0  0  0  0  0
   10.7606  -15.1974   23.6908 O   0  0  0  0  0  0  0  0  0  0  0  0
    9.6316  -16.6592   18.4883 O   0  0  0  0  0  0  0  0  0  0  0  0
   10.7036  -17.4919   24.0707 N   0  0  0  0  0  0  0  0  0  0  0  0
   11.8774  -17.4204   25.0489 C   0  0  1  0  0  0  0  0  0  0  0  0
   11.4618  -18.3314   26.1462 C   0  0  0  0  0  0  0  0  0  0  0  0
   12.3347  -18.7310   27.2387 C   0  0  0  0  0  0  0  0  0  0  0  0
   11.8734  -19.7022   28.2531 C   0  0  0  0  0  0  0  0  0  0  0  0
   12.7893  -19.8881   29.4242 C   0  0  0  0  0  0  0  0  0  0  0  0
   12.0925  -20.6736   30.4304 N   0  0  0  0  0  0  0  0  0  0  0  0
   13.0166  -17.8878   24.2359 C   0  0  0  0  0  0  0  0  0  0  0  0
   12.9164  -18.4879   23.1571 O   0  0  0  0  0  0  0  0  0  0  0  0
   14.3615  -17.6732   24.6481 O   0  0  0  0  0  0  0  0  0  0  0  0
  1  2  1  0
  2  3  1  0
  3  4  1  6
  5  3  1  0
  5  6  1  1
  7  5  1  0
  7  8  2  0
  9  7  1  0
 10  9  1  0
 10 11  1  6
 12 11  1  0
 12 13  1  0
 13 14  2  0
 15 10  1  0
 16 15  2  0
 17 13  1  0
 18 15  1  0
 19 25  1  0
 19 18  1  0
 19 20  1  1
 21 20  1  0
 21 22  1  0
 23 22  1  0
 23 24  1  0
 25 27  1  0
 26 25  2  0
M  END
$$$$
