IEK.pdb
     RDKit          3D

 27 26  0  0  1  0  0  0  0  0999 V2000
    6.4732  -12.0958   19.5422 C   0  0  0  0  0  0  0  0  0  0  0  0
    7.3889  -13.1968   19.0301 C   0  0  0  0  0  0  0  0  0  0  0  0
    7.6553  -14.2172   20.1250 C   0  0  2  0  0  0  0  0  0  0  0  0
    8.2271  -13.5437   21.3498 C   0  0  0  0  0  0  0  0  0  0  0  0
    8.5162  -15.3563   19.6768 C   0  0  2  0  0  0  0  0  0  0  0  0
    7.8125  -16.0888   18.6399 N   0  0  0  0  0  0  0  0  0  0  0  0
    8.8976  -16.2117   20.8297 C   0  0  0  0  0  0  0  0  0  0  0  0
    8.2134  -17.2203   21.1370 O   0  0  0  0  0  0  0  0  0  0  0  0
   10.0473  -15.9502   21.6541 N   0  0  0  0  0  0  0  0  0  0  0  0
   10.6291  -16.9388   22.4965 C   0  0  1  0  0  0  0  0  0  0  0  0
   12.1218  -16.9219   22.6062 C   0  0  0  0  0  0  0  0  0  0  0  0
   12.7346  -18.0021   23.4422 C   0  0  0  0  0  0  0  0  0  0  0  0
   14.1936  -18.0593   23.4356 C   0  0  0  0  0  0  0  0  0  0  0  0
   14.7847  -18.7569   24.3272 O   0  0  0  0  0  0  0  0  0  0  0  0
   10.0764  -16.8730   23.8937 C   0  0  0  0  0  0  0  0  0  0  0  0
   10.0020  -15.7821   24.5067 O   0  0  0  0  0  0  0  0  0  0  0  0
   14.9373  -17.3741   22.4855 O   0  0  0  0  0  0  0  0  0  0  0  0
    9.6472  -18.0811   24.4768 N   0  0  0  0  0  0  0  0  0  0  0  0
    9.0723  -18.0627   25.8942 C   0  0  1  0  0  0  0  0  0  0  0  0
    8.2364  -19.2899   25.9382 C   0  0  0  0  0  0  0  0  0  0  0  0
    7.5473  -19.7556   27.1314 C   0  0  0  0  0  0  0  0  0  0  0  0
    6.7158  -20.9771   27.0911 C   0  0  0  0  0  0  0  0  0  0  0  0
    6.1302  -21.3963   28.4049 C   0  0  0  0  0  0  0  0  0  0  0  0
    5.3120  -22.5784   28.1853 N   0  0  0  0  0  0  0  0  0  0  0  0
   10.2791  -18.0884   26.7428 C   0  0  0  0  0  0  0  0  0  0  0  0
   11.3873  -18.5089   26.3836 O   0  0  0  0  0  0  0  0  0  0  0  0
   10.2550  -17.6130   28.0837 O   0  0  0  0  0  0  0  0  0  0  0  0
  1  2  1  0
  2  3  1  0
  3  4  1  1
  5  3  1  0
  5  6  1  6
  7  5  1  0
  7  8  2  0
  9  7  1  0
 10  9  1  0
 10 11  1  1
 12 11  1  0
 12 13  1  0
 13 14  2  0
 15 10  1  0
 16 15  2  0
 17 13  1  0
 18 15  1  0
 19 25  1  0
 19 18  1  0
 19 20  1  1
 21 20  1  0
 21 22  1  0
 23 22  1  0
 23 24  1  0
 25 27  1  0
 26 25  2  0
M  END
$$$$
