IEK.pdb
     RDKit          3D

 27 26  0  0  1  0  0  0  0  0999 V2000
    6.1908  -11.8814   26.3136 C   0  0  0  0  0  0  0  0  0  0  0  0
    5.7454  -13.1436   25.5914 C   0  0  0  0  0  0  0  0  0  0  0  0
    6.9515  -13.9700   25.1750 C   0  0  2  0  0  0  0  0  0  0  0  0
    7.8763  -13.1557   24.3018 C   0  0  0  0  0  0  0  0  0  0  0  0
    6.5852  -15.2658   24.5221 C   0  0  2  0  0  0  0  0  0  0  0  0
    5.6712  -15.9815   25.3936 N   0  0  0  0  0  0  0  0  0  0  0  0
    7.8025  -16.0510   24.1934 C   0  0  0  0  0  0  0  0  0  0  0  0
    8.4228  -16.6811   25.0868 O   0  0  0  0  0  0  0  0  0  0  0  0
    8.3426  -16.1407   22.8630 N   0  0  0  0  0  0  0  0  0  0  0  0
    9.5307  -16.8647   22.5636 C   0  0  1  0  0  0  0  0  0  0  0  0
    9.9172  -16.9373   21.1194 C   0  0  0  0  0  0  0  0  0  0  0  0
    8.9192  -17.5698   20.2000 C   0  0  0  0  0  0  0  0  0  0  0  0
    9.2439  -17.5169   18.7774 C   0  0  0  0  0  0  0  0  0  0  0  0
   10.0390  -18.3928   18.2962 O   0  0  0  0  0  0  0  0  0  0  0  0
   10.7148  -16.3250   23.3178 C   0  0  0  0  0  0  0  0  0  0  0  0
   11.0855  -15.1366   23.1707 O   0  0  0  0  0  0  0  0  0  0  0  0
    8.7071  -16.5395   17.9517 O   0  0  0  0  0  0  0  0  0  0  0  0
   11.3813  -17.2062   24.1913 N   0  0  0  0  0  0  0  0  0  0  0  0
   12.3217  -16.6344   25.2537 C   0  0  1  0  0  0  0  0  0  0  0  0
   11.4179  -16.3741   26.4034 C   0  0  0  0  0  0  0  0  0  0  0  0
   11.8773  -15.9126   27.7039 C   0  0  0  0  0  0  0  0  0  0  0  0
   10.9085  -15.4905   28.7375 C   0  0  0  0  0  0  0  0  0  0  0  0
   11.5118  -15.0082   30.0213 C   0  0  0  0  0  0  0  0  0  0  0  0
   10.4467  -14.4761   30.8564 N   0  0  0  0  0  0  0  0  0  0  0  0
   13.3000  -17.7212   25.4513 C   0  0  0  0  0  0  0  0  0  0  0  0
   13.0578  -18.7966   26.0159 O   0  0  0  0  0  0  0  0  0  0  0  0
   14.6408  -17.6074   24.9890 O   0  0  0  0  0  0  0  0  0  0  0  0
  1  2  1  0
  2  3  1  0
  3  4  1  6
  5  3  1  0
  5  6  1  1
  7  5  1  0
  7  8  2  0
  9  7  1  0
 10  9  1  0
 10 11  1  6
 12 11  1  0
 12 13  1  0
 13 14  2  0
 15 10  1  0
 16 15  2  0
 17 13  1  0
 18 15  1  0
 19 25  1  0
 19 18  1  0
 19 20  1  1
 21 20  1  0
 21 22  1  0
 23 22  1  0
 23 24  1  0
 25 27  1  0
 26 25  2  0
M  END
$$$$
