IEK.pdb
     RDKit          3D

 27 26  0  0  1  0  0  0  0  0999 V2000
    6.2712  -11.3954   26.7121 C   0  0  0  0  0  0  0  0  0  0  0  0
    5.6747  -12.5886   25.9815 C   0  0  0  0  0  0  0  0  0  0  0  0
    6.7738  -13.5339   25.5240 C   0  0  2  0  0  0  0  0  0  0  0  0
    7.7903  -12.7982   24.6836 C   0  0  0  0  0  0  0  0  0  0  0  0
    6.2559  -14.7466   24.8162 C   0  0  2  0  0  0  0  0  0  0  0  0
    5.3151  -15.4256   25.6886 N   0  0  0  0  0  0  0  0  0  0  0  0
    7.3761  -15.6210   24.3840 C   0  0  0  0  0  0  0  0  0  0  0  0
    7.9859  -16.3430   25.2127 O   0  0  0  0  0  0  0  0  0  0  0  0
    7.8297  -15.6985   23.0208 N   0  0  0  0  0  0  0  0  0  0  0  0
    8.9578  -16.4731   22.6298 C   0  0  1  0  0  0  0  0  0  0  0  0
    9.1937  -16.6051   21.1576 C   0  0  0  0  0  0  0  0  0  0  0  0
   10.3684  -17.4387   20.7494 C   0  0  0  0  0  0  0  0  0  0  0  0
   10.5974  -17.5520   19.3118 C   0  0  0  0  0  0  0  0  0  0  0  0
   10.2674  -16.5749   18.5586 O   0  0  0  0  0  0  0  0  0  0  0  0
   10.2287  -15.9517   23.2422 C   0  0  0  0  0  0  0  0  0  0  0  0
   10.5110  -14.7311   23.2003 O   0  0  0  0  0  0  0  0  0  0  0  0
   11.1615  -18.6932   18.7598 O   0  0  0  0  0  0  0  0  0  0  0  0
   11.0792  -16.8878   23.8620 N   0  0  0  0  0  0  0  0  0  0  0  0
   12.1516  -16.3927   24.8340 C   0  0  1  0  0  0  0  0  0  0  0  0
   11.4849  -16.4957   26.1574 C   0  0  0  0  0  0  0  0  0  0  0  0
   11.8643  -15.7039   27.3169 C   0  0  0  0  0  0  0  0  0  0  0  0
   11.1612  -15.8734   28.6060 C   0  0  0  0  0  0  0  0  0  0  0  0
   11.7020  -15.0596   29.7418 C   0  0  0  0  0  0  0  0  0  0  0  0
   10.9110  -15.3465   30.9280 N   0  0  0  0  0  0  0  0  0  0  0  0
   13.2638  -17.3362   24.6106 C   0  0  0  0  0  0  0  0  0  0  0  0
   13.1335  -18.5010   24.2101 O   0  0  0  0  0  0  0  0  0  0  0  0
   14.6158  -16.9608   24.8470 O   0  0  0  0  0  0  0  0  0  0  0  0
  1  2  1  0
  2  3  1  0
  3  4  1  6
  5  3  1  0
  5  6  1  1
  7  5  1  0
  7  8  2  0
  9  7  1  0
 10  9  1  0
 10 11  1  6
 12 11  1  0
 12 13  1  0
 13 14  2  0
 15 10  1  0
 16 15  2  0
 17 13  1  0
 18 15  1  0
 19 25  1  0
 19 18  1  0
 19 20  1  1
 21 20  1  0
 21 22  1  0
 23 22  1  0
 23 24  1  0
 25 27  1  0
 26 25  2  0
M  END
$$$$
