IEK.pdb
     RDKit          3D

 27 26  0  0  1  0  0  0  0  0999 V2000
    7.9202  -12.0950   19.2393 C   0  0  0  0  0  0  0  0  0  0  0  0
    6.9784  -13.2890   19.2601 C   0  0  0  0  0  0  0  0  0  0  0  0
    7.4699  -14.3350   20.2477 C   0  0  2  0  0  0  0  0  0  0  0  0
    6.9365  -14.0498   21.6315 C   0  0  0  0  0  0  0  0  0  0  0  0
    8.9586  -14.4875   20.2576 C   0  0  2  0  0  0  0  0  0  0  0  0
    9.4113  -14.7025   18.8952 N   0  0  0  0  0  0  0  0  0  0  0  0
    9.3689  -15.5768   21.1803 C   0  0  0  0  0  0  0  0  0  0  0  0
    8.5929  -15.9834   22.0816 O   0  0  0  0  0  0  0  0  0  0  0  0
   10.6517  -16.2242   21.1084 N   0  0  0  0  0  0  0  0  0  0  0  0
   11.0145  -17.3064   21.9585 C   0  0  1  0  0  0  0  0  0  0  0  0
   12.4693  -17.6552   22.0041 C   0  0  0  0  0  0  0  0  0  0  0  0
   12.8330  -18.8664   22.8056 C   0  0  0  0  0  0  0  0  0  0  0  0
   14.2583  -19.1743   22.8794 C   0  0  0  0  0  0  0  0  0  0  0  0
   14.8019  -19.8020   21.9091 O   0  0  0  0  0  0  0  0  0  0  0  0
   10.5644  -17.0751   23.3748 C   0  0  0  0  0  0  0  0  0  0  0  0
   10.8543  -16.0155   23.9783 O   0  0  0  0  0  0  0  0  0  0  0  0
   15.0207  -18.7989   23.9762 O   0  0  0  0  0  0  0  0  0  0  0  0
    9.8068  -18.0927   23.9868 N   0  0  0  0  0  0  0  0  0  0  0  0
    9.4053  -17.9434   25.4552 C   0  0  1  0  0  0  0  0  0  0  0  0
    8.4002  -19.0207   25.6443 C   0  0  0  0  0  0  0  0  0  0  0  0
    7.8813  -19.4227   26.9421 C   0  0  0  0  0  0  0  0  0  0  0  0
    6.9083  -20.5300   27.0529 C   0  0  0  0  0  0  0  0  0  0  0  0
    6.3046  -20.7181   28.4112 C   0  0  0  0  0  0  0  0  0  0  0  0
    5.2733  -21.7390   28.3166 N   0  0  0  0  0  0  0  0  0  0  0  0
   10.6817  -18.1364   26.1701 C   0  0  0  0  0  0  0  0  0  0  0  0
   11.6407  -18.7920   25.7406 O   0  0  0  0  0  0  0  0  0  0  0  0
   10.9106  -17.5604   27.4509 O   0  0  0  0  0  0  0  0  0  0  0  0
  1  2  1  0
  2  3  1  0
  3  4  1  1
  5  3  1  0
  5  6  1  6
  7  5  1  0
  7  8  2  0
  9  7  1  0
 10  9  1  0
 10 11  1  1
 12 11  1  0
 12 13  1  0
 13 14  2  0
 15 10  1  0
 16 15  2  0
 17 13  1  0
 18 15  1  0
 19 25  1  0
 19 18  1  0
 19 20  1  1
 21 20  1  0
 21 22  1  0
 23 22  1  0
 23 24  1  0
 25 27  1  0
 26 25  2  0
M  END
$$$$
