IEK.pdb
     RDKit          3D

 27 26  0  0  1  0  0  0  0  0999 V2000
    6.8156  -10.9254   27.2029 C   0  0  0  0  0  0  0  0  0  0  0  0
    6.0037  -11.9548   26.4319 C   0  0  0  0  0  0  0  0  0  0  0  0
    6.9142  -13.0327   25.8660 C   0  0  2  0  0  0  0  0  0  0  0  0
    8.0223  -12.4146   25.0470 C   0  0  0  0  0  0  0  0  0  0  0  0
    6.1805  -14.0802   25.0888 C   0  0  2  0  0  0  0  0  0  0  0  0
    5.1870  -14.6886   25.9547 N   0  0  0  0  0  0  0  0  0  0  0  0
    7.1288  -15.0692   24.5152 C   0  0  0  0  0  0  0  0  0  0  0  0
    7.6299  -15.9716   25.2324 O   0  0  0  0  0  0  0  0  0  0  0  0
    7.5299  -15.0614   23.1335 N   0  0  0  0  0  0  0  0  0  0  0  0
    8.4771  -15.9819   22.6036 C   0  0  1  0  0  0  0  0  0  0  0  0
    8.7755  -15.8591   21.1421 C   0  0  0  0  0  0  0  0  0  0  0  0
    9.7801  -16.8222   20.5902 C   0  0  0  0  0  0  0  0  0  0  0  0
    9.3124  -17.6709   19.4980 C   0  0  0  0  0  0  0  0  0  0  0  0
    9.9165  -18.7740   19.2758 O   0  0  0  0  0  0  0  0  0  0  0  0
    9.7887  -15.9126   23.3362 C   0  0  0  0  0  0  0  0  0  0  0  0
   10.4453  -14.8459   23.3829 O   0  0  0  0  0  0  0  0  0  0  0  0
    8.2340  -17.2995   18.7079 O   0  0  0  0  0  0  0  0  0  0  0  0
   10.2415  -17.0892   23.9644 N   0  0  0  0  0  0  0  0  0  0  0  0
   11.5175  -17.0418   24.8066 C   0  0  1  0  0  0  0  0  0  0  0  0
   11.2228  -17.9758   25.9235 C   0  0  0  0  0  0  0  0  0  0  0  0
   12.2174  -18.4248   26.8850 C   0  0  0  0  0  0  0  0  0  0  0  0
   11.8666  -19.4185   27.9215 C   0  0  0  0  0  0  0  0  0  0  0  0
   13.0027  -19.8662   28.7895 C   0  0  0  0  0  0  0  0  0  0  0  0
   12.5248  -20.9322   29.6557 N   0  0  0  0  0  0  0  0  0  0  0  0
   12.5566  -17.4937   23.8615 C   0  0  0  0  0  0  0  0  0  0  0  0
   12.3519  -18.2211   22.8802 O   0  0  0  0  0  0  0  0  0  0  0  0
   13.9183  -17.1104   24.0150 O   0  0  0  0  0  0  0  0  0  0  0  0
  1  2  1  0
  2  3  1  0
  3  4  1  6
  5  3  1  0
  5  6  1  1
  7  5  1  0
  7  8  2  0
  9  7  1  0
 10  9  1  0
 10 11  1  6
 12 11  1  0
 12 13  1  0
 13 14  2  0
 15 10  1  0
 16 15  2  0
 17 13  1  0
 18 15  1  0
 19 25  1  0
 19 18  1  0
 19 20  1  1
 21 20  1  0
 21 22  1  0
 23 22  1  0
 23 24  1  0
 25 27  1  0
 26 25  2  0
M  END
$$$$
