IEK.pdb
     RDKit          3D

 27 26  0  0  1  0  0  0  0  0999 V2000
    7.6558  -11.8239   18.8052 C   0  0  0  0  0  0  0  0  0  0  0  0
    7.9725  -13.2681   18.4485 C   0  0  0  0  0  0  0  0  0  0  0  0
    8.2025  -14.0873   19.7082 C   0  0  2  0  0  0  0  0  0  0  0  0
    9.2564  -13.4414   20.5758 C   0  0  0  0  0  0  0  0  0  0  0  0
    8.5279  -15.5216   19.4312 C   0  0  2  0  0  0  0  0  0  0  0  0
    7.4384  -16.1051   18.6699 N   0  0  0  0  0  0  0  0  0  0  0  0
    8.8038  -16.2512   20.6953 C   0  0  0  0  0  0  0  0  0  0  0  0
    7.9030  -16.4082   21.5577 O   0  0  0  0  0  0  0  0  0  0  0  0
   10.0898  -16.8133   21.0119 N   0  0  0  0  0  0  0  0  0  0  0  0
   10.3647  -17.4497   22.2548 C   0  0  1  0  0  0  0  0  0  0  0  0
   11.6147  -18.2706   22.3175 C   0  0  0  0  0  0  0  0  0  0  0  0
   11.8858  -18.9623   23.6173 C   0  0  0  0  0  0  0  0  0  0  0  0
   13.1423  -19.7021   23.6928 C   0  0  0  0  0  0  0  0  0  0  0  0
   13.1385  -20.8669   24.2165 O   0  0  0  0  0  0  0  0  0  0  0  0
   10.4219  -16.4593   23.3852 C   0  0  0  0  0  0  0  0  0  0  0  0
   11.1446  -15.4378   23.3113 O   0  0  0  0  0  0  0  0  0  0  0  0
   14.3260  -19.1631   23.2094 O   0  0  0  0  0  0  0  0  0  0  0  0
    9.6317  -16.7271   24.5200 N   0  0  0  0  0  0  0  0  0  0  0  0
    9.7301  -15.8007   25.7333 C   0  0  1  0  0  0  0  0  0  0  0  0
    8.5133  -14.9568   25.6165 C   0  0  0  0  0  0  0  0  0  0  0  0
    8.2084  -13.8507   26.5103 C   0  0  0  0  0  0  0  0  0  0  0  0
    6.9741  -13.0574   26.3312 C   0  0  0  0  0  0  0  0  0  0  0  0
    6.8305  -11.8813   27.2483 C   0  0  0  0  0  0  0  0  0  0  0  0
    5.5501  -11.2456   26.9807 N   0  0  0  0  0  0  0  0  0  0  0  0
    9.7409  -16.7416   26.8699 C   0  0  0  0  0  0  0  0  0  0  0  0
    9.2579  -17.8819   26.8487 O   0  0  0  0  0  0  0  0  0  0  0  0
   10.3300  -16.3933   28.1174 O   0  0  0  0  0  0  0  0  0  0  0  0
  1  2  1  0
  2  3  1  0
  3  4  1  6
  5  3  1  0
  5  6  1  1
  7  5  1  0
  7  8  2  0
  9  7  1  0
 10  9  1  0
 10 11  1  6
 12 11  1  0
 12 13  1  0
 13 14  2  0
 15 10  1  0
 16 15  2  0
 17 13  1  0
 18 15  1  0
 19 25  1  0
 19 18  1  0
 19 20  1  1
 21 20  1  0
 21 22  1  0
 23 22  1  0
 23 24  1  0
 25 27  1  0
 26 25  2  0
M  END
$$$$
