IEK.pdb
     RDKit          3D

 27 26  0  0  1  0  0  0  0  0999 V2000
    6.9377  -12.2451   18.2994 C   0  0  0  0  0  0  0  0  0  0  0  0
    8.1653  -13.1426   18.3268 C   0  0  0  0  0  0  0  0  0  0  0  0
    8.2433  -13.8944   19.6458 C   0  0  2  0  0  0  0  0  0  0  0  0
    8.2396  -12.9292   20.8073 C   0  0  0  0  0  0  0  0  0  0  0  0
    9.4035  -14.8366   19.7231 C   0  0  2  0  0  0  0  0  0  0  0  0
    9.4094  -15.6630   18.5298 N   0  0  0  0  0  0  0  0  0  0  0  0
    9.3508  -15.6329   20.9759 C   0  0  0  0  0  0  0  0  0  0  0  0
    8.4014  -15.4936   21.7878 O   0  0  0  0  0  0  0  0  0  0  0  0
   10.3588  -16.5936   21.3377 N   0  0  0  0  0  0  0  0  0  0  0  0
   10.3497  -17.2846   22.5818 C   0  0  1  0  0  0  0  0  0  0  0  0
   11.3946  -18.3411   22.7615 C   0  0  0  0  0  0  0  0  0  0  0  0
   11.4277  -19.4200   21.7241 C   0  0  0  0  0  0  0  0  0  0  0  0
   12.7172  -20.0780   21.5334 C   0  0  0  0  0  0  0  0  0  0  0  0
   12.7634  -21.1485   20.8386 O   0  0  0  0  0  0  0  0  0  0  0  0
   10.4658  -16.3372   23.7441 C   0  0  0  0  0  0  0  0  0  0  0  0
   11.4058  -15.5106   23.8105 O   0  0  0  0  0  0  0  0  0  0  0  0
   13.8786  -19.5622   22.0904 O   0  0  0  0  0  0  0  0  0  0  0  0
    9.4782  -16.4178   24.7451 N   0  0  0  0  0  0  0  0  0  0  0  0
    9.5646  -15.4864   25.9554 C   0  0  1  0  0  0  0  0  0  0  0  0
    8.2735  -14.7531   25.9132 C   0  0  0  0  0  0  0  0  0  0  0  0
    8.0383  -13.4913   26.5972 C   0  0  0  0  0  0  0  0  0  0  0  0
    6.7222  -12.8237   26.5122 C   0  0  0  0  0  0  0  0  0  0  0  0
    6.6435  -11.4784   27.1670 C   0  0  0  0  0  0  0  0  0  0  0  0
    5.2874  -10.9748   27.0174 N   0  0  0  0  0  0  0  0  0  0  0  0
    9.7240  -16.4225   27.0847 C   0  0  0  0  0  0  0  0  0  0  0  0
    9.4523  -17.6303   27.0458 O   0  0  0  0  0  0  0  0  0  0  0  0
   10.2211  -15.9886   28.3453 O   0  0  0  0  0  0  0  0  0  0  0  0
  1  2  1  0
  2  3  1  0
  3  4  1  1
  5  3  1  0
  5  6  1  6
  7  5  1  0
  7  8  2  0
  9  7  1  0
 10  9  1  0
 10 11  1  6
 12 11  1  0
 12 13  1  0
 13 14  2  0
 15 10  1  0
 16 15  2  0
 17 13  1  0
 18 15  1  0
 19 25  1  0
 19 18  1  0
 19 20  1  1
 21 20  1  0
 21 22  1  0
 23 22  1  0
 23 24  1  0
 25 27  1  0
 26 25  2  0
M  END
$$$$
