IEK.pdb
     RDKit          3D

 27 26  0  0  1  0  0  0  0  0999 V2000
    8.7634  -12.4353   18.9937 C   0  0  0  0  0  0  0  0  0  0  0  0
    8.9821  -13.3820   20.1637 C   0  0  0  0  0  0  0  0  0  0  0  0
    7.7785  -14.2935   20.3406 C   0  0  2  0  0  0  0  0  0  0  0  0
    6.5461  -13.4861   20.6724 C   0  0  0  0  0  0  0  0  0  0  0  0
    8.0024  -15.3834   21.3414 C   0  0  2  0  0  0  0  0  0  0  0  0
    8.1154  -14.7858   22.6595 N   0  0  0  0  0  0  0  0  0  0  0  0
    9.1885  -16.1984   20.9740 C   0  0  0  0  0  0  0  0  0  0  0  0
    9.1673  -16.9477   19.9650 O   0  0  0  0  0  0  0  0  0  0  0  0
   10.4126  -16.1875   21.7300 N   0  0  0  0  0  0  0  0  0  0  0  0
   11.5633  -16.9281   21.3391 C   0  0  1  0  0  0  0  0  0  0  0  0
   12.0068  -16.7642   19.9190 C   0  0  0  0  0  0  0  0  0  0  0  0
   13.2129  -17.5508   19.5091 C   0  0  0  0  0  0  0  0  0  0  0  0
   13.6210  -17.4065   18.1146 C   0  0  0  0  0  0  0  0  0  0  0  0
   13.7356  -18.4565   17.3967 O   0  0  0  0  0  0  0  0  0  0  0  0
   12.7458  -16.6210   22.2162 C   0  0  0  0  0  0  0  0  0  0  0  0
   13.2548  -15.4756   22.2342 O   0  0  0  0  0  0  0  0  0  0  0  0
   13.8832  -16.1593   17.5659 O   0  0  0  0  0  0  0  0  0  0  0  0
   13.2499  -17.6682   23.0119 N   0  0  0  0  0  0  0  0  0  0  0  0
   14.1881  -17.3373   24.1738 C   0  0  1  0  0  0  0  0  0  0  0  0
   13.9635  -18.4583   25.1223 C   0  0  0  0  0  0  0  0  0  0  0  0
   12.7934  -18.5694   25.9790 C   0  0  0  0  0  0  0  0  0  0  0  0
   12.6188  -19.7394   26.8653 C   0  0  0  0  0  0  0  0  0  0  0  0
   11.4356  -19.6767   27.7823 C   0  0  0  0  0  0  0  0  0  0  0  0
   11.3208  -20.9531   28.4698 N   0  0  0  0  0  0  0  0  0  0  0  0
   15.5161  -17.3088   23.5311 C   0  0  0  0  0  0  0  0  0  0  0  0
   15.7770  -17.8010   22.4249 O   0  0  0  0  0  0  0  0  0  0  0  0
   16.6326  -16.6896   24.1592 O   0  0  0  0  0  0  0  0  0  0  0  0
  1  2  1  0
  2  3  1  0
  3  4  1  1
  5  3  1  0
  5  6  1  1
  7  5  1  0
  7  8  2  0
  9  7  1  0
 10  9  1  0
 10 11  1  6
 12 11  1  0
 12 13  1  0
 13 14  2  0
 15 10  1  0
 16 15  2  0
 17 13  1  0
 18 15  1  0
 19 25  1  0
 19 18  1  0
 19 20  1  1
 21 20  1  0
 21 22  1  0
 23 22  1  0
 23 24  1  0
 25 27  1  0
 26 25  2  0
M  END
$$$$
