IEK.pdb
     RDKit          3D

 27 26  0  0  1  0  0  0  0  0999 V2000
    6.8249  -12.0433   19.7589 C   0  0  0  0  0  0  0  0  0  0  0  0
    7.6199  -13.0566   18.9500 C   0  0  0  0  0  0  0  0  0  0  0  0
    8.1482  -14.1593   19.8534 C   0  0  2  0  0  0  0  0  0  0  0  0
    8.9906  -13.5773   20.9635 C   0  0  0  0  0  0  0  0  0  0  0  0
    8.8862  -15.2298   19.1124 C   0  0  2  0  0  0  0  0  0  0  0  0
    7.9834  -15.8328   18.1489 N   0  0  0  0  0  0  0  0  0  0  0  0
    9.4656  -16.2187   20.0573 C   0  0  0  0  0  0  0  0  0  0  0  0
    8.7546  -17.1295   20.5520 O   0  0  0  0  0  0  0  0  0  0  0  0
   10.8460  -16.2014   20.4621 N   0  0  0  0  0  0  0  0  0  0  0  0
   11.3945  -17.1579   21.3619 C   0  0  1  0  0  0  0  0  0  0  0  0
   12.8852  -17.2923   21.3595 C   0  0  0  0  0  0  0  0  0  0  0  0
   13.5148  -17.6377   20.0458 C   0  0  0  0  0  0  0  0  0  0  0  0
   14.9579  -17.8585   20.0720 C   0  0  0  0  0  0  0  0  0  0  0  0
   15.5425  -18.2253   18.9974 O   0  0  0  0  0  0  0  0  0  0  0  0
   10.9708  -16.8928   22.7804 C   0  0  0  0  0  0  0  0  0  0  0  0
   10.9977  -15.7330   23.2551 O   0  0  0  0  0  0  0  0  0  0  0  0
   15.6935  -17.6777   21.2345 O   0  0  0  0  0  0  0  0  0  0  0  0
   10.5436  -17.9962   23.5445 N   0  0  0  0  0  0  0  0  0  0  0  0
    9.9791  -17.7593   24.9464 C   0  0  1  0  0  0  0  0  0  0  0  0
    8.9788  -18.8469   25.0985 C   0  0  0  0  0  0  0  0  0  0  0  0
    8.2840  -19.1372   26.3428 C   0  0  0  0  0  0  0  0  0  0  0  0
    7.2889  -20.2281   26.4117 C   0  0  0  0  0  0  0  0  0  0  0  0
    6.4796  -20.2775   27.6716 C   0  0  0  0  0  0  0  0  0  0  0  0
    5.6534  -21.4739   27.6386 N   0  0  0  0  0  0  0  0  0  0  0  0
   11.1715  -17.8713   25.8082 C   0  0  0  0  0  0  0  0  0  0  0  0
   12.1847  -18.5278   25.5317 O   0  0  0  0  0  0  0  0  0  0  0  0
   11.2456  -17.2073   27.0644 O   0  0  0  0  0  0  0  0  0  0  0  0
  1  2  1  0
  2  3  1  0
  3  4  1  1
  5  3  1  0
  5  6  1  6
  7  5  1  0
  7  8  2  0
  9  7  1  0
 10  9  1  0
 10 11  1  1
 12 11  1  0
 12 13  1  0
 13 14  2  0
 15 10  1  0
 16 15  2  0
 17 13  1  0
 18 15  1  0
 19 25  1  0
 19 18  1  0
 19 20  1  1
 21 20  1  0
 21 22  1  0
 23 22  1  0
 23 24  1  0
 25 27  1  0
 26 25  2  0
M  END
$$$$
