IEK.pdb
     RDKit          3D

 27 26  0  0  1  0  0  0  0  0999 V2000
    6.6687  -11.4562   27.5247 C   0  0  0  0  0  0  0  0  0  0  0  0
    6.0165  -12.4413   26.5670 C   0  0  0  0  0  0  0  0  0  0  0  0
    7.0593  -13.3766   25.9765 C   0  0  2  0  0  0  0  0  0  0  0  0
    8.0592  -12.6024   25.1509 C   0  0  0  0  0  0  0  0  0  0  0  0
    6.4669  -14.5078   25.1961 C   0  0  2  0  0  0  0  0  0  0  0  0
    5.5075  -15.1990   26.0381 N   0  0  0  0  0  0  0  0  0  0  0  0
    7.5325  -15.4046   24.6797 C   0  0  0  0  0  0  0  0  0  0  0  0
    8.1059  -16.2264   25.4385 O   0  0  0  0  0  0  0  0  0  0  0  0
    7.9715  -15.3934   23.3097 N   0  0  0  0  0  0  0  0  0  0  0  0
    9.0266  -16.2219   22.8345 C   0  0  1  0  0  0  0  0  0  0  0  0
    9.4246  -16.0340   21.4039 C   0  0  0  0  0  0  0  0  0  0  0  0
   10.5372  -16.9046   20.9085 C   0  0  0  0  0  0  0  0  0  0  0  0
   10.1448  -17.9863   20.0097 C   0  0  0  0  0  0  0  0  0  0  0  0
    9.6628  -17.6891   18.8650 O   0  0  0  0  0  0  0  0  0  0  0  0
   10.2690  -16.0720   23.6687 C   0  0  0  0  0  0  0  0  0  0  0  0
   10.8754  -14.9767   23.7310 O   0  0  0  0  0  0  0  0  0  0  0  0
   10.2865  -19.3165   20.3783 O   0  0  0  0  0  0  0  0  0  0  0  0
   10.7157  -17.2071   24.3730 N   0  0  0  0  0  0  0  0  0  0  0  0
   11.8411  -17.0543   25.3977 C   0  0  1  0  0  0  0  0  0  0  0  0
   11.1942  -17.4502   26.6750 C   0  0  0  0  0  0  0  0  0  0  0  0
   11.8538  -17.3827   27.9695 C   0  0  0  0  0  0  0  0  0  0  0  0
   12.0534  -18.6051   28.7764 C   0  0  0  0  0  0  0  0  0  0  0  0
   12.7362  -18.3978   30.0938 C   0  0  0  0  0  0  0  0  0  0  0  0
   12.8740  -19.6900   30.7465 N   0  0  0  0  0  0  0  0  0  0  0  0
   12.8741  -17.9816   24.8977 C   0  0  0  0  0  0  0  0  0  0  0  0
   14.0698  -17.9481   25.2190 O   0  0  0  0  0  0  0  0  0  0  0  0
   12.5582  -19.0199   23.9775 O   0  0  0  0  0  0  0  0  0  0  0  0
  1  2  1  0
  2  3  1  0
  3  4  1  6
  5  3  1  0
  5  6  1  1
  7  5  1  0
  7  8  2  0
  9  7  1  0
 10  9  1  0
 10 11  1  6
 12 11  1  0
 12 13  1  0
 13 14  2  0
 15 10  1  0
 16 15  2  0
 17 13  1  0
 18 15  1  0
 19 25  1  0
 19 18  1  0
 19 20  1  1
 21 20  1  0
 21 22  1  0
 23 22  1  0
 23 24  1  0
 25 27  1  0
 26 25  2  0
M  END
$$$$
