IEK.pdb
     RDKit          3D

 27 26  0  0  1  0  0  0  0  0999 V2000
    6.7782  -11.5375   27.1350 C   0  0  0  0  0  0  0  0  0  0  0  0
    6.0681  -12.6683   26.4069 C   0  0  0  0  0  0  0  0  0  0  0  0
    7.0796  -13.6485   25.8349 C   0  0  2  0  0  0  0  0  0  0  0  0
    8.1232  -12.9198   25.0222 C   0  0  0  0  0  0  0  0  0  0  0  0
    6.4519  -14.7567   25.0490 C   0  0  2  0  0  0  0  0  0  0  0  0
    5.5198  -15.4637   25.9083 N   0  0  0  0  0  0  0  0  0  0  0  0
    7.4923  -15.6458   24.4716 C   0  0  0  0  0  0  0  0  0  0  0  0
    8.0637  -16.5127   25.1800 O   0  0  0  0  0  0  0  0  0  0  0  0
    7.9081  -15.5764   23.0960 N   0  0  0  0  0  0  0  0  0  0  0  0
    8.9050  -16.4334   22.5509 C   0  0  1  0  0  0  0  0  0  0  0  0
    9.2105  -16.2547   21.0966 C   0  0  0  0  0  0  0  0  0  0  0  0
   10.2356  -17.1802   20.5187 C   0  0  0  0  0  0  0  0  0  0  0  0
   10.4644  -17.0565   19.0820 C   0  0  0  0  0  0  0  0  0  0  0  0
   11.3667  -17.7795   18.5395 O   0  0  0  0  0  0  0  0  0  0  0  0
   10.2048  -16.3196   23.2991 C   0  0  0  0  0  0  0  0  0  0  0  0
   10.7086  -15.1994   23.5490 O   0  0  0  0  0  0  0  0  0  0  0  0
    9.7241  -16.1747   18.3077 O   0  0  0  0  0  0  0  0  0  0  0  0
   10.8240  -17.5176   23.7053 N   0  0  0  0  0  0  0  0  0  0  0  0
   12.0027  -17.4557   24.6783 C   0  0  1  0  0  0  0  0  0  0  0  0
   11.8737  -18.7185   25.4498 C   0  0  0  0  0  0  0  0  0  0  0  0
   12.8395  -19.1605   26.4434 C   0  0  0  0  0  0  0  0  0  0  0  0
   12.4159  -19.4397   27.8318 C   0  0  0  0  0  0  0  0  0  0  0  0
   13.4947  -19.9446   28.7407 C   0  0  0  0  0  0  0  0  0  0  0  0
   13.0181  -19.8539   30.1117 N   0  0  0  0  0  0  0  0  0  0  0  0
   13.1712  -17.3794   23.7805 C   0  0  0  0  0  0  0  0  0  0  0  0
   14.1667  -16.6683   23.9743 O   0  0  0  0  0  0  0  0  0  0  0  0
   13.2409  -18.1469   22.5844 O   0  0  0  0  0  0  0  0  0  0  0  0
  1  2  1  0
  2  3  1  0
  3  4  1  6
  5  3  1  0
  5  6  1  1
  7  5  1  0
  7  8  2  0
  9  7  1  0
 10  9  1  0
 10 11  1  6
 12 11  1  0
 12 13  1  0
 13 14  2  0
 15 10  1  0
 16 15  2  0
 17 13  1  0
 18 15  1  0
 19 25  1  0
 19 18  1  0
 19 20  1  6
 21 20  1  0
 21 22  1  0
 23 22  1  0
 23 24  1  0
 25 27  1  0
 26 25  2  0
M  END
$$$$
