IEK.pdb
     RDKit          3D

 27 26  0  0  1  0  0  0  0  0999 V2000
    6.4313  -11.5614   27.0211 C   0  0  0  0  0  0  0  0  0  0  0  0
    5.8559  -12.7148   26.2140 C   0  0  0  0  0  0  0  0  0  0  0  0
    6.9675  -13.6373   25.7402 C   0  0  2  0  0  0  0  0  0  0  0  0
    8.0081  -12.8609   24.9688 C   0  0  0  0  0  0  0  0  0  0  0  0
    6.4700  -14.8108   24.9560 C   0  0  2  0  0  0  0  0  0  0  0  0
    5.4621  -15.4992   25.7417 N   0  0  0  0  0  0  0  0  0  0  0  0
    7.5966  -15.6945   24.5613 C   0  0  0  0  0  0  0  0  0  0  0  0
    8.0470  -16.5575   25.3565 O   0  0  0  0  0  0  0  0  0  0  0  0
    8.2350  -15.6242   23.2739 N   0  0  0  0  0  0  0  0  0  0  0  0
    9.2812  -16.5076   22.8862 C   0  0  1  0  0  0  0  0  0  0  0  0
    9.6686  -16.4831   21.4406 C   0  0  0  0  0  0  0  0  0  0  0  0
   10.7667  -17.4166   21.0354 C   0  0  0  0  0  0  0  0  0  0  0  0
   11.0113  -17.5239   19.6000 C   0  0  0  0  0  0  0  0  0  0  0  0
   10.0430  -17.8531   18.8351 O   0  0  0  0  0  0  0  0  0  0  0  0
   10.5313  -16.2741   23.6891 C   0  0  0  0  0  0  0  0  0  0  0  0
   10.9095  -15.1125   23.9699 O   0  0  0  0  0  0  0  0  0  0  0  0
   12.2663  -17.2765   19.0624 O   0  0  0  0  0  0  0  0  0  0  0  0
   11.2509  -17.4094   24.1101 N   0  0  0  0  0  0  0  0  0  0  0  0
   12.2788  -17.2669   25.2339 C   0  0  1  0  0  0  0  0  0  0  0  0
   11.4678  -17.4606   26.4633 C   0  0  0  0  0  0  0  0  0  0  0  0
   11.9309  -17.1183   27.7988 C   0  0  0  0  0  0  0  0  0  0  0  0
   11.0653  -17.3435   28.9757 C   0  0  0  0  0  0  0  0  0  0  0  0
   11.6868  -17.0169   30.2992 C   0  0  0  0  0  0  0  0  0  0  0  0
   10.6988  -17.2531   31.3399 N   0  0  0  0  0  0  0  0  0  0  0  0
   13.2459  -18.3414   24.9381 C   0  0  0  0  0  0  0  0  0  0  0  0
   12.9819  -19.3783   24.3144 O   0  0  0  0  0  0  0  0  0  0  0  0
   14.6013  -18.2590   25.3629 O   0  0  0  0  0  0  0  0  0  0  0  0
  1  2  1  0
  2  3  1  0
  3  4  1  6
  5  3  1  0
  5  6  1  1
  7  5  1  0
  7  8  2  0
  9  7  1  0
 10  9  1  0
 10 11  1  6
 12 11  1  0
 12 13  1  0
 13 14  2  0
 15 10  1  0
 16 15  2  0
 17 13  1  0
 18 15  1  0
 19 25  1  0
 19 18  1  0
 19 20  1  1
 21 20  1  0
 21 22  1  0
 23 22  1  0
 23 24  1  0
 25 27  1  0
 26 25  2  0
M  END
$$$$
