NEI.pdb
     RDKit          3D

 26 25  0  0  1  0  0  0  0  0999 V2000
   25.7337  -14.5007  -15.8553 N   0  0  0  0  0  0  0  0  0  0  0  0
   24.9984  -14.4991  -17.0890 C   0  0  0  0  0  0  0  0  0  0  0  0
   25.2259  -15.4152  -17.9182 O   0  0  0  0  0  0  0  0  0  0  0  0
   24.0128  -13.4226  -17.3243 C   0  0  0  0  0  0  0  0  0  0  0  0
   23.9516  -12.5197  -16.1026 C   0  0  2  0  0  0  0  0  0  0  0  0
   23.2928  -13.1958  -15.0168 N   0  0  0  0  0  0  0  0  0  0  0  0
   23.1577  -11.3184  -16.5350 C   0  0  0  0  0  0  0  0  0  0  0  0
   23.5118  -10.7372  -17.6175 O   0  0  0  0  0  0  0  0  0  0  0  0
   22.0802  -10.8777  -15.7620 N   0  0  0  0  0  0  0  0  0  0  0  0
   21.3661   -9.6485  -16.1213 C   0  0  1  0  0  0  0  0  0  0  0  0
   19.9403   -9.9168  -15.7488 C   0  0  0  0  0  0  0  0  0  0  0  0
   18.9778   -8.7987  -15.9004 C   0  0  0  0  0  0  0  0  0  0  0  0
   17.6248   -9.3385  -15.5189 C   0  0  0  0  0  0  0  0  0  0  0  0
   17.5792  -10.5089  -15.0840 O   0  0  0  0  0  0  0  0  0  0  0  0
   21.9864   -8.4819  -15.4971 C   0  0  0  0  0  0  0  0  0  0  0  0
   22.5340   -8.6345  -14.3732 O   0  0  0  0  0  0  0  0  0  0  0  0
   16.4547   -8.6104  -15.6249 O   0  0  0  0  0  0  0  0  0  0  0  0
   25.7086   -4.4031  -16.2958 C   0  0  0  0  0  0  0  0  0  0  0  0
   24.2325   -4.1524  -16.1093 C   0  0  0  0  0  0  0  0  0  0  0  0
   23.3853   -5.2763  -16.6640 C   0  0  2  0  0  0  0  0  0  0  0  0
   22.4041   -4.6959  -17.6228 C   0  0  0  0  0  0  0  0  0  0  0  0
   22.7205   -6.0907  -15.5667 C   0  0  2  0  0  0  0  0  0  0  0  0
   21.9841   -7.2132  -16.1292 N   0  0  0  0  0  0  0  0  0  0  0  0
   21.7915   -5.2023  -14.8494 C   0  0  0  0  0  0  0  0  0  0  0  0
   20.5386   -5.2097  -15.0517 O   0  0  0  0  0  0  0  0  0  0  0  0
   22.2192   -4.2904  -13.8976 O   0  0  0  0  0  0  0  0  0  0  0  0
  2  1  1  0
  2  4  1  0
  3  2  2  0
  5  6  1  1
  5  4  1  0
  7  5  1  0
  8  7  2  0
  9  7  1  0
 10  9  1  0
 11 12  1  0
 10 11  1  1
 13 12  1  0
 13 17  1  0
 14 13  2  0
 15 23  1  0
 15 10  1  0
 16 15  2  0
 19 18  1  0
 20 22  1  0
 20 19  1  0
 20 21  1  6
 22 23  1  6
 24 22  1  0
 25 24  2  0
 26 24  1  0
M  END
$$$$
