NEI.pdb
     RDKit          3D

 26 25  0  0  1  0  0  0  0  0999 V2000
   25.3340  -35.3524   -8.9856 N   0  0  0  0  0  0  0  0  0  0  0  0
   25.7356  -34.0089   -9.2958 C   0  0  0  0  0  0  0  0  0  0  0  0
   26.1829  -33.7723  -10.4459 O   0  0  0  0  0  0  0  0  0  0  0  0
   25.6051  -32.9718   -8.2503 C   0  0  0  0  0  0  0  0  0  0  0  0
   24.9602  -33.5799   -7.0151 C   0  0  2  0  0  0  0  0  0  0  0  0
   23.6602  -33.0031   -6.7974 N   0  0  0  0  0  0  0  0  0  0  0  0
   25.8837  -33.2433   -5.8774 C   0  0  0  0  0  0  0  0  0  0  0  0
   25.7000  -32.1274   -5.2806 O   0  0  0  0  0  0  0  0  0  0  0  0
   26.8946  -34.1355   -5.5105 N   0  0  0  0  0  0  0  0  0  0  0  0
   27.7209  -33.8714   -4.3284 C   0  0  1  0  0  0  0  0  0  0  0  0
   26.7760  -33.9901   -3.1722 C   0  0  0  0  0  0  0  0  0  0  0  0
   27.3489  -33.8524   -1.8112 C   0  0  0  0  0  0  0  0  0  0  0  0
   26.8607  -35.0337   -1.0152 C   0  0  0  0  0  0  0  0  0  0  0  0
   25.7275  -35.4804   -1.2936 O   0  0  0  0  0  0  0  0  0  0  0  0
   28.8881  -34.7501   -4.2993 C   0  0  0  0  0  0  0  0  0  0  0  0
   28.7065  -35.9803   -4.4990 O   0  0  0  0  0  0  0  0  0  0  0  0
   27.5966  -35.6348   -0.0114 O   0  0  0  0  0  0  0  0  0  0  0  0
   33.5566  -32.8777   -6.4261 C   0  0  0  0  0  0  0  0  0  0  0  0
   32.4451  -33.8221   -6.0400 C   0  0  0  0  0  0  0  0  0  0  0  0
   32.5765  -34.3102   -4.6141 C   0  0  2  0  0  0  0  0  0  0  0  0
   33.8438  -35.0843   -4.4973 C   0  0  0  0  0  0  0  0  0  0  0  0
   31.3615  -35.1043   -4.1639 C   0  0  2  0  0  0  0  0  0  0  0  0
   30.1910  -34.2453   -4.0608 N   0  0  0  0  0  0  0  0  0  0  0  0
   31.6668  -35.6811   -2.8445 C   0  0  0  0  0  0  0  0  0  0  0  0
   32.3547  -36.7376   -2.6983 O   0  0  0  0  0  0  0  0  0  0  0  0
   31.2238  -35.1101   -1.6621 O   0  0  0  0  0  0  0  0  0  0  0  0
  2  1  1  0
  2  4  1  0
  3  2  2  0
  5  6  1  1
  5  4  1  0
  7  5  1  0
  8  7  2  0
  9  7  1  0
 10  9  1  0
 11 12  1  0
 10 11  1  1
 13 12  1  0
 13 17  1  0
 14 13  2  0
 15 23  1  0
 15 10  1  0
 16 15  2  0
 19 18  1  0
 20 22  1  0
 20 19  1  0
 20 21  1  6
 22 23  1  1
 24 22  1  0
 25 24  2  0
 26 24  1  0
M  END
$$$$
