NEI.pdb
     RDKit          3D

 26 25  0  0  1  0  0  0  0  0999 V2000
   17.2381  -13.3514  -15.1283 N   0  0  0  0  0  0  0  0  0  0  0  0
   18.5026  -13.0433  -15.7356 C   0  0  0  0  0  0  0  0  0  0  0  0
   19.3585  -13.9588  -15.8246 O   0  0  0  0  0  0  0  0  0  0  0  0
   18.7367  -11.6678  -16.2245 C   0  0  0  0  0  0  0  0  0  0  0  0
   17.5300  -10.8037  -15.8947 C   0  0  2  0  0  0  0  0  0  0  0  0
   16.4664  -11.0567  -16.8300 N   0  0  0  0  0  0  0  0  0  0  0  0
   18.0119   -9.3846  -16.0154 C   0  0  0  0  0  0  0  0  0  0  0  0
   18.9046   -9.1391  -16.8973 O   0  0  0  0  0  0  0  0  0  0  0  0
   17.4858   -8.3947  -15.1812 N   0  0  0  0  0  0  0  0  0  0  0  0
   17.8733   -6.9922  -15.3623 C   0  0  1  0  0  0  0  0  0  0  0  0
   16.6840   -6.2083  -14.8990 C   0  0  0  0  0  0  0  0  0  0  0  0
   16.8056   -4.7302  -14.8949 C   0  0  0  0  0  0  0  0  0  0  0  0
   15.5089   -4.1914  -14.3511 C   0  0  0  0  0  0  0  0  0  0  0  0
   15.5395   -3.0626  -13.8163 O   0  0  0  0  0  0  0  0  0  0  0  0
   19.1364   -6.7070  -14.6851 C   0  0  0  0  0  0  0  0  0  0  0  0
   19.3360   -7.2363  -13.5599 O   0  0  0  0  0  0  0  0  0  0  0  0
   14.3100   -4.8759  -14.4175 O   0  0  0  0  0  0  0  0  0  0  0  0
   24.9968   -5.8686  -16.1546 C   0  0  0  0  0  0  0  0  0  0  0  0
   23.9068   -5.6368  -15.1375 C   0  0  0  0  0  0  0  0  0  0  0  0
   22.5265   -5.8613  -15.7146 C   0  0  2  0  0  0  0  0  0  0  0  0
   22.3423   -4.9346  -16.8662 C   0  0  0  0  0  0  0  0  0  0  0  0
   21.4349   -5.7180  -14.6671 C   0  0  2  0  0  0  0  0  0  0  0  0
   20.1178   -5.8669  -15.2685 N   0  0  0  0  0  0  0  0  0  0  0  0
   21.5565   -4.3764  -14.0738 C   0  0  0  0  0  0  0  0  0  0  0  0
   22.5243   -4.0410  -13.3244 O   0  0  0  0  0  0  0  0  0  0  0  0
   20.6198   -3.3786  -14.2916 O   0  0  0  0  0  0  0  0  0  0  0  0
  2  1  1  0
  2  4  1  0
  3  2  2  0
  5  6  1  6
  5  4  1  0
  7  5  1  0
  8  7  2  0
  9  7  1  0
 10  9  1  0
 11 12  1  0
 10 11  1  1
 13 12  1  0
 13 17  1  0
 14 13  2  0
 15 23  1  0
 15 10  1  0
 16 15  2  0
 19 18  1  0
 20 22  1  0
 20 19  1  0
 20 21  1  6
 22 23  1  6
 24 22  1  0
 25 24  2  0
 26 24  1  0
M  END
$$$$
