NEI.pdb
     RDKit          3D

 26 25  0  0  1  0  0  0  0  0999 V2000
   13.9141  -12.2622   -9.4866 N   0  0  0  0  0  0  0  0  0  0  0  0
   14.9868  -12.3317  -10.4390 C   0  0  0  0  0  0  0  0  0  0  0  0
   15.4553  -13.4617  -10.7258 O   0  0  0  0  0  0  0  0  0  0  0  0
   15.4880  -11.0744  -11.0338 C   0  0  0  0  0  0  0  0  0  0  0  0
   14.7451   -9.8969  -10.4229 C   0  0  2  0  0  0  0  0  0  0  0  0
   13.4041   -9.8322  -10.9402 N   0  0  0  0  0  0  0  0  0  0  0  0
   15.5267   -8.6788  -10.8302 C   0  0  0  0  0  0  0  0  0  0  0  0
   15.5698   -8.3965  -12.0766 O   0  0  0  0  0  0  0  0  0  0  0  0
   16.1707   -7.9055   -9.8607 N   0  0  0  0  0  0  0  0  0  0  0  0
   16.7717   -6.6175  -10.2214 C   0  0  1  0  0  0  0  0  0  0  0  0
   16.3047   -5.6713   -9.1583 C   0  0  0  0  0  0  0  0  0  0  0  0
   14.9361   -5.1170   -9.2974 C   0  0  0  0  0  0  0  0  0  0  0  0
   14.7404   -4.1570   -8.1539 C   0  0  0  0  0  0  0  0  0  0  0  0
   14.1778   -4.5975   -7.1289 O   0  0  0  0  0  0  0  0  0  0  0  0
   18.2188   -6.7424  -10.3822 C   0  0  0  0  0  0  0  0  0  0  0  0
   18.8997   -7.0641   -9.3726 O   0  0  0  0  0  0  0  0  0  0  0  0
   15.1490   -2.8370   -8.1867 O   0  0  0  0  0  0  0  0  0  0  0  0
   22.2945   -9.6082  -12.7995 C   0  0  0  0  0  0  0  0  0  0  0  0
   21.9152   -8.1855  -13.1287 C   0  0  0  0  0  0  0  0  0  0  0  0
   20.4538   -7.9039  -12.8568 C   0  0  2  0  0  0  0  0  0  0  0  0
   19.7854   -7.5979  -14.1524 C   0  0  0  0  0  0  0  0  0  0  0  0
   20.2623   -6.8049  -11.8250 C   0  0  2  0  0  0  0  0  0  0  0  0
   18.8486   -6.5170  -11.6318 N   0  0  0  0  0  0  0  0  0  0  0  0
   20.9467   -5.5999  -12.3212 C   0  0  0  0  0  0  0  0  0  0  0  0
   20.3290   -4.6307  -12.8597 O   0  0  0  0  0  0  0  0  0  0  0  0
   22.3201   -5.4357  -12.2358 O   0  0  0  0  0  0  0  0  0  0  0  0
  2  1  1  0
  2  4  1  0
  3  2  2  0
  5  6  1  6
  5  4  1  0
  7  5  1  0
  8  7  2  0
  9  7  1  0
 10  9  1  0
 11 12  1  0
 10 11  1  1
 13 12  1  0
 13 17  1  0
 14 13  2  0
 15 23  1  0
 15 10  1  0
 16 15  2  0
 19 18  1  0
 20 22  1  0
 20 19  1  0
 20 21  1  6
 22 23  1  6
 24 22  1  0
 25 24  2  0
 26 24  1  0
M  END
$$$$
