NEI.pdb
     RDKit          3D

 26 25  0  0  1  0  0  0  0  0999 V2000
   19.5317  -22.7937  -15.9506 N   0  0  0  0  0  0  0  0  0  0  0  0
   19.8509  -21.3934  -15.9512 C   0  0  0  0  0  0  0  0  0  0  0  0
   20.1472  -20.8514  -17.0453 O   0  0  0  0  0  0  0  0  0  0  0  0
   19.8170  -20.6590  -14.6686 C   0  0  0  0  0  0  0  0  0  0  0  0
   21.0151  -19.7265  -14.5900 C   0  0  2  0  0  0  0  0  0  0  0  0
   21.3080  -19.1823  -15.8894 N   0  0  0  0  0  0  0  0  0  0  0  0
   22.1539  -20.5814  -14.1075 C   0  0  0  0  0  0  0  0  0  0  0  0
   21.9826  -21.2303  -13.0191 O   0  0  0  0  0  0  0  0  0  0  0  0
   23.3411  -20.6431  -14.8416 N   0  0  0  0  0  0  0  0  0  0  0  0
   24.4936  -21.3868  -14.3230 C   0  0  1  0  0  0  0  0  0  0  0  0
   25.3316  -21.6760  -15.5304 C   0  0  0  0  0  0  0  0  0  0  0  0
   24.6378  -22.2200  -16.7230 C   0  0  0  0  0  0  0  0  0  0  0  0
   25.6953  -22.4523  -17.7696 C   0  0  0  0  0  0  0  0  0  0  0  0
   25.4322  -22.0915  -18.9366 O   0  0  0  0  0  0  0  0  0  0  0  0
   25.1494  -20.6498  -13.2451 C   0  0  0  0  0  0  0  0  0  0  0  0
   25.0887  -19.3919  -13.2674 O   0  0  0  0  0  0  0  0  0  0  0  0
   26.9202  -23.0336  -17.5014 O   0  0  0  0  0  0  0  0  0  0  0  0
   24.2409  -20.7790   -8.2108 C   0  0  0  0  0  0  0  0  0  0  0  0
   24.7358  -20.4259   -9.5917 C   0  0  0  0  0  0  0  0  0  0  0  0
   26.1685  -20.8573   -9.8151 C   0  0  2  0  0  0  0  0  0  0  0  0
   27.0235  -20.1965   -8.7898 C   0  0  0  0  0  0  0  0  0  0  0  0
   26.6372  -20.5820  -11.2342 C   0  0  2  0  0  0  0  0  0  0  0  0
   25.8314  -21.3179  -12.1974 N   0  0  0  0  0  0  0  0  0  0  0  0
   28.0408  -21.0139  -11.3345 C   0  0  0  0  0  0  0  0  0  0  0  0
   28.3859  -22.1116  -11.8701 O   0  0  0  0  0  0  0  0  0  0  0  0
   29.0909  -20.2505  -10.8499 O   0  0  0  0  0  0  0  0  0  0  0  0
  2  1  1  0
  2  4  1  0
  3  2  2  0
  5  6  1  6
  5  4  1  0
  7  5  1  0
  8  7  2  0
  9  7  1  0
 10  9  1  0
 11 12  1  0
 10 11  1  6
 13 12  1  0
 13 17  1  0
 14 13  2  0
 15 23  1  0
 15 10  1  0
 16 15  2  0
 19 18  1  0
 20 22  1  0
 20 19  1  0
 20 21  1  1
 22 23  1  6
 24 22  1  0
 25 24  2  0
 26 24  1  0
M  END
$$$$
