NEI.pdb
     RDKit          3D

 26 25  0  0  1  0  0  0  0  0999 V2000
   19.4467  -11.5802  -16.4552 N   0  0  0  0  0  0  0  0  0  0  0  0
   19.5462  -10.1675  -16.2166 C   0  0  0  0  0  0  0  0  0  0  0  0
   20.5426   -9.5554  -16.6760 O   0  0  0  0  0  0  0  0  0  0  0  0
   18.4756   -9.5030  -15.4433 C   0  0  0  0  0  0  0  0  0  0  0  0
   17.3623  -10.5002  -15.1644 C   0  0  2  0  0  0  0  0  0  0  0  0
   16.6005  -10.7426  -16.3606 N   0  0  0  0  0  0  0  0  0  0  0  0
   16.5028   -9.8536  -14.1139 C   0  0  0  0  0  0  0  0  0  0  0  0
   15.8054   -8.8411  -14.4652 O   0  0  0  0  0  0  0  0  0  0  0  0
   16.4887  -10.3622  -12.8125 N   0  0  0  0  0  0  0  0  0  0  0  0
   15.6134   -9.7694  -11.7963 C   0  0  1  0  0  0  0  0  0  0  0  0
   15.0482  -10.9411  -11.0538 C   0  0  0  0  0  0  0  0  0  0  0  0
   14.0462  -11.7738  -11.7624 C   0  0  0  0  0  0  0  0  0  0  0  0
   13.5884  -12.8242  -10.7853 C   0  0  0  0  0  0  0  0  0  0  0  0
   14.2165  -12.9147   -9.7090 O   0  0  0  0  0  0  0  0  0  0  0  0
   16.3361   -8.7855  -10.9931 C   0  0  0  0  0  0  0  0  0  0  0  0
   17.5116   -9.0631  -10.6360 O   0  0  0  0  0  0  0  0  0  0  0  0
   12.5244  -13.6743  -11.0210 O   0  0  0  0  0  0  0  0  0  0  0  0
   16.4670   -3.8523  -12.7225 C   0  0  0  0  0  0  0  0  0  0  0  0
   16.7202   -5.1795  -12.0512 C   0  0  0  0  0  0  0  0  0  0  0  0
   16.3215   -5.1694  -10.5918 C   0  0  2  0  0  0  0  0  0  0  0  0
   17.0784   -4.0855   -9.9054 C   0  0  0  0  0  0  0  0  0  0  0  0
   16.5141   -6.5256   -9.9337 C   0  0  2  0  0  0  0  0  0  0  0  0
   15.7460   -7.5503  -10.6255 N   0  0  0  0  0  0  0  0  0  0  0  0
   16.0495   -6.4181   -8.5411 C   0  0  0  0  0  0  0  0  0  0  0  0
   14.8316   -6.5526   -8.2102 O   0  0  0  0  0  0  0  0  0  0  0  0
   16.9114   -6.1616   -7.4867 O   0  0  0  0  0  0  0  0  0  0  0  0
  2  1  1  0
  2  4  1  0
  3  2  2  0
  5  6  1  6
  5  4  1  0
  7  5  1  0
  8  7  2  0
  9  7  1  0
 10  9  1  0
 11 12  1  0
 10 11  1  1
 13 12  1  0
 13 17  1  0
 14 13  2  0
 15 23  1  0
 15 10  1  0
 16 15  2  0
 19 18  1  0
 20 22  1  0
 20 19  1  0
 20 21  1  1
 22 23  1  6
 24 22  1  0
 25 24  2  0
 26 24  1  0
M  END
$$$$
