NEI.pdb
     RDKit          3D

 26 25  0  0  1  0  0  0  0  0999 V2000
   16.1367  -12.5105  -17.9018 N   0  0  0  0  0  0  0  0  0  0  0  0
   16.3485  -12.0090  -16.5729 C   0  0  0  0  0  0  0  0  0  0  0  0
   15.4439  -12.1859  -15.7191 O   0  0  0  0  0  0  0  0  0  0  0  0
   17.6163  -11.3097  -16.2739 C   0  0  0  0  0  0  0  0  0  0  0  0
   18.4225  -11.1586  -17.5540 C   0  0  2  0  0  0  0  0  0  0  0  0
   19.1761  -12.3568  -17.8116 N   0  0  0  0  0  0  0  0  0  0  0  0
   19.3456   -9.9976  -17.3083 C   0  0  0  0  0  0  0  0  0  0  0  0
   20.4184  -10.2274  -16.6515 O   0  0  0  0  0  0  0  0  0  0  0  0
   19.0160   -8.7285  -17.7911 N   0  0  0  0  0  0  0  0  0  0  0  0
   19.9524   -7.6111  -17.6334 C   0  0  1  0  0  0  0  0  0  0  0  0
   19.4629   -6.5694  -18.5920 C   0  0  0  0  0  0  0  0  0  0  0  0
   20.1953   -5.2801  -18.6247 C   0  0  0  0  0  0  0  0  0  0  0  0
   19.4956   -4.4111  -19.6359 C   0  0  0  0  0  0  0  0  0  0  0  0
   19.8645   -4.5095  -20.8256 O   0  0  0  0  0  0  0  0  0  0  0  0
   20.0494   -7.2036  -16.2335 C   0  0  0  0  0  0  0  0  0  0  0  0
   18.9972   -7.2134  -15.5412 O   0  0  0  0  0  0  0  0  0  0  0  0
   18.4823   -3.5282  -19.3130 O   0  0  0  0  0  0  0  0  0  0  0  0
   22.8509   -9.8767  -13.1795 C   0  0  0  0  0  0  0  0  0  0  0  0
   21.8380   -8.8892  -13.7041 C   0  0  0  0  0  0  0  0  0  0  0  0
   22.2837   -7.4557  -13.5161 C   0  0  2  0  0  0  0  0  0  0  0  0
   22.3703   -7.1784  -12.0551 C   0  0  0  0  0  0  0  0  0  0  0  0
   21.3835   -6.4731  -14.2465 C   0  0  2  0  0  0  0  0  0  0  0  0
   21.2845   -6.8128  -15.6584 N   0  0  0  0  0  0  0  0  0  0  0  0
   21.9737   -5.1324  -14.1028 C   0  0  0  0  0  0  0  0  0  0  0  0
   22.0503   -4.5306  -12.9880 O   0  0  0  0  0  0  0  0  0  0  0  0
   22.4906   -4.4276  -15.1782 O   0  0  0  0  0  0  0  0  0  0  0  0
  2  1  1  0
  2  4  1  0
  3  2  2  0
  5  6  1  1
  5  4  1  0
  7  5  1  0
  8  7  2  0
  9  7  1  0
 10  9  1  0
 11 12  1  0
 10 11  1  6
 13 12  1  0
 13 17  1  0
 14 13  2  0
 15 23  1  0
 15 10  1  0
 16 15  2  0
 19 18  1  0
 20 22  1  0
 20 19  1  0
 20 21  1  1
 22 23  1  6
 24 22  1  0
 25 24  2  0
 26 24  1  0
M  END
$$$$
