NEI.pdb
     RDKit          3D

 26 25  0  0  1  0  0  0  0  0999 V2000
   18.4681  -13.2759  -16.9349 N   0  0  0  0  0  0  0  0  0  0  0  0
   17.6844  -12.9093  -15.7886 C   0  0  0  0  0  0  0  0  0  0  0  0
   16.9563  -13.7866  -15.2606 O   0  0  0  0  0  0  0  0  0  0  0  0
   17.7707  -11.5214  -15.2866 C   0  0  0  0  0  0  0  0  0  0  0  0
   18.6707  -10.7089  -16.2038 C   0  0  2  0  0  0  0  0  0  0  0  0
   20.0336  -11.1549  -16.0862 N   0  0  0  0  0  0  0  0  0  0  0  0
   18.5388   -9.2870  -15.7333 C   0  0  0  0  0  0  0  0  0  0  0  0
   17.3622   -8.7881  -15.6897 O   0  0  0  0  0  0  0  0  0  0  0  0
   19.6767   -8.5643  -15.3653 N   0  0  0  0  0  0  0  0  0  0  0  0
   19.5651   -7.1529  -14.9838 C   0  0  1  0  0  0  0  0  0  0  0  0
   20.7950   -6.8819  -14.1729 C   0  0  0  0  0  0  0  0  0  0  0  0
   21.0139   -5.4872  -13.7184 C   0  0  0  0  0  0  0  0  0  0  0  0
   22.2562   -5.5001  -12.8674 C   0  0  0  0  0  0  0  0  0  0  0  0
   23.2703   -4.9350  -13.3295 O   0  0  0  0  0  0  0  0  0  0  0  0
   19.3692   -6.3073  -16.1594 C   0  0  0  0  0  0  0  0  0  0  0  0
   20.0050   -6.5964  -17.2075 O   0  0  0  0  0  0  0  0  0  0  0  0
   22.3224   -6.0958  -11.6220 O   0  0  0  0  0  0  0  0  0  0  0  0
   15.3034   -3.5213  -19.5468 C   0  0  0  0  0  0  0  0  0  0  0  0
   16.6985   -3.4262  -18.9801 C   0  0  0  0  0  0  0  0  0  0  0  0
   16.9056   -4.3581  -17.8064 C   0  0  2  0  0  0  0  0  0  0  0  0
   15.9140   -4.0111  -16.7503 C   0  0  0  0  0  0  0  0  0  0  0  0
   18.3371   -4.3320  -17.2971 C   0  0  2  0  0  0  0  0  0  0  0  0
   18.4892   -5.1964  -16.1360 N   0  0  0  0  0  0  0  0  0  0  0  0
   18.6544   -2.9442  -16.9228 C   0  0  0  0  0  0  0  0  0  0  0  0
   18.7048   -2.5516  -15.7168 O   0  0  0  0  0  0  0  0  0  0  0  0
   18.9225   -1.9624  -17.8632 O   0  0  0  0  0  0  0  0  0  0  0  0
  2  1  1  0
  2  4  1  0
  3  2  2  0
  5  6  1  1
  5  4  1  0
  7  5  1  0
  8  7  2  0
  9  7  1  0
 10  9  1  0
 11 12  1  0
 10 11  1  6
 13 12  1  0
 13 17  1  0
 14 13  2  0
 15 23  1  0
 15 10  1  0
 16 15  2  0
 19 18  1  0
 20 22  1  0
 20 19  1  0
 20 21  1  1
 22 23  1  1
 24 22  1  0
 25 24  2  0
 26 24  1  0
M  END
$$$$
