NEI.pdb
     RDKit          3D

 26 25  0  0  1  0  0  0  0  0999 V2000
   19.3228  -13.1383  -17.5665 N   0  0  0  0  0  0  0  0  0  0  0  0
   18.0157  -12.5443  -17.5307 C   0  0  0  0  0  0  0  0  0  0  0  0
   17.0797  -13.1297  -18.1305 O   0  0  0  0  0  0  0  0  0  0  0  0
   17.8346  -11.2758  -16.7932 C   0  0  0  0  0  0  0  0  0  0  0  0
   19.1704  -10.8316  -16.2191 C   0  0  2  0  0  0  0  0  0  0  0  0
   19.5937  -11.7382  -15.1852 N   0  0  0  0  0  0  0  0  0  0  0  0
   18.9235   -9.4618  -15.6506 C   0  0  0  0  0  0  0  0  0  0  0  0
   17.9062   -9.3147  -14.8899 O   0  0  0  0  0  0  0  0  0  0  0  0
   19.7897   -8.4101  -15.9605 N   0  0  0  0  0  0  0  0  0  0  0  0
   19.5469   -7.0685  -15.4209 C   0  0  1  0  0  0  0  0  0  0  0  0
   20.7977   -6.7312  -14.6689 C   0  0  0  0  0  0  0  0  0  0  0  0
   20.9004   -5.3647  -14.1018 C   0  0  0  0  0  0  0  0  0  0  0  0
   22.2751   -5.2496  -13.4980 C   0  0  0  0  0  0  0  0  0  0  0  0
   22.3451   -5.1363  -12.2556 O   0  0  0  0  0  0  0  0  0  0  0  0
   19.1627   -6.1397  -16.4816 C   0  0  0  0  0  0  0  0  0  0  0  0
   19.7621   -6.2239  -17.5861 O   0  0  0  0  0  0  0  0  0  0  0  0
   23.4397   -5.2653  -14.2423 O   0  0  0  0  0  0  0  0  0  0  0  0
   14.0556   -4.6769  -17.6817 C   0  0  0  0  0  0  0  0  0  0  0  0
   15.5305   -4.9854  -17.7595 C   0  0  0  0  0  0  0  0  0  0  0  0
   16.3849   -3.8166  -17.3206 C   0  0  2  0  0  0  0  0  0  0  0  0
   16.0803   -2.6549  -18.2018 C   0  0  0  0  0  0  0  0  0  0  0  0
   17.8645   -4.1625  -17.2979 C   0  0  2  0  0  0  0  0  0  0  0  0
   18.1443   -5.1729  -16.2884 N   0  0  0  0  0  0  0  0  0  0  0  0
   18.6076   -2.9318  -16.9820 C   0  0  0  0  0  0  0  0  0  0  0  0
   18.6862   -2.4583  -15.8071 O   0  0  0  0  0  0  0  0  0  0  0  0
   19.2781   -2.1986  -17.9480 O   0  0  0  0  0  0  0  0  0  0  0  0
  2  1  1  0
  2  4  1  0
  3  2  2  0
  5  6  1  1
  5  4  1  0
  7  5  1  0
  8  7  2  0
  9  7  1  0
 10  9  1  0
 11 12  1  0
 10 11  1  6
 13 12  1  0
 13 17  1  0
 14 13  2  0
 15 23  1  0
 15 10  1  0
 16 15  2  0
 19 18  1  0
 20 22  1  0
 20 19  1  0
 20 21  1  6
 22 23  1  1
 24 22  1  0
 25 24  2  0
 26 24  1  0
M  END
$$$$
