NEI.pdb
     RDKit          3D

 26 25  0  0  1  0  0  0  0  0999 V2000
   15.0176  -12.9731  -14.1453 N   0  0  0  0  0  0  0  0  0  0  0  0
   15.7389  -12.8941  -15.3847 C   0  0  0  0  0  0  0  0  0  0  0  0
   15.9282  -13.9545  -16.0314 O   0  0  0  0  0  0  0  0  0  0  0  0
   16.2236  -11.5732  -15.8386 C   0  0  0  0  0  0  0  0  0  0  0  0
   15.8730  -10.5226  -14.7970 C   0  0  2  0  0  0  0  0  0  0  0  0
   14.5210  -10.0678  -14.9848 N   0  0  0  0  0  0  0  0  0  0  0  0
   16.8442   -9.3976  -15.0240 C   0  0  0  0  0  0  0  0  0  0  0  0
   18.0053   -9.7021  -15.4644 O   0  0  0  0  0  0  0  0  0  0  0  0
   16.4632   -8.0805  -14.7541 N   0  0  0  0  0  0  0  0  0  0  0  0
   17.3871   -6.9738  -15.0218 C   0  0  1  0  0  0  0  0  0  0  0  0
   16.5495   -5.7398  -14.8827 C   0  0  0  0  0  0  0  0  0  0  0  0
   15.4946   -5.5177  -15.9013 C   0  0  0  0  0  0  0  0  0  0  0  0
   14.3361   -4.8705  -15.1897 C   0  0  0  0  0  0  0  0  0  0  0  0
   14.4633   -3.6701  -14.8669 O   0  0  0  0  0  0  0  0  0  0  0  0
   18.5637   -7.0545  -14.1589 C   0  0  0  0  0  0  0  0  0  0  0  0
   18.3926   -7.3872  -12.9563 O   0  0  0  0  0  0  0  0  0  0  0  0
   13.1612   -5.5318  -14.8854 O   0  0  0  0  0  0  0  0  0  0  0  0
   23.7530   -9.5690  -13.3689 C   0  0  0  0  0  0  0  0  0  0  0  0
   23.0814   -8.2237  -13.2439 C   0  0  0  0  0  0  0  0  0  0  0  0
   21.8195   -8.1333  -14.0734 C   0  0  2  0  0  0  0  0  0  0  0  0
   22.1914   -8.2622  -15.5101 C   0  0  0  0  0  0  0  0  0  0  0  0
   21.0306   -6.8671  -13.7840 C   0  0  2  0  0  0  0  0  0  0  0  0
   19.8639   -6.7750  -14.6494 N   0  0  0  0  0  0  0  0  0  0  0  0
   21.9186   -5.7194  -14.0310 C   0  0  0  0  0  0  0  0  0  0  0  0
   22.8995   -5.4342  -13.2777 O   0  0  0  0  0  0  0  0  0  0  0  0
   21.7475   -4.8642  -15.1079 O   0  0  0  0  0  0  0  0  0  0  0  0
  2  1  1  0
  2  4  1  0
  3  2  2  0
  5  6  1  6
  5  4  1  0
  7  5  1  0
  8  7  2  0
  9  7  1  0
 10  9  1  0
 11 12  1  0
 10 11  1  1
 13 12  1  0
 13 17  1  0
 14 13  2  0
 15 23  1  0
 15 10  1  0
 16 15  2  0
 19 18  1  0
 20 22  1  0
 20 19  1  0
 20 21  1  6
 22 23  1  6
 24 22  1  0
 25 24  2  0
 26 24  1  0
M  END
$$$$
