NEI.pdb
     RDKit          3D

 26 25  0  0  1  0  0  0  0  0999 V2000
   30.5077  -20.0262  -19.3431 N   0  0  0  0  0  0  0  0  0  0  0  0
   30.0938  -18.6549  -19.2396 C   0  0  0  0  0  0  0  0  0  0  0  0
   30.6092  -17.8173  -20.0216 O   0  0  0  0  0  0  0  0  0  0  0  0
   29.0851  -18.2949  -18.2205 C   0  0  0  0  0  0  0  0  0  0  0  0
   28.8374  -19.4892  -17.3129 C   0  0  2  0  0  0  0  0  0  0  0  0
   28.3134  -20.5922  -18.0739 N   0  0  0  0  0  0  0  0  0  0  0  0
   27.8280  -19.0189  -16.3028 C   0  0  0  0  0  0  0  0  0  0  0  0
   28.1533  -18.0281  -15.5628 O   0  0  0  0  0  0  0  0  0  0  0  0
   26.5910  -19.6606  -16.2001 N   0  0  0  0  0  0  0  0  0  0  0  0
   25.5986  -19.2016  -15.2231 C   0  0  1  0  0  0  0  0  0  0  0  0
   24.4040  -18.8261  -16.0451 C   0  0  0  0  0  0  0  0  0  0  0  0
   23.1615  -18.4756  -15.3151 C   0  0  0  0  0  0  0  0  0  0  0  0
   22.1212  -19.4849  -15.7232 C   0  0  0  0  0  0  0  0  0  0  0  0
   21.7919  -20.3403  -14.8740 O   0  0  0  0  0  0  0  0  0  0  0  0
   25.3777  -20.2100  -14.1888 C   0  0  0  0  0  0  0  0  0  0  0  0
   25.3588  -21.4200  -14.5380 O   0  0  0  0  0  0  0  0  0  0  0  0
   21.5251  -19.5055  -16.9700 O   0  0  0  0  0  0  0  0  0  0  0  0
   27.7099  -20.1404   -9.4040 C   0  0  0  0  0  0  0  0  0  0  0  0
   27.0062  -20.6802  -10.6246 C   0  0  0  0  0  0  0  0  0  0  0  0
   25.5010  -20.5786  -10.5107 C   0  0  2  0  0  0  0  0  0  0  0  0
   25.0482  -21.5009   -9.4322 C   0  0  0  0  0  0  0  0  0  0  0  0
   24.8051  -20.8407  -11.8360 C   0  0  2  0  0  0  0  0  0  0  0  0
   25.1949  -19.8513  -12.8298 N   0  0  0  0  0  0  0  0  0  0  0  0
   23.3538  -20.7601  -11.6038 C   0  0  0  0  0  0  0  0  0  0  0  0
   22.7274  -19.6580  -11.5421 O   0  0  0  0  0  0  0  0  0  0  0  0
   22.5634  -21.8858  -11.4355 O   0  0  0  0  0  0  0  0  0  0  0  0
  2  1  1  0
  2  4  1  0
  3  2  2  0
  5  6  1  6
  5  4  1  0
  7  5  1  0
  8  7  2  0
  9  7  1  0
 10  9  1  0
 11 12  1  0
 10 11  1  6
 13 12  1  0
 13 17  1  0
 14 13  2  0
 15 23  1  0
 15 10  1  0
 16 15  2  0
 19 18  1  0
 20 22  1  0
 20 19  1  0
 20 21  1  1
 22 23  1  6
 24 22  1  0
 25 24  2  0
 26 24  1  0
M  END
$$$$
