NEI.pdb
     RDKit          3D

 26 25  0  0  1  0  0  0  0  0999 V2000
   12.7879  -11.4844  -13.8448 N   0  0  0  0  0  0  0  0  0  0  0  0
   14.1647  -11.8431  -13.6494 C   0  0  0  0  0  0  0  0  0  0  0  0
   14.4203  -12.9321  -13.0773 O   0  0  0  0  0  0  0  0  0  0  0  0
   15.2125  -10.9163  -14.1281 C   0  0  0  0  0  0  0  0  0  0  0  0
   14.5603   -9.6505  -14.6609 C   0  0  2  0  0  0  0  0  0  0  0  0
   13.7458   -9.9551  -15.8071 N   0  0  0  0  0  0  0  0  0  0  0  0
   15.6993   -8.7487  -15.0480 C   0  0  0  0  0  0  0  0  0  0  0  0
   16.2028   -8.9034  -16.2132 O   0  0  0  0  0  0  0  0  0  0  0  0
   16.1677   -7.7887  -14.1472 N   0  0  0  0  0  0  0  0  0  0  0  0
   17.1741   -6.8087  -14.5677 C   0  0  1  0  0  0  0  0  0  0  0  0
   16.4629   -5.4914  -14.5189 C   0  0  0  0  0  0  0  0  0  0  0  0
   15.6248   -5.1294  -15.6878 C   0  0  0  0  0  0  0  0  0  0  0  0
   15.0555   -3.7643  -15.4052 C   0  0  0  0  0  0  0  0  0  0  0  0
   15.3933   -3.2156  -14.3347 O   0  0  0  0  0  0  0  0  0  0  0  0
   18.3831   -6.9187  -13.7541 C   0  0  0  0  0  0  0  0  0  0  0  0
   18.2799   -7.4341  -12.6096 O   0  0  0  0  0  0  0  0  0  0  0  0
   14.1945   -3.1040  -16.2613 O   0  0  0  0  0  0  0  0  0  0  0  0
   23.3543   -9.6109  -13.2711 C   0  0  0  0  0  0  0  0  0  0  0  0
   22.7749   -8.2403  -13.0218 C   0  0  0  0  0  0  0  0  0  0  0  0
   21.4575   -8.0357  -13.7369 C   0  0  2  0  0  0  0  0  0  0  0  0
   21.6699   -8.2775  -15.1913 C   0  0  0  0  0  0  0  0  0  0  0  0
   20.8546   -6.6702  -13.4521 C   0  0  2  0  0  0  0  0  0  0  0  0
   19.6404   -6.4683  -14.2289 N   0  0  0  0  0  0  0  0  0  0  0  0
   21.8519   -5.6535  -13.8241 C   0  0  0  0  0  0  0  0  0  0  0  0
   21.8588   -5.0787  -14.9557 O   0  0  0  0  0  0  0  0  0  0  0  0
   22.8588   -5.2484  -12.9625 O   0  0  0  0  0  0  0  0  0  0  0  0
  2  1  1  0
  2  4  1  0
  3  2  2  0
  5  6  1  6
  5  4  1  0
  7  5  1  0
  8  7  2  0
  9  7  1  0
 10  9  1  0
 11 12  1  0
 10 11  1  1
 13 12  1  0
 13 17  1  0
 14 13  2  0
 15 23  1  0
 15 10  1  0
 16 15  2  0
 19 18  1  0
 20 22  1  0
 20 19  1  0
 20 21  1  6
 22 23  1  6
 24 22  1  0
 25 24  2  0
 26 24  1  0
M  END
$$$$
