NEI.pdb
     RDKit          3D

 26 25  0  0  1  0  0  0  0  0999 V2000
   24.1184  -18.1116  -18.7299 N   0  0  0  0  0  0  0  0  0  0  0  0
   22.9912  -17.2704  -18.4391 C   0  0  0  0  0  0  0  0  0  0  0  0
   21.8772  -17.8164  -18.2403 O   0  0  0  0  0  0  0  0  0  0  0  0
   23.1944  -15.8069  -18.3888 C   0  0  0  0  0  0  0  0  0  0  0  0
   22.2577  -15.1338  -19.3794 C   0  0  2  0  0  0  0  0  0  0  0  0
   22.6920  -15.3892  -20.7271 N   0  0  0  0  0  0  0  0  0  0  0  0
   22.3386  -13.6651  -19.0687 C   0  0  0  0  0  0  0  0  0  0  0  0
   23.4679  -13.0892  -19.2363 O   0  0  0  0  0  0  0  0  0  0  0  0
   21.2063  -12.9834  -18.6153 N   0  0  0  0  0  0  0  0  0  0  0  0
   21.2811  -11.5537  -18.2986 C   0  0  1  0  0  0  0  0  0  0  0  0
   19.8714  -11.0636  -18.4263 C   0  0  0  0  0  0  0  0  0  0  0  0
   19.6108   -9.6476  -18.0707 C   0  0  0  0  0  0  0  0  0  0  0  0
   18.2434   -9.6047  -17.4415 C   0  0  0  0  0  0  0  0  0  0  0  0
   17.8381   -8.4959  -17.0320 O   0  0  0  0  0  0  0  0  0  0  0  0
   21.9234  -11.3377  -17.0039 C   0  0  0  0  0  0  0  0  0  0  0  0
   21.6616  -12.1444  -16.0728 O   0  0  0  0  0  0  0  0  0  0  0  0
   17.4323  -10.7150  -17.3013 O   0  0  0  0  0  0  0  0  0  0  0  0
   26.9210  -11.3958  -16.1060 C   0  0  0  0  0  0  0  0  0  0  0  0
   25.4172  -11.3783  -15.9845 C   0  0  0  0  0  0  0  0  0  0  0  0
   24.8957  -10.0401  -15.5088 C   0  0  2  0  0  0  0  0  0  0  0  0
   25.5105   -9.7398  -14.1856 C   0  0  0  0  0  0  0  0  0  0  0  0
   23.3772   -9.9945  -15.4729 C   0  0  2  0  0  0  0  0  0  0  0  0
   22.8202  -10.2608  -16.7911 N   0  0  0  0  0  0  0  0  0  0  0  0
   22.9794   -8.6473  -15.0334 C   0  0  0  0  0  0  0  0  0  0  0  0
   22.9667   -8.2978  -13.8133 O   0  0  0  0  0  0  0  0  0  0  0  0
   22.5891   -7.6591  -15.9230 O   0  0  0  0  0  0  0  0  0  0  0  0
  2  1  1  0
  2  4  1  0
  3  2  2  0
  5  6  1  6
  5  4  1  0
  7  5  1  0
  8  7  2  0
  9  7  1  0
 10  9  1  0
 11 12  1  0
 10 11  1  1
 13 12  1  0
 13 17  1  0
 14 13  2  0
 15 23  1  0
 15 10  1  0
 16 15  2  0
 19 18  1  0
 20 22  1  0
 20 19  1  0
 20 21  1  1
 22 23  1  6
 24 22  1  0
 25 24  2  0
 26 24  1  0
M  END
$$$$
