NEI.pdb
     RDKit          3D

 26 25  0  0  1  0  0  0  0  0999 V2000
   17.9791  -14.4599  -15.6358 N   0  0  0  0  0  0  0  0  0  0  0  0
   17.2147  -13.2529  -15.4898 C   0  0  0  0  0  0  0  0  0  0  0  0
   16.0614  -13.3351  -14.9980 O   0  0  0  0  0  0  0  0  0  0  0  0
   17.8186  -11.9755  -15.9246 C   0  0  0  0  0  0  0  0  0  0  0  0
   16.7175  -11.0139  -16.3422 C   0  0  2  0  0  0  0  0  0  0  0  0
   16.1522  -11.4214  -17.6010 N   0  0  0  0  0  0  0  0  0  0  0  0
   17.3877   -9.6745  -16.4741 C   0  0  0  0  0  0  0  0  0  0  0  0
   18.3796   -9.5890  -17.2765 O   0  0  0  0  0  0  0  0  0  0  0  0
   16.9219   -8.5843  -15.7344 N   0  0  0  0  0  0  0  0  0  0  0  0
   17.5536   -7.2689  -15.8783 C   0  0  1  0  0  0  0  0  0  0  0  0
   16.4223   -6.2927  -15.7747 C   0  0  0  0  0  0  0  0  0  0  0  0
   15.0809   -6.7613  -16.1998 C   0  0  0  0  0  0  0  0  0  0  0  0
   14.0762   -6.0021  -15.3742 C   0  0  0  0  0  0  0  0  0  0  0  0
   13.8205   -4.8297  -15.7226 O   0  0  0  0  0  0  0  0  0  0  0  0
   18.6391   -7.1018  -14.9144 C   0  0  0  0  0  0  0  0  0  0  0  0
   18.4271   -7.4436  -13.7209 O   0  0  0  0  0  0  0  0  0  0  0  0
   13.4358   -6.5347  -14.2712 O   0  0  0  0  0  0  0  0  0  0  0  0
   23.0261   -9.4948  -15.5476 C   0  0  0  0  0  0  0  0  0  0  0  0
   21.8400   -8.7020  -15.0563 C   0  0  0  0  0  0  0  0  0  0  0  0
   22.1926   -7.2583  -14.7734 C   0  0  2  0  0  0  0  0  0  0  0  0
   23.2938   -7.2313  -13.7706 C   0  0  0  0  0  0  0  0  0  0  0  0
   20.9842   -6.4460  -14.3383 C   0  0  2  0  0  0  0  0  0  0  0  0
   19.8987   -6.5779  -15.2990 N   0  0  0  0  0  0  0  0  0  0  0  0
   21.3986   -5.0361  -14.2541 C   0  0  0  0  0  0  0  0  0  0  0  0
   21.2073   -4.2057  -15.1947 O   0  0  0  0  0  0  0  0  0  0  0  0
   22.0295   -4.5112  -13.1375 O   0  0  0  0  0  0  0  0  0  0  0  0
  2  1  1  0
  2  4  1  0
  3  2  2  0
  5  6  1  6
  5  4  1  0
  7  5  1  0
  8  7  2  0
  9  7  1  0
 10  9  1  0
 11 12  1  0
 10 11  1  1
 13 12  1  0
 13 17  1  0
 14 13  2  0
 15 23  1  0
 15 10  1  0
 16 15  2  0
 19 18  1  0
 20 22  1  0
 20 19  1  0
 20 21  1  1
 22 23  1  6
 24 22  1  0
 25 24  2  0
 26 24  1  0
M  END
$$$$
