RGQ.pdb
     RDKit          3D

 25 24  0  0  1  0  0  0  0  0999 V2000
   30.9175  -25.3222  -15.7596 N   0  0  0  0  0  0  0  0  0  0  0  0
   29.7454  -25.5019  -16.5818 C   0  0  0  0  0  0  0  0  0  0  0  0
   29.1971  -26.6619  -16.6655 N   0  0  0  0  0  0  0  0  0  0  0  0
   29.1856  -24.4233  -17.3005 N   0  0  0  0  0  0  0  0  0  0  0  0
   29.6822  -23.0810  -17.1390 C   0  0  0  0  0  0  0  0  0  0  0  0
   29.0404  -22.5100  -15.9202 C   0  0  0  0  0  0  0  0  0  0  0  0
   27.8098  -21.7198  -16.1352 C   0  0  0  0  0  0  0  0  0  0  0  0
   27.8842  -20.5704  -17.0722 C   0  0  2  0  0  0  0  0  0  0  0  0
   29.1653  -19.9286  -17.0929 N   0  0  0  0  0  0  0  0  0  0  0  0
   26.8834  -19.5546  -16.5793 C   0  0  0  0  0  0  0  0  0  0  0  0
   27.2378  -18.7071  -15.7181 O   0  0  0  0  0  0  0  0  0  0  0  0
   28.3815  -26.8511  -17.2609 N   0  0  0  0  0  0  0  0  0  0  0  0
   25.5587  -19.5280  -17.0574 C   0  0  0  0  0  0  0  0  0  0  0  0
   24.6012  -18.4958  -16.6374 C   0  0  0  0  0  0  0  0  0  0  0  0
   23.3342  -19.1430  -16.2053 O   0  0  0  0  0  0  0  0  0  0  0  0
   23.2776  -20.3913  -16.1077 N   0  0  0  0  0  0  0  0  0  0  0  0
   18.4343  -15.8124  -14.5881 C   0  0  0  0  0  0  0  0  0  0  0  0
   17.8251  -17.1046  -14.5173 O   0  0  0  0  0  0  0  0  0  0  0  0
   16.6090  -17.2561  -14.1649 C   0  0  0  0  0  0  0  0  0  0  0  0
   18.6309  -18.2879  -14.8705 C   0  0  0  0  0  0  0  0  0  0  0  0
   20.0273  -17.9495  -15.1607 C   0  0  1  0  0  0  0  0  0  0  0  0
   20.9117  -19.0639  -15.6466 N   0  0  0  0  0  0  0  0  0  0  0  0
   22.2080  -18.3516  -15.9089 C   0  0  0  0  0  0  0  0  0  0  0  0
   20.4582  -19.6749  -16.8992 O   0  0  0  0  0  0  0  0  0  0  0  0
   20.7453  -19.1740  -18.1726 O   0  0  0  0  0  0  0  0  0  0  0  0
  1  2  1  0
  2  3  2  0
  4  5  1  0
  4  2  1  0
  6  7  1  0
  6  5  1  0
  7  8  1  0
  8 10  1  0
  8  9  1  1
 10 12  1  0
 11 10  2  0
 12 13  1  0
 14 15  2  0
 14 13  1  0
 16 17  1  0
 17 19  1  0
 17 18  2  0
 19 20  1  0
 21 20  1  1
 21 23  1  0
 21 22  1  0
 22 14  1  0
 23 24  1  0
 25 23  2  0
M  END
$$$$
