RGQ.pdb
     RDKit          3D

 25 24  0  0  1  0  0  0  0  0999 V2000
   26.6073  -15.7544  -17.4936 N   0  0  0  0  0  0  0  0  0  0  0  0
   25.6825  -15.2229  -16.5218 C   0  0  0  0  0  0  0  0  0  0  0  0
   24.8934  -14.2627  -16.8511 N   0  0  0  0  0  0  0  0  0  0  0  0
   25.6266  -15.7392  -15.2088 N   0  0  0  0  0  0  0  0  0  0  0  0
   26.2405  -16.9988  -14.8754 C   0  0  0  0  0  0  0  0  0  0  0  0
   25.5059  -18.0644  -15.6157 C   0  0  0  0  0  0  0  0  0  0  0  0
   25.9398  -19.4553  -15.3664 C   0  0  0  0  0  0  0  0  0  0  0  0
   26.4988  -19.7731  -14.0281 C   0  0  2  0  0  0  0  0  0  0  0  0
   27.8399  -20.2761  -14.0708 N   0  0  0  0  0  0  0  0  0  0  0  0
   25.6302  -20.8645  -13.4528 C   0  0  0  0  0  0  0  0  0  0  0  0
   25.4532  -21.9233  -14.1111 O   0  0  0  0  0  0  0  0  0  0  0  0
   24.1936  -13.8713  -16.2089 N   0  0  0  0  0  0  0  0  0  0  0  0
   25.0096  -20.7314  -12.1954 C   0  0  0  0  0  0  0  0  0  0  0  0
   23.7269  -20.0340  -12.0316 C   0  0  0  0  0  0  0  0  0  0  0  0
   22.6130  -20.9652  -12.3528 O   0  0  0  0  0  0  0  0  0  0  0  0
   22.5586  -21.4992  -13.4853 N   0  0  0  0  0  0  0  0  0  0  0  0
   19.3563  -23.6345   -7.9767 C   0  0  0  0  0  0  0  0  0  0  0  0
   18.5971  -24.1163   -9.0890 O   0  0  0  0  0  0  0  0  0  0  0  0
   17.5958  -24.8907   -8.9348 C   0  0  0  0  0  0  0  0  0  0  0  0
   18.9857  -23.6948  -10.4476 C   0  0  0  0  0  0  0  0  0  0  0  0
   20.0951  -22.7367  -10.4419 C   0  0  1  0  0  0  0  0  0  0  0  0
   20.5222  -22.1808  -11.7719 N   0  0  0  0  0  0  0  0  0  0  0  0
   21.6283  -21.2410  -11.3849 C   0  0  0  0  0  0  0  0  0  0  0  0
   19.4781  -21.4104  -12.4532 O   0  0  0  0  0  0  0  0  0  0  0  0
   19.2342  -20.0499  -12.2419 O   0  0  0  0  0  0  0  0  0  0  0  0
  1  2  1  0
  2  3  2  0
  4  5  1  0
  4  2  1  0
  6  7  1  0
  6  5  1  0
  7  8  1  0
  8 10  1  0
  8  9  1  6
 10 12  1  0
 11 10  2  0
 12 13  1  0
 14 15  2  0
 14 13  1  0
 16 17  1  0
 17 19  1  0
 17 18  2  0
 19 20  1  0
 21 20  1  6
 21 23  1  0
 21 22  1  0
 22 14  1  0
 23 24  1  0
 25 23  2  0
M  END
$$$$
