RGQ.pdb
     RDKit          3D

 25 24  0  0  1  0  0  0  0  0999 V2000
   24.7225  -17.6299  -17.1044 N   0  0  0  0  0  0  0  0  0  0  0  0
   24.1617  -18.6239  -17.9874 C   0  0  0  0  0  0  0  0  0  0  0  0
   24.2328  -18.4587  -19.2605 N   0  0  0  0  0  0  0  0  0  0  0  0
   23.5326  -19.7808  -17.4782 N   0  0  0  0  0  0  0  0  0  0  0  0
   23.4461  -20.0207  -16.0607 C   0  0  0  0  0  0  0  0  0  0  0  0
   22.0005  -20.0270  -15.6953 C   0  0  0  0  0  0  0  0  0  0  0  0
   21.6878  -20.1414  -14.2551 C   0  0  0  0  0  0  0  0  0  0  0  0
   21.7336  -21.4945  -13.6456 C   0  0  2  0  0  0  0  0  0  0  0  0
   20.9335  -22.4625  -14.3358 N   0  0  0  0  0  0  0  0  0  0  0  0
   21.1648  -21.3540  -12.2552 C   0  0  0  0  0  0  0  0  0  0  0  0
   21.3893  -20.3023  -11.6003 O   0  0  0  0  0  0  0  0  0  0  0  0
   23.8665  -19.1439  -19.9327 N   0  0  0  0  0  0  0  0  0  0  0  0
   20.3868  -22.3705  -11.6673 C   0  0  0  0  0  0  0  0  0  0  0  0
   19.7381  -22.1955  -10.3608 C   0  0  0  0  0  0  0  0  0  0  0  0
   18.8893  -23.3806  -10.0674 O   0  0  0  0  0  0  0  0  0  0  0  0
   18.5041  -24.1151  -11.0070 N   0  0  0  0  0  0  0  0  0  0  0  0
   18.5026  -25.5596   -4.3912 C   0  0  0  0  0  0  0  0  0  0  0  0
   17.6331  -26.5083   -5.0155 O   0  0  0  0  0  0  0  0  0  0  0  0
   17.1719  -27.5152   -4.3834 C   0  0  0  0  0  0  0  0  0  0  0  0
   17.2593  -26.3046   -6.4273 C   0  0  0  0  0  0  0  0  0  0  0  0
   17.9111  -25.1313   -7.0165 C   0  0  2  0  0  0  0  0  0  0  0  0
   17.7370  -24.9261   -8.4956 N   0  0  0  0  0  0  0  0  0  0  0  0
   18.5242  -23.6700   -8.7386 C   0  0  0  0  0  0  0  0  0  0  0  0
   16.3486  -24.6870   -8.8997 O   0  0  0  0  0  0  0  0  0  0  0  0
   15.7778  -23.4203   -9.0570 O   0  0  0  0  0  0  0  0  0  0  0  0
  1  2  1  0
  2  3  2  0
  4  5  1  0
  4  2  1  0
  6  7  1  0
  6  5  1  0
  7  8  1  0
  8 10  1  0
  8  9  1  6
 10 12  1  0
 11 10  2  0
 12 13  1  0
 14 15  2  0
 14 13  1  0
 16 17  1  0
 17 19  1  0
 17 18  2  0
 19 20  1  0
 21 20  1  6
 21 23  1  0
 21 22  1  0
 22 14  1  0
 23 24  1  0
 25 23  2  0
M  END
$$$$
