RGQ.pdb
     RDKit          3D

 25 24  0  0  1  0  0  0  0  0999 V2000
   18.9321  -24.6996   -6.3009 N   0  0  0  0  0  0  0  0  0  0  0  0
   17.5156  -24.7596   -6.5694 C   0  0  0  0  0  0  0  0  0  0  0  0
   16.6895  -24.9316   -5.5992 N   0  0  0  0  0  0  0  0  0  0  0  0
   17.0158  -24.6327   -7.8837 N   0  0  0  0  0  0  0  0  0  0  0  0
   17.8994  -24.4177   -9.0007 C   0  0  0  0  0  0  0  0  0  0  0  0
   17.0601  -24.3680  -10.2321 C   0  0  0  0  0  0  0  0  0  0  0  0
   17.7733  -24.1220  -11.5032 C   0  0  0  0  0  0  0  0  0  0  0  0
   17.8390  -22.7232  -11.9967 C   0  0  2  0  0  0  0  0  0  0  0  0
   16.5887  -22.2307  -12.4945 N   0  0  0  0  0  0  0  0  0  0  0  0
   18.8102  -22.7249  -13.1514 C   0  0  0  0  0  0  0  0  0  0  0  0
   18.5466  -23.4045  -14.1781 O   0  0  0  0  0  0  0  0  0  0  0  0
   15.6712  -24.9602   -5.7328 N   0  0  0  0  0  0  0  0  0  0  0  0
   20.0080  -21.9848  -13.1124 C   0  0  0  0  0  0  0  0  0  0  0  0
   21.0296  -22.1035  -14.1617 C   0  0  0  0  0  0  0  0  0  0  0  0
   22.1772  -21.2154  -13.8373 O   0  0  0  0  0  0  0  0  0  0  0  0
   21.9979  -20.2123  -13.1076 N   0  0  0  0  0  0  0  0  0  0  0  0
   27.7840  -21.2689  -11.4606 C   0  0  0  0  0  0  0  0  0  0  0  0
   26.3882  -21.5225  -11.6424 O   0  0  0  0  0  0  0  0  0  0  0  0
   25.5141  -21.0940  -10.8186 C   0  0  0  0  0  0  0  0  0  0  0  0
   25.9564  -22.2953  -12.8217 C   0  0  0  0  0  0  0  0  0  0  0  0
   25.7701  -21.4531  -14.0068 C   0  0  2  0  0  0  0  0  0  0  0  0
   24.5673  -20.5512  -14.0196 N   0  0  0  0  0  0  0  0  0  0  0  0
   23.4558  -21.5059  -14.3507 C   0  0  0  0  0  0  0  0  0  0  0  0
   24.6142  -19.5182  -15.0583 O   0  0  0  0  0  0  0  0  0  0  0  0
   25.1688  -18.2466  -14.8843 O   0  0  0  0  0  0  0  0  0  0  0  0
  1  2  1  0
  2  3  2  0
  4  5  1  0
  4  2  1  0
  6  7  1  0
  6  5  1  0
  7  8  1  0
  8 10  1  0
  8  9  1  6
 10 12  1  0
 11 10  2  0
 12 13  1  0
 14 15  2  0
 14 13  1  0
 16 17  1  0
 17 19  1  0
 17 18  2  0
 19 20  1  0
 21 20  1  1
 21 23  1  0
 21 22  1  0
 22 14  1  0
 23 24  1  0
 25 23  2  0
M  END
$$$$
