RGQ.pdb
     RDKit          3D

 25 24  0  0  1  0  0  0  0  0999 V2000
   27.9811  -24.4630  -16.9588 N   0  0  0  0  0  0  0  0  0  0  0  0
   26.5422  -24.4190  -16.8591 C   0  0  0  0  0  0  0  0  0  0  0  0
   25.8924  -25.4818  -16.5405 N   0  0  0  0  0  0  0  0  0  0  0  0
   25.8296  -23.2254  -17.1061 N   0  0  0  0  0  0  0  0  0  0  0  0
   25.6666  -22.2277  -16.0802 C   0  0  0  0  0  0  0  0  0  0  0  0
   26.6850  -21.1659  -16.3227 C   0  0  0  0  0  0  0  0  0  0  0  0
   26.7904  -20.1100  -15.2937 C   0  0  0  0  0  0  0  0  0  0  0  0
   27.3553  -20.4883  -13.9738 C   0  0  2  0  0  0  0  0  0  0  0  0
   27.7496  -21.8635  -13.8909 N   0  0  0  0  0  0  0  0  0  0  0  0
   26.2543  -20.2774  -12.9639 C   0  0  0  0  0  0  0  0  0  0  0  0
   25.8649  -19.1069  -12.7114 O   0  0  0  0  0  0  0  0  0  0  0  0
   24.8696  -25.5507  -16.6077 N   0  0  0  0  0  0  0  0  0  0  0  0
   25.6478  -21.3575  -12.2933 C   0  0  0  0  0  0  0  0  0  0  0  0
   24.6111  -21.1551  -11.2721 C   0  0  0  0  0  0  0  0  0  0  0  0
   23.3152  -21.6874  -11.7706 O   0  0  0  0  0  0  0  0  0  0  0  0
   23.3085  -22.5605  -12.6697 N   0  0  0  0  0  0  0  0  0  0  0  0
   19.5624  -23.4982   -7.9462 C   0  0  0  0  0  0  0  0  0  0  0  0
   18.7221  -23.7787   -9.0691 O   0  0  0  0  0  0  0  0  0  0  0  0
   17.6355  -24.4351   -8.9485 C   0  0  0  0  0  0  0  0  0  0  0  0
   19.1276  -23.2848  -10.3981 C   0  0  0  0  0  0  0  0  0  0  0  0
   20.3408  -22.4639  -10.3453 C   0  0  2  0  0  0  0  0  0  0  0  0
   20.8402  -21.9017  -11.6472 N   0  0  0  0  0  0  0  0  0  0  0  0
   22.1061  -21.2084  -11.2309 C   0  0  0  0  0  0  0  0  0  0  0  0
   19.9438  -20.9079  -12.2444 O   0  0  0  0  0  0  0  0  0  0  0  0
   18.9124  -21.2097  -13.1389 O   0  0  0  0  0  0  0  0  0  0  0  0
  1  2  1  0
  2  3  2  0
  4  5  1  0
  4  2  1  0
  6  7  1  0
  6  5  1  0
  7  8  1  0
  8 10  1  0
  8  9  1  6
 10 12  1  0
 11 10  2  0
 12 13  1  0
 14 15  2  0
 14 13  1  0
 16 17  1  0
 17 19  1  0
 17 18  2  0
 19 20  1  0
 21 20  1  6
 21 23  1  0
 21 22  1  0
 22 14  1  0
 23 24  1  0
 25 23  2  0
M  END
$$$$
