RGQ.pdb
     RDKit          3D

 25 24  0  0  1  0  0  0  0  0999 V2000
   20.1399  -16.6273  -19.6124 N   0  0  0  0  0  0  0  0  0  0  0  0
   21.0874  -16.7899  -20.6885 C   0  0  0  0  0  0  0  0  0  0  0  0
   20.7783  -16.4012  -21.8744 N   0  0  0  0  0  0  0  0  0  0  0  0
   22.3545  -17.3709  -20.4638 N   0  0  0  0  0  0  0  0  0  0  0  0
   22.7592  -17.7928  -19.1474 C   0  0  0  0  0  0  0  0  0  0  0  0
   24.1115  -18.4088  -19.2710 C   0  0  0  0  0  0  0  0  0  0  0  0
   24.6581  -19.0424  -18.0525 C   0  0  0  0  0  0  0  0  0  0  0  0
   24.6426  -18.2494  -16.7974 C   0  0  2  0  0  0  0  0  0  0  0  0
   25.8458  -17.5036  -16.5747 N   0  0  0  0  0  0  0  0  0  0  0  0
   24.5169  -19.2424  -15.6685 C   0  0  0  0  0  0  0  0  0  0  0  0
   25.5434  -19.5673  -15.0156 O   0  0  0  0  0  0  0  0  0  0  0  0
   21.4222  -16.4770  -22.6713 N   0  0  0  0  0  0  0  0  0  0  0  0
   23.2787  -19.8184  -15.3235 C   0  0  0  0  0  0  0  0  0  0  0  0
   23.1052  -20.6140  -14.1005 C   0  0  0  0  0  0  0  0  0  0  0  0
   21.6701  -20.9689  -13.9407 O   0  0  0  0  0  0  0  0  0  0  0  0
   20.8327  -20.5562  -14.7769 N   0  0  0  0  0  0  0  0  0  0  0  0
   19.6335  -25.8937  -12.3989 C   0  0  0  0  0  0  0  0  0  0  0  0
   18.4526  -25.2702  -11.8866 O   0  0  0  0  0  0  0  0  0  0  0  0
   17.3446  -25.8958  -11.8021 C   0  0  0  0  0  0  0  0  0  0  0  0
   18.5295  -23.8672  -11.4394 C   0  0  0  0  0  0  0  0  0  0  0  0
   19.8185  -23.2466  -11.7583 C   0  0  2  0  0  0  0  0  0  0  0  0
   19.8101  -22.1459  -12.7824 N   0  0  0  0  0  0  0  0  0  0  0  0
   21.2613  -21.7647  -12.8534 C   0  0  0  0  0  0  0  0  0  0  0  0
   19.0416  -20.9661  -12.3756 O   0  0  0  0  0  0  0  0  0  0  0  0
   17.7167  -20.7187  -12.7475 O   0  0  0  0  0  0  0  0  0  0  0  0
  1  2  1  0
  2  3  2  0
  4  5  1  0
  4  2  1  0
  6  7  1  0
  6  5  1  0
  7  8  1  0
  8 10  1  0
  8  9  1  1
 10 12  1  0
 11 10  2  0
 12 13  1  0
 14 15  2  0
 14 13  1  0
 16 17  1  0
 17 19  1  0
 17 18  2  0
 19 20  1  0
 21 20  1  6
 21 23  1  0
 21 22  1  0
 22 14  1  0
 23 24  1  0
 25 23  2  0
M  END
$$$$
