RGQ.pdb
     RDKit          3D

 25 24  0  0  1  0  0  0  0  0999 V2000
   17.5567  -25.5643  -11.9242 N   0  0  0  0  0  0  0  0  0  0  0  0
   17.9969  -24.2133  -11.6729 C   0  0  0  0  0  0  0  0  0  0  0  0
   17.5090  -23.2448  -12.3637 N   0  0  0  0  0  0  0  0  0  0  0  0
   18.9585  -23.9320  -10.6781 N   0  0  0  0  0  0  0  0  0  0  0  0
   19.0651  -24.7431   -9.4926 C   0  0  0  0  0  0  0  0  0  0  0  0
   18.4791  -23.9649   -8.3638 C   0  0  0  0  0  0  0  0  0  0  0  0
   18.4722  -24.6282   -7.0429 C   0  0  0  0  0  0  0  0  0  0  0  0
   17.5349  -25.7629   -6.8468 C   0  0  2  0  0  0  0  0  0  0  0  0
   17.0206  -26.3009   -8.0714 N   0  0  0  0  0  0  0  0  0  0  0  0
   16.3618  -25.2163   -6.0712 C   0  0  0  0  0  0  0  0  0  0  0  0
   15.3170  -24.8805   -6.6884 O   0  0  0  0  0  0  0  0  0  0  0  0
   17.8114  -22.2698  -12.2478 N   0  0  0  0  0  0  0  0  0  0  0  0
   16.4032  -25.0707   -4.6708 C   0  0  0  0  0  0  0  0  0  0  0  0
   15.3906  -24.2972   -3.9394 C   0  0  0  0  0  0  0  0  0  0  0  0
   15.7267  -24.2873   -2.4910 O   0  0  0  0  0  0  0  0  0  0  0  0
   16.7283  -24.9205   -2.0828 N   0  0  0  0  0  0  0  0  0  0  0  0
   14.8639  -19.8495    3.2590 C   0  0  0  0  0  0  0  0  0  0  0  0
   14.6192  -20.4033    1.9632 O   0  0  0  0  0  0  0  0  0  0  0  0
   13.9077  -19.7967    1.0961 C   0  0  0  0  0  0  0  0  0  0  0  0
   15.2165  -21.7089    1.6266 C   0  0  0  0  0  0  0  0  0  0  0  0
   14.9258  -22.1206    0.2501 C   0  0  1  0  0  0  0  0  0  0  0  0
   15.3760  -23.4953   -0.1594 N   0  0  0  0  0  0  0  0  0  0  0  0
   14.9196  -23.5682   -1.5887 C   0  0  0  0  0  0  0  0  0  0  0  0
   14.7281  -24.5765    0.5885 O   0  0  0  0  0  0  0  0  0  0  0  0
   15.2059  -25.1014    1.7931 O   0  0  0  0  0  0  0  0  0  0  0  0
  1  2  1  0
  2  3  2  0
  4  5  1  0
  4  2  1  0
  6  7  1  0
  6  5  1  0
  7  8  1  0
  8 10  1  0
  8  9  1  6
 10 12  1  0
 11 10  2  0
 12 13  1  0
 14 15  2  0
 14 13  1  0
 16 17  1  0
 17 19  1  0
 17 18  2  0
 19 20  1  0
 21 20  1  6
 21 23  1  0
 21 22  1  0
 22 14  1  0
 23 24  1  0
 25 23  2  0
M  END
$$$$
