RGQ.pdb
     RDKit          3D

 25 24  0  0  1  0  0  0  0  0999 V2000
   19.4922  -21.4108  -16.3154 N   0  0  0  0  0  0  0  0  0  0  0  0
   18.4588  -22.0906  -17.0583 C   0  0  0  0  0  0  0  0  0  0  0  0
   18.4611  -22.0435  -18.3432 N   0  0  0  0  0  0  0  0  0  0  0  0
   17.4390  -22.8105  -16.3985 N   0  0  0  0  0  0  0  0  0  0  0  0
   17.3800  -22.8730  -14.9607 C   0  0  0  0  0  0  0  0  0  0  0  0
   18.3217  -23.9420  -14.5204 C   0  0  0  0  0  0  0  0  0  0  0  0
   18.4803  -24.1169  -13.0612 C   0  0  0  0  0  0  0  0  0  0  0  0
   18.6642  -22.8958  -12.2370 C   0  0  2  0  0  0  0  0  0  0  0  0
   19.5686  -21.9451  -12.8131 N   0  0  0  0  0  0  0  0  0  0  0  0
   19.2668  -23.3511  -10.9308 C   0  0  0  0  0  0  0  0  0  0  0  0
   20.4093  -22.9370  -10.6010 O   0  0  0  0  0  0  0  0  0  0  0  0
   17.7704  -22.5389  -18.9203 N   0  0  0  0  0  0  0  0  0  0  0  0
   18.5845  -24.2300  -10.0671 C   0  0  0  0  0  0  0  0  0  0  0  0
   19.0990  -24.5632   -8.7319 C   0  0  0  0  0  0  0  0  0  0  0  0
   17.9662  -24.9380   -7.8447 O   0  0  0  0  0  0  0  0  0  0  0  0
   16.7991  -24.9508   -8.3014 N   0  0  0  0  0  0  0  0  0  0  0  0
   19.0044  -27.6453   -2.4708 C   0  0  0  0  0  0  0  0  0  0  0  0
   17.5762  -27.6212   -2.3983 O   0  0  0  0  0  0  0  0  0  0  0  0
   16.9434  -28.1471   -1.4241 C   0  0  0  0  0  0  0  0  0  0  0  0
   16.8231  -26.9613   -3.4809 C   0  0  0  0  0  0  0  0  0  0  0  0
   17.7007  -26.3661   -4.4928 C   0  0  2  0  0  0  0  0  0  0  0  0
   17.0357  -25.7110   -5.6713 N   0  0  0  0  0  0  0  0  0  0  0  0
   18.2107  -25.2756   -6.4997 C   0  0  0  0  0  0  0  0  0  0  0  0
   16.2508  -24.5235   -5.3222 O   0  0  0  0  0  0  0  0  0  0  0  0
   14.8841  -24.5375   -5.0279 O   0  0  0  0  0  0  0  0  0  0  0  0
  1  2  1  0
  2  3  2  0
  4  5  1  0
  4  2  1  0
  6  7  1  0
  6  5  1  0
  7  8  1  0
  8 10  1  0
  8  9  1  6
 10 12  1  0
 11 10  2  0
 12 13  1  0
 14 15  2  0
 14 13  1  0
 16 17  1  0
 17 19  1  0
 17 18  2  0
 19 20  1  0
 21 20  1  6
 21 23  1  0
 21 22  1  0
 22 14  1  0
 23 24  1  0
 25 23  2  0
M  END
$$$$
