RGQ.pdb
     RDKit          3D

 25 24  0  0  1  0  0  0  0  0999 V2000
   21.7227  -19.9667  -15.3268 N   0  0  0  0  0  0  0  0  0  0  0  0
   20.8959  -18.9259  -15.8883 C   0  0  0  0  0  0  0  0  0  0  0  0
   19.7818  -19.2313  -16.4527 N   0  0  0  0  0  0  0  0  0  0  0  0
   21.2885  -17.5709  -15.8301 N   0  0  0  0  0  0  0  0  0  0  0  0
   22.6793  -17.1970  -15.8088 C   0  0  0  0  0  0  0  0  0  0  0  0
   22.8217  -16.0573  -14.8580 C   0  0  0  0  0  0  0  0  0  0  0  0
   24.1687  -15.4586  -14.7478 C   0  0  0  0  0  0  0  0  0  0  0  0
   24.8019  -14.9534  -15.9920 C   0  0  2  0  0  0  0  0  0  0  0  0
   26.0427  -15.5973  -16.3072 N   0  0  0  0  0  0  0  0  0  0  0  0
   25.1036  -13.4944  -15.7534 C   0  0  0  0  0  0  0  0  0  0  0  0
   26.2692  -13.1516  -15.4228 O   0  0  0  0  0  0  0  0  0  0  0  0
   19.1688  -18.5327  -16.8904 N   0  0  0  0  0  0  0  0  0  0  0  0
   24.1139  -12.5016  -15.8905 C   0  0  0  0  0  0  0  0  0  0  0  0
   24.4201  -11.0726  -15.7400 C   0  0  0  0  0  0  0  0  0  0  0  0
   23.1645  -10.2835  -15.8488 O   0  0  0  0  0  0  0  0  0  0  0  0
   22.0869  -10.8666  -16.1123 N   0  0  0  0  0  0  0  0  0  0  0  0
   22.9816   -4.5555  -13.7490 C   0  0  0  0  0  0  0  0  0  0  0  0
   21.6114   -4.6541  -14.1474 O   0  0  0  0  0  0  0  0  0  0  0  0
   20.7724   -3.7247  -13.9060 C   0  0  0  0  0  0  0  0  0  0  0  0
   21.1673   -5.8645  -14.8631 C   0  0  0  0  0  0  0  0  0  0  0  0
   22.2494   -6.8358  -15.0479 C   0  0  2  0  0  0  0  0  0  0  0  0
   21.8776   -8.1648  -15.6443 N   0  0  0  0  0  0  0  0  0  0  0  0
   23.1936   -8.8890  -15.6558 C   0  0  0  0  0  0  0  0  0  0  0  0
   21.3859   -8.0775  -17.0222 O   0  0  0  0  0  0  0  0  0  0  0  0
   20.0364   -7.9846  -17.3758 O   0  0  0  0  0  0  0  0  0  0  0  0
  1  2  1  0
  2  3  2  0
  4  5  1  0
  4  2  1  0
  6  7  1  0
  6  5  1  0
  7  8  1  0
  8 10  1  0
  8  9  1  1
 10 12  1  0
 11 10  2  0
 12 13  1  0
 14 15  2  0
 14 13  1  0
 16 17  1  0
 17 19  1  0
 17 18  2  0
 19 20  1  0
 21 20  1  1
 21 23  1  0
 21 22  1  0
 22 14  1  0
 23 24  1  0
 25 23  2  0
M  END
$$$$
