RGQ.pdb
     RDKit          3D

 25 24  0  0  1  0  0  0  0  0999 V2000
   21.8989  -21.2197   -9.4986 N   0  0  0  0  0  0  0  0  0  0  0  0
   22.8945  -21.3464   -8.4618 C   0  0  0  0  0  0  0  0  0  0  0  0
   22.6287  -22.0243   -7.4021 N   0  0  0  0  0  0  0  0  0  0  0  0
   24.1618  -20.7371   -8.5884 N   0  0  0  0  0  0  0  0  0  0  0  0
   24.7338  -20.4662   -9.8822 C   0  0  0  0  0  0  0  0  0  0  0  0
   26.1123  -21.0344   -9.8899 C   0  0  0  0  0  0  0  0  0  0  0  0
   26.8846  -20.8665  -11.1390 C   0  0  0  0  0  0  0  0  0  0  0  0
   26.1306  -20.8483  -12.4180 C   0  0  2  0  0  0  0  0  0  0  0  0
   26.1003  -22.1164  -13.0847 N   0  0  0  0  0  0  0  0  0  0  0  0
   26.8547  -19.8839  -13.3247 C   0  0  0  0  0  0  0  0  0  0  0  0
   27.8944  -20.2637  -13.9248 O   0  0  0  0  0  0  0  0  0  0  0  0
   23.3047  -22.1540   -6.6393 N   0  0  0  0  0  0  0  0  0  0  0  0
   26.3982  -18.5656  -13.5191 C   0  0  0  0  0  0  0  0  0  0  0  0
   26.9866  -17.6809  -14.5339 C   0  0  0  0  0  0  0  0  0  0  0  0
   25.8998  -17.0014  -15.2877 O   0  0  0  0  0  0  0  0  0  0  0  0
   24.7042  -17.2121  -14.9765 N   0  0  0  0  0  0  0  0  0  0  0  0
   27.1405  -12.5713  -19.3447 C   0  0  0  0  0  0  0  0  0  0  0  0
   25.7180  -12.5826  -19.4937 O   0  0  0  0  0  0  0  0  0  0  0  0
   25.1169  -11.7703  -20.2715 C   0  0  0  0  0  0  0  0  0  0  0  0
   24.9335  -13.5693  -18.7286 C   0  0  0  0  0  0  0  0  0  0  0  0
   25.7752  -14.4222  -17.8843 C   0  0  2  0  0  0  0  0  0  0  0  0
   25.0785  -15.4832  -17.0786 N   0  0  0  0  0  0  0  0  0  0  0  0
   26.2197  -16.1274  -16.3443 C   0  0  0  0  0  0  0  0  0  0  0  0
   24.4175  -16.5059  -17.8941 O   0  0  0  0  0  0  0  0  0  0  0  0
   23.0925  -16.4315  -18.3344 O   0  0  0  0  0  0  0  0  0  0  0  0
  1  2  1  0
  2  3  2  0
  4  5  1  0
  4  2  1  0
  6  7  1  0
  6  5  1  0
  7  8  1  0
  8 10  1  0
  8  9  1  6
 10 12  1  0
 11 10  2  0
 12 13  1  0
 14 15  2  0
 14 13  1  0
 16 17  1  0
 17 19  1  0
 17 18  2  0
 19 20  1  0
 21 20  1  1
 21 23  1  0
 21 22  1  0
 22 14  1  0
 23 24  1  0
 25 23  2  0
M  END
$$$$
