RGQ.pdb
     RDKit          3D

 25 24  0  0  1  0  0  0  0  0999 V2000
    9.1310   -7.8404  -12.8320 N   0  0  0  0  0  0  0  0  0  0  0  0
    8.6137   -9.1798  -12.6891 C   0  0  0  0  0  0  0  0  0  0  0  0
    7.4910   -9.3694  -12.0917 N   0  0  0  0  0  0  0  0  0  0  0  0
    9.3200  -10.2929  -13.1948 N   0  0  0  0  0  0  0  0  0  0  0  0
   10.5087  -10.1238  -13.9903 C   0  0  0  0  0  0  0  0  0  0  0  0
   10.9640  -11.4807  -14.4085 C   0  0  0  0  0  0  0  0  0  0  0  0
   12.2595  -11.5491  -15.1171 C   0  0  0  0  0  0  0  0  0  0  0  0
   12.3738  -10.8352  -16.4139 C   0  0  2  0  0  0  0  0  0  0  0  0
   11.7154  -11.5035  -17.4972 N   0  0  0  0  0  0  0  0  0  0  0  0
   13.8450  -10.7889  -16.7455 C   0  0  0  0  0  0  0  0  0  0  0  0
   14.3353  -11.6698  -17.5000 O   0  0  0  0  0  0  0  0  0  0  0  0
    7.0742  -10.3006  -11.9710 N   0  0  0  0  0  0  0  0  0  0  0  0
   14.6884   -9.7841  -16.2325 C   0  0  0  0  0  0  0  0  0  0  0  0
   16.1110   -9.7053  -16.5911 C   0  0  0  0  0  0  0  0  0  0  0  0
   16.6870   -8.4437  -16.0550 O   0  0  0  0  0  0  0  0  0  0  0  0
   15.9437   -7.6236  -15.4671 N   0  0  0  0  0  0  0  0  0  0  0  0
   23.3405   -5.7756  -14.6998 C   0  0  0  0  0  0  0  0  0  0  0  0
   22.2738   -6.7129  -14.5276 O   0  0  0  0  0  0  0  0  0  0  0  0
   22.4909   -7.9254  -14.1976 C   0  0  0  0  0  0  0  0  0  0  0  0
   20.8875   -6.2538  -14.7322 C   0  0  0  0  0  0  0  0  0  0  0  0
   20.0304   -7.2955  -15.3056 C   0  0  1  0  0  0  0  0  0  0  0  0
   18.5993   -6.9257  -15.5803 N   0  0  0  0  0  0  0  0  0  0  0  0
   18.0611   -8.1784  -16.2106 C   0  0  0  0  0  0  0  0  0  0  0  0
   18.4464   -5.8249  -16.5357 O   0  0  0  0  0  0  0  0  0  0  0  0
   18.3925   -4.4731  -16.1825 O   0  0  0  0  0  0  0  0  0  0  0  0
  1  2  1  0
  2  3  2  0
  4  5  1  0
  4  2  1  0
  6  7  1  0
  6  5  1  0
  7  8  1  0
  8 10  1  0
  8  9  1  6
 10 12  1  0
 11 10  2  0
 12 13  1  0
 14 15  2  0
 14 13  1  0
 16 17  1  0
 17 19  1  0
 17 18  2  0
 19 20  1  0
 21 20  1  1
 21 23  1  0
 21 22  1  0
 22 14  1  0
 23 24  1  0
 25 23  2  0
M  END
$$$$
