RGQ.pdb
     RDKit          3D

 25 24  0  0  1  0  0  0  0  0999 V2000
   27.0742  -22.2207   -9.9558 N   0  0  0  0  0  0  0  0  0  0  0  0
   26.4150  -20.9397   -9.8753 C   0  0  0  0  0  0  0  0  0  0  0  0
   25.7133  -20.6477   -8.8383 N   0  0  0  0  0  0  0  0  0  0  0  0
   26.5255  -19.9951  -10.9189 N   0  0  0  0  0  0  0  0  0  0  0  0
   26.3900  -20.3875  -12.2981 C   0  0  0  0  0  0  0  0  0  0  0  0
   25.3531  -19.5102  -12.9132 C   0  0  0  0  0  0  0  0  0  0  0  0
   24.8849  -19.8932  -14.2619 C   0  0  0  0  0  0  0  0  0  0  0  0
   25.7555  -19.5535  -15.4156 C   0  0  2  0  0  0  0  0  0  0  0  0
   26.9870  -18.9242  -15.0399 N   0  0  0  0  0  0  0  0  0  0  0  0
   24.9846  -18.5628  -16.2528 C   0  0  0  0  0  0  0  0  0  0  0  0
   25.6102  -17.7874  -17.0228 O   0  0  0  0  0  0  0  0  0  0  0  0
   25.2861  -19.7242   -8.6963 N   0  0  0  0  0  0  0  0  0  0  0  0
   23.5796  -18.4809  -16.1965 C   0  0  0  0  0  0  0  0  0  0  0  0
   22.8160  -17.5987  -17.0894 C   0  0  0  0  0  0  0  0  0  0  0  0
   21.3660  -17.7205  -16.7834 O   0  0  0  0  0  0  0  0  0  0  0  0
   20.9818  -18.5427  -15.9190 N   0  0  0  0  0  0  0  0  0  0  0  0
   17.2387  -13.9641  -19.3583 C   0  0  0  0  0  0  0  0  0  0  0  0
   16.3307  -14.7694  -18.6014 O   0  0  0  0  0  0  0  0  0  0  0  0
   15.0735  -14.5561  -18.6122 C   0  0  0  0  0  0  0  0  0  0  0  0
   16.8713  -15.8793  -17.7951 C   0  0  0  0  0  0  0  0  0  0  0  0
   18.3258  -16.0087  -17.9227 C   0  0  2  0  0  0  0  0  0  0  0  0
   18.9800  -17.1266  -17.1593 N   0  0  0  0  0  0  0  0  0  0  0  0
   20.4352  -16.9134  -17.4652 C   0  0  0  0  0  0  0  0  0  0  0  0
   18.6003  -18.4628  -17.6268 O   0  0  0  0  0  0  0  0  0  0  0  0
   17.5469  -19.2154  -17.0988 O   0  0  0  0  0  0  0  0  0  0  0  0
  1  2  1  0
  2  3  2  0
  4  5  1  0
  4  2  1  0
  6  7  1  0
  6  5  1  0
  7  8  1  0
  8 10  1  0
  8  9  1  1
 10 12  1  0
 11 10  2  0
 12 13  1  0
 14 15  2  0
 14 13  1  0
 16 17  1  0
 17 19  1  0
 17 18  2  0
 19 20  1  0
 21 20  1  1
 21 23  1  0
 21 22  1  0
 22 14  1  0
 23 24  1  0
 25 23  2  0
M  END
$$$$
