IFI.pdb
     RDKit          3D

 28 28  0  0  1  0  0  0  0  0999 V2000
   29.3526  -17.6194  -15.1697 C   0  0  0  0  0  0  0  0  0  0  0  0
   28.8428  -18.7969  -15.9308 C   0  0  0  0  0  0  0  0  0  0  0  0
   27.7201  -19.5455  -15.2569 C   0  0  2  0  0  0  0  0  0  0  0  0
   26.5340  -18.6254  -15.1684 C   0  0  0  0  0  0  0  0  0  0  0  0
   28.1885  -20.0575  -13.9393 C   0  0  2  0  0  0  0  0  0  0  0  0
   29.3148  -20.9373  -14.1413 N   0  0  0  0  0  0  0  0  0  0  0  0
   27.1069  -20.7140  -13.1547 C   0  0  0  0  0  0  0  0  0  0  0  0
   26.6945  -21.8183  -13.5507 O   0  0  0  0  0  0  0  0  0  0  0  0
   26.5423  -20.1477  -12.0057 N   0  0  0  0  0  0  0  0  0  0  0  0
   25.5222  -20.7501  -11.1886 C   0  0  1  0  0  0  0  0  0  0  0  0
   25.4342  -20.1970   -9.8080 C   0  0  0  0  0  0  0  0  0  0  0  0
   26.6564  -20.2021   -9.0317 C   0  0  0  0  0  0  0  0  0  0  0  0
   27.6611  -21.1054   -9.2818 C   0  0  0  0  0  0  0  0  0  0  0  0
   28.8096  -21.0801   -8.5238 C   0  0  0  0  0  0  0  0  0  0  0  0
   28.9972  -20.1650   -7.5013 C   0  0  0  0  0  0  0  0  0  0  0  0
   27.9870  -19.2645   -7.2575 C   0  0  0  0  0  0  0  0  0  0  0  0
   26.8203  -19.2803   -8.0176 C   0  0  0  0  0  0  0  0  0  0  0  0
   24.2095  -20.4432  -11.8626 C   0  0  0  0  0  0  0  0  0  0  0  0
   23.9387  -19.2476  -12.1507 O   0  0  0  0  0  0  0  0  0  0  0  0
   23.0480  -22.6786  -16.3588 C   0  0  0  0  0  0  0  0  0  0  0  0
   23.1308  -21.7670  -15.1442 C   0  0  0  0  0  0  0  0  0  0  0  0
   21.9907  -22.0179  -14.1894 C   0  0  2  0  0  0  0  0  0  0  0  0
   20.6865  -21.9052  -14.9321 C   0  0  0  0  0  0  0  0  0  0  0  0
   22.0548  -21.1696  -12.9678 C   0  0  2  0  0  0  0  0  0  0  0  0
   23.2717  -21.4377  -12.1842 N   0  0  0  0  0  0  0  0  0  0  0  0
   20.8914  -21.2935  -12.0749 C   0  0  0  0  0  0  0  0  0  0  0  0
   20.7243  -22.2403  -11.2727 O   0  0  0  0  0  0  0  0  0  0  0  0
   19.9062  -20.3214  -12.1003 O   0  0  0  0  0  0  0  0  0  0  0  0
  1  2  1  0
  3  5  1  0
  3  4  1  1
  3  2  1  0
  5  6  1  6
  7  8  2  0
  7  5  1  0
  9  7  1  0
 10  9  1  0
 11 12  1  0
 10 11  1  1
 12 13  2  0
 12 17  1  0
 13 14  1  0
 14 15  2  0
 16 15  1  0
 17 16  2  0
 18 19  2  0
 18 10  1  0
 20 21  1  0
 21 22  1  0
 22 24  1  0
 22 23  1  6
 24 26  1  0
 24 25  1  1
 25 18  1  0
 26 28  1  0
 27 26  2  0
M  END
$$$$
