IFI.pdb
     RDKit          3D

 28 28  0  0  1  0  0  0  0  0999 V2000
   23.8478  -20.1105  -14.7219 C   0  0  0  0  0  0  0  0  0  0  0  0
   25.1080  -20.6869  -14.1693 C   0  0  0  0  0  0  0  0  0  0  0  0
   25.1629  -20.7558  -12.6636 C   0  0  2  0  0  0  0  0  0  0  0  0
   24.8828  -19.3805  -12.1239 C   0  0  0  0  0  0  0  0  0  0  0  0
   26.4769  -21.3154  -12.2421 C   0  0  2  0  0  0  0  0  0  0  0  0
   26.7152  -22.5551  -12.9419 N   0  0  0  0  0  0  0  0  0  0  0  0
   26.5898  -21.4817  -10.7670 C   0  0  0  0  0  0  0  0  0  0  0  0
   25.9218  -22.3854  -10.2345 O   0  0  0  0  0  0  0  0  0  0  0  0
   27.4053  -20.6742   -9.9653 N   0  0  0  0  0  0  0  0  0  0  0  0
   27.5506  -20.7849   -8.5378 C   0  0  1  0  0  0  0  0  0  0  0  0
   28.6084  -19.9103   -7.9580 C   0  0  0  0  0  0  0  0  0  0  0  0
   28.6889  -19.8663   -6.5131 C   0  0  0  0  0  0  0  0  0  0  0  0
   28.1338  -18.8349   -5.7948 C   0  0  0  0  0  0  0  0  0  0  0  0
   28.2292  -18.8268   -4.4218 C   0  0  0  0  0  0  0  0  0  0  0  0
   28.8733  -19.8339   -3.7224 C   0  0  0  0  0  0  0  0  0  0  0  0
   29.4262  -20.8623   -4.4486 C   0  0  0  0  0  0  0  0  0  0  0  0
   29.3362  -20.8815   -5.8381 C   0  0  0  0  0  0  0  0  0  0  0  0
   26.2408  -20.3305   -7.9465 C   0  0  0  0  0  0  0  0  0  0  0  0
   25.7210  -19.2637   -8.3676 O   0  0  0  0  0  0  0  0  0  0  0  0
   20.6613  -21.3110   -7.4771 C   0  0  0  0  0  0  0  0  0  0  0  0
   21.7925  -20.7961   -6.6006 C   0  0  0  0  0  0  0  0  0  0  0  0
   23.1374  -21.2313   -7.1263 C   0  0  2  0  0  0  0  0  0  0  0  0
   23.1846  -22.7343   -7.1870 C   0  0  0  0  0  0  0  0  0  0  0  0
   24.2776  -20.6299   -6.3818 C   0  0  2  0  0  0  0  0  0  0  0  0
   25.5728  -21.0491   -6.9418 N   0  0  0  0  0  0  0  0  0  0  0  0
   24.2831  -20.9131   -4.9376 C   0  0  0  0  0  0  0  0  0  0  0  0
   23.5202  -20.3583   -4.1141 O   0  0  0  0  0  0  0  0  0  0  0  0
   25.1732  -21.8432   -4.4288 O   0  0  0  0  0  0  0  0  0  0  0  0
  1  2  1  0
  3  5  1  0
  3  4  1  1
  3  2  1  0
  5  6  1  6
  7  8  2  0
  7  5  1  0
  9  7  1  0
 10  9  1  0
 11 12  1  0
 10 11  1  1
 12 13  2  0
 12 17  1  0
 13 14  1  0
 14 15  2  0
 16 15  1  0
 17 16  2  0
 18 19  2  0
 18 10  1  0
 20 21  1  0
 21 22  1  0
 22 24  1  0
 22 23  1  1
 24 26  1  0
 24 25  1  6
 25 18  1  0
 26 28  1  0
 27 26  2  0
M  END
$$$$
