IFI.pdb
     RDKit          3D

 28 28  0  0  1  0  0  0  0  0999 V2000
   25.9032  -19.2134  -18.8633 C   0  0  0  0  0  0  0  0  0  0  0  0
   27.0005  -19.7897  -18.0329 C   0  0  0  0  0  0  0  0  0  0  0  0
   26.6178  -20.0960  -16.6066 C   0  0  2  0  0  0  0  0  0  0  0  0
   26.0865  -18.8337  -15.9856 C   0  0  0  0  0  0  0  0  0  0  0  0
   27.7902  -20.6743  -15.8936 C   0  0  2  0  0  0  0  0  0  0  0  0
   28.2742  -21.8225  -16.6222 N   0  0  0  0  0  0  0  0  0  0  0  0
   27.4991  -21.0035  -14.4712 C   0  0  0  0  0  0  0  0  0  0  0  0
   26.7016  -21.9303  -14.2441 O   0  0  0  0  0  0  0  0  0  0  0  0
   28.0775  -20.3227  -13.3934 N   0  0  0  0  0  0  0  0  0  0  0  0
   27.8146  -20.5784  -12.0018 C   0  0  1  0  0  0  0  0  0  0  0  0
   28.7075  -19.8436  -11.0624 C   0  0  0  0  0  0  0  0  0  0  0  0
   28.4186  -19.9884   -9.6510 C   0  0  0  0  0  0  0  0  0  0  0  0
   28.9870  -20.9901   -8.9017 C   0  0  0  0  0  0  0  0  0  0  0  0
   28.6897  -21.0966   -7.5621 C   0  0  0  0  0  0  0  0  0  0  0  0
   27.8257  -20.2197   -6.9275 C   0  0  0  0  0  0  0  0  0  0  0  0
   27.2611  -19.2202   -7.6845 C   0  0  0  0  0  0  0  0  0  0  0  0
   27.5541  -19.1023   -9.0407 C   0  0  0  0  0  0  0  0  0  0  0  0
   26.4139  -20.0862  -11.7423 C   0  0  0  0  0  0  0  0  0  0  0  0
   26.1401  -18.8796  -11.9769 O   0  0  0  0  0  0  0  0  0  0  0  0
   22.4474  -21.1119  -14.4488 C   0  0  0  0  0  0  0  0  0  0  0  0
   23.3835  -20.4886  -13.4250 C   0  0  0  0  0  0  0  0  0  0  0  0
   23.0770  -20.9759  -12.0311 C   0  0  2  0  0  0  0  0  0  0  0  0
   21.6323  -20.6979  -11.7139 C   0  0  0  0  0  0  0  0  0  0  0  0
   24.0223  -20.4508  -11.0080 C   0  0  2  0  0  0  0  0  0  0  0  0
   25.3970  -20.9191  -11.2482 N   0  0  0  0  0  0  0  0  0  0  0  0
   23.6595  -20.7706   -9.6180 C   0  0  0  0  0  0  0  0  0  0  0  0
   24.1747  -21.7020   -8.9583 O   0  0  0  0  0  0  0  0  0  0  0  0
   22.6946  -20.0151   -8.9744 O   0  0  0  0  0  0  0  0  0  0  0  0
  1  2  1  0
  3  5  1  0
  3  4  1  1
  3  2  1  0
  5  6  1  6
  7  8  2  0
  7  5  1  0
  9  7  1  0
 10  9  1  0
 11 12  1  0
 10 11  1  1
 12 13  2  0
 12 17  1  0
 13 14  1  0
 14 15  2  0
 16 15  1  0
 17 16  2  0
 18 19  2  0
 18 10  1  0
 20 21  1  0
 21 22  1  0
 22 24  1  0
 22 23  1  1
 24 26  1  0
 24 25  1  6
 25 18  1  0
 26 28  1  0
 27 26  2  0
M  END
$$$$
