IFI.pdb
     RDKit          3D

 28 28  0  0  1  0  0  0  0  0999 V2000
   28.9252  -18.0811  -16.7994 C   0  0  0  0  0  0  0  0  0  0  0  0
   29.2056  -18.8746  -15.5676 C   0  0  0  0  0  0  0  0  0  0  0  0
   27.9820  -19.4327  -14.8847 C   0  0  2  0  0  0  0  0  0  0  0  0
   27.0637  -18.2859  -14.5641 C   0  0  0  0  0  0  0  0  0  0  0  0
   28.3984  -20.2255  -13.6950 C   0  0  2  0  0  0  0  0  0  0  0  0
   29.3135  -21.2626  -14.1080 N   0  0  0  0  0  0  0  0  0  0  0  0
   27.2445  -20.7766  -12.9327 C   0  0  0  0  0  0  0  0  0  0  0  0
   26.7227  -21.8248  -13.3517 O   0  0  0  0  0  0  0  0  0  0  0  0
   26.7291  -20.1723  -11.7799 N   0  0  0  0  0  0  0  0  0  0  0  0
   25.6432  -20.6779  -10.9823 C   0  0  1  0  0  0  0  0  0  0  0  0
   25.4587  -19.9774   -9.6803 C   0  0  0  0  0  0  0  0  0  0  0  0
   26.5303  -20.1144   -8.7164 C   0  0  0  0  0  0  0  0  0  0  0  0
   27.3493  -21.2175   -8.7064 C   0  0  0  0  0  0  0  0  0  0  0  0
   28.3586  -21.3133   -7.7756 C   0  0  0  0  0  0  0  0  0  0  0  0
   28.5864  -20.3253   -6.8320 C   0  0  0  0  0  0  0  0  0  0  0  0
   27.7623  -19.2247   -6.8487 C   0  0  0  0  0  0  0  0  0  0  0  0
   26.7378  -19.1165   -7.7855 C   0  0  0  0  0  0  0  0  0  0  0  0
   24.3887  -20.4407  -11.7832 C   0  0  0  0  0  0  0  0  0  0  0  0
   24.1770  -19.2929  -12.2561 O   0  0  0  0  0  0  0  0  0  0  0  0
   23.2136  -23.7300  -15.7446 C   0  0  0  0  0  0  0  0  0  0  0  0
   23.3821  -22.5649  -14.7817 C   0  0  0  0  0  0  0  0  0  0  0  0
   22.1762  -22.4099  -13.8894 C   0  0  2  0  0  0  0  0  0  0  0  0
   20.9343  -22.3524  -14.7376 C   0  0  0  0  0  0  0  0  0  0  0  0
   22.2980  -21.2737  -12.9353 C   0  0  2  0  0  0  0  0  0  0  0  0
   23.4420  -21.4491  -12.0257 N   0  0  0  0  0  0  0  0  0  0  0  0
   21.0952  -21.0232  -12.1250 C   0  0  0  0  0  0  0  0  0  0  0  0
   20.1925  -20.2168  -12.4456 O   0  0  0  0  0  0  0  0  0  0  0  0
   20.9230  -21.7043  -10.9323 O   0  0  0  0  0  0  0  0  0  0  0  0
  1  2  1  0
  3  5  1  0
  3  4  1  1
  3  2  1  0
  5  6  1  6
  7  8  2  0
  7  5  1  0
  9  7  1  0
 10  9  1  0
 11 12  1  0
 10 11  1  1
 12 13  2  0
 12 17  1  0
 13 14  1  0
 14 15  2  0
 16 15  1  0
 17 16  2  0
 18 19  2  0
 18 10  1  0
 20 21  1  0
 21 22  1  0
 22 24  1  0
 22 23  1  6
 24 26  1  0
 24 25  1  1
 25 18  1  0
 26 28  1  0
 27 26  2  0
M  END
$$$$
