IFI.pdb
     RDKit          3D

 28 28  0  0  1  0  0  0  0  0999 V2000
   40.1271  -28.3051    7.1685 C   0  0  0  0  0  0  0  0  0  0  0  0
   39.4576  -27.5441    6.0738 C   0  0  0  0  0  0  0  0  0  0  0  0
   38.7124  -26.3132    6.5257 C   0  0  2  0  0  0  0  0  0  0  0  0
   37.6993  -26.7334    7.5543 C   0  0  0  0  0  0  0  0  0  0  0  0
   38.1242  -25.6289    5.3411 C   0  0  2  0  0  0  0  0  0  0  0  0
   39.1752  -25.3004    4.4079 N   0  0  0  0  0  0  0  0  0  0  0  0
   37.3134  -24.4344    5.7049 C   0  0  0  0  0  0  0  0  0  0  0  0
   37.9201  -23.3766    5.9484 O   0  0  0  0  0  0  0  0  0  0  0  0
   35.9159  -24.4521    5.7833 N   0  0  0  0  0  0  0  0  0  0  0  0
   35.0825  -23.3373    6.1492 C   0  0  1  0  0  0  0  0  0  0  0  0
   33.7363  -23.3406    5.5107 C   0  0  0  0  0  0  0  0  0  0  0  0
   32.8229  -22.2966    5.9255 C   0  0  0  0  0  0  0  0  0  0  0  0
   32.8864  -21.0333    5.3892 C   0  0  0  0  0  0  0  0  0  0  0  0
   32.0009  -20.0661    5.8071 C   0  0  0  0  0  0  0  0  0  0  0  0
   31.0313  -20.3190    6.7632 C   0  0  0  0  0  0  0  0  0  0  0  0
   30.9744  -21.5858    7.2950 C   0  0  0  0  0  0  0  0  0  0  0  0
   31.8649  -22.5727    6.8801 C   0  0  0  0  0  0  0  0  0  0  0  0
   34.8573  -23.4520    7.6350 C   0  0  0  0  0  0  0  0  0  0  0  0
   34.6355  -24.5881    8.1306 O   0  0  0  0  0  0  0  0  0  0  0  0
   38.3872  -21.6964   10.9744 C   0  0  0  0  0  0  0  0  0  0  0  0
   37.2343  -22.4519   10.3318 C   0  0  0  0  0  0  0  0  0  0  0  0
   35.9083  -21.8101   10.6545 C   0  0  2  0  0  0  0  0  0  0  0  0
   35.7402  -21.7406   12.1485 C   0  0  0  0  0  0  0  0  0  0  0  0
   34.7624  -22.4548    9.9563 C   0  0  2  0  0  0  0  0  0  0  0  0
   34.8846  -22.3413    8.4938 N   0  0  0  0  0  0  0  0  0  0  0  0
   33.4395  -21.9455   10.3522 C   0  0  0  0  0  0  0  0  0  0  0  0
   32.6104  -22.6019   11.0229 O   0  0  0  0  0  0  0  0  0  0  0  0
   33.0603  -20.6685    9.9759 O   0  0  0  0  0  0  0  0  0  0  0  0
  1  2  1  0
  3  5  1  0
  3  4  1  1
  3  2  1  0
  5  6  1  6
  7  8  2  0
  7  5  1  0
  9  7  1  0
 10  9  1  0
 11 12  1  0
 10 11  1  6
 12 13  2  0
 12 17  1  0
 13 14  1  0
 14 15  2  0
 16 15  1  0
 17 16  2  0
 18 19  2  0
 18 10  1  0
 20 21  1  0
 21 22  1  0
 22 24  1  0
 22 23  1  1
 24 26  1  0
 24 25  1  6
 25 18  1  0
 26 28  1  0
 27 26  2  0
M  END
$$$$
