IFI.pdb
     RDKit          3D

 28 28  0  0  1  0  0  0  0  0999 V2000
   25.6460  -21.7561  -15.5878 C   0  0  0  0  0  0  0  0  0  0  0  0
   25.2928  -20.9000  -14.4182 C   0  0  0  0  0  0  0  0  0  0  0  0
   25.6090  -21.5069  -13.0741 C   0  0  2  0  0  0  0  0  0  0  0  0
   24.8599  -22.8058  -12.9616 C   0  0  0  0  0  0  0  0  0  0  0  0
   25.2855  -20.5266  -12.0008 C   0  0  2  0  0  0  0  0  0  0  0  0
   25.7148  -19.2106  -12.4100 N   0  0  0  0  0  0  0  0  0  0  0  0
   25.8522  -20.9074  -10.6779 C   0  0  0  0  0  0  0  0  0  0  0  0
   25.5105  -22.0019  -10.1962 O   0  0  0  0  0  0  0  0  0  0  0  0
   26.7413  -20.0961   -9.9631 N   0  0  0  0  0  0  0  0  0  0  0  0
   27.2391  -20.3614   -8.6392 C   0  0  1  0  0  0  0  0  0  0  0  0
   28.3217  -19.4399   -8.1934 C   0  0  0  0  0  0  0  0  0  0  0  0
   28.7241  -19.5403   -6.8062 C   0  0  0  0  0  0  0  0  0  0  0  0
   28.2962  -18.6324   -5.8679 C   0  0  0  0  0  0  0  0  0  0  0  0
   28.6985  -18.7598   -4.5579 C   0  0  0  0  0  0  0  0  0  0  0  0
   29.5316  -19.7841   -4.1395 C   0  0  0  0  0  0  0  0  0  0  0  0
   29.9553  -20.6884   -5.0848 C   0  0  0  0  0  0  0  0  0  0  0  0
   29.5551  -20.5699   -6.4133 C   0  0  0  0  0  0  0  0  0  0  0  0
   26.0768  -20.1485   -7.7036 C   0  0  0  0  0  0  0  0  0  0  0  0
   25.2566  -19.2261   -7.9527 O   0  0  0  0  0  0  0  0  0  0  0  0
   21.2181  -22.3846   -5.6922 C   0  0  0  0  0  0  0  0  0  0  0  0
   22.3608  -21.5069   -5.2053 C   0  0  0  0  0  0  0  0  0  0  0  0
   23.5986  -21.6994   -6.0451 C   0  0  2  0  0  0  0  0  0  0  0  0
   23.9942  -23.1513   -6.0216 C   0  0  0  0  0  0  0  0  0  0  0  0
   24.7052  -20.7753   -5.6743 C   0  0  2  0  0  0  0  0  0  0  0  0
   25.8686  -20.9384   -6.5613 N   0  0  0  0  0  0  0  0  0  0  0  0
   25.1634  -20.8970   -4.2810 C   0  0  0  0  0  0  0  0  0  0  0  0
   24.4719  -20.5757   -3.2878 O   0  0  0  0  0  0  0  0  0  0  0  0
   26.4293  -21.3928   -4.0208 O   0  0  0  0  0  0  0  0  0  0  0  0
  1  2  1  0
  3  5  1  0
  3  4  1  1
  3  2  1  0
  5  6  1  6
  7  8  2  0
  7  5  1  0
  9  7  1  0
 10  9  1  0
 11 12  1  0
 10 11  1  1
 12 13  2  0
 12 17  1  0
 13 14  1  0
 14 15  2  0
 16 15  1  0
 17 16  2  0
 18 19  2  0
 18 10  1  0
 20 21  1  0
 21 22  1  0
 22 24  1  0
 22 23  1  1
 24 26  1  0
 24 25  1  6
 25 18  1  0
 26 28  1  0
 27 26  2  0
M  END
$$$$
