IFI.pdb
     RDKit          3D

 28 28  0  0  1  0  0  0  0  0999 V2000
   26.6882  -19.5829  -15.7641 C   0  0  0  0  0  0  0  0  0  0  0  0
   25.8098  -20.7458  -15.4450 C   0  0  0  0  0  0  0  0  0  0  0  0
   25.5466  -20.9525  -13.9743 C   0  0  2  0  0  0  0  0  0  0  0  0
   24.9069  -19.7028  -13.4355 C   0  0  0  0  0  0  0  0  0  0  0  0
   26.8170  -21.3245  -13.2923 C   0  0  2  0  0  0  0  0  0  0  0  0
   27.3616  -22.5102  -13.9096 N   0  0  0  0  0  0  0  0  0  0  0  0
   26.6587  -21.4890  -11.8212 C   0  0  0  0  0  0  0  0  0  0  0  0
   26.1254  -22.5348  -11.4108 O   0  0  0  0  0  0  0  0  0  0  0  0
   27.0791  -20.5289  -10.8933 N   0  0  0  0  0  0  0  0  0  0  0  0
   26.9274  -20.6203   -9.4651 C   0  0  1  0  0  0  0  0  0  0  0  0
   27.7214  -19.6202   -8.6974 C   0  0  0  0  0  0  0  0  0  0  0  0
   27.6868  -19.7389   -7.2548 C   0  0  0  0  0  0  0  0  0  0  0  0
   26.9753  -18.8555   -6.4794 C   0  0  0  0  0  0  0  0  0  0  0  0
   26.9646  -18.9998   -5.1107 C   0  0  0  0  0  0  0  0  0  0  0  0
   27.6539  -20.0171   -4.4720 C   0  0  0  0  0  0  0  0  0  0  0  0
   28.3635  -20.8969   -5.2552 C   0  0  0  0  0  0  0  0  0  0  0  0
   28.3820  -20.7611   -6.6409 C   0  0  0  0  0  0  0  0  0  0  0  0
   25.4759  -20.3331   -9.1784 C   0  0  0  0  0  0  0  0  0  0  0  0
   24.9113  -19.3866   -9.7876 O   0  0  0  0  0  0  0  0  0  0  0  0
   20.6867  -23.1889   -6.3309 C   0  0  0  0  0  0  0  0  0  0  0  0
   21.2010  -22.0671   -7.2198 C   0  0  0  0  0  0  0  0  0  0  0  0
   22.7084  -22.0232   -7.2332 C   0  0  2  0  0  0  0  0  0  0  0  0
   23.2135  -21.8614   -5.8248 C   0  0  0  0  0  0  0  0  0  0  0  0
   23.2546  -21.0132   -8.1808 C   0  0  2  0  0  0  0  0  0  0  0  0
   24.7231  -21.0792   -8.2571 N   0  0  0  0  0  0  0  0  0  0  0  0
   22.8673  -19.6244   -7.8853 C   0  0  0  0  0  0  0  0  0  0  0  0
   21.6989  -19.1872   -7.9932 O   0  0  0  0  0  0  0  0  0  0  0  0
   23.8293  -18.7242   -7.4611 O   0  0  0  0  0  0  0  0  0  0  0  0
  1  2  1  0
  3  5  1  0
  3  4  1  1
  3  2  1  0
  5  6  1  6
  7  8  2  0
  7  5  1  0
  9  7  1  0
 10  9  1  0
 11 12  1  0
 10 11  1  1
 12 13  2  0
 12 17  1  0
 13 14  1  0
 14 15  2  0
 16 15  1  0
 17 16  2  0
 18 19  2  0
 18 10  1  0
 20 21  1  0
 21 22  1  0
 22 24  1  0
 22 23  1  1
 24 26  1  0
 24 25  1  1
 25 18  1  0
 26 28  1  0
 27 26  2  0
M  END
$$$$
