IFI.pdb
     RDKit          3D

 28 28  0  0  1  0  0  0  0  0999 V2000
   28.5817  -16.4699  -18.0671 C   0  0  0  0  0  0  0  0  0  0  0  0
   27.3422  -17.2947  -17.9715 C   0  0  0  0  0  0  0  0  0  0  0  0
   26.6395  -17.2249  -16.6388 C   0  0  2  0  0  0  0  0  0  0  0  0
   27.6344  -17.5793  -15.5684 C   0  0  0  0  0  0  0  0  0  0  0  0
   25.4398  -18.1066  -16.6659 C   0  0  2  0  0  0  0  0  0  0  0  0
   24.6129  -17.7543  -17.7953 N   0  0  0  0  0  0  0  0  0  0  0  0
   24.6735  -18.0824  -15.3897 C   0  0  0  0  0  0  0  0  0  0  0  0
   24.2211  -16.9888  -15.0080 O   0  0  0  0  0  0  0  0  0  0  0  0
   24.4443  -19.2236  -14.6120 N   0  0  0  0  0  0  0  0  0  0  0  0
   23.7666  -19.2510  -13.3427 C   0  0  1  0  0  0  0  0  0  0  0  0
   22.4151  -19.8770  -13.3809 C   0  0  0  0  0  0  0  0  0  0  0  0
   21.7237  -19.9974  -12.1145 C   0  0  0  0  0  0  0  0  0  0  0  0
   21.1242  -18.9141  -11.5189 C   0  0  0  0  0  0  0  0  0  0  0  0
   20.4750  -19.0663  -10.3149 C   0  0  0  0  0  0  0  0  0  0  0  0
   20.4000  -20.2886   -9.6680 C   0  0  0  0  0  0  0  0  0  0  0  0
   21.0026  -21.3677  -10.2707 C   0  0  0  0  0  0  0  0  0  0  0  0
   21.6624  -21.2262  -11.4887 C   0  0  0  0  0  0  0  0  0  0  0  0
   24.6134  -20.1040  -12.4335 C   0  0  0  0  0  0  0  0  0  0  0  0
   25.2184  -21.0958  -12.9193 O   0  0  0  0  0  0  0  0  0  0  0  0
   27.0330  -17.8628   -7.9744 C   0  0  0  0  0  0  0  0  0  0  0  0
   26.7549  -18.6567   -9.2414 C   0  0  0  0  0  0  0  0  0  0  0  0
   25.9820  -19.9167   -8.9424 C   0  0  2  0  0  0  0  0  0  0  0  0
   26.7522  -20.7494   -7.9532 C   0  0  0  0  0  0  0  0  0  0  0  0
   25.5862  -20.6635  -10.1679 C   0  0  2  0  0  0  0  0  0  0  0  0
   24.7572  -19.8387  -11.0620 N   0  0  0  0  0  0  0  0  0  0  0  0
   24.8767  -21.9273   -9.9121 C   0  0  0  0  0  0  0  0  0  0  0  0
   23.7676  -22.0014   -9.3355 O   0  0  0  0  0  0  0  0  0  0  0  0
   25.4436  -23.1220  -10.3213 O   0  0  0  0  0  0  0  0  0  0  0  0
  1  2  1  0
  3  5  1  0
  3  4  1  1
  3  2  1  0
  5  6  1  6
  7  8  2  0
  7  5  1  0
  9  7  1  0
 10  9  1  0
 11 12  1  0
 10 11  1  6
 12 13  2  0
 12 17  1  0
 13 14  1  0
 14 15  2  0
 16 15  1  0
 17 16  2  0
 18 19  2  0
 18 10  1  0
 20 21  1  0
 21 22  1  0
 22 24  1  0
 22 23  1  1
 24 26  1  0
 24 25  1  6
 25 18  1  0
 26 28  1  0
 27 26  2  0
M  END
$$$$
