IFI.pdb
     RDKit          3D

 28 28  0  0  1  0  0  0  0  0999 V2000
   22.2632  -18.3646  -21.4180 C   0  0  0  0  0  0  0  0  0  0  0  0
   23.1343  -18.1828  -20.2207 C   0  0  0  0  0  0  0  0  0  0  0  0
   22.7319  -18.9992  -19.0181 C   0  0  2  0  0  0  0  0  0  0  0  0
   21.3036  -18.6665  -18.6859 C   0  0  0  0  0  0  0  0  0  0  0  0
   23.6875  -18.7436  -17.9050 C   0  0  2  0  0  0  0  0  0  0  0  0
   25.0301  -19.0265  -18.3530 N   0  0  0  0  0  0  0  0  0  0  0  0
   23.3477  -19.4946  -16.6652 C   0  0  0  0  0  0  0  0  0  0  0  0
   23.5460  -20.7223  -16.6606 O   0  0  0  0  0  0  0  0  0  0  0  0
   22.8213  -18.8850  -15.5203 N   0  0  0  0  0  0  0  0  0  0  0  0
   22.4383  -19.5633  -14.3102 C   0  0  1  0  0  0  0  0  0  0  0  0
   22.7066  -18.7938  -13.0629 C   0  0  0  0  0  0  0  0  0  0  0  0
   22.3825  -19.4534  -11.8154 C   0  0  0  0  0  0  0  0  0  0  0  0
   23.2186  -20.3934  -11.2629 C   0  0  0  0  0  0  0  0  0  0  0  0
   22.8783  -20.9994  -10.0750 C   0  0  0  0  0  0  0  0  0  0  0  0
   21.7068  -20.6948   -9.4019 C   0  0  0  0  0  0  0  0  0  0  0  0
   20.8756  -19.7531   -9.9615 C   0  0  0  0  0  0  0  0  0  0  0  0
   21.2091  -19.1332  -11.1630 C   0  0  0  0  0  0  0  0  0  0  0  0
   20.9451  -19.7519  -14.3899 C   0  0  0  0  0  0  0  0  0  0  0  0
   20.2208  -18.7603  -14.6690 O   0  0  0  0  0  0  0  0  0  0  0  0
   18.2073  -20.7098  -17.1691 C   0  0  0  0  0  0  0  0  0  0  0  0
   18.9378  -21.9421  -16.6583 C   0  0  0  0  0  0  0  0  0  0  0  0
   18.5363  -22.2721  -15.2425 C   0  0  2  0  0  0  0  0  0  0  0  0
   17.0863  -22.6745  -15.2181 C   0  0  0  0  0  0  0  0  0  0  0  0
   18.8703  -21.1921  -14.2741 C   0  0  2  0  0  0  0  0  0  0  0  0
   20.3245  -20.9915  -14.1652 N   0  0  0  0  0  0  0  0  0  0  0  0
   18.3272  -21.3936  -12.9211 C   0  0  0  0  0  0  0  0  0  0  0  0
   18.7582  -22.2504  -12.1160 O   0  0  0  0  0  0  0  0  0  0  0  0
   17.2773  -20.6047  -12.4837 O   0  0  0  0  0  0  0  0  0  0  0  0
  1  2  1  0
  3  5  1  0
  3  4  1  1
  3  2  1  0
  5  6  1  6
  7  8  2  0
  7  5  1  0
  9  7  1  0
 10  9  1  0
 11 12  1  0
 10 11  1  1
 12 13  2  0
 12 17  1  0
 13 14  1  0
 14 15  2  0
 16 15  1  0
 17 16  2  0
 18 19  2  0
 18 10  1  0
 20 21  1  0
 21 22  1  0
 22 24  1  0
 22 23  1  6
 24 26  1  0
 24 25  1  1
 25 18  1  0
 26 28  1  0
 27 26  2  0
M  END
$$$$
