IFI.pdb
     RDKit          3D

 28 28  0  0  1  0  0  0  0  0999 V2000
   22.8215  -21.1857  -14.4486 C   0  0  0  0  0  0  0  0  0  0  0  0
   24.0436  -20.5175  -13.9139 C   0  0  0  0  0  0  0  0  0  0  0  0
   24.4030  -20.8985  -12.4995 C   0  0  2  0  0  0  0  0  0  0  0  0
   23.7923  -19.8829  -11.5740 C   0  0  0  0  0  0  0  0  0  0  0  0
   25.8828  -21.0140  -12.3797 C   0  0  2  0  0  0  0  0  0  0  0  0
   26.3668  -21.9755  -13.3413 N   0  0  0  0  0  0  0  0  0  0  0  0
   26.3288  -21.3408  -10.9974 C   0  0  0  0  0  0  0  0  0  0  0  0
   26.2031  -22.5166  -10.6125 O   0  0  0  0  0  0  0  0  0  0  0  0
   26.8761  -20.3928  -10.1248 N   0  0  0  0  0  0  0  0  0  0  0  0
   27.3074  -20.6459   -8.7754 C   0  0  1  0  0  0  0  0  0  0  0  0
   28.4739  -19.8279   -8.3393 C   0  0  0  0  0  0  0  0  0  0  0  0
   28.7727  -19.8340   -6.9226 C   0  0  0  0  0  0  0  0  0  0  0  0
   28.3634  -18.8134   -6.0989 C   0  0  0  0  0  0  0  0  0  0  0  0
   28.6649  -18.8533   -4.7566 C   0  0  0  0  0  0  0  0  0  0  0  0
   29.3768  -19.8989   -4.1925 C   0  0  0  0  0  0  0  0  0  0  0  0
   29.7828  -20.9163   -5.0237 C   0  0  0  0  0  0  0  0  0  0  0  0
   29.4838  -20.8870   -6.3834 C   0  0  0  0  0  0  0  0  0  0  0  0
   26.1524  -20.2612   -7.8868 C   0  0  0  0  0  0  0  0  0  0  0  0
   25.5529  -19.1754   -8.1045 O   0  0  0  0  0  0  0  0  0  0  0  0
   20.9854  -22.0152   -5.7077 C   0  0  0  0  0  0  0  0  0  0  0  0
   22.1941  -21.1510   -5.3832 C   0  0  0  0  0  0  0  0  0  0  0  0
   23.3848  -21.5316   -6.2269 C   0  0  2  0  0  0  0  0  0  0  0  0
   23.6349  -23.0099   -6.0955 C   0  0  0  0  0  0  0  0  0  0  0  0
   24.5867  -20.6980   -5.9503 C   0  0  2  0  0  0  0  0  0  0  0  0
   25.7144  -21.0654   -6.8222 N   0  0  0  0  0  0  0  0  0  0  0  0
   25.0490  -20.7350   -4.5536 C   0  0  0  0  0  0  0  0  0  0  0  0
   26.0434  -21.3888   -4.1640 O   0  0  0  0  0  0  0  0  0  0  0  0
   24.3646  -20.0147   -3.5898 O   0  0  0  0  0  0  0  0  0  0  0  0
  1  2  1  0
  3  5  1  0
  3  4  1  1
  3  2  1  0
  5  6  1  6
  7  8  2  0
  7  5  1  0
  9  7  1  0
 10  9  1  0
 11 12  1  0
 10 11  1  1
 12 13  2  0
 12 17  1  0
 13 14  1  0
 14 15  2  0
 16 15  1  0
 17 16  2  0
 18 19  2  0
 18 10  1  0
 20 21  1  0
 21 22  1  0
 22 24  1  0
 22 23  1  1
 24 26  1  0
 24 25  1  6
 25 18  1  0
 26 28  1  0
 27 26  2  0
M  END
$$$$
