IFI.pdb
     RDKit          3D

 28 28  0  0  1  0  0  0  0  0999 V2000
   28.1015  -19.3743  -16.4849 C   0  0  0  0  0  0  0  0  0  0  0  0
   28.9556  -20.0542  -15.4681 C   0  0  0  0  0  0  0  0  0  0  0  0
   28.2847  -20.2923  -14.1384 C   0  0  2  0  0  0  0  0  0  0  0  0
   27.7895  -18.9693  -13.6230 C   0  0  0  0  0  0  0  0  0  0  0  0
   29.2347  -20.9816  -13.2219 C   0  0  2  0  0  0  0  0  0  0  0  0
   29.6724  -22.2166  -13.8276 N   0  0  0  0  0  0  0  0  0  0  0  0
   28.6715  -21.2013  -11.8614 C   0  0  0  0  0  0  0  0  0  0  0  0
   27.7807  -22.0599  -11.7365 O   0  0  0  0  0  0  0  0  0  0  0  0
   29.0970  -20.4913  -10.7324 N   0  0  0  0  0  0  0  0  0  0  0  0
   28.5705  -20.6395   -9.4013 C   0  0  1  0  0  0  0  0  0  0  0  0
   29.3433  -19.9189   -8.3509 C   0  0  0  0  0  0  0  0  0  0  0  0
   28.7976  -19.9537   -7.0103 C   0  0  0  0  0  0  0  0  0  0  0  0
   29.1373  -20.9464   -6.1232 C   0  0  0  0  0  0  0  0  0  0  0  0
   28.5994  -20.9469   -4.8563 C   0  0  0  0  0  0  0  0  0  0  0  0
   27.7139  -19.9702   -4.4318 C   0  0  0  0  0  0  0  0  0  0  0  0
   27.3790  -18.9804   -5.3257 C   0  0  0  0  0  0  0  0  0  0  0  0
   27.9167  -18.9693   -6.6101 C   0  0  0  0  0  0  0  0  0  0  0  0
   27.1941  -20.0257   -9.4240 C   0  0  0  0  0  0  0  0  0  0  0  0
   27.0641  -18.8386   -9.8232 O   0  0  0  0  0  0  0  0  0  0  0  0
   22.7557  -19.8572  -12.6110 C   0  0  0  0  0  0  0  0  0  0  0  0
   23.0183  -19.7786  -11.1150 C   0  0  0  0  0  0  0  0  0  0  0  0
   24.3707  -20.3460  -10.7635 C   0  0  2  0  0  0  0  0  0  0  0  0
   24.4861  -21.7385  -11.3227 C   0  0  0  0  0  0  0  0  0  0  0  0
   24.6795  -20.2613   -9.3097 C   0  0  2  0  0  0  0  0  0  0  0  0
   26.0458  -20.7243   -9.0172 N   0  0  0  0  0  0  0  0  0  0  0  0
   23.7450  -20.9957   -8.4417 C   0  0  0  0  0  0  0  0  0  0  0  0
   24.0819  -21.9450   -7.6979 O   0  0  0  0  0  0  0  0  0  0  0  0
   22.4075  -20.6395   -8.4246 O   0  0  0  0  0  0  0  0  0  0  0  0
  1  2  1  0
  3  5  1  0
  3  4  1  1
  3  2  1  0
  5  6  1  6
  7  8  2  0
  7  5  1  0
  9  7  1  0
 10  9  1  0
 11 12  1  0
 10 11  1  1
 12 13  2  0
 12 17  1  0
 13 14  1  0
 14 15  2  0
 16 15  1  0
 17 16  2  0
 18 19  2  0
 18 10  1  0
 20 21  1  0
 21 22  1  0
 22 24  1  0
 22 23  1  1
 24 26  1  0
 24 25  1  6
 25 18  1  0
 26 28  1  0
 27 26  2  0
M  END
$$$$
