IFI.pdb
     RDKit          3D

 28 28  0  0  1  0  0  0  0  0999 V2000
   28.9885  -18.4623  -16.3969 C   0  0  0  0  0  0  0  0  0  0  0  0
   28.0056  -19.4153  -15.8042 C   0  0  0  0  0  0  0  0  0  0  0  0
   27.5174  -19.0425  -14.4267 C   0  0  2  0  0  0  0  0  0  0  0  0
   28.7151  -18.9164  -13.5264 C   0  0  0  0  0  0  0  0  0  0  0  0
   26.5183  -20.0468  -13.9678 C   0  0  2  0  0  0  0  0  0  0  0  0
   25.5138  -20.2231  -14.9893 N   0  0  0  0  0  0  0  0  0  0  0  0
   25.9147  -19.7041  -12.6508 C   0  0  0  0  0  0  0  0  0  0  0  0
   25.2715  -18.6430  -12.5685 O   0  0  0  0  0  0  0  0  0  0  0  0
   26.0392  -20.5153  -11.5168 N   0  0  0  0  0  0  0  0  0  0  0  0
   25.4296  -20.2666  -10.2371 C   0  0  1  0  0  0  0  0  0  0  0  0
   24.1982  -21.0643   -9.9774 C   0  0  0  0  0  0  0  0  0  0  0  0
   22.9809  -20.5948  -10.6052 C   0  0  0  0  0  0  0  0  0  0  0  0
   22.1375  -19.7173   -9.9676 C   0  0  0  0  0  0  0  0  0  0  0  0
   20.9892  -19.2918  -10.5957 C   0  0  0  0  0  0  0  0  0  0  0  0
   20.6432  -19.7196  -11.8668 C   0  0  0  0  0  0  0  0  0  0  0  0
   21.4925  -20.5978  -12.4979 C   0  0  0  0  0  0  0  0  0  0  0  0
   22.6572  -21.0355  -11.8725 C   0  0  0  0  0  0  0  0  0  0  0  0
   26.4423  -20.6842   -9.2019 C   0  0  0  0  0  0  0  0  0  0  0  0
   27.1949  -21.6634   -9.4476 O   0  0  0  0  0  0  0  0  0  0  0  0
   29.7984  -18.6678   -4.4590 C   0  0  0  0  0  0  0  0  0  0  0  0
   29.1176  -19.8454   -5.1393 C   0  0  0  0  0  0  0  0  0  0  0  0
   28.1543  -19.3838   -6.2039 C   0  0  2  0  0  0  0  0  0  0  0  0
   27.2071  -18.3744   -5.6133 C   0  0  0  0  0  0  0  0  0  0  0  0
   27.4685  -20.5082   -6.8980 C   0  0  2  0  0  0  0  0  0  0  0  0
   26.5830  -20.0249   -7.9700 N   0  0  0  0  0  0  0  0  0  0  0  0
   26.6885  -21.3888   -6.0136 C   0  0  0  0  0  0  0  0  0  0  0  0
   25.4375  -21.4405   -6.0061 O   0  0  0  0  0  0  0  0  0  0  0  0
   27.3486  -22.2210   -5.1260 O   0  0  0  0  0  0  0  0  0  0  0  0
  1  2  1  0
  3  5  1  0
  3  4  1  1
  3  2  1  0
  5  6  1  6
  7  8  2  0
  7  5  1  0
  9  7  1  0
 10  9  1  0
 11 12  1  0
 10 11  1  6
 12 13  2  0
 12 17  1  0
 13 14  1  0
 14 15  2  0
 16 15  1  0
 17 16  2  0
 18 19  2  0
 18 10  1  0
 20 21  1  0
 21 22  1  0
 22 24  1  0
 22 23  1  1
 24 26  1  0
 24 25  1  6
 25 18  1  0
 26 28  1  0
 27 26  2  0
M  END
$$$$
