TEQ.pdb
     RDKit          3D

 26 25  0  0  1  0  0  0  0  0999 V2000
    9.0364  -12.6725   20.4957 C   0  0  0  0  0  0  0  0  0  0  0  0
    7.8945  -13.3995   19.8052 C   0  0  1  0  0  0  0  0  0  0  0  0
    7.5554  -12.6974   18.6700 O   0  0  0  0  0  0  0  0  0  0  0  0
    8.3088  -14.8366   19.4737 C   0  0  2  0  0  0  0  0  0  0  0  0
    7.1676  -15.4340   18.7829 N   0  0  0  0  0  0  0  0  0  0  0  0
    8.5492  -15.5269   20.7760 C   0  0  0  0  0  0  0  0  0  0  0  0
    7.5888  -15.7804   21.5474 O   0  0  0  0  0  0  0  0  0  0  0  0
    9.8414  -15.9238   21.2023 N   0  0  0  0  0  0  0  0  0  0  0  0
   10.0478  -16.5474   22.4750 C   0  0  1  0  0  0  0  0  0  0  0  0
   11.3358  -17.3010   22.4516 C   0  0  0  0  0  0  0  0  0  0  0  0
   11.7417  -17.8834   23.7615 C   0  0  0  0  0  0  0  0  0  0  0  0
   13.0170  -18.6238   23.5867 C   0  0  0  0  0  0  0  0  0  0  0  0
   13.0168  -19.7576   23.0306 O   0  0  0  0  0  0  0  0  0  0  0  0
    9.9889  -15.5785   23.6062 C   0  0  0  0  0  0  0  0  0  0  0  0
   10.6465  -14.5171   23.4908 O   0  0  0  0  0  0  0  0  0  0  0  0
   14.2294  -18.0951   24.0252 O   0  0  0  0  0  0  0  0  0  0  0  0
    5.4959  -12.4123   25.7479 N   0  0  0  0  0  0  0  0  0  0  0  0
    6.4877  -12.2038   26.7293 C   0  0  0  0  0  0  0  0  0  0  0  0
    6.3055  -11.2754   27.5760 O   0  0  0  0  0  0  0  0  0  0  0  0
    7.6941  -13.0130   26.8061 C   0  0  0  0  0  0  0  0  0  0  0  0
    7.9433  -14.0249   25.7736 C   0  0  0  0  0  0  0  0  0  0  0  0
    9.1899  -14.8144   25.8988 C   0  0  2  0  0  0  0  0  0  0  0  0
    9.2455  -15.7918   24.7775 N   0  0  0  0  0  0  0  0  0  0  0  0
    9.2745  -15.5978   27.1210 C   0  0  0  0  0  0  0  0  0  0  0  0
    9.6466  -15.0499   28.3366 O   0  0  0  0  0  0  0  0  0  0  0  0
    9.0193  -16.8240   27.1216 O   0  0  0  0  0  0  0  0  0  0  0  0
  2  1  1  6
  2  3  1  0
  4  6  1  0
  4  2  1  0
  4  5  1  1
  6  8  1  0
  7  6  2  0
  8  9  1  0
  9 14  1  0
  9 10  1  6
 11 10  1  0
 12 11  1  0
 13 12  2  0
 14 15  2  0
 14 23  1  0
 16 12  1  0
 17 18  1  0
 18 19  2  0
 20 18  1  0
 20 21  1  0
 22 21  1  1
 22 24  1  0
 23 22  1  0
 24 25  1  0
 26 24  2  0
M  END
$$$$
