TEQ.pdb
     RDKit          3D

 26 25  0  0  1  0  0  0  0  0999 V2000
   10.8900  -13.4601   19.1207 C   0  0  0  0  0  0  0  0  0  0  0  0
    9.5314  -12.7927   18.9862 C   0  0  1  0  0  0  0  0  0  0  0  0
    9.5935  -11.8845   17.9528 O   0  0  0  0  0  0  0  0  0  0  0  0
    8.4479  -13.8478   18.7420 C   0  0  2  0  0  0  0  0  0  0  0  0
    7.1962  -13.1092   18.5866 N   0  0  0  0  0  0  0  0  0  0  0  0
    8.3987  -14.7054   19.9635 C   0  0  0  0  0  0  0  0  0  0  0  0
    7.8251  -14.2954   21.0050 O   0  0  0  0  0  0  0  0  0  0  0  0
    8.9817  -15.9964   20.0138 N   0  0  0  0  0  0  0  0  0  0  0  0
    8.7875  -16.8589   21.1406 C   0  0  1  0  0  0  0  0  0  0  0  0
    9.1232  -18.2603   20.7524 C   0  0  0  0  0  0  0  0  0  0  0  0
   10.5791  -18.5300   20.5868 C   0  0  0  0  0  0  0  0  0  0  0  0
   10.7658  -19.9496   20.1932 C   0  0  0  0  0  0  0  0  0  0  0  0
   11.1265  -20.2358   19.0172 O   0  0  0  0  0  0  0  0  0  0  0  0
    9.5496  -16.4152   22.3423 C   0  0  0  0  0  0  0  0  0  0  0  0
   10.6553  -15.8561   22.1495 O   0  0  0  0  0  0  0  0  0  0  0  0
   10.5513  -20.9881   21.0974 O   0  0  0  0  0  0  0  0  0  0  0  0
    7.1164  -13.0862   26.8461 N   0  0  0  0  0  0  0  0  0  0  0  0
    8.4011  -13.3927   27.3421 C   0  0  0  0  0  0  0  0  0  0  0  0
    8.7929  -12.8003   28.3944 O   0  0  0  0  0  0  0  0  0  0  0  0
    9.2776  -14.3591   26.6987 C   0  0  0  0  0  0  0  0  0  0  0  0
    8.7934  -15.0928   25.5243 C   0  0  0  0  0  0  0  0  0  0  0  0
    9.7661  -15.9751   24.8398 C   0  0  2  0  0  0  0  0  0  0  0  0
    9.0984  -16.5898   23.6598 N   0  0  0  0  0  0  0  0  0  0  0  0
   10.2394  -17.0811   25.6568 C   0  0  0  0  0  0  0  0  0  0  0  0
   11.3328  -16.9748   26.4991 O   0  0  0  0  0  0  0  0  0  0  0  0
    9.6730  -18.1977   25.6234 O   0  0  0  0  0  0  0  0  0  0  0  0
  2  1  1  6
  2  3  1  0
  4  6  1  0
  4  2  1  0
  4  5  1  1
  6  8  1  0
  7  6  2  0
  8  9  1  0
  9 14  1  0
  9 10  1  6
 11 10  1  0
 12 11  1  0
 13 12  2  0
 14 15  2  0
 14 23  1  0
 16 12  1  0
 17 18  1  0
 18 19  2  0
 20 18  1  0
 20 21  1  0
 22 21  1  1
 22 24  1  0
 23 22  1  0
 24 25  1  0
 26 24  2  0
M  END
$$$$
