TEQ.pdb
     RDKit          3D

 26 25  0  0  1  0  0  0  0  0999 V2000
    6.5707  -23.4881   22.1642 C   0  0  0  0  0  0  0  0  0  0  0  0
    5.4906  -22.6327   21.5233 C   0  0  1  0  0  0  0  0  0  0  0  0
    5.0202  -23.2899   20.4082 O   0  0  0  0  0  0  0  0  0  0  0  0
    4.3681  -22.3602   22.5295 C   0  0  2  0  0  0  0  0  0  0  0  0
    3.3358  -21.6340   21.7922 N   0  0  0  0  0  0  0  0  0  0  0  0
    4.9494  -21.4960   23.5997 C   0  0  0  0  0  0  0  0  0  0  0  0
    5.0190  -20.2501   23.4425 O   0  0  0  0  0  0  0  0  0  0  0  0
    5.4422  -22.0207   24.8208 N   0  0  0  0  0  0  0  0  0  0  0  0
    6.0849  -21.1818   25.7874 C   0  0  1  0  0  0  0  0  0  0  0  0
    5.6929  -21.6203   27.1591 C   0  0  0  0  0  0  0  0  0  0  0  0
    6.2402  -22.9432   27.5714 C   0  0  0  0  0  0  0  0  0  0  0  0
    5.6870  -23.3015   28.9021 C   0  0  0  0  0  0  0  0  0  0  0  0
    6.2788  -22.9265   29.9528 O   0  0  0  0  0  0  0  0  0  0  0  0
    7.5652  -21.1385   25.6175 C   0  0  0  0  0  0  0  0  0  0  0  0
    8.1091  -22.1162   25.0512 O   0  0  0  0  0  0  0  0  0  0  0  0
    4.5178  -24.0497   29.0248 O   0  0  0  0  0  0  0  0  0  0  0  0
   10.7739  -18.5805   21.7651 N   0  0  0  0  0  0  0  0  0  0  0  0
   11.7816  -18.8607   22.7118 C   0  0  0  0  0  0  0  0  0  0  0  0
   12.9923  -18.7249   22.3545 O   0  0  0  0  0  0  0  0  0  0  0  0
   11.4818  -19.2878   24.0697 C   0  0  0  0  0  0  0  0  0  0  0  0
   10.0818  -19.4610   24.4722 C   0  0  0  0  0  0  0  0  0  0  0  0
    9.8387  -20.0134   25.8245 C   0  0  2  0  0  0  0  0  0  0  0  0
    8.3692  -20.0740   26.0537 N   0  0  0  0  0  0  0  0  0  0  0  0
   10.3816  -19.2016   26.9021 C   0  0  0  0  0  0  0  0  0  0  0  0
   11.7199  -19.2251   27.2552 O   0  0  0  0  0  0  0  0  0  0  0  0
    9.6455  -18.4421   27.5729 O   0  0  0  0  0  0  0  0  0  0  0  0
  2  1  1  1
  2  3  1  0
  4  6  1  0
  4  2  1  0
  4  5  1  6
  6  8  1  0
  7  6  2  0
  8  9  1  0
  9 14  1  0
  9 10  1  1
 11 10  1  0
 12 11  1  0
 13 12  2  0
 14 15  2  0
 14 23  1  0
 16 12  1  0
 17 18  1  0
 18 19  2  0
 20 18  1  0
 20 21  1  0
 22 21  1  6
 22 24  1  0
 23 22  1  0
 24 25  1  0
 26 24  2  0
M  END
$$$$
