TEQ.pdb
     RDKit          3D

 26 25  0  0  1  0  0  0  0  0999 V2000
   10.0980  -13.0682   19.8605 C   0  0  0  0  0  0  0  0  0  0  0  0
    8.6030  -12.8297   19.7287 C   0  0  1  0  0  0  0  0  0  0  0  0
    8.3957  -11.9175   18.7180 O   0  0  0  0  0  0  0  0  0  0  0  0
    7.8812  -14.1516   19.4487 C   0  0  2  0  0  0  0  0  0  0  0  0
    6.4787  -13.8041   19.2284 N   0  0  0  0  0  0  0  0  0  0  0  0
    8.0239  -14.9889   20.6769 C   0  0  0  0  0  0  0  0  0  0  0  0
    7.2325  -14.8399   21.6429 O   0  0  0  0  0  0  0  0  0  0  0  0
    9.0347  -15.9728   20.8168 N   0  0  0  0  0  0  0  0  0  0  0  0
    9.1527  -16.7561   22.0100 C   0  0  1  0  0  0  0  0  0  0  0  0
    9.9313  -17.9941   21.7120 C   0  0  0  0  0  0  0  0  0  0  0  0
   10.0932  -18.9221   22.8661 C   0  0  0  0  0  0  0  0  0  0  0  0
   10.8529  -20.1181   22.4216 C   0  0  0  0  0  0  0  0  0  0  0  0
   10.4787  -21.2708   22.7766 O   0  0  0  0  0  0  0  0  0  0  0  0
    9.7382  -15.9888   23.1459 C   0  0  0  0  0  0  0  0  0  0  0  0
   10.3994  -14.9606   22.8668 O   0  0  0  0  0  0  0  0  0  0  0  0
   11.9820  -20.0019   21.6131 O   0  0  0  0  0  0  0  0  0  0  0  0
    5.7020  -13.1158   25.3955 N   0  0  0  0  0  0  0  0  0  0  0  0
    6.6882  -12.8381   26.3654 C   0  0  0  0  0  0  0  0  0  0  0  0
    6.4672  -11.8996   27.1914 O   0  0  0  0  0  0  0  0  0  0  0  0
    7.9317  -13.5879   26.4530 C   0  0  0  0  0  0  0  0  0  0  0  0
    8.2215  -14.6124   25.4439 C   0  0  0  0  0  0  0  0  0  0  0  0
    9.4867  -15.3659   25.6008 C   0  0  2  0  0  0  0  0  0  0  0  0
    9.5891  -16.3546   24.4927 N   0  0  0  0  0  0  0  0  0  0  0  0
    9.5705  -16.1322   26.8339 C   0  0  0  0  0  0  0  0  0  0  0  0
   10.3059  -15.7106   27.9283 O   0  0  0  0  0  0  0  0  0  0  0  0
    8.9783  -17.2293   26.9545 O   0  0  0  0  0  0  0  0  0  0  0  0
  2  1  1  6
  2  3  1  0
  4  6  1  0
  4  2  1  0
  4  5  1  1
  6  8  1  0
  7  6  2  0
  8  9  1  0
  9 14  1  0
  9 10  1  6
 11 10  1  0
 12 11  1  0
 13 12  2  0
 14 15  2  0
 14 23  1  0
 16 12  1  0
 17 18  1  0
 18 19  2  0
 20 18  1  0
 20 21  1  0
 22 21  1  1
 22 24  1  0
 23 22  1  0
 24 25  1  0
 26 24  2  0
M  END
$$$$
