TEQ.pdb
     RDKit          3D

 26 25  0  0  1  0  0  0  0  0999 V2000
    9.1908  -12.2561   19.7547 C   0  0  0  0  0  0  0  0  0  0  0  0
    7.8629  -12.6992   19.1636 C   0  0  1  0  0  0  0  0  0  0  0  0
    7.3407  -11.6537   18.4350 O   0  0  0  0  0  0  0  0  0  0  0  0
    8.0626  -13.9447   18.2942 C   0  0  2  0  0  0  0  0  0  0  0  0
    6.7384  -14.2940   17.7833 N   0  0  0  0  0  0  0  0  0  0  0  0
    8.5743  -15.0208   19.1944 C   0  0  0  0  0  0  0  0  0  0  0  0
    7.7855  -15.6486   19.9463 O   0  0  0  0  0  0  0  0  0  0  0  0
    9.9435  -15.3836   19.2486 N   0  0  0  0  0  0  0  0  0  0  0  0
   10.3821  -16.5311   19.9848 C   0  0  1  0  0  0  0  0  0  0  0  0
   11.6381  -17.0579   19.3745 C   0  0  0  0  0  0  0  0  0  0  0  0
   11.4670  -18.2986   18.5677 C   0  0  0  0  0  0  0  0  0  0  0  0
   12.6940  -18.5245   17.7624 C   0  0  0  0  0  0  0  0  0  0  0  0
   13.7346  -18.9811   18.3133 O   0  0  0  0  0  0  0  0  0  0  0  0
   10.5433  -16.2531   21.4404 C   0  0  0  0  0  0  0  0  0  0  0  0
   11.1843  -15.2248   21.7632 O   0  0  0  0  0  0  0  0  0  0  0  0
   12.7291  -18.2429   16.3981 O   0  0  0  0  0  0  0  0  0  0  0  0
    6.8491  -18.4424   26.2591 N   0  0  0  0  0  0  0  0  0  0  0  0
    7.9710  -17.8417   26.8682 C   0  0  0  0  0  0  0  0  0  0  0  0
    8.0014  -17.7792   28.1359 O   0  0  0  0  0  0  0  0  0  0  0  0
    9.0838  -17.3049   26.1003 C   0  0  0  0  0  0  0  0  0  0  0  0
    9.0572  -17.4052   24.6371 C   0  0  0  0  0  0  0  0  0  0  0  0
   10.1824  -16.7811   23.9039 C   0  0  2  0  0  0  0  0  0  0  0  0
   10.0217  -17.0730   22.4531 N   0  0  0  0  0  0  0  0  0  0  0  0
   11.4902  -17.2966   24.2763 C   0  0  0  0  0  0  0  0  0  0  0  0
   12.2944  -16.6839   25.2219 O   0  0  0  0  0  0  0  0  0  0  0  0
   11.9548  -18.3287   23.7398 O   0  0  0  0  0  0  0  0  0  0  0  0
  2  1  1  6
  2  3  1  0
  4  6  1  0
  4  2  1  0
  4  5  1  1
  6  8  1  0
  7  6  2  0
  8  9  1  0
  9 14  1  0
  9 10  1  6
 11 10  1  0
 12 11  1  0
 13 12  2  0
 14 15  2  0
 14 23  1  0
 16 12  1  0
 17 18  1  0
 18 19  2  0
 20 18  1  0
 20 21  1  0
 22 21  1  1
 22 24  1  0
 23 22  1  0
 24 25  1  0
 26 24  2  0
M  END
$$$$
