TEQ.pdb
     RDKit          3D

 26 25  0  0  1  0  0  0  0  0999 V2000
    6.4594  -18.6280   22.5719 C   0  0  0  0  0  0  0  0  0  0  0  0
    6.3408  -20.1024   22.2236 C   0  0  1  0  0  0  0  0  0  0  0  0
    5.2056  -20.2799   21.4645 O   0  0  0  0  0  0  0  0  0  0  0  0
    7.5942  -20.5699   21.4771 C   0  0  2  0  0  0  0  0  0  0  0  0
    7.3247  -21.9453   21.0624 N   0  0  0  0  0  0  0  0  0  0  0  0
    8.7192  -20.5325   22.4584 C   0  0  0  0  0  0  0  0  0  0  0  0
    8.7180  -21.2985   23.4559 O   0  0  0  0  0  0  0  0  0  0  0  0
    9.8223  -19.6528   22.3219 N   0  0  0  0  0  0  0  0  0  0  0  0
   10.8709  -19.6151   23.2966 C   0  0  1  0  0  0  0  0  0  0  0  0
   12.1050  -19.0549   22.6716 C   0  0  0  0  0  0  0  0  0  0  0  0
   12.6435  -19.8499   21.5325 C   0  0  0  0  0  0  0  0  0  0  0  0
   13.8086  -19.1351   20.9523 C   0  0  0  0  0  0  0  0  0  0  0  0
   14.9815  -19.4810   21.2674 O   0  0  0  0  0  0  0  0  0  0  0  0
   10.4835  -18.8721   24.5294 C   0  0  0  0  0  0  0  0  0  0  0  0
   10.0202  -17.7160   24.3839 O   0  0  0  0  0  0  0  0  0  0  0  0
   13.6410  -18.0795   20.0581 O   0  0  0  0  0  0  0  0  0  0  0  0
    5.8826  -18.3022   26.2095 N   0  0  0  0  0  0  0  0  0  0  0  0
    6.4426  -19.4977   26.7070 C   0  0  0  0  0  0  0  0  0  0  0  0
    5.6740  -20.4946   26.8724 O   0  0  0  0  0  0  0  0  0  0  0  0
    7.8561  -19.6257   27.0257 C   0  0  0  0  0  0  0  0  0  0  0  0
    8.7133  -18.4367   26.9650 C   0  0  0  0  0  0  0  0  0  0  0  0
   10.1747  -18.6616   27.0470 C   0  0  2  0  0  0  0  0  0  0  0  0
   10.6100  -19.3938   25.8262 N   0  0  0  0  0  0  0  0  0  0  0  0
   10.5853  -19.4808   28.1763 C   0  0  0  0  0  0  0  0  0  0  0  0
   10.4478  -19.0668   29.4900 O   0  0  0  0  0  0  0  0  0  0  0  0
   11.0984  -20.6101   28.0027 O   0  0  0  0  0  0  0  0  0  0  0  0
  2  1  1  6
  2  3  1  0
  4  6  1  0
  4  2  1  0
  4  5  1  1
  6  8  1  0
  7  6  2  0
  8  9  1  0
  9 14  1  0
  9 10  1  6
 11 10  1  0
 12 11  1  0
 13 12  2  0
 14 15  2  0
 14 23  1  0
 16 12  1  0
 17 18  1  0
 18 19  2  0
 20 18  1  0
 20 21  1  0
 22 21  1  6
 22 24  1  0
 23 22  1  0
 24 25  1  0
 26 24  2  0
M  END
$$$$
