TEQ.pdb
     RDKit          3D

 26 25  0  0  1  0  0  0  0  0999 V2000
    7.9985  -12.5180   19.2360 C   0  0  0  0  0  0  0  0  0  0  0  0
    8.3063  -13.2773   20.5158 C   0  0  1  0  0  0  0  0  0  0  0  0
    7.5334  -12.7540   21.5284 O   0  0  0  0  0  0  0  0  0  0  0  0
    8.0366  -14.7725   20.3192 C   0  0  2  0  0  0  0  0  0  0  0  0
    6.6191  -14.8833   19.9804 N   0  0  0  0  0  0  0  0  0  0  0  0
    8.3128  -15.4358   21.6283 C   0  0  0  0  0  0  0  0  0  0  0  0
    7.4326  -15.4609   22.5261 O   0  0  0  0  0  0  0  0  0  0  0  0
    9.5522  -16.0579   21.9222 N   0  0  0  0  0  0  0  0  0  0  0  0
    9.7681  -16.7404   23.1627 C   0  0  1  0  0  0  0  0  0  0  0  0
   10.9496  -17.6426   23.0297 C   0  0  0  0  0  0  0  0  0  0  0  0
   11.2881  -18.4126   24.2594 C   0  0  0  0  0  0  0  0  0  0  0  0
   12.4317  -19.3133   23.9661 C   0  0  0  0  0  0  0  0  0  0  0  0
   12.2969  -20.5632   24.0859 O   0  0  0  0  0  0  0  0  0  0  0  0
    9.9064  -15.8066   24.3162 C   0  0  0  0  0  0  0  0  0  0  0  0
   10.8012  -14.9310   24.2449 O   0  0  0  0  0  0  0  0  0  0  0  0
   13.6653  -18.8106   23.5570 O   0  0  0  0  0  0  0  0  0  0  0  0
    6.3315  -11.1186   26.3475 N   0  0  0  0  0  0  0  0  0  0  0  0
    6.3968  -12.4975   26.0566 C   0  0  0  0  0  0  0  0  0  0  0  0
    5.3058  -13.1324   25.9210 O   0  0  0  0  0  0  0  0  0  0  0  0
    7.6584  -13.2051   25.9018 C   0  0  0  0  0  0  0  0  0  0  0  0
    8.0281  -14.2307   26.8832 C   0  0  0  0  0  0  0  0  0  0  0  0
    9.2901  -14.9660   26.6382 C   0  0  2  0  0  0  0  0  0  0  0  0
    9.0974  -15.8578   25.4620 N   0  0  0  0  0  0  0  0  0  0  0  0
    9.6953  -15.8290   27.7363 C   0  0  0  0  0  0  0  0  0  0  0  0
   10.2478  -15.3399   28.9075 O   0  0  0  0  0  0  0  0  0  0  0  0
    9.5679  -17.0727   27.6617 O   0  0  0  0  0  0  0  0  0  0  0  0
  2  1  1  6
  2  3  1  0
  4  6  1  0
  4  2  1  0
  4  5  1  1
  6  8  1  0
  7  6  2  0
  8  9  1  0
  9 14  1  0
  9 10  1  6
 11 10  1  0
 12 11  1  0
 13 12  2  0
 14 15  2  0
 14 23  1  0
 16 12  1  0
 17 18  1  0
 18 19  2  0
 20 18  1  0
 20 21  1  0
 22 21  1  1
 22 24  1  0
 23 22  1  0
 24 25  1  0
 26 24  2  0
M  END
$$$$
