TEQ.pdb
     RDKit          3D

 26 25  0  0  1  0  0  0  0  0999 V2000
   10.2876  -12.8408   20.2302 C   0  0  0  0  0  0  0  0  0  0  0  0
    8.8680  -12.7980   19.6895 C   0  0  1  0  0  0  0  0  0  0  0  0
    8.8005  -11.8198   18.7224 O   0  0  0  0  0  0  0  0  0  0  0  0
    8.4759  -14.1690   19.1296 C   0  0  2  0  0  0  0  0  0  0  0  0
    7.0957  -14.0341   18.6679 N   0  0  0  0  0  0  0  0  0  0  0  0
    8.5535  -15.1361   20.2648 C   0  0  0  0  0  0  0  0  0  0  0  0
    7.6484  -15.1653   21.1376 O   0  0  0  0  0  0  0  0  0  0  0  0
    9.6255  -16.0511   20.4162 N   0  0  0  0  0  0  0  0  0  0  0  0
    9.7065  -16.9238   21.5489 C   0  0  1  0  0  0  0  0  0  0  0  0
   10.3099  -18.2225   21.1284 C   0  0  0  0  0  0  0  0  0  0  0  0
   11.7213  -18.1319   20.6598 C   0  0  0  0  0  0  0  0  0  0  0  0
   12.1689  -19.4752   20.2122 C   0  0  0  0  0  0  0  0  0  0  0  0
   12.0505  -19.8077   18.9997 O   0  0  0  0  0  0  0  0  0  0  0  0
   10.4395  -16.3129   22.6940 C   0  0  0  0  0  0  0  0  0  0  0  0
   11.4157  -15.5733   22.4248 O   0  0  0  0  0  0  0  0  0  0  0  0
   12.7232  -20.3905   21.1049 O   0  0  0  0  0  0  0  0  0  0  0  0
    8.4438  -13.2609   27.6654 N   0  0  0  0  0  0  0  0  0  0  0  0
    9.7005  -13.7418   28.0896 C   0  0  0  0  0  0  0  0  0  0  0  0
   10.1115  -13.4050   29.2426 O   0  0  0  0  0  0  0  0  0  0  0  0
   10.5269  -14.6064   27.2616 C   0  0  0  0  0  0  0  0  0  0  0  0
    9.9604  -15.1753   26.0339 C   0  0  0  0  0  0  0  0  0  0  0  0
   10.8771  -15.9611   25.1765 C   0  0  2  0  0  0  0  0  0  0  0  0
   10.0973  -16.5216   24.0391 N   0  0  0  0  0  0  0  0  0  0  0  0
   11.4858  -17.0988   25.8474 C   0  0  0  0  0  0  0  0  0  0  0  0
   12.6416  -16.9920   26.6016 O   0  0  0  0  0  0  0  0  0  0  0  0
   10.9857  -18.2438   25.7602 O   0  0  0  0  0  0  0  0  0  0  0  0
  2  1  1  6
  2  3  1  0
  4  6  1  0
  4  2  1  0
  4  5  1  1
  6  8  1  0
  7  6  2  0
  8  9  1  0
  9 14  1  0
  9 10  1  6
 11 10  1  0
 12 11  1  0
 13 12  2  0
 14 15  2  0
 14 23  1  0
 16 12  1  0
 17 18  1  0
 18 19  2  0
 20 18  1  0
 20 21  1  0
 22 21  1  1
 22 24  1  0
 23 22  1  0
 24 25  1  0
 26 24  2  0
M  END
$$$$
