TEQ.pdb
     RDKit          3D

 26 25  0  0  1  0  0  0  0  0999 V2000
    7.7345  -12.3285   19.0090 C   0  0  0  0  0  0  0  0  0  0  0  0
    8.5304  -13.5094   19.5394 C   0  0  1  0  0  0  0  0  0  0  0  0
    8.2092  -13.6894   20.8664 O   0  0  0  0  0  0  0  0  0  0  0  0
    8.2266  -14.7631   18.7131 C   0  0  2  0  0  0  0  0  0  0  0  0
    6.7786  -14.9492   18.7839 N   0  0  0  0  0  0  0  0  0  0  0  0
    8.9311  -15.8990   19.3790 C   0  0  0  0  0  0  0  0  0  0  0  0
    8.3234  -16.6268   20.2053 O   0  0  0  0  0  0  0  0  0  0  0  0
   10.2899  -16.2104   19.1220 N   0  0  0  0  0  0  0  0  0  0  0  0
   10.9807  -17.2126   19.8767 C   0  0  1  0  0  0  0  0  0  0  0  0
   12.2692  -17.5398   19.1982 C   0  0  0  0  0  0  0  0  0  0  0  0
   12.1252  -18.2223   17.8817 C   0  0  0  0  0  0  0  0  0  0  0  0
   13.3458  -17.9748   17.0730 C   0  0  0  0  0  0  0  0  0  0  0  0
   13.2507  -17.4268   15.9392 O   0  0  0  0  0  0  0  0  0  0  0  0
   11.1838  -16.8219   21.3007 C   0  0  0  0  0  0  0  0  0  0  0  0
   11.5717  -15.6512   21.5275 O   0  0  0  0  0  0  0  0  0  0  0  0
   14.6095  -18.3351   17.5369 O   0  0  0  0  0  0  0  0  0  0  0  0
    6.7807  -17.5062   25.3470 N   0  0  0  0  0  0  0  0  0  0  0  0
    7.8575  -17.0826   26.1542 C   0  0  0  0  0  0  0  0  0  0  0  0
    7.6200  -16.8033   27.3698 O   0  0  0  0  0  0  0  0  0  0  0  0
    9.2157  -16.9640   25.6468 C   0  0  0  0  0  0  0  0  0  0  0  0
    9.4807  -17.2653   24.2358 C   0  0  0  0  0  0  0  0  0  0  0  0
   10.8946  -17.2223   23.7975 C   0  0  2  0  0  0  0  0  0  0  0  0
   10.9664  -17.6862   22.3849 N   0  0  0  0  0  0  0  0  0  0  0  0
   11.7760  -18.0970   24.5544 C   0  0  0  0  0  0  0  0  0  0  0  0
   12.1592  -19.3474   24.1007 O   0  0  0  0  0  0  0  0  0  0  0  0
   12.2243  -17.7525   25.6721 O   0  0  0  0  0  0  0  0  0  0  0  0
  2  1  1  6
  2  3  1  0
  4  6  1  0
  4  2  1  0
  4  5  1  1
  6  8  1  0
  7  6  2  0
  8  9  1  0
  9 14  1  0
  9 10  1  6
 11 10  1  0
 12 11  1  0
 13 12  2  0
 14 15  2  0
 14 23  1  0
 16 12  1  0
 17 18  1  0
 18 19  2  0
 20 18  1  0
 20 21  1  0
 22 21  1  1
 22 24  1  0
 23 22  1  0
 24 25  1  0
 26 24  2  0
M  END
$$$$
