TEQ.pdb
     RDKit          3D

 26 25  0  0  1  0  0  0  0  0999 V2000
    9.3274  -12.6873   20.0591 C   0  0  0  0  0  0  0  0  0  0  0  0
    7.8957  -13.1108   19.7757 C   0  0  1  0  0  0  0  0  0  0  0  0
    7.3706  -12.2609   18.8278 O   0  0  0  0  0  0  0  0  0  0  0  0
    7.8609  -14.5679   19.3042 C   0  0  2  0  0  0  0  0  0  0  0  0
    6.4538  -14.8756   19.0552 N   0  0  0  0  0  0  0  0  0  0  0  0
    8.3844  -15.3977   20.4301 C   0  0  0  0  0  0  0  0  0  0  0  0
    7.6612  -15.6406   21.4300 O   0  0  0  0  0  0  0  0  0  0  0  0
    9.6929  -15.9427   20.4324 N   0  0  0  0  0  0  0  0  0  0  0  0
   10.1469  -16.7872   21.4963 C   0  0  1  0  0  0  0  0  0  0  0  0
   11.2461  -17.6636   20.9952 C   0  0  0  0  0  0  0  0  0  0  0  0
   11.8681  -18.5372   22.0294 C   0  0  0  0  0  0  0  0  0  0  0  0
   12.9415  -19.3455   21.3972 C   0  0  0  0  0  0  0  0  0  0  0  0
   14.1366  -19.2208   21.7858 O   0  0  0  0  0  0  0  0  0  0  0  0
   10.5542  -16.0184   22.7067 C   0  0  0  0  0  0  0  0  0  0  0  0
   11.2766  -15.0085   22.5319 O   0  0  0  0  0  0  0  0  0  0  0  0
   12.6626  -20.2492   20.3738 O   0  0  0  0  0  0  0  0  0  0  0  0
    8.9961  -14.8815   28.9213 N   0  0  0  0  0  0  0  0  0  0  0  0
    9.0347  -13.7872   28.0317 C   0  0  0  0  0  0  0  0  0  0  0  0
    8.7011  -12.6449   28.4739 O   0  0  0  0  0  0  0  0  0  0  0  0
    9.4465  -13.9226   26.6431 C   0  0  0  0  0  0  0  0  0  0  0  0
    9.4416  -15.2516   26.0221 C   0  0  0  0  0  0  0  0  0  0  0  0
   10.6306  -15.6184   25.2190 C   0  0  2  0  0  0  0  0  0  0  0  0
   10.1757  -16.3636   24.0134 N   0  0  0  0  0  0  0  0  0  0  0  0
   11.5625  -16.4968   25.9081 C   0  0  0  0  0  0  0  0  0  0  0  0
   12.5647  -16.0223   26.7368 O   0  0  0  0  0  0  0  0  0  0  0  0
   11.5015  -17.7402   25.7694 O   0  0  0  0  0  0  0  0  0  0  0  0
  2  1  1  6
  2  3  1  0
  4  6  1  0
  4  2  1  0
  4  5  1  1
  6  8  1  0
  7  6  2  0
  8  9  1  0
  9 14  1  0
  9 10  1  6
 11 10  1  0
 12 11  1  0
 13 12  2  0
 14 15  2  0
 14 23  1  0
 16 12  1  0
 17 18  1  0
 18 19  2  0
 20 18  1  0
 20 21  1  0
 22 21  1  1
 22 24  1  0
 23 22  1  0
 24 25  1  0
 26 24  2  0
M  END
$$$$
