TEQ.pdb
     RDKit          3D

 26 25  0  0  1  0  0  0  0  0999 V2000
   11.1219  -14.7059   20.0599 C   0  0  0  0  0  0  0  0  0  0  0  0
   10.3931  -13.5120   19.4661 C   0  0  1  0  0  0  0  0  0  0  0  0
   11.0405  -13.1388   18.3093 O   0  0  0  0  0  0  0  0  0  0  0  0
    8.9275  -13.8690   19.1991 C   0  0  2  0  0  0  0  0  0  0  0  0
    8.2798  -12.6247   18.7882 N   0  0  0  0  0  0  0  0  0  0  0  0
    8.3585  -14.3499   20.4933 C   0  0  0  0  0  0  0  0  0  0  0  0
    8.1830  -13.5489   21.4469 O   0  0  0  0  0  0  0  0  0  0  0  0
    7.9945  -15.7024   20.7114 N   0  0  0  0  0  0  0  0  0  0  0  0
    7.5842  -16.1650   22.0033 C   0  0  1  0  0  0  0  0  0  0  0  0
    6.9392  -17.5038   21.8655 C   0  0  0  0  0  0  0  0  0  0  0  0
    6.6867  -18.2101   23.1527 C   0  0  0  0  0  0  0  0  0  0  0  0
    6.1528  -19.5653   22.8637 C   0  0  0  0  0  0  0  0  0  0  0  0
    5.7544  -20.3010   23.8096 O   0  0  0  0  0  0  0  0  0  0  0  0
    8.7020  -16.1832   22.9892 C   0  0  0  0  0  0  0  0  0  0  0  0
    9.8407  -16.4908   22.5637 O   0  0  0  0  0  0  0  0  0  0  0  0
    6.0784  -20.0536   21.5607 O   0  0  0  0  0  0  0  0  0  0  0  0
    9.0020  -13.2198   28.7371 N   0  0  0  0  0  0  0  0  0  0  0  0
   10.0174  -14.1993   28.7440 C   0  0  0  0  0  0  0  0  0  0  0  0
   10.7229  -14.3220   29.7924 O   0  0  0  0  0  0  0  0  0  0  0  0
   10.2741  -15.0674   27.6054 C   0  0  0  0  0  0  0  0  0  0  0  0
    9.3240  -15.0807   26.4878 C   0  0  0  0  0  0  0  0  0  0  0  0
    9.6596  -15.9485   25.3356 C   0  0  2  0  0  0  0  0  0  0  0  0
    8.5460  -15.8783   24.3503 N   0  0  0  0  0  0  0  0  0  0  0  0
    9.8080  -17.3544   25.6767 C   0  0  0  0  0  0  0  0  0  0  0  0
   11.0280  -17.9195   26.0063 O   0  0  0  0  0  0  0  0  0  0  0  0
    8.8222  -18.1270   25.6765 O   0  0  0  0  0  0  0  0  0  0  0  0
  2  1  1  6
  2  3  1  0
  4  6  1  0
  4  2  1  0
  4  5  1  1
  6  8  1  0
  7  6  2  0
  8  9  1  0
  9 14  1  0
  9 10  1  6
 11 10  1  0
 12 11  1  0
 13 12  2  0
 14 15  2  0
 14 23  1  0
 16 12  1  0
 17 18  1  0
 18 19  2  0
 20 18  1  0
 20 21  1  0
 22 21  1  1
 22 24  1  0
 23 22  1  0
 24 25  1  0
 26 24  2  0
M  END
$$$$
