TEQ.pdb
     RDKit          3D

 26 25  0  0  1  0  0  0  0  0999 V2000
    8.6042  -12.6779   20.0702 C   0  0  0  0  0  0  0  0  0  0  0  0
    7.8237  -13.4524   19.0213 C   0  0  1  0  0  0  0  0  0  0  0  0
    6.9957  -12.5736   18.3588 O   0  0  0  0  0  0  0  0  0  0  0  0
    8.7873  -14.1513   18.0570 C   0  0  2  0  0  0  0  0  0  0  0  0
    7.9473  -14.8725   17.1028 N   0  0  0  0  0  0  0  0  0  0  0  0
    9.5918  -15.1101   18.8716 C   0  0  0  0  0  0  0  0  0  0  0  0
    9.1736  -16.2788   19.0739 O   0  0  0  0  0  0  0  0  0  0  0  0
   10.8400  -14.7629   19.4468 N   0  0  0  0  0  0  0  0  0  0  0  0
   11.6165  -15.7198   20.1766 C   0  0  1  0  0  0  0  0  0  0  0  0
   13.0552  -15.5710   19.8083 C   0  0  0  0  0  0  0  0  0  0  0  0
   13.3473  -14.4464   18.8757 C   0  0  0  0  0  0  0  0  0  0  0  0
   14.8003  -14.4379   18.5692 C   0  0  0  0  0  0  0  0  0  0  0  0
   15.2109  -13.9614   17.4742 O   0  0  0  0  0  0  0  0  0  0  0  0
   11.4054  -15.6284   21.6493 C   0  0  0  0  0  0  0  0  0  0  0  0
   12.0069  -14.7145   22.2621 O   0  0  0  0  0  0  0  0  0  0  0  0
   15.7349  -14.9479   19.4682 O   0  0  0  0  0  0  0  0  0  0  0  0
    5.9725  -18.0065   23.4475 N   0  0  0  0  0  0  0  0  0  0  0  0
    6.8229  -17.5675   24.4841 C   0  0  0  0  0  0  0  0  0  0  0  0
    6.5569  -17.9322   25.6708 O   0  0  0  0  0  0  0  0  0  0  0  0
    7.9845  -16.7268   24.2393 C   0  0  0  0  0  0  0  0  0  0  0  0
    9.3209  -17.3316   24.2549 C   0  0  0  0  0  0  0  0  0  0  0  0
   10.4523  -16.4629   23.8568 C   0  0  2  0  0  0  0  0  0  0  0  0
   10.5796  -16.5016   22.3742 N   0  0  0  0  0  0  0  0  0  0  0  0
   11.7393  -16.8885   24.3832 C   0  0  0  0  0  0  0  0  0  0  0  0
   12.2238  -16.4642   25.6086 O   0  0  0  0  0  0  0  0  0  0  0  0
   12.4795  -17.6621   23.7332 O   0  0  0  0  0  0  0  0  0  0  0  0
  2  1  1  1
  2  3  1  0
  4  6  1  0
  4  2  1  0
  4  5  1  6
  6  8  1  0
  7  6  2  0
  8  9  1  0
  9 14  1  0
  9 10  1  1
 11 10  1  0
 12 11  1  0
 13 12  2  0
 14 15  2  0
 14 23  1  0
 16 12  1  0
 17 18  1  0
 18 19  2  0
 20 18  1  0
 20 21  1  0
 22 21  1  6
 22 24  1  0
 23 22  1  0
 24 25  1  0
 26 24  2  0
M  END
$$$$
