TEQ.pdb
     RDKit          3D

 26 25  0  0  1  0  0  0  0  0999 V2000
    7.5541  -12.4512   19.0796 C   0  0  0  0  0  0  0  0  0  0  0  0
    8.1619  -13.3871   20.1111 C   0  0  1  0  0  0  0  0  0  0  0  0
    7.5438  -13.1611   21.3208 O   0  0  0  0  0  0  0  0  0  0  0  0
    8.0009  -14.8427   19.6615 C   0  0  2  0  0  0  0  0  0  0  0  0
    6.5610  -15.0816   19.5837 N   0  0  0  0  0  0  0  0  0  0  0  0
    8.6134  -15.6925   20.7258 C   0  0  0  0  0  0  0  0  0  0  0  0
    7.9054  -16.1509   21.6587 O   0  0  0  0  0  0  0  0  0  0  0  0
    9.9924  -16.0203   20.7415 N   0  0  0  0  0  0  0  0  0  0  0  0
   10.5494  -16.8518   21.7659 C   0  0  1  0  0  0  0  0  0  0  0  0
   11.8780  -17.3630   21.3176 C   0  0  0  0  0  0  0  0  0  0  0  0
   12.6184  -18.1557   22.3389 C   0  0  0  0  0  0  0  0  0  0  0  0
   13.9298  -18.5652   21.7753 C   0  0  0  0  0  0  0  0  0  0  0  0
   14.9996  -18.1366   22.2917 O   0  0  0  0  0  0  0  0  0  0  0  0
   10.6332  -16.1616   23.0844 C   0  0  0  0  0  0  0  0  0  0  0  0
   10.9260  -14.9424   23.0791 O   0  0  0  0  0  0  0  0  0  0  0  0
   14.0135  -19.4202   20.6781 O   0  0  0  0  0  0  0  0  0  0  0  0
    7.7451  -12.7219   25.0456 N   0  0  0  0  0  0  0  0  0  0  0  0
    7.5763  -13.6782   26.0691 C   0  0  0  0  0  0  0  0  0  0  0  0
    7.5910  -13.2748   27.2728 O   0  0  0  0  0  0  0  0  0  0  0  0
    7.3811  -15.0930   25.7928 C   0  0  0  0  0  0  0  0  0  0  0  0
    8.2951  -15.7740   24.8693 C   0  0  0  0  0  0  0  0  0  0  0  0
    9.6080  -16.1898   25.4137 C   0  0  2  0  0  0  0  0  0  0  0  0
   10.4048  -16.7990   24.3138 N   0  0  0  0  0  0  0  0  0  0  0  0
    9.5235  -17.1992   26.4572 C   0  0  0  0  0  0  0  0  0  0  0  0
    9.6231  -18.5551   26.1963 O   0  0  0  0  0  0  0  0  0  0  0  0
    9.3439  -16.8777   27.6543 O   0  0  0  0  0  0  0  0  0  0  0  0
  2  1  1  6
  2  3  1  0
  4  6  1  0
  4  2  1  0
  4  5  1  1
  6  8  1  0
  7  6  2  0
  8  9  1  0
  9 14  1  0
  9 10  1  6
 11 10  1  0
 12 11  1  0
 13 12  2  0
 14 15  2  0
 14 23  1  0
 16 12  1  0
 17 18  1  0
 18 19  2  0
 20 18  1  0
 20 21  1  0
 22 21  1  6
 22 24  1  0
 23 22  1  0
 24 25  1  0
 26 24  2  0
M  END
$$$$
