GIP.pdb
     RDKit          3D

 20 20  0  0  1  0  0  0  0  0999 V2000
   20.4028  -20.0040  -12.8895 N   0  0  0  0  0  0  0  0  0  0  0  0
   21.4665  -20.9593  -12.8561 C   0  0  0  0  0  0  0  0  0  0  0  0
   22.8010  -20.2957  -12.7410 C   0  0  0  0  0  0  0  0  0  0  0  0
   22.8646  -19.0845  -13.0638 O   0  0  0  0  0  0  0  0  0  0  0  0
   25.6018  -20.8103   -8.5248 C   0  0  0  0  0  0  0  0  0  0  0  0
   25.1016  -20.3905   -9.8679 C   0  0  0  0  0  0  0  0  0  0  0  0
   25.8791  -21.0706  -10.9969 C   0  0  2  0  0  0  0  0  0  0  0  0
   27.3423  -20.8143  -10.8643 C   0  0  0  0  0  0  0  0  0  0  0  0
   25.2650  -20.5618  -12.2856 C   0  0  2  0  0  0  0  0  0  0  0  0
   23.8741  -21.0760  -12.2829 N   0  0  0  0  0  0  0  0  0  0  0  0
   25.9462  -20.9612  -13.5193 C   0  0  0  0  0  0  0  0  0  0  0  0
   26.1357  -22.2480  -13.6681 O   0  0  0  0  0  0  0  0  0  0  0  0
   26.4221  -20.1753  -14.5715 N   0  0  0  0  0  0  0  0  0  0  0  0
   26.4510  -18.6915  -14.4365 C   0  0  0  0  0  0  0  0  0  0  0  0
   27.7162  -18.3809  -15.2066 C   0  0  0  0  0  0  0  0  0  0  0  0
   27.3989  -19.1645  -16.4863 C   0  0  0  0  0  0  0  0  0  0  0  0
   26.9228  -20.4911  -15.8629 C   0  0  1  0  0  0  0  0  0  0  0  0
   28.1471  -21.3297  -15.8302 C   0  0  0  0  0  0  0  0  0  0  0  0
   28.6068  -21.9176  -16.9751 O   0  0  0  0  0  0  0  0  0  0  0  0
   28.7419  -21.4894  -14.7523 O   0  0  0  0  0  0  0  0  0  0  0  0
  2  1  1  0
  3  2  1  0
  4  3  2  0
  5  6  1  0
  6  7  1  0
  7  9  1  0
  7  8  1  6
  9 11  1  0
  9 10  1  6
 10  3  1  0
 11 13  1  0
 12 11  2  0
 13 17  1  0
 14 13  1  0
 14 15  1  0
 15 16  1  0
 17 18  1  1
 17 16  1  0
 18 19  1  0
 20 18  2  0
M  END
$$$$
