GIP.pdb
     RDKit          3D

 20 20  0  0  1  0  0  0  0  0999 V2000
   20.8627  -20.3358  -11.4649 N   0  0  0  0  0  0  0  0  0  0  0  0
   21.9951  -21.1362  -11.1154 C   0  0  0  0  0  0  0  0  0  0  0  0
   23.2681  -20.3569  -11.1971 C   0  0  0  0  0  0  0  0  0  0  0  0
   23.2292  -19.2652  -11.8150 O   0  0  0  0  0  0  0  0  0  0  0  0
   26.8100  -20.4128   -7.2825 C   0  0  0  0  0  0  0  0  0  0  0  0
   26.0506  -20.1080   -8.5319 C   0  0  0  0  0  0  0  0  0  0  0  0
   26.6312  -20.8476   -9.7392 C   0  0  2  0  0  0  0  0  0  0  0  0
   28.0831  -20.5466   -9.8992 C   0  0  0  0  0  0  0  0  0  0  0  0
   25.7712  -20.4473  -10.9210 C   0  0  2  0  0  0  0  0  0  0  0  0
   24.4028  -20.9050  -10.5787 N   0  0  0  0  0  0  0  0  0  0  0  0
   26.1741  -20.9940  -12.2187 C   0  0  0  0  0  0  0  0  0  0  0  0
   26.3603  -22.2895  -12.2521 O   0  0  0  0  0  0  0  0  0  0  0  0
   26.3854  -20.3422  -13.4359 N   0  0  0  0  0  0  0  0  0  0  0  0
   26.2705  -18.8585  -13.5139 C   0  0  0  0  0  0  0  0  0  0  0  0
   27.3539  -18.5626  -14.5283 C   0  0  0  0  0  0  0  0  0  0  0  0
   26.9252  -19.5590  -15.6126 C   0  0  0  0  0  0  0  0  0  0  0  0
   26.7052  -20.8094  -14.7388 C   0  0  1  0  0  0  0  0  0  0  0  0
   28.0045  -21.5241  -14.8050 C   0  0  0  0  0  0  0  0  0  0  0  0
   28.3291  -22.2566  -15.9121 O   0  0  0  0  0  0  0  0  0  0  0  0
   28.7860  -21.4480  -13.8434 O   0  0  0  0  0  0  0  0  0  0  0  0
  2  1  1  0
  3  2  1  0
  4  3  2  0
  5  6  1  0
  6  7  1  0
  7  9  1  0
  7  8  1  6
  9 11  1  0
  9 10  1  1
 10  3  1  0
 11 13  1  0
 12 11  2  0
 13 17  1  0
 14 13  1  0
 14 15  1  0
 15 16  1  0
 17 18  1  1
 17 16  1  0
 18 19  1  0
 20 18  2  0
M  END
$$$$
