GIP.pdb
     RDKit          3D

 20 20  0  0  1  0  0  0  0  0999 V2000
   29.4323  -20.2478  -14.9940 N   0  0  0  0  0  0  0  0  0  0  0  0
   28.5215  -19.5674  -14.1266 C   0  0  0  0  0  0  0  0  0  0  0  0
   27.5488  -20.5119  -13.4971 C   0  0  0  0  0  0  0  0  0  0  0  0
   27.4115  -21.6346  -14.0410 O   0  0  0  0  0  0  0  0  0  0  0  0
   26.9732  -20.1181   -8.3534 C   0  0  0  0  0  0  0  0  0  0  0  0
   26.8485  -20.7385   -9.7061 C   0  0  0  0  0  0  0  0  0  0  0  0
   25.5405  -20.3377  -10.3918 C   0  0  2  0  0  0  0  0  0  0  0  0
   24.3661  -20.9107   -9.6730 C   0  0  0  0  0  0  0  0  0  0  0  0
   25.6762  -20.7855  -11.8332 C   0  0  2  0  0  0  0  0  0  0  0  0
   26.8678  -20.0709  -12.3517 N   0  0  0  0  0  0  0  0  0  0  0  0
   24.5203  -20.5258  -12.6945 C   0  0  0  0  0  0  0  0  0  0  0  0
   23.9728  -19.3438  -12.5633 O   0  0  0  0  0  0  0  0  0  0  0  0
   23.9120  -21.3487  -13.6453 N   0  0  0  0  0  0  0  0  0  0  0  0
   24.5361  -22.6525  -14.0077 C   0  0  0  0  0  0  0  0  0  0  0  0
   23.2936  -23.4865  -14.2333 C   0  0  0  0  0  0  0  0  0  0  0  0
   22.5586  -22.5407  -15.1912 C   0  0  0  0  0  0  0  0  0  0  0  0
   22.7324  -21.2146  -14.4254 C   0  0  1  0  0  0  0  0  0  0  0  0
   21.4967  -21.1089  -13.6098 C   0  0  0  0  0  0  0  0  0  0  0  0
   21.4873  -21.5538  -12.3176 O   0  0  0  0  0  0  0  0  0  0  0  0
   20.4774  -20.6149  -14.1179 O   0  0  0  0  0  0  0  0  0  0  0  0
  2  1  1  0
  3  2  1  0
  4  3  2  0
  5  6  1  0
  6  7  1  0
  7  9  1  0
  7  8  1  1
  9 11  1  0
  9 10  1  6
 10  3  1  0
 11 13  1  0
 12 11  2  0
 13 17  1  0
 14 13  1  0
 14 15  1  0
 15 16  1  0
 17 18  1  1
 17 16  1  0
 18 19  1  0
 20 18  2  0
M  END
$$$$
