GIP.pdb
     RDKit          3D

 20 20  0  0  1  0  0  0  0  0999 V2000
   21.2654  -21.7252   -7.0008 N   0  0  0  0  0  0  0  0  0  0  0  0
   22.6133  -22.1552   -7.2089 C   0  0  0  0  0  0  0  0  0  0  0  0
   23.3813  -21.1803   -8.0419 C   0  0  0  0  0  0  0  0  0  0  0  0
   22.7147  -20.3739   -8.7351 O   0  0  0  0  0  0  0  0  0  0  0  0
   27.7635  -19.1616   -6.0863 C   0  0  0  0  0  0  0  0  0  0  0  0
   26.5808  -19.3812   -6.9714 C   0  0  0  0  0  0  0  0  0  0  0  0
   26.9363  -20.2452   -8.1834 C   0  0  2  0  0  0  0  0  0  0  0  0
   28.0076  -19.6031   -8.9982 C   0  0  0  0  0  0  0  0  0  0  0  0
   25.6337  -20.4736   -8.9235 C   0  0  2  0  0  0  0  0  0  0  0  0
   24.7824  -21.2428   -7.9839 N   0  0  0  0  0  0  0  0  0  0  0  0
   25.7404  -21.1829  -10.2006 C   0  0  0  0  0  0  0  0  0  0  0  0
   26.3895  -22.3193  -10.1627 O   0  0  0  0  0  0  0  0  0  0  0  0
   25.2473  -20.8339  -11.4601 N   0  0  0  0  0  0  0  0  0  0  0  0
   24.3840  -19.6289  -11.6122 C   0  0  0  0  0  0  0  0  0  0  0  0
   24.8398  -19.1473  -12.9726 C   0  0  0  0  0  0  0  0  0  0  0  0
   24.6907  -20.4668  -13.7400 C   0  0  0  0  0  0  0  0  0  0  0  0
   25.3832  -21.4204  -12.7468 C   0  0  1  0  0  0  0  0  0  0  0  0
   26.7878  -21.4738  -13.2236 C   0  0  0  0  0  0  0  0  0  0  0  0
   27.1281  -22.2897  -14.2658 O   0  0  0  0  0  0  0  0  0  0  0  0
   27.6438  -20.7712  -12.6625 O   0  0  0  0  0  0  0  0  0  0  0  0
  2  1  1  0
  3  2  1  0
  4  3  2  0
  5  6  1  0
  6  7  1  0
  7  9  1  0
  7  8  1  6
  9 11  1  0
  9 10  1  1
 10  3  1  0
 11 13  1  0
 12 11  2  0
 13 17  1  0
 14 13  1  0
 14 15  1  0
 15 16  1  0
 17 18  1  6
 17 16  1  0
 18 19  1  0
 20 18  2  0
M  END
$$$$
