GIP.pdb
     RDKit          3D

 20 20  0  0  1  0  0  0  0  0999 V2000
   20.4180  -19.8656  -13.3799 N   0  0  0  0  0  0  0  0  0  0  0  0
   21.4543  -20.8200  -13.1347 C   0  0  0  0  0  0  0  0  0  0  0  0
   22.7963  -20.1674  -13.0473 C   0  0  0  0  0  0  0  0  0  0  0  0
   22.8588  -18.9507  -13.3487 O   0  0  0  0  0  0  0  0  0  0  0  0
   25.4804  -20.8134   -8.8424 C   0  0  0  0  0  0  0  0  0  0  0  0
   25.0071  -20.3656  -10.1862 C   0  0  0  0  0  0  0  0  0  0  0  0
   25.8561  -20.9623  -11.3108 C   0  0  2  0  0  0  0  0  0  0  0  0
   27.2991  -20.6402  -11.1157 C   0  0  0  0  0  0  0  0  0  0  0  0
   25.2620  -20.4342  -12.6010 C   0  0  2  0  0  0  0  0  0  0  0  0
   23.8771  -20.9633  -12.6365 N   0  0  0  0  0  0  0  0  0  0  0  0
   25.9718  -20.8012  -13.8286 C   0  0  0  0  0  0  0  0  0  0  0  0
   26.1191  -22.0860  -14.0328 O   0  0  0  0  0  0  0  0  0  0  0  0
   26.5138  -19.9857  -14.8248 N   0  0  0  0  0  0  0  0  0  0  0  0
   26.6012  -18.5132  -14.6136 C   0  0  0  0  0  0  0  0  0  0  0  0
   27.9023  -18.2204  -15.3290 C   0  0  0  0  0  0  0  0  0  0  0  0
   27.5930  -18.9249  -16.6558 C   0  0  0  0  0  0  0  0  0  0  0  0
   27.0416  -20.2587  -16.1152 C   0  0  1  0  0  0  0  0  0  0  0  0
   28.2276  -21.1508  -16.0889 C   0  0  0  0  0  0  0  0  0  0  0  0
   28.7156  -21.6780  -17.2516 O   0  0  0  0  0  0  0  0  0  0  0  0
   28.7648  -21.4105  -15.0003 O   0  0  0  0  0  0  0  0  0  0  0  0
  2  1  1  0
  3  2  1  0
  4  3  2  0
  5  6  1  0
  6  7  1  0
  7  9  1  0
  7  8  1  1
  9 11  1  0
  9 10  1  6
 10  3  1  0
 11 13  1  0
 12 11  2  0
 13 17  1  0
 14 13  1  0
 14 15  1  0
 15 16  1  0
 17 18  1  1
 17 16  1  0
 18 19  1  0
 20 18  2  0
M  END
$$$$
