GIP.pdb
     RDKit          3D

 20 20  0  0  1  0  0  0  0  0999 V2000
   21.0243  -20.3304  -11.3284 N   0  0  0  0  0  0  0  0  0  0  0  0
   22.2106  -21.1067  -11.1411 C   0  0  0  0  0  0  0  0  0  0  0  0
   23.4380  -20.2539  -11.1657 C   0  0  0  0  0  0  0  0  0  0  0  0
   23.4250  -19.2587  -11.9302 O   0  0  0  0  0  0  0  0  0  0  0  0
   26.7898  -20.0052   -6.9759 C   0  0  0  0  0  0  0  0  0  0  0  0
   26.0714  -19.7888   -8.2672 C   0  0  0  0  0  0  0  0  0  0  0  0
   26.6967  -20.6011   -9.4033 C   0  0  2  0  0  0  0  0  0  0  0  0
   28.1601  -20.3329   -9.5058 C   0  0  0  0  0  0  0  0  0  0  0  0
   25.9038  -20.2505  -10.6463 C   0  0  2  0  0  0  0  0  0  0  0  0
   24.5048  -20.6316  -10.3352 N   0  0  0  0  0  0  0  0  0  0  0  0
   26.3379  -20.8997  -11.8854 C   0  0  0  0  0  0  0  0  0  0  0  0
   26.4876  -22.1987  -11.8195 O   0  0  0  0  0  0  0  0  0  0  0  0
   26.6124  -20.3431  -13.1368 N   0  0  0  0  0  0  0  0  0  0  0  0
   26.4865  -18.8721  -13.3394 C   0  0  0  0  0  0  0  0  0  0  0  0
   27.6236  -18.6410  -14.3110 C   0  0  0  0  0  0  0  0  0  0  0  0
   27.2688  -19.7264  -15.3348 C   0  0  0  0  0  0  0  0  0  0  0  0
   27.0118  -20.9070  -14.3780 C   0  0  1  0  0  0  0  0  0  0  0  0
   28.3202  -21.6050  -14.3130 C   0  0  0  0  0  0  0  0  0  0  0  0
   28.7331  -22.3871  -15.3548 O   0  0  0  0  0  0  0  0  0  0  0  0
   29.0282  -21.4694  -13.3022 O   0  0  0  0  0  0  0  0  0  0  0  0
  2  1  1  0
  3  2  1  0
  4  3  2  0
  5  6  1  0
  6  7  1  0
  7  9  1  0
  7  8  1  6
  9 11  1  0
  9 10  1  1
 10  3  1  0
 11 13  1  0
 12 11  2  0
 13 17  1  0
 14 13  1  0
 14 15  1  0
 15 16  1  0
 17 18  1  1
 17 16  1  0
 18 19  1  0
 20 18  2  0
M  END
$$$$
