GIP.pdb
     RDKit          3D

 20 20  0  0  1  0  0  0  0  0999 V2000
   13.8612  -10.4727  -15.4057 N   0  0  0  0  0  0  0  0  0  0  0  0
   14.8465  -10.0556  -16.3545 C   0  0  0  0  0  0  0  0  0  0  0  0
   16.2335  -10.3012  -15.8540 C   0  0  0  0  0  0  0  0  0  0  0  0
   16.3866  -10.3689  -14.6102 O   0  0  0  0  0  0  0  0  0  0  0  0
   18.1688  -13.6576  -18.2331 C   0  0  0  0  0  0  0  0  0  0  0  0
   18.5458  -12.9007  -17.0021 C   0  0  0  0  0  0  0  0  0  0  0  0
   19.2649  -11.5935  -17.3420 C   0  0  2  0  0  0  0  0  0  0  0  0
   20.7434  -11.7563  -17.2337 C   0  0  0  0  0  0  0  0  0  0  0  0
   18.6774  -10.5467  -16.4169 C   0  0  2  0  0  0  0  0  0  0  0  0
   17.2519  -10.4362  -16.8105 N   0  0  0  0  0  0  0  0  0  0  0  0
   19.3138   -9.2281  -16.4580 C   0  0  0  0  0  0  0  0  0  0  0  0
   19.4108   -8.6850  -17.6454 O   0  0  0  0  0  0  0  0  0  0  0  0
   19.8309   -8.4529  -15.4174 N   0  0  0  0  0  0  0  0  0  0  0  0
   19.6806   -8.9081  -14.0064 C   0  0  0  0  0  0  0  0  0  0  0  0
   20.9918   -8.4194  -13.4301 C   0  0  0  0  0  0  0  0  0  0  0  0
   20.9268   -6.9681  -13.9218 C   0  0  0  0  0  0  0  0  0  0  0  0
   20.5228   -7.2126  -15.3889 C   0  0  1  0  0  0  0  0  0  0  0  0
   21.8171   -7.2442  -16.1149 C   0  0  0  0  0  0  0  0  0  0  0  0
   22.4811   -6.0806  -16.3847 O   0  0  0  0  0  0  0  0  0  0  0  0
   22.2829   -8.3379  -16.4729 O   0  0  0  0  0  0  0  0  0  0  0  0
  2  1  1  0
  3  2  1  0
  4  3  2  0
  5  6  1  0
  6  7  1  0
  7  9  1  0
  7  8  1  1
  9 11  1  0
  9 10  1  6
 10  3  1  0
 11 13  1  0
 12 11  2  0
 13 17  1  0
 14 13  1  0
 14 15  1  0
 15 16  1  0
 17 18  1  6
 17 16  1  0
 18 19  1  0
 20 18  2  0
M  END
$$$$
