GIP.pdb
     RDKit          3D

 20 20  0  0  1  0  0  0  0  0999 V2000
   16.0685   -5.4889   -7.7756 N   0  0  0  0  0  0  0  0  0  0  0  0
   15.0652   -5.9178   -8.7001 C   0  0  0  0  0  0  0  0  0  0  0  0
   15.3962   -7.2482   -9.2959 C   0  0  0  0  0  0  0  0  0  0  0  0
   16.5043   -7.7505   -8.9880 O   0  0  0  0  0  0  0  0  0  0  0  0
   11.8979   -9.7472   -8.5842 C   0  0  0  0  0  0  0  0  0  0  0  0
   13.2522  -10.1339   -9.0810 C   0  0  0  0  0  0  0  0  0  0  0  0
   13.3830   -9.9150  -10.5898 C   0  0  2  0  0  0  0  0  0  0  0  0
   13.3143  -11.2118  -11.3232 C   0  0  0  0  0  0  0  0  0  0  0  0
   14.6759   -9.1491  -10.7851 C   0  0  2  0  0  0  0  0  0  0  0  0
   14.4455   -7.8290  -10.1497 N   0  0  0  0  0  0  0  0  0  0  0  0
   15.1093   -8.9701  -12.1727 C   0  0  0  0  0  0  0  0  0  0  0  0
   14.1723   -8.6146  -13.0153 O   0  0  0  0  0  0  0  0  0  0  0  0
   16.3784   -9.1152  -12.7380 N   0  0  0  0  0  0  0  0  0  0  0  0
   17.5472   -9.4304  -11.8689 C   0  0  0  0  0  0  0  0  0  0  0  0
   18.3352  -10.3256  -12.8005 C   0  0  0  0  0  0  0  0  0  0  0  0
   18.3474   -9.4129  -14.0330 C   0  0  0  0  0  0  0  0  0  0  0  0
   16.8592   -9.0138  -14.0709 C   0  0  1  0  0  0  0  0  0  0  0  0
   16.2479  -10.0029  -14.9935 C   0  0  0  0  0  0  0  0  0  0  0  0
   16.3832   -9.8551  -16.3454 O   0  0  0  0  0  0  0  0  0  0  0  0
   15.6138  -10.9596  -14.5204 O   0  0  0  0  0  0  0  0  0  0  0  0
  2  1  1  0
  3  2  1  0
  4  3  2  0
  5  6  1  0
  6  7  1  0
  7  9  1  0
  7  8  1  6
  9 11  1  0
  9 10  1  6
 10  3  1  0
 11 13  1  0
 12 11  2  0
 13 17  1  0
 14 13  1  0
 14 15  1  0
 15 16  1  0
 17 18  1  6
 17 16  1  0
 18 19  1  0
 20 18  2  0
M  END
$$$$
