GIP.pdb
     RDKit          3D

 20 20  0  0  1  0  0  0  0  0999 V2000
   21.4528  -21.2686   -7.7851 N   0  0  0  0  0  0  0  0  0  0  0  0
   22.7856  -21.7853   -7.8244 C   0  0  0  0  0  0  0  0  0  0  0  0
   23.7180  -20.8542   -8.5300 C   0  0  0  0  0  0  0  0  0  0  0  0
   23.1993  -19.9443   -9.2216 O   0  0  0  0  0  0  0  0  0  0  0  0
   28.1004  -19.3385   -6.1461 C   0  0  0  0  0  0  0  0  0  0  0  0
   26.9523  -19.4879   -7.0895 C   0  0  0  0  0  0  0  0  0  0  0  0
   27.3451  -20.2879   -8.3334 C   0  0  2  0  0  0  0  0  0  0  0  0
   28.5279  -19.6777   -9.0064 C   0  0  0  0  0  0  0  0  0  0  0  0
   26.0978  -20.3552   -9.1915 C   0  0  2  0  0  0  0  0  0  0  0  0
   25.0952  -21.0695   -8.3645 N   0  0  0  0  0  0  0  0  0  0  0  0
   26.2485  -21.0227  -10.4866 C   0  0  0  0  0  0  0  0  0  0  0  0
   26.8068  -22.2064  -10.4499 O   0  0  0  0  0  0  0  0  0  0  0  0
   25.8798  -20.5904  -11.7626 N   0  0  0  0  0  0  0  0  0  0  0  0
   25.2415  -19.2554  -11.9391 C   0  0  0  0  0  0  0  0  0  0  0  0
   25.8341  -18.8535  -13.2724 C   0  0  0  0  0  0  0  0  0  0  0  0
   25.4981  -20.1255  -14.0606 C   0  0  0  0  0  0  0  0  0  0  0  0
   25.9725  -21.1867  -13.0486 C   0  0  1  0  0  0  0  0  0  0  0  0
   27.3679  -21.4767  -13.4633 C   0  0  0  0  0  0  0  0  0  0  0  0
   27.6103  -22.2812  -14.5412 O   0  0  0  0  0  0  0  0  0  0  0  0
   28.3056  -20.9815  -12.8179 O   0  0  0  0  0  0  0  0  0  0  0  0
  2  1  1  0
  3  2  1  0
  4  3  2  0
  5  6  1  0
  6  7  1  0
  7  9  1  0
  7  8  1  6
  9 11  1  0
  9 10  1  1
 10  3  1  0
 11 13  1  0
 12 11  2  0
 13 17  1  0
 14 13  1  0
 14 15  1  0
 15 16  1  0
 17 18  1  6
 17 16  1  0
 18 19  1  0
 20 18  2  0
M  END
$$$$
