GIP.pdb
     RDKit          3D

 20 20  0  0  1  0  0  0  0  0999 V2000
   24.6888  -21.4076   -7.8739 N   0  0  0  0  0  0  0  0  0  0  0  0
   24.6304  -20.3861   -8.8730 C   0  0  0  0  0  0  0  0  0  0  0  0
   24.6843  -20.9595  -10.2524 C   0  0  0  0  0  0  0  0  0  0  0  0
   25.1926  -22.1003  -10.3757 O   0  0  0  0  0  0  0  0  0  0  0  0
   20.5569  -21.5202  -12.7936 C   0  0  0  0  0  0  0  0  0  0  0  0
   21.9922  -21.5062  -12.3811 C   0  0  0  0  0  0  0  0  0  0  0  0
   22.8125  -20.5303  -13.2274 C   0  0  2  0  0  0  0  0  0  0  0  0
   22.6608  -20.8292  -14.6806 C   0  0  0  0  0  0  0  0  0  0  0  0
   24.2333  -20.6285  -12.7094 C   0  0  2  0  0  0  0  0  0  0  0  0
   24.1643  -20.1800  -11.2976 N   0  0  0  0  0  0  0  0  0  0  0  0
   25.2344  -19.8451  -13.4372 C   0  0  0  0  0  0  0  0  0  0  0  0
   24.9289  -18.5883  -13.6404 O   0  0  0  0  0  0  0  0  0  0  0  0
   26.4759  -20.2338  -13.9457 N   0  0  0  0  0  0  0  0  0  0  0  0
   27.0118  -21.5905  -13.6410 C   0  0  0  0  0  0  0  0  0  0  0  0
   27.7166  -21.8951  -14.9452 C   0  0  0  0  0  0  0  0  0  0  0  0
   28.5388  -20.6058  -15.0632 C   0  0  0  0  0  0  0  0  0  0  0  0
   27.4391  -19.5714  -14.7529 C   0  0  1  0  0  0  0  0  0  0  0  0
   26.9222  -19.1882  -16.0905 C   0  0  0  0  0  0  0  0  0  0  0  0
   27.5658  -18.2339  -16.8273 O   0  0  0  0  0  0  0  0  0  0  0  0
   25.9007  -19.7435  -16.5257 O   0  0  0  0  0  0  0  0  0  0  0  0
  2  1  1  0
  3  2  1  0
  4  3  2  0
  5  6  1  0
  6  7  1  0
  7  9  1  0
  7  8  1  6
  9 11  1  0
  9 10  1  1
 10  3  1  0
 11 13  1  0
 12 11  2  0
 13 17  1  0
 14 13  1  0
 14 15  1  0
 15 16  1  0
 17 18  1  6
 17 16  1  0
 18 19  1  0
 20 18  2  0
M  END
$$$$
