GIP.pdb
     RDKit          3D

 20 20  0  0  1  0  0  0  0  0999 V2000
   20.5498  -19.9436  -13.6712 N   0  0  0  0  0  0  0  0  0  0  0  0
   21.5595  -20.8935  -13.3204 C   0  0  0  0  0  0  0  0  0  0  0  0
   22.8876  -20.2380  -13.1182 C   0  0  0  0  0  0  0  0  0  0  0  0
   22.9947  -19.0426  -13.4850 O   0  0  0  0  0  0  0  0  0  0  0  0
   25.5126  -20.8670   -8.7407 C   0  0  0  0  0  0  0  0  0  0  0  0
   25.0693  -20.4098  -10.0916 C   0  0  0  0  0  0  0  0  0  0  0  0
   25.8819  -21.0727  -11.2060 C   0  0  2  0  0  0  0  0  0  0  0  0
   27.3407  -20.8249  -11.0198 C   0  0  0  0  0  0  0  0  0  0  0  0
   25.3133  -20.5383  -12.5051 C   0  0  2  0  0  0  0  0  0  0  0  0
   23.9070  -21.0078  -12.5362 N   0  0  0  0  0  0  0  0  0  0  0  0
   26.0088  -20.9533  -13.7256 C   0  0  0  0  0  0  0  0  0  0  0  0
   26.1267  -22.2460  -13.8962 O   0  0  0  0  0  0  0  0  0  0  0  0
   26.5637  -20.1767  -14.7455 N   0  0  0  0  0  0  0  0  0  0  0  0
   26.6136  -18.6938  -14.6068 C   0  0  0  0  0  0  0  0  0  0  0  0
   27.9295  -18.4081  -15.2975 C   0  0  0  0  0  0  0  0  0  0  0  0
   27.6757  -19.1849  -16.5954 C   0  0  0  0  0  0  0  0  0  0  0  0
   27.1361  -20.5020  -16.0043 C   0  0  1  0  0  0  0  0  0  0  0  0
   28.3393  -21.3647  -15.8980 C   0  0  0  0  0  0  0  0  0  0  0  0
   28.8420  -21.9811  -17.0093 O   0  0  0  0  0  0  0  0  0  0  0  0
   28.8772  -21.5182  -14.7897 O   0  0  0  0  0  0  0  0  0  0  0  0
  2  1  1  0
  3  2  1  0
  4  3  2  0
  5  6  1  0
  6  7  1  0
  7  9  1  0
  7  8  1  1
  9 11  1  0
  9 10  1  6
 10  3  1  0
 11 13  1  0
 12 11  2  0
 13 17  1  0
 14 13  1  0
 14 15  1  0
 15 16  1  0
 17 18  1  1
 17 16  1  0
 18 19  1  0
 20 18  2  0
M  END
$$$$
