GIP.pdb
     RDKit          3D

 20 20  0  0  1  0  0  0  0  0999 V2000
   25.6582  -19.7812  -11.5509 N   0  0  0  0  0  0  0  0  0  0  0  0
   25.8566  -19.1038  -10.3072 C   0  0  0  0  0  0  0  0  0  0  0  0
   26.3276  -20.0376   -9.2391 C   0  0  0  0  0  0  0  0  0  0  0  0
   26.5159  -21.2334   -9.5703 O   0  0  0  0  0  0  0  0  0  0  0  0
   29.6035  -18.6928   -5.3975 C   0  0  0  0  0  0  0  0  0  0  0  0
   28.6841  -19.4146   -6.3271 C   0  0  0  0  0  0  0  0  0  0  0  0
   27.3004  -19.6183   -5.7063 C   0  0  2  0  0  0  0  0  0  0  0  0
   27.4052  -20.3094   -4.3890 C   0  0  0  0  0  0  0  0  0  0  0  0
   26.4876  -20.3639   -6.7456 C   0  0  2  0  0  0  0  0  0  0  0  0
   26.5216  -19.5058   -7.9546 N   0  0  0  0  0  0  0  0  0  0  0  0
   25.1010  -20.6616   -6.3793 C   0  0  0  0  0  0  0  0  0  0  0  0
   24.4126  -19.6524   -5.9084 O   0  0  0  0  0  0  0  0  0  0  0  0
   24.3936  -21.8632   -6.4618 N   0  0  0  0  0  0  0  0  0  0  0  0
   25.0301  -23.0590   -7.0828 C   0  0  0  0  0  0  0  0  0  0  0  0
   24.4426  -24.1512   -6.2156 C   0  0  0  0  0  0  0  0  0  0  0  0
   22.9648  -23.7560   -6.3261 C   0  0  0  0  0  0  0  0  0  0  0  0
   23.0841  -22.2423   -6.0622 C   0  0  1  0  0  0  0  0  0  0  0  0
   22.8552  -22.1156   -4.6011 C   0  0  0  0  0  0  0  0  0  0  0  0
   21.5825  -22.0261   -4.1112 O   0  0  0  0  0  0  0  0  0  0  0  0
   23.8325  -22.0903   -3.8360 O   0  0  0  0  0  0  0  0  0  0  0  0
  2  1  1  0
  3  2  1  0
  4  3  2  0
  5  6  1  0
  6  7  1  0
  7  9  1  0
  7  8  1  1
  9 11  1  0
  9 10  1  6
 10  3  1  0
 11 13  1  0
 12 11  2  0
 13 17  1  0
 14 13  1  0
 14 15  1  0
 15 16  1  0
 17 18  1  1
 17 16  1  0
 18 19  1  0
 20 18  2  0
M  END
$$$$
