GIP.pdb
     RDKit          3D

 20 20  0  0  1  0  0  0  0  0999 V2000
   23.8494  -12.5522  -21.1160 N   0  0  0  0  0  0  0  0  0  0  0  0
   24.2560  -11.3076  -20.5409 C   0  0  0  0  0  0  0  0  0  0  0  0
   23.7251  -11.1410  -19.1535 C   0  0  0  0  0  0  0  0  0  0  0  0
   22.7261  -11.8326  -18.8389 O   0  0  0  0  0  0  0  0  0  0  0  0
   27.0573  -11.3962  -15.5977 C   0  0  0  0  0  0  0  0  0  0  0  0
   25.6961  -11.3215  -16.2076 C   0  0  0  0  0  0  0  0  0  0  0  0
   25.0878   -9.9252  -16.0595 C   0  0  2  0  0  0  0  0  0  0  0  0
   24.8041   -9.6179  -14.6280 C   0  0  0  0  0  0  0  0  0  0  0  0
   23.8694   -9.9082  -16.9605 C   0  0  2  0  0  0  0  0  0  0  0  0
   24.3828  -10.2278  -18.3146 N   0  0  0  0  0  0  0  0  0  0  0  0
   23.1156   -8.6527  -16.9923 C   0  0  0  0  0  0  0  0  0  0  0  0
   23.8365   -7.5638  -17.0858 O   0  0  0  0  0  0  0  0  0  0  0  0
   21.7363   -8.4374  -16.9443 N   0  0  0  0  0  0  0  0  0  0  0  0
   20.8032   -9.5992  -16.9284 C   0  0  0  0  0  0  0  0  0  0  0  0
   19.7187   -9.0546  -16.0243 C   0  0  0  0  0  0  0  0  0  0  0  0
   19.4823   -7.7171  -16.7367 C   0  0  0  0  0  0  0  0  0  0  0  0
   20.9433   -7.2592  -16.9131 C   0  0  1  0  0  0  0  0  0  0  0  0
   21.1975   -6.4104  -15.7223 C   0  0  0  0  0  0  0  0  0  0  0  0
   20.6988   -5.1392  -15.6667 O   0  0  0  0  0  0  0  0  0  0  0  0
   21.8682   -6.8701  -14.7842 O   0  0  0  0  0  0  0  0  0  0  0  0
  2  1  1  0
  3  2  1  0
  4  3  2  0
  5  6  1  0
  6  7  1  0
  7  9  1  0
  7  8  1  1
  9 11  1  0
  9 10  1  6
 10  3  1  0
 11 13  1  0
 12 11  2  0
 13 17  1  0
 14 13  1  0
 14 15  1  0
 15 16  1  0
 17 18  1  1
 17 16  1  0
 18 19  1  0
 20 18  2  0
M  END
$$$$
