TFV.pdb
     RDKit          3D

 26 26  0  0  1  0  0  0  0  0999 V2000
   27.6586  -23.2070  -18.8699 C   0  0  0  0  0  0  0  0  0  0  0  0
   28.6648  -22.0899  -18.5797 C   0  0  1  0  0  0  0  0  0  0  0  0
   29.3226  -21.6946  -19.7148 O   0  0  0  0  0  0  0  0  0  0  0  0
   27.8805  -20.9370  -18.0146 C   0  0  2  0  0  0  0  0  0  0  0  0
   28.7772  -19.7967  -17.9522 N   0  0  0  0  0  0  0  0  0  0  0  0
   27.2706  -21.2258  -16.7005 C   0  0  0  0  0  0  0  0  0  0  0  0
   26.3597  -22.1203  -16.6199 O   0  0  0  0  0  0  0  0  0  0  0  0
   27.6184  -20.5794  -15.4900 N   0  0  0  0  0  0  0  0  0  0  0  0
   26.8540  -20.7879  -14.2468 C   0  0  1  0  0  0  0  0  0  0  0  0
   27.6578  -20.2938  -13.0650 C   0  0  0  0  0  0  0  0  0  0  0  0
   26.9169  -20.3698  -11.7972 C   0  0  0  0  0  0  0  0  0  0  0  0
   26.7652  -21.5761  -11.1336 C   0  0  0  0  0  0  0  0  0  0  0  0
   26.0981  -21.6938   -9.9460 C   0  0  0  0  0  0  0  0  0  0  0  0
   25.5494  -20.5700   -9.3765 C   0  0  0  0  0  0  0  0  0  0  0  0
   25.6730  -19.3548   -9.9945 C   0  0  0  0  0  0  0  0  0  0  0  0
   26.3612  -19.2638  -11.2095 C   0  0  0  0  0  0  0  0  0  0  0  0
   25.5441  -20.1477  -14.3100 C   0  0  0  0  0  0  0  0  0  0  0  0
   25.3938  -18.9328  -14.5885 O   0  0  0  0  0  0  0  0  0  0  0  0
   21.9602  -21.9463  -15.4556 C   0  0  0  0  0  0  0  0  0  0  0  0
   22.1846  -20.4894  -15.2423 C   0  0  2  0  0  0  0  0  0  0  0  0
   22.7760  -19.8480  -16.5037 C   0  0  0  0  0  0  0  0  0  0  0  0
   23.0257  -20.1797  -14.0326 C   0  0  2  0  0  0  0  0  0  0  0  0
   24.3065  -20.8515  -14.0588 N   0  0  0  0  0  0  0  0  0  0  0  0
   22.2860  -20.6469  -12.8443 C   0  0  0  0  0  0  0  0  0  0  0  0
   22.5937  -21.8191  -12.1697 O   0  0  0  0  0  0  0  0  0  0  0  0
   21.3329  -19.9608  -12.4147 O   0  0  0  0  0  0  0  0  0  0  0  0
  2  1  1  6
  3  2  1  0
  4  2  1  0
  4  5  1  1
  6  4  1  0
  6  7  2  0
  8  6  1  0
  9  8  1  0
  9 10  1  1
 11 10  1  0
 11 16  2  0
 12 11  1  0
 13 12  2  0
 13 14  1  0
 14 15  2  0
 15 16  1  0
 17  9  1  0
 17 23  1  0
 18 17  2  0
 20 21  1  6
 20 19  1  0
 20 22  1  0
 22 23  1  6
 22 24  1  0
 24 26  2  0
 24 25  1  0
M  END
$$$$
