TFV.pdb
     RDKit          3D

 26 26  0  0  1  0  0  0  0  0999 V2000
   28.1732  -19.3362  -14.9616 C   0  0  0  0  0  0  0  0  0  0  0  0
   27.6019  -19.6043  -13.5665 C   0  0  1  0  0  0  0  0  0  0  0  0
   26.2482  -19.8125  -13.6060 O   0  0  0  0  0  0  0  0  0  0  0  0
   28.2941  -20.8338  -13.0443 C   0  0  2  0  0  0  0  0  0  0  0  0
   27.9123  -21.9398  -13.9040 N   0  0  0  0  0  0  0  0  0  0  0  0
   28.0009  -21.1182  -11.6246 C   0  0  0  0  0  0  0  0  0  0  0  0
   27.1759  -22.0515  -11.3341 O   0  0  0  0  0  0  0  0  0  0  0  0
   28.5712  -20.4269  -10.5287 N   0  0  0  0  0  0  0  0  0  0  0  0
   28.0682  -20.5953   -9.1532 C   0  0  1  0  0  0  0  0  0  0  0  0
   29.0214  -19.9414   -8.1781 C   0  0  0  0  0  0  0  0  0  0  0  0
   28.5008  -19.9093   -6.8034 C   0  0  0  0  0  0  0  0  0  0  0  0
   28.6384  -21.0035   -5.9654 C   0  0  0  0  0  0  0  0  0  0  0  0
   28.1842  -21.0155   -4.6759 C   0  0  0  0  0  0  0  0  0  0  0  0
   27.5613  -19.8959   -4.1790 C   0  0  0  0  0  0  0  0  0  0  0  0
   27.4017  -18.7894   -4.9690 C   0  0  0  0  0  0  0  0  0  0  0  0
   27.8765  -18.8052   -6.2852 C   0  0  0  0  0  0  0  0  0  0  0  0
   26.7132  -20.0727   -9.0110 C   0  0  0  0  0  0  0  0  0  0  0  0
   26.3819  -18.9264   -9.4012 O   0  0  0  0  0  0  0  0  0  0  0  0
   24.3608  -20.3356  -11.0508 C   0  0  0  0  0  0  0  0  0  0  0  0
   23.6506  -20.8763   -9.8584 C   0  0  2  0  0  0  0  0  0  0  0  0
   22.1565  -20.5367   -9.9251 C   0  0  0  0  0  0  0  0  0  0  0  0
   24.2481  -20.4344   -8.5491 C   0  0  2  0  0  0  0  0  0  0  0  0
   25.6342  -20.8245   -8.4104 N   0  0  0  0  0  0  0  0  0  0  0  0
   23.4787  -21.0799   -7.4680 C   0  0  0  0  0  0  0  0  0  0  0  0
   22.2096  -20.6690   -7.0883 O   0  0  0  0  0  0  0  0  0  0  0  0
   23.9853  -22.0460   -6.8565 O   0  0  0  0  0  0  0  0  0  0  0  0
  2  1  1  6
  3  2  1  0
  4  2  1  0
  4  5  1  6
  6  4  1  0
  6  7  2  0
  8  6  1  0
  9  8  1  0
  9 10  1  1
 11 10  1  0
 11 16  2  0
 12 11  1  0
 13 12  2  0
 13 14  1  0
 14 15  2  0
 15 16  1  0
 17  9  1  0
 17 23  1  0
 18 17  2  0
 20 21  1  1
 20 19  1  0
 20 22  1  0
 22 23  1  6
 22 24  1  0
 24 26  2  0
 24 25  1  0
M  END
$$$$
