TFV.pdb
     RDKit          3D

 26 26  0  0  1  0  0  0  0  0999 V2000
   27.5831  -18.8203  -14.0864 C   0  0  0  0  0  0  0  0  0  0  0  0
   27.8234  -20.0843  -14.9165 C   0  0  1  0  0  0  0  0  0  0  0  0
   28.3549  -19.7893  -16.1444 O   0  0  0  0  0  0  0  0  0  0  0  0
   28.7834  -20.9393  -14.1348 C   0  0  2  0  0  0  0  0  0  0  0  0
   28.9709  -22.1693  -14.8833 N   0  0  0  0  0  0  0  0  0  0  0  0
   28.3447  -21.2038  -12.7492 C   0  0  0  0  0  0  0  0  0  0  0  0
   27.4026  -22.0445  -12.5442 O   0  0  0  0  0  0  0  0  0  0  0  0
   28.8935  -20.5895  -11.5979 N   0  0  0  0  0  0  0  0  0  0  0  0
   28.2627  -20.7147  -10.2714 C   0  0  1  0  0  0  0  0  0  0  0  0
   29.1584  -20.0978   -9.2206 C   0  0  0  0  0  0  0  0  0  0  0  0
   28.5210  -20.0232   -7.8977 C   0  0  0  0  0  0  0  0  0  0  0  0
   28.7169  -21.0207   -6.9568 C   0  0  0  0  0  0  0  0  0  0  0  0
   28.1579  -20.9880   -5.7096 C   0  0  0  0  0  0  0  0  0  0  0  0
   27.3637  -19.9212   -5.3638 C   0  0  0  0  0  0  0  0  0  0  0  0
   27.1404  -18.9105   -6.2597 C   0  0  0  0  0  0  0  0  0  0  0  0
   27.7255  -18.9702   -7.5294 C   0  0  0  0  0  0  0  0  0  0  0  0
   26.9292  -20.1222  -10.2546 C   0  0  0  0  0  0  0  0  0  0  0  0
   26.7215  -18.9080  -10.4969 O   0  0  0  0  0  0  0  0  0  0  0  0
   23.5665  -21.8873  -11.7167 C   0  0  0  0  0  0  0  0  0  0  0  0
   23.7284  -20.4613  -11.3182 C   0  0  2  0  0  0  0  0  0  0  0  0
   24.4474  -19.6750  -12.4214 C   0  0  0  0  0  0  0  0  0  0  0  0
   24.4141  -20.2805   -9.9902 C   0  0  2  0  0  0  0  0  0  0  0  0
   25.7319  -20.8765   -9.9589 N   0  0  0  0  0  0  0  0  0  0  0  0
   23.5848  -20.9450   -8.9665 C   0  0  0  0  0  0  0  0  0  0  0  0
   22.3107  -20.5165   -8.6248 O   0  0  0  0  0  0  0  0  0  0  0  0
   24.0423  -21.9448   -8.3707 O   0  0  0  0  0  0  0  0  0  0  0  0
  2  1  1  1
  3  2  1  0
  4  2  1  0
  4  5  1  6
  6  4  1  0
  6  7  2  0
  8  6  1  0
  9  8  1  0
  9 10  1  1
 11 10  1  0
 11 16  2  0
 12 11  1  0
 13 12  2  0
 13 14  1  0
 14 15  2  0
 15 16  1  0
 17  9  1  0
 17 23  1  0
 18 17  2  0
 20 21  1  6
 20 19  1  0
 20 22  1  0
 22 23  1  6
 22 24  1  0
 24 26  2  0
 24 25  1  0
M  END
$$$$
