TFV.pdb
     RDKit          3D

 26 26  0  0  1  0  0  0  0  0999 V2000
   27.9802  -17.9709  -19.5843 C   0  0  0  0  0  0  0  0  0  0  0  0
   27.1284  -18.5703  -18.4619 C   0  0  1  0  0  0  0  0  0  0  0  0
   25.9198  -19.0168  -18.9279 O   0  0  0  0  0  0  0  0  0  0  0  0
   27.9130  -19.7197  -17.8899 C   0  0  2  0  0  0  0  0  0  0  0  0
   28.0459  -20.7139  -18.9397 N   0  0  0  0  0  0  0  0  0  0  0  0
   27.3143  -20.2924  -16.6669 C   0  0  0  0  0  0  0  0  0  0  0  0
   26.5656  -21.3249  -16.7649 O   0  0  0  0  0  0  0  0  0  0  0  0
   27.5042  -19.7819  -15.3602 N   0  0  0  0  0  0  0  0  0  0  0  0
   26.7418  -20.2908  -14.2056 C   0  0  1  0  0  0  0  0  0  0  0  0
   27.4316  -19.8878  -12.9215 C   0  0  0  0  0  0  0  0  0  0  0  0
   26.7039  -20.3229  -11.7203 C   0  0  0  0  0  0  0  0  0  0  0  0
   25.8293  -19.4678  -11.0702 C   0  0  0  0  0  0  0  0  0  0  0  0
   25.1198  -19.8317   -9.9596 C   0  0  0  0  0  0  0  0  0  0  0  0
   25.2742  -21.1015   -9.4576 C   0  0  0  0  0  0  0  0  0  0  0  0
   26.1272  -21.9830  -10.0654 C   0  0  0  0  0  0  0  0  0  0  0  0
   26.8407  -21.5833  -11.2009 C   0  0  0  0  0  0  0  0  0  0  0  0
   25.3560  -19.8346  -14.2361 C   0  0  0  0  0  0  0  0  0  0  0  0
   25.0383  -18.6383  -14.4457 O   0  0  0  0  0  0  0  0  0  0  0  0
   22.7957  -20.2382  -16.6026 C   0  0  0  0  0  0  0  0  0  0  0  0
   22.1541  -20.7112  -15.3444 C   0  0  2  0  0  0  0  0  0  0  0  0
   20.6725  -20.3157  -15.3170 C   0  0  0  0  0  0  0  0  0  0  0  0
   22.8603  -20.2503  -14.0972 C   0  0  2  0  0  0  0  0  0  0  0  0
   24.2284  -20.7153  -14.0286 N   0  0  0  0  0  0  0  0  0  0  0  0
   22.1287  -20.8028  -12.9410 C   0  0  0  0  0  0  0  0  0  0  0  0
   21.2332  -20.0624  -12.1836 O   0  0  0  0  0  0  0  0  0  0  0  0
   22.3169  -21.9962  -12.6182 O   0  0  0  0  0  0  0  0  0  0  0  0
  2  1  1  6
  3  2  1  0
  4  2  1  0
  4  5  1  6
  6  4  1  0
  6  7  2  0
  8  6  1  0
  9  8  1  0
  9 10  1  1
 11 10  1  0
 11 16  2  0
 12 11  1  0
 13 12  2  0
 13 14  1  0
 14 15  2  0
 15 16  1  0
 17  9  1  0
 17 23  1  0
 18 17  2  0
 20 21  1  1
 20 19  1  0
 20 22  1  0
 22 23  1  6
 22 24  1  0
 24 26  2  0
 24 25  1  0
M  END
$$$$
