TFV.pdb
     RDKit          3D

 26 26  0  0  1  0  0  0  0  0999 V2000
   28.8678  -20.8153  -18.4409 C   0  0  0  0  0  0  0  0  0  0  0  0
   27.6913  -20.9448  -17.4694 C   0  0  1  0  0  0  0  0  0  0  0  0
   26.6636  -21.6693  -18.0136 O   0  0  0  0  0  0  0  0  0  0  0  0
   28.2167  -21.6421  -16.2440 C   0  0  2  0  0  0  0  0  0  0  0  0
   28.5724  -22.9936  -16.6380 N   0  0  0  0  0  0  0  0  0  0  0  0
   27.2708  -21.6342  -15.1093 C   0  0  0  0  0  0  0  0  0  0  0  0
   26.6805  -22.7212  -14.7833 O   0  0  0  0  0  0  0  0  0  0  0  0
   26.9540  -20.4951  -14.3308 N   0  0  0  0  0  0  0  0  0  0  0  0
   26.0048  -20.5595  -13.2046 C   0  0  1  0  0  0  0  0  0  0  0  0
   26.4904  -19.6759  -12.0774 C   0  0  0  0  0  0  0  0  0  0  0  0
   27.4908  -20.3345  -11.2246 C   0  0  0  0  0  0  0  0  0  0  0  0
   28.7786  -20.5589  -11.6827 C   0  0  0  0  0  0  0  0  0  0  0  0
   29.7465  -21.1536  -10.9220 C   0  0  0  0  0  0  0  0  0  0  0  0
   29.4378  -21.5505   -9.6431 C   0  0  0  0  0  0  0  0  0  0  0  0
   28.1784  -21.3501   -9.1454 C   0  0  0  0  0  0  0  0  0  0  0  0
   27.2075  -20.7389   -9.9465 C   0  0  0  0  0  0  0  0  0  0  0  0
   24.6532  -20.2018  -13.6224 C   0  0  0  0  0  0  0  0  0  0  0  0
   24.4036  -19.1919  -14.3253 O   0  0  0  0  0  0  0  0  0  0  0  0
   21.4045  -22.9230  -14.1204 C   0  0  0  0  0  0  0  0  0  0  0  0
   21.5183  -21.5284  -14.6309 C   0  0  2  0  0  0  0  0  0  0  0  0
   22.2619  -21.5078  -15.9721 C   0  0  0  0  0  0  0  0  0  0  0  0
   22.1473  -20.5763  -13.6488 C   0  0  2  0  0  0  0  0  0  0  0  0
   23.4844  -20.9745  -13.2664 N   0  0  0  0  0  0  0  0  0  0  0  0
   21.3062  -20.5668  -12.4364 C   0  0  0  0  0  0  0  0  0  0  0  0
   20.0739  -19.9337  -12.3710 O   0  0  0  0  0  0  0  0  0  0  0  0
   21.7138  -21.1552  -11.4109 O   0  0  0  0  0  0  0  0  0  0  0  0
  2  1  1  6
  3  2  1  0
  4  2  1  0
  4  5  1  6
  6  4  1  0
  6  7  2  0
  8  6  1  0
  9  8  1  0
  9 10  1  1
 11 10  1  0
 11 16  2  0
 12 11  1  0
 13 12  2  0
 13 14  1  0
 14 15  2  0
 15 16  1  0
 17  9  1  0
 17 23  1  0
 18 17  2  0
 20 21  1  6
 20 19  1  0
 20 22  1  0
 22 23  1  1
 22 24  1  0
 24 26  2  0
 24 25  1  0
M  END
$$$$
