TFV.pdb
     RDKit          3D

 26 26  0  0  1  0  0  0  0  0999 V2000
   19.6397   -6.5106  -19.7446 C   0  0  0  0  0  0  0  0  0  0  0  0
   20.0466   -7.9768  -19.5738 C   0  0  1  0  0  0  0  0  0  0  0  0
   20.3251   -8.5678  -20.7781 O   0  0  0  0  0  0  0  0  0  0  0  0
   21.2733   -7.9867  -18.7027 C   0  0  2  0  0  0  0  0  0  0  0  0
   21.7202   -9.3648  -18.6054 N   0  0  0  0  0  0  0  0  0  0  0  0
   21.0560   -7.3869  -17.3703 C   0  0  0  0  0  0  0  0  0  0  0  0
   20.1364   -7.8597  -16.6172 O   0  0  0  0  0  0  0  0  0  0  0  0
   21.7993   -6.3042  -16.8418 N   0  0  0  0  0  0  0  0  0  0  0  0
   21.5345   -5.7585  -15.4981 C   0  0  1  0  0  0  0  0  0  0  0  0
   22.7942   -5.8243  -14.6638 C   0  0  0  0  0  0  0  0  0  0  0  0
   23.3143   -7.1920  -14.5199 C   0  0  0  0  0  0  0  0  0  0  0  0
   24.3973   -7.6231  -15.2683 C   0  0  0  0  0  0  0  0  0  0  0  0
   24.9251   -8.8795  -15.1587 C   0  0  0  0  0  0  0  0  0  0  0  0
   24.3629   -9.7625  -14.2684 C   0  0  0  0  0  0  0  0  0  0  0  0
   23.2909   -9.3827  -13.5064 C   0  0  0  0  0  0  0  0  0  0  0  0
   22.7713   -8.0903  -13.6393 C   0  0  0  0  0  0  0  0  0  0  0  0
   21.0068   -4.3997  -15.5665 C   0  0  0  0  0  0  0  0  0  0  0  0
   21.7057   -3.4153  -15.9108 O   0  0  0  0  0  0  0  0  0  0  0  0
   18.3037   -1.3041  -17.4707 C   0  0  0  0  0  0  0  0  0  0  0  0
   18.8978   -2.6140  -17.0838 C   0  0  2  0  0  0  0  0  0  0  0  0
   18.0966   -3.7682  -17.6985 C   0  0  0  0  0  0  0  0  0  0  0  0
   19.0487   -2.7918  -15.5965 C   0  0  2  0  0  0  0  0  0  0  0  0
   19.6373   -4.0657  -15.2454 N   0  0  0  0  0  0  0  0  0  0  0  0
   17.6998   -2.7293  -15.0013 C   0  0  0  0  0  0  0  0  0  0  0  0
   17.0882   -1.5420  -14.6275 O   0  0  0  0  0  0  0  0  0  0  0  0
   17.0671   -3.7926  -14.8201 O   0  0  0  0  0  0  0  0  0  0  0  0
  2  1  1  6
  3  2  1  0
  4  2  1  0
  4  5  1  1
  6  4  1  0
  6  7  2  0
  8  6  1  0
  9  8  1  0
  9 10  1  1
 11 10  1  0
 11 16  2  0
 12 11  1  0
 13 12  2  0
 13 14  1  0
 14 15  2  0
 15 16  1  0
 17  9  1  0
 17 23  1  0
 18 17  2  0
 20 21  1  1
 20 19  1  0
 20 22  1  0
 22 23  1  6
 22 24  1  0
 24 26  2  0
 24 25  1  0
M  END
$$$$
