TFV.pdb
     RDKit          3D

 26 26  0  0  1  0  0  0  0  0999 V2000
   28.4484  -20.4566  -18.7137 C   0  0  0  0  0  0  0  0  0  0  0  0
   27.5170  -20.5844  -17.5050 C   0  0  1  0  0  0  0  0  0  0  0  0
   26.2757  -21.0362  -17.8688 O   0  0  0  0  0  0  0  0  0  0  0  0
   28.1626  -21.5639  -16.5629 C   0  0  2  0  0  0  0  0  0  0  0  0
   28.2415  -22.8378  -17.2550 N   0  0  0  0  0  0  0  0  0  0  0  0
   27.4618  -21.6873  -15.2683 C   0  0  0  0  0  0  0  0  0  0  0  0
   26.5864  -22.6081  -15.1195 O   0  0  0  0  0  0  0  0  0  0  0  0
   27.6830  -20.8505  -14.1480 N   0  0  0  0  0  0  0  0  0  0  0  0
   26.8565  -20.9423  -12.9307 C   0  0  1  0  0  0  0  0  0  0  0  0
   27.5722  -20.2758  -11.7772 C   0  0  0  0  0  0  0  0  0  0  0  0
   26.7930  -20.2988  -10.5305 C   0  0  0  0  0  0  0  0  0  0  0  0
   26.7753  -21.4247   -9.7238 C   0  0  0  0  0  0  0  0  0  0  0  0
   26.0783  -21.4883   -8.5494 C   0  0  0  0  0  0  0  0  0  0  0  0
   25.3593  -20.3904   -8.1417 C   0  0  0  0  0  0  0  0  0  0  0  0
   25.3460  -19.2542   -8.9051 C   0  0  0  0  0  0  0  0  0  0  0  0
   26.0686  -19.2173  -10.1027 C   0  0  0  0  0  0  0  0  0  0  0  0
   25.5297  -20.3722  -13.1402 C   0  0  0  0  0  0  0  0  0  0  0  0
   25.3489  -19.2415  -13.6550 O   0  0  0  0  0  0  0  0  0  0  0  0
   22.1026  -22.5583  -14.1089 C   0  0  0  0  0  0  0  0  0  0  0  0
   22.3246  -21.0899  -14.2235 C   0  0  2  0  0  0  0  0  0  0  0  0
   23.0926  -20.7631  -15.5102 C   0  0  0  0  0  0  0  0  0  0  0  0
   23.0012  -20.4867  -13.0214 C   0  0  2  0  0  0  0  0  0  0  0  0
   24.3086  -21.0549  -12.7756 N   0  0  0  0  0  0  0  0  0  0  0  0
   22.1518  -20.7631  -11.8468 C   0  0  0  0  0  0  0  0  0  0  0  0
   20.9435  -20.1228  -11.6150 O   0  0  0  0  0  0  0  0  0  0  0  0
   22.5293  -21.6143  -11.0122 O   0  0  0  0  0  0  0  0  0  0  0  0
  2  1  1  6
  3  2  1  0
  4  2  1  0
  4  5  1  6
  6  4  1  0
  6  7  2  0
  8  6  1  0
  9  8  1  0
  9 10  1  1
 11 10  1  0
 11 16  2  0
 12 11  1  0
 13 12  2  0
 13 14  1  0
 14 15  2  0
 15 16  1  0
 17  9  1  0
 17 23  1  0
 18 17  2  0
 20 21  1  6
 20 19  1  0
 20 22  1  0
 22 23  1  1
 22 24  1  0
 24 26  2  0
 24 25  1  0
M  END
$$$$
