TFV.pdb
     RDKit          3D

 26 26  0  0  1  0  0  0  0  0999 V2000
   18.4022   -6.2775  -18.9189 C   0  0  0  0  0  0  0  0  0  0  0  0
   18.5924   -7.7526  -18.5551 C   0  0  1  0  0  0  0  0  0  0  0  0
   18.6089   -8.5500  -19.6692 O   0  0  0  0  0  0  0  0  0  0  0  0
   19.9086   -7.8541  -17.8333 C   0  0  2  0  0  0  0  0  0  0  0  0
   20.1400   -9.2607  -17.5571 N   0  0  0  0  0  0  0  0  0  0  0  0
   19.9718   -7.0378  -16.6036 C   0  0  0  0  0  0  0  0  0  0  0  0
   19.2703   -7.3821  -15.5910 O   0  0  0  0  0  0  0  0  0  0  0  0
   20.7647   -5.8755  -16.4466 N   0  0  0  0  0  0  0  0  0  0  0  0
   20.7099   -5.0533  -15.2242 C   0  0  1  0  0  0  0  0  0  0  0  0
   22.0173   -5.1690  -14.4729 C   0  0  0  0  0  0  0  0  0  0  0  0
   22.3043   -6.5420  -14.0322 C   0  0  0  0  0  0  0  0  0  0  0  0
   23.2233   -7.3280  -14.7077 C   0  0  0  0  0  0  0  0  0  0  0  0
   23.5340   -8.6039  -14.3272 C   0  0  0  0  0  0  0  0  0  0  0  0
   22.9117   -9.1402  -13.2256 C   0  0  0  0  0  0  0  0  0  0  0  0
   21.9959   -8.4023  -12.5251 C   0  0  0  0  0  0  0  0  0  0  0  0
   21.6973   -7.0988  -12.9373 C   0  0  0  0  0  0  0  0  0  0  0  0
   20.3871   -3.6630  -15.5282 C   0  0  0  0  0  0  0  0  0  0  0  0
   21.0876   -2.9533  -16.2908 O   0  0  0  0  0  0  0  0  0  0  0  0
   16.5933   -1.8596  -14.3304 C   0  0  0  0  0  0  0  0  0  0  0  0
   17.3539   -1.5133  -15.5632 C   0  0  2  0  0  0  0  0  0  0  0  0
   16.8407   -2.3289  -16.7564 C   0  0  0  0  0  0  0  0  0  0  0  0
   18.8450   -1.6557  -15.4117 C   0  0  2  0  0  0  0  0  0  0  0  0
   19.2363   -2.9801  -14.9809 N   0  0  0  0  0  0  0  0  0  0  0  0
   19.2827   -0.6905  -14.3849 C   0  0  0  0  0  0  0  0  0  0  0  0
   19.3628    0.6756  -14.6108 O   0  0  0  0  0  0  0  0  0  0  0  0
   19.5995   -1.1129  -13.2513 O   0  0  0  0  0  0  0  0  0  0  0  0
  2  1  1  6
  3  2  1  0
  4  2  1  0
  4  5  1  1
  6  4  1  0
  6  7  2  0
  8  6  1  0
  9  8  1  0
  9 10  1  6
 11 10  1  0
 11 16  2  0
 12 11  1  0
 13 12  2  0
 13 14  1  0
 14 15  2  0
 15 16  1  0
 17  9  1  0
 17 23  1  0
 18 17  2  0
 20 21  1  6
 20 19  1  0
 20 22  1  0
 22 23  1  1
 22 24  1  0
 24 26  2  0
 24 25  1  0
M  END
$$$$
