TFV.pdb
     RDKit          3D

 26 26  0  0  1  0  0  0  0  0999 V2000
   23.8976  -19.6746  -11.9258 C   0  0  0  0  0  0  0  0  0  0  0  0
   24.3025  -20.9830  -12.6104 C   0  0  1  0  0  0  0  0  0  0  0  0
   24.0870  -20.9338  -13.9626 O   0  0  0  0  0  0  0  0  0  0  0  0
   25.7677  -21.1816  -12.3323 C   0  0  2  0  0  0  0  0  0  0  0  0
   26.1871  -22.3651  -13.0615 N   0  0  0  0  0  0  0  0  0  0  0  0
   26.0867  -21.2841  -10.8935 C   0  0  0  0  0  0  0  0  0  0  0  0
   25.7990  -22.3617  -10.2672 O   0  0  0  0  0  0  0  0  0  0  0  0
   26.7008  -20.2634  -10.1284 N   0  0  0  0  0  0  0  0  0  0  0  0
   26.9306  -20.4061   -8.6793 C   0  0  1  0  0  0  0  0  0  0  0  0
   28.0449  -19.4800   -8.2461 C   0  0  0  0  0  0  0  0  0  0  0  0
   28.2987  -19.5283   -6.7986 C   0  0  0  0  0  0  0  0  0  0  0  0
   27.9357  -18.4734   -5.9777 C   0  0  0  0  0  0  0  0  0  0  0  0
   28.1376  -18.4786   -4.6254 C   0  0  0  0  0  0  0  0  0  0  0  0
   28.7268  -19.5758   -4.0446 C   0  0  0  0  0  0  0  0  0  0  0  0
   29.1032  -20.6433   -4.8145 C   0  0  0  0  0  0  0  0  0  0  0  0
   28.8843  -20.6106   -6.1962 C   0  0  0  0  0  0  0  0  0  0  0  0
   25.7088  -20.1683   -7.9175 C   0  0  0  0  0  0  0  0  0  0  0  0
   24.9528  -19.1895   -8.1330 O   0  0  0  0  0  0  0  0  0  0  0  0
   23.3348  -23.1751   -6.0930 C   0  0  0  0  0  0  0  0  0  0  0  0
   22.9600  -21.7656   -6.3950 C   0  0  2  0  0  0  0  0  0  0  0  0
   22.4799  -21.6380   -7.8460 C   0  0  0  0  0  0  0  0  0  0  0  0
   24.0531  -20.7740   -6.0975 C   0  0  2  0  0  0  0  0  0  0  0  0
   25.2605  -21.0346   -6.8504 N   0  0  0  0  0  0  0  0  0  0  0  0
   24.3746  -20.8828   -4.6615 C   0  0  0  0  0  0  0  0  0  0  0  0
   25.5817  -21.3750   -4.1879 O   0  0  0  0  0  0  0  0  0  0  0  0
   23.5249  -20.5165   -3.8203 O   0  0  0  0  0  0  0  0  0  0  0  0
  2  1  1  1
  3  2  1  0
  4  2  1  0
  4  5  1  6
  6  4  1  0
  6  7  2  0
  8  6  1  0
  9  8  1  0
  9 10  1  1
 11 10  1  0
 11 16  2  0
 12 11  1  0
 13 12  2  0
 13 14  1  0
 14 15  2  0
 15 16  1  0
 17  9  1  0
 17 23  1  0
 18 17  2  0
 20 21  1  6
 20 19  1  0
 20 22  1  0
 22 23  1  6
 22 24  1  0
 24 26  2  0
 24 25  1  0
M  END
$$$$
