TFV.pdb
     RDKit          3D

 26 26  0  0  1  0  0  0  0  0999 V2000
   25.7974  -25.3349  -18.5427 C   0  0  0  0  0  0  0  0  0  0  0  0
   26.6882  -26.3810  -17.8670 C   0  0  1  0  0  0  0  0  0  0  0  0
   27.0851  -27.3522  -18.7482 O   0  0  0  0  0  0  0  0  0  0  0  0
   27.8906  -25.6481  -17.3371 C   0  0  2  0  0  0  0  0  0  0  0  0
   28.6743  -26.6032  -16.5741 N   0  0  0  0  0  0  0  0  0  0  0  0
   27.5488  -24.4560  -16.5343 C   0  0  0  0  0  0  0  0  0  0  0  0
   27.2665  -24.5999  -15.2951 O   0  0  0  0  0  0  0  0  0  0  0  0
   27.5063  -23.1320  -17.0337 N   0  0  0  0  0  0  0  0  0  0  0  0
   27.2425  -21.9761  -16.1576 C   0  0  1  0  0  0  0  0  0  0  0  0
   27.8005  -20.7202  -16.7888 C   0  0  0  0  0  0  0  0  0  0  0  0
   27.5299  -19.5123  -15.9953 C   0  0  0  0  0  0  0  0  0  0  0  0
   28.2088  -19.2719  -14.8122 C   0  0  0  0  0  0  0  0  0  0  0  0
   28.0022  -18.1569  -14.0485 C   0  0  0  0  0  0  0  0  0  0  0  0
   27.0811  -17.2261  -14.4650 C   0  0  0  0  0  0  0  0  0  0  0  0
   26.3850  -17.4191  -15.6277 C   0  0  0  0  0  0  0  0  0  0  0  0
   26.6169  -18.5697  -16.3895 C   0  0  0  0  0  0  0  0  0  0  0  0
   25.8198  -21.8416  -15.8626 C   0  0  0  0  0  0  0  0  0  0  0  0
   24.9277  -21.9888  -16.7336 O   0  0  0  0  0  0  0  0  0  0  0  0
   24.1727  -21.2038  -11.7911 C   0  0  0  0  0  0  0  0  0  0  0  0
   23.5151  -21.9232  -12.9174 C   0  0  2  0  0  0  0  0  0  0  0  0
   23.7805  -23.4305  -12.8180 C   0  0  0  0  0  0  0  0  0  0  0  0
   23.8963  -21.3950  -14.2747 C   0  0  2  0  0  0  0  0  0  0  0  0
   25.3109  -21.5280  -14.5462 N   0  0  0  0  0  0  0  0  0  0  0  0
   23.5554  -19.9596  -14.3059 C   0  0  0  0  0  0  0  0  0  0  0  0
   22.2570  -19.4893  -14.4355 O   0  0  0  0  0  0  0  0  0  0  0  0
   24.4736  -19.1160  -14.2117 O   0  0  0  0  0  0  0  0  0  0  0  0
  2  1  1  6
  3  2  1  0
  4  2  1  0
  4  5  1  1
  6  4  1  0
  6  7  2  0
  8  6  1  0
  9  8  1  0
  9 10  1  6
 11 10  1  0
 11 16  2  0
 12 11  1  0
 13 12  2  0
 13 14  1  0
 14 15  2  0
 15 16  1  0
 17  9  1  0
 17 23  1  0
 18 17  2  0
 20 21  1  6
 20 19  1  0
 20 22  1  0
 22 23  1  1
 22 24  1  0
 24 26  2  0
 24 25  1  0
M  END
$$$$
