TFV.pdb
     RDKit          3D

 26 26  0  0  1  0  0  0  0  0999 V2000
   24.6340  -19.0387  -18.7934 C   0  0  0  0  0  0  0  0  0  0  0  0
   25.0234  -19.5022  -17.3869 C   0  0  1  0  0  0  0  0  0  0  0  0
   23.9337  -19.9330  -16.6768 O   0  0  0  0  0  0  0  0  0  0  0  0
   26.0017  -20.6322  -17.5591 C   0  0  2  0  0  0  0  0  0  0  0  0
   25.3077  -21.6988  -18.2585 N   0  0  0  0  0  0  0  0  0  0  0  0
   26.5890  -21.1034  -16.2881 C   0  0  0  0  0  0  0  0  0  0  0  0
   26.0520  -22.0948  -15.6839 O   0  0  0  0  0  0  0  0  0  0  0  0
   27.7266  -20.5357  -15.6654 N   0  0  0  0  0  0  0  0  0  0  0  0
   28.1257  -20.8962  -14.2928 C   0  0  1  0  0  0  0  0  0  0  0  0
   29.5477  -20.4473  -14.0408 C   0  0  0  0  0  0  0  0  0  0  0  0
   30.0370  -20.8199  -12.7053 C   0  0  0  0  0  0  0  0  0  0  0  0
   30.3132  -22.1407  -12.3923 C   0  0  0  0  0  0  0  0  0  0  0  0
   30.7836  -22.5336  -11.1702 C   0  0  0  0  0  0  0  0  0  0  0  0
   30.9954  -21.5824  -10.2012 C   0  0  0  0  0  0  0  0  0  0  0  0
   30.7372  -20.2638  -10.4630 C   0  0  0  0  0  0  0  0  0  0  0  0
   30.2563  -19.8903  -11.7229 C   0  0  0  0  0  0  0  0  0  0  0  0
   27.2053  -20.3425  -13.3048 C   0  0  0  0  0  0  0  0  0  0  0  0
   26.8741  -19.1317  -13.2874 O   0  0  0  0  0  0  0  0  0  0  0  0
   23.7307  -20.7253  -12.8857 C   0  0  0  0  0  0  0  0  0  0  0  0
   24.2529  -21.0342  -11.5254 C   0  0  2  0  0  0  0  0  0  0  0  0
   23.3142  -20.4719  -10.4508 C   0  0  0  0  0  0  0  0  0  0  0  0
   25.6683  -20.5715  -11.3034 C   0  0  2  0  0  0  0  0  0  0  0  0
   26.5944  -21.1349  -12.2613 N   0  0  0  0  0  0  0  0  0  0  0  0
   26.0753  -21.0137   -9.9558 C   0  0  0  0  0  0  0  0  0  0  0  0
   25.7939  -20.2958   -8.8029 O   0  0  0  0  0  0  0  0  0  0  0  0
   26.7056  -22.0869   -9.8343 O   0  0  0  0  0  0  0  0  0  0  0  0
  2  1  1  6
  3  2  1  0
  4  2  1  0
  4  5  1  1
  6  4  1  0
  6  7  2  0
  8  6  1  0
  9  8  1  0
  9 10  1  1
 11 10  1  0
 11 16  2  0
 12 11  1  0
 13 12  2  0
 13 14  1  0
 14 15  2  0
 15 16  1  0
 17  9  1  0
 17 23  1  0
 18 17  2  0
 20 21  1  1
 20 19  1  0
 20 22  1  0
 22 23  1  6
 22 24  1  0
 24 26  2  0
 24 25  1  0
M  END
$$$$
