TFV.pdb
     RDKit          3D

 26 26  0  0  1  0  0  0  0  0999 V2000
   28.7533  -18.0222  -15.0639 C   0  0  0  0  0  0  0  0  0  0  0  0
   27.4725  -18.7459  -14.6392 C   0  0  1  0  0  0  0  0  0  0  0  0
   26.7627  -19.1946  -15.7218 O   0  0  0  0  0  0  0  0  0  0  0  0
   27.8961  -19.9106  -13.7862 C   0  0  2  0  0  0  0  0  0  0  0  0
   28.5989  -20.8427  -14.6497 N   0  0  0  0  0  0  0  0  0  0  0  0
   26.7755  -20.5610  -13.0766 C   0  0  0  0  0  0  0  0  0  0  0  0
   26.3756  -21.7117  -13.4668 O   0  0  0  0  0  0  0  0  0  0  0  0
   26.0884  -20.0040  -11.9713 N   0  0  0  0  0  0  0  0  0  0  0  0
   24.9211  -20.6682  -11.3633 C   0  0  1  0  0  0  0  0  0  0  0  0
   24.7398  -20.1811   -9.9431 C   0  0  0  0  0  0  0  0  0  0  0  0
   25.9224  -20.4172   -9.1019 C   0  0  0  0  0  0  0  0  0  0  0  0
   26.3121  -19.4920   -8.1476 C   0  0  0  0  0  0  0  0  0  0  0  0
   27.3947  -19.6740   -7.3327 C   0  0  0  0  0  0  0  0  0  0  0  0
   28.1366  -20.8239   -7.4582 C   0  0  0  0  0  0  0  0  0  0  0  0
   27.7908  -21.7681   -8.3871 C   0  0  0  0  0  0  0  0  0  0  0  0
   26.6777  -21.5554   -9.2079 C   0  0  0  0  0  0  0  0  0  0  0  0
   23.7147  -20.4641  -12.1585 C   0  0  0  0  0  0  0  0  0  0  0  0
   23.4142  -19.3560  -12.6662 O   0  0  0  0  0  0  0  0  0  0  0  0
   21.6247  -23.7623  -14.0072 C   0  0  0  0  0  0  0  0  0  0  0  0
   21.6837  -22.3500  -14.4764 C   0  0  2  0  0  0  0  0  0  0  0  0
   22.8996  -22.1383  -15.3869 C   0  0  0  0  0  0  0  0  0  0  0  0
   21.6627  -21.3418  -13.3585 C   0  0  2  0  0  0  0  0  0  0  0  0
   22.7605  -21.5151  -12.4325 N   0  0  0  0  0  0  0  0  0  0  0  0
   20.4013  -21.5267  -12.6155 C   0  0  0  0  0  0  0  0  0  0  0  0
   19.1659  -21.1284  -13.1043 O   0  0  0  0  0  0  0  0  0  0  0  0
   20.4349  -22.0678  -11.4887 O   0  0  0  0  0  0  0  0  0  0  0  0
  2  1  1  6
  3  2  1  0
  4  2  1  0
  4  5  1  6
  6  4  1  0
  6  7  2  0
  8  6  1  0
  9  8  1  0
  9 10  1  1
 11 10  1  0
 11 16  2  0
 12 11  1  0
 13 12  2  0
 13 14  1  0
 14 15  2  0
 15 16  1  0
 17  9  1  0
 17 23  1  0
 18 17  2  0
 20 21  1  1
 20 19  1  0
 20 22  1  0
 22 23  1  1
 22 24  1  0
 24 26  2  0
 24 25  1  0
M  END
$$$$
