GFS.pdb
     RDKit          3D

 22 22  0  0  1  0  0  0  0  0999 V2000
    5.2341  -20.0804   22.0993 N   0  0  0  0  0  0  0  0  0  0  0  0
    5.4843  -19.8067   23.4818 C   0  0  0  0  0  0  0  0  0  0  0  0
    6.1045  -18.4636   23.6104 C   0  0  0  0  0  0  0  0  0  0  0  0
    6.5548  -17.8535   22.5915 O   0  0  0  0  0  0  0  0  0  0  0  0
    6.2191  -17.8066   24.8786 N   0  0  0  0  0  0  0  0  0  0  0  0
    6.9110  -16.5749   25.0432 C   0  0  1  0  0  0  0  0  0  0  0  0
    6.5881  -15.8660   26.3350 C   0  0  0  0  0  0  0  0  0  0  0  0
    7.0603  -14.4770   26.3793 C   0  0  0  0  0  0  0  0  0  0  0  0
    8.2432  -14.1849   27.0059 C   0  0  0  0  0  0  0  0  0  0  0  0
    8.7411  -12.9028   27.0846 C   0  0  0  0  0  0  0  0  0  0  0  0
    7.9996  -11.9016   26.5028 C   0  0  0  0  0  0  0  0  0  0  0  0
    6.8089  -12.1874   25.8708 C   0  0  0  0  0  0  0  0  0  0  0  0
    6.3323  -13.4760   25.8053 C   0  0  0  0  0  0  0  0  0  0  0  0
    8.3864  -16.6762   24.9298 C   0  0  0  0  0  0  0  0  0  0  0  0
    8.9511  -17.5185   25.6729 O   0  0  0  0  0  0  0  0  0  0  0  0
   10.7583  -14.8110   21.9007 O   0  0  0  0  0  0  0  0  0  0  0  0
   10.8010  -16.1570   22.2423 C   0  0  0  0  0  0  0  0  0  0  0  0
   10.5243  -16.3461   23.7350 C   0  0  2  0  0  0  0  0  0  0  0  0
    9.1843  -15.9076   24.0627 N   0  0  0  0  0  0  0  0  0  0  0  0
   11.5478  -15.6401   24.5469 C   0  0  0  0  0  0  0  0  0  0  0  0
   11.1582  -14.7443   25.5304 O   0  0  0  0  0  0  0  0  0  0  0  0
   12.7834  -15.8156   24.3861 O   0  0  0  0  0  0  0  0  0  0  0  0
  1  2  1  0
  3  2  1  0
  3  4  2  0
  5  3  1  0
  6  5  1  0
  6 14  1  0
  6  7  1  1
  8  7  1  0
  9  8  2  0
 10  9  1  0
 11 10  2  0
 11 12  1  0
 12 13  2  0
 13  8  1  0
 14 19  1  0
 15 14  2  0
 17 16  1  0
 18 17  1  6
 18 20  1  0
 19 18  1  0
 20 22  2  0
 20 21  1  0
M  END
$$$$
