GFS.pdb
     RDKit          3D

 22 22  0  0  1  0  0  0  0  0999 V2000
    9.3812  -17.6814   19.7424 N   0  0  0  0  0  0  0  0  0  0  0  0
    9.1074  -16.2767   19.7616 C   0  0  0  0  0  0  0  0  0  0  0  0
    9.1954  -15.7798   21.1582 C   0  0  0  0  0  0  0  0  0  0  0  0
   10.3036  -15.7733   21.7789 O   0  0  0  0  0  0  0  0  0  0  0  0
    8.0435  -15.2916   21.8566 N   0  0  0  0  0  0  0  0  0  0  0  0
    8.1147  -14.7621   23.1748 C   0  0  1  0  0  0  0  0  0  0  0  0
    6.9848  -13.8212   23.5121 C   0  0  0  0  0  0  0  0  0  0  0  0
    7.0661  -13.2641   24.8675 C   0  0  0  0  0  0  0  0  0  0  0  0
    8.1308  -12.4731   25.2105 C   0  0  0  0  0  0  0  0  0  0  0  0
    8.2680  -11.9215   26.4654 C   0  0  0  0  0  0  0  0  0  0  0  0
    7.2827  -12.1939   27.3850 C   0  0  0  0  0  0  0  0  0  0  0  0
    6.2087  -12.9887   27.0477 C   0  0  0  0  0  0  0  0  0  0  0  0
    6.0940  -13.5283   25.7878 C   0  0  0  0  0  0  0  0  0  0  0  0
    8.1984  -15.7840   24.2466 C   0  0  0  0  0  0  0  0  0  0  0  0
    7.1772  -16.4949   24.4268 O   0  0  0  0  0  0  0  0  0  0  0  0
   11.3647  -17.9523   24.9568 O   0  0  0  0  0  0  0  0  0  0  0  0
   10.0802  -18.3197   25.3379 C   0  0  0  0  0  0  0  0  0  0  0  0
    9.3431  -17.1369   25.9688 C   0  0  2  0  0  0  0  0  0  0  0  0
    9.3226  -16.0089   25.0618 N   0  0  0  0  0  0  0  0  0  0  0  0
    9.9535  -16.7810   27.2749 C   0  0  0  0  0  0  0  0  0  0  0  0
   10.0802  -17.7404   28.2673 O   0  0  0  0  0  0  0  0  0  0  0  0
   10.3733  -15.6240   27.5369 O   0  0  0  0  0  0  0  0  0  0  0  0
  1  2  1  0
  3  2  1  0
  3  4  2  0
  5  3  1  0
  6  5  1  0
  6 14  1  0
  6  7  1  1
  8  7  1  0
  9  8  2  0
 10  9  1  0
 11 10  2  0
 11 12  1  0
 12 13  2  0
 13  8  1  0
 14 19  1  0
 15 14  2  0
 17 16  1  0
 18 17  1  6
 18 20  1  0
 19 18  1  0
 20 22  2  0
 20 21  1  0
M  END
$$$$
