GFS.pdb
     RDKit          3D

 22 22  0  0  1  0  0  0  0  0999 V2000
    4.8150  -17.5889   21.0332 N   0  0  0  0  0  0  0  0  0  0  0  0
    5.2107  -17.9020   22.3726 C   0  0  0  0  0  0  0  0  0  0  0  0
    6.2319  -16.9223   22.8229 C   0  0  0  0  0  0  0  0  0  0  0  0
    6.8903  -16.2345   21.9823 O   0  0  0  0  0  0  0  0  0  0  0  0
    6.5137  -16.7150   24.2124 N   0  0  0  0  0  0  0  0  0  0  0  0
    7.5950  -15.9079   24.6622 C   0  0  1  0  0  0  0  0  0  0  0  0
    7.4264  -15.3996   26.0725 C   0  0  0  0  0  0  0  0  0  0  0  0
    7.1370  -13.9628   26.1508 C   0  0  0  0  0  0  0  0  0  0  0  0
    8.1384  -13.0579   25.9155 C   0  0  0  0  0  0  0  0  0  0  0  0
    7.9339  -11.6968   25.9752 C   0  0  0  0  0  0  0  0  0  0  0  0
    6.6664  -11.2627   26.2849 C   0  0  0  0  0  0  0  0  0  0  0  0
    5.6539  -12.1667   26.5229 C   0  0  0  0  0  0  0  0  0  0  0  0
    5.8830  -13.5213   26.4574 C   0  0  0  0  0  0  0  0  0  0  0  0
    8.9282  -16.5499   24.5605 C   0  0  0  0  0  0  0  0  0  0  0  0
    9.0046  -17.7490   24.9305 O   0  0  0  0  0  0  0  0  0  0  0  0
   13.2897  -16.7493   22.4915 O   0  0  0  0  0  0  0  0  0  0  0  0
   12.1702  -15.9837   22.7930 C   0  0  0  0  0  0  0  0  0  0  0  0
   11.2741  -16.7074   23.8000 C   0  0  2  0  0  0  0  0  0  0  0  0
   10.0936  -15.9204   24.0866 N   0  0  0  0  0  0  0  0  0  0  0  0
   12.0339  -17.0285   25.0348 C   0  0  0  0  0  0  0  0  0  0  0  0
   11.6157  -16.5285   26.2581 O   0  0  0  0  0  0  0  0  0  0  0  0
   13.0651  -17.7498   25.0308 O   0  0  0  0  0  0  0  0  0  0  0  0
  1  2  1  0
  3  2  1  0
  3  4  2  0
  5  3  1  0
  6  5  1  0
  6 14  1  0
  6  7  1  1
  8  7  1  0
  9  8  2  0
 10  9  1  0
 11 10  2  0
 11 12  1  0
 12 13  2  0
 13  8  1  0
 14 19  1  0
 15 14  2  0
 17 16  1  0
 18 17  1  6
 18 20  1  0
 19 18  1  0
 20 22  2  0
 20 21  1  0
M  END
$$$$
