GFS.pdb
     RDKit          3D

 22 22  0  0  1  0  0  0  0  0999 V2000
   61.6107  -51.1414   30.9896 N   0  0  0  0  0  0  0  0  0  0  0  0
   62.2917  -49.9260   31.3180 C   0  0  0  0  0  0  0  0  0  0  0  0
   61.5765  -49.2490   32.4295 C   0  0  0  0  0  0  0  0  0  0  0  0
   61.9145  -49.4465   33.6378 O   0  0  0  0  0  0  0  0  0  0  0  0
   60.4852  -48.3530   32.1861 N   0  0  0  0  0  0  0  0  0  0  0  0
   60.5738  -46.9545   32.4296 C   0  0  1  0  0  0  0  0  0  0  0  0
   60.0646  -46.5422   33.7884 C   0  0  0  0  0  0  0  0  0  0  0  0
   58.8604  -45.7045   33.7376 C   0  0  0  0  0  0  0  0  0  0  0  0
   57.6294  -46.2792   33.9147 C   0  0  0  0  0  0  0  0  0  0  0  0
   56.4610  -45.5503   33.8766 C   0  0  0  0  0  0  0  0  0  0  0  0
   56.5684  -44.1982   33.6505 C   0  0  0  0  0  0  0  0  0  0  0  0
   57.8030  -43.6129   33.4714 C   0  0  0  0  0  0  0  0  0  0  0  0
   58.9557  -44.3620   33.5138 C   0  0  0  0  0  0  0  0  0  0  0  0
   61.9308  -46.3823   32.2534 C   0  0  0  0  0  0  0  0  0  0  0  0
   61.9920  -45.1673   31.9362 O   0  0  0  0  0  0  0  0  0  0  0  0
   63.1438  -50.0568   33.0398 O   0  0  0  0  0  0  0  0  0  0  0  0
   62.5941  -49.0345   33.8032 C   0  0  0  0  0  0  0  0  0  0  0  0
   63.4207  -47.7540   33.6695 C   0  0  2  0  0  0  0  0  0  0  0  0
   63.1341  -47.0933   32.4139 N   0  0  0  0  0  0  0  0  0  0  0  0
   64.8680  -48.0520   33.8161 C   0  0  0  0  0  0  0  0  0  0  0  0
   65.2840  -49.3321   34.1474 O   0  0  0  0  0  0  0  0  0  0  0  0
   65.7619  -47.1817   33.6513 O   0  0  0  0  0  0  0  0  0  0  0  0
  1  2  1  0
  3  2  1  0
  3  4  2  0
  5  3  1  0
  6  5  1  0
  6 14  1  0
  6  7  1  1
  8  7  1  0
  9  8  2  0
 10  9  1  0
 11 10  2  0
 11 12  1  0
 12 13  2  0
 13  8  1  0
 14 19  1  0
 15 14  2  0
 17 16  1  0
 18 17  1  6
 18 20  1  0
 19 18  1  0
 20 22  2  0
 20 21  1  0
M  END
$$$$
