GFS.pdb
     RDKit          3D

 22 22  0  0  1  0  0  0  0  0999 V2000
    8.4471  -19.1465   15.3237 N   0  0  0  0  0  0  0  0  0  0  0  0
    7.8667  -19.2891   16.6243 C   0  0  0  0  0  0  0  0  0  0  0  0
    8.3069  -18.1604   17.4832 C   0  0  0  0  0  0  0  0  0  0  0  0
    9.5037  -17.7371   17.4401 O   0  0  0  0  0  0  0  0  0  0  0  0
    7.4071  -17.5085   18.3877 N   0  0  0  0  0  0  0  0  0  0  0  0
    7.8226  -16.4686   19.2645 C   0  0  1  0  0  0  0  0  0  0  0  0
    6.6845  -15.6349   19.7987 C   0  0  0  0  0  0  0  0  0  0  0  0
    7.1128  -14.5678   20.7109 C   0  0  0  0  0  0  0  0  0  0  0  0
    7.6260  -13.4057   20.1980 C   0  0  0  0  0  0  0  0  0  0  0  0
    8.0478  -12.3671   20.9988 C   0  0  0  0  0  0  0  0  0  0  0  0
    7.9364  -12.5343   22.3591 C   0  0  0  0  0  0  0  0  0  0  0  0
    7.4213  -13.7003   22.8826 C   0  0  0  0  0  0  0  0  0  0  0  0
    7.0067  -14.7234   22.0622 C   0  0  0  0  0  0  0  0  0  0  0  0
    8.6408  -16.9222   20.4156 C   0  0  0  0  0  0  0  0  0  0  0  0
    8.1767  -17.8721   21.0959 O   0  0  0  0  0  0  0  0  0  0  0  0
   12.6478  -15.9620   21.0801 O   0  0  0  0  0  0  0  0  0  0  0  0
   12.0804  -17.1473   21.5309 C   0  0  0  0  0  0  0  0  0  0  0  0
   10.6121  -16.9369   21.9058 C   0  0  2  0  0  0  0  0  0  0  0  0
    9.8796  -16.3721   20.7923 N   0  0  0  0  0  0  0  0  0  0  0  0
   10.5021  -16.0914   23.1216 C   0  0  0  0  0  0  0  0  0  0  0  0
   11.0675  -16.5132   24.3149 O   0  0  0  0  0  0  0  0  0  0  0  0
    9.9073  -14.9825   23.1277 O   0  0  0  0  0  0  0  0  0  0  0  0
  1  2  1  0
  3  2  1  0
  3  4  2  0
  5  3  1  0
  6  5  1  0
  6 14  1  0
  6  7  1  1
  8  7  1  0
  9  8  2  0
 10  9  1  0
 11 10  2  0
 11 12  1  0
 12 13  2  0
 13  8  1  0
 14 19  1  0
 15 14  2  0
 17 16  1  0
 18 17  1  6
 18 20  1  0
 19 18  1  0
 20 22  2  0
 20 21  1  0
M  END
$$$$
