GFS.pdb
     RDKit          3D

 22 22  0  0  1  0  0  0  0  0999 V2000
    8.9675  -18.0912   17.4567 N   0  0  0  0  0  0  0  0  0  0  0  0
    8.5406  -18.3937   18.7889 C   0  0  0  0  0  0  0  0  0  0  0  0
    9.2349  -17.4914   19.7422 C   0  0  0  0  0  0  0  0  0  0  0  0
   10.3039  -16.8910   19.4103 O   0  0  0  0  0  0  0  0  0  0  0  0
    8.7315  -17.2631   21.0641 N   0  0  0  0  0  0  0  0  0  0  0  0
    9.4452  -16.5083   22.0356 C   0  0  1  0  0  0  0  0  0  0  0  0
    8.6071  -15.4602   22.7247 C   0  0  0  0  0  0  0  0  0  0  0  0
    8.0895  -14.4289   21.8176 C   0  0  0  0  0  0  0  0  0  0  0  0
    6.8311  -14.5608   21.2922 C   0  0  0  0  0  0  0  0  0  0  0  0
    6.2872  -13.6305   20.4340 C   0  0  0  0  0  0  0  0  0  0  0  0
    7.0615  -12.5407   20.1124 C   0  0  0  0  0  0  0  0  0  0  0  0
    8.3282  -12.4010   20.6367 C   0  0  0  0  0  0  0  0  0  0  0  0
    8.8496  -13.3437   21.4919 C   0  0  0  0  0  0  0  0  0  0  0  0
   10.1147  -17.3220   23.0795 C   0  0  0  0  0  0  0  0  0  0  0  0
    9.4061  -18.1805   23.6638 O   0  0  0  0  0  0  0  0  0  0  0  0
   14.1678  -17.0703   24.0699 O   0  0  0  0  0  0  0  0  0  0  0  0
   13.5394  -18.3077   24.1359 C   0  0  0  0  0  0  0  0  0  0  0  0
   12.0406  -18.1410   24.3935 C   0  0  2  0  0  0  0  0  0  0  0  0
   11.4652  -17.2016   23.4546 N   0  0  0  0  0  0  0  0  0  0  0  0
   11.7974  -17.7313   25.8000 C   0  0  0  0  0  0  0  0  0  0  0  0
   12.1816  -18.5608   26.8420 O   0  0  0  0  0  0  0  0  0  0  0  0
   11.2464  -16.6420   26.1057 O   0  0  0  0  0  0  0  0  0  0  0  0
  1  2  1  0
  3  2  1  0
  3  4  2  0
  5  3  1  0
  6  5  1  0
  6 14  1  0
  6  7  1  1
  8  7  1  0
  9  8  2  0
 10  9  1  0
 11 10  2  0
 11 12  1  0
 12 13  2  0
 13  8  1  0
 14 19  1  0
 15 14  2  0
 17 16  1  0
 18 17  1  6
 18 20  1  0
 19 18  1  0
 20 22  2  0
 20 21  1  0
M  END
$$$$
