GFS.pdb
     RDKit          3D

 22 22  0  0  1  0  0  0  0  0999 V2000
    4.7014  -18.6643   22.7486 N   0  0  0  0  0  0  0  0  0  0  0  0
    5.2953  -18.4003   24.0239 C   0  0  0  0  0  0  0  0  0  0  0  0
    6.3397  -17.3558   23.8706 C   0  0  0  0  0  0  0  0  0  0  0  0
    6.6766  -16.9350   22.7205 O   0  0  0  0  0  0  0  0  0  0  0  0
    7.0044  -16.7851   25.0044 N   0  0  0  0  0  0  0  0  0  0  0  0
    8.0816  -15.8651   24.8774 C   0  0  1  0  0  0  0  0  0  0  0  0
    8.3026  -15.0170   26.1053 C   0  0  0  0  0  0  0  0  0  0  0  0
    7.4835  -13.7995   26.1361 C   0  0  0  0  0  0  0  0  0  0  0  0
    6.3243  -13.7831   26.8661 C   0  0  0  0  0  0  0  0  0  0  0  0
    5.5098  -12.6742   26.9351 C   0  0  0  0  0  0  0  0  0  0  0  0
    5.9028  -11.5585   26.2340 C   0  0  0  0  0  0  0  0  0  0  0  0
    7.0675  -11.5672   25.4975 C   0  0  0  0  0  0  0  0  0  0  0  0
    7.8643  -12.6870   25.4441 C   0  0  0  0  0  0  0  0  0  0  0  0
    9.3782  -16.4809   24.5038 C   0  0  0  0  0  0  0  0  0  0  0  0
    9.6954  -17.5357   25.1100 O   0  0  0  0  0  0  0  0  0  0  0  0
   10.9754  -16.2243   20.8730 O   0  0  0  0  0  0  0  0  0  0  0  0
   11.9890  -16.2594   21.8225 C   0  0  0  0  0  0  0  0  0  0  0  0
   11.4479  -16.7249   23.1757 C   0  0  2  0  0  0  0  0  0  0  0  0
   10.2629  -15.9748   23.5340 N   0  0  0  0  0  0  0  0  0  0  0  0
   12.4996  -16.6228   24.2190 C   0  0  0  0  0  0  0  0  0  0  0  0
   13.7106  -17.2760   24.0514 O   0  0  0  0  0  0  0  0  0  0  0  0
   12.3470  -15.9572   25.2760 O   0  0  0  0  0  0  0  0  0  0  0  0
  1  2  1  0
  3  2  1  0
  3  4  2  0
  5  3  1  0
  6  5  1  0
  6 14  1  0
  6  7  1  1
  8  7  1  0
  9  8  2  0
 10  9  1  0
 11 10  2  0
 11 12  1  0
 12 13  2  0
 13  8  1  0
 14 19  1  0
 15 14  2  0
 17 16  1  0
 18 17  1  6
 18 20  1  0
 19 18  1  0
 20 22  2  0
 20 21  1  0
M  END
$$$$
