GFS.pdb
     RDKit          3D

 22 22  0  0  1  0  0  0  0  0999 V2000
    4.9760  -20.1711   22.4075 N   0  0  0  0  0  0  0  0  0  0  0  0
    5.5268  -19.9121   23.7029 C   0  0  0  0  0  0  0  0  0  0  0  0
    6.0282  -18.5151   23.7512 C   0  0  0  0  0  0  0  0  0  0  0  0
    6.1378  -17.8251   22.6905 O   0  0  0  0  0  0  0  0  0  0  0  0
    6.4054  -17.8939   24.9861 N   0  0  0  0  0  0  0  0  0  0  0  0
    7.0293  -16.6170   25.0416 C   0  0  1  0  0  0  0  0  0  0  0  0
    6.7778  -15.8748   26.3306 C   0  0  0  0  0  0  0  0  0  0  0  0
    7.1307  -14.4514   26.2700 C   0  0  0  0  0  0  0  0  0  0  0  0
    8.4256  -14.0659   26.4976 C   0  0  0  0  0  0  0  0  0  0  0  0
    8.8220  -12.7471   26.4577 C   0  0  0  0  0  0  0  0  0  0  0  0
    7.8585  -11.8073   26.1765 C   0  0  0  0  0  0  0  0  0  0  0  0
    6.5540  -12.1872   25.9465 C   0  0  0  0  0  0  0  0  0  0  0  0
    6.1825  -13.5107   25.9919 C   0  0  0  0  0  0  0  0  0  0  0  0
    8.4923  -16.6339   24.7979 C   0  0  0  0  0  0  0  0  0  0  0  0
    9.1850  -17.3313   25.5818 O   0  0  0  0  0  0  0  0  0  0  0  0
   10.0776  -14.8731   21.5424 O   0  0  0  0  0  0  0  0  0  0  0  0
   10.8687  -15.9069   22.0279 C   0  0  0  0  0  0  0  0  0  0  0  0
   10.5457  -16.1928   23.4957 C   0  0  2  0  0  0  0  0  0  0  0  0
    9.1475  -15.9352   23.7676 N   0  0  0  0  0  0  0  0  0  0  0  0
   11.4335  -15.4031   24.3865 C   0  0  0  0  0  0  0  0  0  0  0  0
   12.8103  -15.4993   24.2582 O   0  0  0  0  0  0  0  0  0  0  0  0
   10.9916  -14.6303   25.2759 O   0  0  0  0  0  0  0  0  0  0  0  0
  1  2  1  0
  3  2  1  0
  3  4  2  0
  5  3  1  0
  6  5  1  0
  6 14  1  0
  6  7  1  1
  8  7  1  0
  9  8  2  0
 10  9  1  0
 11 10  2  0
 11 12  1  0
 12 13  2  0
 13  8  1  0
 14 19  1  0
 15 14  2  0
 17 16  1  0
 18 17  1  6
 18 20  1  0
 19 18  1  0
 20 22  2  0
 20 21  1  0
M  END
$$$$
