GFS.pdb
     RDKit          3D

 22 22  0  0  1  0  0  0  0  0999 V2000
    5.8754  -19.7205   23.7232 N   0  0  0  0  0  0  0  0  0  0  0  0
    5.8543  -18.4537   24.3891 C   0  0  0  0  0  0  0  0  0  0  0  0
    6.7991  -17.5292   23.7125 C   0  0  0  0  0  0  0  0  0  0  0  0
    7.5925  -17.9505   22.8146 O   0  0  0  0  0  0  0  0  0  0  0  0
    6.8538  -16.1359   24.0424 N   0  0  0  0  0  0  0  0  0  0  0  0
    7.8337  -15.2587   23.5009 C   0  0  1  0  0  0  0  0  0  0  0  0
    7.4142  -13.8097   23.4965 C   0  0  0  0  0  0  0  0  0  0  0  0
    7.1014  -13.2823   24.8300 C   0  0  0  0  0  0  0  0  0  0  0  0
    7.9465  -12.3755   25.4135 C   0  0  0  0  0  0  0  0  0  0  0  0
    7.7120  -11.8440   26.6627 C   0  0  0  0  0  0  0  0  0  0  0  0
    6.5792  -12.2594   27.3222 C   0  0  0  0  0  0  0  0  0  0  0  0
    5.7243  -13.1713   26.7419 C   0  0  0  0  0  0  0  0  0  0  0  0
    5.9801  -13.6879   25.4931 C   0  0  0  0  0  0  0  0  0  0  0  0
    9.1669  -15.3501   24.1447 C   0  0  0  0  0  0  0  0  0  0  0  0
   10.1060  -14.7307   23.5836 O   0  0  0  0  0  0  0  0  0  0  0  0
    9.9186  -16.8991   27.8959 O   0  0  0  0  0  0  0  0  0  0  0  0
   10.8817  -16.0915   27.3039 C   0  0  0  0  0  0  0  0  0  0  0  0
   10.8151  -16.1979   25.7791 C   0  0  2  0  0  0  0  0  0  0  0  0
    9.4483  -16.0699   25.3202 N   0  0  0  0  0  0  0  0  0  0  0  0
   11.4328  -17.4676   25.3193 C   0  0  0  0  0  0  0  0  0  0  0  0
   12.7727  -17.7194   25.5698 O   0  0  0  0  0  0  0  0  0  0  0  0
   10.7883  -18.3516   24.6975 O   0  0  0  0  0  0  0  0  0  0  0  0
  1  2  1  0
  3  2  1  0
  3  4  2  0
  5  3  1  0
  6  5  1  0
  6 14  1  0
  6  7  1  1
  8  7  1  0
  9  8  2  0
 10  9  1  0
 11 10  2  0
 11 12  1  0
 12 13  2  0
 13  8  1  0
 14 19  1  0
 15 14  2  0
 17 16  1  0
 18 17  1  1
 18 20  1  0
 19 18  1  0
 20 22  2  0
 20 21  1  0
M  END
$$$$
