GFS.pdb
     RDKit          3D

 22 22  0  0  1  0  0  0  0  0999 V2000
    7.5161  -14.8342   19.8026 N   0  0  0  0  0  0  0  0  0  0  0  0
    6.8534  -15.4629   20.9046 C   0  0  0  0  0  0  0  0  0  0  0  0
    7.6355  -15.2280   22.1448 C   0  0  0  0  0  0  0  0  0  0  0  0
    8.8169  -14.7643   22.0922 O   0  0  0  0  0  0  0  0  0  0  0  0
    7.0940  -15.5124   23.4405 N   0  0  0  0  0  0  0  0  0  0  0  0
    7.8702  -15.4311   24.6295 C   0  0  1  0  0  0  0  0  0  0  0  0
    7.0647  -15.0842   25.8569 C   0  0  0  0  0  0  0  0  0  0  0  0
    6.9515  -13.6411   26.0995 C   0  0  0  0  0  0  0  0  0  0  0  0
    5.7795  -13.1279   26.5895 C   0  0  0  0  0  0  0  0  0  0  0  0
    5.6074  -11.7837   26.8370 C   0  0  0  0  0  0  0  0  0  0  0  0
    6.6703  -10.9526   26.5720 C   0  0  0  0  0  0  0  0  0  0  0  0
    7.8524  -11.4611   26.0790 C   0  0  0  0  0  0  0  0  0  0  0  0
    8.0001  -12.8076   25.8399 C   0  0  0  0  0  0  0  0  0  0  0  0
    8.6677  -16.6450   24.9301 C   0  0  0  0  0  0  0  0  0  0  0  0
    8.0240  -17.7085   25.1181 O   0  0  0  0  0  0  0  0  0  0  0  0
   12.7843  -16.9544   24.4962 O   0  0  0  0  0  0  0  0  0  0  0  0
   11.9834  -18.0858   24.4025 C   0  0  0  0  0  0  0  0  0  0  0  0
   10.7402  -17.9439   25.2827 C   0  0  2  0  0  0  0  0  0  0  0  0
   10.0711  -16.6880   25.0179 N   0  0  0  0  0  0  0  0  0  0  0  0
   11.0999  -18.0836   26.7167 C   0  0  0  0  0  0  0  0  0  0  0  0
   10.8243  -17.0564   27.6056 O   0  0  0  0  0  0  0  0  0  0  0  0
   11.6567  -19.1120   27.1813 O   0  0  0  0  0  0  0  0  0  0  0  0
  1  2  1  0
  3  2  1  0
  3  4  2  0
  5  3  1  0
  6  5  1  0
  6 14  1  0
  6  7  1  1
  8  7  1  0
  9  8  2  0
 10  9  1  0
 11 10  2  0
 11 12  1  0
 12 13  2  0
 13  8  1  0
 14 19  1  0
 15 14  2  0
 17 16  1  0
 18 17  1  6
 18 20  1  0
 19 18  1  0
 20 22  2  0
 20 21  1  0
M  END
$$$$
