GFS.pdb
     RDKit          3D

 22 22  0  0  1  0  0  0  0  0999 V2000
    6.8778  -14.5911   20.1711 N   0  0  0  0  0  0  0  0  0  0  0  0
    6.4668  -15.3083   21.3396 C   0  0  0  0  0  0  0  0  0  0  0  0
    7.4902  -15.1399   22.4024 C   0  0  0  0  0  0  0  0  0  0  0  0
    8.6493  -14.6995   22.1270 O   0  0  0  0  0  0  0  0  0  0  0  0
    7.2140  -15.4647   23.7703 N   0  0  0  0  0  0  0  0  0  0  0  0
    8.1928  -15.3539   24.7963 C   0  0  1  0  0  0  0  0  0  0  0  0
    7.6158  -15.0332   26.1527 C   0  0  0  0  0  0  0  0  0  0  0  0
    7.1963  -13.6343   26.2993 C   0  0  0  0  0  0  0  0  0  0  0  0
    8.0973  -12.6300   26.0611 C   0  0  0  0  0  0  0  0  0  0  0  0
    7.7684  -11.2978   26.1827 C   0  0  0  0  0  0  0  0  0  0  0  0
    6.4802  -10.9980   26.5587 C   0  0  0  0  0  0  0  0  0  0  0  0
    5.5682  -12.0026   26.8000 C   0  0  0  0  0  0  0  0  0  0  0  0
    5.9205  -13.3259   26.6718 C   0  0  0  0  0  0  0  0  0  0  0  0
    9.0737  -16.5386   24.9392 C   0  0  0  0  0  0  0  0  0  0  0  0
    8.5046  -17.6423   25.1353 O   0  0  0  0  0  0  0  0  0  0  0  0
   13.1911  -16.4727   24.3548 O   0  0  0  0  0  0  0  0  0  0  0  0
   12.4868  -17.6221   24.0187 C   0  0  0  0  0  0  0  0  0  0  0  0
   11.2247  -17.7535   24.8734 C   0  0  2  0  0  0  0  0  0  0  0  0
   10.4787  -16.5130   24.8716 N   0  0  0  0  0  0  0  0  0  0  0  0
   11.5726  -18.1837   26.2514 C   0  0  0  0  0  0  0  0  0  0  0  0
   12.1970  -19.4032   26.4621 O   0  0  0  0  0  0  0  0  0  0  0  0
   11.3246  -17.4820   27.2662 O   0  0  0  0  0  0  0  0  0  0  0  0
  1  2  1  0
  3  2  1  0
  3  4  2  0
  5  3  1  0
  6  5  1  0
  6 14  1  0
  6  7  1  1
  8  7  1  0
  9  8  2  0
 10  9  1  0
 11 10  2  0
 11 12  1  0
 12 13  2  0
 13  8  1  0
 14 19  1  0
 15 14  2  0
 17 16  1  0
 18 17  1  6
 18 20  1  0
 19 18  1  0
 20 22  2  0
 20 21  1  0
M  END
$$$$
