GFS.pdb
     RDKit          3D

 22 22  0  0  1  0  0  0  0  0999 V2000
    7.6476  -13.0852   19.9151 N   0  0  0  0  0  0  0  0  0  0  0  0
    7.1286  -14.1718   20.6888 C   0  0  0  0  0  0  0  0  0  0  0  0
    7.9072  -14.2923   21.9475 C   0  0  0  0  0  0  0  0  0  0  0  0
    9.0705  -13.7917   22.0446 O   0  0  0  0  0  0  0  0  0  0  0  0
    7.3823  -14.9724   23.0942 N   0  0  0  0  0  0  0  0  0  0  0  0
    8.1263  -15.1343   24.2955 C   0  0  1  0  0  0  0  0  0  0  0  0
    7.2909  -15.0187   25.5463 C   0  0  0  0  0  0  0  0  0  0  0  0
    7.0071  -13.6335   25.9400 C   0  0  0  0  0  0  0  0  0  0  0  0
    7.9598  -12.9129   26.6109 C   0  0  0  0  0  0  0  0  0  0  0  0
    7.7562  -11.6103   27.0103 C   0  0  0  0  0  0  0  0  0  0  0  0
    6.5413  -11.0410   26.7093 C   0  0  0  0  0  0  0  0  0  0  0  0
    5.5780  -11.7594   26.0348 C   0  0  0  0  0  0  0  0  0  0  0  0
    5.8049  -13.0591   25.6464 C   0  0  0  0  0  0  0  0  0  0  0  0
    8.9026  -16.3957   24.3753 C   0  0  0  0  0  0  0  0  0  0  0  0
    8.2599  -17.4631   24.2074 O   0  0  0  0  0  0  0  0  0  0  0  0
   13.0514  -16.6294   24.3818 O   0  0  0  0  0  0  0  0  0  0  0  0
   12.2867  -17.6723   23.8739 C   0  0  0  0  0  0  0  0  0  0  0  0
   10.9458  -17.7666   24.6045 C   0  0  2  0  0  0  0  0  0  0  0  0
   10.2851  -16.4788   24.6217 N   0  0  0  0  0  0  0  0  0  0  0  0
   11.1376  -18.3044   25.9754 C   0  0  0  0  0  0  0  0  0  0  0  0
   11.7426  -19.5377   26.1598 O   0  0  0  0  0  0  0  0  0  0  0  0
   10.7705  -17.6842   27.0070 O   0  0  0  0  0  0  0  0  0  0  0  0
  1  2  1  0
  3  2  1  0
  3  4  2  0
  5  3  1  0
  6  5  1  0
  6 14  1  0
  6  7  1  1
  8  7  1  0
  9  8  2  0
 10  9  1  0
 11 10  2  0
 11 12  1  0
 12 13  2  0
 13  8  1  0
 14 19  1  0
 15 14  2  0
 17 16  1  0
 18 17  1  1
 18 20  1  0
 19 18  1  0
 20 22  2  0
 20 21  1  0
M  END
$$$$
