GFS.pdb
     RDKit          3D

 22 22  0  0  1  0  0  0  0  0999 V2000
    6.9194  -14.1272   20.0928 N   0  0  0  0  0  0  0  0  0  0  0  0
    6.5121  -15.0838   21.0766 C   0  0  0  0  0  0  0  0  0  0  0  0
    7.4540  -15.0374   22.2238 C   0  0  0  0  0  0  0  0  0  0  0  0
    8.6347  -14.5918   22.0799 O   0  0  0  0  0  0  0  0  0  0  0  0
    7.0724  -15.4898   23.5287 N   0  0  0  0  0  0  0  0  0  0  0  0
    7.9332  -15.3881   24.6564 C   0  0  1  0  0  0  0  0  0  0  0  0
    7.2074  -15.1155   25.9505 C   0  0  0  0  0  0  0  0  0  0  0  0
    7.0330  -13.6870   26.2391 C   0  0  0  0  0  0  0  0  0  0  0  0
    5.7722  -13.1842   26.4251 C   0  0  0  0  0  0  0  0  0  0  0  0
    5.5397  -11.8537   26.6967 C   0  0  0  0  0  0  0  0  0  0  0  0
    6.6346  -11.0260   26.7776 C   0  0  0  0  0  0  0  0  0  0  0  0
    7.9059  -11.5243   26.5917 C   0  0  0  0  0  0  0  0  0  0  0  0
    8.1126  -12.8569   26.3215 C   0  0  0  0  0  0  0  0  0  0  0  0
    8.8198  -16.5590   24.8635 C   0  0  0  0  0  0  0  0  0  0  0  0
    8.2675  -17.6884   24.8698 O   0  0  0  0  0  0  0  0  0  0  0  0
   12.0140  -17.3559   23.1299 O   0  0  0  0  0  0  0  0  0  0  0  0
   12.2678  -17.6830   24.4561 C   0  0  0  0  0  0  0  0  0  0  0  0
   10.9698  -17.7090   25.2656 C   0  0  2  0  0  0  0  0  0  0  0  0
   10.2126  -16.4943   25.0503 N   0  0  0  0  0  0  0  0  0  0  0  0
   11.2596  -17.9283   26.7054 C   0  0  0  0  0  0  0  0  0  0  0  0
   11.9120  -19.0805   27.1155 O   0  0  0  0  0  0  0  0  0  0  0  0
   10.9361  -17.1023   27.5979 O   0  0  0  0  0  0  0  0  0  0  0  0
  1  2  1  0
  3  2  1  0
  3  4  2  0
  5  3  1  0
  6  5  1  0
  6 14  1  0
  6  7  1  1
  8  7  1  0
  9  8  2  0
 10  9  1  0
 11 10  2  0
 11 12  1  0
 12 13  2  0
 13  8  1  0
 14 19  1  0
 15 14  2  0
 17 16  1  0
 18 17  1  6
 18 20  1  0
 19 18  1  0
 20 22  2  0
 20 21  1  0
M  END
$$$$
