RKM.pdb
     RDKit          3D

 29 28  0  0  1  0  0  0  0  0999 V2000
   27.0766  -23.8343  -16.7885 N   0  0  0  0  0  0  0  0  0  0  0  0
   26.3905  -23.0270  -17.7342 C   0  0  0  0  0  0  0  0  0  0  0  0
   25.8651  -23.5736  -18.7519 N   0  0  0  0  0  0  0  0  0  0  0  0
   26.2916  -21.6311  -17.5473 N   0  0  0  0  0  0  0  0  0  0  0  0
   26.4659  -21.0555  -16.2580 C   0  0  0  0  0  0  0  0  0  0  0  0
   25.2029  -20.4754  -15.6511 C   0  0  0  0  0  0  0  0  0  0  0  0
   25.3790  -20.3663  -14.1593 C   0  0  0  0  0  0  0  0  0  0  0  0
   24.7051  -21.5155  -13.4272 C   0  0  2  0  0  0  0  0  0  0  0  0
   24.5436  -22.6608  -14.2669 N   0  0  0  0  0  0  0  0  0  0  0  0
   23.3927  -21.0566  -12.9371 C   0  0  0  0  0  0  0  0  0  0  0  0
   23.2446  -20.0097  -12.2429 O   0  0  0  0  0  0  0  0  0  0  0  0
   25.4591  -23.0847  -19.5777 N   0  0  0  0  0  0  0  0  0  0  0  0
   22.2350  -21.7971  -13.2400 C   0  0  2  0  0  0  0  0  0  0  0  0
   20.8957  -21.3621  -12.9025 C   0  0  0  0  0  0  0  0  0  0  0  0
   20.2032  -20.9373  -14.1788 C   0  0  0  0  0  0  0  0  0  0  0  0
   18.7905  -20.5043  -13.9550 C   0  0  0  0  0  0  0  0  0  0  0  0
   18.1833  -20.0508  -15.2444 C   0  0  0  0  0  0  0  0  0  0  0  0
   16.8088  -19.4813  -15.1107 N   0  0  0  0  0  0  0  0  0  0  0  0
   16.3417  -19.1861  -16.4752 C   0  0  0  0  0  0  0  0  0  0  0  0
   20.1563  -22.5687  -12.3937 O   0  0  0  0  0  0  0  0  0  0  0  0
   20.1485  -23.6469  -13.0376 C   0  0  0  0  0  0  0  0  0  0  0  0
   19.1391  -25.0709   -5.7497 S   0  0  0  0  0  0  0  0  0  0  0  0
   17.8447  -24.3648   -6.7413 C   0  0  0  0  0  0  0  0  0  0  0  0
   17.9164  -24.6328   -8.4888 C   0  0  0  0  0  0  0  0  0  0  0  0
   18.5356  -23.4888   -9.2184 C   0  0  2  0  0  0  0  0  0  0  0  0
   18.7684  -23.7110  -10.6762 N   0  0  0  0  0  0  0  0  0  0  0  0
   19.4532  -22.5060  -11.1715 C   0  0  0  0  0  0  0  0  0  0  0  0
   17.5076  -23.8729  -11.4255 O   0  0  0  0  0  0  0  0  0  0  0  0
   17.0279  -25.1771  -11.6777 O   0  0  0  0  0  0  0  0  0  0  0  0
  2  3  2  0
  2  1  1  0
  4  2  1  0
  5  4  1  0
  6  7  1  0
  6  5  1  0
  7  8  1  0
  8 10  1  0
  8  9  1  6
 10 12  1  0
 11 10  2  0
 12 13  1  0
 13 19  1  0
 13 14  1  1
 15 14  1  0
 16 17  1  0
 16 15  1  0
 18 17  1  0
 19 20  2  0
 19 26  1  0
 22 21  1  0
 23 22  1  0
 24 23  1  0
 25 24  1  1
 25 27  1  0
 26 25  1  0
 27 28  1  0
 29 27  2  0
M  END
$$$$
