RKM.pdb
     RDKit          3D

 29 28  0  0  1  0  0  0  0  0999 V2000
   28.3291  -21.1909   -9.9356 N   0  0  0  0  0  0  0  0  0  0  0  0
   29.0303  -21.6573  -11.0791 C   0  0  0  0  0  0  0  0  0  0  0  0
   30.2855  -21.4841  -11.1510 N   0  0  0  0  0  0  0  0  0  0  0  0
   28.3420  -22.3074  -12.1264 N   0  0  0  0  0  0  0  0  0  0  0  0
   27.4199  -21.5954  -12.9431 C   0  0  0  0  0  0  0  0  0  0  0  0
   27.0488  -20.2202  -12.4227 C   0  0  0  0  0  0  0  0  0  0  0  0
   25.5485  -20.0897  -12.4033 C   0  0  0  0  0  0  0  0  0  0  0  0
   24.9442  -20.3343  -13.7765 C   0  0  2  0  0  0  0  0  0  0  0  0
   25.5203  -19.4850  -14.7714 N   0  0  0  0  0  0  0  0  0  0  0  0
   23.4895  -20.1091  -13.6978 C   0  0  0  0  0  0  0  0  0  0  0  0
   22.9792  -19.0910  -13.1473 O   0  0  0  0  0  0  0  0  0  0  0  0
   30.9205  -21.8518  -11.8910 N   0  0  0  0  0  0  0  0  0  0  0  0
   22.6046  -21.0527  -14.2516 C   0  0  1  0  0  0  0  0  0  0  0  0
   21.1642  -20.9047  -14.2359 C   0  0  0  0  0  0  0  0  0  0  0  0
   20.7017  -20.6501  -15.6537 C   0  0  0  0  0  0  0  0  0  0  0  0
   19.2368  -20.3685  -15.7436 C   0  0  0  0  0  0  0  0  0  0  0  0
   18.8471  -20.1314  -17.1679 C   0  0  0  0  0  0  0  0  0  0  0  0
   17.4358  -19.6776  -17.3525 N   0  0  0  0  0  0  0  0  0  0  0  0
   17.2441  -19.4788  -18.7985 C   0  0  0  0  0  0  0  0  0  0  0  0
   20.5897  -22.2335  -13.8287 O   0  0  0  0  0  0  0  0  0  0  0  0
   21.0551  -23.3095  -14.2790 C   0  0  0  0  0  0  0  0  0  0  0  0
   19.3332  -24.4821   -7.1186 S   0  0  0  0  0  0  0  0  0  0  0  0
   18.4865  -23.7777   -8.5129 C   0  0  0  0  0  0  0  0  0  0  0  0
   19.1296  -24.1318  -10.1229 C   0  0  0  0  0  0  0  0  0  0  0  0
   18.3603  -23.4568  -11.2078 C   0  0  2  0  0  0  0  0  0  0  0  0
   18.9303  -23.6002  -12.5801 N   0  0  0  0  0  0  0  0  0  0  0  0
   19.5078  -22.2909  -12.9243 C   0  0  0  0  0  0  0  0  0  0  0  0
   17.8994  -23.9337  -13.5817 O   0  0  0  0  0  0  0  0  0  0  0  0
   17.6449  -25.2925  -13.8707 O   0  0  0  0  0  0  0  0  0  0  0  0
  2  3  2  0
  2  1  1  0
  4  2  1  0
  5  4  1  0
  6  7  1  0
  6  5  1  0
  7  8  1  0
  8 10  1  0
  8  9  1  6
 10 12  1  0
 11 10  2  0
 12 13  1  0
 13 19  1  0
 13 14  1  1
 15 14  1  0
 16 17  1  0
 16 15  1  0
 18 17  1  0
 19 20  2  0
 19 26  1  0
 22 21  1  0
 23 22  1  0
 24 23  1  0
 25 24  1  1
 25 27  1  0
 26 25  1  0
 27 28  1  0
 29 27  2  0
M  END
$$$$
