RKM.pdb
     RDKit          3D

 29 28  0  0  1  0  0  0  0  0999 V2000
   29.8075  -22.9027  -19.3035 N   0  0  0  0  0  0  0  0  0  0  0  0
   29.0325  -23.9165  -18.6803 C   0  0  0  0  0  0  0  0  0  0  0  0
   29.1006  -25.1063  -19.1165 N   0  0  0  0  0  0  0  0  0  0  0  0
   28.1945  -23.6079  -17.5868 N   0  0  0  0  0  0  0  0  0  0  0  0
   28.0861  -22.2728  -17.1073 C   0  0  0  0  0  0  0  0  0  0  0  0
   29.1211  -21.8912  -16.0666 C   0  0  0  0  0  0  0  0  0  0  0  0
   28.4771  -21.0027  -15.0349 C   0  0  0  0  0  0  0  0  0  0  0  0
   27.2891  -20.2458  -15.6063 C   0  0  2  0  0  0  0  0  0  0  0  0
   27.6994  -19.1270  -16.3955 N   0  0  0  0  0  0  0  0  0  0  0  0
   26.4374  -19.7948  -14.4908 C   0  0  0  0  0  0  0  0  0  0  0  0
   26.5462  -18.6517  -13.9601 O   0  0  0  0  0  0  0  0  0  0  0  0
   28.6109  -25.9389  -18.7253 N   0  0  0  0  0  0  0  0  0  0  0  0
   25.4505  -20.6536  -13.9725 C   0  0  2  0  0  0  0  0  0  0  0  0
   24.5361  -20.2761  -12.9151 C   0  0  0  0  0  0  0  0  0  0  0  0
   23.1597  -20.7886  -13.2779 C   0  0  0  0  0  0  0  0  0  0  0  0
   22.1330  -20.4785  -12.2372 C   0  0  0  0  0  0  0  0  0  0  0  0
   20.7842  -20.9328  -12.6967 C   0  0  0  0  0  0  0  0  0  0  0  0
   19.6748  -20.6295  -11.7434 N   0  0  0  0  0  0  0  0  0  0  0  0
   18.4275  -21.0502  -12.4026 C   0  0  0  0  0  0  0  0  0  0  0  0
   24.9602  -21.0214  -11.6797 O   0  0  0  0  0  0  0  0  0  0  0  0
   25.1765  -22.2582  -11.7076 C   0  0  0  0  0  0  0  0  0  0  0  0
   27.1262  -17.9123   -6.2399 S   0  0  0  0  0  0  0  0  0  0  0  0
   27.4670  -19.6420   -6.0185 C   0  0  0  0  0  0  0  0  0  0  0  0
   26.5681  -20.7867   -7.0248 C   0  0  0  0  0  0  0  0  0  0  0  0
   26.2494  -20.2355   -8.3735 C   0  0  1  0  0  0  0  0  0  0  0  0
   25.3914  -21.1041   -9.2327 N   0  0  0  0  0  0  0  0  0  0  0  0
   25.1235  -20.3339  -10.4580 C   0  0  0  0  0  0  0  0  0  0  0  0
   24.1018  -21.4253   -8.5917 O   0  0  0  0  0  0  0  0  0  0  0  0
   22.9460  -20.7218   -8.9967 O   0  0  0  0  0  0  0  0  0  0  0  0
  2  3  2  0
  2  1  1  0
  4  2  1  0
  5  4  1  0
  6  7  1  0
  6  5  1  0
  7  8  1  0
  8 10  1  0
  8  9  1  1
 10 12  1  0
 11 10  2  0
 12 13  1  0
 13 19  1  0
 13 14  1  6
 15 14  1  0
 16 17  1  0
 16 15  1  0
 18 17  1  0
 19 20  2  0
 19 26  1  0
 22 21  1  0
 23 22  1  0
 24 23  1  0
 25 24  1  6
 25 27  1  0
 26 25  1  0
 27 28  1  0
 29 27  2  0
M  END
$$$$
