RKM.pdb
     RDKit          3D

 29 28  0  0  1  0  0  0  0  0999 V2000
   27.7591  -19.4590  -15.8907 N   0  0  0  0  0  0  0  0  0  0  0  0
   27.8608  -20.6987  -15.2055 C   0  0  0  0  0  0  0  0  0  0  0  0
   28.6322  -21.5979  -15.6603 N   0  0  0  0  0  0  0  0  0  0  0  0
   27.1135  -20.9318  -14.0306 N   0  0  0  0  0  0  0  0  0  0  0  0
   25.6971  -21.0549  -14.0816 C   0  0  0  0  0  0  0  0  0  0  0  0
   25.0412  -20.3126  -15.2299 C   0  0  0  0  0  0  0  0  0  0  0  0
   23.6460  -20.8446  -15.4268 C   0  0  0  0  0  0  0  0  0  0  0  0
   23.2413  -21.7913  -14.3085 C   0  0  2  0  0  0  0  0  0  0  0  0
   23.9405  -23.0356  -14.3843 N   0  0  0  0  0  0  0  0  0  0  0  0
   21.7873  -22.0207  -14.3887 C   0  0  0  0  0  0  0  0  0  0  0  0
   21.2154  -22.4559  -15.4296 O   0  0  0  0  0  0  0  0  0  0  0  0
   28.8144  -22.5316  -15.2348 N   0  0  0  0  0  0  0  0  0  0  0  0
   20.9741  -21.7521  -13.2722 C   0  0  1  0  0  0  0  0  0  0  0  0
   19.5452  -21.9851  -13.2482 C   0  0  0  0  0  0  0  0  0  0  0  0
   19.1311  -22.2230  -11.8126 C   0  0  0  0  0  0  0  0  0  0  0  0
   18.9573  -23.6723  -11.4922 C   0  0  0  0  0  0  0  0  0  0  0  0
   18.7856  -23.8540  -10.0176 C   0  0  0  0  0  0  0  0  0  0  0  0
   18.6702  -25.2783   -9.5823 N   0  0  0  0  0  0  0  0  0  0  0  0
   18.6269  -25.2658   -8.1108 C   0  0  0  0  0  0  0  0  0  0  0  0
   18.8832  -20.7056  -13.6798 O   0  0  0  0  0  0  0  0  0  0  0  0
   19.2147  -19.6012  -13.1822 C   0  0  0  0  0  0  0  0  0  0  0  0
   18.1894  -18.2806  -19.5475 S   0  0  0  0  0  0  0  0  0  0  0  0
   16.5680  -18.1507  -18.8324 C   0  0  0  0  0  0  0  0  0  0  0  0
   16.4449  -18.2273  -17.0689 C   0  0  0  0  0  0  0  0  0  0  0  0
   17.1863  -19.3864  -16.4932 C   0  0  1  0  0  0  0  0  0  0  0  0
   17.1752  -19.4759  -15.0030 N   0  0  0  0  0  0  0  0  0  0  0  0
   17.8693  -20.7280  -14.6613 C   0  0  0  0  0  0  0  0  0  0  0  0
   15.8059  -19.5370  -14.4567 O   0  0  0  0  0  0  0  0  0  0  0  0
   15.0749  -18.3369  -14.3152 O   0  0  0  0  0  0  0  0  0  0  0  0
  2  3  2  0
  2  1  1  0
  4  2  1  0
  5  4  1  0
  6  7  1  0
  6  5  1  0
  7  8  1  0
  8 10  1  0
  8  9  1  6
 10 12  1  0
 11 10  2  0
 12 13  1  0
 13 19  1  0
 13 14  1  6
 15 14  1  0
 16 17  1  0
 16 15  1  0
 18 17  1  0
 19 20  2  0
 19 26  1  0
 22 21  1  0
 23 22  1  0
 24 23  1  0
 25 24  1  1
 25 27  1  0
 26 25  1  0
 27 28  1  0
 29 27  2  0
M  END
$$$$
