RKM.pdb
     RDKit          3D

 29 28  0  0  1  0  0  0  0  0999 V2000
   19.3766  -26.6688  -10.7347 N   0  0  0  0  0  0  0  0  0  0  0  0
   19.4338  -25.2500  -10.7183 C   0  0  0  0  0  0  0  0  0  0  0  0
   19.7778  -24.6304  -11.7711 N   0  0  0  0  0  0  0  0  0  0  0  0
   19.1119  -24.5330   -9.5455 N   0  0  0  0  0  0  0  0  0  0  0  0
   18.2328  -25.0859   -8.5730 C   0  0  0  0  0  0  0  0  0  0  0  0
   17.8437  -24.1315   -7.4605 C   0  0  0  0  0  0  0  0  0  0  0  0
   17.8163  -24.8822   -6.1552 C   0  0  0  0  0  0  0  0  0  0  0  0
   16.7762  -25.9908   -6.1648 C   0  0  2  0  0  0  0  0  0  0  0  0
   15.4452  -25.4725   -6.2158 N   0  0  0  0  0  0  0  0  0  0  0  0
   16.9541  -26.8140   -4.9549 C   0  0  0  0  0  0  0  0  0  0  0  0
   16.4707  -26.4974   -3.8297 O   0  0  0  0  0  0  0  0  0  0  0  0
   19.8428  -23.5970  -11.8888 N   0  0  0  0  0  0  0  0  0  0  0  0
   17.6902  -28.0112   -5.0253 C   0  0  2  0  0  0  0  0  0  0  0  0
   17.7900  -28.9548   -3.9316 C   0  0  0  0  0  0  0  0  0  0  0  0
   18.0965  -30.3178   -4.5124 C   0  0  0  0  0  0  0  0  0  0  0  0
   16.9174  -30.9375   -5.1899 C   0  0  0  0  0  0  0  0  0  0  0  0
   17.2931  -32.2705   -5.7545 C   0  0  0  0  0  0  0  0  0  0  0  0
   16.2365  -32.8995   -6.6028 N   0  0  0  0  0  0  0  0  0  0  0  0
   16.7655  -34.2036   -7.0347 C   0  0  0  0  0  0  0  0  0  0  0  0
   18.9882  -28.5567   -3.1147 O   0  0  0  0  0  0  0  0  0  0  0  0
   19.7864  -27.6746   -3.5170 C   0  0  0  0  0  0  0  0  0  0  0  0
   20.7529  -24.2038    2.3322 S   0  0  0  0  0  0  0  0  0  0  0  0
   19.8703  -25.1191    1.0911 C   0  0  0  0  0  0  0  0  0  0  0  0
   20.5790  -26.6453    0.5437 C   0  0  0  0  0  0  0  0  0  0  0  0
   19.7824  -27.2901   -0.5399 C   0  0  1  0  0  0  0  0  0  0  0  0
   20.2786  -28.6240   -0.9908 N   0  0  0  0  0  0  0  0  0  0  0  0
   19.2350  -29.1751   -1.8703 C   0  0  0  0  0  0  0  0  0  0  0  0
   20.4799  -29.5556    0.1356 O   0  0  0  0  0  0  0  0  0  0  0  0
   19.4516  -30.4693    0.4557 O   0  0  0  0  0  0  0  0  0  0  0  0
  2  3  2  0
  2  1  1  0
  4  2  1  0
  5  4  1  0
  6  7  1  0
  6  5  1  0
  7  8  1  0
  8 10  1  0
  8  9  1  1
 10 12  1  0
 11 10  2  0
 12 13  1  0
 13 19  1  0
 13 14  1  6
 15 14  1  0
 16 17  1  0
 16 15  1  0
 18 17  1  0
 19 20  2  0
 19 26  1  0
 22 21  1  0
 23 22  1  0
 24 23  1  0
 25 24  1  6
 25 27  1  0
 26 25  1  0
 27 28  1  0
 29 27  2  0
M  END
$$$$
