RKM.pdb
     RDKit          3D

 29 28  0  0  1  0  0  0  0  0999 V2000
   23.1912  -25.1299  -13.1207 N   0  0  0  0  0  0  0  0  0  0  0  0
   21.8661  -24.6547  -13.3079 C   0  0  0  0  0  0  0  0  0  0  0  0
   20.8907  -25.4437  -13.1162 N   0  0  0  0  0  0  0  0  0  0  0  0
   21.6324  -23.3195  -13.7026 N   0  0  0  0  0  0  0  0  0  0  0  0
   22.7167  -22.4514  -14.0107 C   0  0  0  0  0  0  0  0  0  0  0  0
   23.3379  -21.7679  -12.8079 C   0  0  0  0  0  0  0  0  0  0  0  0
   24.3859  -20.7954  -13.2814 C   0  0  0  0  0  0  0  0  0  0  0  0
   25.6804  -21.4998  -13.6541 C   0  0  2  0  0  0  0  0  0  0  0  0
   26.8013  -20.9646  -12.9469 N   0  0  0  0  0  0  0  0  0  0  0  0
   25.8872  -21.3671  -15.1077 C   0  0  0  0  0  0  0  0  0  0  0  0
   26.0535  -20.2515  -15.6803 O   0  0  0  0  0  0  0  0  0  0  0  0
   19.8786  -25.2081  -13.1932 N   0  0  0  0  0  0  0  0  0  0  0  0
   25.9050  -22.5163  -15.9196 C   0  0  2  0  0  0  0  0  0  0  0  0
   26.1242  -22.4820  -17.3504 C   0  0  0  0  0  0  0  0  0  0  0  0
   26.9668  -23.6809  -17.7264 C   0  0  0  0  0  0  0  0  0  0  0  0
   28.3802  -23.5668  -17.2546 C   0  0  0  0  0  0  0  0  0  0  0  0
   29.1756  -24.7404  -17.7308 C   0  0  0  0  0  0  0  0  0  0  0  0
   30.6373  -24.6544  -17.4342 N   0  0  0  0  0  0  0  0  0  0  0  0
   31.2407  -25.9022  -17.9302 C   0  0  0  0  0  0  0  0  0  0  0  0
   24.7846  -22.6760  -18.0057 O   0  0  0  0  0  0  0  0  0  0  0  0
   23.8101  -23.1465  -17.3683 C   0  0  0  0  0  0  0  0  0  0  0  0
   18.3885  -19.8723  -19.2393 S   0  0  0  0  0  0  0  0  0  0  0  0
   20.0498  -20.2080  -18.7057 C   0  0  0  0  0  0  0  0  0  0  0  0
   20.9711  -21.4147  -19.6146 C   0  0  0  0  0  0  0  0  0  0  0  0
   22.3722  -21.5547  -19.1226 C   0  0  1  0  0  0  0  0  0  0  0  0
   23.2563  -22.4272  -19.9508 N   0  0  0  0  0  0  0  0  0  0  0  0
   24.6012  -22.3276  -19.3610 C   0  0  0  0  0  0  0  0  0  0  0  0
   23.3278  -21.9790  -21.3547 O   0  0  0  0  0  0  0  0  0  0  0  0
   22.3838  -22.4795  -22.2783 O   0  0  0  0  0  0  0  0  0  0  0  0
  2  3  2  0
  2  1  1  0
  4  2  1  0
  5  4  1  0
  6  7  1  0
  6  5  1  0
  7  8  1  0
  8 10  1  0
  8  9  1  1
 10 12  1  0
 11 10  2  0
 12 13  1  0
 13 19  1  0
 13 14  1  1
 15 14  1  0
 16 17  1  0
 16 15  1  0
 18 17  1  0
 19 20  2  0
 19 26  1  0
 22 21  1  0
 23 22  1  0
 24 23  1  0
 25 24  1  1
 25 27  1  0
 26 25  1  0
 27 28  1  0
 29 27  2  0
M  END
$$$$
