RKM.pdb
     RDKit          3D

 29 28  0  0  1  0  0  0  0  0999 V2000
   27.0190  -21.5477  -11.5569 N   0  0  0  0  0  0  0  0  0  0  0  0
   26.1797  -20.4172  -11.7414 C   0  0  0  0  0  0  0  0  0  0  0  0
   25.0381  -20.3944  -11.1874 N   0  0  0  0  0  0  0  0  0  0  0  0
   26.6072  -19.3283  -12.5318 N   0  0  0  0  0  0  0  0  0  0  0  0
   27.8654  -19.3605  -13.1953 C   0  0  0  0  0  0  0  0  0  0  0  0
   27.8242  -18.9198  -14.6458 C   0  0  0  0  0  0  0  0  0  0  0  0
   26.5181  -19.3560  -15.2557 C   0  0  0  0  0  0  0  0  0  0  0  0
   26.6044  -20.7628  -15.8251 C   0  0  2  0  0  0  0  0  0  0  0  0
   27.4243  -20.8151  -16.9947 N   0  0  0  0  0  0  0  0  0  0  0  0
   25.2414  -21.2280  -16.1398 C   0  0  0  0  0  0  0  0  0  0  0  0
   24.7058  -21.0723  -17.2751 O   0  0  0  0  0  0  0  0  0  0  0  0
   24.3060  -19.6625  -11.3062 N   0  0  0  0  0  0  0  0  0  0  0  0
   24.4785  -21.8778  -15.1519 C   0  0  2  0  0  0  0  0  0  0  0  0
   23.2075  -22.5194  -15.4155 C   0  0  0  0  0  0  0  0  0  0  0  0
   23.0802  -23.7096  -14.4903 C   0  0  0  0  0  0  0  0  0  0  0  0
   21.7979  -24.4541  -14.6767 C   0  0  0  0  0  0  0  0  0  0  0  0
   22.0472  -25.7244  -15.4257 C   0  0  0  0  0  0  0  0  0  0  0  0
   22.0149  -26.9546  -14.5788 N   0  0  0  0  0  0  0  0  0  0  0  0
   22.1353  -28.0996  -15.4963 C   0  0  0  0  0  0  0  0  0  0  0  0
   22.1323  -21.5472  -15.0152 O   0  0  0  0  0  0  0  0  0  0  0  0
   22.1316  -21.0080  -13.8810 C   0  0  0  0  0  0  0  0  0  0  0  0
   19.7111  -16.1211  -18.0829 S   0  0  0  0  0  0  0  0  0  0  0  0
   20.7332  -17.5158  -18.4916 C   0  0  0  0  0  0  0  0  0  0  0  0
   21.0875  -18.6743  -17.2019 C   0  0  0  0  0  0  0  0  0  0  0  0
   19.8618  -19.3511  -16.6879 C   0  0  2  0  0  0  0  0  0  0  0  0
   20.0718  -20.2483  -15.5133 N   0  0  0  0  0  0  0  0  0  0  0  0
   21.0977  -21.2228  -15.9186 C   0  0  0  0  0  0  0  0  0  0  0  0
   18.8471  -20.9849  -15.1462 O   0  0  0  0  0  0  0  0  0  0  0  0
   17.8255  -20.3031  -14.4490 O   0  0  0  0  0  0  0  0  0  0  0  0
  2  3  2  0
  2  1  1  0
  4  2  1  0
  5  4  1  0
  6  7  1  0
  6  5  1  0
  7  8  1  0
  8 10  1  0
  8  9  1  6
 10 12  1  0
 11 10  2  0
 12 13  1  0
 13 19  1  0
 13 14  1  1
 15 14  1  0
 16 17  1  0
 16 15  1  0
 18 17  1  0
 19 20  2  0
 19 26  1  0
 22 21  1  0
 23 22  1  0
 24 23  1  0
 25 24  1  1
 25 27  1  0
 26 25  1  0
 27 28  1  0
 29 27  2  0
M  END
$$$$
