RKM.pdb
     RDKit          3D

 29 28  0  0  1  0  0  0  0  0999 V2000
   28.9777  -20.6471  -16.7820 N   0  0  0  0  0  0  0  0  0  0  0  0
   28.0568  -19.5717  -16.6713 C   0  0  0  0  0  0  0  0  0  0  0  0
   27.7436  -18.9131  -17.7099 N   0  0  0  0  0  0  0  0  0  0  0  0
   27.4935  -19.2362  -15.4210 N   0  0  0  0  0  0  0  0  0  0  0  0
   27.7766  -20.0133  -14.2633 C   0  0  0  0  0  0  0  0  0  0  0  0
   26.8585  -21.2036  -14.0634 C   0  0  0  0  0  0  0  0  0  0  0  0
   25.4957  -20.7106  -13.6535 C   0  0  0  0  0  0  0  0  0  0  0  0
   24.5531  -21.8600  -13.3359 C   0  0  2  0  0  0  0  0  0  0  0  0
   24.3025  -22.6762  -14.4822 N   0  0  0  0  0  0  0  0  0  0  0  0
   23.2880  -21.3036  -12.8230 C   0  0  0  0  0  0  0  0  0  0  0  0
   23.2185  -20.6111  -11.7668 O   0  0  0  0  0  0  0  0  0  0  0  0
   27.1175  -18.0811  -17.7508 N   0  0  0  0  0  0  0  0  0  0  0  0
   22.0877  -21.5376  -13.5192 C   0  0  1  0  0  0  0  0  0  0  0  0
   20.8146  -20.9648  -13.1347 C   0  0  0  0  0  0  0  0  0  0  0  0
   20.1975  -20.3247  -14.3587 C   0  0  0  0  0  0  0  0  0  0  0  0
   20.6756  -18.9270  -14.5852 C   0  0  0  0  0  0  0  0  0  0  0  0
   19.9183  -18.3031  -15.7140 C   0  0  0  0  0  0  0  0  0  0  0  0
   20.3759  -16.9279  -16.0763 N   0  0  0  0  0  0  0  0  0  0  0  0
   19.6428  -16.5487  -17.2953 C   0  0  0  0  0  0  0  0  0  0  0  0
   19.9165  -22.1075  -12.7484 O   0  0  0  0  0  0  0  0  0  0  0  0
   19.9113  -23.1805  -13.4008 C   0  0  0  0  0  0  0  0  0  0  0  0
   18.7287  -24.2409   -6.7267 S   0  0  0  0  0  0  0  0  0  0  0  0
   17.1458  -24.2701   -7.5333 C   0  0  0  0  0  0  0  0  0  0  0  0
   17.1290  -24.2028   -9.3014 C   0  0  0  0  0  0  0  0  0  0  0  0
   18.1276  -23.2385   -9.8470 C   0  0  1  0  0  0  0  0  0  0  0  0
   18.1221  -23.0841  -11.3319 N   0  0  0  0  0  0  0  0  0  0  0  0
   19.0577  -21.9891  -11.6348 C   0  0  0  0  0  0  0  0  0  0  0  0
   16.7904  -22.7175  -11.8509 O   0  0  0  0  0  0  0  0  0  0  0  0
   15.8343  -23.7369  -12.0540 O   0  0  0  0  0  0  0  0  0  0  0  0
  2  3  2  0
  2  1  1  0
  4  2  1  0
  5  4  1  0
  6  7  1  0
  6  5  1  0
  7  8  1  0
  8 10  1  0
  8  9  1  6
 10 12  1  0
 11 10  2  0
 12 13  1  0
 13 19  1  0
 13 14  1  1
 15 14  1  0
 16 17  1  0
 16 15  1  0
 18 17  1  0
 19 20  2  0
 19 26  1  0
 22 21  1  0
 23 22  1  0
 24 23  1  0
 25 24  1  6
 25 27  1  0
 26 25  1  0
 27 28  1  0
 29 27  2  0
M  END
$$$$
