RKM.pdb
     RDKit          3D

 29 28  0  0  1  0  0  0  0  0999 V2000
   23.2577  -18.4145  -16.7889 N   0  0  0  0  0  0  0  0  0  0  0  0
   21.8526  -18.3009  -16.9609 C   0  0  0  0  0  0  0  0  0  0  0  0
   21.3794  -18.1651  -18.1306 N   0  0  0  0  0  0  0  0  0  0  0  0
   20.9885  -18.3384  -15.8451 N   0  0  0  0  0  0  0  0  0  0  0  0
   21.4926  -18.6126  -14.5433 C   0  0  0  0  0  0  0  0  0  0  0  0
   21.9339  -20.0474  -14.3279 C   0  0  0  0  0  0  0  0  0  0  0  0
   20.7454  -20.8694  -13.9036 C   0  0  0  0  0  0  0  0  0  0  0  0
   21.1464  -22.2862  -13.5262 C   0  0  2  0  0  0  0  0  0  0  0  0
   21.6308  -23.0210  -14.6524 N   0  0  0  0  0  0  0  0  0  0  0  0
   19.9768  -22.9668  -12.9413 C   0  0  0  0  0  0  0  0  0  0  0  0
   19.0130  -23.3993  -13.6370 O   0  0  0  0  0  0  0  0  0  0  0  0
   20.3790  -18.0150  -18.3809 N   0  0  0  0  0  0  0  0  0  0  0  0
   19.9023  -23.1577  -11.5492 C   0  0  2  0  0  0  0  0  0  0  0  0
   18.7597  -23.7458  -10.8820 C   0  0  0  0  0  0  0  0  0  0  0  0
   19.1732  -24.1096   -9.4729 C   0  0  0  0  0  0  0  0  0  0  0  0
   18.0345  -24.6138   -8.6467 C   0  0  0  0  0  0  0  0  0  0  0  0
   18.5303  -25.0572   -7.3072 C   0  0  0  0  0  0  0  0  0  0  0  0
   17.4807  -25.6585   -6.4306 N   0  0  0  0  0  0  0  0  0  0  0  0
   18.0814  -25.8028   -5.0943 C   0  0  0  0  0  0  0  0  0  0  0  0
   17.7186  -22.6675  -10.7593 O   0  0  0  0  0  0  0  0  0  0  0  0
   18.0272  -21.4527  -10.8384 C   0  0  0  0  0  0  0  0  0  0  0  0
   17.5418  -21.7615  -15.5889 S   0  0  0  0  0  0  0  0  0  0  0  0
   15.8308  -21.4377  -15.2356 C   0  0  0  0  0  0  0  0  0  0  0  0
   15.3788  -21.1927  -13.5425 C   0  0  0  0  0  0  0  0  0  0  0  0
   15.5890  -22.4134  -12.7116 C   0  0  2  0  0  0  0  0  0  0  0  0
   15.3184  -22.2481  -11.2527 N   0  0  0  0  0  0  0  0  0  0  0  0
   16.3651  -23.0091  -10.5517 C   0  0  0  0  0  0  0  0  0  0  0  0
   14.0040  -22.7934  -10.8626 O   0  0  0  0  0  0  0  0  0  0  0  0
   13.1293  -21.9850  -10.1036 O   0  0  0  0  0  0  0  0  0  0  0  0
  2  3  2  0
  2  1  1  0
  4  2  1  0
  5  4  1  0
  6  7  1  0
  6  5  1  0
  7  8  1  0
  8 10  1  0
  8  9  1  6
 10 12  1  0
 11 10  2  0
 12 13  1  0
 13 19  1  0
 13 14  1  1
 15 14  1  0
 16 17  1  0
 16 15  1  0
 18 17  1  0
 19 20  2  0
 19 26  1  0
 22 21  1  0
 23 22  1  0
 24 23  1  0
 25 24  1  1
 25 27  1  0
 26 25  1  0
 27 28  1  0
 29 27  2  0
M  END
$$$$
