RKM.pdb
     RDKit          3D

 29 28  0  0  1  0  0  0  0  0999 V2000
   22.4618  -20.7572  -18.8963 N   0  0  0  0  0  0  0  0  0  0  0  0
   22.1290  -20.7376  -20.2767 C   0  0  0  0  0  0  0  0  0  0  0  0
   22.1417  -21.8232  -20.9338 N   0  0  0  0  0  0  0  0  0  0  0  0
   21.7869  -19.5254  -20.9145 N   0  0  0  0  0  0  0  0  0  0  0  0
   21.2278  -18.4465  -20.1745 C   0  0  0  0  0  0  0  0  0  0  0  0
   19.7159  -18.4771  -20.0610 C   0  0  0  0  0  0  0  0  0  0  0  0
   19.2507  -17.2353  -19.3469 C   0  0  0  0  0  0  0  0  0  0  0  0
   17.7440  -17.2323  -19.1461 C   0  0  2  0  0  0  0  0  0  0  0  0
   17.1343  -18.4153  -19.6673 N   0  0  0  0  0  0  0  0  0  0  0  0
   17.1833  -16.0395  -19.8065 C   0  0  0  0  0  0  0  0  0  0  0  0
   16.7698  -16.0448  -21.0019 O   0  0  0  0  0  0  0  0  0  0  0  0
   21.9295  -21.9364  -21.9478 N   0  0  0  0  0  0  0  0  0  0  0  0
   17.0918  -14.8264  -19.0992 C   0  0  1  0  0  0  0  0  0  0  0  0
   16.5166  -13.6184  -19.6531 C   0  0  0  0  0  0  0  0  0  0  0  0
   15.3291  -13.2287  -18.8006 C   0  0  0  0  0  0  0  0  0  0  0  0
   14.1111  -14.0422  -19.0968 C   0  0  0  0  0  0  0  0  0  0  0  0
   12.9896  -13.6323  -18.1962 C   0  0  0  0  0  0  0  0  0  0  0  0
   11.7004  -14.3406  -18.4570 N   0  0  0  0  0  0  0  0  0  0  0  0
   10.7279  -13.8145  -17.4851 C   0  0  0  0  0  0  0  0  0  0  0  0
   17.5396  -12.5285  -19.4888 O   0  0  0  0  0  0  0  0  0  0  0  0
   18.2189  -12.4263  -18.4375 C   0  0  0  0  0  0  0  0  0  0  0  0
   21.9886  -10.1216  -24.7548 S   0  0  0  0  0  0  0  0  0  0  0  0
   20.4652   -9.7406  -23.9234 C   0  0  0  0  0  0  0  0  0  0  0  0
   20.2351  -10.4005  -22.2978 C   0  0  0  0  0  0  0  0  0  0  0  0
   18.9830   -9.9097  -21.6528 C   0  0  2  0  0  0  0  0  0  0  0  0
   18.6913  -10.4820  -20.3052 N   0  0  0  0  0  0  0  0  0  0  0  0
   17.7535  -11.5949  -20.5254 C   0  0  0  0  0  0  0  0  0  0  0  0
   18.0500   -9.5016  -19.4082 O   0  0  0  0  0  0  0  0  0  0  0  0
   16.7218   -9.1020  -19.6743 O   0  0  0  0  0  0  0  0  0  0  0  0
  2  3  2  0
  2  1  1  0
  4  2  1  0
  5  4  1  0
  6  7  1  0
  6  5  1  0
  7  8  1  0
  8 10  1  0
  8  9  1  6
 10 12  1  0
 11 10  2  0
 12 13  1  0
 13 19  1  0
 13 14  1  6
 15 14  1  0
 16 17  1  0
 16 15  1  0
 18 17  1  0
 19 20  2  0
 19 26  1  0
 22 21  1  0
 23 22  1  0
 24 23  1  0
 25 24  1  6
 25 27  1  0
 26 25  1  0
 27 28  1  0
 29 27  2  0
M  END
$$$$
