RKM.pdb
     RDKit          3D

 29 28  0  0  1  0  0  0  0  0999 V2000
   25.5619  -24.2880  -15.2376 N   0  0  0  0  0  0  0  0  0  0  0  0
   26.4898  -24.7077  -16.2274 C   0  0  0  0  0  0  0  0  0  0  0  0
   26.3613  -25.8563  -16.7515 N   0  0  0  0  0  0  0  0  0  0  0  0
   27.5449  -23.8589  -16.6268 N   0  0  0  0  0  0  0  0  0  0  0  0
   27.7250  -22.5859  -16.0175 C   0  0  0  0  0  0  0  0  0  0  0  0
   28.1444  -21.4844  -16.9718 C   0  0  0  0  0  0  0  0  0  0  0  0
   27.1485  -21.4039  -18.0987 C   0  0  0  0  0  0  0  0  0  0  0  0
   26.7968  -19.9644  -18.4376 C   0  0  2  0  0  0  0  0  0  0  0  0
   27.9408  -19.2234  -18.8681 N   0  0  0  0  0  0  0  0  0  0  0  0
   26.2016  -19.3320  -17.2464 C   0  0  0  0  0  0  0  0  0  0  0  0
   26.8151  -18.4811  -16.5396 O   0  0  0  0  0  0  0  0  0  0  0  0
   27.0231  -26.3126  -17.4147 N   0  0  0  0  0  0  0  0  0  0  0  0
   24.8934  -19.6712  -16.8543 C   0  0  2  0  0  0  0  0  0  0  0  0
   24.1965  -19.0345  -15.7563 C   0  0  0  0  0  0  0  0  0  0  0  0
   22.7467  -18.8649  -16.1541 C   0  0  0  0  0  0  0  0  0  0  0  0
   22.1726  -20.0903  -16.7882 C   0  0  0  0  0  0  0  0  0  0  0  0
   20.7719  -19.8248  -17.2404 C   0  0  0  0  0  0  0  0  0  0  0  0
   20.0822  -21.0092  -17.8347 N   0  0  0  0  0  0  0  0  0  0  0  0
   18.7180  -20.5735  -18.1758 C   0  0  0  0  0  0  0  0  0  0  0  0
   24.2155  -20.0003  -14.6038 O   0  0  0  0  0  0  0  0  0  0  0  0
   24.1146  -21.2382  -14.7900 C   0  0  0  0  0  0  0  0  0  0  0  0
   26.8136  -20.9913   -7.2369 S   0  0  0  0  0  0  0  0  0  0  0  0
   26.4710  -20.0501   -8.7046 C   0  0  0  0  0  0  0  0  0  0  0  0
   25.3356  -20.7423   -9.8720 C   0  0  0  0  0  0  0  0  0  0  0  0
   25.2507  -19.9450  -11.1296 C   0  0  1  0  0  0  0  0  0  0  0  0
   24.3243  -20.4858  -12.1680 N   0  0  0  0  0  0  0  0  0  0  0  0
   24.3491  -19.5242  -13.2820 C   0  0  0  0  0  0  0  0  0  0  0  0
   22.9372  -20.5961  -11.6770 O   0  0  0  0  0  0  0  0  0  0  0  0
   22.5364  -21.7856  -11.0297 O   0  0  0  0  0  0  0  0  0  0  0  0
  2  3  2  0
  2  1  1  0
  4  2  1  0
  5  4  1  0
  6  7  1  0
  6  5  1  0
  7  8  1  0
  8 10  1  0
  8  9  1  1
 10 12  1  0
 11 10  2  0
 12 13  1  0
 13 19  1  0
 13 14  1  6
 15 14  1  0
 16 17  1  0
 16 15  1  0
 18 17  1  0
 19 20  2  0
 19 26  1  0
 22 21  1  0
 23 22  1  0
 24 23  1  0
 25 24  1  6
 25 27  1  0
 26 25  1  0
 27 28  1  0
 29 27  2  0
M  END
$$$$
