RKM.pdb
     RDKit          3D

 29 28  0  0  1  0  0  0  0  0999 V2000
   27.1648  -25.2380  -16.0577 N   0  0  0  0  0  0  0  0  0  0  0  0
   25.9730  -25.9266  -15.7081 C   0  0  0  0  0  0  0  0  0  0  0  0
   26.0266  -27.1676  -15.4478 N   0  0  0  0  0  0  0  0  0  0  0  0
   24.7400  -25.2414  -15.6496 N   0  0  0  0  0  0  0  0  0  0  0  0
   24.6776  -23.8364  -15.8645 C   0  0  0  0  0  0  0  0  0  0  0  0
   25.0782  -22.9974  -14.6664 C   0  0  0  0  0  0  0  0  0  0  0  0
   23.8365  -22.5575  -13.9363 C   0  0  0  0  0  0  0  0  0  0  0  0
   22.9367  -21.7066  -14.8177 C   0  0  2  0  0  0  0  0  0  0  0  0
   23.4695  -20.3949  -15.0147 N   0  0  0  0  0  0  0  0  0  0  0  0
   21.6049  -21.6243  -14.1909 C   0  0  0  0  0  0  0  0  0  0  0  0
   21.3405  -20.8370  -13.2368 O   0  0  0  0  0  0  0  0  0  0  0  0
   25.2227  -27.7860  -15.2085 N   0  0  0  0  0  0  0  0  0  0  0  0
   20.5616  -22.4470  -14.6544 C   0  0  2  0  0  0  0  0  0  0  0  0
   19.2428  -22.4796  -14.0576 C   0  0  0  0  0  0  0  0  0  0  0  0
   18.2294  -22.6672  -15.1652 C   0  0  0  0  0  0  0  0  0  0  0  0
   17.9633  -21.4091  -15.9264 C   0  0  0  0  0  0  0  0  0  0  0  0
   17.0594  -21.6920  -17.0839 C   0  0  0  0  0  0  0  0  0  0  0  0
   16.7830  -20.5085  -17.9526 N   0  0  0  0  0  0  0  0  0  0  0  0
   16.0391  -19.5445  -17.1251 C   0  0  0  0  0  0  0  0  0  0  0  0
   19.1774  -23.7146  -13.2019 O   0  0  0  0  0  0  0  0  0  0  0  0
   20.2220  -24.2930  -12.8128 C   0  0  0  0  0  0  0  0  0  0  0  0
   19.0943  -25.6459   -6.3835 S   0  0  0  0  0  0  0  0  0  0  0  0
   18.9417  -24.6967   -7.8777 C   0  0  0  0  0  0  0  0  0  0  0  0
   18.3879  -25.5431   -9.3297 C   0  0  0  0  0  0  0  0  0  0  0  0
   18.4584  -24.6902  -10.5512 C   0  0  1  0  0  0  0  0  0  0  0  0
   17.8807  -25.2954  -11.7876 N   0  0  0  0  0  0  0  0  0  0  0  0
   17.9275  -24.2466  -12.8192 C   0  0  0  0  0  0  0  0  0  0  0  0
   16.4759  -25.7078  -11.6045 O   0  0  0  0  0  0  0  0  0  0  0  0
   16.2044  -27.0143  -11.1418 O   0  0  0  0  0  0  0  0  0  0  0  0
  2  3  2  0
  2  1  1  0
  4  2  1  0
  5  4  1  0
  6  7  1  0
  6  5  1  0
  7  8  1  0
  8 10  1  0
  8  9  1  1
 10 12  1  0
 11 10  2  0
 12 13  1  0
 13 19  1  0
 13 14  1  6
 15 14  1  0
 16 17  1  0
 16 15  1  0
 18 17  1  0
 19 20  2  0
 19 26  1  0
 22 21  1  0
 23 22  1  0
 24 23  1  0
 25 24  1  6
 25 27  1  0
 26 25  1  0
 27 28  1  0
 29 27  2  0
M  END
$$$$
