RKM.pdb
     RDKit          3D

 29 28  0  0  1  0  0  0  0  0999 V2000
   21.1836  -28.0972  -16.1786 N   0  0  0  0  0  0  0  0  0  0  0  0
   22.1939  -29.0952  -16.1744 C   0  0  0  0  0  0  0  0  0  0  0  0
   21.9157  -30.2584  -15.7500 N   0  0  0  0  0  0  0  0  0  0  0  0
   23.4948  -28.8003  -16.6370 N   0  0  0  0  0  0  0  0  0  0  0  0
   23.8546  -27.4723  -16.9990 C   0  0  0  0  0  0  0  0  0  0  0  0
   23.9428  -26.5041  -15.8352 C   0  0  0  0  0  0  0  0  0  0  0  0
   24.2744  -25.1321  -16.3605 C   0  0  0  0  0  0  0  0  0  0  0  0
   25.7715  -24.9476  -16.5483 C   0  0  2  0  0  0  0  0  0  0  0  0
   26.4832  -26.1781  -16.3982 N   0  0  0  0  0  0  0  0  0  0  0  0
   26.2516  -23.9606  -15.5641 C   0  0  0  0  0  0  0  0  0  0  0  0
   26.9329  -24.2782  -14.5468 O   0  0  0  0  0  0  0  0  0  0  0  0
   22.5660  -31.0710  -15.6977 N   0  0  0  0  0  0  0  0  0  0  0  0
   25.9533  -22.5966  -15.7387 C   0  0  2  0  0  0  0  0  0  0  0  0
   26.4740  -21.5480  -14.8867 C   0  0  0  0  0  0  0  0  0  0  0  0
   26.2734  -20.2249  -15.5924 C   0  0  0  0  0  0  0  0  0  0  0  0
   26.7375  -19.0590  -14.7808 C   0  0  0  0  0  0  0  0  0  0  0  0
   26.5091  -17.7872  -15.5339 C   0  0  0  0  0  0  0  0  0  0  0  0
   27.0371  -16.5662  -14.8542 N   0  0  0  0  0  0  0  0  0  0  0  0
   26.7648  -15.4334  -15.7542 C   0  0  0  0  0  0  0  0  0  0  0  0
   25.6118  -21.5129  -13.6550 O   0  0  0  0  0  0  0  0  0  0  0  0
   24.3628  -21.6201  -13.7315 C   0  0  0  0  0  0  0  0  0  0  0  0
   27.4945  -18.9144   -7.5271 S   0  0  0  0  0  0  0  0  0  0  0  0
   26.6314  -20.4629   -7.4072 C   0  0  0  0  0  0  0  0  0  0  0  0
   25.5232  -20.8838   -8.7208 C   0  0  0  0  0  0  0  0  0  0  0  0
   26.2119  -20.9868  -10.0398 C   0  0  1  0  0  0  0  0  0  0  0  0
   25.3400  -21.3752  -11.1877 N   0  0  0  0  0  0  0  0  0  0  0  0
   26.2004  -21.3578  -12.3817 C   0  0  0  0  0  0  0  0  0  0  0  0
   24.2327  -20.4226  -11.3961 O   0  0  0  0  0  0  0  0  0  0  0  0
   24.4604  -19.2766  -12.1896 O   0  0  0  0  0  0  0  0  0  0  0  0
  2  3  2  0
  2  1  1  0
  4  2  1  0
  5  4  1  0
  6  7  1  0
  6  5  1  0
  7  8  1  0
  8 10  1  0
  8  9  1  1
 10 12  1  0
 11 10  2  0
 12 13  1  0
 13 19  1  0
 13 14  1  6
 15 14  1  0
 16 17  1  0
 16 15  1  0
 18 17  1  0
 19 20  2  0
 19 26  1  0
 22 21  1  0
 23 22  1  0
 24 23  1  0
 25 24  1  1
 25 27  1  0
 26 25  1  0
 27 28  1  0
 29 27  2  0
M  END
$$$$
