RKM.pdb
     RDKit          3D

 29 28  0  0  1  0  0  0  0  0999 V2000
   22.6123  -26.1615  -13.2068 N   0  0  0  0  0  0  0  0  0  0  0  0
   21.2539  -26.2907  -12.8133 C   0  0  0  0  0  0  0  0  0  0  0  0
   20.7711  -27.4483  -12.6199 N   0  0  0  0  0  0  0  0  0  0  0  0
   20.4464  -25.1460  -12.6379 N   0  0  0  0  0  0  0  0  0  0  0  0
   20.8985  -23.8650  -13.0607 C   0  0  0  0  0  0  0  0  0  0  0  0
   22.0338  -23.8976  -14.0655 C   0  0  0  0  0  0  0  0  0  0  0  0
   22.3331  -22.4918  -14.5156 C   0  0  0  0  0  0  0  0  0  0  0  0
   21.2206  -21.9303  -15.3861 C   0  0  2  0  0  0  0  0  0  0  0  0
   20.8850  -22.8141  -16.4581 N   0  0  0  0  0  0  0  0  0  0  0  0
   21.6532  -20.6263  -15.9203 C   0  0  0  0  0  0  0  0  0  0  0  0
   22.5782  -20.5048  -16.7745 O   0  0  0  0  0  0  0  0  0  0  0  0
   19.7955  -27.6724  -12.3300 N   0  0  0  0  0  0  0  0  0  0  0  0
   21.0267  -19.4464  -15.4780 C   0  0  2  0  0  0  0  0  0  0  0  0
   21.4399  -18.1198  -15.8852 C   0  0  0  0  0  0  0  0  0  0  0  0
   20.4164  -17.1301  -15.3735 C   0  0  0  0  0  0  0  0  0  0  0  0
   20.7903  -15.7112  -15.6563 C   0  0  0  0  0  0  0  0  0  0  0  0
   19.6504  -14.8038  -15.3185 C   0  0  0  0  0  0  0  0  0  0  0  0
   19.9094  -13.3596  -15.5990 N   0  0  0  0  0  0  0  0  0  0  0  0
   18.6607  -12.6419  -15.2940 C   0  0  0  0  0  0  0  0  0  0  0  0
   22.7256  -17.8189  -15.1655 O   0  0  0  0  0  0  0  0  0  0  0  0
   22.8384  -18.0055  -13.9287 C   0  0  0  0  0  0  0  0  0  0  0  0
   27.4888  -21.1616  -14.5068 S   0  0  0  0  0  0  0  0  0  0  0  0
   28.2597  -19.6362  -14.9925 C   0  0  0  0  0  0  0  0  0  0  0  0
   27.3270  -18.1472  -14.7835 C   0  0  0  0  0  0  0  0  0  0  0  0
   25.9446  -18.2559  -15.3327 C   0  0  1  0  0  0  0  0  0  0  0  0
   25.0885  -17.0460  -15.1535 N   0  0  0  0  0  0  0  0  0  0  0  0
   23.8362  -17.3176  -15.8776 C   0  0  0  0  0  0  0  0  0  0  0  0
   25.7058  -15.8345  -15.7264 O   0  0  0  0  0  0  0  0  0  0  0  0
   26.7274  -15.1826  -15.0010 O   0  0  0  0  0  0  0  0  0  0  0  0
  2  3  2  0
  2  1  1  0
  4  2  1  0
  5  4  1  0
  6  7  1  0
  6  5  1  0
  7  8  1  0
  8 10  1  0
  8  9  1  6
 10 12  1  0
 11 10  2  0
 12 13  1  0
 13 19  1  0
 13 14  1  6
 15 14  1  0
 16 17  1  0
 16 15  1  0
 18 17  1  0
 19 20  2  0
 19 26  1  0
 22 21  1  0
 23 22  1  0
 24 23  1  0
 25 24  1  1
 25 27  1  0
 26 25  1  0
 27 28  1  0
 29 27  2  0
M  END
$$$$
