RKM.pdb
     RDKit          3D

 29 28  0  0  1  0  0  0  0  0999 V2000
   12.3117  -14.8271  -11.1767 N   0  0  0  0  0  0  0  0  0  0  0  0
   11.5143  -13.8002  -10.6054 C   0  0  0  0  0  0  0  0  0  0  0  0
   10.3563  -14.0830  -10.1700 N   0  0  0  0  0  0  0  0  0  0  0  0
   12.0014  -12.4778  -10.5207 N   0  0  0  0  0  0  0  0  0  0  0  0
   12.1576  -11.6836  -11.6907 C   0  0  0  0  0  0  0  0  0  0  0  0
   13.5491  -11.7157  -12.2928 C   0  0  0  0  0  0  0  0  0  0  0  0
   14.0454  -10.3037  -12.4606 C   0  0  0  0  0  0  0  0  0  0  0  0
   15.4607  -10.2663  -13.0142 C   0  0  2  0  0  0  0  0  0  0  0  0
   16.1404  -11.5092  -12.8242 N   0  0  0  0  0  0  0  0  0  0  0  0
   16.1983   -9.1777  -12.3480 C   0  0  0  0  0  0  0  0  0  0  0  0
   16.9695   -9.3701  -11.3640 O   0  0  0  0  0  0  0  0  0  0  0  0
    9.6736  -13.4186   -9.7476 N   0  0  0  0  0  0  0  0  0  0  0  0
   16.0575   -7.8546  -12.8061 C   0  0  1  0  0  0  0  0  0  0  0  0
   16.7377   -6.7243  -12.2092 C   0  0  0  0  0  0  0  0  0  0  0  0
   17.3492   -5.9017  -13.3220 C   0  0  0  0  0  0  0  0  0  0  0  0
   18.4870   -6.5960  -13.9978 C   0  0  0  0  0  0  0  0  0  0  0  0
   18.9573   -5.7902  -15.1667 C   0  0  0  0  0  0  0  0  0  0  0  0
   20.0067   -6.4591  -15.9931 N   0  0  0  0  0  0  0  0  0  0  0  0
   20.3376   -5.5291  -17.0853 C   0  0  0  0  0  0  0  0  0  0  0  0
   15.6834   -5.8641  -11.5688 O   0  0  0  0  0  0  0  0  0  0  0  0
   14.5767   -5.6659  -12.1283 C   0  0  0  0  0  0  0  0  0  0  0  0
   12.5071   -4.0591   -4.7128 S   0  0  0  0  0  0  0  0  0  0  0  0
   13.4511   -4.9657   -5.9146 C   0  0  0  0  0  0  0  0  0  0  0  0
   13.6897   -4.2163   -7.4997 C   0  0  0  0  0  0  0  0  0  0  0  0
   14.5444   -5.0425   -8.4005 C   0  0  1  0  0  0  0  0  0  0  0  0
   14.8807   -4.4168   -9.7136 N   0  0  0  0  0  0  0  0  0  0  0  0
   15.9251   -5.2613  -10.3158 C   0  0  0  0  0  0  0  0  0  0  0  0
   15.4157   -3.0502   -9.5611 O   0  0  0  0  0  0  0  0  0  0  0  0
   16.7831   -2.8202   -9.8291 O   0  0  0  0  0  0  0  0  0  0  0  0
  2  3  2  0
  2  1  1  0
  4  2  1  0
  5  4  1  0
  6  7  1  0
  6  5  1  0
  7  8  1  0
  8 10  1  0
  8  9  1  1
 10 12  1  0
 11 10  2  0
 12 13  1  0
 13 19  1  0
 13 14  1  1
 15 14  1  0
 16 17  1  0
 16 15  1  0
 18 17  1  0
 19 20  2  0
 19 26  1  0
 22 21  1  0
 23 22  1  0
 24 23  1  0
 25 24  1  6
 25 27  1  0
 26 25  1  0
 27 28  1  0
 29 27  2  0
M  END
$$$$
