RKM.pdb
     RDKit          3D

 29 28  0  0  1  0  0  0  0  0999 V2000
   30.4550  -26.8218  -18.9103 N   0  0  0  0  0  0  0  0  0  0  0  0
   30.7999  -27.4972  -17.7096 C   0  0  0  0  0  0  0  0  0  0  0  0
   31.8179  -28.2548  -17.6940 N   0  0  0  0  0  0  0  0  0  0  0  0
   30.0213  -27.3299  -16.5439 N   0  0  0  0  0  0  0  0  0  0  0  0
   28.6051  -27.2209  -16.6243 C   0  0  0  0  0  0  0  0  0  0  0  0
   27.8647  -28.5402  -16.5184 C   0  0  0  0  0  0  0  0  0  0  0  0
   26.3933  -28.2970  -16.7291 C   0  0  0  0  0  0  0  0  0  0  0  0
   26.0156  -28.3695  -18.1997 C   0  0  2  0  0  0  0  0  0  0  0  0
   25.0867  -27.3455  -18.5626 N   0  0  0  0  0  0  0  0  0  0  0  0
   25.4381  -29.6981  -18.4728 C   0  0  0  0  0  0  0  0  0  0  0  0
   24.2053  -29.8819  -18.6882 O   0  0  0  0  0  0  0  0  0  0  0  0
   32.1334  -28.8528  -16.9010 N   0  0  0  0  0  0  0  0  0  0  0  0
   26.2723  -30.8310  -18.5010 C   0  0  2  0  0  0  0  0  0  0  0  0
   25.8147  -32.1526  -18.8762 C   0  0  0  0  0  0  0  0  0  0  0  0
   26.9692  -32.8837  -19.5254 C   0  0  0  0  0  0  0  0  0  0  0  0
   27.0478  -32.6499  -20.9993 C   0  0  0  0  0  0  0  0  0  0  0  0
   28.2217  -33.3786  -21.5718 C   0  0  0  0  0  0  0  0  0  0  0  0
   28.3775  -33.2294  -23.0501 N   0  0  0  0  0  0  0  0  0  0  0  0
   29.5189  -34.0737  -23.4395 C   0  0  0  0  0  0  0  0  0  0  0  0
   25.5023  -32.8883  -17.6023 O   0  0  0  0  0  0  0  0  0  0  0  0
   26.1920  -32.7184  -16.5666 C   0  0  0  0  0  0  0  0  0  0  0  0
   19.5298  -35.0145  -16.4175 S   0  0  0  0  0  0  0  0  0  0  0  0
   20.4478  -35.7933  -15.1107 C   0  0  0  0  0  0  0  0  0  0  0  0
   22.2015  -35.5584  -15.0925 C   0  0  0  0  0  0  0  0  0  0  0  0
   22.6876  -34.7847  -16.2713 C   0  0  1  0  0  0  0  0  0  0  0  0
   24.1582  -34.5298  -16.3064 N   0  0  0  0  0  0  0  0  0  0  0  0
   24.4174  -33.7895  -17.5519 C   0  0  0  0  0  0  0  0  0  0  0  0
   24.9418  -35.7798  -16.3345 O   0  0  0  0  0  0  0  0  0  0  0  0
   25.1411  -36.4859  -15.1277 O   0  0  0  0  0  0  0  0  0  0  0  0
  2  3  2  0
  2  1  1  0
  4  2  1  0
  5  4  1  0
  6  7  1  0
  6  5  1  0
  7  8  1  0
  8 10  1  0
  8  9  1  1
 10 12  1  0
 11 10  2  0
 12 13  1  0
 13 19  1  0
 13 14  1  6
 15 14  1  0
 16 17  1  0
 16 15  1  0
 18 17  1  0
 19 20  2  0
 19 26  1  0
 22 21  1  0
 23 22  1  0
 24 23  1  0
 25 24  1  1
 25 27  1  0
 26 25  1  0
 27 28  1  0
 29 27  2  0
M  END
$$$$
