HYQ.pdb
     RDKit          3D

 32 33  0  0  1  0  0  0  0  0999 V2000
    9.8870  -17.0422   18.6920 N   0  0  0  0  0  0  0  0  0  0  0  0
    9.2957  -17.6522   19.8549 C   0  0  1  0  0  0  0  0  0  0  0  0
    9.9048  -19.0241   20.0309 C   0  0  0  0  0  0  0  0  0  0  0  0
    9.2983  -19.9606   19.0504 C   0  0  0  0  0  0  0  0  0  0  0  0
    7.9671  -19.9604   18.6758 C   0  0  0  0  0  0  0  0  0  0  0  0
    7.7336  -20.9285   17.7730 N   0  0  0  0  0  0  0  0  0  0  0  0
    8.9249  -21.5316   17.5869 C   0  0  0  0  0  0  0  0  0  0  0  0
    9.8686  -20.9556   18.3506 N   0  0  0  0  0  0  0  0  0  0  0  0
    9.5277  -16.8103   21.0826 C   0  0  0  0  0  0  0  0  0  0  0  0
   10.6549  -16.7335   21.6130 O   0  0  0  0  0  0  0  0  0  0  0  0
    6.8664  -11.9778   28.1242 O   0  0  0  0  0  0  0  0  0  0  0  0
    6.9531  -12.5825   26.8629 C   0  0  0  0  0  0  0  0  0  0  0  0
    7.7750  -12.0668   25.8870 C   0  0  0  0  0  0  0  0  0  0  0  0
    7.8932  -12.6375   24.6133 C   0  0  0  0  0  0  0  0  0  0  0  0
    7.1673  -13.7548   24.3132 C   0  0  0  0  0  0  0  0  0  0  0  0
    7.2057  -14.4612   23.0215 C   0  0  0  0  0  0  0  0  0  0  0  0
    8.4660  -15.3279   22.8558 C   0  0  2  0  0  0  0  0  0  0  0  0
    8.4620  -16.0841   21.6625 N   0  0  0  0  0  0  0  0  0  0  0  0
    8.7065  -16.0640   24.0955 C   0  0  0  0  0  0  0  0  0  0  0  0
    7.9061  -16.9898   24.4592 O   0  0  0  0  0  0  0  0  0  0  0  0
    6.3385  -14.2756   25.2952 C   0  0  0  0  0  0  0  0  0  0  0  0
    6.2208  -13.7172   26.5456 C   0  0  0  0  0  0  0  0  0  0  0  0
   14.2371  -18.4220   25.0330 N   0  0  0  0  0  0  0  0  0  0  0  0
   13.5019  -18.8376   26.1813 C   0  0  0  0  0  0  0  0  0  0  0  0
   14.0520  -19.6811   26.9494 O   0  0  0  0  0  0  0  0  0  0  0  0
   12.1659  -18.3416   26.5185 C   0  0  0  0  0  0  0  0  0  0  0  0
   11.5864  -17.3332   25.6024 C   0  0  0  0  0  0  0  0  0  0  0  0
   10.2448  -16.8523   25.9587 C   0  0  2  0  0  0  0  0  0  0  0  0
    9.7964  -15.8351   24.9721 N   0  0  0  0  0  0  0  0  0  0  0  0
   10.0448  -16.3308   27.2741 C   0  0  0  0  0  0  0  0  0  0  0  0
    9.8733  -15.1272   27.5819 O   0  0  0  0  0  0  0  0  0  0  0  0
   10.0283  -17.2106   28.3798 O   0  0  0  0  0  0  0  0  0  0  0  0
  2  1  1  6
  3  2  1  0
  3  4  1  0
  4  8  1  0
  4  5  2  0
  5  6  1  0
  7  6  1  0
  8  7  2  0
  9  2  1  0
 10  9  2  0
 12 11  1  0
 12 22  2  0
 13 12  1  0
 14 13  2  0
 14 15  1  0
 15 21  2  0
 16 15  1  0
 17 16  1  1
 17 18  1  0
 18  9  1  0
 19 17  1  0
 20 19  2  0
 21 22  1  0
 24 23  1  0
 25 24  2  0
 26 24  1  0
 28 27  1  6
 27 26  1  0
 28 29  1  0
 29 19  1  0
 30 32  1  0
 30 28  1  0
 31 30  2  0
M  END
$$$$
