HYQ.pdb
     RDKit          3D

 32 33  0  0  1  0  0  0  0  0999 V2000
    8.5822  -17.6506   19.4355 N   0  0  0  0  0  0  0  0  0  0  0  0
    9.9259  -17.2049   19.7001 C   0  0  1  0  0  0  0  0  0  0  0  0
   10.4176  -16.4413   18.4921 C   0  0  0  0  0  0  0  0  0  0  0  0
    9.9723  -17.1358   17.2570 C   0  0  0  0  0  0  0  0  0  0  0  0
    9.4980  -18.4339   17.2069 C   0  0  0  0  0  0  0  0  0  0  0  0
    9.1779  -18.7680   15.9449 N   0  0  0  0  0  0  0  0  0  0  0  0
    9.4548  -17.6728   15.2093 C   0  0  0  0  0  0  0  0  0  0  0  0
    9.9320  -16.6891   15.9905 N   0  0  0  0  0  0  0  0  0  0  0  0
    9.9734  -16.3353   20.9296 C   0  0  0  0  0  0  0  0  0  0  0  0
   11.0594  -15.9997   21.4451 O   0  0  0  0  0  0  0  0  0  0  0  0
    6.6592  -11.7695   27.8301 O   0  0  0  0  0  0  0  0  0  0  0  0
    6.8432  -12.3776   26.5808 C   0  0  0  0  0  0  0  0  0  0  0  0
    7.6131  -11.7787   25.6100 C   0  0  0  0  0  0  0  0  0  0  0  0
    7.8243  -12.3494   24.3484 C   0  0  0  0  0  0  0  0  0  0  0  0
    7.2475  -13.5522   24.0555 C   0  0  0  0  0  0  0  0  0  0  0  0
    7.3967  -14.2676   22.7768 C   0  0  0  0  0  0  0  0  0  0  0  0
    8.6159  -15.2058   22.7599 C   0  0  2  0  0  0  0  0  0  0  0  0
    8.7765  -15.8787   21.5281 N   0  0  0  0  0  0  0  0  0  0  0  0
    8.5958  -16.0376   23.9616 C   0  0  0  0  0  0  0  0  0  0  0  0
    7.6491  -16.8733   24.1494 O   0  0  0  0  0  0  0  0  0  0  0  0
    6.4713  -14.1568   25.0323 C   0  0  0  0  0  0  0  0  0  0  0  0
    6.2625  -13.5986   26.2709 C   0  0  0  0  0  0  0  0  0  0  0  0
    9.4472  -20.8504   23.7403 N   0  0  0  0  0  0  0  0  0  0  0  0
   10.3019  -20.7945   24.8796 C   0  0  0  0  0  0  0  0  0  0  0  0
   10.6603  -21.8960   25.3918 O   0  0  0  0  0  0  0  0  0  0  0  0
   10.7865  -19.5477   25.4759 C   0  0  0  0  0  0  0  0  0  0  0  0
   10.3350  -18.2915   24.8356 C   0  0  0  0  0  0  0  0  0  0  0  0
    9.9573  -17.2122   25.7577 C   0  0  2  0  0  0  0  0  0  0  0  0
    9.5753  -16.0011   24.9854 N   0  0  0  0  0  0  0  0  0  0  0  0
   10.8941  -16.8320   26.7677 C   0  0  0  0  0  0  0  0  0  0  0  0
   11.7138  -15.8848   26.7071 O   0  0  0  0  0  0  0  0  0  0  0  0
   10.9497  -17.5584   27.9786 O   0  0  0  0  0  0  0  0  0  0  0  0
  2  1  1  6
  3  2  1  0
  3  4  1  0
  4  8  1  0
  4  5  2  0
  5  6  1  0
  7  6  1  0
  8  7  2  0
  9  2  1  0
 10  9  2  0
 12 11  1  0
 12 22  2  0
 13 12  1  0
 14 13  2  0
 14 15  1  0
 15 21  2  0
 16 15  1  0
 17 16  1  6
 17 18  1  0
 18  9  1  0
 19 17  1  0
 20 19  2  0
 21 22  1  0
 24 23  1  0
 25 24  2  0
 26 24  1  0
 28 27  1  6
 27 26  1  0
 28 29  1  0
 29 19  1  0
 30 32  1  0
 30 28  1  0
 31 30  2  0
M  END
$$$$
