HYQ.pdb
     RDKit          3D

 32 33  0  0  1  0  0  0  0  0999 V2000
   10.6733  -15.3798   18.8987 N   0  0  0  0  0  0  0  0  0  0  0  0
    9.3677  -15.0260   19.3930 C   0  0  1  0  0  0  0  0  0  0  0  0
    8.3577  -15.9663   18.7766 C   0  0  0  0  0  0  0  0  0  0  0  0
    8.1460  -15.5962   17.3538 C   0  0  0  0  0  0  0  0  0  0  0  0
    8.3285  -14.3290   16.8308 C   0  0  0  0  0  0  0  0  0  0  0  0
    8.0557  -14.3210   15.5146 N   0  0  0  0  0  0  0  0  0  0  0  0
    7.7026  -15.5883   15.2201 C   0  0  0  0  0  0  0  0  0  0  0  0
    7.7546  -16.3591   16.3196 N   0  0  0  0  0  0  0  0  0  0  0  0
    9.3189  -15.1108   20.8965 C   0  0  0  0  0  0  0  0  0  0  0  0
    9.9469  -15.9928   21.5172 O   0  0  0  0  0  0  0  0  0  0  0  0
    7.0312  -12.4170   29.1084 O   0  0  0  0  0  0  0  0  0  0  0  0
    7.1073  -12.5811   27.7186 C   0  0  0  0  0  0  0  0  0  0  0  0
    6.2812  -13.4669   27.0654 C   0  0  0  0  0  0  0  0  0  0  0  0
    6.3222  -13.6634   25.6791 C   0  0  0  0  0  0  0  0  0  0  0  0
    7.2157  -12.9514   24.9308 C   0  0  0  0  0  0  0  0  0  0  0  0
    7.3558  -13.0508   23.4681 C   0  0  0  0  0  0  0  0  0  0  0  0
    8.3878  -14.1086   23.0407 C   0  0  2  0  0  0  0  0  0  0  0  0
    8.5529  -14.1832   21.6396 N   0  0  0  0  0  0  0  0  0  0  0  0
    8.1011  -15.3636   23.7330 C   0  0  0  0  0  0  0  0  0  0  0  0
    7.1065  -16.0810   23.3779 O   0  0  0  0  0  0  0  0  0  0  0  0
    8.0490  -12.0586   25.5874 C   0  0  0  0  0  0  0  0  0  0  0  0
    8.0106  -11.8643   26.9475 C   0  0  0  0  0  0  0  0  0  0  0  0
    8.8514  -20.2941   22.2839 N   0  0  0  0  0  0  0  0  0  0  0  0
   10.0009  -19.6215   22.7919 C   0  0  0  0  0  0  0  0  0  0  0  0
   11.1237  -19.9351   22.2967 O   0  0  0  0  0  0  0  0  0  0  0  0
    9.9513  -18.5962   23.8363 C   0  0  0  0  0  0  0  0  0  0  0  0
    8.6085  -18.2420   24.3494 C   0  0  0  0  0  0  0  0  0  0  0  0
    8.5838  -17.2181   25.4024 C   0  0  2  0  0  0  0  0  0  0  0  0
    8.8597  -15.8823   24.8120 N   0  0  0  0  0  0  0  0  0  0  0  0
    9.4339  -17.3995   26.5368 C   0  0  0  0  0  0  0  0  0  0  0  0
    9.4747  -18.4044   27.2859 O   0  0  0  0  0  0  0  0  0  0  0  0
   10.3412  -16.3791   26.9006 O   0  0  0  0  0  0  0  0  0  0  0  0
  2  1  1  6
  3  2  1  0
  3  4  1  0
  4  8  1  0
  4  5  2  0
  5  6  1  0
  7  6  1  0
  8  7  2  0
  9  2  1  0
 10  9  2  0
 12 11  1  0
 12 22  2  0
 13 12  1  0
 14 13  2  0
 14 15  1  0
 15 21  2  0
 16 15  1  0
 17 16  1  6
 17 18  1  0
 18  9  1  0
 19 17  1  0
 20 19  2  0
 21 22  1  0
 24 23  1  0
 25 24  2  0
 26 24  1  0
 28 27  1  6
 27 26  1  0
 28 29  1  0
 29 19  1  0
 30 32  1  0
 30 28  1  0
 31 30  2  0
M  END
$$$$
