HYQ.pdb
     RDKit          3D

 32 33  0  0  1  0  0  0  0  0999 V2000
    9.1780  -15.9758   18.7242 N   0  0  0  0  0  0  0  0  0  0  0  0
    8.8805  -16.6102   19.9825 C   0  0  1  0  0  0  0  0  0  0  0  0
    9.4760  -17.9991   19.9646 C   0  0  0  0  0  0  0  0  0  0  0  0
    8.9318  -18.7522   18.8057 C   0  0  0  0  0  0  0  0  0  0  0  0
    7.6135  -19.1464   18.6673 C   0  0  0  0  0  0  0  0  0  0  0  0
    7.4407  -19.8084   17.5103 N   0  0  0  0  0  0  0  0  0  0  0  0
    8.6568  -19.8248   16.9287 C   0  0  0  0  0  0  0  0  0  0  0  0
    9.5566  -19.1925   17.7009 N   0  0  0  0  0  0  0  0  0  0  0  0
    9.4363  -15.8124   21.1335 C   0  0  0  0  0  0  0  0  0  0  0  0
   10.0977  -14.7715   20.9418 O   0  0  0  0  0  0  0  0  0  0  0  0
    6.7024  -11.1420   27.8248 O   0  0  0  0  0  0  0  0  0  0  0  0
    6.9417  -11.9801   26.7273 C   0  0  0  0  0  0  0  0  0  0  0  0
    6.0776  -13.0062   26.4201 C   0  0  0  0  0  0  0  0  0  0  0  0
    6.2768  -13.8678   25.3338 C   0  0  0  0  0  0  0  0  0  0  0  0
    7.3716  -13.6934   24.5363 C   0  0  0  0  0  0  0  0  0  0  0  0
    7.6942  -14.5168   23.3585 C   0  0  0  0  0  0  0  0  0  0  0  0
    8.9024  -15.4400   23.5922 C   0  0  2  0  0  0  0  0  0  0  0  0
    9.2166  -16.2325   22.4656 N   0  0  0  0  0  0  0  0  0  0  0  0
    8.7265  -16.1463   24.8598 C   0  0  0  0  0  0  0  0  0  0  0  0
    7.6232  -16.7329   25.1213 O   0  0  0  0  0  0  0  0  0  0  0  0
    8.2433  -12.6602   24.8444 C   0  0  0  0  0  0  0  0  0  0  0  0
    8.0501  -11.8136   25.9100 C   0  0  0  0  0  0  0  0  0  0  0  0
   12.9550  -18.8238   23.0703 N   0  0  0  0  0  0  0  0  0  0  0  0
   13.3001  -19.1544   24.4132 C   0  0  0  0  0  0  0  0  0  0  0  0
   14.1485  -20.0790   24.5842 O   0  0  0  0  0  0  0  0  0  0  0  0
   12.7386  -18.4851   25.5885 C   0  0  0  0  0  0  0  0  0  0  0  0
   11.7656  -17.4001   25.3274 C   0  0  0  0  0  0  0  0  0  0  0  0
   10.5089  -17.4824   26.0835 C   0  0  2  0  0  0  0  0  0  0  0  0
    9.7129  -16.2450   25.8728 N   0  0  0  0  0  0  0  0  0  0  0  0
   10.5841  -17.7426   27.4866 C   0  0  0  0  0  0  0  0  0  0  0  0
   10.9195  -18.8227   28.0286 O   0  0  0  0  0  0  0  0  0  0  0  0
   10.2604  -16.7192   28.4057 O   0  0  0  0  0  0  0  0  0  0  0  0
  2  1  1  6
  3  2  1  0
  3  4  1  0
  4  8  1  0
  4  5  2  0
  5  6  1  0
  7  6  1  0
  8  7  2  0
  9  2  1  0
 10  9  2  0
 12 11  1  0
 12 22  2  0
 13 12  1  0
 14 13  2  0
 14 15  1  0
 15 21  2  0
 16 15  1  0
 17 16  1  6
 17 18  1  0
 18  9  1  0
 19 17  1  0
 20 19  2  0
 21 22  1  0
 24 23  1  0
 25 24  2  0
 26 24  1  0
 28 27  1  1
 27 26  1  0
 28 29  1  0
 29 19  1  0
 30 32  1  0
 30 28  1  0
 31 30  2  0
M  END
$$$$
