HYQ.pdb
     RDKit          3D

 32 33  0  0  1  0  0  0  0  0999 V2000
   10.2969  -16.9236   18.8300 N   0  0  0  0  0  0  0  0  0  0  0  0
    9.0558  -16.7909   19.5486 C   0  0  1  0  0  0  0  0  0  0  0  0
    8.4211  -18.1585   19.6531 C   0  0  0  0  0  0  0  0  0  0  0  0
    7.9248  -18.5735   18.3160 C   0  0  0  0  0  0  0  0  0  0  0  0
    8.0639  -17.8332   17.1562 C   0  0  0  0  0  0  0  0  0  0  0  0
    7.5097  -18.4809   16.1169 N   0  0  0  0  0  0  0  0  0  0  0  0
    7.0250  -19.6276   16.6342 C   0  0  0  0  0  0  0  0  0  0  0  0
    7.2707  -19.6897   17.9538 N   0  0  0  0  0  0  0  0  0  0  0  0
    9.2856  -16.2096   20.9194 C   0  0  0  0  0  0  0  0  0  0  0  0
   10.2999  -16.5009   21.5859 O   0  0  0  0  0  0  0  0  0  0  0  0
    7.1609  -11.5447   28.2371 O   0  0  0  0  0  0  0  0  0  0  0  0
    7.1715  -12.0908   26.9465 C   0  0  0  0  0  0  0  0  0  0  0  0
    6.3742  -13.1663   26.6278 C   0  0  0  0  0  0  0  0  0  0  0  0
    6.3522  -13.7442   25.3520 C   0  0  0  0  0  0  0  0  0  0  0  0
    7.1514  -13.2280   24.3722 C   0  0  0  0  0  0  0  0  0  0  0  0
    7.2170  -13.7295   22.9889 C   0  0  0  0  0  0  0  0  0  0  0  0
    8.3200  -14.7835   22.7911 C   0  0  2  0  0  0  0  0  0  0  0  0
    8.3470  -15.3141   21.4820 N   0  0  0  0  0  0  0  0  0  0  0  0
    8.2608  -15.7492   23.8867 C   0  0  0  0  0  0  0  0  0  0  0  0
    7.2971  -16.5837   23.9569 O   0  0  0  0  0  0  0  0  0  0  0  0
    7.9554  -12.1446   24.6916 C   0  0  0  0  0  0  0  0  0  0  0  0
    7.9788  -11.5759   25.9428 C   0  0  0  0  0  0  0  0  0  0  0  0
   10.3305  -20.6890   23.8742 N   0  0  0  0  0  0  0  0  0  0  0  0
   11.2169  -19.5777   23.9795 C   0  0  0  0  0  0  0  0  0  0  0  0
   12.3459  -19.6796   23.4146 O   0  0  0  0  0  0  0  0  0  0  0  0
   10.8920  -18.3391   24.6901 C   0  0  0  0  0  0  0  0  0  0  0  0
    9.5180  -18.2299   25.2304 C   0  0  0  0  0  0  0  0  0  0  0  0
    9.2041  -16.9655   25.9091 C   0  0  2  0  0  0  0  0  0  0  0  0
    9.2182  -15.8501   24.9269 N   0  0  0  0  0  0  0  0  0  0  0  0
   10.0002  -16.5912   27.0353 C   0  0  0  0  0  0  0  0  0  0  0  0
   10.1955  -17.2716   28.0707 O   0  0  0  0  0  0  0  0  0  0  0  0
   10.6587  -15.3409   27.0414 O   0  0  0  0  0  0  0  0  0  0  0  0
  2  1  1  1
  3  2  1  0
  3  4  1  0
  4  8  1  0
  4  5  2  0
  5  6  1  0
  7  6  1  0
  8  7  2  0
  9  2  1  0
 10  9  2  0
 12 11  1  0
 12 22  2  0
 13 12  1  0
 14 13  2  0
 14 15  1  0
 15 21  2  0
 16 15  1  0
 17 16  1  6
 17 18  1  0
 18  9  1  0
 19 17  1  0
 20 19  2  0
 21 22  1  0
 24 23  1  0
 25 24  2  0
 26 24  1  0
 28 27  1  6
 27 26  1  0
 28 29  1  0
 29 19  1  0
 30 32  1  0
 30 28  1  0
 31 30  2  0
M  END
$$$$
