HYQ.pdb
     RDKit          3D

 32 33  0  0  1  0  0  0  0  0999 V2000
    8.2249  -17.0765   18.9909 N   0  0  0  0  0  0  0  0  0  0  0  0
    9.6081  -16.7596   19.2369 C   0  0  1  0  0  0  0  0  0  0  0  0
   10.1120  -15.9170   18.0879 C   0  0  0  0  0  0  0  0  0  0  0  0
    9.1844  -14.7774   17.8704 C   0  0  0  0  0  0  0  0  0  0  0  0
    9.3000  -13.5377   18.4721 C   0  0  0  0  0  0  0  0  0  0  0  0
    8.3069  -12.7262   18.0694 N   0  0  0  0  0  0  0  0  0  0  0  0
    7.5724  -13.4658   17.2144 C   0  0  0  0  0  0  0  0  0  0  0  0
    8.0935  -14.6982   17.0903 N   0  0  0  0  0  0  0  0  0  0  0  0
    9.7690  -16.0235   20.5416 C   0  0  0  0  0  0  0  0  0  0  0  0
   10.8719  -15.5549   20.8903 O   0  0  0  0  0  0  0  0  0  0  0  0
    7.1928  -11.9260   28.0162 O   0  0  0  0  0  0  0  0  0  0  0  0
    7.2078  -12.5900   26.7821 C   0  0  0  0  0  0  0  0  0  0  0  0
    7.7081  -11.9773   25.6560 C   0  0  0  0  0  0  0  0  0  0  0  0
    7.7430  -12.6022   24.4029 C   0  0  0  0  0  0  0  0  0  0  0  0
    7.2634  -13.8749   24.2788 C   0  0  0  0  0  0  0  0  0  0  0  0
    7.2512  -14.6510   23.0271 C   0  0  0  0  0  0  0  0  0  0  0  0
    8.6321  -15.2301   22.6740 C   0  0  2  0  0  0  0  0  0  0  0  0
    8.6622  -15.8483   21.4040 N   0  0  0  0  0  0  0  0  0  0  0  0
    9.1194  -16.0250   23.7997 C   0  0  0  0  0  0  0  0  0  0  0  0
    8.4470  -17.0261   24.2188 O   0  0  0  0  0  0  0  0  0  0  0  0
    6.7588  -14.4937   25.4123 C   0  0  0  0  0  0  0  0  0  0  0  0
    6.7233  -13.8824   26.6429 C   0  0  0  0  0  0  0  0  0  0  0  0
    9.1452  -15.8465   29.6134 N   0  0  0  0  0  0  0  0  0  0  0  0
   10.3614  -15.2517   29.1672 C   0  0  0  0  0  0  0  0  0  0  0  0
   10.9840  -14.5160   29.9889 O   0  0  0  0  0  0  0  0  0  0  0  0
   10.9243  -15.4502   27.8299 C   0  0  0  0  0  0  0  0  0  0  0  0
   10.0904  -16.2075   26.8692 C   0  0  0  0  0  0  0  0  0  0  0  0
   10.7696  -16.6275   25.6363 C   0  0  2  0  0  0  0  0  0  0  0  0
   10.3252  -15.7762   24.5019 N   0  0  0  0  0  0  0  0  0  0  0  0
   10.6667  -17.9982   25.2453 C   0  0  0  0  0  0  0  0  0  0  0  0
    9.8161  -18.4904   24.4663 O   0  0  0  0  0  0  0  0  0  0  0  0
   11.5878  -18.9413   25.7544 O   0  0  0  0  0  0  0  0  0  0  0  0
  2  1  1  6
  3  2  1  0
  3  4  1  0
  4  8  1  0
  4  5  2  0
  5  6  1  0
  7  6  1  0
  8  7  2  0
  9  2  1  0
 10  9  2  0
 12 11  1  0
 12 22  2  0
 13 12  1  0
 14 13  2  0
 14 15  1  0
 15 21  2  0
 16 15  1  0
 17 16  1  1
 17 18  1  0
 18  9  1  0
 19 17  1  0
 20 19  2  0
 21 22  1  0
 24 23  1  0
 25 24  2  0
 26 24  1  0
 28 27  1  1
 27 26  1  0
 28 29  1  0
 29 19  1  0
 30 32  1  0
 30 28  1  0
 31 30  2  0
M  END
$$$$
