HYQ.pdb
     RDKit          3D

 32 33  0  0  1  0  0  0  0  0999 V2000
   10.8942  -14.1686   18.7389 N   0  0  0  0  0  0  0  0  0  0  0  0
    9.5946  -14.3519   19.3320 C   0  0  1  0  0  0  0  0  0  0  0  0
    8.9840  -15.6080   18.7547 C   0  0  0  0  0  0  0  0  0  0  0  0
    8.4916  -15.3289   17.3815 C   0  0  0  0  0  0  0  0  0  0  0  0
    8.6758  -14.1385   16.7021 C   0  0  0  0  0  0  0  0  0  0  0  0
    8.1123  -14.2018   15.4834 N   0  0  0  0  0  0  0  0  0  0  0  0
    7.5765  -15.4365   15.4066 C   0  0  0  0  0  0  0  0  0  0  0  0
    7.8004  -16.1184   16.5426 N   0  0  0  0  0  0  0  0  0  0  0  0
    9.6958  -14.4552   20.8317 C   0  0  0  0  0  0  0  0  0  0  0  0
   10.6388  -15.0636   21.3779 O   0  0  0  0  0  0  0  0  0  0  0  0
    7.2756  -12.9179   29.2897 O   0  0  0  0  0  0  0  0  0  0  0  0
    7.3289  -12.9331   27.8894 C   0  0  0  0  0  0  0  0  0  0  0  0
    8.1911  -12.1065   27.2060 C   0  0  0  0  0  0  0  0  0  0  0  0
    8.2782  -12.0879   25.8081 C   0  0  0  0  0  0  0  0  0  0  0  0
    7.4789  -12.9214   25.0790 C   0  0  0  0  0  0  0  0  0  0  0  0
    7.4772  -13.0125   23.6090 C   0  0  0  0  0  0  0  0  0  0  0  0
    8.6262  -13.8798   23.0664 C   0  0  2  0  0  0  0  0  0  0  0  0
    8.7143  -13.8588   21.6566 N   0  0  0  0  0  0  0  0  0  0  0  0
    8.5710  -15.1966   23.6984 C   0  0  0  0  0  0  0  0  0  0  0  0
    7.6493  -16.0224   23.3845 O   0  0  0  0  0  0  0  0  0  0  0  0
    6.6094  -13.7548   25.7659 C   0  0  0  0  0  0  0  0  0  0  0  0
    6.5221  -13.7746   27.1375 C   0  0  0  0  0  0  0  0  0  0  0  0
   12.0870  -19.7974   23.0731 N   0  0  0  0  0  0  0  0  0  0  0  0
   11.3059  -20.2091   24.1922 C   0  0  0  0  0  0  0  0  0  0  0  0
   11.4297  -21.4093   24.5771 O   0  0  0  0  0  0  0  0  0  0  0  0
   10.3867  -19.3271   24.9145 C   0  0  0  0  0  0  0  0  0  0  0  0
   10.3088  -17.9263   24.4417 C   0  0  0  0  0  0  0  0  0  0  0  0
    9.4269  -17.0449   25.2185 C   0  0  2  0  0  0  0  0  0  0  0  0
    9.4883  -15.6638   24.6727 N   0  0  0  0  0  0  0  0  0  0  0  0
    9.6141  -16.9845   26.6339 C   0  0  0  0  0  0  0  0  0  0  0  0
   10.0561  -16.0097   27.2876 O   0  0  0  0  0  0  0  0  0  0  0  0
    9.2859  -18.1044   27.4309 O   0  0  0  0  0  0  0  0  0  0  0  0
  2  1  1  6
  3  2  1  0
  3  4  1  0
  4  8  1  0
  4  5  2  0
  5  6  1  0
  7  6  1  0
  8  7  2  0
  9  2  1  0
 10  9  2  0
 12 11  1  0
 12 22  2  0
 13 12  1  0
 14 13  2  0
 14 15  1  0
 15 21  2  0
 16 15  1  0
 17 16  1  6
 17 18  1  0
 18  9  1  0
 19 17  1  0
 20 19  2  0
 21 22  1  0
 24 23  1  0
 25 24  2  0
 26 24  1  0
 28 27  1  6
 27 26  1  0
 28 29  1  0
 29 19  1  0
 30 32  1  0
 30 28  1  0
 31 30  2  0
M  END
$$$$
