HYQ.pdb
     RDKit          3D

 32 33  0  0  1  0  0  0  0  0999 V2000
   11.0254  -16.5848   19.3902 N   0  0  0  0  0  0  0  0  0  0  0  0
    9.7299  -16.4416   20.0027 C   0  0  1  0  0  0  0  0  0  0  0  0
    9.1418  -17.8206   20.1939 C   0  0  0  0  0  0  0  0  0  0  0  0
    8.6524  -18.3315   18.8878 C   0  0  0  0  0  0  0  0  0  0  0  0
    8.7742  -17.6651   17.6821 C   0  0  0  0  0  0  0  0  0  0  0  0
    8.2323  -18.3902   16.6885 N   0  0  0  0  0  0  0  0  0  0  0  0
    7.7726  -19.5109   17.2803 C   0  0  0  0  0  0  0  0  0  0  0  0
    8.0214  -19.4822   18.6005 N   0  0  0  0  0  0  0  0  0  0  0  0
    9.8341  -15.7244   21.3237 C   0  0  0  0  0  0  0  0  0  0  0  0
   10.8943  -15.7287   21.9822 O   0  0  0  0  0  0  0  0  0  0  0  0
    6.4563  -11.6107   28.5114 O   0  0  0  0  0  0  0  0  0  0  0  0
    6.6654  -12.0923   27.2119 C   0  0  0  0  0  0  0  0  0  0  0  0
    7.5619  -11.4789   26.3669 C   0  0  0  0  0  0  0  0  0  0  0  0
    7.8028  -11.9253   25.0612 C   0  0  0  0  0  0  0  0  0  0  0  0
    7.1261  -13.0154   24.5935 C   0  0  0  0  0  0  0  0  0  0  0  0
    7.2917  -13.5958   23.2501 C   0  0  0  0  0  0  0  0  0  0  0  0
    8.5959  -14.3991   23.1068 C   0  0  2  0  0  0  0  0  0  0  0  0
    8.7215  -15.0263   21.8471 N   0  0  0  0  0  0  0  0  0  0  0  0
    8.7635  -15.2525   24.2815 C   0  0  0  0  0  0  0  0  0  0  0  0
    8.7987  -14.7388   25.4498 O   0  0  0  0  0  0  0  0  0  0  0  0
    6.2224  -13.6345   25.4435 C   0  0  0  0  0  0  0  0  0  0  0  0
    5.9842  -13.1982   26.7250 C   0  0  0  0  0  0  0  0  0  0  0  0
    6.3605  -21.2492   27.6435 N   0  0  0  0  0  0  0  0  0  0  0  0
    6.7028  -20.4251   26.5320 C   0  0  0  0  0  0  0  0  0  0  0  0
    6.0085  -20.5504   25.4802 O   0  0  0  0  0  0  0  0  0  0  0  0
    7.7951  -19.4497   26.5451 C   0  0  0  0  0  0  0  0  0  0  0  0
    7.8402  -18.4952   25.4142 C   0  0  0  0  0  0  0  0  0  0  0  0
    8.9100  -17.4904   25.4772 C   0  0  2  0  0  0  0  0  0  0  0  0
    8.8966  -16.6631   24.2426 N   0  0  0  0  0  0  0  0  0  0  0  0
   10.2455  -17.9437   25.7079 C   0  0  0  0  0  0  0  0  0  0  0  0
   10.8402  -17.9836   26.8113 O   0  0  0  0  0  0  0  0  0  0  0  0
   11.0241  -18.4056   24.6228 O   0  0  0  0  0  0  0  0  0  0  0  0
  2  1  1  1
  3  2  1  0
  3  4  1  0
  4  8  1  0
  4  5  2  0
  5  6  1  0
  7  6  1  0
  8  7  2  0
  9  2  1  0
 10  9  2  0
 12 11  1  0
 12 22  2  0
 13 12  1  0
 14 13  2  0
 14 15  1  0
 15 21  2  0
 16 15  1  0
 17 16  1  6
 17 18  1  0
 18  9  1  0
 19 17  1  0
 20 19  2  0
 21 22  1  0
 24 23  1  0
 25 24  2  0
 26 24  1  0
 28 27  1  6
 27 26  1  0
 28 29  1  0
 29 19  1  0
 30 32  1  0
 30 28  1  0
 31 30  2  0
M  END
$$$$
