HYQ.pdb
     RDKit          3D

 32 33  0  0  1  0  0  0  0  0999 V2000
    9.5687  -12.7883   20.2464 N   0  0  0  0  0  0  0  0  0  0  0  0
    8.8090  -13.9418   20.6544 C   0  0  1  0  0  0  0  0  0  0  0  0
    9.0300  -15.0377   19.6375 C   0  0  0  0  0  0  0  0  0  0  0  0
    8.5090  -14.5964   18.3183 C   0  0  0  0  0  0  0  0  0  0  0  0
    8.0273  -13.3299   18.0419 C   0  0  0  0  0  0  0  0  0  0  0  0
    7.6311  -13.2481   16.7600 N   0  0  0  0  0  0  0  0  0  0  0  0
    7.8681  -14.4689   16.2394 C   0  0  0  0  0  0  0  0  0  0  0  0
    8.3951  -15.2832   17.1693 N   0  0  0  0  0  0  0  0  0  0  0  0
    9.2248  -14.4036   22.0269 C   0  0  0  0  0  0  0  0  0  0  0  0
   10.4105  -14.3211   22.4076 O   0  0  0  0  0  0  0  0  0  0  0  0
    6.7297  -10.2337   27.5645 O   0  0  0  0  0  0  0  0  0  0  0  0
    6.8413  -11.4906   26.9547 C   0  0  0  0  0  0  0  0  0  0  0  0
    6.1158  -11.7951   25.8256 C   0  0  0  0  0  0  0  0  0  0  0  0
    6.1956  -13.0373   25.1832 C   0  0  0  0  0  0  0  0  0  0  0  0
    7.0255  -13.9971   25.6882 C   0  0  0  0  0  0  0  0  0  0  0  0
    7.2138  -15.3371   25.1068 C   0  0  0  0  0  0  0  0  0  0  0  0
    8.4734  -15.4319   24.2286 C   0  0  2  0  0  0  0  0  0  0  0  0
    8.2696  -14.9447   22.9182 N   0  0  0  0  0  0  0  0  0  0  0  0
    9.0386  -16.7747   24.3463 C   0  0  0  0  0  0  0  0  0  0  0  0
    8.4240  -17.7769   23.8485 O   0  0  0  0  0  0  0  0  0  0  0  0
    7.7570  -13.6921   26.8259 C   0  0  0  0  0  0  0  0  0  0  0  0
    7.6802  -12.4740   27.4580 C   0  0  0  0  0  0  0  0  0  0  0  0
   14.8445  -18.5095   23.6118 N   0  0  0  0  0  0  0  0  0  0  0  0
   13.7371  -18.0848   22.8211 C   0  0  0  0  0  0  0  0  0  0  0  0
   13.9823  -17.6878   21.6436 O   0  0  0  0  0  0  0  0  0  0  0  0
   12.3497  -18.0907   23.2898 C   0  0  0  0  0  0  0  0  0  0  0  0
   12.1198  -18.5946   24.6628 C   0  0  0  0  0  0  0  0  0  0  0  0
   10.7407  -18.4796   25.1558 C   0  0  2  0  0  0  0  0  0  0  0  0
   10.2625  -17.0820   24.9916 N   0  0  0  0  0  0  0  0  0  0  0  0
   10.4676  -18.9008   26.4937 C   0  0  0  0  0  0  0  0  0  0  0  0
    9.9913  -18.1964   27.4156 O   0  0  0  0  0  0  0  0  0  0  0  0
   10.7405  -20.2334   26.8766 O   0  0  0  0  0  0  0  0  0  0  0  0
  2  1  1  6
  3  2  1  0
  3  4  1  0
  4  8  1  0
  4  5  2  0
  5  6  1  0
  7  6  1  0
  8  7  2  0
  9  2  1  0
 10  9  2  0
 12 11  1  0
 12 22  2  0
 13 12  1  0
 14 13  2  0
 14 15  1  0
 15 21  2  0
 16 15  1  0
 17 16  1  6
 17 18  1  0
 18  9  1  0
 19 17  1  0
 20 19  2  0
 21 22  1  0
 24 23  1  0
 25 24  2  0
 26 24  1  0
 28 27  1  1
 27 26  1  0
 28 29  1  0
 29 19  1  0
 30 32  1  0
 30 28  1  0
 31 30  2  0
M  END
$$$$
