HYQ.pdb
     RDKit          3D

 32 33  0  0  1  0  0  0  0  0999 V2000
    9.8647  -17.9860   19.3755 N   0  0  0  0  0  0  0  0  0  0  0  0
   11.0332  -17.1703   19.5843 C   0  0  1  0  0  0  0  0  0  0  0  0
   11.2706  -16.3551   18.3341 C   0  0  0  0  0  0  0  0  0  0  0  0
   11.5881  -17.2671   17.2056 C   0  0  0  0  0  0  0  0  0  0  0  0
   11.1800  -18.5854   17.1154 C   0  0  0  0  0  0  0  0  0  0  0  0
   11.6288  -19.1385   15.9754 N   0  0  0  0  0  0  0  0  0  0  0  0
   12.3180  -18.1593   15.3561 C   0  0  0  0  0  0  0  0  0  0  0  0
   12.2977  -17.0332   16.0890 N   0  0  0  0  0  0  0  0  0  0  0  0
   10.8546  -16.2675   20.7772 C   0  0  0  0  0  0  0  0  0  0  0  0
   11.7451  -15.4635   21.1213 O   0  0  0  0  0  0  0  0  0  0  0  0
    7.4351  -11.9928   17.7793 O   0  0  0  0  0  0  0  0  0  0  0  0
    7.5975  -12.6862   18.9864 C   0  0  0  0  0  0  0  0  0  0  0  0
    8.3578  -12.1610   20.0062 C   0  0  0  0  0  0  0  0  0  0  0  0
    8.5474  -12.8181   21.2286 C   0  0  0  0  0  0  0  0  0  0  0  0
    7.9579  -14.0333   21.4309 C   0  0  0  0  0  0  0  0  0  0  0  0
    8.0643  -14.8243   22.6688 C   0  0  0  0  0  0  0  0  0  0  0  0
    9.3664  -15.6403   22.7421 C   0  0  2  0  0  0  0  0  0  0  0  0
    9.6628  -16.3148   21.5367 N   0  0  0  0  0  0  0  0  0  0  0  0
    9.3553  -16.4503   23.9588 C   0  0  0  0  0  0  0  0  0  0  0  0
    8.2592  -16.9355   24.3982 O   0  0  0  0  0  0  0  0  0  0  0  0
    7.1918  -14.5640   20.4045 C   0  0  0  0  0  0  0  0  0  0  0  0
    7.0044  -13.9211   19.2041 C   0  0  0  0  0  0  0  0  0  0  0  0
   11.9380  -21.6682   24.9528 N   0  0  0  0  0  0  0  0  0  0  0  0
   12.6814  -20.4873   24.6620 C   0  0  0  0  0  0  0  0  0  0  0  0
   13.8293  -20.6353   24.1477 O   0  0  0  0  0  0  0  0  0  0  0  0
   12.1911  -19.1310   24.9162 C   0  0  0  0  0  0  0  0  0  0  0  0
   10.8462  -19.0194   25.5251 C   0  0  0  0  0  0  0  0  0  0  0  0
   10.4382  -17.6624   25.9126 C   0  0  2  0  0  0  0  0  0  0  0  0
   10.5016  -16.7616   24.7321 N   0  0  0  0  0  0  0  0  0  0  0  0
   11.1247  -17.0385   26.9996 C   0  0  0  0  0  0  0  0  0  0  0  0
   11.7871  -15.9747   26.9521 O   0  0  0  0  0  0  0  0  0  0  0  0
   11.0901  -17.6325   28.2814 O   0  0  0  0  0  0  0  0  0  0  0  0
  2  1  1  6
  3  2  1  0
  3  4  1  0
  4  8  1  0
  4  5  2  0
  5  6  1  0
  7  6  1  0
  8  7  2  0
  9  2  1  0
 10  9  2  0
 12 11  1  0
 12 22  2  0
 13 12  1  0
 14 13  2  0
 14 15  1  0
 15 21  2  0
 16 15  1  0
 17 16  1  6
 17 18  1  0
 18  9  1  0
 19 17  1  0
 20 19  2  0
 21 22  1  0
 24 23  1  0
 25 24  2  0
 26 24  1  0
 28 27  1  6
 27 26  1  0
 28 29  1  0
 29 19  1  0
 30 32  1  0
 30 28  1  0
 31 30  2  0
M  END
$$$$
