HYQ.pdb
     RDKit          3D

 32 33  0  0  1  0  0  0  0  0999 V2000
    9.6014  -17.3957   18.7970 N   0  0  0  0  0  0  0  0  0  0  0  0
   10.2337  -18.1098   19.8761 C   0  0  1  0  0  0  0  0  0  0  0  0
   11.5740  -18.6115   19.3902 C   0  0  0  0  0  0  0  0  0  0  0  0
   11.3670  -19.5399   18.2494 C   0  0  0  0  0  0  0  0  0  0  0  0
   10.1334  -19.9367   17.7665 C   0  0  0  0  0  0  0  0  0  0  0  0
   10.2841  -20.7791   16.7300 N   0  0  0  0  0  0  0  0  0  0  0  0
   11.6167  -20.9053   16.5693 C   0  0  0  0  0  0  0  0  0  0  0  0
   12.2728  -20.1640   17.4780 N   0  0  0  0  0  0  0  0  0  0  0  0
   10.4076  -17.2225   21.0813 C   0  0  0  0  0  0  0  0  0  0  0  0
   11.5164  -16.7255   21.3664 O   0  0  0  0  0  0  0  0  0  0  0  0
    7.6274  -12.1188   18.3885 O   0  0  0  0  0  0  0  0  0  0  0  0
    7.7719  -12.8620   19.5678 C   0  0  0  0  0  0  0  0  0  0  0  0
    8.8692  -12.6913   20.3806 C   0  0  0  0  0  0  0  0  0  0  0  0
    9.0551  -13.4116   21.5675 C   0  0  0  0  0  0  0  0  0  0  0  0
    8.1143  -14.3260   21.9469 C   0  0  0  0  0  0  0  0  0  0  0  0
    8.1786  -15.1399   23.1728 C   0  0  0  0  0  0  0  0  0  0  0  0
    9.2951  -16.1971   23.1259 C   0  0  2  0  0  0  0  0  0  0  0  0
    9.3066  -16.9336   21.9203 N   0  0  0  0  0  0  0  0  0  0  0  0
    9.2725  -16.9720   24.3650 C   0  0  0  0  0  0  0  0  0  0  0  0
    8.3016  -17.7639   24.6106 O   0  0  0  0  0  0  0  0  0  0  0  0
    7.0083  -14.4995   21.1291 C   0  0  0  0  0  0  0  0  0  0  0  0
    6.8238  -13.7939   19.9639 C   0  0  0  0  0  0  0  0  0  0  0  0
   13.7280  -20.7277   25.4211 N   0  0  0  0  0  0  0  0  0  0  0  0
   12.9654  -20.8445   26.6197 C   0  0  0  0  0  0  0  0  0  0  0  0
   13.3063  -21.7477   27.4395 O   0  0  0  0  0  0  0  0  0  0  0  0
   11.8293  -19.9820   26.9514 C   0  0  0  0  0  0  0  0  0  0  0  0
   11.5189  -18.9010   25.9886 C   0  0  0  0  0  0  0  0  0  0  0  0
   10.4298  -17.9973   26.3821 C   0  0  2  0  0  0  0  0  0  0  0  0
   10.2747  -16.9237   25.3661 N   0  0  0  0  0  0  0  0  0  0  0  0
   10.4907  -17.3946   27.6765 C   0  0  0  0  0  0  0  0  0  0  0  0
   10.7468  -16.1933   27.9293 O   0  0  0  0  0  0  0  0  0  0  0  0
   10.2468  -18.1803   28.8255 O   0  0  0  0  0  0  0  0  0  0  0  0
  2  1  1  6
  3  2  1  0
  3  4  1  0
  4  8  1  0
  4  5  2  0
  5  6  1  0
  7  6  1  0
  8  7  2  0
  9  2  1  0
 10  9  2  0
 12 11  1  0
 12 22  2  0
 13 12  1  0
 14 13  2  0
 14 15  1  0
 15 21  2  0
 16 15  1  0
 17 16  1  6
 17 18  1  0
 18  9  1  0
 19 17  1  0
 20 19  2  0
 21 22  1  0
 24 23  1  0
 25 24  2  0
 26 24  1  0
 28 27  1  6
 27 26  1  0
 28 29  1  0
 29 19  1  0
 30 32  1  0
 30 28  1  0
 31 30  2  0
M  END
$$$$
