HYQ.pdb
     RDKit          3D

 32 33  0  0  1  0  0  0  0  0999 V2000
    9.5992  -15.7811   19.3267 N   0  0  0  0  0  0  0  0  0  0  0  0
    8.9226  -16.2906   20.4915 C   0  0  1  0  0  0  0  0  0  0  0  0
    8.7656  -17.7852   20.3315 C   0  0  0  0  0  0  0  0  0  0  0  0
    7.8713  -18.0649   19.1790 C   0  0  0  0  0  0  0  0  0  0  0  0
    6.5242  -17.7559   19.1301 C   0  0  0  0  0  0  0  0  0  0  0  0
    5.9980  -18.1363   17.9532 N   0  0  0  0  0  0  0  0  0  0  0  0
    7.0229  -18.6834   17.2694 C   0  0  0  0  0  0  0  0  0  0  0  0
    8.1505  -18.6439   17.9993 N   0  0  0  0  0  0  0  0  0  0  0  0
    9.6942  -15.9722   21.7458 C   0  0  0  0  0  0  0  0  0  0  0  0
   10.9405  -16.0330   21.7738 O   0  0  0  0  0  0  0  0  0  0  0  0
   10.5510  -14.6799   30.5377 O   0  0  0  0  0  0  0  0  0  0  0  0
   10.0516  -14.7211   29.2289 C   0  0  0  0  0  0  0  0  0  0  0  0
   10.2828  -13.6864   28.3515 C   0  0  0  0  0  0  0  0  0  0  0  0
    9.8035  -13.6848   27.0353 C   0  0  0  0  0  0  0  0  0  0  0  0
    9.0740  -14.7500   26.5900 C   0  0  0  0  0  0  0  0  0  0  0  0
    8.5224  -14.8825   25.2308 C   0  0  0  0  0  0  0  0  0  0  0  0
    9.5309  -15.4834   24.2365 C   0  0  2  0  0  0  0  0  0  0  0  0
    9.0138  -15.5948   22.9265 N   0  0  0  0  0  0  0  0  0  0  0  0
   10.1104  -16.6938   24.8157 C   0  0  0  0  0  0  0  0  0  0  0  0
    9.3892  -17.7331   24.9878 O   0  0  0  0  0  0  0  0  0  0  0  0
    8.8400  -15.7932   27.4727 C   0  0  0  0  0  0  0  0  0  0  0  0
    9.3091  -15.7969   28.7647 C   0  0  0  0  0  0  0  0  0  0  0  0
   15.5986  -18.8442   23.1742 N   0  0  0  0  0  0  0  0  0  0  0  0
   14.3423  -18.4715   22.6132 C   0  0  0  0  0  0  0  0  0  0  0  0
   14.2954  -18.2937   21.3601 O   0  0  0  0  0  0  0  0  0  0  0  0
   13.1188  -18.2932   23.3980 C   0  0  0  0  0  0  0  0  0  0  0  0
   13.2555  -18.4083   24.8677 C   0  0  0  0  0  0  0  0  0  0  0  0
   12.0363  -18.1330   25.6395 C   0  0  2  0  0  0  0  0  0  0  0  0
   11.4613  -16.8272   25.2232 N   0  0  0  0  0  0  0  0  0  0  0  0
   12.1232  -18.1589   27.0657 C   0  0  0  0  0  0  0  0  0  0  0  0
   12.4280  -19.1456   27.7772 O   0  0  0  0  0  0  0  0  0  0  0  0
   11.8497  -16.9855   27.8041 O   0  0  0  0  0  0  0  0  0  0  0  0
  2  1  1  6
  3  2  1  0
  3  4  1  0
  4  8  1  0
  4  5  2  0
  5  6  1  0
  7  6  1  0
  8  7  2  0
  9  2  1  0
 10  9  2  0
 12 11  1  0
 12 22  2  0
 13 12  1  0
 14 13  2  0
 14 15  1  0
 15 21  2  0
 16 15  1  0
 17 16  1  1
 17 18  1  0
 18  9  1  0
 19 17  1  0
 20 19  2  0
 21 22  1  0
 24 23  1  0
 25 24  2  0
 26 24  1  0
 28 27  1  6
 27 26  1  0
 28 29  1  0
 29 19  1  0
 30 32  1  0
 30 28  1  0
 31 30  2  0
M  END
$$$$
