MTF.pdb
     RDKit          3D

 27 27  0  0  1  0  0  0  0  0999 V2000
   27.4412  -17.3034  -18.0376 C   0  0  0  0  0  0  0  0  0  0  0  0
   28.9994  -17.1857  -17.1137 S   0  0  0  0  0  0  0  0  0  0  0  0
   28.9526  -18.2022  -15.6298 C   0  0  0  0  0  0  0  0  0  0  0  0
   27.8261  -17.8253  -14.7025 C   0  0  0  0  0  0  0  0  0  0  0  0
   26.6875  -18.8262  -14.7586 C   0  0  2  0  0  0  0  0  0  0  0  0
   25.7122  -18.3019  -15.6918 N   0  0  0  0  0  0  0  0  0  0  0  0
   26.0849  -18.8378  -13.4130 C   0  0  0  0  0  0  0  0  0  0  0  0
   25.3590  -17.8785  -13.0639 O   0  0  0  0  0  0  0  0  0  0  0  0
   23.3675  -19.8519  -12.4432 C   0  0  0  0  0  0  0  0  0  0  0  0
   24.2137  -20.5491  -11.4075 C   0  0  1  0  0  0  0  0  0  0  0  0
   24.5409  -21.8001  -11.9674 O   0  0  0  0  0  0  0  0  0  0  0  0
   25.5408  -19.8269  -11.1910 C   0  0  2  0  0  0  0  0  0  0  0  0
   26.2715  -19.8736  -12.4719 N   0  0  0  0  0  0  0  0  0  0  0  0
   26.4019  -20.4722  -10.1942 C   0  0  0  0  0  0  0  0  0  0  0  0
   27.1900  -21.4053  -10.5526 O   0  0  0  0  0  0  0  0  0  0  0  0
   26.4701  -20.1693   -8.8101 N   0  0  0  0  0  0  0  0  0  0  0  0
   27.0443  -21.0622   -7.8325 C   0  0  1  0  0  0  0  0  0  0  0  0
   28.4407  -20.6919   -7.4335 C   0  0  0  0  0  0  0  0  0  0  0  0
   28.5255  -19.9504   -6.1545 C   0  0  0  0  0  0  0  0  0  0  0  0
   28.8143  -20.5708   -4.9411 C   0  0  0  0  0  0  0  0  0  0  0  0
   28.8989  -19.8840   -3.7576 C   0  0  0  0  0  0  0  0  0  0  0  0
   28.6957  -18.5218   -3.7277 C   0  0  0  0  0  0  0  0  0  0  0  0
   28.4090  -17.8805   -4.9091 C   0  0  0  0  0  0  0  0  0  0  0  0
   28.3292  -18.5910   -6.0857 C   0  0  0  0  0  0  0  0  0  0  0  0
   26.1146  -21.2487   -6.6947 C   0  0  0  0  0  0  0  0  0  0  0  0
   25.0402  -20.6519   -6.5753 O   0  0  0  0  0  0  0  0  0  0  0  0
   26.4559  -22.1458   -5.6906 O   0  0  0  0  0  0  0  0  0  0  0  0
  2  1  1  0
  3  2  1  0
  4  3  1  0
  4  5  1  0
  5  7  1  0
  5  6  1  6
  7  8  2  0
 10 12  1  0
 10  9  1  6
 11 10  1  0
 13  7  1  0
 12 13  1  6
 14 12  1  0
 14 15  2  0
 16 14  1  0
 17 25  1  0
 17 16  1  0
 17 18  1  1
 19 18  1  0
 20 19  2  0
 21 20  1  0
 22 21  2  0
 22 23  1  0
 23 24  2  0
 24 19  1  0
 25 27  1  0
 26 25  2  0
M  END
$$$$
