MTF.pdb
     RDKit          3D

 27 27  0  0  1  0  0  0  0  0999 V2000
   27.4645  -29.5337  -22.8079 C   0  0  0  0  0  0  0  0  0  0  0  0
   29.0272  -28.6914  -22.4281 S   0  0  0  0  0  0  0  0  0  0  0  0
   28.7521  -27.2548  -21.3802 C   0  0  0  0  0  0  0  0  0  0  0  0
   30.0297  -26.5340  -21.0351 C   0  0  0  0  0  0  0  0  0  0  0  0
   29.7771  -25.3224  -20.1579 C   0  0  2  0  0  0  0  0  0  0  0  0
   31.0688  -24.7344  -19.8705 N   0  0  0  0  0  0  0  0  0  0  0  0
   29.2101  -25.8388  -18.8986 C   0  0  0  0  0  0  0  0  0  0  0  0
   29.9875  -26.2189  -17.9929 O   0  0  0  0  0  0  0  0  0  0  0  0
   29.3813  -25.1795  -16.2809 C   0  0  0  0  0  0  0  0  0  0  0  0
   27.8744  -25.2121  -16.3347 C   0  0  1  0  0  0  0  0  0  0  0  0
   27.4909  -23.9870  -16.9157 O   0  0  0  0  0  0  0  0  0  0  0  0
   27.3718  -26.2998  -17.2801 C   0  0  2  0  0  0  0  0  0  0  0  0
   27.8263  -25.9369  -18.6360 N   0  0  0  0  0  0  0  0  0  0  0  0
   25.9091  -26.3925  -17.3399 C   0  0  0  0  0  0  0  0  0  0  0  0
   25.2764  -25.7791  -18.2584 O   0  0  0  0  0  0  0  0  0  0  0  0
   25.0693  -27.1190  -16.4573 N   0  0  0  0  0  0  0  0  0  0  0  0
   23.6310  -27.1420  -16.5737 C   0  0  1  0  0  0  0  0  0  0  0  0
   23.0794  -28.4991  -16.8905 C   0  0  0  0  0  0  0  0  0  0  0  0
   23.5578  -29.5701  -15.9866 C   0  0  0  0  0  0  0  0  0  0  0  0
   24.7129  -30.3076  -16.2368 C   0  0  0  0  0  0  0  0  0  0  0  0
   25.1598  -31.2951  -15.3973 C   0  0  0  0  0  0  0  0  0  0  0  0
   24.4633  -31.5993  -14.2484 C   0  0  0  0  0  0  0  0  0  0  0  0
   23.3192  -30.8890  -13.9735 C   0  0  0  0  0  0  0  0  0  0  0  0
   22.8896  -29.9014  -14.8313 C   0  0  0  0  0  0  0  0  0  0  0  0
   23.0075  -26.4897  -15.3991 C   0  0  0  0  0  0  0  0  0  0  0  0
   23.6254  -26.1638  -14.3809 O   0  0  0  0  0  0  0  0  0  0  0  0
   21.6451  -26.2207  -15.4268 O   0  0  0  0  0  0  0  0  0  0  0  0
  2  1  1  0
  3  2  1  0
  4  3  1  0
  4  5  1  0
  5  7  1  0
  5  6  1  1
  7  8  2  0
 10 12  1  0
 10  9  1  6
 11 10  1  0
 13  7  1  0
 12 13  1  6
 14 12  1  0
 14 15  2  0
 16 14  1  0
 17 25  1  0
 17 16  1  0
 17 18  1  1
 19 18  1  0
 20 19  2  0
 21 20  1  0
 22 21  2  0
 22 23  1  0
 23 24  2  0
 24 19  1  0
 25 27  1  0
 26 25  2  0
M  END
$$$$
