MTF.pdb
     RDKit          3D

 27 27  0  0  1  0  0  0  0  0999 V2000
   30.1652  -15.4414  -16.3563 C   0  0  0  0  0  0  0  0  0  0  0  0
   28.3819  -15.7258  -16.5419 S   0  0  0  0  0  0  0  0  0  0  0  0
   27.4406  -14.7245  -15.3805 C   0  0  0  0  0  0  0  0  0  0  0  0
   25.9526  -14.9169  -15.5202 C   0  0  0  0  0  0  0  0  0  0  0  0
   25.6107  -15.9198  -16.6059 C   0  0  2  0  0  0  0  0  0  0  0  0
   25.4796  -15.1748  -17.8407 N   0  0  0  0  0  0  0  0  0  0  0  0
   24.2900  -16.4721  -16.2529 C   0  0  0  0  0  0  0  0  0  0  0  0
   23.2993  -15.7061  -16.2228 O   0  0  0  0  0  0  0  0  0  0  0  0
   21.9949  -18.2576  -17.9705 C   0  0  0  0  0  0  0  0  0  0  0  0
   22.1562  -19.0912  -16.7239 C   0  0  1  0  0  0  0  0  0  0  0  0
   23.1579  -20.0345  -17.0276 O   0  0  0  0  0  0  0  0  0  0  0  0
   22.6992  -18.2623  -15.5631 C   0  0  2  0  0  0  0  0  0  0  0  0
   24.0582  -17.8293  -15.9405 N   0  0  0  0  0  0  0  0  0  0  0  0
   22.8334  -19.0213  -14.3150 C   0  0  0  0  0  0  0  0  0  0  0  0
   23.9530  -19.5478  -14.0156 O   0  0  0  0  0  0  0  0  0  0  0  0
   21.8193  -19.2522  -13.3504 N   0  0  0  0  0  0  0  0  0  0  0  0
   22.0089  -20.0854  -12.1875 C   0  0  1  0  0  0  0  0  0  0  0  0
   22.4437  -19.3239  -10.9721 C   0  0  0  0  0  0  0  0  0  0  0  0
   22.6538  -20.1693   -9.7745 C   0  0  0  0  0  0  0  0  0  0  0  0
   21.6177  -20.5330   -8.9173 C   0  0  0  0  0  0  0  0  0  0  0  0
   21.8104  -21.3206   -7.8118 C   0  0  0  0  0  0  0  0  0  0  0  0
   23.0679  -21.7909   -7.5034 C   0  0  0  0  0  0  0  0  0  0  0  0
   24.1114  -21.4494   -8.3302 C   0  0  0  0  0  0  0  0  0  0  0  0
   23.8940  -20.6571   -9.4351 C   0  0  0  0  0  0  0  0  0  0  0  0
   20.8257  -20.9505  -11.9738 C   0  0  0  0  0  0  0  0  0  0  0  0
   20.8868  -22.1215  -11.5866 O   0  0  0  0  0  0  0  0  0  0  0  0
   19.5617  -20.4296  -12.2194 O   0  0  0  0  0  0  0  0  0  0  0  0
  2  1  1  0
  3  2  1  0
  4  3  1  0
  4  5  1  0
  5  7  1  0
  5  6  1  6
  7  8  2  0
 10 12  1  0
 10  9  1  6
 11 10  1  0
 13  7  1  0
 12 13  1  6
 14 12  1  0
 14 15  2  0
 16 14  1  0
 17 25  1  0
 17 16  1  0
 17 18  1  1
 19 18  1  0
 20 19  2  0
 21 20  1  0
 22 21  2  0
 22 23  1  0
 23 24  2  0
 24 19  1  0
 25 27  1  0
 26 25  2  0
M  END
$$$$
