MTF.pdb
     RDKit          3D

 27 27  0  0  1  0  0  0  0  0999 V2000
   20.3234  -16.6697  -17.8023 C   0  0  0  0  0  0  0  0  0  0  0  0
   20.2263  -16.2507  -19.5660 S   0  0  0  0  0  0  0  0  0  0  0  0
   21.7727  -15.5406  -20.1505 C   0  0  0  0  0  0  0  0  0  0  0  0
   22.1686  -14.3025  -19.3882 C   0  0  0  0  0  0  0  0  0  0  0  0
   23.4746  -13.7195  -19.8939 C   0  0  2  0  0  0  0  0  0  0  0  0
   24.5251  -14.6334  -19.4964 N   0  0  0  0  0  0  0  0  0  0  0  0
   23.6642  -12.4491  -19.1700 C   0  0  0  0  0  0  0  0  0  0  0  0
   24.2107  -12.4676  -18.0430 O   0  0  0  0  0  0  0  0  0  0  0  0
   25.3819   -9.4131  -20.5679 C   0  0  0  0  0  0  0  0  0  0  0  0
   24.1159   -8.9421  -19.8971 C   0  0  1  0  0  0  0  0  0  0  0  0
   23.1499   -8.8721  -20.9206 O   0  0  0  0  0  0  0  0  0  0  0  0
   23.5950   -9.9726  -18.8989 C   0  0  2  0  0  0  0  0  0  0  0  0
   23.2659  -11.1889  -19.6664 N   0  0  0  0  0  0  0  0  0  0  0  0
   22.3616   -9.5589  -18.2213 C   0  0  0  0  0  0  0  0  0  0  0  0
   21.2387   -9.9880  -18.6401 O   0  0  0  0  0  0  0  0  0  0  0  0
   22.2593   -8.6971  -17.0993 N   0  0  0  0  0  0  0  0  0  0  0  0
   21.0047   -8.3680  -16.4665 C   0  0  1  0  0  0  0  0  0  0  0  0
   20.4451   -9.4824  -15.6351 C   0  0  0  0  0  0  0  0  0  0  0  0
   21.1792   -9.7183  -14.3708 C   0  0  0  0  0  0  0  0  0  0  0  0
   20.7351   -9.2387  -13.1406 C   0  0  0  0  0  0  0  0  0  0  0  0
   21.4110   -9.4618  -11.9688 C   0  0  0  0  0  0  0  0  0  0  0  0
   22.5825  -10.1864  -11.9686 C   0  0  0  0  0  0  0  0  0  0  0  0
   23.0468  -10.6734  -13.1672 C   0  0  0  0  0  0  0  0  0  0  0  0
   22.3510  -10.4368  -14.3315 C   0  0  0  0  0  0  0  0  0  0  0  0
   21.1084   -7.0716  -15.7576 C   0  0  0  0  0  0  0  0  0  0  0  0
   20.1399   -6.4473  -15.3140 O   0  0  0  0  0  0  0  0  0  0  0  0
   22.3644   -6.5083  -15.5717 O   0  0  0  0  0  0  0  0  0  0  0  0
  2  1  1  0
  3  2  1  0
  4  3  1  0
  4  5  1  0
  5  7  1  0
  5  6  1  1
  7  8  2  0
 10 12  1  0
 10  9  1  6
 11 10  1  0
 13  7  1  0
 12 13  1  6
 14 12  1  0
 14 15  2  0
 16 14  1  0
 17 25  1  0
 17 16  1  0
 17 18  1  1
 19 18  1  0
 20 19  2  0
 21 20  1  0
 22 21  2  0
 22 23  1  0
 23 24  2  0
 24 19  1  0
 25 27  1  0
 26 25  2  0
M  END
$$$$
