MTF.pdb
     RDKit          3D

 27 27  0  0  1  0  0  0  0  0999 V2000
   27.8151  -20.0963  -19.3371 C   0  0  0  0  0  0  0  0  0  0  0  0
   26.6537  -20.1876  -20.7294 S   0  0  0  0  0  0  0  0  0  0  0  0
   25.7835  -18.6286  -20.9520 C   0  0  0  0  0  0  0  0  0  0  0  0
   26.7172  -17.4490  -21.0386 C   0  0  0  0  0  0  0  0  0  0  0  0
   26.5138  -16.4801  -19.8891 C   0  0  2  0  0  0  0  0  0  0  0  0
   25.1387  -16.0312  -19.9557 N   0  0  0  0  0  0  0  0  0  0  0  0
   27.3932  -15.3288  -20.1626 C   0  0  0  0  0  0  0  0  0  0  0  0
   28.6340  -15.4784  -20.0786 O   0  0  0  0  0  0  0  0  0  0  0  0
   28.0101  -13.3543  -23.2083 C   0  0  0  0  0  0  0  0  0  0  0  0
   27.6272  -12.3812  -22.1214 C   0  0  1  0  0  0  0  0  0  0  0  0
   26.2280  -12.2426  -22.2148 O   0  0  0  0  0  0  0  0  0  0  0  0
   27.8997  -12.9564  -20.7342 C   0  0  2  0  0  0  0  0  0  0  0  0
   26.9270  -14.0447  -20.5195 N   0  0  0  0  0  0  0  0  0  0  0  0
   27.6930  -11.9905  -19.6497 C   0  0  0  0  0  0  0  0  0  0  0  0
   26.6576  -12.0810  -18.9149 O   0  0  0  0  0  0  0  0  0  0  0  0
   28.5477  -10.9140  -19.2994 N   0  0  0  0  0  0  0  0  0  0  0  0
   28.2971  -10.0368  -18.1812 C   0  0  1  0  0  0  0  0  0  0  0  0
   28.9748  -10.4723  -16.9173 C   0  0  0  0  0  0  0  0  0  0  0  0
   30.4231  -10.7396  -17.0713 C   0  0  0  0  0  0  0  0  0  0  0  0
   31.3896   -9.7422  -16.9622 C   0  0  0  0  0  0  0  0  0  0  0  0
   32.7310   -9.9900  -17.0986 C   0  0  0  0  0  0  0  0  0  0  0  0
   33.1800  -11.2668  -17.3550 C   0  0  0  0  0  0  0  0  0  0  0  0
   32.2507  -12.2731  -17.4682 C   0  0  0  0  0  0  0  0  0  0  0  0
   30.9084  -12.0006  -17.3272 C   0  0  0  0  0  0  0  0  0  0  0  0
   28.5605   -8.6293  -18.5601 C   0  0  0  0  0  0  0  0  0  0  0  0
   29.1729   -8.2907  -19.5774 O   0  0  0  0  0  0  0  0  0  0  0  0
   28.0978   -7.6147  -17.7319 O   0  0  0  0  0  0  0  0  0  0  0  0
  2  1  1  0
  3  2  1  0
  4  3  1  0
  4  5  1  0
  5  7  1  0
  5  6  1  6
  7  8  2  0
 10 12  1  0
 10  9  1  6
 11 10  1  0
 13  7  1  0
 12 13  1  1
 14 12  1  0
 14 15  2  0
 16 14  1  0
 17 25  1  0
 17 16  1  0
 17 18  1  1
 19 18  1  0
 20 19  2  0
 21 20  1  0
 22 21  2  0
 22 23  1  0
 23 24  2  0
 24 19  1  0
 25 27  1  0
 26 25  2  0
M  END
$$$$
