MTF.pdb
     RDKit          3D

 27 27  0  0  1  0  0  0  0  0999 V2000
   26.5252  -13.9348  -14.8167 C   0  0  0  0  0  0  0  0  0  0  0  0
   27.3025  -14.5710  -16.3289 S   0  0  0  0  0  0  0  0  0  0  0  0
   27.3071  -16.3701  -16.3489 C   0  0  0  0  0  0  0  0  0  0  0  0
   26.6636  -16.9666  -15.1237 C   0  0  0  0  0  0  0  0  0  0  0  0
   26.6199  -18.4816  -15.1878 C   0  0  2  0  0  0  0  0  0  0  0  0
   25.9063  -18.8311  -16.3984 N   0  0  0  0  0  0  0  0  0  0  0  0
   25.8162  -18.9180  -14.0313 C   0  0  0  0  0  0  0  0  0  0  0  0
   24.5706  -18.9828  -14.1466 O   0  0  0  0  0  0  0  0  0  0  0  0
   24.6998  -21.2990  -13.8938 C   0  0  0  0  0  0  0  0  0  0  0  0
   25.3684  -21.4628  -12.5518 C   0  0  1  0  0  0  0  0  0  0  0  0
   26.6595  -21.9537  -12.8308 O   0  0  0  0  0  0  0  0  0  0  0  0
   25.5719  -20.1175  -11.8603 C   0  0  2  0  0  0  0  0  0  0  0  0
   26.3615  -19.2752  -12.7789 N   0  0  0  0  0  0  0  0  0  0  0  0
   26.3397  -20.2108  -10.6139 C   0  0  0  0  0  0  0  0  0  0  0  0
   27.5285  -20.6652  -10.6392 O   0  0  0  0  0  0  0  0  0  0  0  0
   25.9002  -19.8375   -9.3179 N   0  0  0  0  0  0  0  0  0  0  0  0
   26.6651  -20.0892   -8.1204 C   0  0  1  0  0  0  0  0  0  0  0  0
   26.8861  -18.8648   -7.2848 C   0  0  0  0  0  0  0  0  0  0  0  0
   27.6953  -19.1036   -6.0679 C   0  0  0  0  0  0  0  0  0  0  0  0
   29.0882  -19.0826   -6.0727 C   0  0  0  0  0  0  0  0  0  0  0  0
   29.8380  -19.2976   -4.9452 C   0  0  0  0  0  0  0  0  0  0  0  0
   29.2232  -19.5483   -3.7383 C   0  0  0  0  0  0  0  0  0  0  0  0
   27.8495  -19.5754   -3.7008 C   0  0  0  0  0  0  0  0  0  0  0  0
   27.1171  -19.3565   -4.8461 C   0  0  0  0  0  0  0  0  0  0  0  0
   26.0990  -21.2394   -7.3784 C   0  0  0  0  0  0  0  0  0  0  0  0
   26.6235  -21.7438   -6.3808 O   0  0  0  0  0  0  0  0  0  0  0  0
   24.9055  -21.7980   -7.8175 O   0  0  0  0  0  0  0  0  0  0  0  0
  2  1  1  0
  3  2  1  0
  4  3  1  0
  4  5  1  0
  5  7  1  0
  5  6  1  6
  7  8  2  0
 10 12  1  0
 10  9  1  6
 11 10  1  0
 13  7  1  0
 12 13  1  6
 14 12  1  0
 14 15  2  0
 16 14  1  0
 17 25  1  0
 17 16  1  0
 17 18  1  1
 19 18  1  0
 20 19  2  0
 21 20  1  0
 22 21  2  0
 22 23  1  0
 23 24  2  0
 24 19  1  0
 25 27  1  0
 26 25  2  0
M  END
$$$$
