MTF.pdb
     RDKit          3D

 27 27  0  0  1  0  0  0  0  0999 V2000
   24.2961  -16.5600  -19.1167 C   0  0  0  0  0  0  0  0  0  0  0  0
   25.9135  -15.7363  -19.1493 S   0  0  0  0  0  0  0  0  0  0  0  0
   25.9944  -14.4165  -17.9290 C   0  0  0  0  0  0  0  0  0  0  0  0
   24.8077  -13.4901  -17.9953 C   0  0  0  0  0  0  0  0  0  0  0  0
   24.8711  -12.4115  -16.9305 C   0  0  2  0  0  0  0  0  0  0  0  0
   24.8660  -13.0851  -15.6486 N   0  0  0  0  0  0  0  0  0  0  0  0
   23.6220  -11.6382  -17.0551 C   0  0  0  0  0  0  0  0  0  0  0  0
   23.1152  -11.4810  -18.1898 O   0  0  0  0  0  0  0  0  0  0  0  0
   20.2925  -12.3789  -16.3491 C   0  0  0  0  0  0  0  0  0  0  0  0
   20.5619  -11.1102  -15.5793 C   0  0  1  0  0  0  0  0  0  0  0  0
   21.0369  -11.5267  -14.3198 O   0  0  0  0  0  0  0  0  0  0  0  0
   21.6947  -10.3039  -16.2087 C   0  0  2  0  0  0  0  0  0  0  0  0
   22.9433  -11.0510  -15.9651 N   0  0  0  0  0  0  0  0  0  0  0  0
   21.8751   -8.9793  -15.6050 C   0  0  0  0  0  0  0  0  0  0  0  0
   22.6357   -8.8468  -14.5930 O   0  0  0  0  0  0  0  0  0  0  0  0
   21.2777   -7.7652  -16.0312 N   0  0  0  0  0  0  0  0  0  0  0  0
   21.4810   -6.5049  -15.3584 C   0  0  1  0  0  0  0  0  0  0  0  0
   21.3575   -5.3176  -16.2647 C   0  0  0  0  0  0  0  0  0  0  0  0
   21.4509   -4.0147  -15.5672 C   0  0  0  0  0  0  0  0  0  0  0  0
   22.6675   -3.4068  -15.2652 C   0  0  0  0  0  0  0  0  0  0  0  0
   22.7547   -2.1977  -14.6249 C   0  0  0  0  0  0  0  0  0  0  0  0
   21.6125   -1.5258  -14.2487 C   0  0  0  0  0  0  0  0  0  0  0  0
   20.3963   -2.0998  -14.5327 C   0  0  0  0  0  0  0  0  0  0  0  0
   20.3332   -3.3151  -15.1768 C   0  0  0  0  0  0  0  0  0  0  0  0
   20.6442   -6.4301  -14.1385 C   0  0  0  0  0  0  0  0  0  0  0  0
   19.4516   -6.7479  -14.0982 O   0  0  0  0  0  0  0  0  0  0  0  0
   21.2192   -5.9766  -12.9583 O   0  0  0  0  0  0  0  0  0  0  0  0
  2  1  1  0
  3  2  1  0
  4  3  1  0
  4  5  1  0
  5  7  1  0
  5  6  1  1
  7  8  2  0
 10 12  1  0
 10  9  1  6
 11 10  1  0
 13  7  1  0
 12 13  1  1
 14 12  1  0
 14 15  2  0
 16 14  1  0
 17 25  1  0
 17 16  1  0
 17 18  1  6
 19 18  1  0
 20 19  2  0
 21 20  1  0
 22 21  2  0
 22 23  1  0
 23 24  2  0
 24 19  1  0
 25 27  1  0
 26 25  2  0
M  END
$$$$
