MTF.pdb
     RDKit          3D

 27 27  0  0  1  0  0  0  0  0999 V2000
   32.4255  -26.6010  -16.1534 C   0  0  0  0  0  0  0  0  0  0  0  0
   31.3026  -25.2043  -16.4430 S   0  0  0  0  0  0  0  0  0  0  0  0
   31.9944  -24.0529  -17.6402 C   0  0  0  0  0  0  0  0  0  0  0  0
   31.1165  -22.8484  -17.8625 C   0  0  0  0  0  0  0  0  0  0  0  0
   29.7868  -23.2245  -18.4883 C   0  0  2  0  0  0  0  0  0  0  0  0
   29.9506  -23.1138  -19.9228 N   0  0  0  0  0  0  0  0  0  0  0  0
   28.8223  -22.1994  -18.0494 C   0  0  0  0  0  0  0  0  0  0  0  0
   28.8136  -21.0870  -18.6253 O   0  0  0  0  0  0  0  0  0  0  0  0
   26.3633  -20.9751  -19.1185 C   0  0  0  0  0  0  0  0  0  0  0  0
   25.8345  -21.3728  -17.7631 C   0  0  1  0  0  0  0  0  0  0  0  0
   25.4817  -22.7320  -17.8795 O   0  0  0  0  0  0  0  0  0  0  0  0
   26.9256  -21.3128  -16.6974 C   0  0  2  0  0  0  0  0  0  0  0  0
   27.8897  -22.3861  -17.0059 N   0  0  0  0  0  0  0  0  0  0  0  0
   26.4322  -21.5709  -15.3403 C   0  0  0  0  0  0  0  0  0  0  0  0
   26.4314  -22.7601  -14.8862 O   0  0  0  0  0  0  0  0  0  0  0  0
   25.9316  -20.6110  -14.4238 N   0  0  0  0  0  0  0  0  0  0  0  0
   25.4123  -20.9558  -13.1222 C   0  0  1  0  0  0  0  0  0  0  0  0
   25.7752  -19.9690  -12.0541 C   0  0  0  0  0  0  0  0  0  0  0  0
   25.1804  -20.2669  -10.7312 C   0  0  0  0  0  0  0  0  0  0  0  0
   23.8531  -19.9803  -10.4196 C   0  0  0  0  0  0  0  0  0  0  0  0
   23.3001  -20.2613   -9.1970 C   0  0  0  0  0  0  0  0  0  0  0  0
   24.0579  -20.8519   -8.2098 C   0  0  0  0  0  0  0  0  0  0  0  0
   25.3715  -21.1472   -8.4867 C   0  0  0  0  0  0  0  0  0  0  0  0
   25.9054  -20.8558   -9.7219 C   0  0  0  0  0  0  0  0  0  0  0  0
   23.9646  -21.2570  -13.2073 C   0  0  0  0  0  0  0  0  0  0  0  0
   23.1804  -20.6727  -13.9613 O   0  0  0  0  0  0  0  0  0  0  0  0
   23.4389  -22.2546  -12.3962 O   0  0  0  0  0  0  0  0  0  0  0  0
  2  1  1  0
  3  2  1  0
  4  3  1  0
  4  5  1  0
  5  7  1  0
  5  6  1  6
  7  8  2  0
 10 12  1  0
 10  9  1  6
 11 10  1  0
 13  7  1  0
 12 13  1  6
 14 12  1  0
 14 15  2  0
 16 14  1  0
 17 25  1  0
 17 16  1  0
 17 18  1  1
 19 18  1  0
 20 19  2  0
 21 20  1  0
 22 21  2  0
 22 23  1  0
 23 24  2  0
 24 19  1  0
 25 27  1  0
 26 25  2  0
M  END
$$$$
