MTF.pdb
     RDKit          3D

 27 27  0  0  1  0  0  0  0  0999 V2000
   13.0385  -16.1759  -15.5619 C   0  0  0  0  0  0  0  0  0  0  0  0
   14.8315  -16.3590  -15.7788 S   0  0  0  0  0  0  0  0  0  0  0  0
   15.5788  -14.8190  -16.3332 C   0  0  0  0  0  0  0  0  0  0  0  0
   17.0708  -14.9290  -16.5140 C   0  0  0  0  0  0  0  0  0  0  0  0
   17.4623  -14.9696  -17.9791 C   0  0  2  0  0  0  0  0  0  0  0  0
   17.8698  -16.3287  -18.2681 N   0  0  0  0  0  0  0  0  0  0  0  0
   18.6394  -14.0920  -18.1135 C   0  0  0  0  0  0  0  0  0  0  0  0
   19.7841  -14.5955  -18.0416 O   0  0  0  0  0  0  0  0  0  0  0  0
   19.5939  -12.2797  -21.0252 C   0  0  0  0  0  0  0  0  0  0  0  0
   19.6760  -11.2630  -19.9141 C   0  0  1  0  0  0  0  0  0  0  0  0
   18.4262  -10.6122  -19.9050 O   0  0  0  0  0  0  0  0  0  0  0  0
   19.8086  -11.9348  -18.5500 C   0  0  2  0  0  0  0  0  0  0  0  0
   18.5665  -12.6975  -18.3219 N   0  0  0  0  0  0  0  0  0  0  0  0
   19.9259  -10.9842  -17.4390 C   0  0  0  0  0  0  0  0  0  0  0  0
   18.9095  -10.7333  -16.7150 O   0  0  0  0  0  0  0  0  0  0  0  0
   21.0910  -10.2743  -17.0506 N   0  0  0  0  0  0  0  0  0  0  0  0
   21.0930   -9.2576  -16.0264 C   0  0  1  0  0  0  0  0  0  0  0  0
   22.3176   -9.2828  -15.1627 C   0  0  0  0  0  0  0  0  0  0  0  0
   22.3842   -8.1777  -14.1793 C   0  0  0  0  0  0  0  0  0  0  0  0
   22.7379   -6.8767  -14.5300 C   0  0  0  0  0  0  0  0  0  0  0  0
   22.7939   -5.8517  -13.6212 C   0  0  0  0  0  0  0  0  0  0  0  0
   22.4946   -6.0799  -12.2961 C   0  0  0  0  0  0  0  0  0  0  0  0
   22.1418   -7.3535  -11.9184 C   0  0  0  0  0  0  0  0  0  0  0  0
   22.0923   -8.3673  -12.8489 C   0  0  0  0  0  0  0  0  0  0  0  0
   20.7888   -7.9324  -16.6140 C   0  0  0  0  0  0  0  0  0  0  0  0
   21.2403   -7.5346  -17.6923 O   0  0  0  0  0  0  0  0  0  0  0  0
   19.9460   -7.0709  -15.9236 O   0  0  0  0  0  0  0  0  0  0  0  0
  2  1  1  0
  3  2  1  0
  4  3  1  0
  4  5  1  0
  5  7  1  0
  5  6  1  1
  7  8  2  0
 10 12  1  0
 10  9  1  6
 11 10  1  0
 13  7  1  0
 12 13  1  1
 14 12  1  0
 14 15  2  0
 16 14  1  0
 17 25  1  0
 17 16  1  0
 17 18  1  6
 19 18  1  0
 20 19  2  0
 21 20  1  0
 22 21  2  0
 22 23  1  0
 23 24  2  0
 24 19  1  0
 25 27  1  0
 26 25  2  0
M  END
$$$$
