MTF.pdb
     RDKit          3D

 27 27  0  0  1  0  0  0  0  0999 V2000
   15.2335  -13.3555  -16.0320 C   0  0  0  0  0  0  0  0  0  0  0  0
   16.4934  -12.0498  -15.9734 S   0  0  0  0  0  0  0  0  0  0  0  0
   17.6822  -12.2346  -17.3113 C   0  0  0  0  0  0  0  0  0  0  0  0
   18.7580  -11.1797  -17.2827 C   0  0  0  0  0  0  0  0  0  0  0  0
   19.6536  -11.2509  -18.5051 C   0  0  2  0  0  0  0  0  0  0  0  0
   20.4387  -12.4613  -18.3815 N   0  0  0  0  0  0  0  0  0  0  0  0
   20.5636  -10.0944  -18.4148 C   0  0  0  0  0  0  0  0  0  0  0  0
   21.7765  -10.2929  -18.1728 O   0  0  0  0  0  0  0  0  0  0  0  0
   21.1358   -7.6874  -21.1992 C   0  0  0  0  0  0  0  0  0  0  0  0
   20.8617   -6.8905  -19.9483 C   0  0  1  0  0  0  0  0  0  0  0  0
   19.4682   -6.6821  -19.9313 O   0  0  0  0  0  0  0  0  0  0  0  0
   21.1804   -7.6955  -18.6913 C   0  0  2  0  0  0  0  0  0  0  0  0
   20.1571   -8.7530  -18.5850 N   0  0  0  0  0  0  0  0  0  0  0  0
   21.0984   -6.9083  -17.4563 C   0  0  0  0  0  0  0  0  0  0  0  0
   20.0772   -7.0206  -16.7047 O   0  0  0  0  0  0  0  0  0  0  0  0
   22.0654   -5.9915  -16.9700 N   0  0  0  0  0  0  0  0  0  0  0  0
   21.9291   -5.2887  -15.7170 C   0  0  1  0  0  0  0  0  0  0  0  0
   22.9689   -5.6650  -14.7053 C   0  0  0  0  0  0  0  0  0  0  0  0
   23.0199   -7.1140  -14.4040 C   0  0  0  0  0  0  0  0  0  0  0  0
   22.1912   -7.7175  -13.4608 C   0  0  0  0  0  0  0  0  0  0  0  0
   22.2337   -9.0599  -13.1856 C   0  0  0  0  0  0  0  0  0  0  0  0
   23.1205   -9.8784  -13.8499 C   0  0  0  0  0  0  0  0  0  0  0  0
   23.9519   -9.3127  -14.7869 C   0  0  0  0  0  0  0  0  0  0  0  0
   23.8913   -7.9619  -15.0466 C   0  0  0  0  0  0  0  0  0  0  0  0
   21.8077   -3.8315  -15.9530 C   0  0  0  0  0  0  0  0  0  0  0  0
   21.5683   -3.0056  -15.0667 O   0  0  0  0  0  0  0  0  0  0  0  0
   21.9696   -3.3461  -17.2443 O   0  0  0  0  0  0  0  0  0  0  0  0
  2  1  1  0
  3  2  1  0
  4  3  1  0
  4  5  1  0
  5  7  1  0
  5  6  1  1
  7  8  2  0
 10 12  1  0
 10  9  1  6
 11 10  1  0
 13  7  1  0
 12 13  1  1
 14 12  1  0
 14 15  2  0
 16 14  1  0
 17 25  1  0
 17 16  1  0
 17 18  1  1
 19 18  1  0
 20 19  2  0
 21 20  1  0
 22 21  2  0
 22 23  1  0
 23 24  2  0
 24 19  1  0
 25 27  1  0
 26 25  2  0
M  END
$$$$
