MTF.pdb
     RDKit          3D

 27 27  0  0  1  0  0  0  0  0999 V2000
   24.5510  -14.2478  -15.5352 C   0  0  0  0  0  0  0  0  0  0  0  0
   26.2389  -14.3765  -16.1911 S   0  0  0  0  0  0  0  0  0  0  0  0
   26.8877  -16.0427  -15.9911 C   0  0  0  0  0  0  0  0  0  0  0  0
   26.1887  -16.8115  -14.8997 C   0  0  0  0  0  0  0  0  0  0  0  0
   26.8131  -18.1764  -14.6792 C   0  0  2  0  0  0  0  0  0  0  0  0
   26.6992  -18.8980  -15.9295 N   0  0  0  0  0  0  0  0  0  0  0  0
   25.9747  -18.8533  -13.6730 C   0  0  0  0  0  0  0  0  0  0  0  0
   24.7729  -19.0849  -13.9397 O   0  0  0  0  0  0  0  0  0  0  0  0
   25.3663  -21.3130  -13.9957 C   0  0  0  0  0  0  0  0  0  0  0  0
   25.8499  -21.5996  -12.5961 C   0  0  1  0  0  0  0  0  0  0  0  0
   27.2268  -21.8721  -12.7209 O   0  0  0  0  0  0  0  0  0  0  0  0
   25.7462  -20.3650  -11.7047 C   0  0  2  0  0  0  0  0  0  0  0  0
   26.4393  -19.2672  -12.4055 N   0  0  0  0  0  0  0  0  0  0  0  0
   26.4148  -20.5218  -10.4085 C   0  0  0  0  0  0  0  0  0  0  0  0
   27.6800  -20.4037  -10.3342 O   0  0  0  0  0  0  0  0  0  0  0  0
   25.7949  -20.8017   -9.1636 N   0  0  0  0  0  0  0  0  0  0  0  0
   26.5071  -20.8054   -7.9085 C   0  0  1  0  0  0  0  0  0  0  0  0
   27.2769  -19.5446   -7.6554 C   0  0  0  0  0  0  0  0  0  0  0  0
   27.9748  -19.5165   -6.3497 C   0  0  0  0  0  0  0  0  0  0  0  0
   29.1405  -20.2382   -6.1022 C   0  0  0  0  0  0  0  0  0  0  0  0
   29.7905  -20.2079   -4.8955 C   0  0  0  0  0  0  0  0  0  0  0  0
   29.3000  -19.4431   -3.8601 C   0  0  0  0  0  0  0  0  0  0  0  0
   28.1512  -18.7191   -4.0732 C   0  0  0  0  0  0  0  0  0  0  0  0
   27.5154  -18.7650   -5.2937 C   0  0  0  0  0  0  0  0  0  0  0  0
   25.6034  -21.1999   -6.8033 C   0  0  0  0  0  0  0  0  0  0  0  0
   24.3787  -21.0429   -6.8227 O   0  0  0  0  0  0  0  0  0  0  0  0
   26.1494  -21.7834   -5.6672 O   0  0  0  0  0  0  0  0  0  0  0  0
  2  1  1  0
  3  2  1  0
  4  3  1  0
  4  5  1  0
  5  7  1  0
  5  6  1  6
  7  8  2  0
 10 12  1  0
 10  9  1  6
 11 10  1  0
 13  7  1  0
 12 13  1  6
 14 12  1  0
 14 15  2  0
 16 14  1  0
 17 25  1  0
 17 16  1  0
 17 18  1  1
 19 18  1  0
 20 19  2  0
 21 20  1  0
 22 21  2  0
 22 23  1  0
 23 24  2  0
 24 19  1  0
 25 27  1  0
 26 25  2  0
M  END
$$$$
