MTF.pdb
     RDKit          3D

 27 27  0  0  1  0  0  0  0  0999 V2000
   22.5840  -14.5627  -14.6068 C   0  0  0  0  0  0  0  0  0  0  0  0
   23.1866  -13.4787  -15.9326 S   0  0  0  0  0  0  0  0  0  0  0  0
   24.2446  -14.3787  -17.0762 C   0  0  0  0  0  0  0  0  0  0  0  0
   24.2283  -15.8662  -16.8352 C   0  0  0  0  0  0  0  0  0  0  0  0
   25.2916  -16.5829  -17.6459 C   0  0  2  0  0  0  0  0  0  0  0  0
   24.7938  -16.6775  -19.0024 N   0  0  0  0  0  0  0  0  0  0  0  0
   25.3843  -17.9444  -17.0879 C   0  0  0  0  0  0  0  0  0  0  0  0
   24.4906  -18.7771  -17.3654 O   0  0  0  0  0  0  0  0  0  0  0  0
   28.7852  -19.9814  -16.5561 C   0  0  0  0  0  0  0  0  0  0  0  0
   27.3958  -20.5655  -16.6142 C   0  0  1  0  0  0  0  0  0  0  0  0
   27.4964  -21.8385  -16.0185 O   0  0  0  0  0  0  0  0  0  0  0  0
   26.4196  -19.7736  -15.7486 C   0  0  2  0  0  0  0  0  0  0  0  0
   26.4293  -18.3850  -16.2468 N   0  0  0  0  0  0  0  0  0  0  0  0
   26.8073  -19.7137  -14.3351 C   0  0  0  0  0  0  0  0  0  0  0  0
   27.4269  -18.6926  -13.8949 O   0  0  0  0  0  0  0  0  0  0  0  0
   26.5642  -20.7020  -13.3471 N   0  0  0  0  0  0  0  0  0  0  0  0
   27.0264  -20.5889  -11.9847 C   0  0  1  0  0  0  0  0  0  0  0  0
   26.3995  -19.4532  -11.2341 C   0  0  0  0  0  0  0  0  0  0  0  0
   24.9999  -19.7039  -10.8203 C   0  0  0  0  0  0  0  0  0  0  0  0
   24.6408  -19.9760   -9.5021 C   0  0  0  0  0  0  0  0  0  0  0  0
   23.3445  -20.2022   -9.1172 C   0  0  0  0  0  0  0  0  0  0  0  0
   22.3272  -20.1674  -10.0453 C   0  0  0  0  0  0  0  0  0  0  0  0
   22.6495  -19.9013  -11.3547 C   0  0  0  0  0  0  0  0  0  0  0  0
   23.9585  -19.6771  -11.7180 C   0  0  0  0  0  0  0  0  0  0  0  0
   26.9342  -21.8979  -11.2979 C   0  0  0  0  0  0  0  0  0  0  0  0
   26.4078  -22.9008  -11.7899 O   0  0  0  0  0  0  0  0  0  0  0  0
   27.4668  -22.0238  -10.0212 O   0  0  0  0  0  0  0  0  0  0  0  0
  2  1  1  0
  3  2  1  0
  4  3  1  0
  4  5  1  0
  5  7  1  0
  5  6  1  6
  7  8  2  0
 10 12  1  0
 10  9  1  1
 11 10  1  0
 13  7  1  0
 12 13  1  6
 14 12  1  0
 14 15  2  0
 16 14  1  0
 17 25  1  0
 17 16  1  0
 17 18  1  1
 19 18  1  0
 20 19  2  0
 21 20  1  0
 22 21  2  0
 22 23  1  0
 23 24  2  0
 24 19  1  0
 25 27  1  0
 26 25  2  0
M  END
$$$$
