MTF.pdb
     RDKit          3D

 27 27  0  0  1  0  0  0  0  0999 V2000
   10.1546   -9.0966   -7.7933 C   0  0  0  0  0  0  0  0  0  0  0  0
   11.2663   -9.0309   -9.2270 S   0  0  0  0  0  0  0  0  0  0  0  0
   12.5518  -10.2844   -9.1094 C   0  0  0  0  0  0  0  0  0  0  0  0
   13.4701  -10.2891  -10.3042 C   0  0  0  0  0  0  0  0  0  0  0  0
   12.7012  -10.3775  -11.6090 C   0  0  2  0  0  0  0  0  0  0  0  0
   12.2006  -11.7324  -11.7113 N   0  0  0  0  0  0  0  0  0  0  0  0
   13.6890  -10.1638  -12.6824 C   0  0  0  0  0  0  0  0  0  0  0  0
   14.3359  -11.1445  -13.1170 O   0  0  0  0  0  0  0  0  0  0  0  0
   12.9515   -8.9705  -16.0466 C   0  0  0  0  0  0  0  0  0  0  0  0
   14.0986   -8.1285  -15.5466 C   0  0  1  0  0  0  0  0  0  0  0  0
   13.5053   -6.9970  -14.9524 O   0  0  0  0  0  0  0  0  0  0  0  0
   14.8656   -8.8339  -14.4313 C   0  0  2  0  0  0  0  0  0  0  0  0
   13.9628   -8.9080  -13.2667 N   0  0  0  0  0  0  0  0  0  0  0  0
   16.0588   -8.1039  -13.9899 C   0  0  0  0  0  0  0  0  0  0  0  0
   15.9815   -7.3138  -12.9949 O   0  0  0  0  0  0  0  0  0  0  0  0
   17.3548   -8.1733  -14.5626 N   0  0  0  0  0  0  0  0  0  0  0  0
   18.4409   -7.3087  -14.1685 C   0  0  1  0  0  0  0  0  0  0  0  0
   19.7925   -7.9352  -14.3328 C   0  0  0  0  0  0  0  0  0  0  0  0
   20.9190   -6.9858  -14.1838 C   0  0  0  0  0  0  0  0  0  0  0  0
   21.4415   -6.6245  -12.9440 C   0  0  0  0  0  0  0  0  0  0  0  0
   22.4884   -5.7502  -12.8055 C   0  0  0  0  0  0  0  0  0  0  0  0
   23.0741   -5.1848  -13.9168 C   0  0  0  0  0  0  0  0  0  0  0  0
   22.5811   -5.5215  -15.1548 C   0  0  0  0  0  0  0  0  0  0  0  0
   21.5287   -6.4020  -15.2694 C   0  0  0  0  0  0  0  0  0  0  0  0
   18.3026   -5.9809  -14.8102 C   0  0  0  0  0  0  0  0  0  0  0  0
   18.5055   -4.9092  -14.2313 O   0  0  0  0  0  0  0  0  0  0  0  0
   17.9217   -5.9180  -16.1445 O   0  0  0  0  0  0  0  0  0  0  0  0
  2  1  1  0
  3  2  1  0
  4  3  1  0
  4  5  1  0
  5  7  1  0
  5  6  1  6
  7  8  2  0
 10 12  1  0
 10  9  1  1
 11 10  1  0
 13  7  1  0
 12 13  1  1
 14 12  1  0
 14 15  2  0
 16 14  1  0
 17 25  1  0
 17 16  1  0
 17 18  1  6
 19 18  1  0
 20 19  2  0
 21 20  1  0
 22 21  2  0
 22 23  1  0
 23 24  2  0
 24 19  1  0
 25 27  1  0
 26 25  2  0
M  END
$$$$
