MPC.pdb
     RDKit          3D

 22 22  0  0  1  0  0  0  0  0999 V2000
   10.8422  -13.6547  -14.9020 C   0  0  0  0  0  0  0  0  0  0  0  0
   11.3926  -12.7192  -13.4700 S   0  0  0  0  0  0  0  0  0  0  0  0
   13.1317  -12.2927  -13.6843 C   0  0  0  0  0  0  0  0  0  0  0  0
   13.6402  -11.4207  -12.5456 C   0  0  0  0  0  0  0  0  0  0  0  0
   15.1793  -11.4104  -12.6282 C   0  0  2  0  0  0  0  0  0  0  0  0
   15.6775  -12.7319  -12.4098 N   0  0  0  0  0  0  0  0  0  0  0  0
   15.7526  -10.3458  -11.8217 C   0  0  0  0  0  0  0  0  0  0  0  0
   15.6239  -10.4355  -10.5477 O   0  0  0  0  0  0  0  0  0  0  0  0
   16.4580   -9.1864  -12.2861 N   0  0  0  0  0  0  0  0  0  0  0  0
   16.9387   -8.9031  -13.6086 C   0  0  0  0  0  0  0  0  0  0  0  0
   16.7105   -7.3878  -13.7251 C   0  0  0  0  0  0  0  0  0  0  0  0
   17.3882   -6.9867  -12.4006 C   0  0  0  0  0  0  0  0  0  0  0  0
   16.8421   -8.0463  -11.4493 C   0  0  1  0  0  0  0  0  0  0  0  0
   15.7335   -7.4866  -10.6834 C   0  0  0  0  0  0  0  0  0  0  0  0
   14.5975   -7.3639  -11.1751 O   0  0  0  0  0  0  0  0  0  0  0  0
   15.9584   -7.0744   -9.3499 N   0  0  0  0  0  0  0  0  0  0  0  0
   14.9404   -6.4536   -8.5441 C   0  0  1  0  0  0  0  0  0  0  0  0
   15.0850   -6.9717   -7.1089 C   0  0  0  0  0  0  0  0  0  0  0  0
   13.8329   -6.1400   -6.0965 S   0  0  0  0  0  0  0  0  0  0  0  0
   15.1031   -4.9923   -8.5958 C   0  0  0  0  0  0  0  0  0  0  0  0
   16.2422   -4.4775   -8.6593 O   0  0  0  0  0  0  0  0  0  0  0  0
   13.9780   -4.1881   -8.5733 O   0  0  0  0  0  0  0  0  0  0  0  0
  1  2  1  0
  2  3  1  0
  3  4  1  0
  5  7  1  0
  5  4  1  0
  5  6  1  1
  7  8  2  0
  9 13  1  0
  9  7  1  0
 10  9  1  0
 11 10  1  0
 11 12  1  0
 12 13  1  0
 13 14  1  6
 14 16  1  0
 14 15  2  0
 16 17  1  0
 17 20  1  0
 17 18  1  1
 19 18  1  0
 20 21  2  0
 20 22  1  0
M  END
$$$$
