MPC.pdb
     RDKit          3D

 22 22  0  0  1  0  0  0  0  0999 V2000
   29.6820  -21.3463   -6.8910 C   0  0  0  0  0  0  0  0  0  0  0  0
   28.1812  -20.9619   -5.9808 S   0  0  0  0  0  0  0  0  0  0  0  0
   27.2183  -19.7623   -6.9220 C   0  0  0  0  0  0  0  0  0  0  0  0
   26.5463  -20.4036   -8.1273 C   0  0  0  0  0  0  0  0  0  0  0  0
   25.7859  -19.2903   -8.8744 C   0  0  2  0  0  0  0  0  0  0  0  0
   24.8495  -18.6746   -7.9877 N   0  0  0  0  0  0  0  0  0  0  0  0
   25.2779  -19.7540  -10.1548 C   0  0  0  0  0  0  0  0  0  0  0  0
   24.0106  -19.6857  -10.3470 O   0  0  0  0  0  0  0  0  0  0  0  0
   26.0358  -20.2878  -11.2494 N   0  0  0  0  0  0  0  0  0  0  0  0
   27.4138  -20.6890  -11.2707 C   0  0  0  0  0  0  0  0  0  0  0  0
   27.3869  -21.9128  -12.1998 C   0  0  0  0  0  0  0  0  0  0  0  0
   26.6066  -21.2608  -13.3576 C   0  0  0  0  0  0  0  0  0  0  0  0
   25.5155  -20.5104  -12.6012 C   0  0  1  0  0  0  0  0  0  0  0  0
   24.2817  -21.2888  -12.6293 C   0  0  0  0  0  0  0  0  0  0  0  0
   24.2095  -22.4155  -12.1070 O   0  0  0  0  0  0  0  0  0  0  0  0
   23.1417  -20.7471  -13.2661 N   0  0  0  0  0  0  0  0  0  0  0  0
   21.8906  -21.4525  -13.3560 C   0  0  1  0  0  0  0  0  0  0  0  0
   20.7568  -20.4219  -13.3142 C   0  0  0  0  0  0  0  0  0  0  0  0
   20.7766  -19.6506  -11.6742 S   0  0  0  0  0  0  0  0  0  0  0  0
   21.8559  -22.2235  -14.6086 C   0  0  0  0  0  0  0  0  0  0  0  0
   22.5993  -21.9184  -15.5681 O   0  0  0  0  0  0  0  0  0  0  0  0
   20.9883  -23.2954  -14.7158 O   0  0  0  0  0  0  0  0  0  0  0  0
  1  2  1  0
  2  3  1  0
  3  4  1  0
  5  7  1  0
  5  4  1  0
  5  6  1  1
  7  8  2  0
  9 13  1  0
  9  7  1  0
 10  9  1  0
 11 10  1  0
 11 12  1  0
 12 13  1  0
 13 14  1  1
 14 16  1  0
 14 15  2  0
 16 17  1  0
 17 20  1  0
 17 18  1  6
 19 18  1  0
 20 21  2  0
 20 22  1  0
M  END
$$$$
