MPC.pdb
     RDKit          3D

 22 22  0  0  1  0  0  0  0  0999 V2000
   25.0482  -20.0597   -8.6050 C   0  0  0  0  0  0  0  0  0  0  0  0
   26.5302  -21.0119   -8.9594 S   0  0  0  0  0  0  0  0  0  0  0  0
   26.8727  -20.9227  -10.7277 C   0  0  0  0  0  0  0  0  0  0  0  0
   25.7514  -21.5426  -11.5487 C   0  0  0  0  0  0  0  0  0  0  0  0
   24.8641  -20.3894  -12.0572 C   0  0  2  0  0  0  0  0  0  0  0  0
   23.5063  -20.6319  -11.6837 N   0  0  0  0  0  0  0  0  0  0  0  0
   25.1220  -20.0912  -13.4563 C   0  0  0  0  0  0  0  0  0  0  0  0
   24.2122  -20.4074  -14.3048 O   0  0  0  0  0  0  0  0  0  0  0  0
   26.2913  -19.4745  -14.0129 N   0  0  0  0  0  0  0  0  0  0  0  0
   27.4217  -18.9183  -13.3248 C   0  0  0  0  0  0  0  0  0  0  0  0
   28.5891  -19.2928  -14.2515 C   0  0  0  0  0  0  0  0  0  0  0  0
   27.9705  -18.7724  -15.5634 C   0  0  0  0  0  0  0  0  0  0  0  0
   26.5380  -19.2818  -15.4445 C   0  0  1  0  0  0  0  0  0  0  0  0
   26.3895  -20.5021  -16.2303 C   0  0  0  0  0  0  0  0  0  0  0  0
   26.7765  -21.6042  -15.8026 O   0  0  0  0  0  0  0  0  0  0  0  0
   25.7908  -20.4277  -17.5089 N   0  0  0  0  0  0  0  0  0  0  0  0
   25.0778  -21.5287  -18.1006 C   0  0  1  0  0  0  0  0  0  0  0  0
   23.8807  -21.8606  -17.2026 C   0  0  0  0  0  0  0  0  0  0  0  0
   22.9207  -23.1589  -18.0257 S   0  0  0  0  0  0  0  0  0  0  0  0
   24.6343  -21.1510  -19.4517 C   0  0  0  0  0  0  0  0  0  0  0  0
   24.2374  -19.9888  -19.6929 O   0  0  0  0  0  0  0  0  0  0  0  0
   24.6605  -22.0989  -20.4586 O   0  0  0  0  0  0  0  0  0  0  0  0
  1  2  1  0
  2  3  1  0
  3  4  1  0
  5  7  1  0
  5  4  1  0
  5  6  1  6
  7  8  2  0
  9 13  1  0
  9  7  1  0
 10  9  1  0
 11 10  1  0
 11 12  1  0
 12 13  1  0
 13 14  1  6
 14 16  1  0
 14 15  2  0
 16 17  1  0
 17 20  1  0
 17 18  1  1
 19 18  1  0
 20 21  2  0
 20 22  1  0
M  END
$$$$
