MPC.pdb
     RDKit          3D

 22 22  0  0  1  0  0  0  0  0999 V2000
   20.8511  -17.4653  -15.5476 C   0  0  0  0  0  0  0  0  0  0  0  0
   21.0298  -17.6658  -17.3243 S   0  0  0  0  0  0  0  0  0  0  0  0
   22.4015  -18.7903  -17.6501 C   0  0  0  0  0  0  0  0  0  0  0  0
   23.0311  -19.2962  -16.3604 C   0  0  0  0  0  0  0  0  0  0  0  0
   24.1980  -20.2234  -16.7528 C   0  0  2  0  0  0  0  0  0  0  0  0
   23.7030  -21.3025  -17.5483 N   0  0  0  0  0  0  0  0  0  0  0  0
   25.0171  -20.5707  -15.6034 C   0  0  0  0  0  0  0  0  0  0  0  0
   24.5553  -21.4542  -14.7947 O   0  0  0  0  0  0  0  0  0  0  0  0
   26.3024  -20.0359  -15.2579 N   0  0  0  0  0  0  0  0  0  0  0  0
   27.2004  -19.2698  -16.0747 C   0  0  0  0  0  0  0  0  0  0  0  0
   27.8003  -18.2784  -15.0652 C   0  0  0  0  0  0  0  0  0  0  0  0
   28.1958  -19.3100  -13.9910 C   0  0  0  0  0  0  0  0  0  0  0  0
   26.9584  -20.2007  -13.9578 C   0  0  1  0  0  0  0  0  0  0  0  0
   26.1163  -19.8205  -12.8285 C   0  0  0  0  0  0  0  0  0  0  0  0
   25.4688  -18.7584  -12.8265 O   0  0  0  0  0  0  0  0  0  0  0  0
   26.0360  -20.6819  -11.7104 N   0  0  0  0  0  0  0  0  0  0  0  0
   25.3869  -20.3060  -10.4823 C   0  0  1  0  0  0  0  0  0  0  0  0
   24.3289  -21.3663  -10.1571 C   0  0  0  0  0  0  0  0  0  0  0  0
   23.3692  -21.6645  -11.6653 S   0  0  0  0  0  0  0  0  0  0  0  0
   26.3900  -20.2161   -9.4098 C   0  0  0  0  0  0  0  0  0  0  0  0
   26.1301  -19.6218   -8.3393 O   0  0  0  0  0  0  0  0  0  0  0  0
   27.6305  -20.7983   -9.5973 O   0  0  0  0  0  0  0  0  0  0  0  0
  1  2  1  0
  2  3  1  0
  3  4  1  0
  5  7  1  0
  5  4  1  0
  5  6  1  1
  7  8  2  0
  9 13  1  0
  9  7  1  0
 10  9  1  0
 11 10  1  0
 11 12  1  0
 12 13  1  0
 13 14  1  1
 14 16  1  0
 14 15  2  0
 16 17  1  0
 17 20  1  0
 17 18  1  1
 19 18  1  0
 20 21  2  0
 20 22  1  0
M  END
$$$$
