MPC.pdb
     RDKit          3D

 22 22  0  0  1  0  0  0  0  0999 V2000
   27.9535  -17.9883   15.3014 C   0  0  0  0  0  0  0  0  0  0  0  0
   27.6630  -16.8102   13.9761 S   0  0  0  0  0  0  0  0  0  0  0  0
   28.1947  -17.5429   12.4164 C   0  0  0  0  0  0  0  0  0  0  0  0
   28.4597  -19.0346   12.5585 C   0  0  0  0  0  0  0  0  0  0  0  0
   28.0756  -19.6979   11.2213 C   0  0  2  0  0  0  0  0  0  0  0  0
   26.8809  -20.4628   11.3942 N   0  0  0  0  0  0  0  0  0  0  0  0
   29.2099  -20.3718   10.6115 C   0  0  0  0  0  0  0  0  0  0  0  0
   29.8131  -21.2631   11.3111 O   0  0  0  0  0  0  0  0  0  0  0  0
   29.7458  -20.1574    9.2984 N   0  0  0  0  0  0  0  0  0  0  0  0
   29.2302  -19.3266    8.2475 C   0  0  0  0  0  0  0  0  0  0  0  0
   30.5121  -18.7745    7.6043 C   0  0  0  0  0  0  0  0  0  0  0  0
   31.2388  -20.1223    7.4311 C   0  0  0  0  0  0  0  0  0  0  0  0
   30.9582  -20.7910    8.7727 C   0  0  1  0  0  0  0  0  0  0  0  0
   32.1190  -20.6389    9.6435 C   0  0  0  0  0  0  0  0  0  0  0  0
   32.2655  -19.6366   10.3657 O   0  0  0  0  0  0  0  0  0  0  0  0
   33.0998  -21.6567    9.6654 N   0  0  0  0  0  0  0  0  0  0  0  0
   34.2966  -21.5685   10.4597 C   0  0  1  0  0  0  0  0  0  0  0  0
   34.2492  -22.6748   11.5196 C   0  0  0  0  0  0  0  0  0  0  0  0
   32.9860  -22.2160   12.7355 S   0  0  0  0  0  0  0  0  0  0  0  0
   35.4715  -21.7240    9.5878 C   0  0  0  0  0  0  0  0  0  0  0  0
   35.3494  -22.1644    8.4226 O   0  0  0  0  0  0  0  0  0  0  0  0
   36.7198  -21.3765   10.0716 O   0  0  0  0  0  0  0  0  0  0  0  0
  1  2  1  0
  2  3  1  0
  3  4  1  0
  5  7  1  0
  5  4  1  0
  5  6  1  1
  7  8  2  0
  9 13  1  0
  9  7  1  0
 10  9  1  0
 11 10  1  0
 11 12  1  0
 12 13  1  0
 13 14  1  1
 14 16  1  0
 14 15  2  0
 16 17  1  0
 17 20  1  0
 17 18  1  1
 19 18  1  0
 20 21  2  0
 20 22  1  0
M  END
$$$$
