MPC.pdb
     RDKit          3D

 22 22  0  0  1  0  0  0  0  0999 V2000
   15.1567  -12.2369  -20.2009 C   0  0  0  0  0  0  0  0  0  0  0  0
   15.8295  -11.0676  -19.0139 S   0  0  0  0  0  0  0  0  0  0  0  0
   17.3544  -11.7435  -18.3284 C   0  0  0  0  0  0  0  0  0  0  0  0
   17.9543  -10.8212  -17.2771 C   0  0  0  0  0  0  0  0  0  0  0  0
   19.1513  -11.5608  -16.6478 C   0  0  2  0  0  0  0  0  0  0  0  0
   18.6737  -12.5487  -15.7323 N   0  0  0  0  0  0  0  0  0  0  0  0
   20.1560  -10.6332  -16.1551 C   0  0  0  0  0  0  0  0  0  0  0  0
   19.9612  -10.1113  -14.9987 O   0  0  0  0  0  0  0  0  0  0  0  0
   21.3608  -10.2239  -16.8171 N   0  0  0  0  0  0  0  0  0  0  0  0
   21.9783  -10.7926  -17.9814 C   0  0  0  0  0  0  0  0  0  0  0  0
   22.5308   -9.5523  -18.7011 C   0  0  0  0  0  0  0  0  0  0  0  0
   23.2572   -8.9330  -17.4913 C   0  0  0  0  0  0  0  0  0  0  0  0
   22.2179   -9.1144  -16.3901 C   0  0  1  0  0  0  0  0  0  0  0  0
   21.4948   -7.8625  -16.1936 C   0  0  0  0  0  0  0  0  0  0  0  0
   20.5548   -7.5288  -16.9369 O   0  0  0  0  0  0  0  0  0  0  0  0
   21.8735   -7.0094  -15.1317 N   0  0  0  0  0  0  0  0  0  0  0  0
   21.2037   -5.7663  -14.8542 C   0  0  1  0  0  0  0  0  0  0  0  0
   20.4358   -5.9209  -13.5367 C   0  0  0  0  0  0  0  0  0  0  0  0
   19.7886   -4.2897  -13.0842 S   0  0  0  0  0  0  0  0  0  0  0  0
   22.1999   -4.6876  -14.7601 C   0  0  0  0  0  0  0  0  0  0  0  0
   23.3581   -4.9211  -14.3474 O   0  0  0  0  0  0  0  0  0  0  0  0
   21.8413   -3.4053  -15.1345 O   0  0  0  0  0  0  0  0  0  0  0  0
  1  2  1  0
  2  3  1  0
  3  4  1  0
  5  7  1  0
  5  4  1  0
  5  6  1  1
  7  8  2  0
  9 13  1  0
  9  7  1  0
 10  9  1  0
 11 10  1  0
 11 12  1  0
 12 13  1  0
 13 14  1  6
 14 16  1  0
 14 15  2  0
 16 17  1  0
 17 20  1  0
 17 18  1  1
 19 18  1  0
 20 21  2  0
 20 22  1  0
M  END
$$$$
