MPC.pdb
     RDKit          3D

 22 22  0  0  1  0  0  0  0  0999 V2000
   14.9148  -13.1851  -17.2152 C   0  0  0  0  0  0  0  0  0  0  0  0
   15.0130  -11.7100  -18.2365 S   0  0  0  0  0  0  0  0  0  0  0  0
   16.7086  -11.5144  -18.8185 C   0  0  0  0  0  0  0  0  0  0  0  0
   17.5836  -10.8302  -17.7784 C   0  0  0  0  0  0  0  0  0  0  0  0
   19.0279  -11.3203  -18.0005 C   0  0  2  0  0  0  0  0  0  0  0  0
   19.1340  -12.6884  -17.6014 N   0  0  0  0  0  0  0  0  0  0  0  0
   20.0002  -10.3925  -17.4468 C   0  0  0  0  0  0  0  0  0  0  0  0
   20.2798  -10.5051  -16.1991 O   0  0  0  0  0  0  0  0  0  0  0  0
   20.6978   -9.3479  -18.1392 N   0  0  0  0  0  0  0  0  0  0  0  0
   20.7297   -9.0761  -19.5483 C   0  0  0  0  0  0  0  0  0  0  0  0
   20.7556   -7.5400  -19.5876 C   0  0  0  0  0  0  0  0  0  0  0  0
   21.9140   -7.3395  -18.5914 C   0  0  0  0  0  0  0  0  0  0  0  0
   21.5509   -8.3417  -17.5008 C   0  0  1  0  0  0  0  0  0  0  0  0
   20.9014   -7.6438  -16.3963 C   0  0  0  0  0  0  0  0  0  0  0  0
   19.6705   -7.4656  -16.3714 O   0  0  0  0  0  0  0  0  0  0  0  0
   21.6923   -7.1592  -15.3294 N   0  0  0  0  0  0  0  0  0  0  0  0
   21.1280   -6.5333  -14.1629 C   0  0  1  0  0  0  0  0  0  0  0  0
   21.1632   -7.5461  -13.0130 C   0  0  0  0  0  0  0  0  0  0  0  0
   20.5000   -6.7261  -11.5391 S   0  0  0  0  0  0  0  0  0  0  0  0
   21.9083   -5.3312  -13.8304 C   0  0  0  0  0  0  0  0  0  0  0  0
   23.1571   -5.3359  -13.9147 O   0  0  0  0  0  0  0  0  0  0  0  0
   21.2442   -4.1890  -13.4213 O   0  0  0  0  0  0  0  0  0  0  0  0
  1  2  1  0
  2  3  1  0
  3  4  1  0
  5  7  1  0
  5  4  1  0
  5  6  1  1
  7  8  2  0
  9 13  1  0
  9  7  1  0
 10  9  1  0
 11 10  1  0
 11 12  1  0
 12 13  1  0
 13 14  1  1
 14 16  1  0
 14 15  2  0
 16 17  1  0
 17 20  1  0
 17 18  1  1
 19 18  1  0
 20 21  2  0
 20 22  1  0
M  END
$$$$
