MPC.pdb
     RDKit          3D

 22 22  0  0  1  0  0  0  0  0999 V2000
   25.9009  -14.9140  -16.2757 C   0  0  0  0  0  0  0  0  0  0  0  0
   27.5859  -15.5359  -16.3295 S   0  0  0  0  0  0  0  0  0  0  0  0
   27.7435  -16.8978  -15.1580 C   0  0  0  0  0  0  0  0  0  0  0  0
   26.5145  -17.7951  -15.1718 C   0  0  0  0  0  0  0  0  0  0  0  0
   27.0102  -19.2496  -15.2916 C   0  0  2  0  0  0  0  0  0  0  0  0
   27.4483  -19.4955  -16.6294 N   0  0  0  0  0  0  0  0  0  0  0  0
   26.0573  -20.1894  -14.7245 C   0  0  0  0  0  0  0  0  0  0  0  0
   25.0721  -20.5499  -15.4640 O   0  0  0  0  0  0  0  0  0  0  0  0
   26.0861  -20.7732  -13.4146 N   0  0  0  0  0  0  0  0  0  0  0  0
   27.1741  -20.8165  -12.4792 C   0  0  0  0  0  0  0  0  0  0  0  0
   26.4563  -20.6519  -11.1304 C   0  0  0  0  0  0  0  0  0  0  0  0
   25.3896  -21.7434  -11.3432 C   0  0  0  0  0  0  0  0  0  0  0  0
   24.9643  -21.4731  -12.7826 C   0  0  1  0  0  0  0  0  0  0  0  0
   23.7231  -20.7062  -12.7866 C   0  0  0  0  0  0  0  0  0  0  0  0
   23.6857  -19.5242  -12.4006 O   0  0  0  0  0  0  0  0  0  0  0  0
   22.5352  -21.3236  -13.2408 N   0  0  0  0  0  0  0  0  0  0  0  0
   21.2779  -20.6282  -13.3229 C   0  0  1  0  0  0  0  0  0  0  0  0
   21.2084  -19.9256  -14.6833 C   0  0  0  0  0  0  0  0  0  0  0  0
   19.6099  -19.0772  -14.7817 S   0  0  0  0  0  0  0  0  0  0  0  0
   20.1777  -21.5932  -13.1713 C   0  0  0  0  0  0  0  0  0  0  0  0
   20.2092  -22.6967  -13.7609 O   0  0  0  0  0  0  0  0  0  0  0  0
   19.1017  -21.2666  -12.3659 O   0  0  0  0  0  0  0  0  0  0  0  0
  1  2  1  0
  2  3  1  0
  3  4  1  0
  5  7  1  0
  5  4  1  0
  5  6  1  6
  7  8  2  0
  9 13  1  0
  9  7  1  0
 10  9  1  0
 11 10  1  0
 11 12  1  0
 12 13  1  0
 13 14  1  1
 14 16  1  0
 14 15  2  0
 16 17  1  0
 17 20  1  0
 17 18  1  6
 19 18  1  0
 20 21  2  0
 20 22  1  0
M  END
$$$$
