MPC.pdb
     RDKit          3D

 22 22  0  0  1  0  0  0  0  0999 V2000
   25.8955  -14.7360  -14.4870 C   0  0  0  0  0  0  0  0  0  0  0  0
   27.2117  -14.9358  -15.6939 S   0  0  0  0  0  0  0  0  0  0  0  0
   27.5146  -16.6962  -15.9416 C   0  0  0  0  0  0  0  0  0  0  0  0
   26.3488  -17.5412  -15.4490 C   0  0  0  0  0  0  0  0  0  0  0  0
   26.7167  -19.0176  -15.6949 C   0  0  2  0  0  0  0  0  0  0  0  0
   26.9082  -19.2346  -17.0944 N   0  0  0  0  0  0  0  0  0  0  0  0
   25.8092  -19.9187  -15.0041 C   0  0  0  0  0  0  0  0  0  0  0  0
   24.6889  -20.1796  -15.5738 O   0  0  0  0  0  0  0  0  0  0  0  0
   26.0187  -20.5634  -13.7400 N   0  0  0  0  0  0  0  0  0  0  0  0
   27.2219  -20.6318  -12.9603 C   0  0  0  0  0  0  0  0  0  0  0  0
   26.6884  -20.5439  -11.5218 C   0  0  0  0  0  0  0  0  0  0  0  0
   25.6151  -21.6428  -11.6451 C   0  0  0  0  0  0  0  0  0  0  0  0
   24.9989  -21.3121  -13.0003 C   0  0  1  0  0  0  0  0  0  0  0  0
   23.7597  -20.5679  -12.8020 C   0  0  0  0  0  0  0  0  0  0  0  0
   23.7554  -19.4317  -12.2955 O   0  0  0  0  0  0  0  0  0  0  0  0
   22.5352  -21.1544  -13.1960 N   0  0  0  0  0  0  0  0  0  0  0  0
   21.2662  -20.4977  -13.0252 C   0  0  1  0  0  0  0  0  0  0  0  0
   21.0133  -19.6192  -14.2555 C   0  0  0  0  0  0  0  0  0  0  0  0
   19.3832  -18.8526  -14.0566 S   0  0  0  0  0  0  0  0  0  0  0  0
   20.2103  -21.5113  -12.8754 C   0  0  0  0  0  0  0  0  0  0  0  0
   20.2435  -22.5721  -13.5388 O   0  0  0  0  0  0  0  0  0  0  0  0
   19.1745  -21.2788  -11.9888 O   0  0  0  0  0  0  0  0  0  0  0  0
  1  2  1  0
  2  3  1  0
  3  4  1  0
  5  7  1  0
  5  4  1  0
  5  6  1  6
  7  8  2  0
  9 13  1  0
  9  7  1  0
 10  9  1  0
 11 10  1  0
 11 12  1  0
 12 13  1  0
 13 14  1  1
 14 16  1  0
 14 15  2  0
 16 17  1  0
 17 20  1  0
 17 18  1  6
 19 18  1  0
 20 21  2  0
 20 22  1  0
M  END
$$$$
