MPC.pdb
     RDKit          3D

 22 22  0  0  1  0  0  0  0  0999 V2000
   21.8003  -21.6770  -13.2453 C   0  0  0  0  0  0  0  0  0  0  0  0
   21.7174  -20.6158  -11.7976 S   0  0  0  0  0  0  0  0  0  0  0  0
   23.3940  -20.1830  -11.2939 C   0  0  0  0  0  0  0  0  0  0  0  0
   24.3098  -21.3983  -11.2885 C   0  0  0  0  0  0  0  0  0  0  0  0
   25.7198  -20.9079  -10.9051 C   0  0  2  0  0  0  0  0  0  0  0  0
   25.6940  -20.3695   -9.5816 N   0  0  0  0  0  0  0  0  0  0  0  0
   26.3000  -20.0760  -11.9463 C   0  0  0  0  0  0  0  0  0  0  0  0
   26.1533  -18.8055  -11.8371 O   0  0  0  0  0  0  0  0  0  0  0  0
   27.0301  -20.5116  -13.1016 N   0  0  0  0  0  0  0  0  0  0  0  0
   27.5386  -21.8213  -13.3960 C   0  0  0  0  0  0  0  0  0  0  0  0
   27.3343  -21.9205  -14.9159 C   0  0  0  0  0  0  0  0  0  0  0  0
   27.9937  -20.5786  -15.2888 C   0  0  0  0  0  0  0  0  0  0  0  0
   27.4155  -19.6522  -14.2243 C   0  0  1  0  0  0  0  0  0  0  0  0
   26.3014  -18.8983  -14.7895 C   0  0  0  0  0  0  0  0  0  0  0  0
   25.1279  -19.3002  -14.6958 O   0  0  0  0  0  0  0  0  0  0  0  0
   26.5646  -17.6816  -15.4596 N   0  0  0  0  0  0  0  0  0  0  0  0
   25.5218  -16.8362  -15.9779 C   0  0  1  0  0  0  0  0  0  0  0  0
   26.0456  -15.3961  -16.0097 C   0  0  0  0  0  0  0  0  0  0  0  0
   26.3111  -14.8707  -14.2956 S   0  0  0  0  0  0  0  0  0  0  0  0
   25.1514  -17.2922  -17.3268 C   0  0  0  0  0  0  0  0  0  0  0  0
   25.9765  -17.9000  -18.0454 O   0  0  0  0  0  0  0  0  0  0  0  0
   23.8747  -17.0410  -17.7957 O   0  0  0  0  0  0  0  0  0  0  0  0
  1  2  1  0
  2  3  1  0
  3  4  1  0
  5  7  1  0
  5  4  1  0
  5  6  1  1
  7  8  2  0
  9 13  1  0
  9  7  1  0
 10  9  1  0
 11 10  1  0
 11 12  1  0
 12 13  1  0
 13 14  1  6
 14 16  1  0
 14 15  2  0
 16 17  1  0
 17 20  1  0
 17 18  1  6
 19 18  1  0
 20 21  2  0
 20 22  1  0
M  END
$$$$
