MPC.pdb
     RDKit          3D

 22 22  0  0  1  0  0  0  0  0999 V2000
   21.0318  -18.2009  -14.2588 C   0  0  0  0  0  0  0  0  0  0  0  0
   22.2371  -17.6648  -15.4789 S   0  0  0  0  0  0  0  0  0  0  0  0
   23.4712  -18.9627  -15.6902 C   0  0  0  0  0  0  0  0  0  0  0  0
   23.8306  -19.6168  -14.3640 C   0  0  0  0  0  0  0  0  0  0  0  0
   24.8500  -20.7330  -14.6648 C   0  0  2  0  0  0  0  0  0  0  0  0
   24.2236  -21.7533  -15.4451 N   0  0  0  0  0  0  0  0  0  0  0  0
   25.5522  -21.1558  -13.4645 C   0  0  0  0  0  0  0  0  0  0  0  0
   24.8623  -21.7350  -12.5500 O   0  0  0  0  0  0  0  0  0  0  0  0
   26.9483  -21.0015  -13.1737 N   0  0  0  0  0  0  0  0  0  0  0  0
   28.0096  -20.6219  -14.0625 C   0  0  0  0  0  0  0  0  0  0  0  0
   28.9081  -19.7652  -13.1567 C   0  0  0  0  0  0  0  0  0  0  0  0
   29.0089  -20.7610  -11.9851 C   0  0  0  0  0  0  0  0  0  0  0  0
   27.5633  -21.2314  -11.8636 C   0  0  1  0  0  0  0  0  0  0  0  0
   26.9074  -20.5103  -10.7779 C   0  0  0  0  0  0  0  0  0  0  0  0
   26.3572  -19.4103  -10.9646 O   0  0  0  0  0  0  0  0  0  0  0  0
   26.8982  -21.0775   -9.4830 N   0  0  0  0  0  0  0  0  0  0  0  0
   26.2885  -20.4287   -8.3525 C   0  0  1  0  0  0  0  0  0  0  0  0
   25.2250  -21.3706   -7.7771 C   0  0  0  0  0  0  0  0  0  0  0  0
   24.6924  -20.6893   -6.1844 S   0  0  0  0  0  0  0  0  0  0  0  0
   27.3219  -20.1256   -7.3500 C   0  0  0  0  0  0  0  0  0  0  0  0
   28.2706  -20.9172   -7.1502 O   0  0  0  0  0  0  0  0  0  0  0  0
   27.2341  -18.9502   -6.6263 O   0  0  0  0  0  0  0  0  0  0  0  0
  1  2  1  0
  2  3  1  0
  3  4  1  0
  5  7  1  0
  5  4  1  0
  5  6  1  1
  7  8  2  0
  9 13  1  0
  9  7  1  0
 10  9  1  0
 11 10  1  0
 11 12  1  0
 12 13  1  0
 13 14  1  1
 14 16  1  0
 14 15  2  0
 16 17  1  0
 17 20  1  0
 17 18  1  1
 19 18  1  0
 20 21  2  0
 20 22  1  0
M  END
$$$$
