MPC.pdb
     RDKit          3D

 22 22  0  0  1  0  0  0  0  0999 V2000
   25.0161  -14.5156  -16.2929 C   0  0  0  0  0  0  0  0  0  0  0  0
   26.8038  -14.6747  -16.3798 S   0  0  0  0  0  0  0  0  0  0  0  0
   27.2204  -16.3910  -16.7440 C   0  0  0  0  0  0  0  0  0  0  0  0
   26.4841  -17.3546  -15.8248 C   0  0  0  0  0  0  0  0  0  0  0  0
   26.9233  -18.7811  -16.2095 C   0  0  2  0  0  0  0  0  0  0  0  0
   26.3257  -19.1443  -17.4557 N   0  0  0  0  0  0  0  0  0  0  0  0
   26.7606  -19.7091  -15.1027 C   0  0  0  0  0  0  0  0  0  0  0  0
   25.5812  -20.1660  -14.8837 O   0  0  0  0  0  0  0  0  0  0  0  0
   27.7776  -20.1848  -14.2100 N   0  0  0  0  0  0  0  0  0  0  0  0
   29.2019  -20.0468  -14.3231 C   0  0  0  0  0  0  0  0  0  0  0  0
   29.6317  -19.8518  -12.8606 C   0  0  0  0  0  0  0  0  0  0  0  0
   28.8739  -21.0579  -12.2727 C   0  0  0  0  0  0  0  0  0  0  0  0
   27.5281  -20.9430  -12.9809 C   0  0  1  0  0  0  0  0  0  0  0  0
   26.5632  -20.3070  -12.0903 C   0  0  0  0  0  0  0  0  0  0  0  0
   26.5432  -19.0744  -11.9239 O   0  0  0  0  0  0  0  0  0  0  0  0
   25.6290  -21.1134  -11.4006 N   0  0  0  0  0  0  0  0  0  0  0  0
   24.7047  -20.5820  -10.4341 C   0  0  1  0  0  0  0  0  0  0  0  0
   23.2902  -21.0116  -10.8393 C   0  0  0  0  0  0  0  0  0  0  0  0
   22.1591  -20.4840   -9.5252 S   0  0  0  0  0  0  0  0  0  0  0  0
   25.0490  -21.0947   -9.0987 C   0  0  0  0  0  0  0  0  0  0  0  0
   25.4085  -22.2834   -8.9433 O   0  0  0  0  0  0  0  0  0  0  0  0
   24.9710  -20.2448   -8.0103 O   0  0  0  0  0  0  0  0  0  0  0  0
  1  2  1  0
  2  3  1  0
  3  4  1  0
  5  7  1  0
  5  4  1  0
  5  6  1  6
  7  8  2  0
  9 13  1  0
  9  7  1  0
 10  9  1  0
 11 10  1  0
 11 12  1  0
 12 13  1  0
 13 14  1  1
 14 16  1  0
 14 15  2  0
 16 17  1  0
 17 20  1  0
 17 18  1  6
 19 18  1  0
 20 21  2  0
 20 22  1  0
M  END
$$$$
