MPC.pdb
     RDKit          3D

 22 22  0  0  1  0  0  0  0  0999 V2000
   21.0795  -10.8826    6.6681 C   0  0  0  0  0  0  0  0  0  0  0  0
   20.3847  -12.3208    7.4913 S   0  0  0  0  0  0  0  0  0  0  0  0
   19.4136  -13.2635    6.2995 C   0  0  0  0  0  0  0  0  0  0  0  0
   18.8303  -14.5236    6.9222 C   0  0  0  0  0  0  0  0  0  0  0  0
   18.0760  -15.2777    5.8095 C   0  0  2  0  0  0  0  0  0  0  0  0
   16.8523  -14.5994    5.5187 N   0  0  0  0  0  0  0  0  0  0  0  0
   17.9927  -16.7018    6.0883 C   0  0  0  0  0  0  0  0  0  0  0  0
   16.9144  -17.1345    6.6339 O   0  0  0  0  0  0  0  0  0  0  0  0
   18.9879  -17.6998    5.8220 N   0  0  0  0  0  0  0  0  0  0  0  0
   20.2297  -17.5576    5.1162 C   0  0  0  0  0  0  0  0  0  0  0  0
   21.1655  -18.4878    5.9040 C   0  0  0  0  0  0  0  0  0  0  0  0
   20.2511  -19.7282    5.9047 C   0  0  0  0  0  0  0  0  0  0  0  0
   18.8974  -19.1050    6.2281 C   0  0  1  0  0  0  0  0  0  0  0  0
   18.6070  -19.2834    7.6468 C   0  0  0  0  0  0  0  0  0  0  0  0
   19.1546  -18.5838    8.5175 O   0  0  0  0  0  0  0  0  0  0  0  0
   17.6802  -20.2763    8.0391 N   0  0  0  0  0  0  0  0  0  0  0  0
   17.3904  -20.5705    9.4177 C   0  0  1  0  0  0  0  0  0  0  0  0
   15.9610  -20.1040    9.7156 C   0  0  0  0  0  0  0  0  0  0  0  0
   14.8937  -20.7240    8.3885 S   0  0  0  0  0  0  0  0  0  0  0  0
   17.5310  -22.0171    9.6462 C   0  0  0  0  0  0  0  0  0  0  0  0
   17.7496  -22.7970    8.6920 O   0  0  0  0  0  0  0  0  0  0  0  0
   17.4187  -22.5096   10.9338 O   0  0  0  0  0  0  0  0  0  0  0  0
  1  2  1  0
  2  3  1  0
  3  4  1  0
  5  7  1  0
  5  4  1  0
  5  6  1  1
  7  8  2  0
  9 13  1  0
  9  7  1  0
 10  9  1  0
 11 10  1  0
 11 12  1  0
 12 13  1  0
 13 14  1  1
 14 16  1  0
 14 15  2  0
 16 17  1  0
 17 20  1  0
 17 18  1  6
 19 18  1  0
 20 21  2  0
 20 22  1  0
M  END
$$$$
