MPC.pdb
     RDKit          3D

 22 22  0  0  1  0  0  0  0  0999 V2000
   17.8223   -6.1441  -18.5182 C   0  0  0  0  0  0  0  0  0  0  0  0
   17.9061   -7.8926  -18.9239 S   0  0  0  0  0  0  0  0  0  0  0  0
   18.9935   -8.7146  -17.7432 C   0  0  0  0  0  0  0  0  0  0  0  0
   18.5624   -8.4539  -16.3073 C   0  0  0  0  0  0  0  0  0  0  0  0
   19.5247   -9.2348  -15.3908 C   0  0  2  0  0  0  0  0  0  0  0  0
   19.3419  -10.6377  -15.5922 N   0  0  0  0  0  0  0  0  0  0  0  0
   19.4721   -8.7508  -14.0213 C   0  0  0  0  0  0  0  0  0  0  0  0
   18.5704   -9.2468  -13.2540 O   0  0  0  0  0  0  0  0  0  0  0  0
   20.3218   -7.7684  -13.4128 N   0  0  0  0  0  0  0  0  0  0  0  0
   21.5096   -7.1621  -13.9438 C   0  0  0  0  0  0  0  0  0  0  0  0
   21.4090   -5.7221  -13.4166 C   0  0  0  0  0  0  0  0  0  0  0  0
   21.1439   -6.0737  -11.9399 C   0  0  0  0  0  0  0  0  0  0  0  0
   20.1251   -7.2003  -12.0763 C   0  0  1  0  0  0  0  0  0  0  0  0
   18.7829   -6.6703  -11.8608 C   0  0  0  0  0  0  0  0  0  0  0  0
   18.2233   -5.9490  -12.7057 O   0  0  0  0  0  0  0  0  0  0  0  0
   18.1037   -6.9857  -10.6616 N   0  0  0  0  0  0  0  0  0  0  0  0
   16.8146   -6.4391  -10.3294 C   0  0  1  0  0  0  0  0  0  0  0  0
   15.7728   -7.5551  -10.4655 C   0  0  0  0  0  0  0  0  0  0  0  0
   16.3430   -8.9617   -9.4750 S   0  0  0  0  0  0  0  0  0  0  0  0
   16.8484   -5.9145   -8.9553 C   0  0  0  0  0  0  0  0  0  0  0  0
   17.8342   -6.1264   -8.2139 O   0  0  0  0  0  0  0  0  0  0  0  0
   15.7733   -5.1803   -8.4881 O   0  0  0  0  0  0  0  0  0  0  0  0
  1  2  1  0
  2  3  1  0
  3  4  1  0
  5  7  1  0
  5  4  1  0
  5  6  1  1
  7  8  2  0
  9 13  1  0
  9  7  1  0
 10  9  1  0
 11 10  1  0
 11 12  1  0
 12 13  1  0
 13 14  1  6
 14 16  1  0
 14 15  2  0
 16 17  1  0
 17 20  1  0
 17 18  1  1
 19 18  1  0
 20 21  2  0
 20 22  1  0
M  END
$$$$
