QHD.pdb
     RDKit          3D

 28 28  0  0  1  0  0  0  0  0999 V2000
   36.3155  -28.0802  -21.6046 N   0  0  0  0  0  0  0  0  0  0  0  0
   36.2656  -29.4363  -21.1903 C   0  0  0  0  0  0  0  0  0  0  0  0
   36.8816  -30.2806  -21.8660 O   0  0  0  0  0  0  0  0  0  0  0  0
   35.5120  -29.8188  -20.0043 C   0  0  0  0  0  0  0  0  0  0  0  0
   34.7606  -28.7696  -19.2927 C   0  0  0  0  0  0  0  0  0  0  0  0
   35.2758  -28.2843  -17.9939 C   0  0  2  0  0  0  0  0  0  0  0  0
   36.3825  -28.9764  -17.4313 N   0  0  0  0  0  0  0  0  0  0  0  0
   34.1861  -28.0264  -16.9957 C   0  0  0  0  0  0  0  0  0  0  0  0
   34.3150  -28.5213  -15.8525 O   0  0  0  0  0  0  0  0  0  0  0  0
   33.0461  -27.2659  -17.2827 N   0  0  0  0  0  0  0  0  0  0  0  0
   32.4155  -26.3099  -16.4206 C   0  0  1  0  0  0  0  0  0  0  0  0
   33.3808  -25.2104  -16.0640 C   0  0  0  0  0  0  0  0  0  0  0  0
   34.2168  -25.5534  -14.8857 C   0  0  0  0  0  0  0  0  0  0  0  0
   34.2193  -26.7466  -14.2012 C   0  0  0  0  0  0  0  0  0  0  0  0
   35.0976  -26.6812  -13.2044 N   0  0  0  0  0  0  0  0  0  0  0  0
   35.6486  -25.4575  -13.2547 C   0  0  0  0  0  0  0  0  0  0  0  0
   35.1176  -24.7648  -14.2755 N   0  0  0  0  0  0  0  0  0  0  0  0
   31.1694  -25.7666  -17.0299 C   0  0  0  0  0  0  0  0  0  0  0  0
   31.2726  -25.2264  -18.1542 O   0  0  0  0  0  0  0  0  0  0  0  0
   29.9121  -25.8442  -16.3867 N   0  0  0  0  0  0  0  0  0  0  0  0
   28.7157  -25.3011  -16.9653 C   0  0  1  0  0  0  0  0  0  0  0  0
   27.4878  -25.5671  -16.1569 C   0  0  0  0  0  0  0  0  0  0  0  0
   26.2506  -25.5812  -16.9375 C   0  0  0  0  0  0  0  0  0  0  0  0
   26.2696  -25.3949  -18.1730 O   0  0  0  0  0  0  0  0  0  0  0  0
   28.8526  -23.8419  -17.2572 C   0  0  0  0  0  0  0  0  0  0  0  0
   28.2413  -23.3105  -18.3807 O   0  0  0  0  0  0  0  0  0  0  0  0
   25.0371  -25.8017  -16.3184 O   0  0  0  0  0  0  0  0  0  0  0  0
   29.5052  -23.0544  -16.5243 O   0  0  0  0  0  0  0  0  0  0  0  0
  2  1  1  0
  2  3  2  0
  4  5  1  0
  4  2  1  0
  5  6  1  0
  6  8  1  0
  6  7  1  1
  8  9  2  0
 10 11  1  0
 10  8  1  0
 11 12  1  6
 13 12  1  0
 14 13  2  0
 15 14  1  0
 16 15  1  0
 16 17  2  0
 17 13  1  0
 18 11  1  0
 19 18  2  0
 20 18  1  0
 21 22  1  1
 21 20  1  0
 23 22  1  0
 24 23  2  0
 25 26  1  0
 25 21  1  0
 27 23  1  0
 28 25  2  0
M  END
$$$$
