QHD.pdb
     RDKit          3D

 28 28  0  0  1  0  0  0  0  0999 V2000
   21.5883  -22.7673  -13.7803 N   0  0  0  0  0  0  0  0  0  0  0  0
   20.3271  -22.7719  -13.1302 C   0  0  0  0  0  0  0  0  0  0  0  0
   19.7064  -23.8482  -13.0586 O   0  0  0  0  0  0  0  0  0  0  0  0
   19.7838  -21.5449  -12.5644 C   0  0  0  0  0  0  0  0  0  0  0  0
   20.5686  -20.3065  -12.7129 C   0  0  0  0  0  0  0  0  0  0  0  0
   20.6026  -19.6414  -14.0336 C   0  0  2  0  0  0  0  0  0  0  0  0
   20.1156  -20.3778  -15.1476 N   0  0  0  0  0  0  0  0  0  0  0  0
   21.9143  -18.9693  -14.3127 C   0  0  0  0  0  0  0  0  0  0  0  0
   22.3245  -18.1261  -13.4825 O   0  0  0  0  0  0  0  0  0  0  0  0
   22.6902  -19.2404  -15.4461 N   0  0  0  0  0  0  0  0  0  0  0  0
   23.8708  -18.5419  -15.8625 C   0  0  1  0  0  0  0  0  0  0  0  0
   25.0792  -19.4303  -15.7275 C   0  0  0  0  0  0  0  0  0  0  0  0
   26.3296  -18.7504  -16.1509 C   0  0  0  0  0  0  0  0  0  0  0  0
   27.0534  -19.0016  -17.2934 C   0  0  0  0  0  0  0  0  0  0  0  0
   28.1120  -18.1970  -17.3305 N   0  0  0  0  0  0  0  0  0  0  0  0
   28.0617  -17.4410  -16.2217 C   0  0  0  0  0  0  0  0  0  0  0  0
   26.9796  -17.7719  -15.4983 N   0  0  0  0  0  0  0  0  0  0  0  0
   23.7312  -18.0164  -17.2494 C   0  0  0  0  0  0  0  0  0  0  0  0
   22.9098  -18.5923  -17.9979 O   0  0  0  0  0  0  0  0  0  0  0  0
   24.4828  -16.9166  -17.7249 N   0  0  0  0  0  0  0  0  0  0  0  0
   23.9455  -15.9579  -18.6488 C   0  0  1  0  0  0  0  0  0  0  0  0
   22.7023  -15.2892  -18.1594 C   0  0  0  0  0  0  0  0  0  0  0  0
   21.4667  -15.8595  -18.6964 C   0  0  0  0  0  0  0  0  0  0  0  0
   21.4591  -16.4528  -19.7961 O   0  0  0  0  0  0  0  0  0  0  0  0
   24.9668  -14.9458  -19.0559 C   0  0  0  0  0  0  0  0  0  0  0  0
   25.2848  -14.7982  -20.3958 O   0  0  0  0  0  0  0  0  0  0  0  0
   20.2843  -15.7506  -17.9931 O   0  0  0  0  0  0  0  0  0  0  0  0
   25.5652  -14.2061  -18.2325 O   0  0  0  0  0  0  0  0  0  0  0  0
  2  1  1  0
  2  3  2  0
  4  5  1  0
  4  2  1  0
  5  6  1  0
  6  8  1  0
  6  7  1  6
  8  9  2  0
 10 11  1  0
 10  8  1  0
 11 12  1  6
 13 12  1  0
 14 13  2  0
 15 14  1  0
 16 15  1  0
 16 17  2  0
 17 13  1  0
 18 11  1  0
 19 18  2  0
 20 18  1  0
 21 22  1  1
 21 20  1  0
 23 22  1  0
 24 23  2  0
 25 26  1  0
 25 21  1  0
 27 23  1  0
 28 25  2  0
M  END
$$$$
