QHD.pdb
     RDKit          3D

 28 28  0  0  1  0  0  0  0  0999 V2000
   29.8414  -21.0612   -9.0864 N   0  0  0  0  0  0  0  0  0  0  0  0
   30.2130  -21.3626  -10.4222 C   0  0  0  0  0  0  0  0  0  0  0  0
   31.3388  -21.8540  -10.6226 O   0  0  0  0  0  0  0  0  0  0  0  0
   29.2940  -21.1012  -11.5211 C   0  0  0  0  0  0  0  0  0  0  0  0
   27.9705  -20.5389  -11.1987 C   0  0  0  0  0  0  0  0  0  0  0  0
   26.7806  -21.0833  -11.8882 C   0  0  2  0  0  0  0  0  0  0  0  0
   26.9502  -22.2810  -12.6346 N   0  0  0  0  0  0  0  0  0  0  0  0
   26.0145  -20.0358  -12.6407 C   0  0  0  0  0  0  0  0  0  0  0  0
   25.7866  -18.9507  -12.0584 O   0  0  0  0  0  0  0  0  0  0  0  0
   25.5497  -20.2160  -13.9490 N   0  0  0  0  0  0  0  0  0  0  0  0
   24.8126  -19.2693  -14.7336 C   0  0  1  0  0  0  0  0  0  0  0  0
   25.3591  -19.2139  -16.1358 C   0  0  0  0  0  0  0  0  0  0  0  0
   24.6856  -18.1814  -16.9636 C   0  0  0  0  0  0  0  0  0  0  0  0
   23.7582  -17.2613  -16.5328 C   0  0  0  0  0  0  0  0  0  0  0  0
   23.3794  -16.5037  -17.5584 N   0  0  0  0  0  0  0  0  0  0  0  0
   24.0598  -16.9382  -18.6317 C   0  0  0  0  0  0  0  0  0  0  0  0
   24.8571  -17.9594  -18.2778 N   0  0  0  0  0  0  0  0  0  0  0  0
   23.3547  -19.5752  -14.7271 C   0  0  0  0  0  0  0  0  0  0  0  0
   23.0069  -20.7054  -15.1373 O   0  0  0  0  0  0  0  0  0  0  0  0
   22.3850  -18.6463  -14.2827 N   0  0  0  0  0  0  0  0  0  0  0  0
   20.9938  -18.9812  -14.1660 C   0  0  1  0  0  0  0  0  0  0  0  0
   20.0990  -17.7888  -14.0688 C   0  0  0  0  0  0  0  0  0  0  0  0
   18.7650  -18.0844  -13.5460 C   0  0  0  0  0  0  0  0  0  0  0  0
   17.9195  -17.1767  -13.3955 O   0  0  0  0  0  0  0  0  0  0  0  0
   20.5473  -19.8911  -15.2642 C   0  0  0  0  0  0  0  0  0  0  0  0
   20.6644  -19.4796  -16.5814 O   0  0  0  0  0  0  0  0  0  0  0  0
   18.4179  -19.3769  -13.2092 O   0  0  0  0  0  0  0  0  0  0  0  0
   20.0615  -21.0326  -15.0538 O   0  0  0  0  0  0  0  0  0  0  0  0
  2  1  1  0
  2  3  2  0
  4  5  1  0
  4  2  1  0
  5  6  1  0
  6  8  1  0
  6  7  1  6
  8  9  2  0
 10 11  1  0
 10  8  1  0
 11 12  1  6
 13 12  1  0
 14 13  2  0
 15 14  1  0
 16 15  1  0
 16 17  2  0
 17 13  1  0
 18 11  1  0
 19 18  2  0
 20 18  1  0
 21 22  1  6
 21 20  1  0
 23 22  1  0
 24 23  2  0
 25 26  1  0
 25 21  1  0
 27 23  1  0
 28 25  2  0
M  END
$$$$
