QHD.pdb
     RDKit          3D

 28 28  0  0  1  0  0  0  0  0999 V2000
   14.8581  -11.0019  -15.4658 N   0  0  0  0  0  0  0  0  0  0  0  0
   15.1277  -12.3756  -15.2346 C   0  0  0  0  0  0  0  0  0  0  0  0
   14.1806  -13.1802  -15.3018 O   0  0  0  0  0  0  0  0  0  0  0  0
   16.4800  -12.8212  -14.9289 C   0  0  0  0  0  0  0  0  0  0  0  0
   17.5506  -11.8093  -14.8889 C   0  0  0  0  0  0  0  0  0  0  0  0
   18.4687  -11.7011  -16.0435 C   0  0  2  0  0  0  0  0  0  0  0  0
   19.1571  -12.8790  -16.4423 N   0  0  0  0  0  0  0  0  0  0  0  0
   19.3695  -10.5044  -15.9601 C   0  0  0  0  0  0  0  0  0  0  0  0
   20.5485  -10.6888  -15.5799 O   0  0  0  0  0  0  0  0  0  0  0  0
   18.9550   -9.2072  -16.2850 N   0  0  0  0  0  0  0  0  0  0  0  0
   19.7669   -8.0258  -16.2930 C   0  0  1  0  0  0  0  0  0  0  0  0
   19.6618   -7.3278  -17.6232 C   0  0  0  0  0  0  0  0  0  0  0  0
   20.2191   -8.1415  -18.7332 C   0  0  0  0  0  0  0  0  0  0  0  0
   19.5161   -8.6928  -19.7793 C   0  0  0  0  0  0  0  0  0  0  0  0
   20.3537   -9.3536  -20.5737 N   0  0  0  0  0  0  0  0  0  0  0  0
   21.5782   -9.2237  -20.0375 C   0  0  0  0  0  0  0  0  0  0  0  0
   21.5046   -8.4872  -18.9169 N   0  0  0  0  0  0  0  0  0  0  0  0
   19.4132   -7.1150  -15.1685 C   0  0  0  0  0  0  0  0  0  0  0  0
   18.2707   -6.6041  -15.1858 O   0  0  0  0  0  0  0  0  0  0  0  0
   20.3111   -6.8229  -14.1154 N   0  0  0  0  0  0  0  0  0  0  0  0
   19.9918   -5.8979  -13.0648 C   0  0  1  0  0  0  0  0  0  0  0  0
   19.7277   -6.5563  -11.7499 C   0  0  0  0  0  0  0  0  0  0  0  0
   19.3552   -5.6285  -10.6819 C   0  0  0  0  0  0  0  0  0  0  0  0
   19.0893   -4.4338  -10.9339 O   0  0  0  0  0  0  0  0  0  0  0  0
   21.0323   -4.8343  -12.9257 C   0  0  0  0  0  0  0  0  0  0  0  0
   20.7110   -3.6436  -12.2954 O   0  0  0  0  0  0  0  0  0  0  0  0
   19.2912   -6.0605   -9.3728 O   0  0  0  0  0  0  0  0  0  0  0  0
   22.2068   -4.9635  -13.3582 O   0  0  0  0  0  0  0  0  0  0  0  0
  2  1  1  0
  2  3  2  0
  4  5  1  0
  4  2  1  0
  5  6  1  0
  6  8  1  0
  6  7  1  1
  8  9  2  0
 10 11  1  0
 10  8  1  0
 11 12  1  6
 13 12  1  0
 14 13  2  0
 15 14  1  0
 16 15  1  0
 16 17  2  0
 17 13  1  0
 18 11  1  0
 19 18  2  0
 20 18  1  0
 21 22  1  1
 21 20  1  0
 23 22  1  0
 24 23  2  0
 25 26  1  0
 25 21  1  0
 27 23  1  0
 28 25  2  0
M  END
$$$$
