QHD.pdb
     RDKit          3D

 28 28  0  0  1  0  0  0  0  0999 V2000
   18.0639  -12.6941  -19.7923 N   0  0  0  0  0  0  0  0  0  0  0  0
   16.7412  -12.6287  -19.2832 C   0  0  0  0  0  0  0  0  0  0  0  0
   15.8241  -13.1238  -19.9635 O   0  0  0  0  0  0  0  0  0  0  0  0
   16.4752  -11.9982  -17.9977 C   0  0  0  0  0  0  0  0  0  0  0  0
   17.6187  -11.4579  -17.2412 C   0  0  0  0  0  0  0  0  0  0  0  0
   18.6534  -12.3951  -16.7527 C   0  0  2  0  0  0  0  0  0  0  0  0
   18.2180  -13.4936  -15.9626 N   0  0  0  0  0  0  0  0  0  0  0  0
   19.8420  -11.6940  -16.1645 C   0  0  0  0  0  0  0  0  0  0  0  0
   19.6967  -11.1345  -15.0535 O   0  0  0  0  0  0  0  0  0  0  0  0
   21.0908  -11.6391  -16.7951 N   0  0  0  0  0  0  0  0  0  0  0  0
   22.2403  -10.9041  -16.3554 C   0  0  1  0  0  0  0  0  0  0  0  0
   23.4706  -11.3694  -17.0885 C   0  0  0  0  0  0  0  0  0  0  0  0
   24.7096  -10.7350  -16.5713 C   0  0  0  0  0  0  0  0  0  0  0  0
   24.9349  -10.3043  -15.2845 C   0  0  0  0  0  0  0  0  0  0  0  0
   26.1583   -9.7892  -15.1998 N   0  0  0  0  0  0  0  0  0  0  0  0
   26.7059   -9.8913  -16.4219 C   0  0  0  0  0  0  0  0  0  0  0  0
   25.8302  -10.4661  -17.2624 N   0  0  0  0  0  0  0  0  0  0  0  0
   22.0374   -9.4359  -16.5055 C   0  0  0  0  0  0  0  0  0  0  0  0
   21.4941   -9.0400  -17.5612 O   0  0  0  0  0  0  0  0  0  0  0  0
   22.4331   -8.5084  -15.5137 N   0  0  0  0  0  0  0  0  0  0  0  0
   22.3233   -7.0889  -15.6986 C   0  0  1  0  0  0  0  0  0  0  0  0
   21.2459   -6.4614  -14.8755 C   0  0  0  0  0  0  0  0  0  0  0  0
   21.1268   -5.0140  -15.0513 C   0  0  0  0  0  0  0  0  0  0  0  0
   21.1227   -4.5047  -16.1924 O   0  0  0  0  0  0  0  0  0  0  0  0
   23.6296   -6.3972  -15.4784 C   0  0  0  0  0  0  0  0  0  0  0  0
   23.7567   -5.0579  -15.8076 O   0  0  0  0  0  0  0  0  0  0  0  0
   21.0163   -4.1842  -13.9541 O   0  0  0  0  0  0  0  0  0  0  0  0
   24.6399   -6.9760  -15.0012 O   0  0  0  0  0  0  0  0  0  0  0  0
  2  1  1  0
  2  3  2  0
  4  5  1  0
  4  2  1  0
  5  6  1  0
  6  8  1  0
  6  7  1  1
  8  9  2  0
 10 11  1  0
 10  8  1  0
 11 12  1  6
 13 12  1  0
 14 13  2  0
 15 14  1  0
 16 15  1  0
 16 17  2  0
 17 13  1  0
 18 11  1  0
 19 18  2  0
 20 18  1  0
 21 22  1  1
 21 20  1  0
 23 22  1  0
 24 23  2  0
 25 26  1  0
 25 21  1  0
 27 23  1  0
 28 25  2  0
M  END
$$$$
