QHD.pdb
     RDKit          3D

 28 28  0  0  1  0  0  0  0  0999 V2000
   26.0722  -22.7094  -14.3981 N   0  0  0  0  0  0  0  0  0  0  0  0
   25.0872  -23.6313  -13.9587 C   0  0  0  0  0  0  0  0  0  0  0  0
   24.9158  -24.6697  -14.6229 O   0  0  0  0  0  0  0  0  0  0  0  0
   24.3046  -23.3605  -12.7608 C   0  0  0  0  0  0  0  0  0  0  0  0
   24.6352  -22.1589  -11.9742 C   0  0  0  0  0  0  0  0  0  0  0  0
   25.8735  -21.4173  -12.2973 C   0  0  2  0  0  0  0  0  0  0  0  0
   26.8345  -21.2689  -11.2605 N   0  0  0  0  0  0  0  0  0  0  0  0
   25.6090  -20.1349  -13.0294 C   0  0  0  0  0  0  0  0  0  0  0  0
   24.8919  -19.2786  -12.4629 O   0  0  0  0  0  0  0  0  0  0  0  0
   26.1228  -19.8572  -14.3018 N   0  0  0  0  0  0  0  0  0  0  0  0
   25.8871  -18.6775  -15.0814 C   0  0  1  0  0  0  0  0  0  0  0  0
   26.9170  -18.5579  -16.1736 C   0  0  0  0  0  0  0  0  0  0  0  0
   26.7005  -17.3606  -17.0248 C   0  0  0  0  0  0  0  0  0  0  0  0
   26.7585  -16.0465  -16.6221 C   0  0  0  0  0  0  0  0  0  0  0  0
   26.5087  -15.2553  -17.6618 N   0  0  0  0  0  0  0  0  0  0  0  0
   26.2937  -16.0591  -18.7161 C   0  0  0  0  0  0  0  0  0  0  0  0
   26.4087  -17.3422  -18.3364 N   0  0  0  0  0  0  0  0  0  0  0  0
   24.5027  -18.6561  -15.6311 C   0  0  0  0  0  0  0  0  0  0  0  0
   24.0639  -19.7244  -16.1136 O   0  0  0  0  0  0  0  0  0  0  0  0
   23.6986  -17.4926  -15.6212 N   0  0  0  0  0  0  0  0  0  0  0  0
   22.3696  -17.4698  -16.1637 C   0  0  1  0  0  0  0  0  0  0  0  0
   21.2998  -17.4416  -15.1212 C   0  0  0  0  0  0  0  0  0  0  0  0
   19.9410  -17.5159  -15.6580 C   0  0  0  0  0  0  0  0  0  0  0  0
   19.7223  -18.0125  -16.7836 O   0  0  0  0  0  0  0  0  0  0  0  0
   22.1873  -16.3538  -17.1408 C   0  0  0  0  0  0  0  0  0  0  0  0
   21.4854  -16.5809  -18.3130 O   0  0  0  0  0  0  0  0  0  0  0  0
   18.8740  -17.0363  -14.9258 O   0  0  0  0  0  0  0  0  0  0  0  0
   22.6454  -15.1969  -16.9534 O   0  0  0  0  0  0  0  0  0  0  0  0
  2  1  1  0
  2  3  2  0
  4  5  1  0
  4  2  1  0
  5  6  1  0
  6  8  1  0
  6  7  1  1
  8  9  2  0
 10 11  1  0
 10  8  1  0
 11 12  1  6
 13 12  1  0
 14 13  2  0
 15 14  1  0
 16 15  1  0
 16 17  2  0
 17 13  1  0
 18 11  1  0
 19 18  2  0
 20 18  1  0
 21 22  1  1
 21 20  1  0
 23 22  1  0
 24 23  2  0
 25 26  1  0
 25 21  1  0
 27 23  1  0
 28 25  2  0
M  END
$$$$
