QHD.pdb
     RDKit          3D

 28 28  0  0  1  0  0  0  0  0999 V2000
   16.6100   -9.7141  -18.6423 N   0  0  0  0  0  0  0  0  0  0  0  0
   16.3206  -11.0616  -18.3052 C   0  0  0  0  0  0  0  0  0  0  0  0
   15.4756  -11.6698  -18.9870 O   0  0  0  0  0  0  0  0  0  0  0  0
   17.0007  -11.7061  -17.1904 C   0  0  0  0  0  0  0  0  0  0  0  0
   17.9578  -10.9055  -16.4063 C   0  0  0  0  0  0  0  0  0  0  0  0
   19.2173  -10.4736  -17.0503 C   0  0  2  0  0  0  0  0  0  0  0  0
   19.9704  -11.4628  -17.7393 N   0  0  0  0  0  0  0  0  0  0  0  0
   20.0654   -9.6199  -16.1546 C   0  0  0  0  0  0  0  0  0  0  0  0
   19.7589   -9.5654  -14.9416 O   0  0  0  0  0  0  0  0  0  0  0  0
   21.1708   -8.8912  -16.6098 N   0  0  0  0  0  0  0  0  0  0  0  0
   21.9854   -7.9997  -15.8375 C   0  0  1  0  0  0  0  0  0  0  0  0
   23.4354   -8.1595  -16.2114 C   0  0  0  0  0  0  0  0  0  0  0  0
   23.9911   -9.4645  -15.7718 C   0  0  0  0  0  0  0  0  0  0  0  0
   23.3527  -10.4113  -15.0047 C   0  0  0  0  0  0  0  0  0  0  0  0
   24.1661  -11.4465  -14.8148 N   0  0  0  0  0  0  0  0  0  0  0  0
   25.3113  -11.1605  -15.4554 C   0  0  0  0  0  0  0  0  0  0  0  0
   25.2127   -9.9557  -16.0405 N   0  0  0  0  0  0  0  0  0  0  0  0
   21.5359   -6.5870  -15.9841 C   0  0  0  0  0  0  0  0  0  0  0  0
   21.2954   -6.1822  -17.1438 O   0  0  0  0  0  0  0  0  0  0  0  0
   21.3805   -5.7199  -14.8776 N   0  0  0  0  0  0  0  0  0  0  0  0
   20.9991   -4.3435  -15.0248 C   0  0  1  0  0  0  0  0  0  0  0  0
   19.5593   -4.0872  -14.7192 C   0  0  0  0  0  0  0  0  0  0  0  0
   19.1729   -2.6788  -14.8023 C   0  0  0  0  0  0  0  0  0  0  0  0
   19.5814   -1.9556  -15.7361 O   0  0  0  0  0  0  0  0  0  0  0  0
   21.8799   -3.4349  -14.2299 C   0  0  0  0  0  0  0  0  0  0  0  0
   22.8255   -3.9768  -13.3753 O   0  0  0  0  0  0  0  0  0  0  0  0
   18.3470   -2.1239  -13.8461 O   0  0  0  0  0  0  0  0  0  0  0  0
   21.8082   -2.1804  -14.2957 O   0  0  0  0  0  0  0  0  0  0  0  0
  2  1  1  0
  2  3  2  0
  4  5  1  0
  4  2  1  0
  5  6  1  0
  6  8  1  0
  6  7  1  1
  8  9  2  0
 10 11  1  0
 10  8  1  0
 11 12  1  6
 13 12  1  0
 14 13  2  0
 15 14  1  0
 16 15  1  0
 16 17  2  0
 17 13  1  0
 18 11  1  0
 19 18  2  0
 20 18  1  0
 21 22  1  1
 21 20  1  0
 23 22  1  0
 24 23  2  0
 25 26  1  0
 25 21  1  0
 27 23  1  0
 28 25  2  0
M  END
$$$$
