QHD.pdb
     RDKit          3D

 28 28  0  0  1  0  0  0  0  0999 V2000
   20.4735  -11.6076  -22.8766 N   0  0  0  0  0  0  0  0  0  0  0  0
   21.8609  -11.7143  -22.5994 C   0  0  0  0  0  0  0  0  0  0  0  0
   22.5983  -12.2096  -23.4711 O   0  0  0  0  0  0  0  0  0  0  0  0
   22.3971  -11.2526  -21.3266 C   0  0  0  0  0  0  0  0  0  0  0  0
   21.4510  -10.7302  -20.3247 C   0  0  0  0  0  0  0  0  0  0  0  0
   21.6438  -11.0997  -18.9055 C   0  0  2  0  0  0  0  0  0  0  0  0
   21.7217  -12.4849  -18.5968 N   0  0  0  0  0  0  0  0  0  0  0  0
   20.7307  -10.3509  -17.9804 C   0  0  0  0  0  0  0  0  0  0  0  0
   19.8078   -9.6772  -18.4930 O   0  0  0  0  0  0  0  0  0  0  0  0
   20.8634  -10.3725  -16.5868 N   0  0  0  0  0  0  0  0  0  0  0  0
   20.0301   -9.6957  -15.6369 C   0  0  1  0  0  0  0  0  0  0  0  0
   19.5215  -10.6652  -14.6029 C   0  0  0  0  0  0  0  0  0  0  0  0
   18.3151  -11.3990  -15.0624 C   0  0  0  0  0  0  0  0  0  0  0  0
   17.6215  -11.1867  -16.2312 C   0  0  0  0  0  0  0  0  0  0  0  0
   16.5984  -12.0342  -16.2969 N   0  0  0  0  0  0  0  0  0  0  0  0
   16.6411  -12.7787  -15.1800 C   0  0  0  0  0  0  0  0  0  0  0  0
   17.6833  -12.3981  -14.4232 N   0  0  0  0  0  0  0  0  0  0  0  0
   20.7431   -8.5493  -15.0071 C   0  0  0  0  0  0  0  0  0  0  0  0
   21.8680   -8.7809  -14.5096 O   0  0  0  0  0  0  0  0  0  0  0  0
   20.1947   -7.2465  -14.9592 N   0  0  0  0  0  0  0  0  0  0  0  0
   20.8584   -6.1546  -14.3045 C   0  0  1  0  0  0  0  0  0  0  0  0
   21.7154   -5.3421  -15.2196 C   0  0  0  0  0  0  0  0  0  0  0  0
   22.3811   -4.2136  -14.5688 C   0  0  0  0  0  0  0  0  0  0  0  0
   22.8259   -4.3154  -13.4055 O   0  0  0  0  0  0  0  0  0  0  0  0
   19.8962   -5.2824  -13.5653 C   0  0  0  0  0  0  0  0  0  0  0  0
   20.3779   -4.3278  -12.6850 O   0  0  0  0  0  0  0  0  0  0  0  0
   22.5290   -3.0129  -15.2330 O   0  0  0  0  0  0  0  0  0  0  0  0
   18.6483   -5.3691  -13.7015 O   0  0  0  0  0  0  0  0  0  0  0  0
  2  1  1  0
  2  3  2  0
  4  5  1  0
  4  2  1  0
  5  6  1  0
  6  8  1  0
  6  7  1  6
  8  9  2  0
 10 11  1  0
 10  8  1  0
 11 12  1  1
 13 12  1  0
 14 13  2  0
 15 14  1  0
 16 15  1  0
 16 17  2  0
 17 13  1  0
 18 11  1  0
 19 18  2  0
 20 18  1  0
 21 22  1  6
 21 20  1  0
 23 22  1  0
 24 23  2  0
 25 26  1  0
 25 21  1  0
 27 23  1  0
 28 25  2  0
M  END
$$$$
