QHD.pdb
     RDKit          3D

 28 28  0  0  1  0  0  0  0  0999 V2000
   16.5179  -13.9698  -15.4279 N   0  0  0  0  0  0  0  0  0  0  0  0
   16.4433  -14.0358  -16.8433 C   0  0  0  0  0  0  0  0  0  0  0  0
   15.7891  -14.9627  -17.3550 O   0  0  0  0  0  0  0  0  0  0  0  0
   17.1166  -13.0400  -17.6653 C   0  0  0  0  0  0  0  0  0  0  0  0
   17.8292  -11.9453  -16.9830 C   0  0  0  0  0  0  0  0  0  0  0  0
   19.3083  -11.9484  -16.9893 C   0  0  2  0  0  0  0  0  0  0  0  0
   19.9604  -13.1119  -16.4979 N   0  0  0  0  0  0  0  0  0  0  0  0
   19.8948  -10.6810  -16.4416 C   0  0  0  0  0  0  0  0  0  0  0  0
   19.7499  -10.4537  -15.2185 O   0  0  0  0  0  0  0  0  0  0  0  0
   20.5887   -9.7534  -17.2278 N   0  0  0  0  0  0  0  0  0  0  0  0
   21.2475   -8.5656  -16.7695 C   0  0  1  0  0  0  0  0  0  0  0  0
   22.6821   -8.5533  -17.2274 C   0  0  0  0  0  0  0  0  0  0  0  0
   23.4075   -7.3380  -16.7782 C   0  0  0  0  0  0  0  0  0  0  0  0
   22.9195   -6.3480  -15.9573 C   0  0  0  0  0  0  0  0  0  0  0  0
   23.8571   -5.4215  -15.7784 N   0  0  0  0  0  0  0  0  0  0  0  0
   24.9316   -5.8190  -16.4793 C   0  0  0  0  0  0  0  0  0  0  0  0
   24.6658   -6.9848  -17.0908 N   0  0  0  0  0  0  0  0  0  0  0  0
   20.5239   -7.3390  -17.2067 C   0  0  0  0  0  0  0  0  0  0  0  0
   20.2299   -7.2520  -18.4202 O   0  0  0  0  0  0  0  0  0  0  0  0
   20.1735   -6.3028  -16.3100 N   0  0  0  0  0  0  0  0  0  0  0  0
   19.4923   -5.1129  -16.7359 C   0  0  1  0  0  0  0  0  0  0  0  0
   18.1094   -4.9872  -16.1847 C   0  0  0  0  0  0  0  0  0  0  0  0
   17.3851   -3.8056  -16.6531 C   0  0  0  0  0  0  0  0  0  0  0  0
   17.8504   -3.0873  -17.5636 O   0  0  0  0  0  0  0  0  0  0  0  0
   20.2911   -3.8828  -16.4495 C   0  0  0  0  0  0  0  0  0  0  0  0
   20.6897   -3.6150  -15.1505 O   0  0  0  0  0  0  0  0  0  0  0  0
   16.1705   -3.4642  -16.0939 O   0  0  0  0  0  0  0  0  0  0  0  0
   20.6279   -3.0612  -17.3410 O   0  0  0  0  0  0  0  0  0  0  0  0
  2  1  1  0
  2  3  2  0
  4  5  1  0
  4  2  1  0
  5  6  1  0
  6  8  1  0
  6  7  1  1
  8  9  2  0
 10 11  1  0
 10  8  1  0
 11 12  1  6
 13 12  1  0
 14 13  2  0
 15 14  1  0
 16 15  1  0
 16 17  2  0
 17 13  1  0
 18 11  1  0
 19 18  2  0
 20 18  1  0
 21 22  1  1
 21 20  1  0
 23 22  1  0
 24 23  2  0
 25 26  1  0
 25 21  1  0
 27 23  1  0
 28 25  2  0
M  END
$$$$
