QHD.pdb
     RDKit          3D

 28 28  0  0  1  0  0  0  0  0999 V2000
   26.4589  -29.7764    5.1825 N   0  0  0  0  0  0  0  0  0  0  0  0
   25.3196  -29.4921    5.9789 C   0  0  0  0  0  0  0  0  0  0  0  0
   25.3880  -28.5485    6.7876 O   0  0  0  0  0  0  0  0  0  0  0  0
   24.1077  -30.2884    5.8448 C   0  0  0  0  0  0  0  0  0  0  0  0
   24.0979  -31.3725    4.8466 C   0  0  0  0  0  0  0  0  0  0  0  0
   23.4570  -31.1257    3.5367 C   0  0  2  0  0  0  0  0  0  0  0  0
   22.0444  -30.9681    3.5209 N   0  0  0  0  0  0  0  0  0  0  0  0
   23.9479  -32.0536    2.4650 C   0  0  0  0  0  0  0  0  0  0  0  0
   23.5122  -33.2277    2.4673 O   0  0  0  0  0  0  0  0  0  0  0  0
   24.8600  -31.6689    1.4749 N   0  0  0  0  0  0  0  0  0  0  0  0
   25.4618  -32.5178    0.4889 C   0  0  1  0  0  0  0  0  0  0  0  0
   26.1934  -31.6920   -0.5360 C   0  0  0  0  0  0  0  0  0  0  0  0
   26.3911  -32.4230   -1.8133 C   0  0  0  0  0  0  0  0  0  0  0  0
   25.9171  -33.6768   -2.1226 C   0  0  0  0  0  0  0  0  0  0  0  0
   26.2954  -33.9992   -3.3563 N   0  0  0  0  0  0  0  0  0  0  0  0
   27.0035  -32.9598   -3.8273 C   0  0  0  0  0  0  0  0  0  0  0  0
   27.0663  -31.9962   -2.8939 N   0  0  0  0  0  0  0  0  0  0  0  0
   26.3574  -33.5298    1.1157 C   0  0  0  0  0  0  0  0  0  0  0  0
   26.7840  -33.2798    2.2656 O   0  0  0  0  0  0  0  0  0  0  0  0
   26.7258  -34.7283    0.4613 N   0  0  0  0  0  0  0  0  0  0  0  0
   27.5065  -35.7481    1.1031 C   0  0  1  0  0  0  0  0  0  0  0  0
   26.9870  -36.1397    2.4480 C   0  0  0  0  0  0  0  0  0  0  0  0
   28.0293  -36.5035    3.4079 C   0  0  0  0  0  0  0  0  0  0  0  0
   29.2384  -36.4235    3.1027 O   0  0  0  0  0  0  0  0  0  0  0  0
   27.6770  -36.9490    0.2302 C   0  0  0  0  0  0  0  0  0  0  0  0
   28.8320  -37.7069    0.3303 O   0  0  0  0  0  0  0  0  0  0  0  0
   27.6917  -36.9428    4.6718 O   0  0  0  0  0  0  0  0  0  0  0  0
   26.8123  -37.3166   -0.6067 O   0  0  0  0  0  0  0  0  0  0  0  0
  2  1  1  0
  2  3  2  0
  4  5  1  0
  4  2  1  0
  5  6  1  0
  6  8  1  0
  6  7  1  1
  8  9  2  0
 10 11  1  0
 10  8  1  0
 11 12  1  6
 13 12  1  0
 14 13  2  0
 15 14  1  0
 16 15  1  0
 16 17  2  0
 17 13  1  0
 18 11  1  0
 19 18  2  0
 20 18  1  0
 21 22  1  1
 21 20  1  0
 23 22  1  0
 24 23  2  0
 25 26  1  0
 25 21  1  0
 27 23  1  0
 28 25  2  0
M  END
$$$$
