QHD.pdb
     RDKit          3D

 28 28  0  0  1  0  0  0  0  0999 V2000
   23.5067  -22.3533   -8.3317 N   0  0  0  0  0  0  0  0  0  0  0  0
   22.8381  -21.1287   -8.5896 C   0  0  0  0  0  0  0  0  0  0  0  0
   21.6195  -21.0616   -8.3461 O   0  0  0  0  0  0  0  0  0  0  0  0
   23.5679  -19.9874   -9.1239 C   0  0  0  0  0  0  0  0  0  0  0  0
   24.9677  -20.1916   -9.5367 C   0  0  0  0  0  0  0  0  0  0  0  0
   25.2431  -21.0346  -10.7204 C   0  0  2  0  0  0  0  0  0  0  0  0
   26.3835  -21.8814  -10.6673 N   0  0  0  0  0  0  0  0  0  0  0  0
   25.1454  -20.2753  -12.0105 C   0  0  0  0  0  0  0  0  0  0  0  0
   25.8448  -19.2436  -12.1329 O   0  0  0  0  0  0  0  0  0  0  0  0
   24.3175  -20.6650  -13.0701 N   0  0  0  0  0  0  0  0  0  0  0  0
   24.2467  -20.0608  -14.3682 C   0  0  1  0  0  0  0  0  0  0  0  0
   24.6294  -21.0572  -15.4305 C   0  0  0  0  0  0  0  0  0  0  0  0
   26.0947  -21.0942  -15.6680 C   0  0  0  0  0  0  0  0  0  0  0  0
   27.0364  -20.2561  -15.1173 C   0  0  0  0  0  0  0  0  0  0  0  0
   28.2426  -20.5935  -15.5650 N   0  0  0  0  0  0  0  0  0  0  0  0
   28.0695  -21.6368  -16.3929 C   0  0  0  0  0  0  0  0  0  0  0  0
   26.7647  -21.9476  -16.4609 N   0  0  0  0  0  0  0  0  0  0  0  0
   22.8996  -19.4789  -14.6247 C   0  0  0  0  0  0  0  0  0  0  0  0
   21.9081  -20.1799  -14.3212 O   0  0  0  0  0  0  0  0  0  0  0  0
   22.7212  -18.1932  -15.1865 N   0  0  0  0  0  0  0  0  0  0  0  0
   21.4252  -17.6661  -15.5086 C   0  0  1  0  0  0  0  0  0  0  0  0
   21.4281  -16.1960  -15.7749 C   0  0  0  0  0  0  0  0  0  0  0  0
   20.1139  -15.6473  -16.1097 C   0  0  0  0  0  0  0  0  0  0  0  0
   19.0680  -16.2704  -15.8278 O   0  0  0  0  0  0  0  0  0  0  0  0
   20.7885  -18.4085  -16.6386 C   0  0  0  0  0  0  0  0  0  0  0  0
   19.5043  -18.9057  -16.4909 O   0  0  0  0  0  0  0  0  0  0  0  0
   20.0083  -14.4268  -16.7450 O   0  0  0  0  0  0  0  0  0  0  0  0
   21.3663  -18.6105  -17.7380 O   0  0  0  0  0  0  0  0  0  0  0  0
  2  1  1  0
  2  3  2  0
  4  5  1  0
  4  2  1  0
  5  6  1  0
  6  8  1  0
  6  7  1  1
  8  9  2  0
 10 11  1  0
 10  8  1  0
 11 12  1  6
 13 12  1  0
 14 13  2  0
 15 14  1  0
 16 15  1  0
 16 17  2  0
 17 13  1  0
 18 11  1  0
 19 18  2  0
 20 18  1  0
 21 22  1  6
 21 20  1  0
 23 22  1  0
 24 23  2  0
 25 26  1  0
 25 21  1  0
 27 23  1  0
 28 25  2  0
M  END
$$$$
