QHD.pdb
     RDKit          3D

 28 28  0  0  1  0  0  0  0  0999 V2000
   16.9063  -16.6651  -16.1681 N   0  0  0  0  0  0  0  0  0  0  0  0
   18.0660  -16.0890  -16.7480 C   0  0  0  0  0  0  0  0  0  0  0  0
   18.0863  -15.9231  -17.9813 O   0  0  0  0  0  0  0  0  0  0  0  0
   19.1958  -15.7047  -15.9133 C   0  0  0  0  0  0  0  0  0  0  0  0
   19.9588  -14.5018  -16.2910 C   0  0  0  0  0  0  0  0  0  0  0  0
   19.3022  -13.1810  -16.1812 C   0  0  2  0  0  0  0  0  0  0  0  0
   17.9940  -13.0557  -16.7228 N   0  0  0  0  0  0  0  0  0  0  0  0
   20.2034  -12.0489  -16.5770 C   0  0  0  0  0  0  0  0  0  0  0  0
   21.3789  -12.0624  -16.1450 O   0  0  0  0  0  0  0  0  0  0  0  0
   19.7930  -10.9917  -17.3981 N   0  0  0  0  0  0  0  0  0  0  0  0
   20.5621   -9.8353  -17.7532 C   0  0  1  0  0  0  0  0  0  0  0  0
   20.2218   -9.3899  -19.1510 C   0  0  0  0  0  0  0  0  0  0  0  0
   21.0370   -8.2279  -19.5872 C   0  0  0  0  0  0  0  0  0  0  0  0
   22.3436   -8.2574  -20.0163 C   0  0  0  0  0  0  0  0  0  0  0  0
   22.7355   -7.0235  -20.3212 N   0  0  0  0  0  0  0  0  0  0  0  0
   21.6875   -6.2166  -20.0881 C   0  0  0  0  0  0  0  0  0  0  0  0
   20.6496   -6.9423  -19.6410 N   0  0  0  0  0  0  0  0  0  0  0  0
   20.3748   -8.7337  -16.7680 C   0  0  0  0  0  0  0  0  0  0  0  0
   19.2198   -8.5612  -16.3177 O   0  0  0  0  0  0  0  0  0  0  0  0
   21.4389   -7.9040  -16.3439 N   0  0  0  0  0  0  0  0  0  0  0  0
   21.2732   -6.8913  -15.3398 C   0  0  1  0  0  0  0  0  0  0  0  0
   22.5533   -6.4843  -14.6857 C   0  0  0  0  0  0  0  0  0  0  0  0
   22.3974   -5.4564  -13.6565 C   0  0  0  0  0  0  0  0  0  0  0  0
   21.9830   -5.7498  -12.5146 O   0  0  0  0  0  0  0  0  0  0  0  0
   20.5452   -5.6982  -15.8687 C   0  0  0  0  0  0  0  0  0  0  0  0
   19.6033   -5.0659  -15.0742 O   0  0  0  0  0  0  0  0  0  0  0  0
   22.7072   -4.1401  -13.9320 O   0  0  0  0  0  0  0  0  0  0  0  0
   20.7449   -5.2275  -17.0184 O   0  0  0  0  0  0  0  0  0  0  0  0
  2  1  1  0
  2  3  2  0
  4  5  1  0
  4  2  1  0
  5  6  1  0
  6  8  1  0
  6  7  1  6
  8  9  2  0
 10 11  1  0
 10  8  1  0
 11 12  1  6
 13 12  1  0
 14 13  2  0
 15 14  1  0
 16 15  1  0
 16 17  2  0
 17 13  1  0
 18 11  1  0
 19 18  2  0
 20 18  1  0
 21 22  1  6
 21 20  1  0
 23 22  1  0
 24 23  2  0
 25 26  1  0
 25 21  1  0
 27 23  1  0
 28 25  2  0
M  END
$$$$
