QHD.pdb
     RDKit          3D

 28 28  0  0  1  0  0  0  0  0999 V2000
   20.9207  -14.6415  -16.1309 N   0  0  0  0  0  0  0  0  0  0  0  0
   21.1474  -14.8440  -17.5169 C   0  0  0  0  0  0  0  0  0  0  0  0
   20.1586  -14.9594  -18.2637 O   0  0  0  0  0  0  0  0  0  0  0  0
   22.5045  -14.9120  -18.0408 C   0  0  0  0  0  0  0  0  0  0  0  0
   23.6218  -14.7569  -17.0925 C   0  0  0  0  0  0  0  0  0  0  0  0
   24.7148  -15.7531  -17.1140 C   0  0  2  0  0  0  0  0  0  0  0  0
   25.6025  -15.7238  -18.2238 N   0  0  0  0  0  0  0  0  0  0  0  0
   24.2449  -17.1392  -16.7851 C   0  0  0  0  0  0  0  0  0  0  0  0
   23.5042  -17.7149  -17.6148 O   0  0  0  0  0  0  0  0  0  0  0  0
   24.5942  -17.8090  -15.6063 N   0  0  0  0  0  0  0  0  0  0  0  0
   24.1798  -19.1240  -15.2138 C   0  0  1  0  0  0  0  0  0  0  0  0
   25.2895  -19.8229  -14.4736 C   0  0  0  0  0  0  0  0  0  0  0  0
   26.3235  -20.3674  -15.3898 C   0  0  0  0  0  0  0  0  0  0  0  0
   26.2652  -20.4035  -16.7637 C   0  0  0  0  0  0  0  0  0  0  0  0
   27.3741  -20.9649  -17.2374 N   0  0  0  0  0  0  0  0  0  0  0  0
   28.1307  -21.2829  -16.1743 C   0  0  0  0  0  0  0  0  0  0  0  0
   27.4981  -20.9224  -15.0458 N   0  0  0  0  0  0  0  0  0  0  0  0
   22.9274  -19.0821  -14.4083 C   0  0  0  0  0  0  0  0  0  0  0  0
   22.8736  -18.2437  -13.4804 O   0  0  0  0  0  0  0  0  0  0  0  0
   21.8326  -19.9416  -14.6596 N   0  0  0  0  0  0  0  0  0  0  0  0
   20.6360  -19.9173  -13.8666 C   0  0  1  0  0  0  0  0  0  0  0  0
   19.4992  -19.2042  -14.5233 C   0  0  0  0  0  0  0  0  0  0  0  0
   18.2771  -19.1621  -13.7203 C   0  0  0  0  0  0  0  0  0  0  0  0
   18.1097  -18.2781  -12.8530 O   0  0  0  0  0  0  0  0  0  0  0  0
   20.2253  -21.2889  -13.4385 C   0  0  0  0  0  0  0  0  0  0  0  0
   19.3019  -21.4370  -12.4170 O   0  0  0  0  0  0  0  0  0  0  0  0
   17.2850  -20.1027  -13.9091 O   0  0  0  0  0  0  0  0  0  0  0  0
   20.6810  -22.3367  -13.9654 O   0  0  0  0  0  0  0  0  0  0  0  0
  2  1  1  0
  2  3  2  0
  4  5  1  0
  4  2  1  0
  5  6  1  0
  6  8  1  0
  6  7  1  6
  8  9  2  0
 10 11  1  0
 10  8  1  0
 11 12  1  1
 13 12  1  0
 14 13  2  0
 15 14  1  0
 16 15  1  0
 16 17  2  0
 17 13  1  0
 18 11  1  0
 19 18  2  0
 20 18  1  0
 21 22  1  6
 21 20  1  0
 23 22  1  0
 24 23  2  0
 25 26  1  0
 25 21  1  0
 27 23  1  0
 28 25  2  0
M  END
$$$$
