QHD.pdb
     RDKit          3D

 28 28  0  0  1  0  0  0  0  0999 V2000
   25.6632  -12.7635  -19.1909 N   0  0  0  0  0  0  0  0  0  0  0  0
   24.3170  -13.0894  -18.8828 C   0  0  0  0  0  0  0  0  0  0  0  0
   24.0829  -13.6612  -17.8025 O   0  0  0  0  0  0  0  0  0  0  0  0
   23.2460  -12.7582  -19.8123 C   0  0  0  0  0  0  0  0  0  0  0  0
   22.0863  -12.0104  -19.2950 C   0  0  0  0  0  0  0  0  0  0  0  0
   22.0203  -10.5515  -19.5292 C   0  0  2  0  0  0  0  0  0  0  0  0
   22.9560   -9.9944  -20.4428 N   0  0  0  0  0  0  0  0  0  0  0  0
   21.9127   -9.7626  -18.2578 C   0  0  0  0  0  0  0  0  0  0  0  0
   21.1004  -10.1619  -17.3922 O   0  0  0  0  0  0  0  0  0  0  0  0
   22.6715   -8.6146  -17.9998 N   0  0  0  0  0  0  0  0  0  0  0  0
   22.6001   -7.7858  -16.8324 C   0  0  1  0  0  0  0  0  0  0  0  0
   23.9820   -7.5107  -16.3009 C   0  0  0  0  0  0  0  0  0  0  0  0
   24.6338   -8.7322  -15.7643 C   0  0  0  0  0  0  0  0  0  0  0  0
   24.0794   -9.9884  -15.6806 C   0  0  0  0  0  0  0  0  0  0  0  0
   24.9632  -10.8255  -15.1445 N   0  0  0  0  0  0  0  0  0  0  0  0
   26.0696  -10.1081  -14.8896 C   0  0  0  0  0  0  0  0  0  0  0  0
   25.8770   -8.8329  -15.2641 N   0  0  0  0  0  0  0  0  0  0  0  0
   21.8586   -6.5230  -17.1062 C   0  0  0  0  0  0  0  0  0  0  0  0
   22.0273   -5.9941  -18.2279 O   0  0  0  0  0  0  0  0  0  0  0  0
   20.9963   -5.9267  -16.1569 N   0  0  0  0  0  0  0  0  0  0  0  0
   20.1912   -4.7777  -16.4621 C   0  0  1  0  0  0  0  0  0  0  0  0
   19.3081   -4.9668  -17.6523 C   0  0  0  0  0  0  0  0  0  0  0  0
   18.5041   -3.7927  -17.9916 C   0  0  0  0  0  0  0  0  0  0  0  0
   18.5977   -2.7377  -17.3284 O   0  0  0  0  0  0  0  0  0  0  0  0
   19.3974   -4.3256  -15.2794 C   0  0  0  0  0  0  0  0  0  0  0  0
   19.3983   -2.9857  -14.9288 O   0  0  0  0  0  0  0  0  0  0  0  0
   17.6252   -3.8321  -19.0549 O   0  0  0  0  0  0  0  0  0  0  0  0
   18.7152   -5.1104  -14.5710 O   0  0  0  0  0  0  0  0  0  0  0  0
  2  1  1  0
  2  3  2  0
  4  5  1  0
  4  2  1  0
  5  6  1  0
  6  8  1  0
  6  7  1  1
  8  9  2  0
 10 11  1  0
 10  8  1  0
 11 12  1  6
 13 12  1  0
 14 13  2  0
 15 14  1  0
 16 15  1  0
 16 17  2  0
 17 13  1  0
 18 11  1  0
 19 18  2  0
 20 18  1  0
 21 22  1  6
 21 20  1  0
 23 22  1  0
 24 23  2  0
 25 26  1  0
 25 21  1  0
 27 23  1  0
 28 25  2  0
M  END
$$$$
