QHD.pdb
     RDKit          3D

 28 28  0  0  1  0  0  0  0  0999 V2000
   30.1668  -35.3550   -4.4281 N   0  0  0  0  0  0  0  0  0  0  0  0
   29.0948  -34.7972   -5.1717 C   0  0  0  0  0  0  0  0  0  0  0  0
   28.9349  -35.1751   -6.3466 O   0  0  0  0  0  0  0  0  0  0  0  0
   28.2110  -33.8107   -4.5663 C   0  0  0  0  0  0  0  0  0  0  0  0
   28.3792  -33.5175   -3.1319 C   0  0  0  0  0  0  0  0  0  0  0  0
   27.8573  -34.4859   -2.1433 C   0  0  2  0  0  0  0  0  0  0  0  0
   26.5077  -34.9065   -2.2917 N   0  0  0  0  0  0  0  0  0  0  0  0
   28.1956  -34.1137   -0.7300 C   0  0  0  0  0  0  0  0  0  0  0  0
   29.1845  -33.3677   -0.5454 O   0  0  0  0  0  0  0  0  0  0  0  0
   27.4630  -34.5578    0.3774 N   0  0  0  0  0  0  0  0  0  0  0  0
   27.7361  -34.2716    1.7552 C   0  0  1  0  0  0  0  0  0  0  0  0
   26.4602  -34.2842    2.5550 C   0  0  0  0  0  0  0  0  0  0  0  0
   25.9373  -32.9171    2.8050 C   0  0  0  0  0  0  0  0  0  0  0  0
   26.0450  -31.8317    1.9668 C   0  0  0  0  0  0  0  0  0  0  0  0
   25.4571  -30.7797    2.5299 N   0  0  0  0  0  0  0  0  0  0  0  0
   24.9799  -31.1925    3.7155 C   0  0  0  0  0  0  0  0  0  0  0  0
   25.2682  -32.4925    3.8904 N   0  0  0  0  0  0  0  0  0  0  0  0
   28.7429  -35.2146    2.3177 C   0  0  0  0  0  0  0  0  0  0  0  0
   28.8463  -36.3339    1.7670 O   0  0  0  0  0  0  0  0  0  0  0  0
   29.5581  -34.8847    3.4254 N   0  0  0  0  0  0  0  0  0  0  0  0
   30.5171  -35.8003    3.9762 C   0  0  1  0  0  0  0  0  0  0  0  0
   31.6412  -35.1271    4.6939 C   0  0  0  0  0  0  0  0  0  0  0  0
   32.6787  -36.0420    5.1698 C   0  0  0  0  0  0  0  0  0  0  0  0
   32.6253  -37.2632    4.9101 O   0  0  0  0  0  0  0  0  0  0  0  0
   29.8687  -36.8253    4.8493 C   0  0  0  0  0  0  0  0  0  0  0  0
   30.3022  -38.1397    4.7962 O   0  0  0  0  0  0  0  0  0  0  0  0
   33.7380  -35.5683    5.9168 O   0  0  0  0  0  0  0  0  0  0  0  0
   28.9326  -36.5546    5.6453 O   0  0  0  0  0  0  0  0  0  0  0  0
  2  1  1  0
  2  3  2  0
  4  5  1  0
  4  2  1  0
  5  6  1  0
  6  8  1  0
  6  7  1  1
  8  9  2  0
 10 11  1  0
 10  8  1  0
 11 12  1  1
 13 12  1  0
 14 13  2  0
 15 14  1  0
 16 15  1  0
 16 17  2  0
 17 13  1  0
 18 11  1  0
 19 18  2  0
 20 18  1  0
 21 22  1  1
 21 20  1  0
 23 22  1  0
 24 23  2  0
 25 26  1  0
 25 21  1  0
 27 23  1  0
 28 25  2  0
M  END
$$$$
