QHD.pdb
     RDKit          3D

 28 28  0  0  1  0  0  0  0  0999 V2000
   26.6211  -26.3155  -16.2905 N   0  0  0  0  0  0  0  0  0  0  0  0
   27.7596  -25.5554  -15.9173 C   0  0  0  0  0  0  0  0  0  0  0  0
   28.6262  -26.1025  -15.2111 O   0  0  0  0  0  0  0  0  0  0  0  0
   27.9009  -24.1738  -16.3552 C   0  0  0  0  0  0  0  0  0  0  0  0
   27.1856  -23.1307  -15.5989 C   0  0  0  0  0  0  0  0  0  0  0  0
   25.9051  -22.6182  -16.1333 C   0  0  2  0  0  0  0  0  0  0  0  0
   25.9654  -21.5078  -17.0185 N   0  0  0  0  0  0  0  0  0  0  0  0
   24.8555  -22.4576  -15.0736 C   0  0  0  0  0  0  0  0  0  0  0  0
   24.6735  -23.4133  -14.2850 O   0  0  0  0  0  0  0  0  0  0  0  0
   24.0807  -21.3003  -14.9295 N   0  0  0  0  0  0  0  0  0  0  0  0
   23.0771  -21.0605  -13.9344 C   0  0  1  0  0  0  0  0  0  0  0  0
   23.4834  -19.9134  -13.0475 C   0  0  0  0  0  0  0  0  0  0  0  0
   24.3202  -20.3540  -11.9027 C   0  0  0  0  0  0  0  0  0  0  0  0
   25.6711  -20.6125  -11.9257 C   0  0  0  0  0  0  0  0  0  0  0  0
   26.0694  -20.9852  -10.7126 N   0  0  0  0  0  0  0  0  0  0  0  0
   24.9816  -20.9639   -9.9252 C   0  0  0  0  0  0  0  0  0  0  0  0
   23.9127  -20.5806  -10.6423 N   0  0  0  0  0  0  0  0  0  0  0  0
   21.7423  -20.8265  -14.5532 C   0  0  0  0  0  0  0  0  0  0  0  0
   21.7086  -20.1235  -15.5882 O   0  0  0  0  0  0  0  0  0  0  0  0
   20.5498  -21.3632  -14.0143 N   0  0  0  0  0  0  0  0  0  0  0  0
   19.2591  -21.0987  -14.5848 C   0  0  1  0  0  0  0  0  0  0  0  0
   18.2106  -22.0783  -14.1686 C   0  0  0  0  0  0  0  0  0  0  0  0
   16.9155  -21.8790  -14.8191 C   0  0  0  0  0  0  0  0  0  0  0  0
   16.8300  -21.7845  -16.0622 O   0  0  0  0  0  0  0  0  0  0  0  0
   18.8111  -19.6979  -14.3200 C   0  0  0  0  0  0  0  0  0  0  0  0
   18.3123  -18.9327  -15.3611 O   0  0  0  0  0  0  0  0  0  0  0  0
   15.7622  -21.7920  -14.0662 O   0  0  0  0  0  0  0  0  0  0  0  0
   18.8631  -19.1652  -13.1812 O   0  0  0  0  0  0  0  0  0  0  0  0
  2  1  1  0
  2  3  2  0
  4  5  1  0
  4  2  1  0
  5  6  1  0
  6  8  1  0
  6  7  1  1
  8  9  2  0
 10 11  1  0
 10  8  1  0
 11 12  1  6
 13 12  1  0
 14 13  2  0
 15 14  1  0
 16 15  1  0
 16 17  2  0
 17 13  1  0
 18 11  1  0
 19 18  2  0
 20 18  1  0
 21 22  1  1
 21 20  1  0
 23 22  1  0
 24 23  2  0
 25 26  1  0
 25 21  1  0
 27 23  1  0
 28 25  2  0
M  END
$$$$
