QHD.pdb
     RDKit          3D

 28 28  0  0  1  0  0  0  0  0999 V2000
   27.5042  -23.0407  -15.4524 N   0  0  0  0  0  0  0  0  0  0  0  0
   28.5975  -22.4465  -16.1341 C   0  0  0  0  0  0  0  0  0  0  0  0
   29.5142  -23.1874  -16.5336 O   0  0  0  0  0  0  0  0  0  0  0  0
   28.6353  -21.0077  -16.3559 C   0  0  0  0  0  0  0  0  0  0  0  0
   27.5128  -20.1987  -15.8486 C   0  0  0  0  0  0  0  0  0  0  0  0
   26.2147  -20.2639  -16.5546 C   0  0  2  0  0  0  0  0  0  0  0  0
   26.2466  -20.3307  -17.9740 N   0  0  0  0  0  0  0  0  0  0  0  0
   25.2242  -19.2594  -16.0444 C   0  0  0  0  0  0  0  0  0  0  0  0
   25.0847  -19.1579  -14.8040 O   0  0  0  0  0  0  0  0  0  0  0  0
   24.4592  -18.4407  -16.8838 N   0  0  0  0  0  0  0  0  0  0  0  0
   23.4006  -17.5592  -16.4872 C   0  0  1  0  0  0  0  0  0  0  0  0
   23.5813  -16.2058  -17.1224 C   0  0  0  0  0  0  0  0  0  0  0  0
   24.7903  -15.5041  -16.6214 C   0  0  0  0  0  0  0  0  0  0  0  0
   25.4267  -15.7214  -15.4214 C   0  0  0  0  0  0  0  0  0  0  0  0
   26.4715  -14.9043  -15.3221 N   0  0  0  0  0  0  0  0  0  0  0  0
   26.4993  -14.1740  -16.4488 C   0  0  0  0  0  0  0  0  0  0  0  0
   25.4791  -14.5332  -17.2450 N   0  0  0  0  0  0  0  0  0  0  0  0
   22.0644  -18.1370  -16.8031 C   0  0  0  0  0  0  0  0  0  0  0  0
   22.0444  -19.2078  -17.4508 O   0  0  0  0  0  0  0  0  0  0  0  0
   20.8558  -17.5220  -16.4011 N   0  0  0  0  0  0  0  0  0  0  0  0
   19.5970  -18.2122  -16.4185 C   0  0  1  0  0  0  0  0  0  0  0  0
   19.6121  -19.5003  -15.6619 C   0  0  0  0  0  0  0  0  0  0  0  0
   18.3501  -20.2383  -15.7142 C   0  0  0  0  0  0  0  0  0  0  0  0
   17.9135  -20.8345  -14.7065 O   0  0  0  0  0  0  0  0  0  0  0  0
   18.4775  -17.3378  -15.9545 C   0  0  0  0  0  0  0  0  0  0  0  0
   18.7434  -16.0327  -15.5744 O   0  0  0  0  0  0  0  0  0  0  0  0
   17.6182  -20.2877  -16.8832 O   0  0  0  0  0  0  0  0  0  0  0  0
   17.2836  -17.7295  -15.8889 O   0  0  0  0  0  0  0  0  0  0  0  0
  2  1  1  0
  2  3  2  0
  4  5  1  0
  4  2  1  0
  5  6  1  0
  6  8  1  0
  6  7  1  6
  8  9  2  0
 10 11  1  0
 10  8  1  0
 11 12  1  6
 13 12  1  0
 14 13  2  0
 15 14  1  0
 16 15  1  0
 16 17  2  0
 17 13  1  0
 18 11  1  0
 19 18  2  0
 20 18  1  0
 21 22  1  1
 21 20  1  0
 23 22  1  0
 24 23  2  0
 25 26  1  0
 25 21  1  0
 27 23  1  0
 28 25  2  0
M  END
$$$$
