EPE.pdb
     RDKit          3D

 26 26  0  0  1  0  0  0  0  0999 V2000
   10.3077  -15.2672   15.3735 N   0  0  0  0  0  0  0  0  0  0  0  0
    9.3156  -15.2349   16.4072 C   0  0  1  0  0  0  0  0  0  0  0  0
    8.6168  -16.5654   16.4125 C   0  0  0  0  0  0  0  0  0  0  0  0
    8.0088  -16.9407   15.1005 C   0  0  0  0  0  0  0  0  0  0  0  0
    7.4026  -18.3164   15.1628 C   0  0  0  0  0  0  0  0  0  0  0  0
    7.1612  -18.8938   16.2660 O   0  0  0  0  0  0  0  0  0  0  0  0
    9.8154  -14.7796   17.7002 C   0  0  0  0  0  0  0  0  0  0  0  0
   11.0619  -14.8302   17.9605 O   0  0  0  0  0  0  0  0  0  0  0  0
    7.0766  -19.0189   13.9996 O   0  0  0  0  0  0  0  0  0  0  0  0
    8.9962  -14.2512   18.7695 N   0  0  0  0  0  0  0  0  0  0  0  0
    7.5754  -14.0662   18.6643 C   0  0  0  0  0  0  0  0  0  0  0  0
    7.1915  -13.1768   19.8127 C   0  0  0  0  0  0  0  0  0  0  0  0
    8.5308  -12.6998   20.4042 C   0  0  0  0  0  0  0  0  0  0  0  0
    9.4041  -13.8572   20.0739 C   0  0  1  0  0  0  0  0  0  0  0  0
    9.3891  -14.9569   21.0642 C   0  0  0  0  0  0  0  0  0  0  0  0
    8.5012  -15.8534   21.0900 O   0  0  0  0  0  0  0  0  0  0  0  0
   10.4258  -14.9959   22.0258 N   0  0  0  0  0  0  0  0  0  0  0  0
   10.8287  -16.2277   22.7380 C   0  0  1  0  0  0  0  0  0  0  0  0
   12.2580  -16.4973   22.5006 C   0  0  0  0  0  0  0  0  0  0  0  0
   13.2418  -15.4417   22.8396 C   0  0  0  0  0  0  0  0  0  0  0  0
   14.6632  -15.7428   22.5875 C   0  0  0  0  0  0  0  0  0  0  0  0
   15.5525  -14.8845   22.8085 O   0  0  0  0  0  0  0  0  0  0  0  0
   10.3232  -16.2351   24.0981 C   0  0  0  0  0  0  0  0  0  0  0  0
   10.4560  -17.2062   24.8571 O   0  0  0  0  0  0  0  0  0  0  0  0
   15.0574  -16.9777   22.1067 O   0  0  0  0  0  0  0  0  0  0  0  0
    9.6512  -15.1061   24.6002 O   0  0  0  0  0  0  0  0  0  0  0  0
  2  1  1  6
  2  7  1  0
  3  2  1  0
  4  3  1  0
  5  4  1  0
  6  5  2  0
  7  8  2  0
  7 10  1  0
  9  5  1  0
 10 11  1  0
 11 12  1  0
 13 12  1  0
 14 10  1  0
 14 13  1  0
 15 16  2  0
 14 15  1  1
 17 15  1  0
 18 17  1  0
 18 23  1  0
 18 19  1  1
 20 21  1  0
 20 19  1  0
 21 22  2  0
 23 26  1  0
 24 23  2  0
 25 21  1  0
M  END
$$$$
