EPE.pdb
     RDKit          3D

 26 26  0  0  1  0  0  0  0  0999 V2000
    9.5165  -15.8726   15.3703 N   0  0  0  0  0  0  0  0  0  0  0  0
    8.6400  -15.5008   16.4414 C   0  0  1  0  0  0  0  0  0  0  0  0
    7.5922  -16.5706   16.5676 C   0  0  0  0  0  0  0  0  0  0  0  0
    8.1230  -17.8958   17.0081 C   0  0  0  0  0  0  0  0  0  0  0  0
    7.0028  -18.8178   17.4070 C   0  0  0  0  0  0  0  0  0  0  0  0
    6.6071  -18.9122   18.6083 O   0  0  0  0  0  0  0  0  0  0  0  0
    9.3271  -15.1416   17.6774 C   0  0  0  0  0  0  0  0  0  0  0  0
   10.5417  -15.4820   17.8589 O   0  0  0  0  0  0  0  0  0  0  0  0
    6.3465  -19.6125   16.4633 O   0  0  0  0  0  0  0  0  0  0  0  0
    8.7374  -14.4017   18.7722 N   0  0  0  0  0  0  0  0  0  0  0  0
    7.3937  -13.8936   18.7546 C   0  0  0  0  0  0  0  0  0  0  0  0
    7.3155  -12.9020   19.8806 C   0  0  0  0  0  0  0  0  0  0  0  0
    8.7704  -12.7317   20.3551 C   0  0  0  0  0  0  0  0  0  0  0  0
    9.3252  -14.0712   20.0245 C   0  0  1  0  0  0  0  0  0  0  0  0
    9.1343  -15.1039   21.0673 C   0  0  0  0  0  0  0  0  0  0  0  0
    8.1246  -15.8595   21.1168 O   0  0  0  0  0  0  0  0  0  0  0  0
   10.1389  -15.2427   22.0533 N   0  0  0  0  0  0  0  0  0  0  0  0
   10.4089  -16.5095   22.7667 C   0  0  1  0  0  0  0  0  0  0  0  0
   10.4790  -17.6213   21.8019 C   0  0  0  0  0  0  0  0  0  0  0  0
   11.6596  -17.7092   20.9100 C   0  0  0  0  0  0  0  0  0  0  0  0
   12.4248  -18.9697   20.9314 C   0  0  0  0  0  0  0  0  0  0  0  0
   12.0996  -19.9078   21.7000 O   0  0  0  0  0  0  0  0  0  0  0  0
   11.4748  -16.3466   23.7378 C   0  0  0  0  0  0  0  0  0  0  0  0
   12.2763  -15.4016   23.7009 O   0  0  0  0  0  0  0  0  0  0  0  0
   13.5167  -19.1566   20.1042 O   0  0  0  0  0  0  0  0  0  0  0  0
   11.6259  -17.2857   24.7739 O   0  0  0  0  0  0  0  0  0  0  0  0
  2  1  1  6
  2  7  1  0
  3  2  1  0
  4  3  1  0
  5  4  1  0
  6  5  2  0
  7  8  2  0
  7 10  1  0
  9  5  1  0
 10 11  1  0
 11 12  1  0
 13 12  1  0
 14 10  1  0
 14 13  1  0
 15 16  2  0
 14 15  1  1
 17 15  1  0
 18 17  1  0
 18 23  1  0
 18 19  1  6
 20 21  1  0
 20 19  1  0
 21 22  2  0
 23 26  1  0
 24 23  2  0
 25 21  1  0
M  END
$$$$
