EPE.pdb
     RDKit          3D

 26 26  0  0  1  0  0  0  0  0999 V2000
    8.4776  -13.9913   20.8421 N   0  0  0  0  0  0  0  0  0  0  0  0
    7.5738  -13.9643   21.9540 C   0  0  1  0  0  0  0  0  0  0  0  0
    6.5054  -14.9902   21.7003 C   0  0  0  0  0  0  0  0  0  0  0  0
    6.9722  -16.4031   21.8326 C   0  0  0  0  0  0  0  0  0  0  0  0
    5.8120  -17.3598   21.7785 C   0  0  0  0  0  0  0  0  0  0  0  0
    4.8280  -17.1777   20.9991 O   0  0  0  0  0  0  0  0  0  0  0  0
    8.2272  -14.0426   23.2562 C   0  0  0  0  0  0  0  0  0  0  0  0
    9.4146  -14.4954   23.3525 O   0  0  0  0  0  0  0  0  0  0  0  0
    5.7713  -18.4973   22.5892 O   0  0  0  0  0  0  0  0  0  0  0  0
    7.6317  -13.6384   24.5115 N   0  0  0  0  0  0  0  0  0  0  0  0
    6.3315  -13.0360   24.6161 C   0  0  0  0  0  0  0  0  0  0  0  0
    6.2618  -12.4482   25.9969 C   0  0  0  0  0  0  0  0  0  0  0  0
    7.6960  -12.5637   26.5453 C   0  0  0  0  0  0  0  0  0  0  0  0
    8.1699  -13.7729   25.8211 C   0  0  1  0  0  0  0  0  0  0  0  0
    7.8457  -15.0615   26.4728 C   0  0  0  0  0  0  0  0  0  0  0  0
    6.8124  -15.7337   26.2020 O   0  0  0  0  0  0  0  0  0  0  0  0
    8.7449  -15.5555   27.4465 N   0  0  0  0  0  0  0  0  0  0  0  0
    9.5720  -16.7655   27.2505 C   0  0  1  0  0  0  0  0  0  0  0  0
   10.2611  -16.6944   25.9497 C   0  0  0  0  0  0  0  0  0  0  0  0
   11.2167  -17.7711   25.5968 C   0  0  0  0  0  0  0  0  0  0  0  0
   11.9051  -17.6584   24.2975 C   0  0  0  0  0  0  0  0  0  0  0  0
   11.6601  -16.7042   23.5193 O   0  0  0  0  0  0  0  0  0  0  0  0
   10.3399  -17.0736   28.4425 C   0  0  0  0  0  0  0  0  0  0  0  0
   10.6443  -18.2319   28.7629 O   0  0  0  0  0  0  0  0  0  0  0  0
   12.8419  -18.5952   23.9019 O   0  0  0  0  0  0  0  0  0  0  0  0
   10.7688  -16.0330   29.2859 O   0  0  0  0  0  0  0  0  0  0  0  0
  2  1  1  6
  2  7  1  0
  3  2  1  0
  4  3  1  0
  5  4  1  0
  6  5  2  0
  7  8  2  0
  7 10  1  0
  9  5  1  0
 10 11  1  0
 11 12  1  0
 13 12  1  0
 14 10  1  0
 14 13  1  0
 15 16  2  0
 14 15  1  1
 17 15  1  0
 18 17  1  0
 18 23  1  0
 18 19  1  6
 20 21  1  0
 20 19  1  0
 21 22  2  0
 23 26  1  0
 24 23  2  0
 25 21  1  0
M  END
$$$$
