EPE.pdb
     RDKit          3D

 26 26  0  0  1  0  0  0  0  0999 V2000
    8.1402  -15.0032   21.1786 N   0  0  0  0  0  0  0  0  0  0  0  0
    7.3687  -14.6234   22.3251 C   0  0  1  0  0  0  0  0  0  0  0  0
    6.2965  -15.6585   22.5184 C   0  0  0  0  0  0  0  0  0  0  0  0
    6.5809  -16.9640   21.8502 C   0  0  0  0  0  0  0  0  0  0  0  0
    6.0872  -18.1142   22.6854 C   0  0  0  0  0  0  0  0  0  0  0  0
    5.5079  -17.9343   23.7994 O   0  0  0  0  0  0  0  0  0  0  0  0
    8.1675  -14.3142   23.5062 C   0  0  0  0  0  0  0  0  0  0  0  0
    9.4276  -14.5048   23.4969 O   0  0  0  0  0  0  0  0  0  0  0  0
    6.2462  -19.4372   22.2645 O   0  0  0  0  0  0  0  0  0  0  0  0
    7.6458  -13.7876   24.7489 N   0  0  0  0  0  0  0  0  0  0  0  0
    6.2462  -13.5798   24.9979 C   0  0  0  0  0  0  0  0  0  0  0  0
    6.1721  -12.6999   26.2134 C   0  0  0  0  0  0  0  0  0  0  0  0
    7.6239  -12.2509   26.4617 C   0  0  0  0  0  0  0  0  0  0  0  0
    8.3686  -13.4168   25.9164 C   0  0  1  0  0  0  0  0  0  0  0  0
    8.5778  -14.5290   26.8701 C   0  0  0  0  0  0  0  0  0  0  0  0
    7.6434  -15.2661   27.2900 O   0  0  0  0  0  0  0  0  0  0  0  0
    9.8943  -14.7694   27.3281 N   0  0  0  0  0  0  0  0  0  0  0  0
   10.2744  -15.9556   28.1251 C   0  0  1  0  0  0  0  0  0  0  0  0
   11.5413  -16.5128   27.6188 C   0  0  0  0  0  0  0  0  0  0  0  0
   11.7825  -16.5037   26.1563 C   0  0  0  0  0  0  0  0  0  0  0  0
   13.0489  -17.0911   25.6811 C   0  0  0  0  0  0  0  0  0  0  0  0
   14.1398  -16.8016   26.2312 O   0  0  0  0  0  0  0  0  0  0  0  0
   10.1315  -15.6993   29.5461 C   0  0  0  0  0  0  0  0  0  0  0  0
   10.2774  -16.5819   30.4043 O   0  0  0  0  0  0  0  0  0  0  0  0
   13.0712  -17.9796   24.6220 O   0  0  0  0  0  0  0  0  0  0  0  0
    9.8151  -14.4042   29.9944 O   0  0  0  0  0  0  0  0  0  0  0  0
  2  1  1  6
  2  7  1  0
  3  2  1  0
  4  3  1  0
  5  4  1  0
  6  5  2  0
  7  8  2  0
  7 10  1  0
  9  5  1  0
 10 11  1  0
 11 12  1  0
 13 12  1  0
 14 10  1  0
 14 13  1  0
 15 16  2  0
 14 15  1  1
 17 15  1  0
 18 17  1  0
 18 23  1  0
 18 19  1  1
 20 21  1  0
 20 19  1  0
 21 22  2  0
 23 26  1  0
 24 23  2  0
 25 21  1  0
M  END
$$$$
