EPE.pdb
     RDKit          3D

 26 26  0  0  1  0  0  0  0  0999 V2000
    9.2901  -16.1124   15.6941 N   0  0  0  0  0  0  0  0  0  0  0  0
    8.4207  -15.8359   16.7992 C   0  0  1  0  0  0  0  0  0  0  0  0
    7.5459  -17.0402   17.0058 C   0  0  0  0  0  0  0  0  0  0  0  0
    8.2416  -18.1977   17.6446 C   0  0  0  0  0  0  0  0  0  0  0  0
    7.2799  -19.3248   17.9069 C   0  0  0  0  0  0  0  0  0  0  0  0
    7.6515  -20.4128   18.4427 O   0  0  0  0  0  0  0  0  0  0  0  0
    9.1062  -15.3425   17.9890 C   0  0  0  0  0  0  0  0  0  0  0  0
   10.3539  -15.5506   18.1436 O   0  0  0  0  0  0  0  0  0  0  0  0
    5.9278  -19.2179   17.5703 O   0  0  0  0  0  0  0  0  0  0  0  0
    8.4793  -14.6048   19.0645 N   0  0  0  0  0  0  0  0  0  0  0  0
    7.0734  -14.3135   19.1136 C   0  0  0  0  0  0  0  0  0  0  0  0
    6.9120  -13.2465   20.1590 C   0  0  0  0  0  0  0  0  0  0  0  0
    8.3490  -12.8114   20.5005 C   0  0  0  0  0  0  0  0  0  0  0  0
    9.0882  -14.0742   20.2352 C   0  0  1  0  0  0  0  0  0  0  0  0
    9.1348  -15.0237   21.3695 C   0  0  0  0  0  0  0  0  0  0  0  0
    8.3161  -15.9737   21.5112 O   0  0  0  0  0  0  0  0  0  0  0  0
   10.1510  -14.8490   22.3377 N   0  0  0  0  0  0  0  0  0  0  0  0
   10.8707  -15.9735   22.9736 C   0  0  1  0  0  0  0  0  0  0  0  0
   12.3200  -15.8309   22.7477 C   0  0  0  0  0  0  0  0  0  0  0  0
   13.2287  -16.8489   23.3265 C   0  0  0  0  0  0  0  0  0  0  0  0
   14.6747  -16.6607   23.1066 C   0  0  0  0  0  0  0  0  0  0  0  0
   15.4380  -16.3653   24.0587 O   0  0  0  0  0  0  0  0  0  0  0  0
   10.3841  -16.2122   24.3196 C   0  0  0  0  0  0  0  0  0  0  0  0
    9.8433  -15.3305   25.0030 O   0  0  0  0  0  0  0  0  0  0  0  0
   15.2312  -16.8088   21.8497 O   0  0  0  0  0  0  0  0  0  0  0  0
   10.5192  -17.4883   24.8955 O   0  0  0  0  0  0  0  0  0  0  0  0
  2  1  1  6
  2  7  1  0
  3  2  1  0
  4  3  1  0
  5  4  1  0
  6  5  2  0
  7  8  2  0
  7 10  1  0
  9  5  1  0
 10 11  1  0
 11 12  1  0
 13 12  1  0
 14 10  1  0
 14 13  1  0
 15 16  2  0
 14 15  1  1
 17 15  1  0
 18 17  1  0
 18 23  1  0
 18 19  1  1
 20 21  1  0
 20 19  1  0
 21 22  2  0
 23 26  1  0
 24 23  2  0
 25 21  1  0
M  END
$$$$
