EPE.pdb
     RDKit          3D

 26 26  0  0  1  0  0  0  0  0999 V2000
    8.4428  -14.0448   20.8569 N   0  0  0  0  0  0  0  0  0  0  0  0
    7.5755  -14.0064   21.9971 C   0  0  1  0  0  0  0  0  0  0  0  0
    6.5533  -15.0954   21.8314 C   0  0  0  0  0  0  0  0  0  0  0  0
    7.1334  -16.4698   21.7507 C   0  0  0  0  0  0  0  0  0  0  0  0
    6.0543  -17.5147   21.8380 C   0  0  0  0  0  0  0  0  0  0  0  0
    4.8350  -17.2077   22.0051 O   0  0  0  0  0  0  0  0  0  0  0  0
    8.2740  -13.9862   23.2779 C   0  0  0  0  0  0  0  0  0  0  0  0
    9.4847  -14.3765   23.3551 O   0  0  0  0  0  0  0  0  0  0  0  0
    6.3528  -18.8761   21.7361 O   0  0  0  0  0  0  0  0  0  0  0  0
    7.7004  -13.5463   24.5314 N   0  0  0  0  0  0  0  0  0  0  0  0
    6.4021  -12.9411   24.6417 C   0  0  0  0  0  0  0  0  0  0  0  0
    6.3564  -12.3142   26.0063 C   0  0  0  0  0  0  0  0  0  0  0  0
    7.8001  -12.4140   26.5324 C   0  0  0  0  0  0  0  0  0  0  0  0
    8.2617  -13.6434   25.8347 C   0  0  1  0  0  0  0  0  0  0  0  0
    7.9497  -14.9129   26.5285 C   0  0  0  0  0  0  0  0  0  0  0  0
    6.9890  -15.6630   26.2008 O   0  0  0  0  0  0  0  0  0  0  0  0
    8.7749  -15.2955   27.6117 N   0  0  0  0  0  0  0  0  0  0  0  0
    9.6737  -16.4692   27.5746 C   0  0  1  0  0  0  0  0  0  0  0  0
   10.4712  -16.4490   26.3355 C   0  0  0  0  0  0  0  0  0  0  0  0
   11.5204  -17.4800   26.1538 C   0  0  0  0  0  0  0  0  0  0  0  0
   12.3458  -17.3905   24.9351 C   0  0  0  0  0  0  0  0  0  0  0  0
   13.2538  -18.2277   24.7090 O   0  0  0  0  0  0  0  0  0  0  0  0
   10.3468  -16.6536   28.8468 C   0  0  0  0  0  0  0  0  0  0  0  0
   10.8217  -15.7107   29.4966 O   0  0  0  0  0  0  0  0  0  0  0  0
   12.1409  -16.3876   24.0057 O   0  0  0  0  0  0  0  0  0  0  0  0
   10.4786  -17.9455   29.3870 O   0  0  0  0  0  0  0  0  0  0  0  0
  2  1  1  6
  2  7  1  0
  3  2  1  0
  4  3  1  0
  5  4  1  0
  6  5  2  0
  7  8  2  0
  7 10  1  0
  9  5  1  0
 10 11  1  0
 11 12  1  0
 13 12  1  0
 14 10  1  0
 14 13  1  0
 15 16  2  0
 14 15  1  1
 17 15  1  0
 18 17  1  0
 18 23  1  0
 18 19  1  6
 20 21  1  0
 20 19  1  0
 21 22  2  0
 23 26  1  0
 24 23  2  0
 25 21  1  0
M  END
$$$$
