EPE.pdb
     RDKit          3D

 26 26  0  0  1  0  0  0  0  0999 V2000
    8.1119  -14.0881   20.9326 N   0  0  0  0  0  0  0  0  0  0  0  0
    7.4302  -14.0919   22.1932 C   0  0  1  0  0  0  0  0  0  0  0  0
    6.4814  -15.2573   22.1968 C   0  0  0  0  0  0  0  0  0  0  0  0
    7.1528  -16.5911   22.1521 C   0  0  0  0  0  0  0  0  0  0  0  0
    6.1472  -17.7035   22.2763 C   0  0  0  0  0  0  0  0  0  0  0  0
    6.4953  -18.9229   22.3012 O   0  0  0  0  0  0  0  0  0  0  0  0
    8.3140  -13.9944   23.3500 C   0  0  0  0  0  0  0  0  0  0  0  0
    9.5574  -14.2469   23.2309 O   0  0  0  0  0  0  0  0  0  0  0  0
    4.7787  -17.4370   22.3719 O   0  0  0  0  0  0  0  0  0  0  0  0
    7.8988  -13.6219   24.6851 N   0  0  0  0  0  0  0  0  0  0  0  0
    6.5410  -13.3105   25.0367 C   0  0  0  0  0  0  0  0  0  0  0  0
    6.6091  -12.6342   26.3765 C   0  0  0  0  0  0  0  0  0  0  0  0
    8.1099  -12.3863   26.6150 C   0  0  0  0  0  0  0  0  0  0  0  0
    8.6993  -13.5215   25.8565 C   0  0  1  0  0  0  0  0  0  0  0  0
    8.8157  -14.7881   26.6132 C   0  0  0  0  0  0  0  0  0  0  0  0
    7.8222  -15.4984   26.9313 O   0  0  0  0  0  0  0  0  0  0  0  0
   10.1092  -15.2149   26.9944 N   0  0  0  0  0  0  0  0  0  0  0  0
   10.3718  -16.4923   27.6915 C   0  0  1  0  0  0  0  0  0  0  0  0
   11.5079  -17.1838   27.0565 C   0  0  0  0  0  0  0  0  0  0  0  0
   11.8215  -16.8744   25.6413 C   0  0  0  0  0  0  0  0  0  0  0  0
   13.0348  -17.4900   25.0725 C   0  0  0  0  0  0  0  0  0  0  0  0
   14.1732  -17.0265   25.3291 O   0  0  0  0  0  0  0  0  0  0  0  0
   10.3669  -16.3136   29.1315 C   0  0  0  0  0  0  0  0  0  0  0  0
   10.3484  -15.1962   29.6681 O   0  0  0  0  0  0  0  0  0  0  0  0
   12.9548  -18.5957   24.2464 O   0  0  0  0  0  0  0  0  0  0  0  0
   10.3833  -17.4387   29.9754 O   0  0  0  0  0  0  0  0  0  0  0  0
  2  1  1  6
  2  7  1  0
  3  2  1  0
  4  3  1  0
  5  4  1  0
  6  5  2  0
  7  8  2  0
  7 10  1  0
  9  5  1  0
 10 11  1  0
 11 12  1  0
 13 12  1  0
 14 10  1  0
 14 13  1  0
 15 16  2  0
 14 15  1  1
 17 15  1  0
 18 17  1  0
 18 23  1  0
 18 19  1  6
 20 21  1  0
 20 19  1  0
 21 22  2  0
 23 26  1  0
 24 23  2  0
 25 21  1  0
M  END
$$$$
