EPE.pdb
     RDKit          3D

 26 26  0  0  1  0  0  0  0  0999 V2000
   10.2547  -15.5308   16.3071 N   0  0  0  0  0  0  0  0  0  0  0  0
    9.1921  -15.3060   17.2420 C   0  0  1  0  0  0  0  0  0  0  0  0
    8.1682  -16.3872   17.0396 C   0  0  0  0  0  0  0  0  0  0  0  0
    8.7423  -17.7641   16.9589 C   0  0  0  0  0  0  0  0  0  0  0  0
    7.6517  -18.8003   16.9291 C   0  0  0  0  0  0  0  0  0  0  0  0
    7.2868  -19.3594   15.8507 O   0  0  0  0  0  0  0  0  0  0  0  0
    9.6386  -15.1093   18.6171 C   0  0  0  0  0  0  0  0  0  0  0  0
   10.8219  -15.4346   18.9605 O   0  0  0  0  0  0  0  0  0  0  0  0
    6.9924  -19.1935   18.0969 O   0  0  0  0  0  0  0  0  0  0  0  0
    8.8316  -14.5550   19.6826 N   0  0  0  0  0  0  0  0  0  0  0  0
    7.4724  -14.1238   19.5072 C   0  0  0  0  0  0  0  0  0  0  0  0
    7.1453  -13.2965   20.7179 C   0  0  0  0  0  0  0  0  0  0  0  0
    8.4916  -13.1111   21.4418 C   0  0  0  0  0  0  0  0  0  0  0  0
    9.1907  -14.3622   21.0452 C   0  0  1  0  0  0  0  0  0  0  0  0
    8.9186  -15.5332   21.9082 C   0  0  0  0  0  0  0  0  0  0  0  0
    7.8993  -16.2663   21.7795 O   0  0  0  0  0  0  0  0  0  0  0  0
    9.8532  -15.8374   22.9254 N   0  0  0  0  0  0  0  0  0  0  0  0
    9.8339  -17.0986   23.6973 C   0  0  1  0  0  0  0  0  0  0  0  0
   11.1895  -17.4054   24.1873 C   0  0  0  0  0  0  0  0  0  0  0  0
   11.3632  -17.7419   25.6204 C   0  0  0  0  0  0  0  0  0  0  0  0
   12.7334  -18.0358   26.0796 C   0  0  0  0  0  0  0  0  0  0  0  0
   13.7098  -17.9407   25.2960 O   0  0  0  0  0  0  0  0  0  0  0  0
    8.7215  -17.1254   24.6285 C   0  0  0  0  0  0  0  0  0  0  0  0
    8.1114  -16.1028   24.9735 O   0  0  0  0  0  0  0  0  0  0  0  0
   12.9827  -18.4187   27.3845 O   0  0  0  0  0  0  0  0  0  0  0  0
    8.2980  -18.3497   25.1765 O   0  0  0  0  0  0  0  0  0  0  0  0
  2  1  1  6
  2  7  1  0
  3  2  1  0
  4  3  1  0
  5  4  1  0
  6  5  2  0
  7  8  2  0
  7 10  1  0
  9  5  1  0
 10 11  1  0
 11 12  1  0
 13 12  1  0
 14 10  1  0
 14 13  1  0
 15 16  2  0
 14 15  1  1
 17 15  1  0
 18 17  1  0
 18 23  1  0
 18 19  1  1
 20 21  1  0
 20 19  1  0
 21 22  2  0
 23 26  1  0
 24 23  2  0
 25 21  1  0
M  END
$$$$
