EPE.pdb
     RDKit          3D

 26 26  0  0  1  0  0  0  0  0999 V2000
   11.2665  -14.8554   16.2243 N   0  0  0  0  0  0  0  0  0  0  0  0
   10.0560  -15.1673   16.9251 C   0  0  1  0  0  0  0  0  0  0  0  0
    9.6179  -16.5386   16.4938 C   0  0  0  0  0  0  0  0  0  0  0  0
    8.4283  -17.0597   17.2321 C   0  0  0  0  0  0  0  0  0  0  0  0
    8.1208  -18.4753   16.8252 C   0  0  0  0  0  0  0  0  0  0  0  0
    7.0675  -18.7758   16.1855 O   0  0  0  0  0  0  0  0  0  0  0  0
   10.1285  -14.9525   18.3665 C   0  0  0  0  0  0  0  0  0  0  0  0
   11.1947  -15.2351   19.0048 O   0  0  0  0  0  0  0  0  0  0  0  0
    8.9900  -19.5245   17.1359 O   0  0  0  0  0  0  0  0  0  0  0  0
    9.0572  -14.4253   19.1839 N   0  0  0  0  0  0  0  0  0  0  0  0
    7.7573  -14.0919   18.6710 C   0  0  0  0  0  0  0  0  0  0  0  0
    7.0998  -13.2559   19.7322 C   0  0  0  0  0  0  0  0  0  0  0  0
    8.2187  -12.9601   20.7478 C   0  0  0  0  0  0  0  0  0  0  0  0
    9.0655  -14.1714   20.5833 C   0  0  1  0  0  0  0  0  0  0  0  0
    8.6632  -15.3342   21.4057 C   0  0  0  0  0  0  0  0  0  0  0  0
    8.0285  -16.3226   20.9439 O   0  0  0  0  0  0  0  0  0  0  0  0
    9.0117  -15.3278   22.7766 N   0  0  0  0  0  0  0  0  0  0  0  0
    9.9313  -16.3122   23.3867 C   0  0  1  0  0  0  0  0  0  0  0  0
   11.1248  -16.4743   22.5375 C   0  0  0  0  0  0  0  0  0  0  0  0
   12.2140  -17.3608   23.0117 C   0  0  0  0  0  0  0  0  0  0  0  0
   13.3726  -17.5384   22.1169 C   0  0  0  0  0  0  0  0  0  0  0  0
   14.1619  -16.5890   21.8889 O   0  0  0  0  0  0  0  0  0  0  0  0
   10.1008  -16.0608   24.8057 C   0  0  0  0  0  0  0  0  0  0  0  0
   10.2569  -14.9222   25.2706 O   0  0  0  0  0  0  0  0  0  0  0  0
   13.6258  -18.7539   21.5087 O   0  0  0  0  0  0  0  0  0  0  0  0
   10.0911  -17.1363   25.7121 O   0  0  0  0  0  0  0  0  0  0  0  0
  2  1  1  6
  2  7  1  0
  3  2  1  0
  4  3  1  0
  5  4  1  0
  6  5  2  0
  7  8  2  0
  7 10  1  0
  9  5  1  0
 10 11  1  0
 11 12  1  0
 13 12  1  0
 14 10  1  0
 14 13  1  0
 15 16  2  0
 14 15  1  1
 17 15  1  0
 18 17  1  0
 18 23  1  0
 18 19  1  6
 20 21  1  0
 20 19  1  0
 21 22  2  0
 23 26  1  0
 24 23  2  0
 25 21  1  0
M  END
$$$$
