EPE.pdb
     RDKit          3D

 26 26  0  0  1  0  0  0  0  0999 V2000
    7.5829  -15.0432   21.1657 N   0  0  0  0  0  0  0  0  0  0  0  0
    7.0425  -14.9157   22.4868 C   0  0  1  0  0  0  0  0  0  0  0  0
    6.3122  -16.1894   22.8073 C   0  0  0  0  0  0  0  0  0  0  0  0
    7.2068  -17.3587   23.0605 C   0  0  0  0  0  0  0  0  0  0  0  0
    6.4162  -18.5473   23.5362 C   0  0  0  0  0  0  0  0  0  0  0  0
    5.1515  -18.5186   23.6283 O   0  0  0  0  0  0  0  0  0  0  0  0
    8.0087  -14.4736   23.4868 C   0  0  0  0  0  0  0  0  0  0  0  0
    9.2585  -14.5542   23.2514 O   0  0  0  0  0  0  0  0  0  0  0  0
    7.0472  -19.7409   23.8971 O   0  0  0  0  0  0  0  0  0  0  0  0
    7.6726  -13.9266   24.7835 N   0  0  0  0  0  0  0  0  0  0  0  0
    6.3242  -13.7691   25.2538 C   0  0  0  0  0  0  0  0  0  0  0  0
    6.4083  -12.8516   26.4404 C   0  0  0  0  0  0  0  0  0  0  0  0
    7.8584  -12.3338   26.4341 C   0  0  0  0  0  0  0  0  0  0  0  0
    8.5580  -13.4857   25.8056 C   0  0  1  0  0  0  0  0  0  0  0  0
    8.9721  -14.5546   26.7418 C   0  0  0  0  0  0  0  0  0  0  0  0
    8.1616  -15.3662   27.2683 O   0  0  0  0  0  0  0  0  0  0  0  0
   10.3470  -14.6633   27.0559 N   0  0  0  0  0  0  0  0  0  0  0  0
   10.9273  -15.8143   27.7806 C   0  0  1  0  0  0  0  0  0  0  0  0
   12.3040  -16.0562   27.3137 C   0  0  0  0  0  0  0  0  0  0  0  0
   12.5887  -15.9405   25.8637 C   0  0  0  0  0  0  0  0  0  0  0  0
   13.9887  -16.1233   25.4377 C   0  0  0  0  0  0  0  0  0  0  0  0
   14.9300  -15.5836   26.0695 O   0  0  0  0  0  0  0  0  0  0  0  0
   10.6692  -15.7201   29.2054 C   0  0  0  0  0  0  0  0  0  0  0  0
   10.2079  -14.6995   29.7369 O   0  0  0  0  0  0  0  0  0  0  0  0
   14.3050  -16.8966   24.3362 O   0  0  0  0  0  0  0  0  0  0  0  0
   10.9448  -16.8183   30.0397 O   0  0  0  0  0  0  0  0  0  0  0  0
  2  1  1  6
  2  7  1  0
  3  2  1  0
  4  3  1  0
  5  4  1  0
  6  5  2  0
  7  8  2  0
  7 10  1  0
  9  5  1  0
 10 11  1  0
 11 12  1  0
 13 12  1  0
 14 10  1  0
 14 13  1  0
 15 16  2  0
 14 15  1  1
 17 15  1  0
 18 17  1  0
 18 23  1  0
 18 19  1  1
 20 21  1  0
 20 19  1  0
 21 22  2  0
 23 26  1  0
 24 23  2  0
 25 21  1  0
M  END
$$$$
