EPE.pdb
     RDKit          3D

 26 26  0  0  1  0  0  0  0  0999 V2000
   12.9265  -13.8402   17.1533 N   0  0  0  0  0  0  0  0  0  0  0  0
   11.6109  -14.3596   17.3836 C   0  0  1  0  0  0  0  0  0  0  0  0
   11.5323  -15.7118   16.7326 C   0  0  0  0  0  0  0  0  0  0  0  0
   10.2398  -16.4251   16.9612 C   0  0  0  0  0  0  0  0  0  0  0  0
   10.2701  -17.8010   16.3528 C   0  0  0  0  0  0  0  0  0  0  0  0
    9.2678  -18.5769   16.3981 O   0  0  0  0  0  0  0  0  0  0  0  0
   11.1830  -14.3046   18.7775 C   0  0  0  0  0  0  0  0  0  0  0  0
   12.0234  -14.5013   19.7151 O   0  0  0  0  0  0  0  0  0  0  0  0
   11.4115  -18.2834   15.7066 O   0  0  0  0  0  0  0  0  0  0  0  0
    9.8327  -14.0367   19.2232 N   0  0  0  0  0  0  0  0  0  0  0  0
    8.7185  -13.8776   18.3304 C   0  0  0  0  0  0  0  0  0  0  0  0
    7.6212  -13.2601   19.1500 C   0  0  0  0  0  0  0  0  0  0  0  0
    8.2941  -12.8761   20.4807 C   0  0  0  0  0  0  0  0  0  0  0  0
    9.3586  -13.9115   20.5584 C   0  0  1  0  0  0  0  0  0  0  0  0
    8.9430  -15.1938   21.1694 C   0  0  0  0  0  0  0  0  0  0  0  0
    8.4077  -16.1311   20.5154 O   0  0  0  0  0  0  0  0  0  0  0  0
    9.1604  -15.3673   22.5563 N   0  0  0  0  0  0  0  0  0  0  0  0
   10.0510  -16.4066   23.1162 C   0  0  1  0  0  0  0  0  0  0  0  0
   11.3353  -16.4065   22.3934 C   0  0  0  0  0  0  0  0  0  0  0  0
   12.4012  -17.3313   22.8468 C   0  0  0  0  0  0  0  0  0  0  0  0
   13.7053  -17.2386   22.1648 C   0  0  0  0  0  0  0  0  0  0  0  0
   14.1797  -16.1253   21.8302 O   0  0  0  0  0  0  0  0  0  0  0  0
   10.0550  -16.3666   24.5667 C   0  0  0  0  0  0  0  0  0  0  0  0
    9.7316  -15.3576   25.2102 O   0  0  0  0  0  0  0  0  0  0  0  0
   14.4442  -18.3718   21.8792 O   0  0  0  0  0  0  0  0  0  0  0  0
   10.4371  -17.5068   25.2962 O   0  0  0  0  0  0  0  0  0  0  0  0
  2  1  1  1
  2  7  1  0
  3  2  1  0
  4  3  1  0
  5  4  1  0
  6  5  2  0
  7  8  2  0
  7 10  1  0
  9  5  1  0
 10 11  1  0
 11 12  1  0
 13 12  1  0
 14 10  1  0
 14 13  1  0
 15 16  2  0
 14 15  1  6
 17 15  1  0
 18 17  1  0
 18 23  1  0
 18 19  1  6
 20 21  1  0
 20 19  1  0
 21 22  2  0
 23 26  1  0
 24 23  2  0
 25 21  1  0
M  END
$$$$
