KKV.pdb
     RDKit          3D

 26 25  0  0  1  0  0  0  0  0999 V2000
    6.2772  -16.4569   19.6590 N   0  0  0  0  0  0  0  0  0  0  0  0
    7.3282  -15.9734   20.5083 C   0  0  1  0  0  0  0  0  0  0  0  0
    7.6883  -14.5216   20.2441 C   0  0  0  0  0  0  0  0  0  0  0  0
    8.2943  -14.2719   18.9123 C   0  0  0  0  0  0  0  0  0  0  0  0
    8.8047  -12.8993   18.6554 C   0  0  0  0  0  0  0  0  0  0  0  0
   10.1961  -12.6615   19.1960 C   0  0  0  0  0  0  0  0  0  0  0  0
   11.1679  -13.5456   18.5578 N   0  0  0  0  0  0  0  0  0  0  0  0
    6.9057  -16.1324   21.9208 C   0  0  0  0  0  0  0  0  0  0  0  0
    5.7731  -15.7271   22.2720 O   0  0  0  0  0  0  0  0  0  0  0  0
    7.7577  -16.7349   22.8851 N   0  0  0  0  0  0  0  0  0  0  0  0
    7.3327  -16.7724   24.2495 C   0  0  1  0  0  0  0  0  0  0  0  0
    7.6528  -18.0957   24.9101 C   0  0  0  0  0  0  0  0  0  0  0  0
    6.7036  -19.1280   24.3389 C   0  0  0  0  0  0  0  0  0  0  0  0
    7.1079  -20.4677   24.9250 C   0  0  0  0  0  0  0  0  0  0  0  0
    6.2504  -21.5983   24.3916 C   0  0  0  0  0  0  0  0  0  0  0  0
    6.7288  -22.8868   24.8610 N   0  0  0  0  0  0  0  0  0  0  0  0
    7.9224  -15.6444   24.9933 C   0  0  0  0  0  0  0  0  0  0  0  0
    9.1064  -15.3101   24.7798 O   0  0  0  0  0  0  0  0  0  0  0  0
    6.5338  -12.0496   25.7981 C   0  0  0  0  0  0  0  0  0  0  0  0
    6.9151  -12.7711   27.0732 C   0  0  2  0  0  0  0  0  0  0  0  0
    7.5586  -11.7700   28.0081 C   0  0  0  0  0  0  0  0  0  0  0  0
    7.8783  -13.9073   26.7667 C   0  0  2  0  0  0  0  0  0  0  0  0
    7.1923  -14.8989   25.9665 N   0  0  0  0  0  0  0  0  0  0  0  0
    8.4174  -14.5031   28.0160 C   0  0  0  0  0  0  0  0  0  0  0  0
    9.3795  -13.8468   28.7393 O   0  0  0  0  0  0  0  0  0  0  0  0
    8.0169  -15.6145   28.4492 O   0  0  0  0  0  0  0  0  0  0  0  0
  2  3  1  0
  2  1  1  6
  3  4  1  0
  4  5  1  0
  5  6  1  0
  6  7  1  0
  8  2  1  0
  8  9  2  0
 10  8  1  0
 11 10  1  0
 11 17  1  0
 11 12  1  1
 13 12  1  0
 13 14  1  0
 15 14  1  0
 16 15  1  0
 17 23  1  0
 18 17  2  0
 20 21  1  1
 20 19  1  0
 20 22  1  0
 22 24  1  0
 22 23  1  1
 24 26  2  0
 24 25  1  0
M  END
$$$$
