KKV.pdb
     RDKit          3D

 26 25  0  0  1  0  0  0  0  0999 V2000
    5.8250  -16.8393   19.8066 N   0  0  0  0  0  0  0  0  0  0  0  0
    6.7308  -16.1001   20.6390 C   0  0  1  0  0  0  0  0  0  0  0  0
    6.5959  -14.5957   20.4780 C   0  0  0  0  0  0  0  0  0  0  0  0
    7.2539  -14.0465   19.2661 C   0  0  0  0  0  0  0  0  0  0  0  0
    8.7248  -13.8412   19.3373 C   0  0  0  0  0  0  0  0  0  0  0  0
    9.3179  -13.2776   18.0664 C   0  0  0  0  0  0  0  0  0  0  0  0
   10.7622  -13.0999   18.1923 N   0  0  0  0  0  0  0  0  0  0  0  0
    6.4854  -16.4734   22.0529 C   0  0  0  0  0  0  0  0  0  0  0  0
    5.3152  -16.4466   22.5007 O   0  0  0  0  0  0  0  0  0  0  0  0
    7.5489  -16.8612   22.9116 N   0  0  0  0  0  0  0  0  0  0  0  0
    7.2864  -17.0026   24.3098 C   0  0  1  0  0  0  0  0  0  0  0  0
    7.5858  -18.4000   24.8074 C   0  0  0  0  0  0  0  0  0  0  0  0
    9.0902  -18.5710   24.7982 C   0  0  0  0  0  0  0  0  0  0  0  0
    9.3731  -19.9917   25.2494 C   0  0  0  0  0  0  0  0  0  0  0  0
   10.8607  -20.2631   25.3577 C   0  0  0  0  0  0  0  0  0  0  0  0
   11.4756  -20.3500   24.0448 N   0  0  0  0  0  0  0  0  0  0  0  0
    8.0399  -15.9889   25.0701 C   0  0  0  0  0  0  0  0  0  0  0  0
    9.1677  -15.6269   24.6751 O   0  0  0  0  0  0  0  0  0  0  0  0
    6.5096  -12.6880   26.2997 C   0  0  0  0  0  0  0  0  0  0  0  0
    7.3112  -13.2892   27.4345 C   0  0  2  0  0  0  0  0  0  0  0  0
    8.0590  -12.1715   28.1286 C   0  0  0  0  0  0  0  0  0  0  0  0
    8.2849  -14.3271   26.8984 C   0  0  2  0  0  0  0  0  0  0  0  0
    7.5342  -15.3875   26.2611 N   0  0  0  0  0  0  0  0  0  0  0  0
    9.1514  -14.8575   27.9821 C   0  0  0  0  0  0  0  0  0  0  0  0
   10.2676  -14.1677   28.3788 O   0  0  0  0  0  0  0  0  0  0  0  0
    8.8962  -15.9424   28.5662 O   0  0  0  0  0  0  0  0  0  0  0  0
  2  3  1  0
  2  1  1  6
  3  4  1  0
  4  5  1  0
  5  6  1  0
  6  7  1  0
  8  2  1  0
  8  9  2  0
 10  8  1  0
 11 10  1  0
 11 17  1  0
 11 12  1  1
 13 12  1  0
 13 14  1  0
 15 14  1  0
 16 15  1  0
 17 23  1  0
 18 17  2  0
 20 21  1  6
 20 19  1  0
 20 22  1  0
 22 24  1  0
 22 23  1  1
 24 26  2  0
 24 25  1  0
M  END
$$$$
