KKV.pdb
     RDKit          3D

 26 25  0  0  1  0  0  0  0  0999 V2000
    5.3451  -17.2604   20.2544 N   0  0  0  0  0  0  0  0  0  0  0  0
    6.5599  -16.7545   20.8272 C   0  0  1  0  0  0  0  0  0  0  0  0
    6.8821  -15.3372   20.3861 C   0  0  0  0  0  0  0  0  0  0  0  0
    7.5285  -15.2409   19.0533 C   0  0  0  0  0  0  0  0  0  0  0  0
    7.8717  -13.8766   18.5723 C   0  0  0  0  0  0  0  0  0  0  0  0
    8.4674  -13.8582   17.1832 C   0  0  0  0  0  0  0  0  0  0  0  0
    8.6705  -12.4898   16.7147 N   0  0  0  0  0  0  0  0  0  0  0  0
    6.4415  -16.8013   22.3045 C   0  0  0  0  0  0  0  0  0  0  0  0
    5.4608  -16.2529   22.8594 O   0  0  0  0  0  0  0  0  0  0  0  0
    7.4165  -17.4550   23.1051 N   0  0  0  0  0  0  0  0  0  0  0  0
    7.2506  -17.4569   24.5250 C   0  0  1  0  0  0  0  0  0  0  0  0
    7.7582  -18.7351   25.1565 C   0  0  0  0  0  0  0  0  0  0  0  0
    7.5950  -18.5952   26.6553 C   0  0  0  0  0  0  0  0  0  0  0  0
    8.2323  -19.8209   27.2824 C   0  0  0  0  0  0  0  0  0  0  0  0
    8.0708  -19.8316   28.7897 C   0  0  0  0  0  0  0  0  0  0  0  0
    8.7027  -20.9998   29.3773 N   0  0  0  0  0  0  0  0  0  0  0  0
    7.9033  -16.2722   25.1113 C   0  0  0  0  0  0  0  0  0  0  0  0
    9.0672  -15.9724   24.7729 O   0  0  0  0  0  0  0  0  0  0  0  0
    6.1637  -12.7531   25.8224 C   0  0  0  0  0  0  0  0  0  0  0  0
    6.9469  -13.2375   27.0239 C   0  0  2  0  0  0  0  0  0  0  0  0
    7.6440  -12.0464   27.6448 C   0  0  0  0  0  0  0  0  0  0  0  0
    7.9630  -14.2870   26.6011 C   0  0  2  0  0  0  0  0  0  0  0  0
    7.2579  -15.4324   26.0674 N   0  0  0  0  0  0  0  0  0  0  0  0
    8.8362  -14.6747   27.7386 C   0  0  0  0  0  0  0  0  0  0  0  0
    9.9734  -13.9610   28.0156 O   0  0  0  0  0  0  0  0  0  0  0  0
    8.5680  -15.6570   28.4777 O   0  0  0  0  0  0  0  0  0  0  0  0
  2  3  1  0
  2  1  1  6
  3  4  1  0
  4  5  1  0
  5  6  1  0
  6  7  1  0
  8  2  1  0
  8  9  2  0
 10  8  1  0
 11 10  1  0
 11 17  1  0
 11 12  1  1
 13 12  1  0
 13 14  1  0
 15 14  1  0
 16 15  1  0
 17 23  1  0
 18 17  2  0
 20 21  1  6
 20 19  1  0
 20 22  1  0
 22 24  1  0
 22 23  1  1
 24 26  2  0
 24 25  1  0
M  END
$$$$
