KKV.pdb
     RDKit          3D

 26 25  0  0  1  0  0  0  0  0999 V2000
    7.6467  -16.2306   20.6571 N   0  0  0  0  0  0  0  0  0  0  0  0
    7.7366  -15.0265   21.4328 C   0  0  1  0  0  0  0  0  0  0  0  0
    6.6675  -14.0074   21.0781 C   0  0  0  0  0  0  0  0  0  0  0  0
    6.6698  -13.5852   19.6551 C   0  0  0  0  0  0  0  0  0  0  0  0
    7.9940  -13.4962   18.9849 C   0  0  0  0  0  0  0  0  0  0  0  0
    7.9088  -13.0935   17.5305 C   0  0  0  0  0  0  0  0  0  0  0  0
    9.2047  -13.2263   16.8699 N   0  0  0  0  0  0  0  0  0  0  0  0
    7.6304  -15.3801   22.8689 C   0  0  0  0  0  0  0  0  0  0  0  0
    7.4683  -14.4698   23.7148 O   0  0  0  0  0  0  0  0  0  0  0  0
    7.7084  -16.7294   23.3070 N   0  0  0  0  0  0  0  0  0  0  0  0
    7.5989  -17.0053   24.7054 C   0  0  1  0  0  0  0  0  0  0  0  0
    7.4472  -18.4848   24.9844 C   0  0  0  0  0  0  0  0  0  0  0  0
    6.3310  -18.9999   24.1004 C   0  0  0  0  0  0  0  0  0  0  0  0
    6.2720  -20.5029   24.2990 C   0  0  0  0  0  0  0  0  0  0  0  0
    5.2154  -21.1463   23.4227 C   0  0  0  0  0  0  0  0  0  0  0  0
    5.3304  -22.5940   23.4387 N   0  0  0  0  0  0  0  0  0  0  0  0
    8.7552  -16.4392   25.4238 C   0  0  0  0  0  0  0  0  0  0  0  0
    9.9037  -16.5651   24.9503 O   0  0  0  0  0  0  0  0  0  0  0  0
    8.3814  -13.7402   28.7286 C   0  0  0  0  0  0  0  0  0  0  0  0
    9.5220  -13.7713   27.7338 C   0  0  2  0  0  0  0  0  0  0  0  0
    9.1310  -12.9271   26.5402 C   0  0  0  0  0  0  0  0  0  0  0  0
    9.8052  -15.2020   27.3029 C   0  0  2  0  0  0  0  0  0  0  0  0
    8.6251  -15.7392   26.6604 N   0  0  0  0  0  0  0  0  0  0  0  0
   10.2154  -16.0378   28.4603 C   0  0  0  0  0  0  0  0  0  0  0  0
   11.4103  -15.8100   29.0924 O   0  0  0  0  0  0  0  0  0  0  0  0
    9.4922  -16.9708   28.8959 O   0  0  0  0  0  0  0  0  0  0  0  0
  2  3  1  0
  2  1  1  6
  3  4  1  0
  4  5  1  0
  5  6  1  0
  6  7  1  0
  8  2  1  0
  8  9  2  0
 10  8  1  0
 11 10  1  0
 11 17  1  0
 11 12  1  6
 13 12  1  0
 13 14  1  0
 15 14  1  0
 16 15  1  0
 17 23  1  0
 18 17  2  0
 20 21  1  6
 20 19  1  0
 20 22  1  0
 22 24  1  0
 22 23  1  1
 24 26  2  0
 24 25  1  0
M  END
$$$$
