KKV.pdb
     RDKit          3D

 26 25  0  0  1  0  0  0  0  0999 V2000
    7.4192  -15.1908   19.2043 N   0  0  0  0  0  0  0  0  0  0  0  0
    8.4323  -15.6842   20.0932 C   0  0  1  0  0  0  0  0  0  0  0  0
    9.6848  -14.8249   20.1055 C   0  0  0  0  0  0  0  0  0  0  0  0
   10.7451  -15.2718   19.1678 C   0  0  0  0  0  0  0  0  0  0  0  0
   12.0097  -14.4897   19.1647 C   0  0  0  0  0  0  0  0  0  0  0  0
   12.9536  -14.8726   18.0479 C   0  0  0  0  0  0  0  0  0  0  0  0
   14.1800  -14.0809   18.0996 N   0  0  0  0  0  0  0  0  0  0  0  0
    7.8658  -15.7580   21.4615 C   0  0  0  0  0  0  0  0  0  0  0  0
    6.9223  -14.9960   21.7772 O   0  0  0  0  0  0  0  0  0  0  0  0
    8.3698  -16.6745   22.4231 N   0  0  0  0  0  0  0  0  0  0  0  0
    7.7257  -16.7577   23.6967 C   0  0  1  0  0  0  0  0  0  0  0  0
    7.9398  -18.1024   24.3570 C   0  0  0  0  0  0  0  0  0  0  0  0
    7.3212  -18.0324   25.7373 C   0  0  0  0  0  0  0  0  0  0  0  0
    7.4894  -19.4039   26.3636 C   0  0  0  0  0  0  0  0  0  0  0  0
    6.8259  -19.4876   27.7241 C   0  0  0  0  0  0  0  0  0  0  0  0
    6.8809  -20.8392   28.2530 N   0  0  0  0  0  0  0  0  0  0  0  0
    8.1785  -15.6553   24.5645 C   0  0  0  0  0  0  0  0  0  0  0  0
    9.3985  -15.4868   24.7701 O   0  0  0  0  0  0  0  0  0  0  0  0
    7.3064  -11.4221   26.9261 C   0  0  0  0  0  0  0  0  0  0  0  0
    6.7496  -12.5948   26.1474 C   0  0  2  0  0  0  0  0  0  0  0  0
    5.5169  -13.0974   26.8672 C   0  0  0  0  0  0  0  0  0  0  0  0
    7.7907  -13.6984   26.0425 C   0  0  2  0  0  0  0  0  0  0  0  0
    7.2727  -14.7510   25.1952 N   0  0  0  0  0  0  0  0  0  0  0  0
    8.1554  -14.2188   27.3851 C   0  0  0  0  0  0  0  0  0  0  0  0
    9.0352  -13.5315   28.1807 O   0  0  0  0  0  0  0  0  0  0  0  0
    7.6776  -15.2927   27.8341 O   0  0  0  0  0  0  0  0  0  0  0  0
  2  3  1  0
  2  1  1  6
  3  4  1  0
  4  5  1  0
  5  6  1  0
  6  7  1  0
  8  2  1  0
  8  9  2  0
 10  8  1  0
 11 10  1  0
 11 17  1  0
 11 12  1  1
 13 12  1  0
 13 14  1  0
 15 14  1  0
 16 15  1  0
 17 23  1  0
 18 17  2  0
 20 21  1  1
 20 19  1  0
 20 22  1  0
 22 24  1  0
 22 23  1  6
 24 26  2  0
 24 25  1  0
M  END
$$$$
