KKV.pdb
     RDKit          3D

 26 25  0  0  1  0  0  0  0  0999 V2000
   11.7284  -16.6812   20.2640 N   0  0  0  0  0  0  0  0  0  0  0  0
   11.1093  -17.6589   21.1129 C   0  0  1  0  0  0  0  0  0  0  0  0
   12.1007  -18.6398   21.7146 C   0  0  0  0  0  0  0  0  0  0  0  0
   13.5251  -18.2696   21.5208 C   0  0  0  0  0  0  0  0  0  0  0  0
   14.5410  -19.2001   22.0800 C   0  0  0  0  0  0  0  0  0  0  0  0
   15.9622  -18.7126   21.9147 C   0  0  0  0  0  0  0  0  0  0  0  0
   16.9148  -19.6621   22.4842 N   0  0  0  0  0  0  0  0  0  0  0  0
   10.3864  -16.9530   22.1983 C   0  0  0  0  0  0  0  0  0  0  0  0
   10.6537  -15.7514   22.4335 O   0  0  0  0  0  0  0  0  0  0  0  0
    9.3966  -17.6098   22.9778 N   0  0  0  0  0  0  0  0  0  0  0  0
    8.6797  -16.8538   23.9568 C   0  0  1  0  0  0  0  0  0  0  0  0
    7.3486  -17.4855   24.3022 C   0  0  0  0  0  0  0  0  0  0  0  0
    6.4587  -17.3607   23.0835 C   0  0  0  0  0  0  0  0  0  0  0  0
    5.5265  -18.5577   23.0965 C   0  0  0  0  0  0  0  0  0  0  0  0
    4.7468  -18.6791   21.8021 C   0  0  0  0  0  0  0  0  0  0  0  0
    4.0319  -19.9416   21.7361 N   0  0  0  0  0  0  0  0  0  0  0  0
    9.5126  -16.6654   25.1585 C   0  0  0  0  0  0  0  0  0  0  0  0
   10.4586  -17.4473   25.3881 O   0  0  0  0  0  0  0  0  0  0  0  0
    9.8751  -13.0503   27.0671 C   0  0  0  0  0  0  0  0  0  0  0  0
    9.7800  -14.2298   28.0112 C   0  0  2  0  0  0  0  0  0  0  0  0
   10.7505  -14.0030   29.1500 C   0  0  0  0  0  0  0  0  0  0  0  0
   10.1141  -15.5192   27.2772 C   0  0  2  0  0  0  0  0  0  0  0  0
    9.2871  -15.6112   26.0933 N   0  0  0  0  0  0  0  0  0  0  0  0
    9.9258  -16.7003   28.1582 C   0  0  0  0  0  0  0  0  0  0  0  0
   10.9724  -17.1901   28.8957 O   0  0  0  0  0  0  0  0  0  0  0  0
    8.8162  -17.2850   28.2579 O   0  0  0  0  0  0  0  0  0  0  0  0
  2  3  1  0
  2  1  1  1
  3  4  1  0
  4  5  1  0
  5  6  1  0
  6  7  1  0
  8  2  1  0
  8  9  2  0
 10  8  1  0
 11 10  1  0
 11 17  1  0
 11 12  1  1
 13 12  1  0
 13 14  1  0
 15 14  1  0
 16 15  1  0
 17 23  1  0
 18 17  2  0
 20 21  1  1
 20 19  1  0
 20 22  1  0
 22 24  1  0
 22 23  1  6
 24 26  2  0
 24 25  1  0
M  END
$$$$
