KKV.pdb
     RDKit          3D

 26 25  0  0  1  0  0  0  0  0999 V2000
   10.9508  -19.2862   21.1200 N   0  0  0  0  0  0  0  0  0  0  0  0
   11.4651  -17.9732   21.3871 C   0  0  1  0  0  0  0  0  0  0  0  0
   11.5179  -17.0908   20.1518 C   0  0  0  0  0  0  0  0  0  0  0  0
   11.3902  -17.8241   18.8676 C   0  0  0  0  0  0  0  0  0  0  0  0
   10.7329  -17.1019   17.7464 C   0  0  0  0  0  0  0  0  0  0  0  0
   10.6938  -17.8931   16.4591 C   0  0  0  0  0  0  0  0  0  0  0  0
    9.9306  -17.1900   15.4311 N   0  0  0  0  0  0  0  0  0  0  0  0
   10.6150  -17.3334   22.4199 C   0  0  0  0  0  0  0  0  0  0  0  0
   10.4883  -16.0866   22.4246 O   0  0  0  0  0  0  0  0  0  0  0  0
    9.9405  -18.1037   23.4050 N   0  0  0  0  0  0  0  0  0  0  0  0
    9.0173  -17.4474   24.2771 C   0  0  1  0  0  0  0  0  0  0  0  0
    7.9543  -18.3911   24.7963 C   0  0  0  0  0  0  0  0  0  0  0  0
    6.8263  -18.4019   23.7862 C   0  0  0  0  0  0  0  0  0  0  0  0
    6.7897  -19.7941   23.1843 C   0  0  0  0  0  0  0  0  0  0  0  0
    5.7874  -19.8922   22.0512 C   0  0  0  0  0  0  0  0  0  0  0  0
    5.7551  -21.2328   21.4934 N   0  0  0  0  0  0  0  0  0  0  0  0
    9.7430  -16.7956   25.3826 C   0  0  0  0  0  0  0  0  0  0  0  0
   10.8999  -17.1665   25.6708 O   0  0  0  0  0  0  0  0  0  0  0  0
    8.8523  -12.9969   26.6474 C   0  0  0  0  0  0  0  0  0  0  0  0
    9.1961  -13.9469   27.7747 C   0  0  2  0  0  0  0  0  0  0  0  0
   10.0483  -13.2006   28.7782 C   0  0  0  0  0  0  0  0  0  0  0  0
    9.9463  -15.1545   27.2345 C   0  0  2  0  0  0  0  0  0  0  0  0
    9.1774  -15.7390   26.1568 N   0  0  0  0  0  0  0  0  0  0  0  0
   10.2073  -16.1465   28.3089 C   0  0  0  0  0  0  0  0  0  0  0  0
   11.3912  -16.1262   28.9998 O   0  0  0  0  0  0  0  0  0  0  0  0
    9.3645  -17.0277   28.6190 O   0  0  0  0  0  0  0  0  0  0  0  0
  2  3  1  0
  2  1  1  6
  3  4  1  0
  4  5  1  0
  5  6  1  0
  6  7  1  0
  8  2  1  0
  8  9  2  0
 10  8  1  0
 11 10  1  0
 11 17  1  0
 11 12  1  1
 13 12  1  0
 13 14  1  0
 15 14  1  0
 16 15  1  0
 17 23  1  0
 18 17  2  0
 20 21  1  1
 20 19  1  0
 20 22  1  0
 22 24  1  0
 22 23  1  6
 24 26  2  0
 24 25  1  0
M  END
$$$$
