KKV.pdb
     RDKit          3D

 26 25  0  0  1  0  0  0  0  0999 V2000
    5.0858  -18.7707   23.4229 N   0  0  0  0  0  0  0  0  0  0  0  0
    6.4100  -18.9018   23.9604 C   0  0  1  0  0  0  0  0  0  0  0  0
    7.0628  -20.2305   23.6202 C   0  0  0  0  0  0  0  0  0  0  0  0
    6.2567  -21.4220   23.9858 C   0  0  0  0  0  0  0  0  0  0  0  0
    6.8260  -22.3236   25.0220 C   0  0  0  0  0  0  0  0  0  0  0  0
    5.9563  -23.5228   25.3227 C   0  0  0  0  0  0  0  0  0  0  0  0
    6.5980  -24.4104   26.2891 N   0  0  0  0  0  0  0  0  0  0  0  0
    7.2433  -17.7904   23.4415 C   0  0  0  0  0  0  0  0  0  0  0  0
    8.4500  -17.7218   23.7723 O   0  0  0  0  0  0  0  0  0  0  0  0
    6.7027  -16.8011   22.5768 N   0  0  0  0  0  0  0  0  0  0  0  0
    7.4809  -15.6353   22.2952 C   0  0  1  0  0  0  0  0  0  0  0  0
    6.9446  -14.8651   21.1081 C   0  0  0  0  0  0  0  0  0  0  0  0
    7.9625  -13.7982   20.7636 C   0  0  0  0  0  0  0  0  0  0  0  0
    7.7857  -13.4825   19.2903 C   0  0  0  0  0  0  0  0  0  0  0  0
    8.7598  -12.4202   18.8206 C   0  0  0  0  0  0  0  0  0  0  0  0
    8.5659  -12.1150   17.4139 N   0  0  0  0  0  0  0  0  0  0  0  0
    7.5652  -14.7826   23.4949 C   0  0  0  0  0  0  0  0  0  0  0  0
    7.1612  -13.6020   23.4481 O   0  0  0  0  0  0  0  0  0  0  0  0
    7.6351  -12.4125   27.1483 C   0  0  0  0  0  0  0  0  0  0  0  0
    7.2527  -13.4861   26.1519 C   0  0  2  0  0  0  0  0  0  0  0  0
    6.2181  -14.3826   26.7971 C   0  0  0  0  0  0  0  0  0  0  0  0
    8.4784  -14.2922   25.7509 C   0  0  2  0  0  0  0  0  0  0  0  0
    8.0970  -15.2487   24.7342 N   0  0  0  0  0  0  0  0  0  0  0  0
    9.0816  -14.9692   26.9275 C   0  0  0  0  0  0  0  0  0  0  0  0
    9.6873  -14.2364   27.9151 O   0  0  0  0  0  0  0  0  0  0  0  0
    9.0588  -16.2204   27.0584 O   0  0  0  0  0  0  0  0  0  0  0  0
  2  3  1  0
  2  1  1  6
  3  4  1  0
  4  5  1  0
  5  6  1  0
  6  7  1  0
  8  2  1  0
  8  9  2  0
 10  8  1  0
 11 10  1  0
 11 17  1  0
 11 12  1  6
 13 12  1  0
 13 14  1  0
 15 14  1  0
 16 15  1  0
 17 23  1  0
 18 17  2  0
 20 21  1  1
 20 19  1  0
 20 22  1  0
 22 24  1  0
 22 23  1  6
 24 26  2  0
 24 25  1  0
M  END
$$$$
