KKV.pdb
     RDKit          3D

 26 25  0  0  1  0  0  0  0  0999 V2000
    7.8093  -16.2020   19.8159 N   0  0  0  0  0  0  0  0  0  0  0  0
    7.9155  -14.9949   20.5850 C   0  0  1  0  0  0  0  0  0  0  0  0
    7.0058  -13.8866   20.0838 C   0  0  0  0  0  0  0  0  0  0  0  0
    6.9652  -13.7465   18.6066 C   0  0  0  0  0  0  0  0  0  0  0  0
    8.2666  -13.8173   17.8910 C   0  0  0  0  0  0  0  0  0  0  0  0
    8.1546  -13.5544   16.4067 C   0  0  0  0  0  0  0  0  0  0  0  0
    9.4651  -13.5979   15.7632 N   0  0  0  0  0  0  0  0  0  0  0  0
    7.5907  -15.3045   21.9983 C   0  0  0  0  0  0  0  0  0  0  0  0
    7.1524  -14.3951   22.7408 O   0  0  0  0  0  0  0  0  0  0  0  0
    7.7657  -16.6108   22.5292 N   0  0  0  0  0  0  0  0  0  0  0  0
    7.3469  -16.8687   23.8716 C   0  0  1  0  0  0  0  0  0  0  0  0
    7.3800  -18.3443   24.2055 C   0  0  0  0  0  0  0  0  0  0  0  0
    6.2130  -18.9956   23.4936 C   0  0  0  0  0  0  0  0  0  0  0  0
    6.2659  -20.4748   23.8270 C   0  0  0  0  0  0  0  0  0  0  0  0
    5.1502  -21.2456   23.1493 C   0  0  0  0  0  0  0  0  0  0  0  0
    5.2322  -22.6636   23.4525 N   0  0  0  0  0  0  0  0  0  0  0  0
    8.1660  -16.0862   24.8151 C   0  0  0  0  0  0  0  0  0  0  0  0
    9.4087  -16.0705   24.6948 O   0  0  0  0  0  0  0  0  0  0  0  0
    7.1179  -12.5414   26.2884 C   0  0  0  0  0  0  0  0  0  0  0  0
    7.6729  -13.4345   27.3775 C   0  0  2  0  0  0  0  0  0  0  0  0
    8.5608  -12.5950   28.2703 C   0  0  0  0  0  0  0  0  0  0  0  0
    8.4650  -14.5796   26.7658 C   0  0  2  0  0  0  0  0  0  0  0  0
    7.5976  -15.3291   25.8827 N   0  0  0  0  0  0  0  0  0  0  0  0
    9.0440  -15.4521   27.8193 C   0  0  0  0  0  0  0  0  0  0  0  0
   10.2826  -15.1820   28.3412 O   0  0  0  0  0  0  0  0  0  0  0  0
    8.4283  -16.4552   28.2642 O   0  0  0  0  0  0  0  0  0  0  0  0
  2  3  1  0
  2  1  1  6
  3  4  1  0
  4  5  1  0
  5  6  1  0
  6  7  1  0
  8  2  1  0
  8  9  2  0
 10  8  1  0
 11 10  1  0
 11 17  1  0
 11 12  1  1
 13 12  1  0
 13 14  1  0
 15 14  1  0
 16 15  1  0
 17 23  1  0
 18 17  2  0
 20 21  1  1
 20 19  1  0
 20 22  1  0
 22 24  1  0
 22 23  1  6
 24 26  2  0
 24 25  1  0
M  END
$$$$
