LKS.pdb
     RDKit          3D

 24 23  0  0  1  0  0  0  0  0999 V2000
    5.7148  -12.5883   26.5181 C   0  0  0  0  0  0  0  0  0  0  0  0
    6.7567  -13.2749   27.3895 C   0  0  2  0  0  0  0  0  0  0  0  0
    7.7130  -12.2339   27.9756 C   0  0  0  0  0  0  0  0  0  0  0  0
    7.5642  -14.1691   26.5088 C   0  0  0  0  0  0  0  0  0  0  0  0
    6.7459  -15.1960   25.7833 C   0  0  2  0  0  0  0  0  0  0  0  0
    6.3984  -16.3303   26.5773 N   0  0  0  0  0  0  0  0  0  0  0  0
    7.4717  -15.5709   24.5352 C   0  0  0  0  0  0  0  0  0  0  0  0
    8.0983  -16.6587   24.4721 O   0  0  0  0  0  0  0  0  0  0  0  0
    7.4744  -14.7191   23.3975 N   0  0  0  0  0  0  0  0  0  0  0  0
    8.1596  -15.0660   22.1565 C   0  0  1  0  0  0  0  0  0  0  0  0
    7.8588  -14.0854   21.0783 C   0  0  0  0  0  0  0  0  0  0  0  0
    8.4870  -14.4380   19.7680 C   0  0  0  0  0  0  0  0  0  0  0  0
    7.9844  -13.5152   18.6796 C   0  0  0  0  0  0  0  0  0  0  0  0
    8.5111  -14.0347   17.3340 C   0  0  0  0  0  0  0  0  0  0  0  0
    7.9247  -13.3377   16.2320 N   0  0  0  0  0  0  0  0  0  0  0  0
    9.5923  -15.2089   22.4895 C   0  0  0  0  0  0  0  0  0  0  0  0
   10.1297  -14.3378   23.2130 O   0  0  0  0  0  0  0  0  0  0  0  0
   11.4374  -18.6662   22.5088 O   0  0  0  0  0  0  0  0  0  0  0  0
   12.1285  -17.6218   23.0931 C   0  0  0  0  0  0  0  0  0  0  0  0
   11.7993  -16.3318   22.3466 C   0  0  2  0  0  0  0  0  0  0  0  0
   10.3812  -16.2867   22.0261 N   0  0  0  0  0  0  0  0  0  0  0  0
   12.6136  -16.2711   21.1315 C   0  0  0  0  0  0  0  0  0  0  0  0
   12.1338  -16.2493   19.9691 O   0  0  0  0  0  0  0  0  0  0  0  0
   13.9970  -16.2346   21.2406 O   0  0  0  0  0  0  0  0  0  0  0  0
  2  1  1  6
  2  3  1  0
  4  2  1  0
  4  5  1  0
  5  7  1  0
  5  6  1  1
  7  8  2  0
  9 10  1  0
  9  7  1  0
 11 12  1  0
 10 11  1  6
 13 14  1  0
 13 12  1  0
 15 14  1  0
 16 17  2  0
 16 10  1  0
 18 19  1  0
 20 19  1  6
 20 22  1  0
 20 21  1  0
 21 16  1  0
 22 24  1  0
 23 22  2  0
M  END
$$$$
