LKS.pdb
     RDKit          3D

 24 23  0  0  1  0  0  0  0  0999 V2000
    6.2185  -12.4031   25.8008 C   0  0  0  0  0  0  0  0  0  0  0  0
    6.5816  -13.2351   27.0223 C   0  0  2  0  0  0  0  0  0  0  0  0
    7.5491  -12.4548   27.9150 C   0  0  0  0  0  0  0  0  0  0  0  0
    7.3054  -14.4493   26.5434 C   0  0  0  0  0  0  0  0  0  0  0  0
    6.5141  -15.2768   25.5740 C   0  0  2  0  0  0  0  0  0  0  0  0
    5.8339  -16.3808   26.1709 N   0  0  0  0  0  0  0  0  0  0  0  0
    7.4248  -15.6945   24.4688 C   0  0  0  0  0  0  0  0  0  0  0  0
    7.8780  -16.8664   24.4334 O   0  0  0  0  0  0  0  0  0  0  0  0
    7.8000  -14.7902   23.4386 N   0  0  0  0  0  0  0  0  0  0  0  0
    8.6571  -15.1798   22.3235 C   0  0  1  0  0  0  0  0  0  0  0  0
    8.6826  -14.1320   21.2670 C   0  0  0  0  0  0  0  0  0  0  0  0
    8.0310  -14.5636   19.9922 C   0  0  0  0  0  0  0  0  0  0  0  0
    8.4729  -13.6754   18.8499 C   0  0  0  0  0  0  0  0  0  0  0  0
    7.7327  -14.1263   17.5824 C   0  0  0  0  0  0  0  0  0  0  0  0
    8.1061  -13.3438   16.4455 N   0  0  0  0  0  0  0  0  0  0  0  0
    9.9750  -15.5180   22.9003 C   0  0  0  0  0  0  0  0  0  0  0  0
   10.4510  -14.7712   23.7873 O   0  0  0  0  0  0  0  0  0  0  0  0
   13.5517  -18.5663   23.7473 O   0  0  0  0  0  0  0  0  0  0  0  0
   12.2689  -18.3720   23.2712 C   0  0  0  0  0  0  0  0  0  0  0  0
   12.0435  -16.8783   23.0525 C   0  0  2  0  0  0  0  0  0  0  0  0
   10.7206  -16.6481   22.4933 N   0  0  0  0  0  0  0  0  0  0  0  0
   13.0860  -16.3717   22.1584 C   0  0  0  0  0  0  0  0  0  0  0  0
   12.8598  -15.9196   21.0067 O   0  0  0  0  0  0  0  0  0  0  0  0
   14.4082  -16.3794   22.5814 O   0  0  0  0  0  0  0  0  0  0  0  0
  2  1  1  6
  2  3  1  0
  4  2  1  0
  4  5  1  0
  5  7  1  0
  5  6  1  1
  7  8  2  0
  9 10  1  0
  9  7  1  0
 11 12  1  0
 10 11  1  6
 13 14  1  0
 13 12  1  0
 15 14  1  0
 16 17  2  0
 16 10  1  0
 18 19  1  0
 20 19  1  6
 20 22  1  0
 20 21  1  0
 21 16  1  0
 22 24  1  0
 23 22  2  0
M  END
$$$$
