LKS.pdb
     RDKit          3D

 24 23  0  0  1  0  0  0  0  0999 V2000
   59.5569    2.9156   26.4778 C   0  0  0  0  0  0  0  0  0  0  0  0
   60.9585    3.5071   26.5211 C   0  0  2  0  0  0  0  0  0  0  0  0
   61.2271    4.3040   25.2426 C   0  0  0  0  0  0  0  0  0  0  0  0
   61.9274    2.3722   26.5451 C   0  0  0  0  0  0  0  0  0  0  0  0
   62.0625    1.7262   27.8923 C   0  0  2  0  0  0  0  0  0  0  0  0
   62.8292    2.4848   28.8274 N   0  0  0  0  0  0  0  0  0  0  0  0
   62.5995    0.3486   27.6949 C   0  0  0  0  0  0  0  0  0  0  0  0
   61.8468   -0.6483   27.8348 O   0  0  0  0  0  0  0  0  0  0  0  0
   63.9599    0.1284   27.3475 N   0  0  0  0  0  0  0  0  0  0  0  0
   65.0544    0.3193   28.2939 C   0  0  1  0  0  0  0  0  0  0  0  0
   66.2551   -0.4671   27.9006 C   0  0  0  0  0  0  0  0  0  0  0  0
   67.1263    0.2406   26.9127 C   0  0  0  0  0  0  0  0  0  0  0  0
   67.9479    1.3054   27.6055 C   0  0  0  0  0  0  0  0  0  0  0  0
   69.3163    1.3770   26.9125 C   0  0  0  0  0  0  0  0  0  0  0  0
   69.2856    2.2346   25.7689 N   0  0  0  0  0  0  0  0  0  0  0  0
   65.2703    1.7772   28.4033 C   0  0  0  0  0  0  0  0  0  0  0  0
   64.9712    2.3488   29.4780 O   0  0  0  0  0  0  0  0  0  0  0  0
   64.5724    1.1767   25.2860 O   0  0  0  0  0  0  0  0  0  0  0  0
   65.7653    1.8200   25.0154 C   0  0  0  0  0  0  0  0  0  0  0  0
   66.5815    1.9102   26.3021 C   0  0  2  0  0  0  0  0  0  0  0  0
   65.7999    2.5531   27.3468 N   0  0  0  0  0  0  0  0  0  0  0  0
   67.8086    2.6601   26.0286 C   0  0  0  0  0  0  0  0  0  0  0  0
   68.7929    2.6987   26.8106 O   0  0  0  0  0  0  0  0  0  0  0  0
   67.9179    3.3783   24.8456 O   0  0  0  0  0  0  0  0  0  0  0  0
  2  1  1  6
  2  3  1  0
  4  2  1  0
  4  5  1  0
  5  7  1  0
  5  6  1  1
  7  8  2  0
  9 10  1  0
  9  7  1  0
 11 12  1  0
 10 11  1  6
 13 14  1  0
 13 12  1  0
 15 14  1  0
 16 17  2  0
 16 10  1  0
 18 19  1  0
 20 19  1  6
 20 22  1  0
 20 21  1  0
 21 16  1  0
 22 24  1  0
 23 22  2  0
M  END
$$$$
