LKS.pdb
     RDKit          3D

 24 23  0  0  1  0  0  0  0  0999 V2000
    5.7296  -12.6601   25.3655 C   0  0  0  0  0  0  0  0  0  0  0  0
    6.3664  -13.1491   26.6584 C   0  0  2  0  0  0  0  0  0  0  0  0
    7.2236  -12.0383   27.2693 C   0  0  0  0  0  0  0  0  0  0  0  0
    7.2838  -14.2745   26.3129 C   0  0  0  0  0  0  0  0  0  0  0  0
    6.5998  -15.4158   25.6200 C   0  0  2  0  0  0  0  0  0  0  0  0
    6.0552  -16.3928   26.5068 N   0  0  0  0  0  0  0  0  0  0  0  0
    7.5568  -16.0034   24.6380 C   0  0  0  0  0  0  0  0  0  0  0  0
    8.3265  -16.9341   24.9865 O   0  0  0  0  0  0  0  0  0  0  0  0
    7.6234  -15.5329   23.2986 N   0  0  0  0  0  0  0  0  0  0  0  0
    8.3999  -16.2098   22.2647 C   0  0  1  0  0  0  0  0  0  0  0  0
    8.1664  -15.6027   20.9262 C   0  0  0  0  0  0  0  0  0  0  0  0
    8.9654  -16.2468   19.8387 C   0  0  0  0  0  0  0  0  0  0  0  0
    8.3294  -15.9807   18.4920 C   0  0  0  0  0  0  0  0  0  0  0  0
    9.1355  -16.7380   17.4268 C   0  0  0  0  0  0  0  0  0  0  0  0
    8.6944  -16.4197   16.1046 N   0  0  0  0  0  0  0  0  0  0  0  0
    9.8064  -16.2018   22.7179 C   0  0  0  0  0  0  0  0  0  0  0  0
   10.3489  -15.1005   22.9707 O   0  0  0  0  0  0  0  0  0  0  0  0
   11.6588  -19.5483   23.9148 O   0  0  0  0  0  0  0  0  0  0  0  0
   12.3080  -18.3815   24.2712 C   0  0  0  0  0  0  0  0  0  0  0  0
   11.9671  -17.2954   23.2544 C   0  0  2  0  0  0  0  0  0  0  0  0
   10.5648  -17.3842   22.8782 N   0  0  0  0  0  0  0  0  0  0  0  0
   12.8346  -17.4562   22.0863 C   0  0  0  0  0  0  0  0  0  0  0  0
   12.4095  -17.7071   20.9295 O   0  0  0  0  0  0  0  0  0  0  0  0
   14.2088  -17.3295   22.2366 O   0  0  0  0  0  0  0  0  0  0  0  0
  2  1  1  6
  2  3  1  0
  4  2  1  0
  4  5  1  0
  5  7  1  0
  5  6  1  1
  7  8  2  0
  9 10  1  0
  9  7  1  0
 11 12  1  0
 10 11  1  6
 13 14  1  0
 13 12  1  0
 15 14  1  0
 16 17  2  0
 16 10  1  0
 18 19  1  0
 20 19  1  1
 20 22  1  0
 20 21  1  0
 21 16  1  0
 22 24  1  0
 23 22  2  0
M  END
$$$$
