LKS.pdb
     RDKit          3D

 24 23  0  0  1  0  0  0  0  0999 V2000
    9.2938  -12.9211   19.4233 C   0  0  0  0  0  0  0  0  0  0  0  0
    7.8760  -13.4725   19.3764 C   0  0  2  0  0  0  0  0  0  0  0  0
    6.8949  -12.3562   19.0116 C   0  0  0  0  0  0  0  0  0  0  0  0
    7.5255  -13.9358   20.7512 C   0  0  0  0  0  0  0  0  0  0  0  0
    8.4515  -14.9888   21.2844 C   0  0  2  0  0  0  0  0  0  0  0  0
    8.4836  -16.1844   20.5052 N   0  0  0  0  0  0  0  0  0  0  0  0
    8.0933  -15.2433   22.7100 C   0  0  0  0  0  0  0  0  0  0  0  0
    7.7018  -14.2985   23.4407 O   0  0  0  0  0  0  0  0  0  0  0  0
    8.1836  -16.5448   23.2736 N   0  0  0  0  0  0  0  0  0  0  0  0
    7.8860  -16.8172   24.6762 C   0  0  1  0  0  0  0  0  0  0  0  0
    7.6531  -18.2684   24.9095 C   0  0  0  0  0  0  0  0  0  0  0  0
    7.4300  -18.6062   26.3490 C   0  0  0  0  0  0  0  0  0  0  0  0
    7.1641  -20.0873   26.5055 C   0  0  0  0  0  0  0  0  0  0  0  0
    6.8397  -20.3594   27.9815 C   0  0  0  0  0  0  0  0  0  0  0  0
    6.6596  -21.7550   28.2347 N   0  0  0  0  0  0  0  0  0  0  0  0
    8.9868  -16.2259   25.4653 C   0  0  0  0  0  0  0  0  0  0  0  0
   10.1661  -16.5378   25.1771 O   0  0  0  0  0  0  0  0  0  0  0  0
    8.2785  -13.1628   27.8932 O   0  0  0  0  0  0  0  0  0  0  0  0
    9.6242  -13.3085   27.6146 C   0  0  0  0  0  0  0  0  0  0  0  0
    9.8989  -14.7651   27.2502 C   0  0  2  0  0  0  0  0  0  0  0  0
    8.7648  -15.3238   26.5310 N   0  0  0  0  0  0  0  0  0  0  0  0
   10.1615  -15.5155   28.4794 C   0  0  0  0  0  0  0  0  0  0  0  0
    9.5406  -16.5590   28.8073 O   0  0  0  0  0  0  0  0  0  0  0  0
   11.1472  -15.0716   29.3504 O   0  0  0  0  0  0  0  0  0  0  0  0
  2  1  1  1
  2  3  1  0
  4  2  1  0
  4  5  1  0
  5  7  1  0
  5  6  1  6
  7  8  2  0
  9 10  1  0
  9  7  1  0
 11 12  1  0
 10 11  1  6
 13 14  1  0
 13 12  1  0
 15 14  1  0
 16 17  2  0
 16 10  1  0
 18 19  1  0
 20 19  1  1
 20 22  1  0
 20 21  1  0
 21 16  1  0
 22 24  1  0
 23 22  2  0
M  END
$$$$
