LKS.pdb
     RDKit          3D

 24 23  0  0  1  0  0  0  0  0999 V2000
    9.5517  -12.5043   19.4569 C   0  0  0  0  0  0  0  0  0  0  0  0
    8.3200  -13.3973   19.4171 C   0  0  2  0  0  0  0  0  0  0  0  0
    7.0589  -12.5397   19.2906 C   0  0  0  0  0  0  0  0  0  0  0  0
    8.2377  -14.1123   20.7245 C   0  0  0  0  0  0  0  0  0  0  0  0
    9.4784  -14.8832   21.0666 C   0  0  2  0  0  0  0  0  0  0  0  0
    9.8442  -15.8598   20.0919 N   0  0  0  0  0  0  0  0  0  0  0  0
    9.3004  -15.4697   22.4266 C   0  0  0  0  0  0  0  0  0  0  0  0
    8.4411  -14.9944   23.2113 O   0  0  0  0  0  0  0  0  0  0  0  0
   10.0876  -16.5681   22.8666 N   0  0  0  0  0  0  0  0  0  0  0  0
    9.9593  -17.1432   24.2018 C   0  0  1  0  0  0  0  0  0  0  0  0
   10.5328  -18.5152   24.2591 C   0  0  0  0  0  0  0  0  0  0  0  0
    9.7068  -19.5306   23.5362 C   0  0  0  0  0  0  0  0  0  0  0  0
   10.4154  -20.8671   23.5178 C   0  0  0  0  0  0  0  0  0  0  0  0
    9.5111  -21.8756   22.7947 C   0  0  0  0  0  0  0  0  0  0  0  0
   10.0992  -23.1782   22.7532 N   0  0  0  0  0  0  0  0  0  0  0  0
   10.5626  -16.1739   25.1401 C   0  0  0  0  0  0  0  0  0  0  0  0
   11.7645  -15.8551   24.9827 O   0  0  0  0  0  0  0  0  0  0  0  0
    8.3788  -13.8978   27.6713 O   0  0  0  0  0  0  0  0  0  0  0  0
    9.6915  -13.5103   27.4799 C   0  0  0  0  0  0  0  0  0  0  0  0
   10.5315  -14.7460   27.1680 C   0  0  2  0  0  0  0  0  0  0  0  0
    9.8406  -15.5916   26.2071 N   0  0  0  0  0  0  0  0  0  0  0  0
   10.7853  -15.4688   28.4154 C   0  0  0  0  0  0  0  0  0  0  0  0
   11.3401  -14.9549   29.4204 O   0  0  0  0  0  0  0  0  0  0  0  0
   10.4016  -16.7987   28.5215 O   0  0  0  0  0  0  0  0  0  0  0  0
  2  1  1  1
  2  3  1  0
  4  2  1  0
  4  5  1  0
  5  7  1  0
  5  6  1  6
  7  8  2  0
  9 10  1  0
  9  7  1  0
 11 12  1  0
 10 11  1  6
 13 14  1  0
 13 12  1  0
 15 14  1  0
 16 17  2  0
 16 10  1  0
 18 19  1  0
 20 19  1  1
 20 22  1  0
 20 21  1  0
 21 16  1  0
 22 24  1  0
 23 22  2  0
M  END
$$$$
