LKS.pdb
     RDKit          3D

 24 23  0  0  1  0  0  0  0  0999 V2000
    9.1508  -14.4138   19.4877 C   0  0  0  0  0  0  0  0  0  0  0  0
    7.8857  -13.6365   19.8218 C   0  0  2  0  0  0  0  0  0  0  0  0
    8.1819  -12.1352   19.8231 C   0  0  0  0  0  0  0  0  0  0  0  0
    7.4807  -14.0073   21.2096 C   0  0  0  0  0  0  0  0  0  0  0  0
    7.0830  -15.4465   21.3550 C   0  0  2  0  0  0  0  0  0  0  0  0
    5.9137  -15.8044   20.6185 N   0  0  0  0  0  0  0  0  0  0  0  0
    6.9583  -15.7490   22.8104 C   0  0  0  0  0  0  0  0  0  0  0  0
    6.0316  -15.2333   23.4850 O   0  0  0  0  0  0  0  0  0  0  0  0
    7.8726  -16.6177   23.4656 N   0  0  0  0  0  0  0  0  0  0  0  0
    7.7846  -16.9230   24.8901 C   0  0  1  0  0  0  0  0  0  0  0  0
    7.6918  -18.3894   25.1259 C   0  0  0  0  0  0  0  0  0  0  0  0
    7.6709  -18.7536   26.5761 C   0  0  0  0  0  0  0  0  0  0  0  0
    7.7052  -20.2572   26.7402 C   0  0  0  0  0  0  0  0  0  0  0  0
    7.7273  -20.5717   28.2430 C   0  0  0  0  0  0  0  0  0  0  0  0
    7.7036  -21.9800   28.4889 N   0  0  0  0  0  0  0  0  0  0  0  0
    8.9341  -16.2572   25.5376 C   0  0  0  0  0  0  0  0  0  0  0  0
   10.0596  -16.3382   24.9918 O   0  0  0  0  0  0  0  0  0  0  0  0
    8.4648  -13.3569   28.2148 O   0  0  0  0  0  0  0  0  0  0  0  0
    9.7358  -13.4719   27.6846 C   0  0  0  0  0  0  0  0  0  0  0  0
   10.0000  -14.9367   27.3466 C   0  0  2  0  0  0  0  0  0  0  0  0
    8.8170  -15.5333   26.7464 N   0  0  0  0  0  0  0  0  0  0  0  0
   10.3778  -15.6413   28.5729 C   0  0  0  0  0  0  0  0  0  0  0  0
    9.7787  -16.6582   29.0074 O   0  0  0  0  0  0  0  0  0  0  0  0
   11.4552  -15.1812   29.3177 O   0  0  0  0  0  0  0  0  0  0  0  0
  2  1  1  1
  2  3  1  0
  4  2  1  0
  4  5  1  0
  5  7  1  0
  5  6  1  6
  7  8  2  0
  9 10  1  0
  9  7  1  0
 11 12  1  0
 10 11  1  6
 13 14  1  0
 13 12  1  0
 15 14  1  0
 16 17  2  0
 16 10  1  0
 18 19  1  0
 20 19  1  1
 20 22  1  0
 20 21  1  0
 21 16  1  0
 22 24  1  0
 23 22  2  0
M  END
$$$$
