LKS.pdb
     RDKit          3D

 24 23  0  0  1  0  0  0  0  0999 V2000
    9.2746  -13.0861   19.3995 C   0  0  0  0  0  0  0  0  0  0  0  0
    7.8210  -13.5177   19.5299 C   0  0  2  0  0  0  0  0  0  0  0  0
    6.8975  -12.3411   19.2065 C   0  0  0  0  0  0  0  0  0  0  0  0
    7.5846  -13.8844   20.9571 C   0  0  0  0  0  0  0  0  0  0  0  0
    8.4133  -15.0445   21.4243 C   0  0  2  0  0  0  0  0  0  0  0  0
    8.2848  -16.2143   20.6164 N   0  0  0  0  0  0  0  0  0  0  0  0
    8.0886  -15.2995   22.8577 C   0  0  0  0  0  0  0  0  0  0  0  0
    7.8947  -14.3365   23.6419 O   0  0  0  0  0  0  0  0  0  0  0  0
    7.9908  -16.6218   23.3694 N   0  0  0  0  0  0  0  0  0  0  0  0
    7.7329  -16.9033   24.7781 C   0  0  1  0  0  0  0  0  0  0  0  0
    7.3955  -18.3368   24.9920 C   0  0  0  0  0  0  0  0  0  0  0  0
    7.2946  -18.7100   26.4364 C   0  0  0  0  0  0  0  0  0  0  0  0
    6.9637  -20.1796   26.5770 C   0  0  0  0  0  0  0  0  0  0  0  0
    6.9010  -20.5123   28.0748 C   0  0  0  0  0  0  0  0  0  0  0  0
    6.5448  -21.8788   28.2983 N   0  0  0  0  0  0  0  0  0  0  0  0
    8.9100  -16.4193   25.5291 C   0  0  0  0  0  0  0  0  0  0  0  0
   10.0524  -16.6527   25.0691 O   0  0  0  0  0  0  0  0  0  0  0  0
    8.6937  -13.4471   28.1882 O   0  0  0  0  0  0  0  0  0  0  0  0
    9.9455  -13.7667   27.6975 C   0  0  0  0  0  0  0  0  0  0  0  0
   10.0049  -15.2691   27.4344 C   0  0  2  0  0  0  0  0  0  0  0  0
    8.8010  -15.7045   26.7439 N   0  0  0  0  0  0  0  0  0  0  0  0
   10.1561  -15.9646   28.7136 C   0  0  0  0  0  0  0  0  0  0  0  0
    9.3921  -16.8844   29.1036 O   0  0  0  0  0  0  0  0  0  0  0  0
   11.1941  -15.6078   29.5637 O   0  0  0  0  0  0  0  0  0  0  0  0
  2  1  1  1
  2  3  1  0
  4  2  1  0
  4  5  1  0
  5  7  1  0
  5  6  1  6
  7  8  2  0
  9 10  1  0
  9  7  1  0
 11 12  1  0
 10 11  1  6
 13 14  1  0
 13 12  1  0
 15 14  1  0
 16 17  2  0
 16 10  1  0
 18 19  1  0
 20 19  1  1
 20 22  1  0
 20 21  1  0
 21 16  1  0
 22 24  1  0
 23 22  2  0
M  END
$$$$
