LKS.pdb
     RDKit          3D

 24 23  0  0  1  0  0  0  0  0999 V2000
    5.7607  -12.4772   26.2513 C   0  0  0  0  0  0  0  0  0  0  0  0
    6.8182  -13.1662   27.1017 C   0  0  2  0  0  0  0  0  0  0  0  0
    7.8681  -12.1483   27.5527 C   0  0  0  0  0  0  0  0  0  0  0  0
    7.5141  -14.1638   26.2369 C   0  0  0  0  0  0  0  0  0  0  0  0
    6.5785  -15.0729   25.4962 C   0  0  2  0  0  0  0  0  0  0  0  0
    6.0688  -16.1495   26.2829 N   0  0  0  0  0  0  0  0  0  0  0  0
    7.2692  -15.5432   24.2605 C   0  0  0  0  0  0  0  0  0  0  0  0
    7.7858  -16.6885   24.2233 O   0  0  0  0  0  0  0  0  0  0  0  0
    7.3610  -14.7193   23.1061 N   0  0  0  0  0  0  0  0  0  0  0  0
    8.0380  -15.1471   21.8860 C   0  0  1  0  0  0  0  0  0  0  0  0
    7.8938  -14.1369   20.8028 C   0  0  0  0  0  0  0  0  0  0  0  0
    8.6641  -14.4814   19.5683 C   0  0  0  0  0  0  0  0  0  0  0  0
    8.0601  -13.7937   18.3637 C   0  0  0  0  0  0  0  0  0  0  0  0
    8.9068  -14.1554   17.1348 C   0  0  0  0  0  0  0  0  0  0  0  0
    8.5348  -13.3830   15.9905 N   0  0  0  0  0  0  0  0  0  0  0  0
    9.4311  -15.4642   22.2636 C   0  0  0  0  0  0  0  0  0  0  0  0
   10.0508  -14.6607   22.9994 O   0  0  0  0  0  0  0  0  0  0  0  0
   10.9584  -19.0993   22.2612 O   0  0  0  0  0  0  0  0  0  0  0  0
   11.7574  -18.1230   22.8256 C   0  0  0  0  0  0  0  0  0  0  0  0
   11.5127  -16.8028   22.0995 C   0  0  2  0  0  0  0  0  0  0  0  0
   10.0933  -16.6355   21.8295 N   0  0  0  0  0  0  0  0  0  0  0  0
   12.2868  -16.7994   20.8570 C   0  0  0  0  0  0  0  0  0  0  0  0
   11.7748  -16.6734   19.7151 O   0  0  0  0  0  0  0  0  0  0  0  0
   13.6665  -16.9416   20.9143 O   0  0  0  0  0  0  0  0  0  0  0  0
  2  1  1  6
  2  3  1  0
  4  2  1  0
  4  5  1  0
  5  7  1  0
  5  6  1  1
  7  8  2  0
  9 10  1  0
  9  7  1  0
 11 12  1  0
 10 11  1  6
 13 14  1  0
 13 12  1  0
 15 14  1  0
 16 17  2  0
 16 10  1  0
 18 19  1  0
 20 19  1  6
 20 22  1  0
 20 21  1  0
 21 16  1  0
 22 24  1  0
 23 22  2  0
M  END
$$$$
