LKS.pdb
     RDKit          3D

 24 23  0  0  1  0  0  0  0  0999 V2000
    7.3896  -12.4991   21.0630 C   0  0  0  0  0  0  0  0  0  0  0  0
    8.0100  -13.5764   20.1851 C   0  0  2  0  0  0  0  0  0  0  0  0
    8.6351  -12.9391   18.9422 C   0  0  0  0  0  0  0  0  0  0  0  0
    6.9083  -14.4678   19.7168 C   0  0  0  0  0  0  0  0  0  0  0  0
    7.3863  -15.6456   18.9201 C   0  0  2  0  0  0  0  0  0  0  0  0
    6.3364  -16.4570   18.3939 N   0  0  0  0  0  0  0  0  0  0  0  0
    8.3410  -16.4207   19.7646 C   0  0  0  0  0  0  0  0  0  0  0  0
    7.9432  -16.9754   20.8200 O   0  0  0  0  0  0  0  0  0  0  0  0
    9.7093  -16.5513   19.4033 N   0  0  0  0  0  0  0  0  0  0  0  0
   10.6269  -17.4426   20.1059 C   0  0  1  0  0  0  0  0  0  0  0  0
   11.4830  -18.2005   19.1533 C   0  0  0  0  0  0  0  0  0  0  0  0
   10.8344  -19.4461   18.6397 C   0  0  0  0  0  0  0  0  0  0  0  0
   11.7743  -20.1827   17.7108 C   0  0  0  0  0  0  0  0  0  0  0  0
   10.9351  -20.8312   16.6004 C   0  0  0  0  0  0  0  0  0  0  0  0
   11.7427  -21.6082   15.7126 N   0  0  0  0  0  0  0  0  0  0  0  0
   11.3621  -16.6105   21.0811 C   0  0  0  0  0  0  0  0  0  0  0  0
   12.1749  -15.7589   20.6506 O   0  0  0  0  0  0  0  0  0  0  0  0
   10.7249  -16.9624   25.0867 O   0  0  0  0  0  0  0  0  0  0  0  0
   11.3644  -15.7915   24.7261 C   0  0  0  0  0  0  0  0  0  0  0  0
   12.0577  -16.0003   23.3824 C   0  0  2  0  0  0  0  0  0  0  0  0
   11.1868  -16.7352   22.4784 N   0  0  0  0  0  0  0  0  0  0  0  0
   13.3103  -16.7238   23.6073 C   0  0  0  0  0  0  0  0  0  0  0  0
   13.5063  -17.9117   23.2433 O   0  0  0  0  0  0  0  0  0  0  0  0
   14.3578  -16.0853   24.2572 O   0  0  0  0  0  0  0  0  0  0  0  0
  2  1  1  1
  2  3  1  0
  4  2  1  0
  4  5  1  0
  5  7  1  0
  5  6  1  1
  7  8  2  0
  9 10  1  0
  9  7  1  0
 11 12  1  0
 10 11  1  6
 13 14  1  0
 13 12  1  0
 15 14  1  0
 16 17  2  0
 16 10  1  0
 18 19  1  0
 20 19  1  1
 20 22  1  0
 20 21  1  0
 21 16  1  0
 22 24  1  0
 23 22  2  0
M  END
$$$$
