WFI.pdb
     RDKit          3D

 34 36  0  0  1  0  0  0  0  0999 V2000
   18.1423  -28.0527  -10.0164 N   0  0  0  0  0  0  0  0  0  0  0  0
   19.0361  -28.2496   -8.9214 C   0  0  1  0  0  0  0  0  0  0  0  0
   20.4586  -27.8272   -9.1599 C   0  0  0  0  0  0  0  0  0  0  0  0
   21.1472  -28.8056  -10.0000 C   0  0  0  0  0  0  0  0  0  0  0  0
   21.2933  -28.6768  -11.3630 C   0  0  0  0  0  0  0  0  0  0  0  0
   22.0007  -29.7328  -11.7759 N   0  0  0  0  0  0  0  0  0  0  0  0
   22.3145  -30.5300  -10.7463 C   0  0  0  0  0  0  0  0  0  0  0  0
   23.0192  -31.7296  -10.6654 C   0  0  0  0  0  0  0  0  0  0  0  0
   23.1678  -32.3317   -9.4171 C   0  0  0  0  0  0  0  0  0  0  0  0
   22.6300  -31.7489   -8.3022 C   0  0  0  0  0  0  0  0  0  0  0  0
   21.9380  -30.5773   -8.3598 C   0  0  0  0  0  0  0  0  0  0  0  0
   21.7781  -29.9568   -9.6027 C   0  0  0  0  0  0  0  0  0  0  0  0
   18.5175  -27.4577   -7.7494 C   0  0  0  0  0  0  0  0  0  0  0  0
   18.6587  -26.1987   -7.7021 O   0  0  0  0  0  0  0  0  0  0  0  0
   17.8584  -28.1099   -6.6762 N   0  0  0  0  0  0  0  0  0  0  0  0
   17.4966  -27.4212   -5.4645 C   0  0  1  0  0  0  0  0  0  0  0  0
   16.0925  -26.9504   -5.4377 C   0  0  0  0  0  0  0  0  0  0  0  0
   15.7109  -25.9597   -6.4491 C   0  0  0  0  0  0  0  0  0  0  0  0
   15.9569  -24.6155   -6.4024 C   0  0  0  0  0  0  0  0  0  0  0  0
   15.5672  -23.7033   -7.3568 C   0  0  0  0  0  0  0  0  0  0  0  0
   14.8675  -24.1420   -8.4659 C   0  0  0  0  0  0  0  0  0  0  0  0
   14.5997  -25.4865   -8.5533 C   0  0  0  0  0  0  0  0  0  0  0  0
   14.9959  -26.3884   -7.5918 C   0  0  0  0  0  0  0  0  0  0  0  0
   17.8794  -28.2672   -4.2773 C   0  0  0  0  0  0  0  0  0  0  0  0
   17.8830  -29.5187   -4.3818 O   0  0  0  0  0  0  0  0  0  0  0  0
   21.6114  -27.2004    0.4311 C   0  0  0  0  0  0  0  0  0  0  0  0
   20.2479  -27.8081    0.1080 C   0  0  0  0  0  0  0  0  0  0  0  0
   19.8752  -27.5802   -1.3223 C   0  0  2  0  0  0  0  0  0  0  0  0
   20.0170  -26.0950   -1.6387 C   0  0  0  0  0  0  0  0  0  0  0  0
   18.5831  -28.1622   -1.7924 C   0  0  2  0  0  0  0  0  0  0  0  0
   18.2213  -27.6521   -3.0923 N   0  0  0  0  0  0  0  0  0  0  0  0
   17.5589  -28.1790   -0.7529 C   0  0  0  0  0  0  0  0  0  0  0  0
   16.4827  -27.2708   -0.9859 O   0  0  0  0  0  0  0  0  0  0  0  0
   17.4377  -28.8204    0.2955 O   0  0  0  0  0  0  0  0  0  0  0  0
  2  1  1  6
  3  2  1  0
  4  3  1  0
  5  4  2  0
  6  5  1  0
  7  6  1  0
  7 12  2  0
  8  7  1  0
  9  8  2  0
  9 10  1  0
 10 11  2  0
 11 12  1  0
 12  4  1  0
 13 14  2  0
 13  2  1  0
 15 13  1  0
 16 15  1  0
 17 18  1  0
 16 17  1  6
 18 23  1  0
 19 18  2  0
 19 20  1  0
 20 21  2  0
 21 22  1  0
 23 22  2  0
 24 16  1  0
 25 24  2  0
 26 27  1  0
 27 28  1  0
 28 29  1  1
 28 30  1  0
 30 31  1  6
 30 32  1  0
 31 24  1  0
 32 33  1  0
 34 32  2  0
M  END
$$$$
