WFI.pdb
     RDKit          3D

 34 36  0  0  1  0  0  0  0  0999 V2000
   27.3103  -21.0269  -15.8858 N   0  0  0  0  0  0  0  0  0  0  0  0
   26.1773  -20.3564  -15.3351 C   0  0  1  0  0  0  0  0  0  0  0  0
   24.9029  -20.4804  -16.1221 C   0  0  0  0  0  0  0  0  0  0  0  0
   24.9682  -19.6610  -17.3311 C   0  0  0  0  0  0  0  0  0  0  0  0
   25.3694  -20.1378  -18.5588 C   0  0  0  0  0  0  0  0  0  0  0  0
   25.2653  -19.1209  -19.4196 N   0  0  0  0  0  0  0  0  0  0  0  0
   24.8176  -18.0183  -18.8048 C   0  0  0  0  0  0  0  0  0  0  0  0
   24.5553  -16.7275  -19.2601 C   0  0  0  0  0  0  0  0  0  0  0  0
   24.0972  -15.7796  -18.3467 C   0  0  0  0  0  0  0  0  0  0  0  0
   23.9121  -16.1197  -17.0345 C   0  0  0  0  0  0  0  0  0  0  0  0
   24.1626  -17.3750  -16.5695 C   0  0  0  0  0  0  0  0  0  0  0  0
   24.6224  -18.3411  -17.4699 C   0  0  0  0  0  0  0  0  0  0  0  0
   25.9215  -20.9249  -13.9637 C   0  0  0  0  0  0  0  0  0  0  0  0
   25.7383  -22.1686  -13.7994 O   0  0  0  0  0  0  0  0  0  0  0  0
   25.8830  -20.0752  -12.8288 N   0  0  0  0  0  0  0  0  0  0  0  0
   25.5484  -20.5618  -11.5155 C   0  0  1  0  0  0  0  0  0  0  0  0
   26.4787  -20.1133  -10.4538 C   0  0  0  0  0  0  0  0  0  0  0  0
   27.8561  -20.6101  -10.5323 C   0  0  0  0  0  0  0  0  0  0  0  0
   28.4057  -21.6032   -9.7700 C   0  0  0  0  0  0  0  0  0  0  0  0
   29.7102  -22.0354   -9.8494 C   0  0  0  0  0  0  0  0  0  0  0  0
   30.5652  -21.4417  -10.7597 C   0  0  0  0  0  0  0  0  0  0  0  0
   30.0532  -20.4394  -11.5472 C   0  0  0  0  0  0  0  0  0  0  0  0
   28.7460  -20.0170  -11.4581 C   0  0  0  0  0  0  0  0  0  0  0  0
   24.1004  -20.2593  -11.2261 C   0  0  0  0  0  0  0  0  0  0  0  0
   23.6162  -19.1531  -11.5709 O   0  0  0  0  0  0  0  0  0  0  0  0
   20.5355  -21.5048  -13.8749 C   0  0  0  0  0  0  0  0  0  0  0  0
   21.3218  -20.8968  -12.7151 C   0  0  0  0  0  0  0  0  0  0  0  0
   21.1125  -21.6686  -11.4514 C   0  0  2  0  0  0  0  0  0  0  0  0
   19.6171  -21.7444  -11.1613 C   0  0  0  0  0  0  0  0  0  0  0  0
   21.9236  -21.2674  -10.2638 C   0  0  2  0  0  0  0  0  0  0  0  0
   23.3283  -21.2046  -10.5863 N   0  0  0  0  0  0  0  0  0  0  0  0
   21.5301  -21.9697   -9.0466 C   0  0  0  0  0  0  0  0  0  0  0  0
   20.1777  -21.7356   -8.6547 O   0  0  0  0  0  0  0  0  0  0  0  0
   22.1360  -22.7256   -8.2807 O   0  0  0  0  0  0  0  0  0  0  0  0
  2  1  1  6
  3  2  1  0
  4  3  1  0
  5  4  2  0
  6  5  1  0
  7  6  1  0
  7 12  2  0
  8  7  1  0
  9  8  2  0
  9 10  1  0
 10 11  2  0
 11 12  1  0
 12  4  1  0
 13 14  2  0
 13  2  1  0
 15 13  1  0
 16 15  1  0
 17 18  1  0
 16 17  1  1
 18 23  1  0
 19 18  2  0
 19 20  1  0
 20 21  2  0
 21 22  1  0
 23 22  2  0
 24 16  1  0
 25 24  2  0
 26 27  1  0
 27 28  1  0
 28 29  1  1
 28 30  1  0
 30 31  1  6
 30 32  1  0
 31 24  1  0
 32 33  1  0
 34 32  2  0
M  END
$$$$
