WFI.pdb
     RDKit          3D

 34 36  0  0  1  0  0  0  0  0999 V2000
   26.0698  -22.1239  -12.6707 N   0  0  0  0  0  0  0  0  0  0  0  0
   26.3075  -20.8780  -12.0167 C   0  0  1  0  0  0  0  0  0  0  0  0
   25.2110  -19.8580  -12.1434 C   0  0  0  0  0  0  0  0  0  0  0  0
   25.0958  -19.4023  -13.5277 C   0  0  0  0  0  0  0  0  0  0  0  0
   23.9444  -19.5075  -14.2753 C   0  0  0  0  0  0  0  0  0  0  0  0
   24.2062  -18.9578  -15.4650 N   0  0  0  0  0  0  0  0  0  0  0  0
   25.4662  -18.5062  -15.5159 C   0  0  0  0  0  0  0  0  0  0  0  0
   26.2001  -17.8752  -16.5185 C   0  0  0  0  0  0  0  0  0  0  0  0
   27.5257  -17.5322  -16.2578 C   0  0  0  0  0  0  0  0  0  0  0  0
   28.0839  -17.8131  -15.0407 C   0  0  0  0  0  0  0  0  0  0  0  0
   27.3841  -18.4291  -14.0479 C   0  0  0  0  0  0  0  0  0  0  0  0
   26.0525  -18.7810  -14.2891 C   0  0  0  0  0  0  0  0  0  0  0  0
   26.5044  -21.1534  -10.5487 C   0  0  0  0  0  0  0  0  0  0  0  0
   25.8823  -22.0976   -9.9753 O   0  0  0  0  0  0  0  0  0  0  0  0
   27.3939  -20.3589   -9.7811 N   0  0  0  0  0  0  0  0  0  0  0  0
   27.5846  -20.5652   -8.3689 C   0  0  1  0  0  0  0  0  0  0  0  0
   28.8212  -19.9502   -7.8337 C   0  0  0  0  0  0  0  0  0  0  0  0
   28.9947  -19.9802   -6.3779 C   0  0  0  0  0  0  0  0  0  0  0  0
   29.5402  -20.9983   -5.6462 C   0  0  0  0  0  0  0  0  0  0  0  0
   29.6710  -21.0097   -4.2759 C   0  0  0  0  0  0  0  0  0  0  0  0
   29.2255  -19.9237   -3.5449 C   0  0  0  0  0  0  0  0  0  0  0  0
   28.6710  -18.8775   -4.2412 C   0  0  0  0  0  0  0  0  0  0  0  0
   28.5469  -18.8785   -5.6122 C   0  0  0  0  0  0  0  0  0  0  0  0
   26.3333  -20.1601   -7.6326 C   0  0  0  0  0  0  0  0  0  0  0  0
   25.7411  -19.0996   -7.9515 O   0  0  0  0  0  0  0  0  0  0  0  0
   22.0010  -22.5065   -7.8500 C   0  0  0  0  0  0  0  0  0  0  0  0
   23.0688  -21.4705   -7.5046 C   0  0  0  0  0  0  0  0  0  0  0  0
   23.5939  -21.6707   -6.1187 C   0  0  2  0  0  0  0  0  0  0  0  0
   22.4276  -21.6209   -5.1371 C   0  0  0  0  0  0  0  0  0  0  0  0
   24.7534  -20.8288   -5.6994 C   0  0  2  0  0  0  0  0  0  0  0  0
   25.8571  -20.9628   -6.6187 N   0  0  0  0  0  0  0  0  0  0  0  0
   25.0352  -20.9253   -4.2708 C   0  0  0  0  0  0  0  0  0  0  0  0
   26.0178  -21.9062   -3.9395 O   0  0  0  0  0  0  0  0  0  0  0  0
   24.5889  -20.3297   -3.2853 O   0  0  0  0  0  0  0  0  0  0  0  0
  2  1  1  6
  3  2  1  0
  4  3  1  0
  5  4  2  0
  6  5  1  0
  7  6  1  0
  7 12  2  0
  8  7  1  0
  9  8  2  0
  9 10  1  0
 10 11  2  0
 11 12  1  0
 12  4  1  0
 13 14  2  0
 13  2  1  0
 15 13  1  0
 16 15  1  0
 17 18  1  0
 16 17  1  1
 18 23  1  0
 19 18  2  0
 19 20  1  0
 20 21  2  0
 21 22  1  0
 23 22  2  0
 24 16  1  0
 25 24  2  0
 26 27  1  0
 27 28  1  0
 28 29  1  1
 28 30  1  0
 30 31  1  6
 30 32  1  0
 31 24  1  0
 32 33  1  0
 34 32  2  0
M  END
$$$$
