WFI.pdb
     RDKit          3D

 34 36  0  0  1  0  0  0  0  0999 V2000
   28.7572  -20.9678  -14.0723 N   0  0  0  0  0  0  0  0  0  0  0  0
   27.6877  -20.0826  -13.7418 C   0  0  1  0  0  0  0  0  0  0  0  0
   26.8691  -19.5908  -14.9023 C   0  0  0  0  0  0  0  0  0  0  0  0
   27.6343  -18.6308  -15.6960 C   0  0  0  0  0  0  0  0  0  0  0  0
   28.4172  -18.9794  -16.7736 C   0  0  0  0  0  0  0  0  0  0  0  0
   28.9256  -17.8447  -17.2633 N   0  0  0  0  0  0  0  0  0  0  0  0
   28.5074  -16.7883  -16.5539 C   0  0  0  0  0  0  0  0  0  0  0  0
   28.7604  -15.4221  -16.6620 C   0  0  0  0  0  0  0  0  0  0  0  0
   28.1686  -14.5604  -15.7401 C   0  0  0  0  0  0  0  0  0  0  0  0
   27.3585  -15.0556  -14.7550 C   0  0  0  0  0  0  0  0  0  0  0  0
   27.0988  -16.3868  -14.6320 C   0  0  0  0  0  0  0  0  0  0  0  0
   27.6824  -17.2682  -15.5473 C   0  0  0  0  0  0  0  0  0  0  0  0
   26.7574  -20.8067  -12.8040 C   0  0  0  0  0  0  0  0  0  0  0  0
   26.4170  -22.0078  -13.0249 O   0  0  0  0  0  0  0  0  0  0  0  0
   26.2463  -20.1549  -11.6527 N   0  0  0  0  0  0  0  0  0  0  0  0
   25.1716  -20.7080  -10.8700 C   0  0  1  0  0  0  0  0  0  0  0  0
   25.2271  -20.3477   -9.4344 C   0  0  0  0  0  0  0  0  0  0  0  0
   26.5494  -20.3683   -8.8010 C   0  0  0  0  0  0  0  0  0  0  0  0
   26.9794  -19.5510   -7.7927 C   0  0  0  0  0  0  0  0  0  0  0  0
   28.2358  -19.5771   -7.2307 C   0  0  0  0  0  0  0  0  0  0  0  0
   29.1664  -20.4875   -7.6966 C   0  0  0  0  0  0  0  0  0  0  0  0
   28.7753  -21.3292   -8.7093 C   0  0  0  0  0  0  0  0  0  0  0  0
   27.5152  -21.2931   -9.2622 C   0  0  0  0  0  0  0  0  0  0  0  0
   23.8561  -20.3837  -11.5303 C   0  0  0  0  0  0  0  0  0  0  0  0
   23.6342  -19.2146  -11.9315 O   0  0  0  0  0  0  0  0  0  0  0  0
   21.3801  -24.6331  -14.3914 C   0  0  0  0  0  0  0  0  0  0  0  0
   21.5340  -23.7999  -13.1205 C   0  0  0  0  0  0  0  0  0  0  0  0
   21.5263  -22.3357  -13.4249 C   0  0  2  0  0  0  0  0  0  0  0  0
   22.5743  -22.0487  -14.4952 C   0  0  0  0  0  0  0  0  0  0  0  0
   21.5950  -21.3969  -12.2661 C   0  0  2  0  0  0  0  0  0  0  0  0
   22.9150  -21.3786  -11.6846 N   0  0  0  0  0  0  0  0  0  0  0  0
   20.4516  -21.5226  -11.3679 C   0  0  0  0  0  0  0  0  0  0  0  0
   19.1972  -21.2309  -11.9833 O   0  0  0  0  0  0  0  0  0  0  0  0
   20.3508  -21.8271  -10.1753 O   0  0  0  0  0  0  0  0  0  0  0  0
  2  1  1  6
  3  2  1  0
  4  3  1  0
  5  4  2  0
  6  5  1  0
  7  6  1  0
  7 12  2  0
  8  7  1  0
  9  8  2  0
  9 10  1  0
 10 11  2  0
 11 12  1  0
 12  4  1  0
 13 14  2  0
 13  2  1  0
 15 13  1  0
 16 15  1  0
 17 18  1  0
 16 17  1  1
 18 23  1  0
 19 18  2  0
 19 20  1  0
 20 21  2  0
 21 22  1  0
 23 22  2  0
 24 16  1  0
 25 24  2  0
 26 27  1  0
 27 28  1  0
 28 29  1  6
 28 30  1  0
 30 31  1  1
 30 32  1  0
 31 24  1  0
 32 33  1  0
 34 32  2  0
M  END
$$$$
