WFI.pdb
     RDKit          3D

 34 36  0  0  1  0  0  0  0  0999 V2000
   26.7129  -21.6647  -13.9374 N   0  0  0  0  0  0  0  0  0  0  0  0
   27.0367  -20.5865  -13.0604 C   0  0  1  0  0  0  0  0  0  0  0  0
   26.1851  -19.3561  -13.2012 C   0  0  0  0  0  0  0  0  0  0  0  0
   26.3934  -18.7387  -14.5099 C   0  0  0  0  0  0  0  0  0  0  0  0
   25.3736  -18.2634  -15.3035 C   0  0  0  0  0  0  0  0  0  0  0  0
   25.9449  -17.7422  -16.3935 N   0  0  0  0  0  0  0  0  0  0  0  0
   27.2780  -17.8599  -16.3370 C   0  0  0  0  0  0  0  0  0  0  0  0
   28.2939  -17.4856  -17.2144 C   0  0  0  0  0  0  0  0  0  0  0  0
   29.6136  -17.7644  -16.8629 C   0  0  0  0  0  0  0  0  0  0  0  0
   29.8940  -18.3916  -15.6798 C   0  0  0  0  0  0  0  0  0  0  0  0
   28.9161  -18.7656  -14.8088 C   0  0  0  0  0  0  0  0  0  0  0  0
   27.5855  -18.4946  -15.1425 C   0  0  0  0  0  0  0  0  0  0  0  0
   26.8922  -21.0793  -11.6442 C   0  0  0  0  0  0  0  0  0  0  0  0
   26.0994  -22.0282  -11.3639 O   0  0  0  0  0  0  0  0  0  0  0  0
   27.6449  -20.4890  -10.5971 N   0  0  0  0  0  0  0  0  0  0  0  0
   27.3470  -20.7262   -9.2084 C   0  0  1  0  0  0  0  0  0  0  0  0
   28.3770  -20.2115   -8.2767 C   0  0  0  0  0  0  0  0  0  0  0  0
   28.0412  -20.2284   -6.8494 C   0  0  0  0  0  0  0  0  0  0  0  0
   27.7043  -21.3265   -6.1076 C   0  0  0  0  0  0  0  0  0  0  0  0
   27.3715  -21.3108   -4.7720 C   0  0  0  0  0  0  0  0  0  0  0  0
   27.3642  -20.1074   -4.0909 C   0  0  0  0  0  0  0  0  0  0  0  0
   27.6979  -18.9783   -4.7986 C   0  0  0  0  0  0  0  0  0  0  0  0
   28.0296  -19.0081   -6.1343 C   0  0  0  0  0  0  0  0  0  0  0  0
   25.9531  -20.2380   -8.9074 C   0  0  0  0  0  0  0  0  0  0  0  0
   25.6843  -19.0168   -9.0234 O   0  0  0  0  0  0  0  0  0  0  0  0
   22.0236  -20.7215  -11.6336 C   0  0  0  0  0  0  0  0  0  0  0  0
   22.9658  -20.3494  -10.4904 C   0  0  0  0  0  0  0  0  0  0  0  0
   22.6916  -21.1692   -9.2700 C   0  0  2  0  0  0  0  0  0  0  0  0
   21.2202  -21.0220   -8.8968 C   0  0  0  0  0  0  0  0  0  0  0  0
   23.6143  -20.9954   -8.1092 C   0  0  2  0  0  0  0  0  0  0  0  0
   24.9925  -21.1424   -8.5093 N   0  0  0  0  0  0  0  0  0  0  0  0
   23.1659  -21.7099   -6.9183 C   0  0  0  0  0  0  0  0  0  0  0  0
   21.9924  -21.1597   -6.3206 O   0  0  0  0  0  0  0  0  0  0  0  0
   23.6025  -22.6968   -6.3177 O   0  0  0  0  0  0  0  0  0  0  0  0
  2  1  1  6
  3  2  1  0
  4  3  1  0
  5  4  2  0
  6  5  1  0
  7  6  1  0
  7 12  2  0
  8  7  1  0
  9  8  2  0
  9 10  1  0
 10 11  2  0
 11 12  1  0
 12  4  1  0
 13 14  2  0
 13  2  1  0
 15 13  1  0
 16 15  1  0
 17 18  1  0
 16 17  1  1
 18 23  1  0
 19 18  2  0
 19 20  1  0
 20 21  2  0
 21 22  1  0
 23 22  2  0
 24 16  1  0
 25 24  2  0
 26 27  1  0
 27 28  1  0
 28 29  1  1
 28 30  1  0
 30 31  1  6
 30 32  1  0
 31 24  1  0
 32 33  1  0
 34 32  2  0
M  END
$$$$
