WFI.pdb
     RDKit          3D

 34 36  0  0  1  0  0  0  0  0999 V2000
   27.6213  -21.6855  -17.5371 N   0  0  0  0  0  0  0  0  0  0  0  0
   27.4235  -20.5489  -16.6971 C   0  0  1  0  0  0  0  0  0  0  0  0
   26.3319  -19.6080  -17.1234 C   0  0  0  0  0  0  0  0  0  0  0  0
   26.8120  -18.7124  -18.1745 C   0  0  0  0  0  0  0  0  0  0  0  0
   26.1045  -18.4285  -19.3210 C   0  0  0  0  0  0  0  0  0  0  0  0
   26.8358  -17.5537  -20.0181 N   0  0  0  0  0  0  0  0  0  0  0  0
   27.9747  -17.2636  -19.3754 C   0  0  0  0  0  0  0  0  0  0  0  0
   29.0466  -16.4302  -19.6893 C   0  0  0  0  0  0  0  0  0  0  0  0
   30.1133  -16.3521  -18.7955 C   0  0  0  0  0  0  0  0  0  0  0  0
   30.0977  -17.0816  -17.6381 C   0  0  0  0  0  0  0  0  0  0  0  0
   29.0603  -17.9017  -17.3130 C   0  0  0  0  0  0  0  0  0  0  0  0
   27.9800  -17.9939  -18.1960 C   0  0  0  0  0  0  0  0  0  0  0  0
   27.0822  -21.0448  -15.3161 C   0  0  0  0  0  0  0  0  0  0  0  0
   26.2828  -22.0154  -15.1531 O   0  0  0  0  0  0  0  0  0  0  0  0
   27.6530  -20.4331  -14.1709 N   0  0  0  0  0  0  0  0  0  0  0  0
   27.1590  -20.6801  -12.8411 C   0  0  1  0  0  0  0  0  0  0  0  0
   28.0663  -20.2139  -11.7672 C   0  0  0  0  0  0  0  0  0  0  0  0
   27.5622  -20.3058  -10.3933 C   0  0  0  0  0  0  0  0  0  0  0  0
   26.6383  -19.4833   -9.8108 C   0  0  0  0  0  0  0  0  0  0  0  0
   26.1985  -19.5788   -8.5098 C   0  0  0  0  0  0  0  0  0  0  0  0
   26.7093  -20.5719   -7.6943 C   0  0  0  0  0  0  0  0  0  0  0  0
   27.6402  -21.4217   -8.2404 C   0  0  0  0  0  0  0  0  0  0  0  0
   28.0709  -21.3157   -9.5435 C   0  0  0  0  0  0  0  0  0  0  0  0
   25.7530  -20.1495  -12.7253 C   0  0  0  0  0  0  0  0  0  0  0  0
   25.5295  -18.9317  -12.9355 O   0  0  0  0  0  0  0  0  0  0  0  0
   20.4001  -21.7132  -14.5908 C   0  0  0  0  0  0  0  0  0  0  0  0
   21.0529  -21.1642  -13.3238 C   0  0  0  0  0  0  0  0  0  0  0  0
   22.5300  -21.3983  -13.3269 C   0  0  2  0  0  0  0  0  0  0  0  0
   22.7938  -22.8839  -13.5496 C   0  0  0  0  0  0  0  0  0  0  0  0
   23.3149  -20.8237  -12.1943 C   0  0  2  0  0  0  0  0  0  0  0  0
   24.7316  -21.0120  -12.3904 N   0  0  0  0  0  0  0  0  0  0  0  0
   22.7528  -21.1577  -10.8896 C   0  0  0  0  0  0  0  0  0  0  0  0
   23.6271  -21.9240  -10.0616 O   0  0  0  0  0  0  0  0  0  0  0  0
   21.6656  -20.9140  -10.3569 O   0  0  0  0  0  0  0  0  0  0  0  0
  2  1  1  6
  3  2  1  0
  4  3  1  0
  5  4  2  0
  6  5  1  0
  7  6  1  0
  7 12  2  0
  8  7  1  0
  9  8  2  0
  9 10  1  0
 10 11  2  0
 11 12  1  0
 12  4  1  0
 13 14  2  0
 13  2  1  0
 15 13  1  0
 16 15  1  0
 17 18  1  0
 16 17  1  1
 18 23  1  0
 19 18  2  0
 19 20  1  0
 20 21  2  0
 21 22  1  0
 23 22  2  0
 24 16  1  0
 25 24  2  0
 26 27  1  0
 27 28  1  0
 28 29  1  1
 28 30  1  0
 30 31  1  1
 30 32  1  0
 31 24  1  0
 32 33  1  0
 34 32  2  0
M  END
$$$$
