WFI.pdb
     RDKit          3D

 34 36  0  0  1  0  0  0  0  0999 V2000
   23.7186  -25.8445  -16.7455 N   0  0  0  0  0  0  0  0  0  0  0  0
   22.3884  -26.3556  -16.6693 C   0  0  1  0  0  0  0  0  0  0  0  0
   22.2499  -27.7164  -16.0464 C   0  0  0  0  0  0  0  0  0  0  0  0
   22.8817  -28.7300  -16.8894 C   0  0  0  0  0  0  0  0  0  0  0  0
   24.1906  -29.1340  -16.7508 C   0  0  0  0  0  0  0  0  0  0  0  0
   24.3971  -30.0897  -17.6619 N   0  0  0  0  0  0  0  0  0  0  0  0
   23.2868  -30.3175  -18.3756 C   0  0  0  0  0  0  0  0  0  0  0  0
   23.0039  -31.1924  -19.4228 C   0  0  0  0  0  0  0  0  0  0  0  0
   21.7233  -31.1804  -19.9731 C   0  0  0  0  0  0  0  0  0  0  0  0
   20.7724  -30.3248  -19.4878 C   0  0  0  0  0  0  0  0  0  0  0  0
   21.0285  -29.4621  -18.4655 C   0  0  0  0  0  0  0  0  0  0  0  0
   22.3070  -29.4587  -17.8992 C   0  0  0  0  0  0  0  0  0  0  0  0
   21.5672  -25.3950  -15.8494 C   0  0  0  0  0  0  0  0  0  0  0  0
   22.1026  -24.6978  -14.9357 O   0  0  0  0  0  0  0  0  0  0  0  0
   20.1765  -25.2525  -16.0881 N   0  0  0  0  0  0  0  0  0  0  0  0
   19.3717  -24.2851  -15.3880 C   0  0  1  0  0  0  0  0  0  0  0  0
   18.8135  -23.2251  -16.2590 C   0  0  0  0  0  0  0  0  0  0  0  0
   19.7789  -22.3840  -16.9737 C   0  0  0  0  0  0  0  0  0  0  0  0
   20.3478  -22.6530  -18.1875 C   0  0  0  0  0  0  0  0  0  0  0  0
   21.2698  -21.8552  -18.8266 C   0  0  0  0  0  0  0  0  0  0  0  0
   21.6800  -20.6799  -18.2245 C   0  0  0  0  0  0  0  0  0  0  0  0
   21.1320  -20.3704  -17.0035 C   0  0  0  0  0  0  0  0  0  0  0  0
   20.2101  -21.1770  -16.3754 C   0  0  0  0  0  0  0  0  0  0  0  0
   18.3366  -25.0033  -14.5607 C   0  0  0  0  0  0  0  0  0  0  0  0
   17.6042  -25.8703  -15.0983 O   0  0  0  0  0  0  0  0  0  0  0  0
   19.0512  -24.1786   -8.8544 C   0  0  0  0  0  0  0  0  0  0  0  0
   18.2843  -23.9599  -10.1571 C   0  0  0  0  0  0  0  0  0  0  0  0
   18.0420  -25.2521  -10.8700 C   0  0  2  0  0  0  0  0  0  0  0  0
   19.3486  -26.0367  -10.9272 C   0  0  0  0  0  0  0  0  0  0  0  0
   17.3367  -25.1852  -12.1842 C   0  0  2  0  0  0  0  0  0  0  0  0
   18.2103  -24.6968  -13.2230 N   0  0  0  0  0  0  0  0  0  0  0  0
   16.0021  -24.6037  -12.0809 C   0  0  0  0  0  0  0  0  0  0  0  0
   15.0856  -25.3896  -11.3194 O   0  0  0  0  0  0  0  0  0  0  0  0
   15.5021  -23.5660  -12.5260 O   0  0  0  0  0  0  0  0  0  0  0  0
  2  1  1  1
  3  2  1  0
  4  3  1  0
  5  4  2  0
  6  5  1  0
  7  6  1  0
  7 12  2  0
  8  7  1  0
  9  8  2  0
  9 10  1  0
 10 11  2  0
 11 12  1  0
 12  4  1  0
 13 14  2  0
 13  2  1  0
 15 13  1  0
 16 15  1  0
 17 18  1  0
 16 17  1  6
 18 23  1  0
 19 18  2  0
 19 20  1  0
 20 21  2  0
 21 22  1  0
 23 22  2  0
 24 16  1  0
 25 24  2  0
 26 27  1  0
 27 28  1  0
 28 29  1  6
 28 30  1  0
 30 31  1  6
 30 32  1  0
 31 24  1  0
 32 33  1  0
 34 32  2  0
M  END
$$$$
