WFI.pdb
     RDKit          3D

 34 36  0  0  1  0  0  0  0  0999 V2000
   26.9844  -22.0185  -13.5646 N   0  0  0  0  0  0  0  0  0  0  0  0
   26.3530  -20.9486  -12.8623 C   0  0  1  0  0  0  0  0  0  0  0  0
   24.9023  -20.7256  -13.1859 C   0  0  0  0  0  0  0  0  0  0  0  0
   24.7620  -20.1198  -14.5089 C   0  0  0  0  0  0  0  0  0  0  0  0
   25.1694  -20.7260  -15.6761 C   0  0  0  0  0  0  0  0  0  0  0  0
   24.8484  -19.8963  -16.6733 N   0  0  0  0  0  0  0  0  0  0  0  0
   24.2562  -18.7906  -16.2033 C   0  0  0  0  0  0  0  0  0  0  0  0
   23.7559  -17.6515  -16.8310 C   0  0  0  0  0  0  0  0  0  0  0  0
   23.1960  -16.6481  -16.0420 C   0  0  0  0  0  0  0  0  0  0  0  0
   23.1435  -16.7890  -14.6821 C   0  0  0  0  0  0  0  0  0  0  0  0
   23.6268  -17.8939  -14.0494 C   0  0  0  0  0  0  0  0  0  0  0  0
   24.1921  -18.9125  -14.8229 C   0  0  0  0  0  0  0  0  0  0  0  0
   26.4500  -21.2390  -11.3873 C   0  0  0  0  0  0  0  0  0  0  0  0
   25.9738  -22.3096  -10.9029 O   0  0  0  0  0  0  0  0  0  0  0  0
   27.0797  -20.3170  -10.5128 N   0  0  0  0  0  0  0  0  0  0  0  0
   27.0849  -20.4939   -9.0838 C   0  0  1  0  0  0  0  0  0  0  0  0
   28.2001  -19.8021   -8.3970 C   0  0  0  0  0  0  0  0  0  0  0  0
   28.1590  -19.7811   -6.9314 C   0  0  0  0  0  0  0  0  0  0  0  0
   27.6539  -18.7810   -6.1476 C   0  0  0  0  0  0  0  0  0  0  0  0
   27.6480  -18.7772   -4.7711 C   0  0  0  0  0  0  0  0  0  0  0  0
   28.1885  -19.8521   -4.0894 C   0  0  0  0  0  0  0  0  0  0  0  0
   28.7064  -20.8801   -4.8389 C   0  0  0  0  0  0  0  0  0  0  0  0
   28.7053  -20.8718   -6.2154 C   0  0  0  0  0  0  0  0  0  0  0  0
   25.7237  -20.1517   -8.5344 C   0  0  0  0  0  0  0  0  0  0  0  0
   25.2953  -18.9747   -8.6251 O   0  0  0  0  0  0  0  0  0  0  0  0
   21.3904  -20.7119  -10.3735 C   0  0  0  0  0  0  0  0  0  0  0  0
   22.5275  -20.3603   -9.4163 C   0  0  0  0  0  0  0  0  0  0  0  0
   22.5702  -21.2993   -8.2531 C   0  0  2  0  0  0  0  0  0  0  0  0
   21.1949  -21.3322   -7.5946 C   0  0  0  0  0  0  0  0  0  0  0  0
   23.6869  -21.1272   -7.2772 C   0  0  2  0  0  0  0  0  0  0  0  0
   24.9680  -21.1392   -7.9401 N   0  0  0  0  0  0  0  0  0  0  0  0
   23.5254  -21.9491   -6.0821 C   0  0  0  0  0  0  0  0  0  0  0  0
   22.3204  -21.6923   -5.3615 O   0  0  0  0  0  0  0  0  0  0  0  0
   24.2272  -22.8229   -5.5634 O   0  0  0  0  0  0  0  0  0  0  0  0
  2  1  1  6
  3  2  1  0
  4  3  1  0
  5  4  2  0
  6  5  1  0
  7  6  1  0
  7 12  2  0
  8  7  1  0
  9  8  2  0
  9 10  1  0
 10 11  2  0
 11 12  1  0
 12  4  1  0
 13 14  2  0
 13  2  1  0
 15 13  1  0
 16 15  1  0
 17 18  1  0
 16 17  1  1
 18 23  1  0
 19 18  2  0
 19 20  1  0
 20 21  2  0
 21 22  1  0
 23 22  2  0
 24 16  1  0
 25 24  2  0
 26 27  1  0
 27 28  1  0
 28 29  1  1
 28 30  1  0
 30 31  1  6
 30 32  1  0
 31 24  1  0
 32 33  1  0
 34 32  2  0
M  END
$$$$
