WFI.pdb
     RDKit          3D

 34 36  0  0  1  0  0  0  0  0999 V2000
   25.7641  -22.0998  -12.4235 N   0  0  0  0  0  0  0  0  0  0  0  0
   26.0468  -20.8585  -11.7786 C   0  0  1  0  0  0  0  0  0  0  0  0
   24.8830  -19.9175  -11.6421 C   0  0  0  0  0  0  0  0  0  0  0  0
   24.4435  -19.4554  -12.9576 C   0  0  0  0  0  0  0  0  0  0  0  0
   23.2571  -19.8336  -13.5452 C   0  0  0  0  0  0  0  0  0  0  0  0
   23.1831  -19.1885  -14.7133 N   0  0  0  0  0  0  0  0  0  0  0  0
   24.2616  -18.4169  -14.9022 C   0  0  0  0  0  0  0  0  0  0  0  0
   24.6460  -17.5754  -15.9444 C   0  0  0  0  0  0  0  0  0  0  0  0
   25.8628  -16.9031  -15.8432 C   0  0  0  0  0  0  0  0  0  0  0  0
   26.6544  -17.0726  -14.7403 C   0  0  0  0  0  0  0  0  0  0  0  0
   26.2972  -17.8902  -13.7113 C   0  0  0  0  0  0  0  0  0  0  0  0
   25.0799  -18.5735  -13.7931 C   0  0  0  0  0  0  0  0  0  0  0  0
   26.5529  -21.1594  -10.3920 C   0  0  0  0  0  0  0  0  0  0  0  0
   26.0328  -22.0831   -9.6964 O   0  0  0  0  0  0  0  0  0  0  0  0
   27.6249  -20.4127   -9.8401 N   0  0  0  0  0  0  0  0  0  0  0  0
   28.0340  -20.5555   -8.4668 C   0  0  1  0  0  0  0  0  0  0  0  0
   29.3350  -19.9183   -8.1584 C   0  0  0  0  0  0  0  0  0  0  0  0
   29.6907  -19.8004   -6.7407 C   0  0  0  0  0  0  0  0  0  0  0  0
   29.4783  -18.7141   -5.9380 C   0  0  0  0  0  0  0  0  0  0  0  0
   29.8429  -18.6219   -4.6138 C   0  0  0  0  0  0  0  0  0  0  0  0
   30.4785  -19.6919   -4.0112 C   0  0  0  0  0  0  0  0  0  0  0  0
   30.7107  -20.8050   -4.7819 C   0  0  0  0  0  0  0  0  0  0  0  0
   30.3402  -20.8844   -6.1053 C   0  0  0  0  0  0  0  0  0  0  0  0
   26.9099  -20.1162   -7.5639 C   0  0  0  0  0  0  0  0  0  0  0  0
   26.2506  -19.0861   -7.8491 O   0  0  0  0  0  0  0  0  0  0  0  0
   22.5746  -22.3589   -6.5414 C   0  0  0  0  0  0  0  0  0  0  0  0
   23.7561  -21.3927   -6.6009 C   0  0  0  0  0  0  0  0  0  0  0  0
   24.5405  -21.4128   -5.3277 C   0  0  2  0  0  0  0  0  0  0  0  0
   23.5979  -21.1294   -4.1627 C   0  0  0  0  0  0  0  0  0  0  0  0
   25.7924  -20.6003   -5.2841 C   0  0  2  0  0  0  0  0  0  0  0  0
   26.6220  -20.8546   -6.4364 N   0  0  0  0  0  0  0  0  0  0  0  0
   26.4248  -20.6061   -3.9689 C   0  0  0  0  0  0  0  0  0  0  0  0
   25.8997  -19.6299   -3.0697 O   0  0  0  0  0  0  0  0  0  0  0  0
   27.3309  -21.2855   -3.4764 O   0  0  0  0  0  0  0  0  0  0  0  0
  2  1  1  1
  3  2  1  0
  4  3  1  0
  5  4  2  0
  6  5  1  0
  7  6  1  0
  7 12  2  0
  8  7  1  0
  9  8  2  0
  9 10  1  0
 10 11  2  0
 11 12  1  0
 12  4  1  0
 13 14  2  0
 13  2  1  0
 15 13  1  0
 16 15  1  0
 17 18  1  0
 16 17  1  6
 18 23  1  0
 19 18  2  0
 19 20  1  0
 20 21  2  0
 21 22  1  0
 23 22  2  0
 24 16  1  0
 25 24  2  0
 26 27  1  0
 27 28  1  0
 28 29  1  1
 28 30  1  0
 30 31  1  6
 30 32  1  0
 31 24  1  0
 32 33  1  0
 34 32  2  0
M  END
$$$$
