WFI.pdb
     RDKit          3D

 34 36  0  0  1  0  0  0  0  0999 V2000
   26.1816  -21.9030  -13.5949 N   0  0  0  0  0  0  0  0  0  0  0  0
   25.8631  -20.7897  -12.7609 C   0  0  1  0  0  0  0  0  0  0  0  0
   24.4549  -20.2765  -12.8720 C   0  0  0  0  0  0  0  0  0  0  0  0
   24.2004  -19.7728  -14.2207 C   0  0  0  0  0  0  0  0  0  0  0  0
   23.8011  -20.5670  -15.2722 C   0  0  0  0  0  0  0  0  0  0  0  0
   23.6339  -19.7588  -16.3233 N   0  0  0  0  0  0  0  0  0  0  0  0
   23.9058  -18.4884  -15.9973 C   0  0  0  0  0  0  0  0  0  0  0  0
   23.8865  -17.3036  -16.7309 C   0  0  0  0  0  0  0  0  0  0  0  0
   24.2411  -16.1178  -16.0900 C   0  0  0  0  0  0  0  0  0  0  0  0
   24.5980  -16.1280  -14.7693 C   0  0  0  0  0  0  0  0  0  0  0  0
   24.6235  -17.2747  -14.0349 C   0  0  0  0  0  0  0  0  0  0  0  0
   24.2706  -18.4752  -14.6590 C   0  0  0  0  0  0  0  0  0  0  0  0
   26.0845  -21.2025  -11.3291 C   0  0  0  0  0  0  0  0  0  0  0  0
   25.5527  -22.2565  -10.8669 O   0  0  0  0  0  0  0  0  0  0  0  0
   26.8964  -20.4170  -10.4717 N   0  0  0  0  0  0  0  0  0  0  0  0
   26.9695  -20.6536   -9.0532 C   0  0  1  0  0  0  0  0  0  0  0  0
   28.1445  -20.0315   -8.4003 C   0  0  0  0  0  0  0  0  0  0  0  0
   28.1695  -20.0498   -6.9343 C   0  0  0  0  0  0  0  0  0  0  0  0
   27.6677  -19.0883   -6.1017 C   0  0  0  0  0  0  0  0  0  0  0  0
   27.7245  -19.1202   -4.7267 C   0  0  0  0  0  0  0  0  0  0  0  0
   28.3309  -20.1931   -4.0995 C   0  0  0  0  0  0  0  0  0  0  0  0
   28.8481  -21.1830   -4.8992 C   0  0  0  0  0  0  0  0  0  0  0  0
   28.7839  -21.1391   -6.2735 C   0  0  0  0  0  0  0  0  0  0  0  0
   25.6528  -20.2862   -8.4182 C   0  0  0  0  0  0  0  0  0  0  0  0
   25.1958  -19.1256   -8.5633 O   0  0  0  0  0  0  0  0  0  0  0  0
   20.1077  -21.0024   -8.3273 C   0  0  0  0  0  0  0  0  0  0  0  0
   21.1982  -21.0651   -7.2597 C   0  0  0  0  0  0  0  0  0  0  0  0
   22.5524  -21.2273   -7.8732 C   0  0  2  0  0  0  0  0  0  0  0  0
   22.5369  -22.4479   -8.7877 C   0  0  0  0  0  0  0  0  0  0  0  0
   23.7275  -21.1954   -6.9528 C   0  0  2  0  0  0  0  0  0  0  0  0
   24.9687  -21.2331   -7.6869 N   0  0  0  0  0  0  0  0  0  0  0  0
   23.5775  -22.0938   -5.8126 C   0  0  0  0  0  0  0  0  0  0  0  0
   24.6605  -23.0093   -5.6506 O   0  0  0  0  0  0  0  0  0  0  0  0
   22.6954  -22.2255   -4.9583 O   0  0  0  0  0  0  0  0  0  0  0  0
  2  1  1  6
  3  2  1  0
  4  3  1  0
  5  4  2  0
  6  5  1  0
  7  6  1  0
  7 12  2  0
  8  7  1  0
  9  8  2  0
  9 10  1  0
 10 11  2  0
 11 12  1  0
 12  4  1  0
 13 14  2  0
 13  2  1  0
 15 13  1  0
 16 15  1  0
 17 18  1  0
 16 17  1  1
 18 23  1  0
 19 18  2  0
 19 20  1  0
 20 21  2  0
 21 22  1  0
 23 22  2  0
 24 16  1  0
 25 24  2  0
 26 27  1  0
 27 28  1  0
 28 29  1  1
 28 30  1  0
 30 31  1  6
 30 32  1  0
 31 24  1  0
 32 33  1  0
 34 32  2  0
M  END
$$$$
