NIK.pdb
     RDKit          3D

 26 25  0  0  1  0  0  0  0  0999 V2000
    7.8557  -16.9971   18.8046 N   0  0  0  0  0  0  0  0  0  0  0  0
    9.1056  -16.3330   18.9289 C   0  0  0  0  0  0  0  0  0  0  0  0
    9.8135  -16.2359   17.8956 O   0  0  0  0  0  0  0  0  0  0  0  0
    9.5040  -15.7988   20.2448 C   0  0  0  0  0  0  0  0  0  0  0  0
    8.4655  -16.0685   21.3109 C   0  0  2  0  0  0  0  0  0  0  0  0
    7.1768  -15.5256   20.9735 N   0  0  0  0  0  0  0  0  0  0  0  0
    8.9734  -15.5065   22.5839 C   0  0  0  0  0  0  0  0  0  0  0  0
   10.2034  -15.5523   22.8291 O   0  0  0  0  0  0  0  0  0  0  0  0
    7.1906  -11.8021   27.2808 C   0  0  0  0  0  0  0  0  0  0  0  0
    8.0917  -12.7359   26.6078 C   0  0  0  0  0  0  0  0  0  0  0  0
    7.7376  -13.4312   25.3832 C   0  0  2  0  0  0  0  0  0  0  0  0
    6.2582  -13.7987   25.2946 C   0  0  0  0  0  0  0  0  0  0  0  0
    8.6249  -14.4961   24.8902 C   0  0  2  0  0  0  0  0  0  0  0  0
    8.1161  -14.9184   23.5356 N   0  0  0  0  0  0  0  0  0  0  0  0
    8.8785  -15.7043   25.6627 C   0  0  0  0  0  0  0  0  0  0  0  0
    7.9850  -16.6569   25.6818 O   0  0  0  0  0  0  0  0  0  0  0  0
   10.0116  -16.0444   26.4354 N   0  0  0  0  0  0  0  0  0  0  0  0
   10.1437  -17.3468   27.0941 C   0  0  1  0  0  0  0  0  0  0  0  0
   11.0883  -18.1900   26.2791 C   0  0  0  0  0  0  0  0  0  0  0  0
   11.2926  -19.5445   26.8478 C   0  0  0  0  0  0  0  0  0  0  0  0
   12.3244  -20.3396   26.0160 C   0  0  0  0  0  0  0  0  0  0  0  0
   12.4210  -21.7070   26.6991 C   0  0  0  0  0  0  0  0  0  0  0  0
   13.4617  -22.4894   26.0620 N   0  0  0  0  0  0  0  0  0  0  0  0
   10.6780  -17.1590   28.4414 C   0  0  0  0  0  0  0  0  0  0  0  0
   10.6677  -18.0841   29.4693 O   0  0  0  0  0  0  0  0  0  0  0  0
   11.2141  -16.0462   28.7390 O   0  0  0  0  0  0  0  0  0  0  0  0
  1  2  1  0
  2  3  2  0
  4  5  1  0
  4  2  1  0
  5  7  1  0
  5  6  1  6
  7 14  1  0
  7  8  2  0
 10 11  1  0
 10  9  1  0
 11 13  1  0
 11 12  1  1
 13 15  1  0
 13 14  1  6
 15 16  2  0
 17 18  1  0
 17 15  1  0
 18 24  1  0
 18 19  1  6
 20 19  1  0
 21 20  1  0
 22 21  1  0
 23 22  1  0
 24 25  1  0
 26 24  2  0
M  END
$$$$
