NIK.pdb
     RDKit          3D

 26 25  0  0  1  0  0  0  0  0999 V2000
    5.5996  -17.4070   18.7236 N   0  0  0  0  0  0  0  0  0  0  0  0
    5.7741  -17.2925   20.1290 C   0  0  0  0  0  0  0  0  0  0  0  0
    4.8327  -17.6858   20.8621 O   0  0  0  0  0  0  0  0  0  0  0  0
    7.0326  -16.7261   20.6498 C   0  0  0  0  0  0  0  0  0  0  0  0
    6.9620  -15.2236   20.8090 C   0  0  2  0  0  0  0  0  0  0  0  0
    7.3868  -14.5244   19.6258 N   0  0  0  0  0  0  0  0  0  0  0  0
    7.7907  -14.8576   21.9811 C   0  0  0  0  0  0  0  0  0  0  0  0
    9.0295  -14.7160   21.8384 O   0  0  0  0  0  0  0  0  0  0  0  0
    7.1366  -11.8545   27.3454 C   0  0  0  0  0  0  0  0  0  0  0  0
    7.8473  -12.7898   26.4753 C   0  0  0  0  0  0  0  0  0  0  0  0
    7.2810  -13.3072   25.2424 C   0  0  2  0  0  0  0  0  0  0  0  0
    5.8214  -13.7362   25.3727 C   0  0  0  0  0  0  0  0  0  0  0  0
    8.0821  -14.2344   24.4282 C   0  0  2  0  0  0  0  0  0  0  0  0
    7.2311  -14.6621   23.2598 N   0  0  0  0  0  0  0  0  0  0  0  0
    8.6853  -15.4318   24.9965 C   0  0  0  0  0  0  0  0  0  0  0  0
    7.9504  -16.4939   25.1910 O   0  0  0  0  0  0  0  0  0  0  0  0
   10.0255  -15.6536   25.3857 N   0  0  0  0  0  0  0  0  0  0  0  0
   10.5172  -16.9803   25.7672 C   0  0  1  0  0  0  0  0  0  0  0  0
   11.8543  -17.1916   25.1077 C   0  0  0  0  0  0  0  0  0  0  0  0
   12.5167  -18.4490   25.5319 C   0  0  0  0  0  0  0  0  0  0  0  0
   13.8854  -18.6118   24.8327 C   0  0  0  0  0  0  0  0  0  0  0  0
   14.4312  -19.9541   25.3288 C   0  0  0  0  0  0  0  0  0  0  0  0
   15.6225  -20.2953   24.5768 N   0  0  0  0  0  0  0  0  0  0  0  0
   10.6612  -17.0469   27.2201 C   0  0  0  0  0  0  0  0  0  0  0  0
   10.8075  -18.1910   27.9830 O   0  0  0  0  0  0  0  0  0  0  0  0
   10.6554  -15.9656   27.8872 O   0  0  0  0  0  0  0  0  0  0  0  0
  1  2  1  0
  2  3  2  0
  4  5  1  0
  4  2  1  0
  5  7  1  0
  5  6  1  6
  7 14  1  0
  7  8  2  0
 10 11  1  0
 10  9  1  0
 11 13  1  0
 11 12  1  1
 13 15  1  0
 13 14  1  6
 15 16  2  0
 17 18  1  0
 17 15  1  0
 18 24  1  0
 18 19  1  6
 20 19  1  0
 21 20  1  0
 22 21  1  0
 23 22  1  0
 24 25  1  0
 26 24  2  0
M  END
$$$$
