NIK.pdb
     RDKit          3D

 26 25  0  0  1  0  0  0  0  0999 V2000
   10.1868  -19.6899   15.7509 N   0  0  0  0  0  0  0  0  0  0  0  0
   10.6933  -18.4258   15.3457 C   0  0  0  0  0  0  0  0  0  0  0  0
   11.4826  -18.4059   14.3685 O   0  0  0  0  0  0  0  0  0  0  0  0
   10.2737  -17.2179   16.0811 C   0  0  0  0  0  0  0  0  0  0  0  0
    9.3646  -17.5430   17.2454 C   0  0  2  0  0  0  0  0  0  0  0  0
    7.9739  -17.3625   16.9247 N   0  0  0  0  0  0  0  0  0  0  0  0
    9.7727  -16.6889   18.3849 C   0  0  0  0  0  0  0  0  0  0  0  0
   10.9913  -16.4549   18.5726 O   0  0  0  0  0  0  0  0  0  0  0  0
    6.7407  -12.4301   19.7170 C   0  0  0  0  0  0  0  0  0  0  0  0
    7.9022  -13.3156   19.6556 C   0  0  0  0  0  0  0  0  0  0  0  0
    8.2074  -14.2903   20.6877 C   0  0  2  0  0  0  0  0  0  0  0  0
    8.2640  -13.6956   22.0929 C   0  0  0  0  0  0  0  0  0  0  0  0
    9.2686  -15.2784   20.4386 C   0  0  2  0  0  0  0  0  0  0  0  0
    8.8323  -16.1268   19.2716 N   0  0  0  0  0  0  0  0  0  0  0  0
    9.7443  -16.1751   21.4827 C   0  0  0  0  0  0  0  0  0  0  0  0
    8.9644  -17.1276   21.9193 O   0  0  0  0  0  0  0  0  0  0  0  0
   10.9975  -16.1947   22.1354 N   0  0  0  0  0  0  0  0  0  0  0  0
   11.3095  -17.1573   23.1954 C   0  0  1  0  0  0  0  0  0  0  0  0
   12.8000  -17.3708   23.2101 C   0  0  0  0  0  0  0  0  0  0  0  0
   13.2383  -18.3207   24.2615 C   0  0  0  0  0  0  0  0  0  0  0  0
   14.7735  -18.4979   24.2363 C   0  0  0  0  0  0  0  0  0  0  0  0
   15.0760  -19.5243   25.3321 C   0  0  0  0  0  0  0  0  0  0  0  0
   16.4813  -19.8764   25.2852 N   0  0  0  0  0  0  0  0  0  0  0  0
   10.8689  -16.6237   24.4827 C   0  0  0  0  0  0  0  0  0  0  0  0
   10.3646  -15.3585   24.7223 O   0  0  0  0  0  0  0  0  0  0  0  0
   10.9413  -17.3659   25.5114 O   0  0  0  0  0  0  0  0  0  0  0  0
  1  2  1  0
  2  3  2  0
  4  5  1  0
  4  2  1  0
  5  7  1  0
  5  6  1  6
  7 14  1  0
  7  8  2  0
 10 11  1  0
 10  9  1  0
 11 13  1  0
 11 12  1  1
 13 15  1  0
 13 14  1  6
 15 16  2  0
 17 18  1  0
 17 15  1  0
 18 24  1  0
 18 19  1  1
 20 19  1  0
 21 20  1  0
 22 21  1  0
 23 22  1  0
 24 25  1  0
 26 24  2  0
M  END
$$$$
