NIK.pdb
     RDKit          3D

 26 25  0  0  1  0  0  0  0  0999 V2000
    7.5339  -19.9085   16.5476 N   0  0  0  0  0  0  0  0  0  0  0  0
    8.0953  -20.3609   17.7719 C   0  0  0  0  0  0  0  0  0  0  0  0
    7.9057  -21.5626   18.0853 O   0  0  0  0  0  0  0  0  0  0  0  0
    8.8612  -19.4117   18.6015 C   0  0  0  0  0  0  0  0  0  0  0  0
    8.8240  -18.0055   18.0457 C   0  0  2  0  0  0  0  0  0  0  0  0
    9.5895  -17.8720   16.8351 N   0  0  0  0  0  0  0  0  0  0  0  0
    9.3184  -17.0926   19.1024 C   0  0  0  0  0  0  0  0  0  0  0  0
   10.5490  -17.0382   19.3420 O   0  0  0  0  0  0  0  0  0  0  0  0
    6.9465  -12.3356   19.4288 C   0  0  0  0  0  0  0  0  0  0  0  0
    7.9649  -13.3659   19.6246 C   0  0  0  0  0  0  0  0  0  0  0  0
    8.0946  -14.1240   20.8562 C   0  0  2  0  0  0  0  0  0  0  0  0
    8.2422  -13.2500   22.0995 C   0  0  0  0  0  0  0  0  0  0  0  0
    8.9750  -15.3026   20.8743 C   0  0  2  0  0  0  0  0  0  0  0  0
    8.4471  -16.2776   19.8530 N   0  0  0  0  0  0  0  0  0  0  0  0
    9.2395  -16.0456   22.0984 C   0  0  0  0  0  0  0  0  0  0  0  0
    8.2956  -16.7800   22.6237 O   0  0  0  0  0  0  0  0  0  0  0  0
   10.4310  -16.1188   22.8545 N   0  0  0  0  0  0  0  0  0  0  0  0
   10.5486  -16.9663   24.0442 C   0  0  1  0  0  0  0  0  0  0  0  0
   12.0113  -17.2227   24.2938 C   0  0  0  0  0  0  0  0  0  0  0  0
   12.2577  -18.0293   25.5139 C   0  0  0  0  0  0  0  0  0  0  0  0
   12.2861  -19.5378   25.1786 C   0  0  0  0  0  0  0  0  0  0  0  0
   12.6991  -20.2296   26.4810 C   0  0  0  0  0  0  0  0  0  0  0  0
   12.8406  -21.6527   26.2447 N   0  0  0  0  0  0  0  0  0  0  0  0
    9.9594  -16.2793   25.1917 C   0  0  0  0  0  0  0  0  0  0  0  0
    9.3888  -16.8710   26.3038 O   0  0  0  0  0  0  0  0  0  0  0  0
    9.9496  -15.0088   25.2071 O   0  0  0  0  0  0  0  0  0  0  0  0
  1  2  1  0
  2  3  2  0
  4  5  1  0
  4  2  1  0
  5  7  1  0
  5  6  1  6
  7 14  1  0
  7  8  2  0
 10 11  1  0
 10  9  1  0
 11 13  1  0
 11 12  1  1
 13 15  1  0
 13 14  1  6
 15 16  2  0
 17 18  1  0
 17 15  1  0
 18 24  1  0
 18 19  1  1
 20 19  1  0
 21 20  1  0
 22 21  1  0
 23 22  1  0
 24 25  1  0
 26 24  2  0
M  END
$$$$
