NIK.pdb
     RDKit          3D

 26 25  0  0  1  0  0  0  0  0999 V2000
    4.5483  -18.5406   21.8556 N   0  0  0  0  0  0  0  0  0  0  0  0
    5.9556  -18.6189   21.6766 C   0  0  0  0  0  0  0  0  0  0  0  0
    6.3809  -19.3665   20.7608 O   0  0  0  0  0  0  0  0  0  0  0  0
    6.8342  -17.8306   22.5612 C   0  0  0  0  0  0  0  0  0  0  0  0
    6.9071  -16.3772   22.1489 C   0  0  2  0  0  0  0  0  0  0  0  0
    7.5071  -16.2023   20.8533 N   0  0  0  0  0  0  0  0  0  0  0  0
    7.6610  -15.6512   23.1972 C   0  0  0  0  0  0  0  0  0  0  0  0
    8.9148  -15.6261   23.1474 O   0  0  0  0  0  0  0  0  0  0  0  0
    8.5025  -11.6350   27.0339 C   0  0  0  0  0  0  0  0  0  0  0  0
    7.3977  -12.5861   27.1426 C   0  0  0  0  0  0  0  0  0  0  0  0
    6.8987  -13.3492   26.0126 C   0  0  2  0  0  0  0  0  0  0  0  0
    5.4911  -13.9026   26.2222 C   0  0  0  0  0  0  0  0  0  0  0  0
    7.7992  -14.3049   25.3490 C   0  0  2  0  0  0  0  0  0  0  0  0
    7.0133  -14.9833   24.2560 N   0  0  0  0  0  0  0  0  0  0  0  0
    8.5049  -15.3393   26.0923 C   0  0  0  0  0  0  0  0  0  0  0  0
    7.8728  -16.4282   26.4403 O   0  0  0  0  0  0  0  0  0  0  0  0
    9.8527  -15.3675   26.5159 N   0  0  0  0  0  0  0  0  0  0  0  0
   10.4520  -16.5551   27.1307 C   0  0  1  0  0  0  0  0  0  0  0  0
   11.7155  -16.8837   26.3802 C   0  0  0  0  0  0  0  0  0  0  0  0
   12.4514  -18.0331   26.9611 C   0  0  0  0  0  0  0  0  0  0  0  0
   12.2772  -19.2954   26.0865 C   0  0  0  0  0  0  0  0  0  0  0  0
   13.5190  -19.3365   25.1911 C   0  0  0  0  0  0  0  0  0  0  0  0
   13.4913  -20.5421   24.3869 N   0  0  0  0  0  0  0  0  0  0  0  0
   10.7618  -16.2745   28.5311 C   0  0  0  0  0  0  0  0  0  0  0  0
   10.6365  -15.0576   29.1760 O   0  0  0  0  0  0  0  0  0  0  0  0
   11.1938  -17.2178   29.2645 O   0  0  0  0  0  0  0  0  0  0  0  0
  1  2  1  0
  2  3  2  0
  4  5  1  0
  4  2  1  0
  5  7  1  0
  5  6  1  6
  7 14  1  0
  7  8  2  0
 10 11  1  0
 10  9  1  0
 11 13  1  0
 11 12  1  1
 13 15  1  0
 13 14  1  6
 15 16  2  0
 17 18  1  0
 17 15  1  0
 18 24  1  0
 18 19  1  6
 20 19  1  0
 21 20  1  0
 22 21  1  0
 23 22  1  0
 24 25  1  0
 26 24  2  0
M  END
$$$$
