NIK.pdb
     RDKit          3D

 26 25  0  0  1  0  0  0  0  0999 V2000
    7.1831  -17.8288   18.8164 N   0  0  0  0  0  0  0  0  0  0  0  0
    6.5646  -17.1573   19.9051 C   0  0  0  0  0  0  0  0  0  0  0  0
    5.3275  -16.9518   19.8296 O   0  0  0  0  0  0  0  0  0  0  0  0
    7.3930  -16.7411   21.0525 C   0  0  0  0  0  0  0  0  0  0  0  0
    7.1603  -15.2958   21.4328 C   0  0  2  0  0  0  0  0  0  0  0  0
    7.4644  -14.3885   20.3588 N   0  0  0  0  0  0  0  0  0  0  0  0
    7.9816  -15.0100   22.6321 C   0  0  0  0  0  0  0  0  0  0  0  0
    9.2162  -14.8262   22.5025 O   0  0  0  0  0  0  0  0  0  0  0  0
    5.9735  -11.7316   26.2872 C   0  0  0  0  0  0  0  0  0  0  0  0
    6.9310  -12.5412   25.5357 C   0  0  0  0  0  0  0  0  0  0  0  0
    7.4682  -13.7946   26.0345 C   0  0  2  0  0  0  0  0  0  0  0  0
    8.0656  -13.6894   27.4357 C   0  0  0  0  0  0  0  0  0  0  0  0
    8.2697  -14.6330   25.1293 C   0  0  2  0  0  0  0  0  0  0  0  0
    7.4193  -14.9374   23.9225 N   0  0  0  0  0  0  0  0  0  0  0  0
    8.8722  -15.8829   25.5713 C   0  0  0  0  0  0  0  0  0  0  0  0
    8.1078  -16.8502   26.0025 O   0  0  0  0  0  0  0  0  0  0  0  0
   10.2361  -16.2513   25.6004 N   0  0  0  0  0  0  0  0  0  0  0  0
   10.6761  -17.5784   26.0392 C   0  0  1  0  0  0  0  0  0  0  0  0
   11.7159  -18.0718   25.0682 C   0  0  0  0  0  0  0  0  0  0  0  0
   12.9576  -17.2608   25.0882 C   0  0  0  0  0  0  0  0  0  0  0  0
   13.9858  -17.8054   24.0709 C   0  0  0  0  0  0  0  0  0  0  0  0
   15.1718  -16.8391   24.1442 C   0  0  0  0  0  0  0  0  0  0  0  0
   16.2194  -17.2964   23.2529 N   0  0  0  0  0  0  0  0  0  0  0  0
   11.2504  -17.4825   27.3796 C   0  0  0  0  0  0  0  0  0  0  0  0
   11.7011  -18.5306   28.1611 O   0  0  0  0  0  0  0  0  0  0  0  0
   11.3636  -16.3370   27.9178 O   0  0  0  0  0  0  0  0  0  0  0  0
  1  2  1  0
  2  3  2  0
  4  5  1  0
  4  2  1  0
  5  7  1  0
  5  6  1  6
  7 14  1  0
  7  8  2  0
 10 11  1  0
 10  9  1  0
 11 13  1  0
 11 12  1  1
 13 15  1  0
 13 14  1  6
 15 16  2  0
 17 18  1  0
 17 15  1  0
 18 24  1  0
 18 19  1  6
 20 19  1  0
 21 20  1  0
 22 21  1  0
 23 22  1  0
 24 25  1  0
 26 24  2  0
M  END
$$$$
