NIK.pdb
     RDKit          3D

 26 25  0  0  1  0  0  0  0  0999 V2000
    7.9794  -20.0802   16.9058 N   0  0  0  0  0  0  0  0  0  0  0  0
    7.6918  -20.2676   18.2845 C   0  0  0  0  0  0  0  0  0  0  0  0
    7.0575  -21.3031   18.6068 O   0  0  0  0  0  0  0  0  0  0  0  0
    8.1453  -19.2529   19.2542 C   0  0  0  0  0  0  0  0  0  0  0  0
    8.6523  -17.9992   18.5767 C   0  0  2  0  0  0  0  0  0  0  0  0
    9.7060  -18.2701   17.6356 N   0  0  0  0  0  0  0  0  0  0  0  0
    9.0997  -17.0663   19.6369 C   0  0  0  0  0  0  0  0  0  0  0  0
   10.3238  -16.9732   19.8978 O   0  0  0  0  0  0  0  0  0  0  0  0
    7.0143  -12.2521   19.6239 C   0  0  0  0  0  0  0  0  0  0  0  0
    7.9138  -13.3558   19.9555 C   0  0  0  0  0  0  0  0  0  0  0  0
    7.8701  -14.0551   21.2273 C   0  0  2  0  0  0  0  0  0  0  0  0
    7.9422  -13.1274   22.4380 C   0  0  0  0  0  0  0  0  0  0  0  0
    8.6707  -15.2783   21.3920 C   0  0  2  0  0  0  0  0  0  0  0  0
    8.1909  -16.2747   20.3676 N   0  0  0  0  0  0  0  0  0  0  0  0
    8.7638  -15.9697   22.6703 C   0  0  0  0  0  0  0  0  0  0  0  0
    7.7661  -16.7072   23.0786 O   0  0  0  0  0  0  0  0  0  0  0  0
    9.8306  -15.9863   23.5968 N   0  0  0  0  0  0  0  0  0  0  0  0
    9.9914  -17.0597   24.5814 C   0  0  1  0  0  0  0  0  0  0  0  0
   10.3495  -18.3224   23.8432 C   0  0  0  0  0  0  0  0  0  0  0  0
   10.6643  -19.4533   24.7497 C   0  0  0  0  0  0  0  0  0  0  0  0
   10.9972  -20.7284   23.9421 C   0  0  0  0  0  0  0  0  0  0  0  0
   11.2083  -21.8234   24.9918 C   0  0  0  0  0  0  0  0  0  0  0  0
   11.3239  -23.1075   24.3294 N   0  0  0  0  0  0  0  0  0  0  0  0
   11.0589  -16.7077   25.5154 C   0  0  0  0  0  0  0  0  0  0  0  0
   12.0256  -15.7353   25.3351 O   0  0  0  0  0  0  0  0  0  0  0  0
   11.1426  -17.3364   26.6164 O   0  0  0  0  0  0  0  0  0  0  0  0
  1  2  1  0
  2  3  2  0
  4  5  1  0
  4  2  1  0
  5  7  1  0
  5  6  1  6
  7 14  1  0
  7  8  2  0
 10 11  1  0
 10  9  1  0
 11 13  1  0
 11 12  1  1
 13 15  1  0
 13 14  1  6
 15 16  2  0
 17 18  1  0
 17 15  1  0
 18 24  1  0
 18 19  1  6
 20 19  1  0
 21 20  1  0
 22 21  1  0
 23 22  1  0
 24 25  1  0
 26 24  2  0
M  END
$$$$
