NIK.pdb
     RDKit          3D

 26 25  0  0  1  0  0  0  0  0999 V2000
    5.7075  -18.4742   20.5615 N   0  0  0  0  0  0  0  0  0  0  0  0
    7.0070  -17.9588   20.3079 C   0  0  0  0  0  0  0  0  0  0  0  0
    7.4323  -18.0190   19.1273 O   0  0  0  0  0  0  0  0  0  0  0  0
    7.7805  -17.3871   21.4263 C   0  0  0  0  0  0  0  0  0  0  0  0
    7.4873  -15.9179   21.6338 C   0  0  2  0  0  0  0  0  0  0  0  0
    7.8433  -15.1191   20.4917 N   0  0  0  0  0  0  0  0  0  0  0  0
    8.2163  -15.4823   22.8476 C   0  0  0  0  0  0  0  0  0  0  0  0
    9.4598  -15.3218   22.7939 O   0  0  0  0  0  0  0  0  0  0  0  0
    5.9387  -11.7446   25.7269 C   0  0  0  0  0  0  0  0  0  0  0  0
    6.9725  -12.6445   25.2185 C   0  0  0  0  0  0  0  0  0  0  0  0
    7.4724  -13.7796   25.9735 C   0  0  2  0  0  0  0  0  0  0  0  0
    7.9983  -13.4091   27.3583 C   0  0  0  0  0  0  0  0  0  0  0  0
    8.3117  -14.7740   25.2870 C   0  0  2  0  0  0  0  0  0  0  0  0
    7.5559  -15.2409   24.0692 N   0  0  0  0  0  0  0  0  0  0  0  0
    8.8192  -15.9551   25.9712 C   0  0  0  0  0  0  0  0  0  0  0  0
    7.9796  -16.8047   26.4999 O   0  0  0  0  0  0  0  0  0  0  0  0
   10.1575  -16.3680   26.1586 N   0  0  0  0  0  0  0  0  0  0  0  0
   10.5003  -17.6011   26.8724 C   0  0  1  0  0  0  0  0  0  0  0  0
   11.8319  -18.0835   26.3610 C   0  0  0  0  0  0  0  0  0  0  0  0
   11.7386  -19.3682   25.6257 C   0  0  0  0  0  0  0  0  0  0  0  0
   13.1309  -19.8189   25.1285 C   0  0  0  0  0  0  0  0  0  0  0  0
   12.8977  -21.1786   24.4634 C   0  0  0  0  0  0  0  0  0  0  0  0
   14.1610  -21.6995   23.9798 N   0  0  0  0  0  0  0  0  0  0  0  0
   10.5856  -17.3265   28.3053 C   0  0  0  0  0  0  0  0  0  0  0  0
   10.6454  -18.2615   29.3224 O   0  0  0  0  0  0  0  0  0  0  0  0
   10.6087  -16.1183   28.6979 O   0  0  0  0  0  0  0  0  0  0  0  0
  1  2  1  0
  2  3  2  0
  4  5  1  0
  4  2  1  0
  5  7  1  0
  5  6  1  6
  7 14  1  0
  7  8  2  0
 10 11  1  0
 10  9  1  0
 11 13  1  0
 11 12  1  1
 13 15  1  0
 13 14  1  6
 15 16  2  0
 17 18  1  0
 17 15  1  0
 18 24  1  0
 18 19  1  6
 20 19  1  0
 21 20  1  0
 22 21  1  0
 23 22  1  0
 24 25  1  0
 26 24  2  0
M  END
$$$$
