NIK.pdb
     RDKit          3D

 26 25  0  0  1  0  0  0  0  0999 V2000
    8.1269  -18.3766   19.1402 N   0  0  0  0  0  0  0  0  0  0  0  0
    7.3640  -17.6967   20.1273 C   0  0  0  0  0  0  0  0  0  0  0  0
    6.1422  -17.5207   19.8934 O   0  0  0  0  0  0  0  0  0  0  0  0
    8.0338  -17.2382   21.3589 C   0  0  0  0  0  0  0  0  0  0  0  0
    7.9391  -15.7394   21.5386 C   0  0  2  0  0  0  0  0  0  0  0  0
    8.5342  -15.0157   20.4471 N   0  0  0  0  0  0  0  0  0  0  0  0
    8.5843  -15.4009   22.8284 C   0  0  0  0  0  0  0  0  0  0  0  0
    9.8366  -15.4058   22.9097 O   0  0  0  0  0  0  0  0  0  0  0  0
    6.2995  -11.5274   25.6637 C   0  0  0  0  0  0  0  0  0  0  0  0
    7.2744  -12.4983   25.1697 C   0  0  0  0  0  0  0  0  0  0  0  0
    7.6672  -13.6760   25.9229 C   0  0  2  0  0  0  0  0  0  0  0  0
    8.1071  -13.3689   27.3525 C   0  0  0  0  0  0  0  0  0  0  0  0
    8.5093  -14.6888   25.2674 C   0  0  2  0  0  0  0  0  0  0  0  0
    7.8340  -15.0715   23.9752 N   0  0  0  0  0  0  0  0  0  0  0  0
    8.8987  -15.9187   25.9429 C   0  0  0  0  0  0  0  0  0  0  0  0
    7.9975  -16.8309   26.1917 O   0  0  0  0  0  0  0  0  0  0  0  0
   10.1769  -16.3206   26.3917 N   0  0  0  0  0  0  0  0  0  0  0  0
   10.4219  -17.6494   26.9588 C   0  0  1  0  0  0  0  0  0  0  0  0
   11.6670  -18.2079   26.3223 C   0  0  0  0  0  0  0  0  0  0  0  0
   12.0734  -19.5146   26.8945 C   0  0  0  0  0  0  0  0  0  0  0  0
   13.3729  -20.0244   26.2310 C   0  0  0  0  0  0  0  0  0  0  0  0
   13.6532  -21.3790   26.8885 C   0  0  0  0  0  0  0  0  0  0  0  0
   14.7387  -22.0368   26.1885 N   0  0  0  0  0  0  0  0  0  0  0  0
   10.6081  -17.5352   28.4039 C   0  0  0  0  0  0  0  0  0  0  0  0
   10.5288  -18.5596   29.3295 O   0  0  0  0  0  0  0  0  0  0  0  0
   10.8703  -16.3954   28.9003 O   0  0  0  0  0  0  0  0  0  0  0  0
  1  2  1  0
  2  3  2  0
  4  5  1  0
  4  2  1  0
  5  7  1  0
  5  6  1  6
  7 14  1  0
  7  8  2  0
 10 11  1  0
 10  9  1  0
 11 13  1  0
 11 12  1  1
 13 15  1  0
 13 14  1  6
 15 16  2  0
 17 18  1  0
 17 15  1  0
 18 24  1  0
 18 19  1  6
 20 19  1  0
 21 20  1  0
 22 21  1  0
 23 22  1  0
 24 25  1  0
 26 24  2  0
M  END
$$$$
