NIK.pdb
     RDKit          3D

 26 25  0  0  1  0  0  0  0  0999 V2000
    8.3139  -16.0832   17.5694 N   0  0  0  0  0  0  0  0  0  0  0  0
    7.8882  -16.6395   18.8055 C   0  0  0  0  0  0  0  0  0  0  0  0
    7.0130  -17.5399   18.7631 O   0  0  0  0  0  0  0  0  0  0  0  0
    8.4857  -16.1400   20.0582 C   0  0  0  0  0  0  0  0  0  0  0  0
    7.4668  -15.4663   20.9503 C   0  0  2  0  0  0  0  0  0  0  0  0
    6.7823  -14.3887   20.2874 N   0  0  0  0  0  0  0  0  0  0  0  0
    8.1751  -14.9936   22.1624 C   0  0  0  0  0  0  0  0  0  0  0  0
    9.3663  -14.6099   22.0684 O   0  0  0  0  0  0  0  0  0  0  0  0
    7.3026  -11.6306   27.0888 C   0  0  0  0  0  0  0  0  0  0  0  0
    7.9218  -12.8224   26.5116 C   0  0  0  0  0  0  0  0  0  0  0  0
    7.4603  -13.4330   25.2777 C   0  0  2  0  0  0  0  0  0  0  0  0
    5.9730  -13.7785   25.2854 C   0  0  0  0  0  0  0  0  0  0  0  0
    8.2887  -14.4730   24.6479 C   0  0  2  0  0  0  0  0  0  0  0  0
    7.5522  -14.9604   23.4263 N   0  0  0  0  0  0  0  0  0  0  0  0
    8.7444  -15.6435   25.3847 C   0  0  0  0  0  0  0  0  0  0  0  0
    7.8881  -16.5751   25.7090 O   0  0  0  0  0  0  0  0  0  0  0  0
   10.0481  -15.9657   25.8244 N   0  0  0  0  0  0  0  0  0  0  0  0
   10.3364  -17.1881   26.5796 C   0  0  1  0  0  0  0  0  0  0  0  0
   11.5924  -17.8001   26.0182 C   0  0  0  0  0  0  0  0  0  0  0  0
   11.4302  -18.2775   24.6233 C   0  0  0  0  0  0  0  0  0  0  0  0
   12.7394  -18.9149   24.1051 C   0  0  0  0  0  0  0  0  0  0  0  0
   12.4120  -19.4103   22.6933 C   0  0  0  0  0  0  0  0  0  0  0  0
   13.6244  -19.8892   22.0595 N   0  0  0  0  0  0  0  0  0  0  0  0
   10.5303  -16.8550   27.9894 C   0  0  0  0  0  0  0  0  0  0  0  0
   10.5049  -15.5909   28.5495 O   0  0  0  0  0  0  0  0  0  0  0  0
   10.7480  -17.7941   28.8170 O   0  0  0  0  0  0  0  0  0  0  0  0
  1  2  1  0
  2  3  2  0
  4  5  1  0
  4  2  1  0
  5  7  1  0
  5  6  1  6
  7 14  1  0
  7  8  2  0
 10 11  1  0
 10  9  1  0
 11 13  1  0
 11 12  1  1
 13 15  1  0
 13 14  1  6
 15 16  2  0
 17 18  1  0
 17 15  1  0
 18 24  1  0
 18 19  1  6
 20 19  1  0
 21 20  1  0
 22 21  1  0
 23 22  1  0
 24 25  1  0
 26 24  2  0
M  END
$$$$
