NIK.pdb
     RDKit          3D

 26 25  0  0  1  0  0  0  0  0999 V2000
    6.5152  -19.6279   15.9670 N   0  0  0  0  0  0  0  0  0  0  0  0
    6.9232  -20.1397   17.2281 C   0  0  0  0  0  0  0  0  0  0  0  0
    6.6531  -21.3407   17.4790 O   0  0  0  0  0  0  0  0  0  0  0  0
    7.6329  -19.2492   18.1658 C   0  0  0  0  0  0  0  0  0  0  0  0
    7.7938  -17.8494   17.6159 C   0  0  2  0  0  0  0  0  0  0  0  0
    8.4087  -17.8365   16.3154 N   0  0  0  0  0  0  0  0  0  0  0  0
    8.5851  -17.0707   18.5967 C   0  0  0  0  0  0  0  0  0  0  0  0
    9.8361  -17.0501   18.5001 O   0  0  0  0  0  0  0  0  0  0  0  0
    6.8910  -12.2074   20.0958 C   0  0  0  0  0  0  0  0  0  0  0  0
    7.7782  -13.3544   19.9111 C   0  0  0  0  0  0  0  0  0  0  0  0
    8.0279  -14.3353   20.9522 C   0  0  2  0  0  0  0  0  0  0  0  0
    8.4364  -13.7185   22.2880 C   0  0  0  0  0  0  0  0  0  0  0  0
    8.7970  -15.5441   20.6181 C   0  0  2  0  0  0  0  0  0  0  0  0
    7.9760  -16.3476   19.6421 N   0  0  0  0  0  0  0  0  0  0  0  0
    9.2791  -16.4567   21.6454 C   0  0  0  0  0  0  0  0  0  0  0  0
    8.4220  -17.1523   22.3438 O   0  0  0  0  0  0  0  0  0  0  0  0
   10.6090  -16.7428   22.0279 N   0  0  0  0  0  0  0  0  0  0  0  0
   10.9261  -17.7089   23.0831 C   0  0  1  0  0  0  0  0  0  0  0  0
   12.1261  -18.5054   22.6437 C   0  0  0  0  0  0  0  0  0  0  0  0
   12.4906  -19.5785   23.6004 C   0  0  0  0  0  0  0  0  0  0  0  0
   13.7692  -20.3143   23.1395 C   0  0  0  0  0  0  0  0  0  0  0  0
   13.9907  -21.4197   24.1762 C   0  0  0  0  0  0  0  0  0  0  0  0
   15.2678  -22.0596   23.9303 N   0  0  0  0  0  0  0  0  0  0  0  0
   11.2272  -16.9951   24.3223 C   0  0  0  0  0  0  0  0  0  0  0  0
   11.6912  -15.6972   24.4349 O   0  0  0  0  0  0  0  0  0  0  0  0
   11.0599  -17.5931   25.4308 O   0  0  0  0  0  0  0  0  0  0  0  0
  1  2  1  0
  2  3  2  0
  4  5  1  0
  4  2  1  0
  5  7  1  0
  5  6  1  6
  7 14  1  0
  7  8  2  0
 10 11  1  0
 10  9  1  0
 11 13  1  0
 11 12  1  1
 13 15  1  0
 13 14  1  6
 15 16  2  0
 17 18  1  0
 17 15  1  0
 18 24  1  0
 18 19  1  6
 20 19  1  0
 21 20  1  0
 22 21  1  0
 23 22  1  0
 24 25  1  0
 26 24  2  0
M  END
$$$$
