NIK.pdb
     RDKit          3D

 26 25  0  0  1  0  0  0  0  0999 V2000
    6.0494  -17.9307   19.5317 N   0  0  0  0  0  0  0  0  0  0  0  0
    7.3545  -17.4048   19.3350 C   0  0  0  0  0  0  0  0  0  0  0  0
    7.8280  -17.4538   18.1723 O   0  0  0  0  0  0  0  0  0  0  0  0
    8.0779  -16.8361   20.4879 C   0  0  0  0  0  0  0  0  0  0  0  0
    7.5007  -15.5092   20.9284 C   0  0  2  0  0  0  0  0  0  0  0  0
    7.6185  -14.4945   19.9156 N   0  0  0  0  0  0  0  0  0  0  0  0
    8.1927  -15.1116   22.1764 C   0  0  0  0  0  0  0  0  0  0  0  0
    9.4452  -15.1694   22.2305 O   0  0  0  0  0  0  0  0  0  0  0  0
    6.9818  -11.9875   27.4535 C   0  0  0  0  0  0  0  0  0  0  0  0
    7.7969  -12.8564   26.6063 C   0  0  0  0  0  0  0  0  0  0  0  0
    7.3147  -13.4200   25.3579 C   0  0  2  0  0  0  0  0  0  0  0  0
    5.8832  -13.9453   25.4367 C   0  0  0  0  0  0  0  0  0  0  0  0
    8.2071  -14.2973   24.5844 C   0  0  2  0  0  0  0  0  0  0  0  0
    7.4870  -14.6679   23.3130 N   0  0  0  0  0  0  0  0  0  0  0  0
    8.7625  -15.5192   25.1492 C   0  0  0  0  0  0  0  0  0  0  0  0
    8.0199  -16.5912   25.2229 O   0  0  0  0  0  0  0  0  0  0  0  0
   10.0617  -15.7563   25.6518 N   0  0  0  0  0  0  0  0  0  0  0  0
   10.4784  -17.0713   26.1465 C   0  0  1  0  0  0  0  0  0  0  0  0
   11.8097  -17.4044   25.5266 C   0  0  0  0  0  0  0  0  0  0  0  0
   12.3473  -18.7112   25.9774 C   0  0  0  0  0  0  0  0  0  0  0  0
   13.6948  -19.0188   25.2858 C   0  0  0  0  0  0  0  0  0  0  0  0
   14.0910  -20.4123   25.7829 C   0  0  0  0  0  0  0  0  0  0  0  0
   13.5215  -21.4150   24.9047 N   0  0  0  0  0  0  0  0  0  0  0  0
   10.6025  -17.0271   27.6020 C   0  0  0  0  0  0  0  0  0  0  0  0
   10.4606  -15.9128   28.4086 O   0  0  0  0  0  0  0  0  0  0  0  0
   10.8682  -18.1005   28.2277 O   0  0  0  0  0  0  0  0  0  0  0  0
  1  2  1  0
  2  3  2  0
  4  5  1  0
  4  2  1  0
  5  7  1  0
  5  6  1  6
  7 14  1  0
  7  8  2  0
 10 11  1  0
 10  9  1  0
 11 13  1  0
 11 12  1  1
 13 15  1  0
 13 14  1  6
 15 16  2  0
 17 18  1  0
 17 15  1  0
 18 24  1  0
 18 19  1  6
 20 19  1  0
 21 20  1  0
 22 21  1  0
 23 22  1  0
 24 25  1  0
 26 24  2  0
M  END
$$$$
