NIK.pdb
     RDKit          3D

 26 25  0  0  1  0  0  0  0  0999 V2000
    6.5899  -21.1852   18.1998 N   0  0  0  0  0  0  0  0  0  0  0  0
    7.2195  -20.0452   17.6317 C   0  0  0  0  0  0  0  0  0  0  0  0
    6.9402  -19.7650   16.4393 O   0  0  0  0  0  0  0  0  0  0  0  0
    8.1555  -19.2592   18.4575 C   0  0  0  0  0  0  0  0  0  0  0  0
    8.5279  -17.9450   17.8078 C   0  0  2  0  0  0  0  0  0  0  0  0
    9.4585  -18.1115   16.7236 N   0  0  0  0  0  0  0  0  0  0  0  0
    9.0783  -17.0632   18.8633 C   0  0  0  0  0  0  0  0  0  0  0  0
   10.3212  -16.9981   19.0239 O   0  0  0  0  0  0  0  0  0  0  0  0
    6.6230  -12.3260   19.6722 C   0  0  0  0  0  0  0  0  0  0  0  0
    7.6079  -13.4062   19.6721 C   0  0  0  0  0  0  0  0  0  0  0  0
    7.8996  -14.2089   20.8464 C   0  0  2  0  0  0  0  0  0  0  0  0
    8.1383  -13.3826   22.1080 C   0  0  0  0  0  0  0  0  0  0  0  0
    8.8281  -15.3428   20.7177 C   0  0  2  0  0  0  0  0  0  0  0  0
    8.2474  -16.2901   19.6990 N   0  0  0  0  0  0  0  0  0  0  0  0
    9.2414  -16.1323   21.8694 C   0  0  0  0  0  0  0  0  0  0  0  0
    8.3359  -16.7004   22.6202 O   0  0  0  0  0  0  0  0  0  0  0  0
   10.5463  -16.4151   22.3319 N   0  0  0  0  0  0  0  0  0  0  0  0
   10.7905  -17.1993   23.5455 C   0  0  1  0  0  0  0  0  0  0  0  0
   11.6707  -18.3653   23.1803 C   0  0  0  0  0  0  0  0  0  0  0  0
   11.1791  -19.1134   21.9976 C   0  0  0  0  0  0  0  0  0  0  0  0
   12.1031  -20.3117   21.6828 C   0  0  0  0  0  0  0  0  0  0  0  0
   11.5547  -20.9095   20.3837 C   0  0  0  0  0  0  0  0  0  0  0  0
   12.3433  -22.0697   20.0188 N   0  0  0  0  0  0  0  0  0  0  0  0
   11.4582  -16.3622   24.5401 C   0  0  0  0  0  0  0  0  0  0  0  0
   11.8934  -15.0612   24.3652 O   0  0  0  0  0  0  0  0  0  0  0  0
   11.6809  -16.8417   25.6954 O   0  0  0  0  0  0  0  0  0  0  0  0
  1  2  1  0
  2  3  2  0
  4  5  1  0
  4  2  1  0
  5  7  1  0
  5  6  1  6
  7 14  1  0
  7  8  2  0
 10 11  1  0
 10  9  1  0
 11 13  1  0
 11 12  1  1
 13 15  1  0
 13 14  1  6
 15 16  2  0
 17 18  1  0
 17 15  1  0
 18 24  1  0
 18 19  1  6
 20 19  1  0
 21 20  1  0
 22 21  1  0
 23 22  1  0
 24 25  1  0
 26 24  2  0
M  END
$$$$
