NIK.pdb
     RDKit          3D

 26 25  0  0  1  0  0  0  0  0999 V2000
    5.7629  -20.2678   17.4587 N   0  0  0  0  0  0  0  0  0  0  0  0
    7.0688  -20.0338   16.9502 C   0  0  0  0  0  0  0  0  0  0  0  0
    7.3543  -20.5396   15.8362 O   0  0  0  0  0  0  0  0  0  0  0  0
    8.0102  -19.2211   17.7434 C   0  0  0  0  0  0  0  0  0  0  0  0
    8.1360  -17.8100   17.2136 C   0  0  2  0  0  0  0  0  0  0  0  0
    8.8458  -17.7528   15.9637 N   0  0  0  0  0  0  0  0  0  0  0  0
    8.8074  -16.9983   18.2552 C   0  0  0  0  0  0  0  0  0  0  0  0
   10.0594  -17.0183   18.3386 O   0  0  0  0  0  0  0  0  0  0  0  0
    6.7027  -12.1535   19.7172 C   0  0  0  0  0  0  0  0  0  0  0  0
    7.6659  -13.2388   19.5396 C   0  0  0  0  0  0  0  0  0  0  0  0
    7.9134  -14.2486   20.5532 C   0  0  2  0  0  0  0  0  0  0  0  0
    8.1910  -13.6693   21.9384 C   0  0  0  0  0  0  0  0  0  0  0  0
    8.7832  -15.3879   20.2218 C   0  0  2  0  0  0  0  0  0  0  0  0
    8.0824  -16.1992   19.1621 N   0  0  0  0  0  0  0  0  0  0  0  0
    9.2611  -16.3119   21.2408 C   0  0  0  0  0  0  0  0  0  0  0  0
    8.4191  -17.1259   21.8192 O   0  0  0  0  0  0  0  0  0  0  0  0
   10.5741  -16.4946   21.7303 N   0  0  0  0  0  0  0  0  0  0  0  0
   10.9054  -17.5404   22.7020 C   0  0  1  0  0  0  0  0  0  0  0  0
   12.0747  -18.3236   22.1665 C   0  0  0  0  0  0  0  0  0  0  0  0
   12.5113  -19.4083   23.0789 C   0  0  0  0  0  0  0  0  0  0  0  0
   13.6699  -20.2185   22.4543 C   0  0  0  0  0  0  0  0  0  0  0  0
   13.9918  -21.3112   23.4780 C   0  0  0  0  0  0  0  0  0  0  0  0
   14.9807  -22.2135   22.9221 N   0  0  0  0  0  0  0  0  0  0  0  0
   11.2601  -16.9239   23.9787 C   0  0  0  0  0  0  0  0  0  0  0  0
   11.1733  -17.5080   25.2292 O   0  0  0  0  0  0  0  0  0  0  0  0
   11.6957  -15.7304   23.9835 O   0  0  0  0  0  0  0  0  0  0  0  0
  1  2  1  0
  2  3  2  0
  4  5  1  0
  4  2  1  0
  5  7  1  0
  5  6  1  6
  7 14  1  0
  7  8  2  0
 10 11  1  0
 10  9  1  0
 11 13  1  0
 11 12  1  1
 13 15  1  0
 13 14  1  6
 15 16  2  0
 17 18  1  0
 17 15  1  0
 18 24  1  0
 18 19  1  6
 20 19  1  0
 21 20  1  0
 22 21  1  0
 23 22  1  0
 24 25  1  0
 26 24  2  0
M  END
$$$$
