NIK.pdb
     RDKit          3D

 26 25  0  0  1  0  0  0  0  0999 V2000
    5.1034  -21.2672   26.4534 N   0  0  0  0  0  0  0  0  0  0  0  0
    5.5454  -20.7311   25.2140 C   0  0  0  0  0  0  0  0  0  0  0  0
    5.2381  -21.3594   24.1703 O   0  0  0  0  0  0  0  0  0  0  0  0
    6.3309  -19.4827   25.2142 C   0  0  0  0  0  0  0  0  0  0  0  0
    5.5737  -18.3292   24.5945 C   0  0  2  0  0  0  0  0  0  0  0  0
    4.9220  -18.6958   23.3657 N   0  0  0  0  0  0  0  0  0  0  0  0
    6.5351  -17.2213   24.3879 C   0  0  0  0  0  0  0  0  0  0  0  0
    7.1758  -17.1556   23.3108 O   0  0  0  0  0  0  0  0  0  0  0  0
    5.7532  -12.4119   26.7825 C   0  0  0  0  0  0  0  0  0  0  0  0
    6.3353  -13.3508   25.8251 C   0  0  0  0  0  0  0  0  0  0  0  0
    7.5605  -14.0856   26.0849 C   0  0  2  0  0  0  0  0  0  0  0  0
    8.7653  -13.1882   26.3585 C   0  0  0  0  0  0  0  0  0  0  0  0
    7.8867  -15.2431   25.2375 C   0  0  2  0  0  0  0  0  0  0  0  0
    6.7562  -16.2319   25.3671 N   0  0  0  0  0  0  0  0  0  0  0  0
    9.1350  -15.9779   25.3872 C   0  0  0  0  0  0  0  0  0  0  0  0
    9.4205  -16.5374   26.5325 O   0  0  0  0  0  0  0  0  0  0  0  0
   10.1492  -16.2123   24.4316 N   0  0  0  0  0  0  0  0  0  0  0  0
   11.1931  -17.2206   24.6340 C   0  0  1  0  0  0  0  0  0  0  0  0
   11.5575  -17.7936   23.2900 C   0  0  0  0  0  0  0  0  0  0  0  0
   12.5049  -16.9388   22.5339 C   0  0  0  0  0  0  0  0  0  0  0  0
   12.7471  -17.5071   21.1172 C   0  0  0  0  0  0  0  0  0  0  0  0
   13.7294  -16.5344   20.4582 C   0  0  0  0  0  0  0  0  0  0  0  0
   13.9485  -16.9323   19.0817 N   0  0  0  0  0  0  0  0  0  0  0  0
   12.3641  -16.5936   25.2435 C   0  0  0  0  0  0  0  0  0  0  0  0
   12.5475  -15.2435   25.4806 O   0  0  0  0  0  0  0  0  0  0  0  0
   13.3349  -17.3290   25.6055 O   0  0  0  0  0  0  0  0  0  0  0  0
  1  2  1  0
  2  3  2  0
  4  5  1  0
  4  2  1  0
  5  7  1  0
  5  6  1  6
  7 14  1  0
  7  8  2  0
 10 11  1  0
 10  9  1  0
 11 13  1  0
 11 12  1  6
 13 15  1  0
 13 14  1  1
 15 16  2  0
 17 18  1  0
 17 15  1  0
 18 24  1  0
 18 19  1  6
 20 19  1  0
 21 20  1  0
 22 21  1  0
 23 22  1  0
 24 25  1  0
 26 24  2  0
M  END
$$$$
