NIK.pdb
     RDKit          3D

 26 25  0  0  1  0  0  0  0  0999 V2000
    6.2088  -16.4225   19.3976 N   0  0  0  0  0  0  0  0  0  0  0  0
    6.8913  -17.3518   20.2279 C   0  0  0  0  0  0  0  0  0  0  0  0
    6.8056  -18.5682   19.9255 O   0  0  0  0  0  0  0  0  0  0  0  0
    7.6549  -16.8500   21.3858 C   0  0  0  0  0  0  0  0  0  0  0  0
    7.4782  -15.3614   21.5871 C   0  0  2  0  0  0  0  0  0  0  0  0
    7.9499  -14.5947   20.4650 N   0  0  0  0  0  0  0  0  0  0  0  0
    8.1880  -14.9901   22.8332 C   0  0  0  0  0  0  0  0  0  0  0  0
    9.4096  -14.7072   22.7843 O   0  0  0  0  0  0  0  0  0  0  0  0
    5.6875  -11.7087   25.9884 C   0  0  0  0  0  0  0  0  0  0  0  0
    6.8014  -12.4760   25.4338 C   0  0  0  0  0  0  0  0  0  0  0  0
    7.3616  -13.6428   26.0920 C   0  0  2  0  0  0  0  0  0  0  0  0
    7.8557  -13.3666   27.5101 C   0  0  0  0  0  0  0  0  0  0  0  0
    8.2621  -14.5226   25.3307 C   0  0  2  0  0  0  0  0  0  0  0  0
    7.5330  -14.9440   24.0804 N   0  0  0  0  0  0  0  0  0  0  0  0
    8.8513  -15.7161   25.9215 C   0  0  0  0  0  0  0  0  0  0  0  0
    8.0733  -16.6556   26.3887 O   0  0  0  0  0  0  0  0  0  0  0  0
   10.2152  -16.0540   26.0709 N   0  0  0  0  0  0  0  0  0  0  0  0
   10.6438  -17.3045   26.7034 C   0  0  1  0  0  0  0  0  0  0  0  0
   11.9494  -17.7212   26.0796 C   0  0  0  0  0  0  0  0  0  0  0  0
   11.8647  -17.8732   24.6066 C   0  0  0  0  0  0  0  0  0  0  0  0
   13.2518  -18.1979   24.0072 C   0  0  0  0  0  0  0  0  0  0  0  0
   13.0184  -18.3142   22.4980 C   0  0  0  0  0  0  0  0  0  0  0  0
   14.2786  -18.5907   21.8373 N   0  0  0  0  0  0  0  0  0  0  0  0
   10.8224  -17.0883   28.1377 C   0  0  0  0  0  0  0  0  0  0  0  0
   10.9360  -18.0639   29.1113 O   0  0  0  0  0  0  0  0  0  0  0  0
   10.8835  -15.8971   28.5755 O   0  0  0  0  0  0  0  0  0  0  0  0
  1  2  1  0
  2  3  2  0
  4  5  1  0
  4  2  1  0
  5  7  1  0
  5  6  1  6
  7 14  1  0
  7  8  2  0
 10 11  1  0
 10  9  1  0
 11 13  1  0
 11 12  1  1
 13 15  1  0
 13 14  1  6
 15 16  2  0
 17 18  1  0
 17 15  1  0
 18 24  1  0
 18 19  1  6
 20 19  1  0
 21 20  1  0
 22 21  1  0
 23 22  1  0
 24 25  1  0
 26 24  2  0
M  END
$$$$
