NIK.pdb
     RDKit          3D

 26 25  0  0  1  0  0  0  0  0999 V2000
    7.2943  -12.8297   18.3978 N   0  0  0  0  0  0  0  0  0  0  0  0
    7.9691  -13.9787   18.8911 C   0  0  0  0  0  0  0  0  0  0  0  0
    8.0337  -14.9799   18.1349 O   0  0  0  0  0  0  0  0  0  0  0  0
    8.5515  -13.9396   20.2457 C   0  0  0  0  0  0  0  0  0  0  0  0
    7.8758  -14.9107   21.1881 C   0  0  2  0  0  0  0  0  0  0  0  0
    6.4436  -14.7767   21.1823 N   0  0  0  0  0  0  0  0  0  0  0  0
    8.4352  -14.6851   22.5412 C   0  0  0  0  0  0  0  0  0  0  0  0
    9.6575  -14.4294   22.6666 O   0  0  0  0  0  0  0  0  0  0  0  0
    5.8977  -11.5582   25.7672 C   0  0  0  0  0  0  0  0  0  0  0  0
    6.9705  -12.3969   25.2355 C   0  0  0  0  0  0  0  0  0  0  0  0
    7.3440  -13.6698   25.8260 C   0  0  2  0  0  0  0  0  0  0  0  0
    7.7082  -13.5739   27.3058 C   0  0  0  0  0  0  0  0  0  0  0  0
    8.2329  -14.5677   25.0723 C   0  0  2  0  0  0  0  0  0  0  0  0
    7.6357  -14.7489   23.7002 N   0  0  0  0  0  0  0  0  0  0  0  0
    8.5976  -15.8858   25.5725 C   0  0  0  0  0  0  0  0  0  0  0  0
    7.6805  -16.8090   25.6855 O   0  0  0  0  0  0  0  0  0  0  0  0
    9.8655  -16.3670   25.9695 N   0  0  0  0  0  0  0  0  0  0  0  0
   10.0599  -17.7297   26.4723 C   0  0  1  0  0  0  0  0  0  0  0  0
   11.0755  -18.4121   25.5947 C   0  0  0  0  0  0  0  0  0  0  0  0
   11.3367  -19.8161   25.9956 C   0  0  0  0  0  0  0  0  0  0  0  0
   12.4631  -20.4324   25.1353 C   0  0  0  0  0  0  0  0  0  0  0  0
   12.5118  -21.9093   25.5380 C   0  0  0  0  0  0  0  0  0  0  0  0
   13.5082  -22.5926   24.7373 N   0  0  0  0  0  0  0  0  0  0  0  0
   10.5459  -17.6758   27.8495 C   0  0  0  0  0  0  0  0  0  0  0  0
   10.9662  -16.5492   28.5326 O   0  0  0  0  0  0  0  0  0  0  0  0
   10.6047  -18.7524   28.5217 O   0  0  0  0  0  0  0  0  0  0  0  0
  1  2  1  0
  2  3  2  0
  4  5  1  0
  4  2  1  0
  5  7  1  0
  5  6  1  1
  7 14  1  0
  7  8  2  0
 10 11  1  0
 10  9  1  0
 11 13  1  0
 11 12  1  1
 13 15  1  0
 13 14  1  6
 15 16  2  0
 17 18  1  0
 17 15  1  0
 18 24  1  0
 18 19  1  6
 20 19  1  0
 21 20  1  0
 22 21  1  0
 23 22  1  0
 24 25  1  0
 26 24  2  0
M  END
$$$$
