SLQ.pdb
     RDKit          3D

 24 23  0  0  1  0  0  0  0  0999 V2000
   11.0755  -19.6361   18.0621 O   0  0  0  0  0  0  0  0  0  0  0  0
    9.9601  -19.3717   17.2684 C   0  0  0  0  0  0  0  0  0  0  0  0
   10.1521  -18.0856   16.4887 C   0  0  2  0  0  0  0  0  0  0  0  0
   11.2386  -18.1810   15.5530 N   0  0  0  0  0  0  0  0  0  0  0  0
   10.4003  -16.9480   17.3957 C   0  0  0  0  0  0  0  0  0  0  0  0
   11.5173  -16.4073   17.4466 O   0  0  0  0  0  0  0  0  0  0  0  0
    6.9841  -12.7804   20.5208 C   0  0  0  0  0  0  0  0  0  0  0  0
    8.3422  -13.2925   20.1364 C   0  0  2  0  0  0  0  0  0  0  0  0
    8.9914  -12.1908   19.2826 C   0  0  0  0  0  0  0  0  0  0  0  0
    8.2244  -14.5612   19.3771 C   0  0  0  0  0  0  0  0  0  0  0  0
    9.4695  -15.3125   19.0647 C   0  0  2  0  0  0  0  0  0  0  0  0
    9.3379  -16.4637   18.2263 N   0  0  0  0  0  0  0  0  0  0  0  0
   10.2777  -15.5639   20.2737 C   0  0  0  0  0  0  0  0  0  0  0  0
   10.6613  -14.5901   20.9571 O   0  0  0  0  0  0  0  0  0  0  0  0
   14.5197  -13.6986   20.4671 N   0  0  0  0  0  0  0  0  0  0  0  0
   14.2742  -14.8198   21.3091 C   0  0  0  0  0  0  0  0  0  0  0  0
   15.2058  -15.4749   21.8150 O   0  0  0  0  0  0  0  0  0  0  0  0
   12.8436  -15.1785   21.5610 C   0  0  0  0  0  0  0  0  0  0  0  0
   12.7672  -16.6631   21.7486 C   0  0  0  0  0  0  0  0  0  0  0  0
   11.3624  -17.1002   21.9670 C   0  0  2  0  0  0  0  0  0  0  0  0
   10.6396  -16.8630   20.6961 N   0  0  0  0  0  0  0  0  0  0  0  0
   10.7051  -16.2534   22.9893 C   0  0  0  0  0  0  0  0  0  0  0  0
    9.7064  -15.5252   22.7979 O   0  0  0  0  0  0  0  0  0  0  0  0
   11.2003  -16.2218   24.3102 O   0  0  0  0  0  0  0  0  0  0  0  0
  2  1  1  0
  3  4  1  6
  3  2  1  0
  5  3  1  0
  6  5  2  0
  8  7  1  6
  8 10  1  0
  9  8  1  0
 11 10  1  1
 11 12  1  0
 12  5  1  0
 13 11  1  0
 14 13  2  0
 16 15  1  0
 16 18  1  0
 17 16  2  0
 20 19  1  6
 19 18  1  0
 20 21  1  0
 21 13  1  0
 22 24  1  0
 22 20  1  0
 23 22  2  0
M  END
$$$$
