SLQ.pdb
     RDKit          3D

 24 23  0  0  1  0  0  0  0  0999 V2000
    7.4886  -18.0656   23.1437 O   0  0  0  0  0  0  0  0  0  0  0  0
    6.6565  -17.1588   22.4884 C   0  0  0  0  0  0  0  0  0  0  0  0
    7.4138  -15.8911   22.1445 C   0  0  2  0  0  0  0  0  0  0  0  0
    8.4015  -16.1145   21.1249 N   0  0  0  0  0  0  0  0  0  0  0  0
    8.0765  -15.3294   23.3377 C   0  0  0  0  0  0  0  0  0  0  0  0
    9.3111  -15.3809   23.4629 O   0  0  0  0  0  0  0  0  0  0  0  0
    7.3163  -11.1585   25.0682 C   0  0  0  0  0  0  0  0  0  0  0  0
    6.3201  -12.1515   25.5935 C   0  0  2  0  0  0  0  0  0  0  0  0
    5.3685  -11.3630   26.5084 C   0  0  0  0  0  0  0  0  0  0  0  0
    7.0076  -13.2340   26.3388 C   0  0  0  0  0  0  0  0  0  0  0  0
    7.8424  -14.1965   25.5712 C   0  0  2  0  0  0  0  0  0  0  0  0
    7.2834  -14.7178   24.3625 N   0  0  0  0  0  0  0  0  0  0  0  0
    8.4192  -15.2397   26.4415 C   0  0  0  0  0  0  0  0  0  0  0  0
    9.0494  -14.8929   27.4637 O   0  0  0  0  0  0  0  0  0  0  0  0
    6.5787  -21.0297   26.3774 N   0  0  0  0  0  0  0  0  0  0  0  0
    7.5198  -21.1816   27.4346 C   0  0  0  0  0  0  0  0  0  0  0  0
    7.6318  -22.2523   28.0623 O   0  0  0  0  0  0  0  0  0  0  0  0
    8.3714  -19.9953   27.7602 C   0  0  0  0  0  0  0  0  0  0  0  0
    7.8965  -18.8446   26.9262 C   0  0  0  0  0  0  0  0  0  0  0  0
    8.7653  -17.6530   27.1197 C   0  0  2  0  0  0  0  0  0  0  0  0
    8.2904  -16.6204   26.1698 N   0  0  0  0  0  0  0  0  0  0  0  0
   10.1644  -17.9602   26.7426 C   0  0  0  0  0  0  0  0  0  0  0  0
   10.7164  -17.6345   25.6685 O   0  0  0  0  0  0  0  0  0  0  0  0
   10.9967  -18.6786   27.6270 O   0  0  0  0  0  0  0  0  0  0  0  0
  2  1  1  0
  3  4  1  6
  3  2  1  0
  5  3  1  0
  6  5  2  0
  8  7  1  1
  8 10  1  0
  9  8  1  0
 11 10  1  1
 11 12  1  0
 12  5  1  0
 13 11  1  0
 14 13  2  0
 16 15  1  0
 16 18  1  0
 17 16  2  0
 20 19  1  6
 19 18  1  0
 20 21  1  0
 21 13  1  0
 22 24  1  0
 22 20  1  0
 23 22  2  0
M  END
$$$$
