SLQ.pdb
     RDKit          3D

 24 23  0  0  1  0  0  0  0  0999 V2000
    7.3301  -17.7071   22.4811 O   0  0  0  0  0  0  0  0  0  0  0  0
    7.9223  -17.0734   21.3894 C   0  0  0  0  0  0  0  0  0  0  0  0
    7.9332  -15.5700   21.5857 C   0  0  2  0  0  0  0  0  0  0  0  0
    8.6137  -14.8929   20.5163 N   0  0  0  0  0  0  0  0  0  0  0  0
    8.5729  -15.2072   22.8654 C   0  0  0  0  0  0  0  0  0  0  0  0
    9.7912  -14.9728   22.9233 O   0  0  0  0  0  0  0  0  0  0  0  0
    7.8000  -11.6722   25.3601 C   0  0  0  0  0  0  0  0  0  0  0  0
    6.8196  -12.7772   25.6288 C   0  0  2  0  0  0  0  0  0  0  0  0
    5.7696  -12.1960   26.5900 C   0  0  0  0  0  0  0  0  0  0  0  0
    7.5061  -13.9480   26.2272 C   0  0  0  0  0  0  0  0  0  0  0  0
    8.3246  -14.8144   25.3373 C   0  0  2  0  0  0  0  0  0  0  0  0
    7.7763  -15.1252   24.0536 N   0  0  0  0  0  0  0  0  0  0  0  0
    8.8440  -15.9983   26.0492 C   0  0  0  0  0  0  0  0  0  0  0  0
    9.2775  -15.8610   27.2135 O   0  0  0  0  0  0  0  0  0  0  0  0
   12.2899  -18.4558   22.4855 N   0  0  0  0  0  0  0  0  0  0  0  0
   12.9498  -18.9598   23.6417 C   0  0  0  0  0  0  0  0  0  0  0  0
   14.0474  -19.5450   23.5660 O   0  0  0  0  0  0  0  0  0  0  0  0
   12.2654  -18.7554   24.9564 C   0  0  0  0  0  0  0  0  0  0  0  0
   11.0384  -17.9304   24.7136 C   0  0  0  0  0  0  0  0  0  0  0  0
    9.9862  -18.2324   25.7206 C   0  0  2  0  0  0  0  0  0  0  0  0
    8.8734  -17.2873   25.4709 N   0  0  0  0  0  0  0  0  0  0  0  0
   10.4778  -17.9514   27.0894 C   0  0  0  0  0  0  0  0  0  0  0  0
   10.3671  -18.7158   28.0732 O   0  0  0  0  0  0  0  0  0  0  0  0
   11.1354  -16.7353   27.3719 O   0  0  0  0  0  0  0  0  0  0  0  0
  2  1  1  0
  3  4  1  6
  3  2  1  0
  5  3  1  0
  6  5  2  0
  8  7  1  1
  8 10  1  0
  9  8  1  0
 11 10  1  1
 11 12  1  0
 12  5  1  0
 13 11  1  0
 14 13  2  0
 16 15  1  0
 16 18  1  0
 17 16  2  0
 20 19  1  6
 19 18  1  0
 20 21  1  0
 21 13  1  0
 22 24  1  0
 22 20  1  0
 23 22  2  0
M  END
$$$$
