SLQ.pdb
     RDKit          3D

 24 23  0  0  1  0  0  0  0  0999 V2000
    9.3047  -20.1371   16.8956 O   0  0  0  0  0  0  0  0  0  0  0  0
   10.3027  -19.1649   16.9484 C   0  0  0  0  0  0  0  0  0  0  0  0
    9.8295  -17.8780   16.3011 C   0  0  2  0  0  0  0  0  0  0  0  0
   10.4153  -17.6816   15.0037 N   0  0  0  0  0  0  0  0  0  0  0  0
   10.1433  -16.7116   17.1493 C   0  0  0  0  0  0  0  0  0  0  0  0
   11.2271  -16.1157   17.0355 O   0  0  0  0  0  0  0  0  0  0  0  0
    7.0421  -12.9456   21.0738 C   0  0  0  0  0  0  0  0  0  0  0  0
    8.3183  -13.2716   20.3530 C   0  0  2  0  0  0  0  0  0  0  0  0
    8.6235  -12.0638   19.4517 C   0  0  0  0  0  0  0  0  0  0  0  0
    8.1630  -14.5120   19.5546 C   0  0  0  0  0  0  0  0  0  0  0  0
    9.3729  -15.0915   18.9124 C   0  0  2  0  0  0  0  0  0  0  0  0
    9.1841  -16.2635   18.1149 N   0  0  0  0  0  0  0  0  0  0  0  0
   10.4959  -15.2105   19.8627 C   0  0  0  0  0  0  0  0  0  0  0  0
   10.8710  -14.1933   20.4848 O   0  0  0  0  0  0  0  0  0  0  0  0
   14.8522  -13.7147   18.6779 N   0  0  0  0  0  0  0  0  0  0  0  0
   15.1430  -14.7101   19.6530 C   0  0  0  0  0  0  0  0  0  0  0  0
   16.1709  -14.6576   20.3555 O   0  0  0  0  0  0  0  0  0  0  0  0
   14.1569  -15.8261   19.7980 C   0  0  0  0  0  0  0  0  0  0  0  0
   13.1968  -15.4538   20.8865 C   0  0  0  0  0  0  0  0  0  0  0  0
   12.2239  -16.5508   21.1360 C   0  0  2  0  0  0  0  0  0  0  0  0
   11.1700  -16.4291   20.1023 N   0  0  0  0  0  0  0  0  0  0  0  0
   11.5537  -16.3667   22.4441 C   0  0  0  0  0  0  0  0  0  0  0  0
   11.9620  -15.6370   23.3742 O   0  0  0  0  0  0  0  0  0  0  0  0
   10.3487  -17.0446   22.7260 O   0  0  0  0  0  0  0  0  0  0  0  0
  2  1  1  0
  3  4  1  6
  3  2  1  0
  5  3  1  0
  6  5  2  0
  8  7  1  6
  8 10  1  0
  9  8  1  0
 11 10  1  1
 11 12  1  0
 12  5  1  0
 13 11  1  0
 14 13  2  0
 16 15  1  0
 16 18  1  0
 17 16  2  0
 20 19  1  6
 19 18  1  0
 20 21  1  0
 21 13  1  0
 22 24  1  0
 22 20  1  0
 23 22  2  0
M  END
$$$$
