SLQ.pdb
     RDKit          3D

 24 23  0  0  1  0  0  0  0  0999 V2000
    8.2230  -18.1753   22.6685 O   0  0  0  0  0  0  0  0  0  0  0  0
    7.1914  -17.7651   21.8250 C   0  0  0  0  0  0  0  0  0  0  0  0
    7.4095  -16.3350   21.3708 C   0  0  2  0  0  0  0  0  0  0  0  0
    8.3168  -16.2561   20.2593 N   0  0  0  0  0  0  0  0  0  0  0  0
    7.9296  -15.5024   22.4730 C   0  0  0  0  0  0  0  0  0  0  0  0
    9.1349  -15.2093   22.5344 O   0  0  0  0  0  0  0  0  0  0  0  0
    5.5799  -11.8742   26.9905 C   0  0  0  0  0  0  0  0  0  0  0  0
    6.7808  -12.3797   26.2443 C   0  0  2  0  0  0  0  0  0  0  0  0
    7.4389  -11.1468   25.6032 C   0  0  0  0  0  0  0  0  0  0  0  0
    6.3761  -13.3686   25.2155 C   0  0  0  0  0  0  0  0  0  0  0  0
    7.4407  -14.1608   24.5436 C   0  0  2  0  0  0  0  0  0  0  0  0
    7.0306  -15.0279   23.4829 N   0  0  0  0  0  0  0  0  0  0  0  0
    8.3348  -14.8170   25.5175 C   0  0  0  0  0  0  0  0  0  0  0  0
    8.2621  -14.4882   26.7212 O   0  0  0  0  0  0  0  0  0  0  0  0
    7.3368  -19.2158   27.8262 N   0  0  0  0  0  0  0  0  0  0  0  0
    8.6015  -19.1955   28.4793 C   0  0  0  0  0  0  0  0  0  0  0  0
    8.8272  -19.8880   29.4904 O   0  0  0  0  0  0  0  0  0  0  0  0
    9.6516  -18.3032   27.8963 C   0  0  0  0  0  0  0  0  0  0  0  0
    9.0246  -17.5206   26.7829 C   0  0  0  0  0  0  0  0  0  0  0  0
   10.0119  -16.6005   26.1577 C   0  0  2  0  0  0  0  0  0  0  0  0
    9.2745  -15.8058   25.1485 N   0  0  0  0  0  0  0  0  0  0  0  0
   11.0435  -17.3653   25.4193 C   0  0  0  0  0  0  0  0  0  0  0  0
   12.0023  -17.9800   25.9363 O   0  0  0  0  0  0  0  0  0  0  0  0
   10.9958  -17.4453   24.0113 O   0  0  0  0  0  0  0  0  0  0  0  0
  2  1  1  0
  3  4  1  6
  3  2  1  0
  5  3  1  0
  6  5  2  0
  8  7  1  6
  8 10  1  0
  9  8  1  0
 11 10  1  1
 11 12  1  0
 12  5  1  0
 13 11  1  0
 14 13  2  0
 16 15  1  0
 16 18  1  0
 17 16  2  0
 20 19  1  6
 19 18  1  0
 20 21  1  0
 21 13  1  0
 22 24  1  0
 22 20  1  0
 23 22  2  0
M  END
$$$$
