SLQ.pdb
     RDKit          3D

 24 23  0  0  1  0  0  0  0  0999 V2000
    8.1066  -18.8118   22.8410 O   0  0  0  0  0  0  0  0  0  0  0  0
    6.8433  -18.2824   22.5806 C   0  0  0  0  0  0  0  0  0  0  0  0
    6.9526  -17.0358   21.7243 C   0  0  2  0  0  0  0  0  0  0  0  0
    7.3962  -17.3365   20.3909 N   0  0  0  0  0  0  0  0  0  0  0  0
    7.8790  -16.0580   22.3276 C   0  0  0  0  0  0  0  0  0  0  0  0
    9.0528  -15.9664   21.9324 O   0  0  0  0  0  0  0  0  0  0  0  0
    5.9391  -12.9672   26.5417 C   0  0  0  0  0  0  0  0  0  0  0  0
    7.3691  -13.1280   26.1131 C   0  0  2  0  0  0  0  0  0  0  0  0
    8.1502  -11.9865   26.7846 C   0  0  0  0  0  0  0  0  0  0  0  0
    7.4806  -13.0588   24.6356 C   0  0  0  0  0  0  0  0  0  0  0  0
    8.2077  -14.1497   23.9329 C   0  0  2  0  0  0  0  0  0  0  0  0
    7.4157  -15.2053   23.3819 N   0  0  0  0  0  0  0  0  0  0  0  0
    9.3595  -14.6363   24.7169 C   0  0  0  0  0  0  0  0  0  0  0  0
   10.1676  -13.8044   25.1831 O   0  0  0  0  0  0  0  0  0  0  0  0
    9.8587  -15.2841   29.6544 N   0  0  0  0  0  0  0  0  0  0  0  0
   11.0957  -15.9765   29.5245 C   0  0  0  0  0  0  0  0  0  0  0  0
   11.8713  -16.1175   30.4896 O   0  0  0  0  0  0  0  0  0  0  0  0
   11.4248  -16.5296   28.1738 C   0  0  0  0  0  0  0  0  0  0  0  0
   10.4120  -16.0050   27.2021 C   0  0  0  0  0  0  0  0  0  0  0  0
   10.7088  -16.4705   25.8210 C   0  0  2  0  0  0  0  0  0  0  0  0
    9.5914  -16.0079   24.9658 N   0  0  0  0  0  0  0  0  0  0  0  0
   10.7034  -17.9503   25.7564 C   0  0  0  0  0  0  0  0  0  0  0  0
    9.7677  -18.6559   25.3194 O   0  0  0  0  0  0  0  0  0  0  0  0
   11.8191  -18.6849   26.2111 O   0  0  0  0  0  0  0  0  0  0  0  0
  2  1  1  0
  3  4  1  6
  3  2  1  0
  5  3  1  0
  6  5  2  0
  8  7  1  6
  8 10  1  0
  9  8  1  0
 11 10  1  1
 11 12  1  0
 12  5  1  0
 13 11  1  0
 14 13  2  0
 16 15  1  0
 16 18  1  0
 17 16  2  0
 20 19  1  1
 19 18  1  0
 20 21  1  0
 21 13  1  0
 22 24  1  0
 22 20  1  0
 23 22  2  0
M  END
$$$$
