SLQ.pdb
     RDKit          3D

 24 23  0  0  1  0  0  0  0  0999 V2000
    6.6215  -16.7320   21.2244 O   0  0  0  0  0  0  0  0  0  0  0  0
    7.3107  -15.8496   20.3935 C   0  0  0  0  0  0  0  0  0  0  0  0
    7.3545  -14.4632   21.0058 C   0  0  2  0  0  0  0  0  0  0  0  0
    8.0056  -13.5151   20.1443 N   0  0  0  0  0  0  0  0  0  0  0  0
    8.0479  -14.4808   22.3085 C   0  0  0  0  0  0  0  0  0  0  0  0
    9.2840  -14.5845   22.3696 O   0  0  0  0  0  0  0  0  0  0  0  0
    7.9389  -11.4730   25.9670 C   0  0  0  0  0  0  0  0  0  0  0  0
    6.7374  -12.3551   25.7853 C   0  0  2  0  0  0  0  0  0  0  0  0
    5.7292  -11.9369   26.8683 C   0  0  0  0  0  0  0  0  0  0  0  0
    7.1141  -13.7829   25.9246 C   0  0  0  0  0  0  0  0  0  0  0  0
    7.8746  -14.4214   24.8171 C   0  0  2  0  0  0  0  0  0  0  0  0
    7.2832  -14.3769   23.5159 N   0  0  0  0  0  0  0  0  0  0  0  0
    8.3621  -15.7642   25.1879 C   0  0  0  0  0  0  0  0  0  0  0  0
    7.5448  -16.7079   25.2490 O   0  0  0  0  0  0  0  0  0  0  0  0
   13.9364  -17.7549   24.1185 N   0  0  0  0  0  0  0  0  0  0  0  0
   12.8869  -17.7538   23.1567 C   0  0  0  0  0  0  0  0  0  0  0  0
   13.1187  -17.8347   21.9350 O   0  0  0  0  0  0  0  0  0  0  0  0
   11.4885  -17.6510   23.6789 C   0  0  0  0  0  0  0  0  0  0  0  0
   11.5625  -17.5086   25.1687 C   0  0  0  0  0  0  0  0  0  0  0  0
   10.2024  -17.4038   25.7613 C   0  0  2  0  0  0  0  0  0  0  0  0
    9.7187  -16.0326   25.4786 N   0  0  0  0  0  0  0  0  0  0  0  0
   10.2641  -17.5327   27.2357 C   0  0  0  0  0  0  0  0  0  0  0  0
   10.6370  -18.5491   27.8620 O   0  0  0  0  0  0  0  0  0  0  0  0
    9.8830  -16.4522   28.0594 O   0  0  0  0  0  0  0  0  0  0  0  0
  2  1  1  0
  3  4  1  6
  3  2  1  0
  5  3  1  0
  6  5  2  0
  8  7  1  1
  8 10  1  0
  9  8  1  0
 11 10  1  1
 11 12  1  0
 12  5  1  0
 13 11  1  0
 14 13  2  0
 16 15  1  0
 16 18  1  0
 17 16  2  0
 20 19  1  6
 19 18  1  0
 20 21  1  0
 21 13  1  0
 22 24  1  0
 22 20  1  0
 23 22  2  0
M  END
$$$$
