SLQ.pdb
     RDKit          3D

 24 23  0  0  1  0  0  0  0  0999 V2000
    8.6027  -20.5193   17.4282 O   0  0  0  0  0  0  0  0  0  0  0  0
    9.2356  -19.6887   18.3521 C   0  0  0  0  0  0  0  0  0  0  0  0
    9.2773  -18.2602   17.8455 C   0  0  2  0  0  0  0  0  0  0  0  0
   10.1093  -18.1265   16.6815 N   0  0  0  0  0  0  0  0  0  0  0  0
    9.7666  -17.3411   18.8915 C   0  0  0  0  0  0  0  0  0  0  0  0
   10.9821  -17.1301   19.0348 O   0  0  0  0  0  0  0  0  0  0  0  0
    8.3603  -12.9377   19.6414 C   0  0  0  0  0  0  0  0  0  0  0  0
    7.4495  -13.9808   20.2217 C   0  0  2  0  0  0  0  0  0  0  0  0
    6.2743  -13.2199   20.8574 C   0  0  0  0  0  0  0  0  0  0  0  0
    8.1687  -14.7975   21.2296 C   0  0  0  0  0  0  0  0  0  0  0  0
    9.2138  -15.7428   20.7533 C   0  0  2  0  0  0  0  0  0  0  0  0
    8.8255  -16.6856   19.7506 N   0  0  0  0  0  0  0  0  0  0  0  0
    9.9506  -16.3578   21.8746 C   0  0  0  0  0  0  0  0  0  0  0  0
    9.5394  -17.4397   22.3463 O   0  0  0  0  0  0  0  0  0  0  0  0
   16.5751  -16.3176   24.3722 N   0  0  0  0  0  0  0  0  0  0  0  0
   15.3368  -16.8675   23.9356 C   0  0  0  0  0  0  0  0  0  0  0  0
   15.2844  -17.7341   23.0416 O   0  0  0  0  0  0  0  0  0  0  0  0
   14.0966  -16.3577   24.5994 C   0  0  0  0  0  0  0  0  0  0  0  0
   13.2197  -15.7611   23.5410 C   0  0  0  0  0  0  0  0  0  0  0  0
   11.9216  -16.4822   23.4568 C   0  0  2  0  0  0  0  0  0  0  0  0
   11.1063  -15.7754   22.4421 N   0  0  0  0  0  0  0  0  0  0  0  0
   11.1830  -16.3788   24.7366 C   0  0  0  0  0  0  0  0  0  0  0  0
   10.2593  -15.5713   24.9801 O   0  0  0  0  0  0  0  0  0  0  0  0
   11.5014  -17.2359   25.8113 O   0  0  0  0  0  0  0  0  0  0  0  0
  2  1  1  0
  3  4  1  6
  3  2  1  0
  5  3  1  0
  6  5  2  0
  8  7  1  1
  8 10  1  0
  9  8  1  0
 11 10  1  1
 11 12  1  0
 12  5  1  0
 13 11  1  0
 14 13  2  0
 16 15  1  0
 16 18  1  0
 17 16  2  0
 20 19  1  1
 19 18  1  0
 20 21  1  0
 21 13  1  0
 22 24  1  0
 22 20  1  0
 23 22  2  0
M  END
$$$$
