SLQ.pdb
     RDKit          3D

 24 23  0  0  1  0  0  0  0  0999 V2000
    7.5582  -18.3658   23.2922 O   0  0  0  0  0  0  0  0  0  0  0  0
    7.7430  -18.0989   21.9363 C   0  0  0  0  0  0  0  0  0  0  0  0
    7.2335  -16.7134   21.5902 C   0  0  2  0  0  0  0  0  0  0  0  0
    7.5326  -16.3542   20.2313 N   0  0  0  0  0  0  0  0  0  0  0  0
    7.8094  -15.6965   22.4917 C   0  0  0  0  0  0  0  0  0  0  0  0
    8.9098  -15.1768   22.2436 O   0  0  0  0  0  0  0  0  0  0  0  0
    5.8939  -12.0271   27.1550 C   0  0  0  0  0  0  0  0  0  0  0  0
    7.0089  -12.4800   26.2571 C   0  0  2  0  0  0  0  0  0  0  0  0
    7.4371  -11.2451   25.4472 C   0  0  0  0  0  0  0  0  0  0  0  0
    6.5487  -13.5733   25.3667 C   0  0  0  0  0  0  0  0  0  0  0  0
    7.5693  -14.3186   24.5823 C   0  0  2  0  0  0  0  0  0  0  0  0
    7.0880  -15.3060   23.6666 N   0  0  0  0  0  0  0  0  0  0  0  0
    8.6705  -14.8057   25.4358 C   0  0  0  0  0  0  0  0  0  0  0  0
    9.1866  -14.0222   26.2616 O   0  0  0  0  0  0  0  0  0  0  0  0
    9.0570  -20.0316   27.9671 N   0  0  0  0  0  0  0  0  0  0  0  0
    9.9200  -19.2490   28.7851 C   0  0  0  0  0  0  0  0  0  0  0  0
   10.2013  -19.5873   29.9510 O   0  0  0  0  0  0  0  0  0  0  0  0
   10.4764  -17.9981   28.1816 C   0  0  0  0  0  0  0  0  0  0  0  0
    9.9262  -17.8722   26.7936 C   0  0  0  0  0  0  0  0  0  0  0  0
   10.3191  -16.5750   26.1811 C   0  0  2  0  0  0  0  0  0  0  0  0
    9.1704  -16.1254   25.3612 N   0  0  0  0  0  0  0  0  0  0  0  0
   11.4548  -16.7609   25.2484 C   0  0  0  0  0  0  0  0  0  0  0  0
   12.6649  -16.7483   25.5642 O   0  0  0  0  0  0  0  0  0  0  0  0
   11.2171  -16.9743   23.8740 O   0  0  0  0  0  0  0  0  0  0  0  0
  2  1  1  0
  3  4  1  6
  3  2  1  0
  5  3  1  0
  6  5  2  0
  8  7  1  1
  8 10  1  0
  9  8  1  0
 11 10  1  1
 11 12  1  0
 12  5  1  0
 13 11  1  0
 14 13  2  0
 16 15  1  0
 16 18  1  0
 17 16  2  0
 20 19  1  6
 19 18  1  0
 20 21  1  0
 21 13  1  0
 22 24  1  0
 22 20  1  0
 23 22  2  0
M  END
$$$$
