YAP.pdb
     RDKit          3D

 25 26  0  0  1  0  0  0  0  0999 V2000
   10.7913  -16.8904   31.3470 O   0  0  0  0  0  0  0  0  0  0  0  0
   10.2642  -16.3008   30.2095 C   0  0  0  0  0  0  0  0  0  0  0  0
    9.5796  -17.0901   29.2754 C   0  0  0  0  0  0  0  0  0  0  0  0
    9.0586  -16.4971   28.1448 C   0  0  0  0  0  0  0  0  0  0  0  0
    9.1907  -15.1279   27.9015 C   0  0  0  0  0  0  0  0  0  0  0  0
    8.6448  -14.4949   26.6796 C   0  0  0  0  0  0  0  0  0  0  0  0
    8.3471  -15.5450   25.6057 C   0  0  2  0  0  0  0  0  0  0  0  0
    9.3137  -16.6407   25.7324 N   0  0  0  0  0  0  0  0  0  0  0  0
    8.4620  -14.9378   24.2528 C   0  0  0  0  0  0  0  0  0  0  0  0
    7.6468  -14.0401   23.9592 O   0  0  0  0  0  0  0  0  0  0  0  0
    9.8699  -14.3691   28.8407 C   0  0  0  0  0  0  0  0  0  0  0  0
   10.3980  -14.9502   29.9756 C   0  0  0  0  0  0  0  0  0  0  0  0
   10.9950  -15.0213   21.4879 C   0  0  0  0  0  0  0  0  0  0  0  0
    9.5968  -14.7096   22.0569 C   0  0  2  0  0  0  0  0  0  0  0  0
    9.4509  -15.3595   23.3577 N   0  0  0  0  0  0  0  0  0  0  0  0
    8.5472  -15.1331   21.0979 C   0  0  0  0  0  0  0  0  0  0  0  0
    7.7566  -16.1021   21.3842 O   0  0  0  0  0  0  0  0  0  0  0  0
    8.3681  -14.5088   19.8553 N   0  0  0  0  0  0  0  0  0  0  0  0
    9.1570  -13.4338   19.2845 C   0  0  0  0  0  0  0  0  0  0  0  0
    8.2152  -12.6932   18.3620 C   0  0  0  0  0  0  0  0  0  0  0  0
    6.8973  -13.4056   18.5284 C   0  0  0  0  0  0  0  0  0  0  0  0
    7.3132  -14.8198   18.8802 C   0  0  1  0  0  0  0  0  0  0  0  0
    7.9291  -15.3826   17.6350 C   0  0  0  0  0  0  0  0  0  0  0  0
    7.2880  -15.9453   16.7235 O   0  0  0  0  0  0  0  0  0  0  0  0
    9.3082  -15.2615   17.5021 O   0  0  0  0  0  0  0  0  0  0  0  0
  2  1  1  0
  2 12  2  0
  3  2  1  0
  4  3  2  0
  4  5  1  0
  5 11  2  0
  6  5  1  0
  6  7  1  0
  7  8  1  6
  9 15  1  0
  9  7  1  0
 10  9  2  0
 11 12  1  0
 14 13  1  6
 14 16  1  0
 14 15  1  0
 16 17  2  0
 18 22  1  0
 18 16  1  0
 19 18  1  0
 20 19  1  0
 20 21  1  0
 21 22  1  0
 22 23  1  6
 23 24  2  0
 23 25  1  0
M  END
$$$$
