YAP.pdb
     RDKit          3D

 25 26  0  0  1  0  0  0  0  0999 V2000
   10.1291  -14.5847   30.3189 O   0  0  0  0  0  0  0  0  0  0  0  0
    9.9051  -14.7543   28.9623 C   0  0  0  0  0  0  0  0  0  0  0  0
   10.1266  -16.0081   28.3763 C   0  0  0  0  0  0  0  0  0  0  0  0
    9.9027  -16.1696   27.0253 C   0  0  0  0  0  0  0  0  0  0  0  0
    9.4585  -15.1186   26.2195 C   0  0  0  0  0  0  0  0  0  0  0  0
    9.2338  -15.2890   24.7662 C   0  0  0  0  0  0  0  0  0  0  0  0
    7.7548  -15.1036   24.4158 C   0  0  2  0  0  0  0  0  0  0  0  0
    6.9872  -16.2104   24.9960 N   0  0  0  0  0  0  0  0  0  0  0  0
    7.5772  -15.0991   22.9390 C   0  0  0  0  0  0  0  0  0  0  0  0
    7.4139  -16.2029   22.3807 O   0  0  0  0  0  0  0  0  0  0  0  0
    9.2452  -13.8899   26.8227 C   0  0  0  0  0  0  0  0  0  0  0  0
    9.4670  -13.7139   28.1735 C   0  0  0  0  0  0  0  0  0  0  0  0
    7.9289  -12.4811   20.2520 C   0  0  0  0  0  0  0  0  0  0  0  0
    7.6848  -13.9159   20.7595 C   0  0  2  0  0  0  0  0  0  0  0  0
    7.5884  -13.9006   22.2177 N   0  0  0  0  0  0  0  0  0  0  0  0
    8.7587  -14.8193   20.2783 C   0  0  0  0  0  0  0  0  0  0  0  0
    9.5725  -15.3628   21.1081 O   0  0  0  0  0  0  0  0  0  0  0  0
    8.9357  -15.1202   18.9205 N   0  0  0  0  0  0  0  0  0  0  0  0
    8.2179  -14.5618   17.7907 C   0  0  0  0  0  0  0  0  0  0  0  0
    8.2554  -15.6330   16.7240 C   0  0  0  0  0  0  0  0  0  0  0  0
    8.9778  -16.7825   17.3790 C   0  0  0  0  0  0  0  0  0  0  0  0
    9.8914  -16.0930   18.3722 C   0  0  1  0  0  0  0  0  0  0  0  0
   10.9198  -15.3785   17.5484 C   0  0  0  0  0  0  0  0  0  0  0  0
   11.9806  -15.8956   17.1412 O   0  0  0  0  0  0  0  0  0  0  0  0
   10.6592  -14.0513   17.2249 O   0  0  0  0  0  0  0  0  0  0  0  0
  2  1  1  0
  2 12  2  0
  3  2  1  0
  4  3  2  0
  4  5  1  0
  5 11  2  0
  6  5  1  0
  6  7  1  0
  7  8  1  1
  9 15  1  0
  9  7  1  0
 10  9  2  0
 11 12  1  0
 14 13  1  1
 14 16  1  0
 14 15  1  0
 16 17  2  0
 18 22  1  0
 18 16  1  0
 19 18  1  0
 20 19  1  0
 20 21  1  0
 21 22  1  0
 22 23  1  6
 23 24  2  0
 23 25  1  0
M  END
$$$$
