YAP.pdb
     RDKit          3D

 25 26  0  0  1  0  0  0  0  0999 V2000
   10.7640  -19.9507   29.7467 O   0  0  0  0  0  0  0  0  0  0  0  0
   10.2594  -19.5099   28.5341 C   0  0  0  0  0  0  0  0  0  0  0  0
    9.8909  -20.4451   27.5573 C   0  0  0  0  0  0  0  0  0  0  0  0
    9.3904  -19.9995   26.3523 C   0  0  0  0  0  0  0  0  0  0  0  0
    9.2368  -18.6392   26.0741 C   0  0  0  0  0  0  0  0  0  0  0  0
    8.7143  -18.1614   24.7740 C   0  0  0  0  0  0  0  0  0  0  0  0
    7.3190  -17.5518   24.9357 C   0  0  2  0  0  0  0  0  0  0  0  0
    6.3192  -18.6192   24.8262 N   0  0  0  0  0  0  0  0  0  0  0  0
    7.0790  -16.5383   23.8739 C   0  0  0  0  0  0  0  0  0  0  0  0
    6.5922  -16.9428   22.7987 O   0  0  0  0  0  0  0  0  0  0  0  0
    9.6063  -17.7350   27.0564 C   0  0  0  0  0  0  0  0  0  0  0  0
   10.1103  -18.1673   28.2662 C   0  0  0  0  0  0  0  0  0  0  0  0
    7.9568  -12.8917   23.4637 C   0  0  0  0  0  0  0  0  0  0  0  0
    7.4790  -14.2667   22.9565 C   0  0  2  0  0  0  0  0  0  0  0  0
    7.3845  -15.1897   24.0856 N   0  0  0  0  0  0  0  0  0  0  0  0
    8.3900  -14.7673   21.8981 C   0  0  0  0  0  0  0  0  0  0  0  0
    9.0008  -15.8865   22.0409 O   0  0  0  0  0  0  0  0  0  0  0  0
    8.6250  -14.0586   20.7115 N   0  0  0  0  0  0  0  0  0  0  0  0
    8.1245  -12.7455   20.3525 C   0  0  0  0  0  0  0  0  0  0  0  0
    8.0543  -12.7435   18.8419 C   0  0  0  0  0  0  0  0  0  0  0  0
    8.4905  -14.1320   18.4492 C   0  0  0  0  0  0  0  0  0  0  0  0
    9.4268  -14.5286   19.5728 C   0  0  1  0  0  0  0  0  0  0  0  0
   10.6378  -13.6592   19.4172 C   0  0  0  0  0  0  0  0  0  0  0  0
   10.7485  -12.5119   19.8966 O   0  0  0  0  0  0  0  0  0  0  0  0
   11.7001  -14.1809   18.6868 O   0  0  0  0  0  0  0  0  0  0  0  0
  2  1  1  0
  2 12  2  0
  3  2  1  0
  4  3  2  0
  4  5  1  0
  5 11  2  0
  6  5  1  0
  6  7  1  0
  7  8  1  6
  9 15  1  0
  9  7  1  0
 10  9  2  0
 11 12  1  0
 14 13  1  1
 14 16  1  0
 14 15  1  0
 16 17  2  0
 18 22  1  0
 18 16  1  0
 19 18  1  0
 20 19  1  0
 20 21  1  0
 21 22  1  0
 22 23  1  6
 23 24  2  0
 23 25  1  0
M  END
$$$$
