YAP.pdb
     RDKit          3D

 25 26  0  0  1  0  0  0  0  0999 V2000
   11.6676  -15.9345   31.9240 O   0  0  0  0  0  0  0  0  0  0  0  0
   11.1367  -16.0461   30.6493 C   0  0  0  0  0  0  0  0  0  0  0  0
   11.2025  -17.2746   29.9778 C   0  0  0  0  0  0  0  0  0  0  0  0
   10.6731  -17.3783   28.7089 C   0  0  0  0  0  0  0  0  0  0  0  0
   10.0690  -16.2930   28.0697 C   0  0  0  0  0  0  0  0  0  0  0  0
    9.5153  -16.4012   26.7010 C   0  0  0  0  0  0  0  0  0  0  0  0
    7.9893  -16.5224   26.7362 C   0  0  2  0  0  0  0  0  0  0  0  0
    7.6286  -17.9374   26.8728 N   0  0  0  0  0  0  0  0  0  0  0  0
    7.4056  -15.9822   25.4793 C   0  0  0  0  0  0  0  0  0  0  0  0
    7.0743  -16.8069   24.6036 O   0  0  0  0  0  0  0  0  0  0  0  0
   10.0148  -15.0903   28.7550 C   0  0  0  0  0  0  0  0  0  0  0  0
   10.5424  -14.9721   30.0248 C   0  0  0  0  0  0  0  0  0  0  0  0
    7.1752  -12.5249   24.0109 C   0  0  0  0  0  0  0  0  0  0  0  0
    7.0041  -14.0561   23.9658 C   0  0  2  0  0  0  0  0  0  0  0  0
    7.2342  -14.6055   25.3004 N   0  0  0  0  0  0  0  0  0  0  0  0
    7.9149  -14.6439   22.9531 C   0  0  0  0  0  0  0  0  0  0  0  0
    8.7786  -15.5304   23.2909 O   0  0  0  0  0  0  0  0  0  0  0  0
    7.8792  -14.2695   21.6024 N   0  0  0  0  0  0  0  0  0  0  0  0
    7.1788  -13.1430   21.0159 C   0  0  0  0  0  0  0  0  0  0  0  0
    6.8766  -13.5569   19.5932 C   0  0  0  0  0  0  0  0  0  0  0  0
    7.4067  -14.9646   19.4965 C   0  0  0  0  0  0  0  0  0  0  0  0
    8.5452  -14.9724   20.4967 C   0  0  1  0  0  0  0  0  0  0  0  0
    9.6072  -14.0932   19.9086 C   0  0  0  0  0  0  0  0  0  0  0  0
    9.7066  -12.8675   20.1232 O   0  0  0  0  0  0  0  0  0  0  0  0
   10.5362  -14.6997   19.0699 O   0  0  0  0  0  0  0  0  0  0  0  0
  2  1  1  0
  2 12  2  0
  3  2  1  0
  4  3  2  0
  4  5  1  0
  5 11  2  0
  6  5  1  0
  6  7  1  0
  7  8  1  6
  9 15  1  0
  9  7  1  0
 10  9  2  0
 11 12  1  0
 14 13  1  1
 14 16  1  0
 14 15  1  0
 16 17  2  0
 18 22  1  0
 18 16  1  0
 19 18  1  0
 20 19  1  0
 20 21  1  0
 21 22  1  0
 22 23  1  6
 23 24  2  0
 23 25  1  0
M  END
$$$$
