YAP.pdb
     RDKit          3D

 25 26  0  0  1  0  0  0  0  0999 V2000
    9.0557  -13.6418   15.2840 O   0  0  0  0  0  0  0  0  0  0  0  0
    8.6861  -13.7622   16.6137 C   0  0  0  0  0  0  0  0  0  0  0  0
    7.4794  -13.1983   17.0500 C   0  0  0  0  0  0  0  0  0  0  0  0
    7.1183  -13.3209   18.3750 C   0  0  0  0  0  0  0  0  0  0  0  0
    7.9202  -13.9941   19.2998 C   0  0  0  0  0  0  0  0  0  0  0  0
    7.5392  -14.1114   20.7255 C   0  0  0  0  0  0  0  0  0  0  0  0
    7.2968  -15.5739   21.1086 C   0  0  2  0  0  0  0  0  0  0  0  0
    6.1385  -16.0746   20.3612 N   0  0  0  0  0  0  0  0  0  0  0  0
    7.0282  -15.6813   22.5676 C   0  0  0  0  0  0  0  0  0  0  0  0
    5.9905  -15.1385   22.9981 O   0  0  0  0  0  0  0  0  0  0  0  0
    9.1069  -14.5443   18.8436 C   0  0  0  0  0  0  0  0  0  0  0  0
    9.4813  -14.4273   17.5204 C   0  0  0  0  0  0  0  0  0  0  0  0
    7.1583  -17.3871   25.5088 C   0  0  0  0  0  0  0  0  0  0  0  0
    7.8494  -16.1727   24.8580 C   0  0  2  0  0  0  0  0  0  0  0  0
    7.9064  -16.3699   23.4110 N   0  0  0  0  0  0  0  0  0  0  0  0
    9.1948  -15.9709   25.4496 C   0  0  0  0  0  0  0  0  0  0  0  0
   10.2456  -16.3604   24.8248 O   0  0  0  0  0  0  0  0  0  0  0  0
    9.3838  -15.3564   26.6954 N   0  0  0  0  0  0  0  0  0  0  0  0
    8.3675  -14.8129   27.5760 C   0  0  0  0  0  0  0  0  0  0  0  0
    9.0594  -13.7192   28.3581 C   0  0  0  0  0  0  0  0  0  0  0  0
   10.4592  -13.6933   27.7995 C   0  0  0  0  0  0  0  0  0  0  0  0
   10.6776  -15.1250   27.3534 C   0  0  1  0  0  0  0  0  0  0  0  0
   10.7537  -15.9347   28.6125 C   0  0  0  0  0  0  0  0  0  0  0  0
    9.8036  -16.5903   29.0877 O   0  0  0  0  0  0  0  0  0  0  0  0
   11.9715  -15.9453   29.2839 O   0  0  0  0  0  0  0  0  0  0  0  0
  2  1  1  0
  2 12  2  0
  3  2  1  0
  4  3  2  0
  4  5  1  0
  5 11  2  0
  6  5  1  0
  6  7  1  0
  7  8  1  6
  9 15  1  0
  9  7  1  0
 10  9  2  0
 11 12  1  0
 14 13  1  1
 14 16  1  0
 14 15  1  0
 16 17  2  0
 18 22  1  0
 18 16  1  0
 19 18  1  0
 20 19  1  0
 20 21  1  0
 21 22  1  0
 22 23  1  1
 23 24  2  0
 23 25  1  0
M  END
$$$$
