YAP.pdb
     RDKit          3D

 25 26  0  0  1  0  0  0  0  0999 V2000
    6.7093  -14.4988   15.7759 O   0  0  0  0  0  0  0  0  0  0  0  0
    7.0081  -14.6074   17.1243 C   0  0  0  0  0  0  0  0  0  0  0  0
    7.1303  -15.8769   17.7055 C   0  0  0  0  0  0  0  0  0  0  0  0
    7.4267  -15.9777   19.0483 C   0  0  0  0  0  0  0  0  0  0  0  0
    7.6116  -14.8492   19.8506 C   0  0  0  0  0  0  0  0  0  0  0  0
    7.9141  -14.9584   21.2957 C   0  0  0  0  0  0  0  0  0  0  0  0
    8.7971  -13.7966   21.7592 C   0  0  2  0  0  0  0  0  0  0  0  0
   10.1186  -13.9271   21.1366 N   0  0  0  0  0  0  0  0  0  0  0  0
    8.9425  -13.8253   23.2392 C   0  0  0  0  0  0  0  0  0  0  0  0
    9.9635  -14.3736   23.7016 O   0  0  0  0  0  0  0  0  0  0  0  0
    7.4874  -13.6060   19.2522 C   0  0  0  0  0  0  0  0  0  0  0  0
    7.1892  -13.4906   17.9097 C   0  0  0  0  0  0  0  0  0  0  0  0
    6.6963  -13.0937   26.1518 C   0  0  0  0  0  0  0  0  0  0  0  0
    8.0742  -13.3743   25.5205 C   0  0  2  0  0  0  0  0  0  0  0  0
    7.9716  -13.2529   24.0677 N   0  0  0  0  0  0  0  0  0  0  0  0
    8.5666  -14.7101   25.9378 C   0  0  0  0  0  0  0  0  0  0  0  0
    8.4423  -15.7221   25.1591 O   0  0  0  0  0  0  0  0  0  0  0  0
    9.1811  -14.9309   27.1785 N   0  0  0  0  0  0  0  0  0  0  0  0
    8.9638  -14.2033   28.4143 C   0  0  0  0  0  0  0  0  0  0  0  0
   10.2602  -14.3249   29.1831 C   0  0  0  0  0  0  0  0  0  0  0  0
   11.1658  -15.1013   28.2615 C   0  0  0  0  0  0  0  0  0  0  0  0
   10.1975  -15.9530   27.4656 C   0  0  1  0  0  0  0  0  0  0  0  0
    9.6454  -16.9531   28.4360 C   0  0  0  0  0  0  0  0  0  0  0  0
   10.3238  -17.8347   29.0026 O   0  0  0  0  0  0  0  0  0  0  0  0
    8.2844  -16.8799   28.7126 O   0  0  0  0  0  0  0  0  0  0  0  0
  2  1  1  0
  2 12  2  0
  3  2  1  0
  4  3  2  0
  4  5  1  0
  5 11  2  0
  6  5  1  0
  6  7  1  0
  7  8  1  6
  9 15  1  0
  9  7  1  0
 10  9  2  0
 11 12  1  0
 14 13  1  1
 14 16  1  0
 14 15  1  0
 16 17  2  0
 18 22  1  0
 18 16  1  0
 19 18  1  0
 20 19  1  0
 20 21  1  0
 21 22  1  0
 22 23  1  1
 23 24  2  0
 23 25  1  0
M  END
$$$$
