YAP.pdb
     RDKit          3D

 25 26  0  0  1  0  0  0  0  0999 V2000
   12.7116  -22.1666   27.3067 O   0  0  0  0  0  0  0  0  0  0  0  0
   12.1024  -21.2897   26.4239 C   0  0  0  0  0  0  0  0  0  0  0  0
   11.7861  -19.9914   26.8466 C   0  0  0  0  0  0  0  0  0  0  0  0
   11.1788  -19.1242   25.9633 C   0  0  0  0  0  0  0  0  0  0  0  0
   10.8693  -19.5003   24.6540 C   0  0  0  0  0  0  0  0  0  0  0  0
   10.2028  -18.5735   23.7114 C   0  0  0  0  0  0  0  0  0  0  0  0
    8.7439  -18.3399   24.1134 C   0  0  2  0  0  0  0  0  0  0  0  0
    7.9914  -19.5826   23.9127 N   0  0  0  0  0  0  0  0  0  0  0  0
    8.1509  -17.2620   23.2775 C   0  0  0  0  0  0  0  0  0  0  0  0
    7.5921  -17.6053   22.2160 O   0  0  0  0  0  0  0  0  0  0  0  0
   11.1937  -20.7881   24.2599 C   0  0  0  0  0  0  0  0  0  0  0  0
   11.8000  -21.6669   25.1343 C   0  0  0  0  0  0  0  0  0  0  0  0
    8.3565  -13.4969   23.3807 C   0  0  0  0  0  0  0  0  0  0  0  0
    8.0793  -14.8498   22.6960 C   0  0  2  0  0  0  0  0  0  0  0  0
    8.2176  -15.9233   23.6780 N   0  0  0  0  0  0  0  0  0  0  0  0
    8.9851  -15.0319   21.5353 C   0  0  0  0  0  0  0  0  0  0  0  0
    9.7859  -16.0330   21.4854 O   0  0  0  0  0  0  0  0  0  0  0  0
    9.0117  -14.1386   20.4551 N   0  0  0  0  0  0  0  0  0  0  0  0
    8.3127  -12.8732   20.3373 C   0  0  0  0  0  0  0  0  0  0  0  0
    8.0992  -12.6709   18.8540 C   0  0  0  0  0  0  0  0  0  0  0  0
    8.6729  -13.9145   18.2243 C   0  0  0  0  0  0  0  0  0  0  0  0
    9.7556  -14.3262   19.2014 C   0  0  1  0  0  0  0  0  0  0  0  0
   10.8228  -13.2798   19.0881 C   0  0  0  0  0  0  0  0  0  0  0  0
   10.8014  -12.1833   19.6846 O   0  0  0  0  0  0  0  0  0  0  0  0
   11.9021  -13.5656   18.2590 O   0  0  0  0  0  0  0  0  0  0  0  0
  2  1  1  0
  2 12  2  0
  3  2  1  0
  4  3  2  0
  4  5  1  0
  5 11  2  0
  6  5  1  0
  6  7  1  0
  7  8  1  6
  9 15  1  0
  9  7  1  0
 10  9  2  0
 11 12  1  0
 14 13  1  1
 14 16  1  0
 14 15  1  0
 16 17  2  0
 18 22  1  0
 18 16  1  0
 19 18  1  0
 20 19  1  0
 20 21  1  0
 21 22  1  0
 22 23  1  1
 23 24  2  0
 23 25  1  0
M  END
$$$$
