YAP.pdb
     RDKit          3D

 25 26  0  0  1  0  0  0  0  0999 V2000
   10.7088  -15.0256   30.6919 O   0  0  0  0  0  0  0  0  0  0  0  0
   10.3745  -15.1561   29.3539 C   0  0  0  0  0  0  0  0  0  0  0  0
   10.0984  -14.0105   28.5950 C   0  0  0  0  0  0  0  0  0  0  0  0
    9.7651  -14.1477   27.2641 C   0  0  0  0  0  0  0  0  0  0  0  0
    9.6956  -15.3982   26.6454 C   0  0  0  0  0  0  0  0  0  0  0  0
    9.3221  -15.5456   25.2205 C   0  0  0  0  0  0  0  0  0  0  0  0
    7.8270  -15.2850   25.0170 C   0  0  2  0  0  0  0  0  0  0  0  0
    7.0702  -16.4236   25.5478 N   0  0  0  0  0  0  0  0  0  0  0  0
    7.5295  -15.1255   23.5684 C   0  0  0  0  0  0  0  0  0  0  0  0
    7.2237  -16.1542   22.9321 O   0  0  0  0  0  0  0  0  0  0  0  0
    9.9746  -16.5149   27.4162 C   0  0  0  0  0  0  0  0  0  0  0  0
   10.3077  -16.3920   28.7499 C   0  0  0  0  0  0  0  0  0  0  0  0
    7.7325  -12.2682   21.1098 C   0  0  0  0  0  0  0  0  0  0  0  0
    7.6273  -13.7555   21.5007 C   0  0  2  0  0  0  0  0  0  0  0  0
    7.5875  -13.8685   22.9572 N   0  0  0  0  0  0  0  0  0  0  0  0
    8.7521  -14.5213   20.9097 C   0  0  0  0  0  0  0  0  0  0  0  0
    9.5160  -15.2346   21.6539 O   0  0  0  0  0  0  0  0  0  0  0  0
    9.0321  -14.5063   19.5360 N   0  0  0  0  0  0  0  0  0  0  0  0
    8.3695  -13.7273   18.5075 C   0  0  0  0  0  0  0  0  0  0  0  0
    8.5224  -14.5314   17.2360 C   0  0  0  0  0  0  0  0  0  0  0  0
    9.2456  -15.7800   17.6723 C   0  0  0  0  0  0  0  0  0  0  0  0
   10.0614  -15.3077   18.8588 C   0  0  1  0  0  0  0  0  0  0  0  0
   11.1128  -14.4017   18.2928 C   0  0  0  0  0  0  0  0  0  0  0  0
   10.9197  -13.2103   17.9739 O   0  0  0  0  0  0  0  0  0  0  0  0
   12.3830  -14.9403   18.1176 O   0  0  0  0  0  0  0  0  0  0  0  0
  2  1  1  0
  2 12  2  0
  3  2  1  0
  4  3  2  0
  4  5  1  0
  5 11  2  0
  6  5  1  0
  6  7  1  0
  7  8  1  6
  9 15  1  0
  9  7  1  0
 10  9  2  0
 11 12  1  0
 14 13  1  1
 14 16  1  0
 14 15  1  0
 16 17  2  0
 18 22  1  0
 18 16  1  0
 19 18  1  0
 20 19  1  0
 20 21  1  0
 21 22  1  0
 22 23  1  6
 23 24  2  0
 23 25  1  0
M  END
$$$$
