YAP.pdb
     RDKit          3D

 25 26  0  0  1  0  0  0  0  0999 V2000
   10.0988  -22.6860   28.1121 O   0  0  0  0  0  0  0  0  0  0  0  0
    9.6456  -21.8209   27.1295 C   0  0  0  0  0  0  0  0  0  0  0  0
    9.8139  -20.4392   27.2933 C   0  0  0  0  0  0  0  0  0  0  0  0
    9.3594  -19.5838   26.3120 C   0  0  0  0  0  0  0  0  0  0  0  0
    8.7355  -20.0535   25.1538 C   0  0  0  0  0  0  0  0  0  0  0  0
    8.2335  -19.1334   24.1083 C   0  0  0  0  0  0  0  0  0  0  0  0
    6.8519  -18.5866   24.4780 C   0  0  2  0  0  0  0  0  0  0  0  0
    5.8321  -19.5585   24.0703 N   0  0  0  0  0  0  0  0  0  0  0  0
    6.6113  -17.2950   23.7807 C   0  0  0  0  0  0  0  0  0  0  0  0
    5.9941  -17.3380   22.6972 O   0  0  0  0  0  0  0  0  0  0  0  0
    8.5827  -21.4233   25.0146 C   0  0  0  0  0  0  0  0  0  0  0  0
    9.0312  -22.2907   25.9899 C   0  0  0  0  0  0  0  0  0  0  0  0
    7.7969  -13.7540   24.3295 C   0  0  0  0  0  0  0  0  0  0  0  0
    7.2172  -14.9060   23.4852 C   0  0  2  0  0  0  0  0  0  0  0  0
    7.0575  -16.0882   24.3295 N   0  0  0  0  0  0  0  0  0  0  0  0
    8.0859  -15.1687   22.3117 C   0  0  0  0  0  0  0  0  0  0  0  0
    8.6941  -16.2919   22.1905 O   0  0  0  0  0  0  0  0  0  0  0  0
    8.2823  -14.2234   21.2951 N   0  0  0  0  0  0  0  0  0  0  0  0
    7.8985  -12.8247   21.3028 C   0  0  0  0  0  0  0  0  0  0  0  0
    7.6832  -12.4612   19.8508 C   0  0  0  0  0  0  0  0  0  0  0  0
    7.9222  -13.7503   19.1070 C   0  0  0  0  0  0  0  0  0  0  0  0
    8.9129  -14.4792   19.9923 C   0  0  1  0  0  0  0  0  0  0  0  0
   10.1923  -13.7047   19.8919 C   0  0  0  0  0  0  0  0  0  0  0  0
   10.9993  -13.7960   18.9439 O   0  0  0  0  0  0  0  0  0  0  0  0
   10.4845  -12.8302   20.9331 O   0  0  0  0  0  0  0  0  0  0  0  0
  2  1  1  0
  2 12  2  0
  3  2  1  0
  4  3  2  0
  4  5  1  0
  5 11  2  0
  6  5  1  0
  6  7  1  0
  7  8  1  6
  9 15  1  0
  9  7  1  0
 10  9  2  0
 11 12  1  0
 14 13  1  1
 14 16  1  0
 14 15  1  0
 16 17  2  0
 18 22  1  0
 18 16  1  0
 19 18  1  0
 20 19  1  0
 20 21  1  0
 21 22  1  0
 22 23  1  1
 23 24  2  0
 23 25  1  0
M  END
$$$$
