YAP.pdb
     RDKit          3D

 25 26  0  0  1  0  0  0  0  0999 V2000
    6.7414  -10.7310   26.8139 O   0  0  0  0  0  0  0  0  0  0  0  0
    6.7114  -12.0331   26.3416 C   0  0  0  0  0  0  0  0  0  0  0  0
    7.0865  -12.2972   25.0173 C   0  0  0  0  0  0  0  0  0  0  0  0
    7.0533  -13.5952   24.5533 C   0  0  0  0  0  0  0  0  0  0  0  0
    6.6575  -14.6601   25.3662 C   0  0  0  0  0  0  0  0  0  0  0  0
    6.6068  -16.0512   24.8624 C   0  0  0  0  0  0  0  0  0  0  0  0
    7.9707  -16.7333   25.0011 C   0  0  2  0  0  0  0  0  0  0  0  0
    8.4650  -16.5326   26.3672 N   0  0  0  0  0  0  0  0  0  0  0  0
    8.9358  -16.1451   24.0342 C   0  0  0  0  0  0  0  0  0  0  0  0
    9.3648  -14.9998   24.2816 O   0  0  0  0  0  0  0  0  0  0  0  0
    6.2933  -14.3734   26.6717 C   0  0  0  0  0  0  0  0  0  0  0  0
    6.3202  -13.0785   27.1484 C   0  0  0  0  0  0  0  0  0  0  0  0
   10.9477  -17.1183   21.0708 C   0  0  0  0  0  0  0  0  0  0  0  0
    9.9623  -16.1643   21.7742 C   0  0  2  0  0  0  0  0  0  0  0  0
    9.3430  -16.8580   22.9017 N   0  0  0  0  0  0  0  0  0  0  0  0
    8.9576  -15.6603   20.8060 C   0  0  0  0  0  0  0  0  0  0  0  0
    7.7433  -16.0716   20.8547 O   0  0  0  0  0  0  0  0  0  0  0  0
    9.2762  -14.7273   19.8092 N   0  0  0  0  0  0  0  0  0  0  0  0
   10.5276  -14.0157   19.6323 C   0  0  0  0  0  0  0  0  0  0  0  0
   10.1578  -12.7222   18.9417 C   0  0  0  0  0  0  0  0  0  0  0  0
    8.6563  -12.7823   18.8224 C   0  0  0  0  0  0  0  0  0  0  0  0
    8.3774  -14.2695   18.7401 C   0  0  1  0  0  0  0  0  0  0  0  0
    8.9121  -14.7091   17.4106 C   0  0  0  0  0  0  0  0  0  0  0  0
   10.0817  -15.0993   17.2150 O   0  0  0  0  0  0  0  0  0  0  0  0
    8.0332  -14.6738   16.3334 O   0  0  0  0  0  0  0  0  0  0  0  0
  2  1  1  0
  2 12  2  0
  3  2  1  0
  4  3  2  0
  4  5  1  0
  5 11  2  0
  6  5  1  0
  6  7  1  0
  7  8  1  1
  9 15  1  0
  9  7  1  0
 10  9  2  0
 11 12  1  0
 14 13  1  6
 14 16  1  0
 14 15  1  0
 16 17  2  0
 18 22  1  0
 18 16  1  0
 19 18  1  0
 20 19  1  0
 20 21  1  0
 21 22  1  0
 22 23  1  6
 23 24  2  0
 23 25  1  0
M  END
$$$$
