MRF.pdb
     RDKit          3D

 31 31  0  0  1  0  0  0  0  0999 V2000
    8.1685  -15.6128   28.2264 C   0  0  0  0  0  0  0  0  0  0  0  0
    7.1017  -16.9988   28.6183 S   0  0  0  0  0  0  0  0  0  0  0  0
    7.6842  -18.5697   28.0058 C   0  0  0  0  0  0  0  0  0  0  0  0
    8.1838  -18.5746   26.6051 C   0  0  0  0  0  0  0  0  0  0  0  0
    7.2549  -19.1588   25.5961 C   0  0  2  0  0  0  0  0  0  0  0  0
    7.1217  -20.5846   25.6900 N   0  0  0  0  0  0  0  0  0  0  0  0
    7.6086  -18.7994   24.2015 C   0  0  0  0  0  0  0  0  0  0  0  0
    8.5021  -19.4324   23.5770 O   0  0  0  0  0  0  0  0  0  0  0  0
    8.3840  -12.6818   20.4118 N   0  0  0  0  0  0  0  0  0  0  0  0
    7.8932  -12.8624   19.0977 C   0  0  0  0  0  0  0  0  0  0  0  0
    8.4081  -12.3044   18.0767 N   0  0  0  0  0  0  0  0  0  0  0  0
    6.7638  -13.7099   18.9079 N   0  0  0  0  0  0  0  0  0  0  0  0
    6.1276  -14.4208   19.9947 C   0  0  0  0  0  0  0  0  0  0  0  0
    7.1790  -15.0586   20.8594 C   0  0  0  0  0  0  0  0  0  0  0  0
    6.6409  -15.9281   21.9530 C   0  0  0  0  0  0  0  0  0  0  0  0
    7.6300  -16.8237   22.6176 C   0  0  2  0  0  0  0  0  0  0  0  0
    6.9725  -17.7475   23.5151 N   0  0  0  0  0  0  0  0  0  0  0  0
    8.6384  -15.9988   23.2731 C   0  0  0  0  0  0  0  0  0  0  0  0
    8.3326  -14.9025   23.7741 O   0  0  0  0  0  0  0  0  0  0  0  0
    8.0371  -12.3824   17.1271 N   0  0  0  0  0  0  0  0  0  0  0  0
    9.9741  -16.4404   23.3443 C   0  0  1  0  0  0  0  0  0  0  0  0
   10.9011  -15.7614   24.2384 C   0  0  0  0  0  0  0  0  0  0  0  0
   10.3858  -15.9645   25.6341 C   0  0  0  0  0  0  0  0  0  0  0  0
    9.4858  -14.9248   26.1344 C   0  0  0  0  0  0  0  0  0  0  0  0
    9.3235  -14.7111   27.4825 C   0  0  0  0  0  0  0  0  0  0  0  0
    8.4658  -13.7213   27.8940 C   0  0  0  0  0  0  0  0  0  0  0  0
    7.7538  -12.9249   27.0273 C   0  0  0  0  0  0  0  0  0  0  0  0
    7.9394  -13.1652   25.6821 C   0  0  0  0  0  0  0  0  0  0  0  0
    8.7918  -14.1496   25.2372 C   0  0  0  0  0  0  0  0  0  0  0  0
   12.2739  -16.2441   24.0975 O   0  0  0  0  0  0  0  0  0  0  0  0
   12.6370  -17.1642   23.3064 O   0  0  0  0  0  0  0  0  0  0  0  0
  1  2  1  0
  3  2  1  0
  4  3  1  0
  5  4  1  0
  5  6  1  6
  7  8  2  0
  7  5  1  0
 10 12  1  0
 10  9  1  0
 11 10  2  0
 13 12  1  0
 14 13  1  0
 14 15  1  0
 16 15  1  1
 16 17  1  0
 17  7  1  0
 18 20  1  0
 18 16  1  0
 19 18  2  0
 21 22  1  1
 21 20  1  0
 22 23  1  0
 23 24  2  0
 23 28  1  0
 24 25  1  0
 25 26  2  0
 27 26  1  0
 28 27  2  0
 29 21  1  0
 30 29  2  0
 31 29  1  0
M  END
$$$$
