MRF.pdb
     RDKit          3D

 31 31  0  0  1  0  0  0  0  0999 V2000
    5.9803  -11.8063   27.6289 C   0  0  0  0  0  0  0  0  0  0  0  0
    7.2254  -12.8132   26.8236 S   0  0  0  0  0  0  0  0  0  0  0  0
    6.5669  -14.0637   25.7352 C   0  0  0  0  0  0  0  0  0  0  0  0
    6.2872  -15.3843   26.3591 C   0  0  0  0  0  0  0  0  0  0  0  0
    7.2845  -16.4536   26.0688 C   0  0  2  0  0  0  0  0  0  0  0  0
    8.5324  -16.2825   26.7566 N   0  0  0  0  0  0  0  0  0  0  0  0
    7.5529  -16.6225   24.6201 C   0  0  0  0  0  0  0  0  0  0  0  0
    6.6112  -16.8261   23.8071 O   0  0  0  0  0  0  0  0  0  0  0  0
    9.5301  -14.4547   17.7821 N   0  0  0  0  0  0  0  0  0  0  0  0
    8.5494  -13.4654   18.0263 C   0  0  0  0  0  0  0  0  0  0  0  0
    8.4944  -12.3643   17.3911 N   0  0  0  0  0  0  0  0  0  0  0  0
    7.5753  -13.7130   19.0360 N   0  0  0  0  0  0  0  0  0  0  0  0
    7.5490  -14.9306   19.8159 C   0  0  0  0  0  0  0  0  0  0  0  0
    8.8143  -15.0374   20.6206 C   0  0  0  0  0  0  0  0  0  0  0  0
    8.6021  -15.2199   22.0914 C   0  0  0  0  0  0  0  0  0  0  0  0
    9.1742  -16.4635   22.6814 C   0  0  2  0  0  0  0  0  0  0  0  0
    8.8551  -16.5649   24.0882 N   0  0  0  0  0  0  0  0  0  0  0  0
   10.6068  -16.4916   22.4096 C   0  0  0  0  0  0  0  0  0  0  0  0
   11.0758  -17.2698   21.5606 O   0  0  0  0  0  0  0  0  0  0  0  0
    7.7893  -11.6408   17.5489 N   0  0  0  0  0  0  0  0  0  0  0  0
   11.4752  -15.6323   23.1108 C   0  0  2  0  0  0  0  0  0  0  0  0
   11.7483  -15.8899   24.5174 C   0  0  0  0  0  0  0  0  0  0  0  0
   10.4772  -15.6074   25.2654 C   0  0  0  0  0  0  0  0  0  0  0  0
   10.6358  -15.2832   26.6835 C   0  0  0  0  0  0  0  0  0  0  0  0
   10.9032  -16.2606   27.6124 C   0  0  0  0  0  0  0  0  0  0  0  0
   11.0420  -15.8978   28.9290 C   0  0  0  0  0  0  0  0  0  0  0  0
   10.9277  -14.6017   29.3755 C   0  0  0  0  0  0  0  0  0  0  0  0
   10.6591  -13.6458   28.4186 C   0  0  0  0  0  0  0  0  0  0  0  0
   10.5144  -13.9768   27.0908 C   0  0  0  0  0  0  0  0  0  0  0  0
   12.2214  -17.2521   24.7583 O   0  0  0  0  0  0  0  0  0  0  0  0
   11.5723  -18.3017   24.4731 O   0  0  0  0  0  0  0  0  0  0  0  0
  1  2  1  0
  3  2  1  0
  4  3  1  0
  5  4  1  0
  5  6  1  1
  7  8  2  0
  7  5  1  0
 10 12  1  0
 10  9  1  0
 11 10  2  0
 13 12  1  0
 14 13  1  0
 14 15  1  0
 16 15  1  1
 16 17  1  0
 17  7  1  0
 18 20  1  0
 18 16  1  0
 19 18  2  0
 21 22  1  6
 21 20  1  0
 22 23  1  0
 23 24  2  0
 23 28  1  0
 24 25  1  0
 25 26  2  0
 27 26  1  0
 28 27  2  0
 29 21  1  0
 30 29  2  0
 31 29  1  0
M  END
$$$$
