MRF.pdb
     RDKit          3D

 31 31  0  0  1  0  0  0  0  0999 V2000
    6.0213  -11.7413   26.2497 C   0  0  0  0  0  0  0  0  0  0  0  0
    5.8009  -13.1373   27.3521 S   0  0  0  0  0  0  0  0  0  0  0  0
    5.9450  -14.7287   26.5592 C   0  0  0  0  0  0  0  0  0  0  0  0
    6.2225  -14.7026   25.0984 C   0  0  0  0  0  0  0  0  0  0  0  0
    6.3073  -16.0368   24.4389 C   0  0  2  0  0  0  0  0  0  0  0  0
    6.1999  -17.1402   25.3503 N   0  0  0  0  0  0  0  0  0  0  0  0
    7.5328  -16.2058   23.6212 C   0  0  0  0  0  0  0  0  0  0  0  0
    8.2419  -17.2430   23.7249 O   0  0  0  0  0  0  0  0  0  0  0  0
    7.1413  -13.5394   16.9264 N   0  0  0  0  0  0  0  0  0  0  0  0
    8.2059  -14.2413   16.3146 C   0  0  0  0  0  0  0  0  0  0  0  0
    8.1251  -14.7624   15.1566 N   0  0  0  0  0  0  0  0  0  0  0  0
    9.4298  -14.3735   17.0318 N   0  0  0  0  0  0  0  0  0  0  0  0
    9.6209  -13.8329   18.3594 C   0  0  0  0  0  0  0  0  0  0  0  0
    9.0045  -14.7588   19.3707 C   0  0  0  0  0  0  0  0  0  0  0  0
    9.1060  -14.2876   20.7882 C   0  0  0  0  0  0  0  0  0  0  0  0
    9.1067  -15.3542   21.8295 C   0  0  2  0  0  0  0  0  0  0  0  0
    7.9594  -15.2295   22.7009 N   0  0  0  0  0  0  0  0  0  0  0  0
   10.3800  -15.3112   22.5395 C   0  0  0  0  0  0  0  0  0  0  0  0
   11.1216  -14.3169   22.4513 O   0  0  0  0  0  0  0  0  0  0  0  0
    8.8787  -15.2850   14.7044 N   0  0  0  0  0  0  0  0  0  0  0  0
   10.7814  -16.4018   23.3354 C   0  0  1  0  0  0  0  0  0  0  0  0
   11.1910  -16.1651   24.7122 C   0  0  0  0  0  0  0  0  0  0  0  0
   10.0596  -15.4412   25.3836 C   0  0  0  0  0  0  0  0  0  0  0  0
   10.2737  -15.0971   26.7896 C   0  0  0  0  0  0  0  0  0  0  0  0
   10.5356  -13.8038   27.1749 C   0  0  0  0  0  0  0  0  0  0  0  0
   10.7279  -13.5398   28.5082 C   0  0  0  0  0  0  0  0  0  0  0  0
   10.6731  -14.5033   29.4886 C   0  0  0  0  0  0  0  0  0  0  0  0
   10.4085  -15.7898   29.0686 C   0  0  0  0  0  0  0  0  0  0  0  0
   10.2110  -16.0874   27.7398 C   0  0  0  0  0  0  0  0  0  0  0  0
   11.5323  -17.3993   25.4177 O   0  0  0  0  0  0  0  0  0  0  0  0
   12.3564  -17.4774   26.3764 O   0  0  0  0  0  0  0  0  0  0  0  0
  1  2  1  0
  3  2  1  0
  4  3  1  0
  5  4  1  0
  5  6  1  1
  7  8  2  0
  7  5  1  0
 10 12  1  0
 10  9  1  0
 11 10  2  0
 13 12  1  0
 14 13  1  0
 14 15  1  0
 16 15  1  6
 16 17  1  0
 17  7  1  0
 18 20  1  0
 18 16  1  0
 19 18  2  0
 21 22  1  1
 21 20  1  0
 22 23  1  0
 23 24  2  0
 23 28  1  0
 24 25  1  0
 25 26  2  0
 27 26  1  0
 28 27  2  0
 29 21  1  0
 30 29  2  0
 31 29  1  0
M  END
$$$$
