MRF.pdb
     RDKit          3D

 31 31  0  0  1  0  0  0  0  0999 V2000
    8.4353  -10.9833   20.8826 C   0  0  0  0  0  0  0  0  0  0  0  0
    7.9882  -11.5705   19.2493 S   0  0  0  0  0  0  0  0  0  0  0  0
    7.8857  -13.3459   19.1100 C   0  0  0  0  0  0  0  0  0  0  0  0
    8.5041  -14.1201   20.2190 C   0  0  0  0  0  0  0  0  0  0  0  0
    8.3841  -15.6019   20.1100 C   0  0  2  0  0  0  0  0  0  0  0  0
    7.2584  -16.0352   19.3323 N   0  0  0  0  0  0  0  0  0  0  0  0
    8.3494  -16.2823   21.4272 C   0  0  0  0  0  0  0  0  0  0  0  0
    7.2543  -16.5145   22.0068 O   0  0  0  0  0  0  0  0  0  0  0  0
   11.9323  -20.5771   19.5180 N   0  0  0  0  0  0  0  0  0  0  0  0
   11.0893  -21.6524   19.8833 C   0  0  0  0  0  0  0  0  0  0  0  0
   10.6746  -22.5270   19.0575 N   0  0  0  0  0  0  0  0  0  0  0  0
   10.6821  -21.7605   21.2443 N   0  0  0  0  0  0  0  0  0  0  0  0
   11.0955  -20.8198   22.2618 C   0  0  0  0  0  0  0  0  0  0  0  0
   10.1482  -19.6527   22.2794 C   0  0  0  0  0  0  0  0  0  0  0  0
   10.5080  -18.5746   23.2540 C   0  0  0  0  0  0  0  0  0  0  0  0
    9.5594  -17.4275   23.3342 C   0  0  2  0  0  0  0  0  0  0  0  0
    9.5220  -16.6968   22.0869 N   0  0  0  0  0  0  0  0  0  0  0  0
    9.9245  -16.6003   24.4786 C   0  0  0  0  0  0  0  0  0  0  0  0
   10.8787  -15.8061   24.4079 O   0  0  0  0  0  0  0  0  0  0  0  0
   10.0430  -23.2944   19.2972 N   0  0  0  0  0  0  0  0  0  0  0  0
    9.1945  -16.6952   25.6795 C   0  0  1  0  0  0  0  0  0  0  0  0
    9.6112  -15.9056   26.8296 C   0  0  0  0  0  0  0  0  0  0  0  0
    8.3606  -15.3671   27.4628 C   0  0  0  0  0  0  0  0  0  0  0  0
    7.6743  -14.3142   26.7135 C   0  0  0  0  0  0  0  0  0  0  0  0
    6.5005  -14.5656   26.0438 C   0  0  0  0  0  0  0  0  0  0  0  0
    5.9007  -13.5390   25.3575 C   0  0  0  0  0  0  0  0  0  0  0  0
    6.4116  -12.2630   25.3011 C   0  0  0  0  0  0  0  0  0  0  0  0
    7.5899  -12.0445   25.9833 C   0  0  0  0  0  0  0  0  0  0  0  0
    8.2159  -13.0521   26.6807 C   0  0  0  0  0  0  0  0  0  0  0  0
   10.4064  -16.6773   27.7833 O   0  0  0  0  0  0  0  0  0  0  0  0
   10.9429  -16.2005   28.8269 O   0  0  0  0  0  0  0  0  0  0  0  0
  1  2  1  0
  3  2  1  0
  4  3  1  0
  5  4  1  0
  5  6  1  1
  7  8  2  0
  7  5  1  0
 10 12  1  0
 10  9  1  0
 11 10  2  0
 13 12  1  0
 14 13  1  0
 14 15  1  0
 16 15  1  6
 16 17  1  0
 17  7  1  0
 18 20  1  0
 18 16  1  0
 19 18  2  0
 21 22  1  6
 21 20  1  0
 22 23  1  0
 23 24  2  0
 23 28  1  0
 24 25  1  0
 25 26  2  0
 27 26  1  0
 28 27  2  0
 29 21  1  0
 30 29  2  0
 31 29  1  0
M  END
$$$$
