MRF.pdb
     RDKit          3D

 31 31  0  0  1  0  0  0  0  0999 V2000
    9.1425  -11.6935   19.9921 C   0  0  0  0  0  0  0  0  0  0  0  0
    8.0125  -12.2749   18.7281 S   0  0  0  0  0  0  0  0  0  0  0  0
    8.0445  -14.0396   18.4701 C   0  0  0  0  0  0  0  0  0  0  0  0
    8.3826  -14.8630   19.6615 C   0  0  0  0  0  0  0  0  0  0  0  0
    8.4990  -16.3285   19.4147 C   0  0  2  0  0  0  0  0  0  0  0  0
    7.3490  -16.9002   18.7742 N   0  0  0  0  0  0  0  0  0  0  0  0
    8.8012  -17.1040   20.6421 C   0  0  0  0  0  0  0  0  0  0  0  0
    7.9068  -17.3302   21.5012 O   0  0  0  0  0  0  0  0  0  0  0  0
   12.7758  -23.2678   24.2530 N   0  0  0  0  0  0  0  0  0  0  0  0
   13.2123  -23.1740   22.9110 C   0  0  0  0  0  0  0  0  0  0  0  0
   13.7196  -24.1500   22.2714 N   0  0  0  0  0  0  0  0  0  0  0  0
   13.0794  -21.9231   22.2422 N   0  0  0  0  0  0  0  0  0  0  0  0
   13.4487  -20.6658   22.8538 C   0  0  0  0  0  0  0  0  0  0  0  0
   12.2119  -19.8499   23.1075 C   0  0  0  0  0  0  0  0  0  0  0  0
   11.6454  -19.1849   21.8916 C   0  0  0  0  0  0  0  0  0  0  0  0
   10.4770  -18.2893   22.1251 C   0  0  2  0  0  0  0  0  0  0  0  0
   10.0848  -17.6190   20.9053 N   0  0  0  0  0  0  0  0  0  0  0  0
   10.8035  -17.3712   23.2104 C   0  0  0  0  0  0  0  0  0  0  0  0
   11.6458  -16.4710   23.0474 O   0  0  0  0  0  0  0  0  0  0  0  0
   14.0068  -24.1113   21.2909 N   0  0  0  0  0  0  0  0  0  0  0  0
   10.1632  -17.4979   24.4587 C   0  0  2  0  0  0  0  0  0  0  0  0
   10.5881  -16.6526   25.5652 C   0  0  0  0  0  0  0  0  0  0  0  0
    9.3421  -16.0832   26.1802 C   0  0  0  0  0  0  0  0  0  0  0  0
    9.5439  -15.2599   27.3729 C   0  0  0  0  0  0  0  0  0  0  0  0
    9.8786  -15.8247   28.5805 C   0  0  0  0  0  0  0  0  0  0  0  0
   10.0556  -15.0029   29.6657 C   0  0  0  0  0  0  0  0  0  0  0  0
    9.9159  -13.6354   29.6133 C   0  0  0  0  0  0  0  0  0  0  0  0
    9.5798  -13.1008   28.3874 C   0  0  0  0  0  0  0  0  0  0  0  0
    9.3954  -13.8972   27.2805 C   0  0  0  0  0  0  0  0  0  0  0  0
   11.3904  -17.3763   26.5501 O   0  0  0  0  0  0  0  0  0  0  0  0
   11.1093  -18.5242   27.0058 O   0  0  0  0  0  0  0  0  0  0  0  0
  1  2  1  0
  3  2  1  0
  4  3  1  0
  5  4  1  0
  5  6  1  1
  7  8  2  0
  7  5  1  0
 10 12  1  0
 10  9  1  0
 11 10  2  0
 13 12  1  0
 14 13  1  0
 14 15  1  0
 16 15  1  6
 16 17  1  0
 17  7  1  0
 18 20  1  0
 18 16  1  0
 19 18  2  0
 21 22  1  1
 21 20  1  0
 22 23  1  0
 23 24  2  0
 23 28  1  0
 24 25  1  0
 25 26  2  0
 27 26  1  0
 28 27  2  0
 29 21  1  0
 30 29  2  0
 31 29  1  0
M  END
$$$$
