MRF.pdb
     RDKit          3D

 31 31  0  0  1  0  0  0  0  0999 V2000
   10.3913  -21.5551   22.9704 C   0  0  0  0  0  0  0  0  0  0  0  0
   11.5128  -21.7112   21.5810 S   0  0  0  0  0  0  0  0  0  0  0  0
   11.6305  -20.2499   20.5648 C   0  0  0  0  0  0  0  0  0  0  0  0
   10.7369  -19.1230   20.9435 C   0  0  0  0  0  0  0  0  0  0  0  0
   10.7798  -17.9398   20.0379 C   0  0  2  0  0  0  0  0  0  0  0  0
   12.0067  -17.8178   19.3034 N   0  0  0  0  0  0  0  0  0  0  0  0
   10.5086  -16.6605   20.7372 C   0  0  0  0  0  0  0  0  0  0  0  0
   11.4279  -15.8187   20.9258 O   0  0  0  0  0  0  0  0  0  0  0  0
    8.3054  -12.7337   16.2779 N   0  0  0  0  0  0  0  0  0  0  0  0
    8.4812  -14.0494   16.7661 C   0  0  0  0  0  0  0  0  0  0  0  0
    8.9742  -14.9931   16.0695 N   0  0  0  0  0  0  0  0  0  0  0  0
    8.0844  -14.3330   18.1048 N   0  0  0  0  0  0  0  0  0  0  0  0
    7.5173  -13.3324   18.9813 C   0  0  0  0  0  0  0  0  0  0  0  0
    8.2682  -13.3238   20.2836 C   0  0  0  0  0  0  0  0  0  0  0  0
    7.8190  -14.3596   21.2670 C   0  0  0  0  0  0  0  0  0  0  0  0
    8.9032  -15.1221   21.9490 C   0  0  2  0  0  0  0  0  0  0  0  0
    9.2284  -16.3272   21.2189 N   0  0  0  0  0  0  0  0  0  0  0  0
    8.5001  -15.3722   23.3282 C   0  0  0  0  0  0  0  0  0  0  0  0
    7.3723  -15.8282   23.5863 O   0  0  0  0  0  0  0  0  0  0  0  0
    9.1015  -15.9514   16.4025 N   0  0  0  0  0  0  0  0  0  0  0  0
    9.3905  -15.0976   24.3846 C   0  0  2  0  0  0  0  0  0  0  0  0
    9.0815  -15.5865   25.7207 C   0  0  0  0  0  0  0  0  0  0  0  0
    7.6184  -15.3361   25.9472 C   0  0  0  0  0  0  0  0  0  0  0  0
    7.2488  -13.9471   26.2218 C   0  0  0  0  0  0  0  0  0  0  0  0
    5.9848  -13.4793   25.9517 C   0  0  0  0  0  0  0  0  0  0  0  0
    5.6947  -12.1668   26.2302 C   0  0  0  0  0  0  0  0  0  0  0  0
    6.6040  -11.2859   26.7683 C   0  0  0  0  0  0  0  0  0  0  0  0
    7.8624  -11.7868   27.0272 C   0  0  0  0  0  0  0  0  0  0  0  0
    8.1849  -13.0975   26.7596 C   0  0  0  0  0  0  0  0  0  0  0  0
    9.4177  -16.9986   25.8946 O   0  0  0  0  0  0  0  0  0  0  0  0
    9.9238  -17.7351   24.9970 O   0  0  0  0  0  0  0  0  0  0  0  0
  1  2  1  0
  3  2  1  0
  4  3  1  0
  5  4  1  0
  5  6  1  1
  7  8  2  0
  7  5  1  0
 10 12  1  0
 10  9  1  0
 11 10  2  0
 13 12  1  0
 14 13  1  0
 14 15  1  0
 16 15  1  6
 16 17  1  0
 17  7  1  0
 18 20  1  0
 18 16  1  0
 19 18  2  0
 21 22  1  6
 21 20  1  0
 22 23  1  0
 23 24  2  0
 23 28  1  0
 24 25  1  0
 25 26  2  0
 27 26  1  0
 28 27  2  0
 29 21  1  0
 30 29  2  0
 31 29  1  0
M  END
$$$$
