MRF.pdb
     RDKit          3D

 31 31  0  0  1  0  0  0  0  0999 V2000
    6.4664  -12.9078   24.6278 C   0  0  0  0  0  0  0  0  0  0  0  0
    5.1714  -13.8376   23.8086 S   0  0  0  0  0  0  0  0  0  0  0  0
    5.7646  -15.0693   22.6627 C   0  0  0  0  0  0  0  0  0  0  0  0
    6.8666  -15.9372   23.1567 C   0  0  0  0  0  0  0  0  0  0  0  0
    7.2950  -17.0199   22.2259 C   0  0  2  0  0  0  0  0  0  0  0  0
    6.2323  -17.9028   21.8376 N   0  0  0  0  0  0  0  0  0  0  0  0
    8.4233  -17.8267   22.7505 C   0  0  0  0  0  0  0  0  0  0  0  0
    8.7168  -18.9397   22.2364 O   0  0  0  0  0  0  0  0  0  0  0  0
   10.8396  -12.4475   20.2222 N   0  0  0  0  0  0  0  0  0  0  0  0
    9.6878  -13.2398   20.0078 C   0  0  0  0  0  0  0  0  0  0  0  0
    8.5342  -12.7504   19.7871 N   0  0  0  0  0  0  0  0  0  0  0  0
    9.8257  -14.6574   20.0429 N   0  0  0  0  0  0  0  0  0  0  0  0
   11.0862  -15.3145   20.3086 C   0  0  0  0  0  0  0  0  0  0  0  0
   10.8754  -16.4164   21.3092 C   0  0  0  0  0  0  0  0  0  0  0  0
   10.8214  -15.9602   22.7342 C   0  0  0  0  0  0  0  0  0  0  0  0
   10.6083  -17.0289   23.7513 C   0  0  2  0  0  0  0  0  0  0  0  0
    9.2119  -17.3955   23.8341 N   0  0  0  0  0  0  0  0  0  0  0  0
   11.1649  -16.5797   25.0224 C   0  0  0  0  0  0  0  0  0  0  0  0
   12.3522  -16.2188   25.1023 O   0  0  0  0  0  0  0  0  0  0  0  0
    7.6916  -13.3069   19.6269 N   0  0  0  0  0  0  0  0  0  0  0  0
   10.3568  -16.5508   26.1758 C   0  0  1  0  0  0  0  0  0  0  0  0
   10.9844  -16.3963   27.4804 C   0  0  0  0  0  0  0  0  0  0  0  0
   10.0348  -15.5992   28.3275 C   0  0  0  0  0  0  0  0  0  0  0  0
    9.3990  -14.4598   27.6651 C   0  0  0  0  0  0  0  0  0  0  0  0
    8.1092  -14.5371   27.1960 C   0  0  0  0  0  0  0  0  0  0  0  0
    7.5642  -13.4364   26.5829 C   0  0  0  0  0  0  0  0  0  0  0  0
    8.2405  -12.2511   26.4097 C   0  0  0  0  0  0  0  0  0  0  0  0
    9.5318  -12.2069   26.8914 C   0  0  0  0  0  0  0  0  0  0  0  0
   10.1071  -13.2927   27.5108 C   0  0  0  0  0  0  0  0  0  0  0  0
   11.3119  -17.6782   28.1023 O   0  0  0  0  0  0  0  0  0  0  0  0
   11.0558  -18.8111   27.5969 O   0  0  0  0  0  0  0  0  0  0  0  0
  1  2  1  0
  3  2  1  0
  4  3  1  0
  5  4  1  0
  5  6  1  1
  7  8  2  0
  7  5  1  0
 10 12  1  0
 10  9  1  0
 11 10  2  0
 13 12  1  0
 14 13  1  0
 14 15  1  0
 16 15  1  6
 16 17  1  0
 17  7  1  0
 18 20  1  0
 18 16  1  0
 19 18  2  0
 21 22  1  6
 21 20  1  0
 22 23  1  0
 23 24  2  0
 23 28  1  0
 24 25  1  0
 25 26  2  0
 27 26  1  0
 28 27  2  0
 29 21  1  0
 30 29  2  0
 31 29  1  0
M  END
$$$$
