MRF.pdb
     RDKit          3D

 31 31  0  0  1  0  0  0  0  0999 V2000
    7.7513  -12.2876   25.9801 C   0  0  0  0  0  0  0  0  0  0  0  0
    6.3574  -12.6673   27.0410 S   0  0  0  0  0  0  0  0  0  0  0  0
    5.7647  -14.3440   26.9024 C   0  0  0  0  0  0  0  0  0  0  0  0
    5.8924  -14.9679   25.5585 C   0  0  0  0  0  0  0  0  0  0  0  0
    6.4010  -16.3690   25.5489 C   0  0  2  0  0  0  0  0  0  0  0  0
    7.1938  -16.7044   26.6972 N   0  0  0  0  0  0  0  0  0  0  0  0
    7.1651  -16.7033   24.3226 C   0  0  0  0  0  0  0  0  0  0  0  0
    6.9363  -17.7681   23.6878 O   0  0  0  0  0  0  0  0  0  0  0  0
    8.0953  -14.4016   18.1454 N   0  0  0  0  0  0  0  0  0  0  0  0
    9.0202  -13.5009   18.7229 C   0  0  0  0  0  0  0  0  0  0  0  0
    8.8354  -12.2428   18.7678 N   0  0  0  0  0  0  0  0  0  0  0  0
   10.2205  -14.0284   19.2805 N   0  0  0  0  0  0  0  0  0  0  0  0
   10.3766  -15.4249   19.6222 C   0  0  0  0  0  0  0  0  0  0  0  0
   10.7650  -15.5460   21.0694 C   0  0  0  0  0  0  0  0  0  0  0  0
    9.6759  -15.1991   22.0365 C   0  0  0  0  0  0  0  0  0  0  0  0
    9.2649  -16.2860   22.9702 C   0  0  2  0  0  0  0  0  0  0  0  0
    8.1705  -15.8593   23.8136 N   0  0  0  0  0  0  0  0  0  0  0  0
   10.4368  -16.7236   23.7201 C   0  0  0  0  0  0  0  0  0  0  0  0
   11.5356  -16.8625   23.1548 O   0  0  0  0  0  0  0  0  0  0  0  0
    9.5170  -11.5712   19.1280 N   0  0  0  0  0  0  0  0  0  0  0  0
   10.3320  -16.9936   25.0987 C   0  0  1  0  0  0  0  0  0  0  0  0
   11.5415  -17.2524   25.8667 C   0  0  0  0  0  0  0  0  0  0  0  0
   11.1772  -17.0989   27.3154 C   0  0  0  0  0  0  0  0  0  0  0  0
   10.3135  -15.9616   27.6340 C   0  0  0  0  0  0  0  0  0  0  0  0
    9.1442  -16.1296   28.3368 C   0  0  0  0  0  0  0  0  0  0  0  0
    8.3736  -15.0261   28.6071 C   0  0  0  0  0  0  0  0  0  0  0  0
    8.7075  -13.7516   28.2115 C   0  0  0  0  0  0  0  0  0  0  0  0
    9.8863  -13.6177   27.5086 C   0  0  0  0  0  0  0  0  0  0  0  0
   10.6810  -14.7037   27.2215 C   0  0  0  0  0  0  0  0  0  0  0  0
   12.1101  -18.5712   25.5931 O   0  0  0  0  0  0  0  0  0  0  0  0
   13.1495  -19.0373   26.1470 O   0  0  0  0  0  0  0  0  0  0  0  0
  1  2  1  0
  3  2  1  0
  4  3  1  0
  5  4  1  0
  5  6  1  1
  7  8  2  0
  7  5  1  0
 10 12  1  0
 10  9  1  0
 11 10  2  0
 13 12  1  0
 14 13  1  0
 14 15  1  0
 16 15  1  6
 16 17  1  0
 17  7  1  0
 18 20  1  0
 18 16  1  0
 19 18  2  0
 21 22  1  6
 21 20  1  0
 22 23  1  0
 23 24  2  0
 23 28  1  0
 24 25  1  0
 25 26  2  0
 27 26  1  0
 28 27  2  0
 29 21  1  0
 30 29  2  0
 31 29  1  0
M  END
$$$$
