MRF.pdb
     RDKit          3D

 31 31  0  0  1  0  0  0  0  0999 V2000
    8.8711  -11.2965   19.6491 C   0  0  0  0  0  0  0  0  0  0  0  0
    7.3368  -12.2137   19.5177 S   0  0  0  0  0  0  0  0  0  0  0  0
    7.5445  -13.9832   19.4305 C   0  0  0  0  0  0  0  0  0  0  0  0
    7.6576  -14.6879   20.7352 C   0  0  0  0  0  0  0  0  0  0  0  0
    9.0341  -15.1168   21.1140 C   0  0  2  0  0  0  0  0  0  0  0  0
    9.7229  -15.8315   20.0774 N   0  0  0  0  0  0  0  0  0  0  0  0
    9.0720  -15.9207   22.3596 C   0  0  0  0  0  0  0  0  0  0  0  0
    8.3403  -15.6254   23.3427 O   0  0  0  0  0  0  0  0  0  0  0  0
   10.8431  -20.2478   19.2360 N   0  0  0  0  0  0  0  0  0  0  0  0
   10.0464  -21.3908   19.4788 C   0  0  0  0  0  0  0  0  0  0  0  0
    9.4171  -22.0112   18.5634 N   0  0  0  0  0  0  0  0  0  0  0  0
    9.9415  -21.8707   20.8162 N   0  0  0  0  0  0  0  0  0  0  0  0
   10.6296  -21.2500   21.9263 C   0  0  0  0  0  0  0  0  0  0  0  0
    9.9928  -19.9228   22.2314 C   0  0  0  0  0  0  0  0  0  0  0  0
   10.6107  -19.1859   23.3789 C   0  0  0  0  0  0  0  0  0  0  0  0
   10.0163  -17.8554   23.6928 C   0  0  2  0  0  0  0  0  0  0  0  0
    9.9159  -17.0383   22.5039 N   0  0  0  0  0  0  0  0  0  0  0  0
   10.7981  -17.2354   24.7566 C   0  0  0  0  0  0  0  0  0  0  0  0
   11.8643  -16.6489   24.5003 O   0  0  0  0  0  0  0  0  0  0  0  0
    8.8468  -22.8457   18.7179 N   0  0  0  0  0  0  0  0  0  0  0  0
   10.3486  -17.2964   26.0901 C   0  0  1  0  0  0  0  0  0  0  0  0
   11.0637  -16.5517   27.1167 C   0  0  0  0  0  0  0  0  0  0  0  0
   10.8946  -15.0950   26.7937 C   0  0  0  0  0  0  0  0  0  0  0  0
    9.5853  -14.5239   27.1111 C   0  0  0  0  0  0  0  0  0  0  0  0
    9.2963  -14.0620   28.3731 C   0  0  0  0  0  0  0  0  0  0  0  0
    8.0512  -13.5361   28.6131 C   0  0  0  0  0  0  0  0  0  0  0  0
    7.0683  -13.4443   27.6550 C   0  0  0  0  0  0  0  0  0  0  0  0
    7.3905  -13.9165   26.4001 C   0  0  0  0  0  0  0  0  0  0  0  0
    8.6295  -14.4493   26.1272 C   0  0  0  0  0  0  0  0  0  0  0  0
   10.5933  -16.8605   28.4660 O   0  0  0  0  0  0  0  0  0  0  0  0
    9.6389  -17.6489   28.7341 O   0  0  0  0  0  0  0  0  0  0  0  0
  1  2  1  0
  3  2  1  0
  4  3  1  0
  5  4  1  0
  5  6  1  6
  7  8  2  0
  7  5  1  0
 10 12  1  0
 10  9  1  0
 11 10  2  0
 13 12  1  0
 14 13  1  0
 14 15  1  0
 16 15  1  6
 16 17  1  0
 17  7  1  0
 18 20  1  0
 18 16  1  0
 19 18  2  0
 21 22  1  6
 21 20  1  0
 22 23  1  0
 23 24  2  0
 23 28  1  0
 24 25  1  0
 25 26  2  0
 27 26  1  0
 28 27  2  0
 29 21  1  0
 30 29  2  0
 31 29  1  0
M  END
$$$$
