MRF.pdb
     RDKit          3D

 31 31  0  0  1  0  0  0  0  0999 V2000
    8.1842  -11.5988   20.1590 C   0  0  0  0  0  0  0  0  0  0  0  0
    7.2220  -12.4669   18.9208 S   0  0  0  0  0  0  0  0  0  0  0  0
    7.2810  -14.2444   19.0585 C   0  0  0  0  0  0  0  0  0  0  0  0
    7.2818  -14.7879   20.4427 C   0  0  0  0  0  0  0  0  0  0  0  0
    8.6263  -15.0891   21.0116 C   0  0  2  0  0  0  0  0  0  0  0  0
    9.5088  -15.7485   20.0918 N   0  0  0  0  0  0  0  0  0  0  0  0
    8.5650  -15.8756   22.2673 C   0  0  0  0  0  0  0  0  0  0  0  0
    7.7812  -15.5476   23.1986 O   0  0  0  0  0  0  0  0  0  0  0  0
    9.7970  -20.2979   19.4852 N   0  0  0  0  0  0  0  0  0  0  0  0
   11.1792  -20.5925   19.4315 C   0  0  0  0  0  0  0  0  0  0  0  0
   11.8277  -20.7057   18.3426 N   0  0  0  0  0  0  0  0  0  0  0  0
   11.8805  -20.7739   20.6583 N   0  0  0  0  0  0  0  0  0  0  0  0
   11.2311  -20.7032   21.9485 C   0  0  0  0  0  0  0  0  0  0  0  0
   10.6831  -19.3192   22.1583 C   0  0  0  0  0  0  0  0  0  0  0  0
   10.0633  -19.0930   23.5023 C   0  0  0  0  0  0  0  0  0  0  0  0
    9.4534  -17.7503   23.7194 C   0  0  2  0  0  0  0  0  0  0  0  0
    9.3685  -17.0121   22.4788 N   0  0  0  0  0  0  0  0  0  0  0  0
   10.2110  -17.0566   24.7548 C   0  0  0  0  0  0  0  0  0  0  0  0
   11.3111  -17.4937   25.1356 O   0  0  0  0  0  0  0  0  0  0  0  0
   12.8129  -20.9726   18.2820 N   0  0  0  0  0  0  0  0  0  0  0  0
    9.6994  -15.8791   25.3343 C   0  0  1  0  0  0  0  0  0  0  0  0
    9.6148  -15.7785   26.7843 C   0  0  0  0  0  0  0  0  0  0  0  0
    8.1937  -15.4216   27.1128 C   0  0  0  0  0  0  0  0  0  0  0  0
    7.7467  -14.1085   26.6468 C   0  0  0  0  0  0  0  0  0  0  0  0
    6.4295  -13.8748   26.3309 C   0  0  0  0  0  0  0  0  0  0  0  0
    6.0677  -12.6230   25.8989 C   0  0  0  0  0  0  0  0  0  0  0  0
    6.9553  -11.5808   25.7631 C   0  0  0  0  0  0  0  0  0  0  0  0
    8.2684  -11.8484   26.0881 C   0  0  0  0  0  0  0  0  0  0  0  0
    8.6633  -13.0924   26.5241 C   0  0  0  0  0  0  0  0  0  0  0  0
   10.0290  -17.0079   27.4585 O   0  0  0  0  0  0  0  0  0  0  0  0
   10.5699  -17.0555   28.6028 O   0  0  0  0  0  0  0  0  0  0  0  0
  1  2  1  0
  3  2  1  0
  4  3  1  0
  5  4  1  0
  5  6  1  6
  7  8  2  0
  7  5  1  0
 10 12  1  0
 10  9  1  0
 11 10  2  0
 13 12  1  0
 14 13  1  0
 14 15  1  0
 16 15  1  6
 16 17  1  0
 17  7  1  0
 18 20  1  0
 18 16  1  0
 19 18  2  0
 21 22  1  1
 21 20  1  0
 22 23  1  0
 23 24  2  0
 23 28  1  0
 24 25  1  0
 25 26  2  0
 27 26  1  0
 28 27  2  0
 29 21  1  0
 30 29  2  0
 31 29  1  0
M  END
$$$$
