VHH.pdb
     RDKit          3D

 28 29  0  0  1  0  0  0  0  0999 V2000
   34.6398  -29.6705  -14.5632 C   0  0  0  0  0  0  0  0  0  0  0  0
   35.3525  -30.9707  -14.4010 C   0  0  2  0  0  0  0  0  0  0  0  0
   36.1213  -30.9304  -13.0946 C   0  0  0  0  0  0  0  0  0  0  0  0
   36.3346  -31.2715  -15.4966 C   0  0  2  0  0  0  0  0  0  0  0  0
   37.3702  -30.2641  -15.4733 N   0  0  0  0  0  0  0  0  0  0  0  0
   35.7021  -31.3170  -16.8354 C   0  0  0  0  0  0  0  0  0  0  0  0
   36.2479  -30.6606  -17.7587 O   0  0  0  0  0  0  0  0  0  0  0  0
   34.5414  -32.0435  -17.1258 N   0  0  0  0  0  0  0  0  0  0  0  0
   34.0913  -32.1739  -18.5185 C   0  0  1  0  0  0  0  0  0  0  0  0
   35.2038  -32.7402  -19.3323 C   0  0  0  0  0  0  0  0  0  0  0  0
   35.0027  -32.9086  -20.7573 C   0  0  0  0  0  0  0  0  0  0  0  0
   33.7697  -32.6633  -21.3820 C   0  0  0  0  0  0  0  0  0  0  0  0
   33.8510  -32.8930  -22.6977 N   0  0  0  0  0  0  0  0  0  0  0  0
   35.1086  -33.2810  -22.9364 C   0  0  0  0  0  0  0  0  0  0  0  0
   35.7900  -33.2884  -21.7766 N   0  0  0  0  0  0  0  0  0  0  0  0
   32.8027  -32.8655  -18.5665 C   0  0  0  0  0  0  0  0  0  0  0  0
   32.6722  -33.9441  -17.9154 O   0  0  0  0  0  0  0  0  0  0  0  0
   31.6599  -32.4383  -19.2784 N   0  0  0  0  0  0  0  0  0  0  0  0
   30.3962  -33.1301  -19.2261 C   0  0  1  0  0  0  0  0  0  0  0  0
   29.2832  -32.2514  -18.7064 C   0  0  0  0  0  0  0  0  0  0  0  0
   29.2420  -32.2085  -17.2238 C   0  0  0  0  0  0  0  0  0  0  0  0
   30.0490  -33.0055  -16.4402 C   0  0  0  0  0  0  0  0  0  0  0  0
   29.7906  -32.7480  -15.1454 N   0  0  0  0  0  0  0  0  0  0  0  0
   28.8350  -31.8028  -15.1125 C   0  0  0  0  0  0  0  0  0  0  0  0
   28.4971  -31.4705  -16.3871 N   0  0  0  0  0  0  0  0  0  0  0  0
   30.0497  -33.8170  -20.4799 C   0  0  0  0  0  0  0  0  0  0  0  0
   28.9242  -34.6066  -20.6015 O   0  0  0  0  0  0  0  0  0  0  0  0
   30.7759  -33.7169  -21.5243 O   0  0  0  0  0  0  0  0  0  0  0  0
  2  1  1  6
  2  3  1  0
  4  2  1  0
  4  5  1  6
  6  8  1  0
  6  4  1  0
  7  6  2  0
  9  8  1  0
  9 10  1  6
 11 12  2  0
 11 10  1  0
 13 12  1  0
 14 15  2  0
 14 13  1  0
 15 11  1  0
 16 18  1  0
 16  9  1  0
 17 16  2  0
 19 18  1  0
 19 26  1  0
 20 21  1  0
 19 20  1  6
 21 25  1  0
 22 21  2  0
 22 23  1  0
 23 24  1  0
 25 24  2  0
 26 27  1  0
 28 26  2  0
M  END
$$$$
