VHH.pdb
     RDKit          3D

 28 29  0  0  1  0  0  0  0  0999 V2000
   32.4956  -34.5305   -8.1913 C   0  0  0  0  0  0  0  0  0  0  0  0
   33.4230  -33.6168   -7.4634 C   0  0  2  0  0  0  0  0  0  0  0  0
   34.7168  -33.5294   -8.2494 C   0  0  0  0  0  0  0  0  0  0  0  0
   33.7659  -34.0720   -6.0740 C   0  0  2  0  0  0  0  0  0  0  0  0
   34.3203  -35.4041   -6.1517 N   0  0  0  0  0  0  0  0  0  0  0  0
   32.5971  -34.0620   -5.1638 C   0  0  0  0  0  0  0  0  0  0  0  0
   32.0133  -32.9637   -4.9795 O   0  0  0  0  0  0  0  0  0  0  0  0
   32.1120  -35.1973   -4.5042 N   0  0  0  0  0  0  0  0  0  0  0  0
   30.9821  -35.0734   -3.5730 C   0  0  1  0  0  0  0  0  0  0  0  0
   29.8427  -35.8834   -4.0892 C   0  0  0  0  0  0  0  0  0  0  0  0
   29.0693  -35.3621   -5.1981 C   0  0  0  0  0  0  0  0  0  0  0  0
   28.7572  -33.9997   -5.3290 C   0  0  0  0  0  0  0  0  0  0  0  0
   28.0371  -33.7827   -6.4357 N   0  0  0  0  0  0  0  0  0  0  0  0
   27.8772  -34.9743   -7.0220 C   0  0  0  0  0  0  0  0  0  0  0  0
   28.4943  -35.9114   -6.2801 N   0  0  0  0  0  0  0  0  0  0  0  0
   31.4287  -35.3356   -2.2045 C   0  0  0  0  0  0  0  0  0  0  0  0
   31.9771  -36.4491   -1.9517 O   0  0  0  0  0  0  0  0  0  0  0  0
   31.3124  -34.4486   -1.1115 N   0  0  0  0  0  0  0  0  0  0  0  0
   31.7927  -34.7623    0.2111 C   0  0  1  0  0  0  0  0  0  0  0  0
   32.2339  -33.5317    0.9672 C   0  0  0  0  0  0  0  0  0  0  0  0
   33.4539  -32.9183    0.3867 C   0  0  0  0  0  0  0  0  0  0  0  0
   34.1638  -33.5129   -0.6347 C   0  0  0  0  0  0  0  0  0  0  0  0
   35.2118  -32.7306   -0.9499 N   0  0  0  0  0  0  0  0  0  0  0  0
   35.1640  -31.6587   -0.1396 C   0  0  0  0  0  0  0  0  0  0  0  0
   34.0858  -31.7723    0.6813 N   0  0  0  0  0  0  0  0  0  0  0  0
   30.8751  -35.6142    0.9831 C   0  0  0  0  0  0  0  0  0  0  0  0
   29.6848  -36.0788    0.4609 O   0  0  0  0  0  0  0  0  0  0  0  0
   31.1344  -35.9690    2.1809 O   0  0  0  0  0  0  0  0  0  0  0  0
  2  1  1  6
  2  3  1  0
  4  2  1  0
  4  5  1  6
  6  8  1  0
  6  4  1  0
  7  6  2  0
  9  8  1  0
  9 10  1  6
 11 12  2  0
 11 10  1  0
 13 12  1  0
 14 15  2  0
 14 13  1  0
 15 11  1  0
 16 18  1  0
 16  9  1  0
 17 16  2  0
 19 18  1  0
 19 26  1  0
 20 21  1  0
 19 20  1  1
 21 25  1  0
 22 21  2  0
 22 23  1  0
 23 24  1  0
 25 24  2  0
 26 27  1  0
 28 26  2  0
M  END
$$$$
