VHH.pdb
     RDKit          3D

 28 29  0  0  1  0  0  0  0  0999 V2000
   21.6215  -12.1895    7.8617 C   0  0  0  0  0  0  0  0  0  0  0  0
   20.8511  -12.3488    6.5945 C   0  0  2  0  0  0  0  0  0  0  0  0
   21.1401  -11.1515    5.7100 C   0  0  0  0  0  0  0  0  0  0  0  0
   19.3636  -12.4223    6.7872 C   0  0  2  0  0  0  0  0  0  0  0  0
   18.9332  -11.2354    7.4900 N   0  0  0  0  0  0  0  0  0  0  0  0
   18.9420  -13.6322    7.5308 C   0  0  0  0  0  0  0  0  0  0  0  0
   18.7208  -13.5098    8.7626 O   0  0  0  0  0  0  0  0  0  0  0  0
   18.7782  -14.8919    6.9428 N   0  0  0  0  0  0  0  0  0  0  0  0
   18.4928  -16.0600    7.7872 C   0  0  1  0  0  0  0  0  0  0  0  0
   17.4581  -16.8967    7.1166 C   0  0  0  0  0  0  0  0  0  0  0  0
   16.0793  -16.4524    7.1517 C   0  0  0  0  0  0  0  0  0  0  0  0
   15.6885  -15.2438    7.7491 C   0  0  0  0  0  0  0  0  0  0  0  0
   14.3659  -15.0699    7.6457 N   0  0  0  0  0  0  0  0  0  0  0  0
   13.8940  -16.1391    6.9949 C   0  0  0  0  0  0  0  0  0  0  0  0
   14.9196  -16.9593    6.7032 N   0  0  0  0  0  0  0  0  0  0  0  0
   19.7420  -16.7164    8.1744 C   0  0  0  0  0  0  0  0  0  0  0  0
   20.7915  -16.4521    7.5163 O   0  0  0  0  0  0  0  0  0  0  0  0
   19.9007  -17.6330    9.2373 N   0  0  0  0  0  0  0  0  0  0  0  0
   21.1887  -18.0246    9.7529 C   0  0  1  0  0  0  0  0  0  0  0  0
   22.0592  -16.8355   10.0833 C   0  0  0  0  0  0  0  0  0  0  0  0
   23.3817  -17.2356   10.6240 C   0  0  0  0  0  0  0  0  0  0  0  0
   23.7670  -18.5551   10.7292 C   0  0  0  0  0  0  0  0  0  0  0  0
   25.0062  -18.6070   11.2499 N   0  0  0  0  0  0  0  0  0  0  0  0
   25.3970  -17.3395   11.4700 C   0  0  0  0  0  0  0  0  0  0  0  0
   24.4013  -16.4966   11.0864 N   0  0  0  0  0  0  0  0  0  0  0  0
   21.1106  -19.0031   10.8484 C   0  0  0  0  0  0  0  0  0  0  0  0
   22.0811  -19.9636   11.0498 O   0  0  0  0  0  0  0  0  0  0  0  0
   20.1367  -19.0134   11.6726 O   0  0  0  0  0  0  0  0  0  0  0  0
  2  1  1  1
  2  3  1  0
  4  2  1  0
  4  5  1  1
  6  8  1  0
  6  4  1  0
  7  6  2  0
  9  8  1  0
  9 10  1  6
 11 12  2  0
 11 10  1  0
 13 12  1  0
 14 15  2  0
 14 13  1  0
 15 11  1  0
 16 18  1  0
 16  9  1  0
 17 16  2  0
 19 18  1  0
 19 26  1  0
 20 21  1  0
 19 20  1  1
 21 25  1  0
 22 21  2  0
 22 23  1  0
 23 24  1  0
 25 24  2  0
 26 27  1  0
 28 26  2  0
M  END
$$$$
