VHH.pdb
     RDKit          3D

 28 29  0  0  1  0  0  0  0  0999 V2000
   25.3109  -36.9632  -11.4925 C   0  0  0  0  0  0  0  0  0  0  0  0
   24.1145  -36.2454  -12.0199 C   0  0  2  0  0  0  0  0  0  0  0  0
   23.8750  -36.7059  -13.4446 C   0  0  0  0  0  0  0  0  0  0  0  0
   24.2584  -34.7507  -12.0442 C   0  0  2  0  0  0  0  0  0  0  0  0
   25.2882  -34.4047  -12.9969 N   0  0  0  0  0  0  0  0  0  0  0  0
   24.5877  -34.1860  -10.7148 C   0  0  0  0  0  0  0  0  0  0  0  0
   25.7842  -33.8645  -10.5000 O   0  0  0  0  0  0  0  0  0  0  0  0
   23.6487  -33.9926   -9.6948 N   0  0  0  0  0  0  0  0  0  0  0  0
   24.0786  -33.4429   -8.4017 C   0  0  1  0  0  0  0  0  0  0  0  0
   23.0627  -32.4566   -7.9370 C   0  0  0  0  0  0  0  0  0  0  0  0
   23.0009  -31.1657   -8.5923 C   0  0  0  0  0  0  0  0  0  0  0  0
   22.5022  -31.0008   -9.8940 C   0  0  0  0  0  0  0  0  0  0  0  0
   22.5550  -29.7155  -10.2624 N   0  0  0  0  0  0  0  0  0  0  0  0
   23.0765  -29.0471   -9.2278 C   0  0  0  0  0  0  0  0  0  0  0  0
   23.3402  -29.9165   -8.2357 N   0  0  0  0  0  0  0  0  0  0  0  0
   24.4299  -34.5292   -7.4866 C   0  0  0  0  0  0  0  0  0  0  0  0
   24.2120  -35.7218   -7.8539 O   0  0  0  0  0  0  0  0  0  0  0  0
   25.0066  -34.3791   -6.2060 N   0  0  0  0  0  0  0  0  0  0  0  0
   25.3576  -35.4962   -5.3652 C   0  0  1  0  0  0  0  0  0  0  0  0
   26.2422  -36.4926   -6.0762 C   0  0  0  0  0  0  0  0  0  0  0  0
   26.6263  -37.6306   -5.2050 C   0  0  0  0  0  0  0  0  0  0  0  0
   25.9732  -37.9077   -4.0229 C   0  0  0  0  0  0  0  0  0  0  0  0
   26.5385  -38.9886   -3.4557 N   0  0  0  0  0  0  0  0  0  0  0  0
   27.5332  -39.3876   -4.2676 C   0  0  0  0  0  0  0  0  0  0  0  0
   27.5885  -38.5553   -5.3416 N   0  0  0  0  0  0  0  0  0  0  0  0
   25.8797  -35.0998   -4.0484 C   0  0  0  0  0  0  0  0  0  0  0  0
   26.0068  -33.7777   -3.6730 O   0  0  0  0  0  0  0  0  0  0  0  0
   26.2432  -35.9627   -3.1816 O   0  0  0  0  0  0  0  0  0  0  0  0
  2  1  1  6
  2  3  1  0
  4  2  1  0
  4  5  1  6
  6  8  1  0
  6  4  1  0
  7  6  2  0
  9  8  1  0
  9 10  1  1
 11 12  2  0
 11 10  1  0
 13 12  1  0
 14 15  2  0
 14 13  1  0
 15 11  1  0
 16 18  1  0
 16  9  1  0
 17 16  2  0
 19 18  1  0
 19 26  1  0
 20 21  1  0
 19 20  1  6
 21 25  1  0
 22 21  2  0
 22 23  1  0
 23 24  1  0
 25 24  2  0
 26 27  1  0
 28 26  2  0
M  END
$$$$
