VHH.pdb
     RDKit          3D

 28 29  0  0  1  0  0  0  0  0999 V2000
   20.6424  -11.6049  -16.2629 C   0  0  0  0  0  0  0  0  0  0  0  0
   19.3626  -11.6837  -17.0249 C   0  0  2  0  0  0  0  0  0  0  0  0
   19.4597  -12.8441  -17.9963 C   0  0  0  0  0  0  0  0  0  0  0  0
   19.0472  -10.4502  -17.8215 C   0  0  2  0  0  0  0  0  0  0  0  0
   19.9879  -10.3571  -18.9142 N   0  0  0  0  0  0  0  0  0  0  0  0
   19.0944   -9.2147  -17.0056 C   0  0  0  0  0  0  0  0  0  0  0  0
   18.2421   -9.0901  -16.0895 O   0  0  0  0  0  0  0  0  0  0  0  0
   20.0269   -8.1884  -17.1969 N   0  0  0  0  0  0  0  0  0  0  0  0
   19.9808   -6.9921  -16.3450 C   0  0  1  0  0  0  0  0  0  0  0  0
   21.0223   -7.1154  -15.2863 C   0  0  0  0  0  0  0  0  0  0  0  0
   20.6655   -7.7540  -14.0355 C   0  0  0  0  0  0  0  0  0  0  0  0
   19.3940   -8.3004  -13.8003 C   0  0  0  0  0  0  0  0  0  0  0  0
   19.3246   -8.8280  -12.5726 N   0  0  0  0  0  0  0  0  0  0  0  0
   20.5227   -8.6345  -12.0100 C   0  0  0  0  0  0  0  0  0  0  0  0
   21.3173   -7.9941  -12.8864 N   0  0  0  0  0  0  0  0  0  0  0  0
   20.0019   -5.7856  -17.1727 C   0  0  0  0  0  0  0  0  0  0  0  0
   20.9100   -5.6704  -18.0482 O   0  0  0  0  0  0  0  0  0  0  0  0
   19.0863   -4.7128  -17.0959 N   0  0  0  0  0  0  0  0  0  0  0  0
   19.2135   -3.5119  -17.8832 C   0  0  1  0  0  0  0  0  0  0  0  0
   17.9110   -2.7546  -17.9875 C   0  0  0  0  0  0  0  0  0  0  0  0
   18.0091   -1.5825  -18.8920 C   0  0  0  0  0  0  0  0  0  0  0  0
   18.7225   -1.6186  -20.0712 C   0  0  0  0  0  0  0  0  0  0  0  0
   18.6306   -0.4190  -20.6729 N   0  0  0  0  0  0  0  0  0  0  0  0
   17.8708    0.3622  -19.8854 C   0  0  0  0  0  0  0  0  0  0  0  0
   17.4885   -0.3503  -18.7920 N   0  0  0  0  0  0  0  0  0  0  0  0
   20.3434   -2.6611  -17.4793 C   0  0  0  0  0  0  0  0  0  0  0  0
   21.1093   -1.9684  -18.3951 O   0  0  0  0  0  0  0  0  0  0  0  0
   20.6745   -2.5193  -16.2552 O   0  0  0  0  0  0  0  0  0  0  0  0
  2  1  1  6
  2  3  1  0
  4  2  1  0
  4  5  1  6
  6  8  1  0
  6  4  1  0
  7  6  2  0
  9  8  1  0
  9 10  1  1
 11 12  2  0
 11 10  1  0
 13 12  1  0
 14 15  2  0
 14 13  1  0
 15 11  1  0
 16 18  1  0
 16  9  1  0
 17 16  2  0
 19 18  1  0
 19 26  1  0
 20 21  1  0
 19 20  1  1
 21 25  1  0
 22 21  2  0
 22 23  1  0
 23 24  1  0
 25 24  2  0
 26 27  1  0
 28 26  2  0
M  END
$$$$
