VHH.pdb
     RDKit          3D

 28 29  0  0  1  0  0  0  0  0999 V2000
   26.9210  -21.5058  -14.4966 C   0  0  0  0  0  0  0  0  0  0  0  0
   27.6069  -20.4224  -13.7346 C   0  0  2  0  0  0  0  0  0  0  0  0
   28.8253  -21.0179  -13.0563 C   0  0  0  0  0  0  0  0  0  0  0  0
   26.7576  -19.7909  -12.6692 C   0  0  2  0  0  0  0  0  0  0  0  0
   26.3588  -20.8166  -11.7328 N   0  0  0  0  0  0  0  0  0  0  0  0
   25.5603  -19.1134  -13.2187 C   0  0  0  0  0  0  0  0  0  0  0  0
   24.4339  -19.5380  -12.8552 O   0  0  0  0  0  0  0  0  0  0  0  0
   25.6138  -18.0370  -14.1119 N   0  0  0  0  0  0  0  0  0  0  0  0
   24.3676  -17.4247  -14.5926 C   0  0  1  0  0  0  0  0  0  0  0  0
   24.6763  -16.0748  -15.1433 C   0  0  0  0  0  0  0  0  0  0  0  0
   23.6004  -15.3067  -15.7366 C   0  0  0  0  0  0  0  0  0  0  0  0
   22.2838  -15.7868  -15.8191 C   0  0  0  0  0  0  0  0  0  0  0  0
   21.4874  -14.8872  -16.4081 N   0  0  0  0  0  0  0  0  0  0  0  0
   22.2602  -13.8373  -16.7076 C   0  0  0  0  0  0  0  0  0  0  0  0
   23.5180  -14.0931  -16.3051 N   0  0  0  0  0  0  0  0  0  0  0  0
   23.6526  -18.3591  -15.4627 C   0  0  0  0  0  0  0  0  0  0  0  0
   24.3115  -19.2810  -16.0287 O   0  0  0  0  0  0  0  0  0  0  0  0
   22.2673  -18.3397  -15.7373 N   0  0  0  0  0  0  0  0  0  0  0  0
   21.3929  -19.4498  -15.4519 C   0  0  1  0  0  0  0  0  0  0  0  0
   21.5448  -19.9490  -14.0347 C   0  0  0  0  0  0  0  0  0  0  0  0
   20.6247  -21.0722  -13.7290 C   0  0  0  0  0  0  0  0  0  0  0  0
   20.8007  -22.3340  -14.2559 C   0  0  0  0  0  0  0  0  0  0  0  0
   19.8194  -23.1356  -13.8041 N   0  0  0  0  0  0  0  0  0  0  0  0
   19.0362  -22.3911  -13.0043 C   0  0  0  0  0  0  0  0  0  0  0  0
   19.5289  -21.1245  -12.9570 N   0  0  0  0  0  0  0  0  0  0  0  0
   19.9922  -19.2073  -15.8299 C   0  0  0  0  0  0  0  0  0  0  0  0
   19.2689  -20.1013  -16.5933 O   0  0  0  0  0  0  0  0  0  0  0  0
   19.3714  -18.1526  -15.4692 O   0  0  0  0  0  0  0  0  0  0  0  0
  2  1  1  1
  2  3  1  0
  4  2  1  0
  4  5  1  1
  6  8  1  0
  6  4  1  0
  7  6  2  0
  9  8  1  0
  9 10  1  6
 11 12  2  0
 11 10  1  0
 13 12  1  0
 14 15  2  0
 14 13  1  0
 15 11  1  0
 16 18  1  0
 16  9  1  0
 17 16  2  0
 19 18  1  0
 19 26  1  0
 20 21  1  0
 19 20  1  1
 21 25  1  0
 22 21  2  0
 22 23  1  0
 23 24  1  0
 25 24  2  0
 26 27  1  0
 28 26  2  0
M  END
$$$$
