VHH.pdb
     RDKit          3D

 28 29  0  0  1  0  0  0  0  0999 V2000
   15.8592  -14.3750  -17.8820 C   0  0  0  0  0  0  0  0  0  0  0  0
   16.9607  -14.3386  -18.8869 C   0  0  2  0  0  0  0  0  0  0  0  0
   17.2931  -15.7654  -19.2783 C   0  0  0  0  0  0  0  0  0  0  0  0
   18.2244  -13.6989  -18.3876 C   0  0  2  0  0  0  0  0  0  0  0  0
   18.7460  -14.4991  -17.3034 N   0  0  0  0  0  0  0  0  0  0  0  0
   18.0188  -12.3037  -17.9341 C   0  0  0  0  0  0  0  0  0  0  0  0
   17.6730  -11.4569  -18.7971 O   0  0  0  0  0  0  0  0  0  0  0  0
   18.1869  -11.8806  -16.6104 N   0  0  0  0  0  0  0  0  0  0  0  0
   18.0114  -10.4621  -16.2697 C   0  0  1  0  0  0  0  0  0  0  0  0
   16.7533  -10.3080  -15.4861 C   0  0  0  0  0  0  0  0  0  0  0  0
   15.4878  -10.5123  -16.1616 C   0  0  0  0  0  0  0  0  0  0  0  0
   14.9621   -9.5893  -17.0795 C   0  0  0  0  0  0  0  0  0  0  0  0
   13.7871  -10.0141  -17.5584 N   0  0  0  0  0  0  0  0  0  0  0  0
   13.5424  -11.1903  -16.9703 C   0  0  0  0  0  0  0  0  0  0  0  0
   14.5592  -11.4819  -16.1392 N   0  0  0  0  0  0  0  0  0  0  0  0
   19.2411   -9.9320  -15.6796 C   0  0  0  0  0  0  0  0  0  0  0  0
   20.1959  -10.7331  -15.4535 O   0  0  0  0  0  0  0  0  0  0  0  0
   19.4787   -8.5835  -15.3333 N   0  0  0  0  0  0  0  0  0  0  0  0
   20.7993   -8.0091  -15.2668 C   0  0  1  0  0  0  0  0  0  0  0  0
   21.5998   -8.2665  -16.5214 C   0  0  0  0  0  0  0  0  0  0  0  0
   22.6035   -9.3442  -16.3408 C   0  0  0  0  0  0  0  0  0  0  0  0
   22.7862   -9.9874  -15.1351 C   0  0  0  0  0  0  0  0  0  0  0  0
   23.7561  -10.9089  -15.2754 N   0  0  0  0  0  0  0  0  0  0  0  0
   24.1791  -10.8481  -16.5502 C   0  0  0  0  0  0  0  0  0  0  0  0
   23.4728   -9.8884  -17.2054 N   0  0  0  0  0  0  0  0  0  0  0  0
   20.8059   -6.5957  -14.8594 C   0  0  0  0  0  0  0  0  0  0  0  0
   21.6088   -6.1258  -13.8398 O   0  0  0  0  0  0  0  0  0  0  0  0
   20.0660   -5.7277  -15.4313 O   0  0  0  0  0  0  0  0  0  0  0  0
  2  1  1  1
  2  3  1  0
  4  2  1  0
  4  5  1  1
  6  8  1  0
  6  4  1  0
  7  6  2  0
  9  8  1  0
  9 10  1  1
 11 12  2  0
 11 10  1  0
 13 12  1  0
 14 15  2  0
 14 13  1  0
 15 11  1  0
 16 18  1  0
 16  9  1  0
 17 16  2  0
 19 18  1  0
 19 26  1  0
 20 21  1  0
 19 20  1  6
 21 25  1  0
 22 21  2  0
 22 23  1  0
 23 24  1  0
 25 24  2  0
 26 27  1  0
 28 26  2  0
M  END
$$$$
