VHH.pdb
     RDKit          3D

 28 29  0  0  1  0  0  0  0  0999 V2000
   26.5275  -16.2581  -16.5981 C   0  0  0  0  0  0  0  0  0  0  0  0
   26.4676  -14.7899  -16.3423 C   0  0  2  0  0  0  0  0  0  0  0  0
   27.0849  -14.5196  -14.9839 C   0  0  0  0  0  0  0  0  0  0  0  0
   25.0754  -14.2270  -16.3283 C   0  0  2  0  0  0  0  0  0  0  0  0
   24.3937  -14.6598  -17.5265 N   0  0  0  0  0  0  0  0  0  0  0  0
   25.0570  -12.7483  -16.2410 C   0  0  0  0  0  0  0  0  0  0  0  0
   25.4689  -12.2237  -15.1750 O   0  0  0  0  0  0  0  0  0  0  0  0
   24.6104  -11.9113  -17.2703 N   0  0  0  0  0  0  0  0  0  0  0  0
   24.5968  -10.4553  -17.0731 C   0  0  1  0  0  0  0  0  0  0  0  0
   25.5713   -9.8336  -18.0135 C   0  0  0  0  0  0  0  0  0  0  0  0
   26.9848   -9.9310  -17.7098 C   0  0  0  0  0  0  0  0  0  0  0  0
   27.4675  -10.5372  -16.5392 C   0  0  0  0  0  0  0  0  0  0  0  0
   28.8043  -10.4959  -16.5008 N   0  0  0  0  0  0  0  0  0  0  0  0
   29.1955   -9.8767  -17.6201 C   0  0  0  0  0  0  0  0  0  0  0  0
   28.1070   -9.5425  -18.3364 N   0  0  0  0  0  0  0  0  0  0  0  0
   23.2210   -9.9578  -17.1034 C   0  0  0  0  0  0  0  0  0  0  0  0
   22.4313  -10.4205  -17.9790 O   0  0  0  0  0  0  0  0  0  0  0  0
   22.6697   -8.9943  -16.2300 N   0  0  0  0  0  0  0  0  0  0  0  0
   21.2615   -8.9177  -15.9310 C   0  0  1  0  0  0  0  0  0  0  0  0
   20.6958  -10.2475  -15.4925 C   0  0  0  0  0  0  0  0  0  0  0  0
   19.2664  -10.1542  -15.1055 C   0  0  0  0  0  0  0  0  0  0  0  0
   18.5672   -8.9667  -15.1470 C   0  0  0  0  0  0  0  0  0  0  0  0
   17.3037   -9.1907  -14.7430 N   0  0  0  0  0  0  0  0  0  0  0  0
   17.2072  -10.4996  -14.4510 C   0  0  0  0  0  0  0  0  0  0  0  0
   18.4107  -11.0924  -14.6730 N   0  0  0  0  0  0  0  0  0  0  0  0
   20.9128   -7.8156  -15.0213 C   0  0  0  0  0  0  0  0  0  0  0  0
   21.5723   -7.6086  -13.8267 O   0  0  0  0  0  0  0  0  0  0  0  0
   19.9780   -6.9904  -15.2922 O   0  0  0  0  0  0  0  0  0  0  0  0
  2  1  1  1
  2  3  1  0
  4  2  1  0
  4  5  1  6
  6  8  1  0
  6  4  1  0
  7  6  2  0
  9  8  1  0
  9 10  1  6
 11 12  2  0
 11 10  1  0
 13 12  1  0
 14 15  2  0
 14 13  1  0
 15 11  1  0
 16 18  1  0
 16  9  1  0
 17 16  2  0
 19 18  1  0
 19 26  1  0
 20 21  1  0
 19 20  1  1
 21 25  1  0
 22 21  2  0
 22 23  1  0
 23 24  1  0
 25 24  2  0
 26 27  1  0
 28 26  2  0
M  END
$$$$
