VHH.pdb
     RDKit          3D

 28 29  0  0  1  0  0  0  0  0999 V2000
   24.6706  -35.6664  -14.3550 C   0  0  0  0  0  0  0  0  0  0  0  0
   23.8957  -35.6005  -15.6278 C   0  0  2  0  0  0  0  0  0  0  0  0
   24.3002  -36.7798  -16.4909 C   0  0  0  0  0  0  0  0  0  0  0  0
   24.1341  -34.3509  -16.4259 C   0  0  2  0  0  0  0  0  0  0  0  0
   25.5225  -34.3197  -16.8250 N   0  0  0  0  0  0  0  0  0  0  0  0
   23.7949  -33.1194  -15.6758 C   0  0  0  0  0  0  0  0  0  0  0  0
   24.6186  -32.1701  -15.7137 O   0  0  0  0  0  0  0  0  0  0  0  0
   22.6189  -32.9565  -14.9342 N   0  0  0  0  0  0  0  0  0  0  0  0
   22.3155  -31.6548  -14.3236 C   0  0  1  0  0  0  0  0  0  0  0  0
   22.4533  -30.5935  -15.3606 C   0  0  0  0  0  0  0  0  0  0  0  0
   22.0746  -29.2376  -15.0178 C   0  0  0  0  0  0  0  0  0  0  0  0
   21.6609  -28.8705  -13.7275 C   0  0  0  0  0  0  0  0  0  0  0  0
   21.3692  -27.5656  -13.6768 N   0  0  0  0  0  0  0  0  0  0  0  0
   21.5853  -27.0821  -14.9051 C   0  0  0  0  0  0  0  0  0  0  0  0
   22.0054  -28.0829  -15.6997 N   0  0  0  0  0  0  0  0  0  0  0  0
   21.0474  -31.7250  -13.5968 C   0  0  0  0  0  0  0  0  0  0  0  0
   20.0757  -32.3328  -14.1362 O   0  0  0  0  0  0  0  0  0  0  0  0
   20.7929  -31.1748  -12.3211 N   0  0  0  0  0  0  0  0  0  0  0  0
   19.5393  -31.3402  -11.6287 C   0  0  1  0  0  0  0  0  0  0  0  0
   19.6627  -31.0702  -10.1479 C   0  0  0  0  0  0  0  0  0  0  0  0
   20.5278  -32.0618   -9.4624 C   0  0  0  0  0  0  0  0  0  0  0  0
   21.0771  -33.1413  -10.1209 C   0  0  0  0  0  0  0  0  0  0  0  0
   21.8079  -33.8582   -9.2482 N   0  0  0  0  0  0  0  0  0  0  0  0
   21.7211  -33.2404   -8.0572 C   0  0  0  0  0  0  0  0  0  0  0  0
   20.9359  -32.1378   -8.1868 N   0  0  0  0  0  0  0  0  0  0  0  0
   18.4220  -30.6166  -12.2547 C   0  0  0  0  0  0  0  0  0  0  0  0
   17.1159  -31.0527  -12.1607 O   0  0  0  0  0  0  0  0  0  0  0  0
   18.6047  -29.5431  -12.9198 O   0  0  0  0  0  0  0  0  0  0  0  0
  2  1  1  1
  2  3  1  0
  4  2  1  0
  4  5  1  1
  6  8  1  0
  6  4  1  0
  7  6  2  0
  9  8  1  0
  9 10  1  6
 11 12  2  0
 11 10  1  0
 13 12  1  0
 14 15  2  0
 14 13  1  0
 15 11  1  0
 16 18  1  0
 16  9  1  0
 17 16  2  0
 19 18  1  0
 19 26  1  0
 20 21  1  0
 19 20  1  1
 21 25  1  0
 22 21  2  0
 22 23  1  0
 23 24  1  0
 25 24  2  0
 26 27  1  0
 28 26  2  0
M  END
$$$$
