VHH.pdb
     RDKit          3D

 28 29  0  0  1  0  0  0  0  0999 V2000
   35.0313  -35.6529   -4.0370 C   0  0  0  0  0  0  0  0  0  0  0  0
   34.5139  -36.3485   -5.2508 C   0  0  2  0  0  0  0  0  0  0  0  0
   35.6693  -37.0784   -5.9078 C   0  0  0  0  0  0  0  0  0  0  0  0
   33.9166  -35.4281   -6.2762 C   0  0  2  0  0  0  0  0  0  0  0  0
   34.9435  -34.5181   -6.7291 N   0  0  0  0  0  0  0  0  0  0  0  0
   32.7581  -34.6660   -5.7552 C   0  0  0  0  0  0  0  0  0  0  0  0
   32.9882  -33.5499   -5.2234 O   0  0  0  0  0  0  0  0  0  0  0  0
   31.4343  -35.1159   -5.8218 N   0  0  0  0  0  0  0  0  0  0  0  0
   30.3627  -34.3258   -5.2001 C   0  0  1  0  0  0  0  0  0  0  0  0
   29.5969  -33.6276   -6.2710 C   0  0  0  0  0  0  0  0  0  0  0  0
   30.2394  -32.5440   -6.9870 C   0  0  0  0  0  0  0  0  0  0  0  0
   31.5229  -32.0778   -6.6616 C   0  0  0  0  0  0  0  0  0  0  0  0
   31.8825  -31.0754   -7.4717 N   0  0  0  0  0  0  0  0  0  0  0  0
   30.8601  -30.8840   -8.3127 C   0  0  0  0  0  0  0  0  0  0  0  0
   29.8840  -31.7619   -8.0190 N   0  0  0  0  0  0  0  0  0  0  0  0
   29.6052  -35.1568   -4.2638 C   0  0  0  0  0  0  0  0  0  0  0  0
   29.2699  -36.3230   -4.6272 O   0  0  0  0  0  0  0  0  0  0  0  0
   29.2053  -34.7829   -2.9617 N   0  0  0  0  0  0  0  0  0  0  0  0
   28.4902  -35.6657   -2.0743 C   0  0  1  0  0  0  0  0  0  0  0  0
   28.9522  -35.5360   -0.6423 C   0  0  0  0  0  0  0  0  0  0  0  0
   30.3578  -35.9749   -0.4596 C   0  0  0  0  0  0  0  0  0  0  0  0
   30.8788  -37.0716   -1.1127 C   0  0  0  0  0  0  0  0  0  0  0  0
   32.1659  -37.2227   -0.7519 N   0  0  0  0  0  0  0  0  0  0  0  0
   32.4527  -36.2364    0.1156 C   0  0  0  0  0  0  0  0  0  0  0  0
   31.3442  -35.4697    0.2962 N   0  0  0  0  0  0  0  0  0  0  0  0
   27.0284  -35.5852   -2.2171 C   0  0  0  0  0  0  0  0  0  0  0  0
   26.1698  -36.3560   -1.4597 O   0  0  0  0  0  0  0  0  0  0  0  0
   26.4770  -34.7942   -3.0528 O   0  0  0  0  0  0  0  0  0  0  0  0
  2  1  1  1
  2  3  1  0
  4  2  1  0
  4  5  1  1
  6  8  1  0
  6  4  1  0
  7  6  2  0
  9  8  1  0
  9 10  1  6
 11 12  2  0
 11 10  1  0
 13 12  1  0
 14 15  2  0
 14 13  1  0
 15 11  1  0
 16 18  1  0
 16  9  1  0
 17 16  2  0
 19 18  1  0
 19 26  1  0
 20 21  1  0
 19 20  1  1
 21 25  1  0
 22 21  2  0
 22 23  1  0
 23 24  1  0
 25 24  2  0
 26 27  1  0
 28 26  2  0
M  END
$$$$
