VHH.pdb
     RDKit          3D

 28 29  0  0  1  0  0  0  0  0999 V2000
   15.3507  -20.8625    4.2988 C   0  0  0  0  0  0  0  0  0  0  0  0
   14.6544  -19.6512    3.7766 C   0  0  2  0  0  0  0  0  0  0  0  0
   13.5707  -20.1036    2.8174 C   0  0  0  0  0  0  0  0  0  0  0  0
   15.5506  -18.7021    3.0340 C   0  0  2  0  0  0  0  0  0  0  0  0
   16.0343  -19.3643    1.8443 N   0  0  0  0  0  0  0  0  0  0  0  0
   16.6927  -18.2342    3.8532 C   0  0  0  0  0  0  0  0  0  0  0  0
   17.8446  -18.6025    3.5087 O   0  0  0  0  0  0  0  0  0  0  0  0
   16.5608  -17.4125    4.9787 N   0  0  0  0  0  0  0  0  0  0  0  0
   17.7614  -16.9389    5.6813 C   0  0  1  0  0  0  0  0  0  0  0  0
   17.4403  -15.6580    6.3719 C   0  0  0  0  0  0  0  0  0  0  0  0
   17.8568  -14.4153    5.7539 C   0  0  0  0  0  0  0  0  0  0  0  0
   18.5464  -14.3715    4.5320 C   0  0  0  0  0  0  0  0  0  0  0  0
   18.8125  -13.1074    4.1830 N   0  0  0  0  0  0  0  0  0  0  0  0
   18.3102  -12.3343    5.1522 C   0  0  0  0  0  0  0  0  0  0  0  0
   17.7421  -13.1192    6.0853 N   0  0  0  0  0  0  0  0  0  0  0  0
   18.3261  -18.0178    6.4926 C   0  0  0  0  0  0  0  0  0  0  0  0
   17.5466  -18.6869    7.2336 O   0  0  0  0  0  0  0  0  0  0  0  0
   19.6850  -18.4014    6.5296 N   0  0  0  0  0  0  0  0  0  0  0  0
   20.1973  -19.3962    7.4385 C   0  0  1  0  0  0  0  0  0  0  0  0
   21.1343  -20.3656    6.7579 C   0  0  0  0  0  0  0  0  0  0  0  0
   20.4097  -21.4446    6.0420 C   0  0  0  0  0  0  0  0  0  0  0  0
   19.0340  -21.5343    6.0411 C   0  0  0  0  0  0  0  0  0  0  0  0
   18.6677  -22.6055    5.3146 N   0  0  0  0  0  0  0  0  0  0  0  0
   19.7951  -23.1831    4.8639 C   0  0  0  0  0  0  0  0  0  0  0  0
   20.8652  -22.4719    5.3095 N   0  0  0  0  0  0  0  0  0  0  0  0
   20.7542  -18.8302    8.6767 C   0  0  0  0  0  0  0  0  0  0  0  0
   20.6068  -19.4485    9.9019 O   0  0  0  0  0  0  0  0  0  0  0  0
   21.4056  -17.7331    8.6809 O   0  0  0  0  0  0  0  0  0  0  0  0
  2  1  1  6
  2  3  1  0
  4  2  1  0
  4  5  1  6
  6  8  1  0
  6  4  1  0
  7  6  2  0
  9  8  1  0
  9 10  1  1
 11 12  2  0
 11 10  1  0
 13 12  1  0
 14 15  2  0
 14 13  1  0
 15 11  1  0
 16 18  1  0
 16  9  1  0
 17 16  2  0
 19 18  1  0
 19 26  1  0
 20 21  1  0
 19 20  1  6
 21 25  1  0
 22 21  2  0
 22 23  1  0
 23 24  1  0
 25 24  2  0
 26 27  1  0
 28 26  2  0
M  END
$$$$
