EVY.pdb
     RDKit          3D

 29 29  0  0  1  0  0  0  0  0999 V2000
   11.6583  -17.2146   18.0064 N   0  0  0  0  0  0  0  0  0  0  0  0
   10.5979  -17.5838   18.9306 C   0  0  1  0  0  0  0  0  0  0  0  0
   11.0317  -18.7444   19.7688 C   0  0  0  0  0  0  0  0  0  0  0  0
   11.3732  -19.9794   18.9980 C   0  0  0  0  0  0  0  0  0  0  0  0
   11.7297  -21.0711   19.9158 C   0  0  0  0  0  0  0  0  0  0  0  0
   11.7961  -20.9651   21.1628 O   0  0  0  0  0  0  0  0  0  0  0  0
   10.2702  -16.4374   19.8349 C   0  0  0  0  0  0  0  0  0  0  0  0
   11.2290  -15.7808   20.3016 O   0  0  0  0  0  0  0  0  0  0  0  0
   12.0255  -22.3469   19.3981 O   0  0  0  0  0  0  0  0  0  0  0  0
    7.1331  -13.7731   19.3736 C   0  0  0  0  0  0  0  0  0  0  0  0
    7.2325  -14.4549   20.7061 C   0  0  2  0  0  0  0  0  0  0  0  0
    6.9289  -13.4349   21.7857 C   0  0  0  0  0  0  0  0  0  0  0  0
    8.6079  -15.0154   20.9880 C   0  0  2  0  0  0  0  0  0  0  0  0
    8.9324  -16.1276   20.1330 N   0  0  0  0  0  0  0  0  0  0  0  0
    8.7666  -15.4155   22.3980 C   0  0  0  0  0  0  0  0  0  0  0  0
    8.3297  -16.5465   22.7351 O   0  0  0  0  0  0  0  0  0  0  0  0
   10.9415  -16.4399   30.7817 O   0  0  0  0  0  0  0  0  0  0  0  0
   10.7400  -15.8476   29.5371 C   0  0  0  0  0  0  0  0  0  0  0  0
    9.9415  -14.7499   29.3723 C   0  0  0  0  0  0  0  0  0  0  0  0
    9.7688  -14.1926   28.1131 C   0  0  0  0  0  0  0  0  0  0  0  0
   10.3765  -14.6978   26.9751 C   0  0  0  0  0  0  0  0  0  0  0  0
   10.1945  -14.1192   25.6268 C   0  0  0  0  0  0  0  0  0  0  0  0
    9.4776  -15.0680   24.7388 C   0  0  2  0  0  0  0  0  0  0  0  0
    9.3836  -14.5784   23.3716 N   0  0  0  0  0  0  0  0  0  0  0  0
    8.0950  -15.2864   25.2400 C   0  0  0  0  0  0  0  0  0  0  0  0
    7.8536  -16.4168   26.0242 O   0  0  0  0  0  0  0  0  0  0  0  0
   11.1897  -15.8230   27.1721 C   0  0  0  0  0  0  0  0  0  0  0  0
   11.3579  -16.3726   28.4247 C   0  0  0  0  0  0  0  0  0  0  0  0
    7.1195  -14.5462   25.0222 O   0  0  0  0  0  0  0  0  0  0  0  0
  2  1  1  6
  2  3  1  0
  3  4  1  0
  4  5  1  0
  5  6  2  0
  5  9  1  0
  7  8  2  0
  7  2  1  0
 11 10  1  6
 11 13  1  0
 12 11  1  0
 13 14  1  6
 14  7  1  0
 15 24  1  0
 15 13  1  0
 16 15  2  0
 18 17  1  0
 19 18  2  0
 20 19  1  0
 21 27  1  0
 21 20  2  0
 23 22  1  1
 22 21  1  0
 23 25  1  0
 23 24  1  0
 25 26  1  0
 27 28  2  0
 28 18  1  0
 29 25  2  0
M  END
$$$$
