EVY.pdb
     RDKit          3D

 29 29  0  0  1  0  0  0  0  0999 V2000
    8.9728  -15.4283   14.6878 N   0  0  0  0  0  0  0  0  0  0  0  0
    9.9102  -16.1041   15.5706 C   0  0  1  0  0  0  0  0  0  0  0  0
   11.2535  -16.1927   14.9182 C   0  0  0  0  0  0  0  0  0  0  0  0
   11.9779  -17.4799   15.1508 C   0  0  0  0  0  0  0  0  0  0  0  0
   13.3985  -17.2227   15.4284 C   0  0  0  0  0  0  0  0  0  0  0  0
   14.0004  -16.1587   15.1529 O   0  0  0  0  0  0  0  0  0  0  0  0
   10.0523  -15.3520   16.8565 C   0  0  0  0  0  0  0  0  0  0  0  0
   11.1862  -14.8998   17.1359 O   0  0  0  0  0  0  0  0  0  0  0  0
   14.1776  -18.2181   16.0493 O   0  0  0  0  0  0  0  0  0  0  0  0
    6.9352  -13.1526   18.4217 C   0  0  0  0  0  0  0  0  0  0  0  0
    7.7174  -13.9394   19.4311 C   0  0  2  0  0  0  0  0  0  0  0  0
    7.9783  -13.0486   20.6297 C   0  0  0  0  0  0  0  0  0  0  0  0
    9.0594  -14.4054   18.9140 C   0  0  2  0  0  0  0  0  0  0  0  0
    8.9432  -15.1713   17.7001 N   0  0  0  0  0  0  0  0  0  0  0  0
    9.8018  -15.1867   19.9199 C   0  0  0  0  0  0  0  0  0  0  0  0
    9.4971  -16.4001   20.0558 O   0  0  0  0  0  0  0  0  0  0  0  0
   15.8656  -14.9753   16.9638 O   0  0  0  0  0  0  0  0  0  0  0  0
   15.1671  -15.0235   18.1682 C   0  0  0  0  0  0  0  0  0  0  0  0
   15.2141  -16.1110   18.9957 C   0  0  0  0  0  0  0  0  0  0  0  0
   14.5015  -16.1158   20.1865 C   0  0  0  0  0  0  0  0  0  0  0  0
   13.7192  -15.0502   20.6015 C   0  0  0  0  0  0  0  0  0  0  0  0
   12.9485  -15.0455   21.8631 C   0  0  0  0  0  0  0  0  0  0  0  0
   11.5558  -15.5031   21.6313 C   0  0  2  0  0  0  0  0  0  0  0  0
   10.8300  -14.6224   20.7283 N   0  0  0  0  0  0  0  0  0  0  0  0
   10.8144  -15.5452   22.9193 C   0  0  0  0  0  0  0  0  0  0  0  0
    9.6882  -14.7300   23.0536 O   0  0  0  0  0  0  0  0  0  0  0  0
   13.6888  -13.9483   19.7349 C   0  0  0  0  0  0  0  0  0  0  0  0
   14.3984  -13.9486   18.5534 C   0  0  0  0  0  0  0  0  0  0  0  0
   11.1082  -16.2481   23.9024 O   0  0  0  0  0  0  0  0  0  0  0  0
  2  1  1  6
  2  3  1  0
  3  4  1  0
  4  5  1  0
  5  6  2  0
  5  9  1  0
  7  8  2  0
  7  2  1  0
 11 10  1  6
 11 13  1  0
 12 11  1  0
 13 14  1  6
 14  7  1  0
 15 24  1  0
 15 13  1  0
 16 15  2  0
 18 17  1  0
 19 18  2  0
 20 19  1  0
 21 27  1  0
 21 20  2  0
 23 22  1  1
 22 21  1  0
 23 25  1  0
 23 24  1  0
 25 26  1  0
 27 28  2  0
 28 18  1  0
 29 25  2  0
M  END
$$$$
