EVY.pdb
     RDKit          3D

 29 29  0  0  1  0  0  0  0  0999 V2000
   11.9188  -17.1713   18.2750 N   0  0  0  0  0  0  0  0  0  0  0  0
   10.8567  -17.5973   19.1724 C   0  0  1  0  0  0  0  0  0  0  0  0
   11.3185  -18.7569   19.9969 C   0  0  0  0  0  0  0  0  0  0  0  0
   11.4292  -20.0489   19.2523 C   0  0  0  0  0  0  0  0  0  0  0  0
   10.8305  -21.1408   20.0339 C   0  0  0  0  0  0  0  0  0  0  0  0
   11.4675  -22.1006   20.5272 O   0  0  0  0  0  0  0  0  0  0  0  0
   10.4702  -16.4814   20.0916 C   0  0  0  0  0  0  0  0  0  0  0  0
   11.3944  -15.7893   20.5762 O   0  0  0  0  0  0  0  0  0  0  0  0
    9.4422  -21.1476   20.2700 O   0  0  0  0  0  0  0  0  0  0  0  0
    7.1137  -14.0711   19.6578 C   0  0  0  0  0  0  0  0  0  0  0  0
    7.3143  -14.6960   21.0066 C   0  0  2  0  0  0  0  0  0  0  0  0
    6.9845  -13.6608   22.0639 C   0  0  0  0  0  0  0  0  0  0  0  0
    8.7357  -15.1509   21.2476 C   0  0  2  0  0  0  0  0  0  0  0  0
    9.1174  -16.2375   20.3833 N   0  0  0  0  0  0  0  0  0  0  0  0
    8.9657  -15.5349   22.6523 C   0  0  0  0  0  0  0  0  0  0  0  0
    8.6359  -16.6987   22.9993 O   0  0  0  0  0  0  0  0  0  0  0  0
   10.7624  -16.1334   31.1659 O   0  0  0  0  0  0  0  0  0  0  0  0
   10.6531  -15.6093   29.8798 C   0  0  0  0  0  0  0  0  0  0  0  0
   10.2411  -14.3263   29.6475 C   0  0  0  0  0  0  0  0  0  0  0  0
   10.1463  -13.8458   28.3490 C   0  0  0  0  0  0  0  0  0  0  0  0
   10.4539  -14.6127   27.2369 C   0  0  0  0  0  0  0  0  0  0  0  0
   10.3494  -14.1163   25.8483 C   0  0  0  0  0  0  0  0  0  0  0  0
    9.6667  -15.1106   24.9834 C   0  0  2  0  0  0  0  0  0  0  0  0
    9.5350  -14.6474   23.6101 N   0  0  0  0  0  0  0  0  0  0  0  0
    8.3012  -15.3838   25.5042 C   0  0  0  0  0  0  0  0  0  0  0  0
    8.1049  -16.5502   26.2473 O   0  0  0  0  0  0  0  0  0  0  0  0
   10.8738  -15.9238   27.5032 C   0  0  0  0  0  0  0  0  0  0  0  0
   10.9662  -16.3961   28.7946 C   0  0  0  0  0  0  0  0  0  0  0  0
    7.3032  -14.6606   25.3369 O   0  0  0  0  0  0  0  0  0  0  0  0
  2  1  1  6
  2  3  1  0
  3  4  1  0
  4  5  1  0
  5  6  2  0
  5  9  1  0
  7  8  2  0
  7  2  1  0
 11 10  1  6
 11 13  1  0
 12 11  1  0
 13 14  1  6
 14  7  1  0
 15 24  1  0
 15 13  1  0
 16 15  2  0
 18 17  1  0
 19 18  2  0
 20 19  1  0
 21 27  1  0
 21 20  2  0
 23 22  1  1
 22 21  1  0
 23 25  1  0
 23 24  1  0
 25 26  1  0
 27 28  2  0
 28 18  1  0
 29 25  2  0
M  END
$$$$
