EVY.pdb
     RDKit          3D

 29 29  0  0  1  0  0  0  0  0999 V2000
   10.7271  -17.9503   17.9053 N   0  0  0  0  0  0  0  0  0  0  0  0
    9.4545  -17.7513   18.5803 C   0  0  1  0  0  0  0  0  0  0  0  0
    9.0522  -19.0040   19.2923 C   0  0  0  0  0  0  0  0  0  0  0  0
    8.8223  -20.1830   18.4018 C   0  0  0  0  0  0  0  0  0  0  0  0
    8.5043  -21.3734   19.2037 C   0  0  0  0  0  0  0  0  0  0  0  0
    9.2140  -22.4044   19.2670 O   0  0  0  0  0  0  0  0  0  0  0  0
    9.5619  -16.6456   19.5829 C   0  0  0  0  0  0  0  0  0  0  0  0
   10.6825  -16.4516   20.1072 O   0  0  0  0  0  0  0  0  0  0  0  0
    7.3251  -21.3996   19.9731 O   0  0  0  0  0  0  0  0  0  0  0  0
    7.5239  -13.1776   19.1428 C   0  0  0  0  0  0  0  0  0  0  0  0
    7.5042  -13.6930   20.5513 C   0  0  2  0  0  0  0  0  0  0  0  0
    7.7924  -12.5344   21.4855 C   0  0  0  0  0  0  0  0  0  0  0  0
    8.5485  -14.7545   20.8125 C   0  0  2  0  0  0  0  0  0  0  0  0
    8.4372  -15.8678   19.9060 N   0  0  0  0  0  0  0  0  0  0  0  0
    8.5070  -15.2450   22.2021 C   0  0  0  0  0  0  0  0  0  0  0  0
    7.6732  -16.1466   22.4767 O   0  0  0  0  0  0  0  0  0  0  0  0
    5.7658  -10.9431   27.6749 O   0  0  0  0  0  0  0  0  0  0  0  0
    6.3054  -12.0448   27.0147 C   0  0  0  0  0  0  0  0  0  0  0  0
    7.6120  -12.0870   26.6138 C   0  0  0  0  0  0  0  0  0  0  0  0
    8.1073  -13.2056   25.9584 C   0  0  0  0  0  0  0  0  0  0  0  0
    7.3324  -14.3189   25.6762 C   0  0  0  0  0  0  0  0  0  0  0  0
    7.8448  -15.5132   24.9715 C   0  0  0  0  0  0  0  0  0  0  0  0
    9.2557  -15.3146   24.5559 C   0  0  2  0  0  0  0  0  0  0  0  0
    9.3613  -14.7388   23.2235 N   0  0  0  0  0  0  0  0  0  0  0  0
    9.9702  -16.6184   24.5459 C   0  0  0  0  0  0  0  0  0  0  0  0
   11.3220  -16.6271   24.8979 O   0  0  0  0  0  0  0  0  0  0  0  0
    5.9970  -14.2495   26.0981 C   0  0  0  0  0  0  0  0  0  0  0  0
    5.5101  -13.1363   26.7487 C   0  0  0  0  0  0  0  0  0  0  0  0
    9.4696  -17.7174   24.2484 O   0  0  0  0  0  0  0  0  0  0  0  0
  2  1  1  1
  2  3  1  0
  3  4  1  0
  4  5  1  0
  5  6  2  0
  5  9  1  0
  7  8  2  0
  7  2  1  0
 11 10  1  6
 11 13  1  0
 12 11  1  0
 13 14  1  6
 14  7  1  0
 15 24  1  0
 15 13  1  0
 16 15  2  0
 18 17  1  0
 19 18  2  0
 20 19  1  0
 21 27  1  0
 21 20  2  0
 23 22  1  6
 22 21  1  0
 23 25  1  0
 23 24  1  0
 25 26  1  0
 27 28  2  0
 28 18  1  0
 29 25  2  0
M  END
$$$$
