EVY.pdb
     RDKit          3D

 29 29  0  0  1  0  0  0  0  0999 V2000
   -1.5005  -26.0545   25.3137 N   0  0  0  0  0  0  0  0  0  0  0  0
   -2.9060  -25.7056   25.4471 C   0  0  1  0  0  0  0  0  0  0  0  0
   -3.7040  -26.9226   25.7935 C   0  0  0  0  0  0  0  0  0  0  0  0
   -3.2004  -27.6845   26.9775 C   0  0  0  0  0  0  0  0  0  0  0  0
   -4.3234  -28.2812   27.7151 C   0  0  0  0  0  0  0  0  0  0  0  0
   -5.3599  -28.7472   27.1869 O   0  0  0  0  0  0  0  0  0  0  0  0
   -3.0916  -24.6888   26.5292 C   0  0  0  0  0  0  0  0  0  0  0  0
   -2.2703  -24.6984   27.4744 O   0  0  0  0  0  0  0  0  0  0  0  0
   -4.2718  -28.3556   29.1205 O   0  0  0  0  0  0  0  0  0  0  0  0
   -2.4587  -21.2948   26.2344 C   0  0  0  0  0  0  0  0  0  0  0  0
   -3.8712  -21.3470   26.7365 C   0  0  2  0  0  0  0  0  0  0  0  0
   -4.0439  -20.2642   27.7834 C   0  0  0  0  0  0  0  0  0  0  0  0
   -4.2244  -22.6650   27.3872 C   0  0  2  0  0  0  0  0  0  0  0  0
   -4.1516  -23.7685   26.4651 N   0  0  0  0  0  0  0  0  0  0  0  0
   -5.5580  -22.6351   28.0150 C   0  0  0  0  0  0  0  0  0  0  0  0
   -6.5601  -22.6371   27.2538 O   0  0  0  0  0  0  0  0  0  0  0  0
   -7.8114  -28.8802   29.0853 O   0  0  0  0  0  0  0  0  0  0  0  0
   -7.6564  -27.5757   29.5487 C   0  0  0  0  0  0  0  0  0  0  0  0
   -6.5101  -26.8594   29.3419 C   0  0  0  0  0  0  0  0  0  0  0  0
   -6.3991  -25.5621   29.8221 C   0  0  0  0  0  0  0  0  0  0  0  0
   -7.4129  -24.9276   30.5217 C   0  0  0  0  0  0  0  0  0  0  0  0
   -7.3047  -23.5496   31.0459 C   0  0  0  0  0  0  0  0  0  0  0  0
   -7.1058  -22.5796   29.9403 C   0  0  2  0  0  0  0  0  0  0  0  0
   -5.7442  -22.6018   29.4269 N   0  0  0  0  0  0  0  0  0  0  0  0
   -7.3895  -21.2004   30.4179 C   0  0  0  0  0  0  0  0  0  0  0  0
   -8.7254  -20.8084   30.5308 O   0  0  0  0  0  0  0  0  0  0  0  0
   -8.5768  -25.6841   30.7195 C   0  0  0  0  0  0  0  0  0  0  0  0
   -8.6820  -26.9721   30.2405 C   0  0  0  0  0  0  0  0  0  0  0  0
   -6.5360  -20.3512   30.7299 O   0  0  0  0  0  0  0  0  0  0  0  0
  2  1  1  1
  2  3  1  0
  3  4  1  0
  4  5  1  0
  5  6  2  0
  5  9  1  0
  7  8  2  0
  7  2  1  0
 11 10  1  1
 11 13  1  0
 12 11  1  0
 13 14  1  6
 14  7  1  0
 15 24  1  0
 15 13  1  0
 16 15  2  0
 18 17  1  0
 19 18  2  0
 20 19  1  0
 21 27  1  0
 21 20  2  0
 23 22  1  1
 22 21  1  0
 23 25  1  0
 23 24  1  0
 25 26  1  0
 27 28  2  0
 28 18  1  0
 29 25  2  0
M  END
$$$$
