EVY.pdb
     RDKit          3D

 29 29  0  0  1  0  0  0  0  0999 V2000
    6.3306  -16.1676   19.5534 N   0  0  0  0  0  0  0  0  0  0  0  0
    7.1717  -16.6886   20.6193 C   0  0  1  0  0  0  0  0  0  0  0  0
    8.2522  -17.5484   20.0437 C   0  0  0  0  0  0  0  0  0  0  0  0
    7.7701  -18.6335   19.1348 C   0  0  0  0  0  0  0  0  0  0  0  0
    8.9049  -19.4285   18.6432 C   0  0  0  0  0  0  0  0  0  0  0  0
    9.5744  -20.2271   19.3393 O   0  0  0  0  0  0  0  0  0  0  0  0
    7.8076  -15.5670   21.3788 C   0  0  0  0  0  0  0  0  0  0  0  0
    7.8500  -14.4464   20.8215 O   0  0  0  0  0  0  0  0  0  0  0  0
    9.3024  -19.3157   17.2969 O   0  0  0  0  0  0  0  0  0  0  0  0
    6.4705  -13.7439   23.7894 C   0  0  0  0  0  0  0  0  0  0  0  0
    7.7303  -14.2159   24.4531 C   0  0  2  0  0  0  0  0  0  0  0  0
    8.3200  -13.0569   25.2323 C   0  0  0  0  0  0  0  0  0  0  0  0
    8.7820  -14.6828   23.4726 C   0  0  2  0  0  0  0  0  0  0  0  0
    8.3280  -15.7856   22.6656 N   0  0  0  0  0  0  0  0  0  0  0  0
   10.0429  -15.0493   24.1428 C   0  0  0  0  0  0  0  0  0  0  0  0
   11.0789  -14.4098   23.8244 O   0  0  0  0  0  0  0  0  0  0  0  0
   10.1584  -13.9372   31.3625 O   0  0  0  0  0  0  0  0  0  0  0  0
   10.4450  -14.7177   30.2448 C   0  0  0  0  0  0  0  0  0  0  0  0
   10.2667  -14.2584   28.9692 C   0  0  0  0  0  0  0  0  0  0  0  0
   10.5650  -15.0710   27.8845 C   0  0  0  0  0  0  0  0  0  0  0  0
   11.0486  -16.3623   28.0201 C   0  0  0  0  0  0  0  0  0  0  0  0
   11.3625  -17.2414   26.8737 C   0  0  0  0  0  0  0  0  0  0  0  0
   11.4400  -16.4584   25.6153 C   0  0  2  0  0  0  0  0  0  0  0  0
   10.1245  -16.0853   25.1172 N   0  0  0  0  0  0  0  0  0  0  0  0
   12.1157  -17.2589   24.5602 C   0  0  0  0  0  0  0  0  0  0  0  0
   13.4947  -17.1025   24.4020 O   0  0  0  0  0  0  0  0  0  0  0  0
   11.2224  -16.8081   29.3381 C   0  0  0  0  0  0  0  0  0  0  0  0
   10.9246  -15.9970   30.4119 C   0  0  0  0  0  0  0  0  0  0  0  0
   11.5595  -18.0655   23.7942 O   0  0  0  0  0  0  0  0  0  0  0  0
  2  1  1  6
  2  3  1  0
  3  4  1  0
  4  5  1  0
  5  6  2  0
  5  9  1  0
  7  8  2  0
  7  2  1  0
 11 10  1  6
 11 13  1  0
 12 11  1  0
 13 14  1  1
 14  7  1  0
 15 24  1  0
 15 13  1  0
 16 15  2  0
 18 17  1  0
 19 18  2  0
 20 19  1  0
 21 27  1  0
 21 20  2  0
 23 22  1  1
 22 21  1  0
 23 25  1  0
 23 24  1  0
 25 26  1  0
 27 28  2  0
 28 18  1  0
 29 25  2  0
M  END
$$$$
