EVY.pdb
     RDKit          3D

 29 29  0  0  1  0  0  0  0  0999 V2000
   11.4960  -15.9511   18.4007 N   0  0  0  0  0  0  0  0  0  0  0  0
   11.3121  -16.8269   19.5469 C   0  0  1  0  0  0  0  0  0  0  0  0
   12.6416  -17.2154   20.1119 C   0  0  0  0  0  0  0  0  0  0  0  0
   13.3464  -18.3005   19.3624 C   0  0  0  0  0  0  0  0  0  0  0  0
   14.5792  -18.6871   20.0640 C   0  0  0  0  0  0  0  0  0  0  0  0
   15.3547  -19.6008   19.6977 O   0  0  0  0  0  0  0  0  0  0  0  0
   10.5241  -16.1332   20.6135 C   0  0  0  0  0  0  0  0  0  0  0  0
   11.0032  -15.0780   21.0880 O   0  0  0  0  0  0  0  0  0  0  0  0
   14.9545  -18.0061   21.2381 O   0  0  0  0  0  0  0  0  0  0  0  0
    6.7414  -15.3697   20.1592 C   0  0  0  0  0  0  0  0  0  0  0  0
    6.9912  -15.9672   21.5122 C   0  0  2  0  0  0  0  0  0  0  0  0
    6.1944  -15.1802   22.5339 C   0  0  0  0  0  0  0  0  0  0  0  0
    8.4429  -15.9106   21.9303 C   0  0  2  0  0  0  0  0  0  0  0  0
    9.2971  -16.6625   21.0481 N   0  0  0  0  0  0  0  0  0  0  0  0
    8.6402  -16.3705   23.3170 C   0  0  0  0  0  0  0  0  0  0  0  0
    9.6352  -17.1047   23.5510 O   0  0  0  0  0  0  0  0  0  0  0  0
    7.6335  -10.1722   26.5503 O   0  0  0  0  0  0  0  0  0  0  0  0
    7.4996  -11.5584   26.5833 C   0  0  0  0  0  0  0  0  0  0  0  0
    6.3711  -12.1930   26.1435 C   0  0  0  0  0  0  0  0  0  0  0  0
    6.2808  -13.5768   26.1954 C   0  0  0  0  0  0  0  0  0  0  0  0
    7.2985  -14.3812   26.6822 C   0  0  0  0  0  0  0  0  0  0  0  0
    7.2122  -15.8554   26.7510 C   0  0  0  0  0  0  0  0  0  0  0  0
    8.0766  -16.4823   25.7202 C   0  0  2  0  0  0  0  0  0  0  0  0
    7.7568  -16.0197   24.3780 N   0  0  0  0  0  0  0  0  0  0  0  0
    7.9066  -17.9592   25.7450 C   0  0  0  0  0  0  0  0  0  0  0  0
    8.4229  -18.6596   26.8377 O   0  0  0  0  0  0  0  0  0  0  0  0
    8.4440  -13.7054   27.1263 C   0  0  0  0  0  0  0  0  0  0  0  0
    8.5286  -12.3308   27.0725 C   0  0  0  0  0  0  0  0  0  0  0  0
    7.3402  -18.6386   24.8707 O   0  0  0  0  0  0  0  0  0  0  0  0
  2  1  1  6
  2  3  1  0
  3  4  1  0
  4  5  1  0
  5  6  2  0
  5  9  1  0
  7  8  2  0
  7  2  1  0
 11 10  1  6
 11 13  1  0
 12 11  1  0
 13 14  1  6
 14  7  1  0
 15 24  1  0
 15 13  1  0
 16 15  2  0
 18 17  1  0
 19 18  2  0
 20 19  1  0
 21 27  1  0
 21 20  2  0
 23 22  1  1
 22 21  1  0
 23 25  1  0
 23 24  1  0
 25 26  1  0
 27 28  2  0
 28 18  1  0
 29 25  2  0
M  END
$$$$
