EVY.pdb
     RDKit          3D

 29 29  0  0  1  0  0  0  0  0999 V2000
   11.4259  -16.9086   17.6929 N   0  0  0  0  0  0  0  0  0  0  0  0
   10.7029  -17.4815   18.8172 C   0  0  1  0  0  0  0  0  0  0  0  0
   11.5429  -18.5216   19.4884 C   0  0  0  0  0  0  0  0  0  0  0  0
   11.4124  -19.8963   18.9150 C   0  0  0  0  0  0  0  0  0  0  0  0
   12.2621  -20.8404   19.6553 C   0  0  0  0  0  0  0  0  0  0  0  0
   13.4267  -21.1654   19.3258 O   0  0  0  0  0  0  0  0  0  0  0  0
   10.3665  -16.4205   19.8175 C   0  0  0  0  0  0  0  0  0  0  0  0
   11.3080  -15.7148   20.2459 O   0  0  0  0  0  0  0  0  0  0  0  0
   11.7709  -21.4472   20.8274 O   0  0  0  0  0  0  0  0  0  0  0  0
    7.0577  -14.0345   19.5797 C   0  0  0  0  0  0  0  0  0  0  0  0
    7.2727  -14.6784   20.9173 C   0  0  2  0  0  0  0  0  0  0  0  0
    6.9788  -13.6508   21.9924 C   0  0  0  0  0  0  0  0  0  0  0  0
    8.6908  -15.1586   21.1270 C   0  0  2  0  0  0  0  0  0  0  0  0
    9.0395  -16.2406   20.2431 N   0  0  0  0  0  0  0  0  0  0  0  0
    8.9400  -15.5631   22.5226 C   0  0  0  0  0  0  0  0  0  0  0  0
    8.7321  -16.7666   22.8260 O   0  0  0  0  0  0  0  0  0  0  0  0
   10.7233  -16.1000   31.1000 O   0  0  0  0  0  0  0  0  0  0  0  0
   10.5943  -15.6501   29.7879 C   0  0  0  0  0  0  0  0  0  0  0  0
   10.9397  -16.4233   28.7143 C   0  0  0  0  0  0  0  0  0  0  0  0
   10.7949  -15.9340   27.4237 C   0  0  0  0  0  0  0  0  0  0  0  0
   10.3053  -14.6675   27.1480 C   0  0  0  0  0  0  0  0  0  0  0  0
   10.1539  -14.1308   25.7788 C   0  0  0  0  0  0  0  0  0  0  0  0
    9.5357  -15.1397   24.8829 C   0  0  2  0  0  0  0  0  0  0  0  0
    9.3964  -14.6528   23.5186 N   0  0  0  0  0  0  0  0  0  0  0  0
    8.1803  -15.4966   25.3792 C   0  0  0  0  0  0  0  0  0  0  0  0
    8.0335  -16.6981   26.0762 O   0  0  0  0  0  0  0  0  0  0  0  0
    9.9587  -13.8960   28.2663 C   0  0  0  0  0  0  0  0  0  0  0  0
   10.1045  -14.3866   29.5459 C   0  0  0  0  0  0  0  0  0  0  0  0
    7.1505  -14.8157   25.2287 O   0  0  0  0  0  0  0  0  0  0  0  0
  2  1  1  6
  2  3  1  0
  3  4  1  0
  4  5  1  0
  5  6  2  0
  5  9  1  0
  7  8  2  0
  7  2  1  0
 11 10  1  6
 11 13  1  0
 12 11  1  0
 13 14  1  6
 14  7  1  0
 15 24  1  0
 15 13  1  0
 16 15  2  0
 18 17  1  0
 19 18  2  0
 20 19  1  0
 21 27  1  0
 21 20  2  0
 23 22  1  1
 22 21  1  0
 23 25  1  0
 23 24  1  0
 25 26  1  0
 27 28  2  0
 28 18  1  0
 29 25  2  0
M  END
$$$$
