EVY.pdb
     RDKit          3D

 29 29  0  0  1  0  0  0  0  0999 V2000
   11.1386  -17.5546   17.8138 N   0  0  0  0  0  0  0  0  0  0  0  0
   10.2259  -17.8519   18.9062 C   0  0  1  0  0  0  0  0  0  0  0  0
   10.7547  -18.9913   19.7185 C   0  0  0  0  0  0  0  0  0  0  0  0
   10.9576  -20.2615   18.9560 C   0  0  0  0  0  0  0  0  0  0  0  0
   11.4774  -21.3118   19.8438 C   0  0  0  0  0  0  0  0  0  0  0  0
   11.7558  -21.1520   21.0552 O   0  0  0  0  0  0  0  0  0  0  0  0
   10.0726  -16.6601   19.7982 C   0  0  0  0  0  0  0  0  0  0  0  0
   11.0983  -15.9804   20.0311 O   0  0  0  0  0  0  0  0  0  0  0  0
   11.6929  -22.6078   19.3368 O   0  0  0  0  0  0  0  0  0  0  0  0
    7.1278  -13.2800   21.8188 C   0  0  0  0  0  0  0  0  0  0  0  0
    7.3227  -14.4894   20.9531 C   0  0  2  0  0  0  0  0  0  0  0  0
    6.2391  -15.4947   21.2899 C   0  0  0  0  0  0  0  0  0  0  0  0
    8.6546  -15.1706   21.1714 C   0  0  2  0  0  0  0  0  0  0  0  0
    8.8175  -16.3349   20.3399 N   0  0  0  0  0  0  0  0  0  0  0  0
    8.8650  -15.5402   22.5829 C   0  0  0  0  0  0  0  0  0  0  0  0
    8.5931  -16.7210   22.9225 O   0  0  0  0  0  0  0  0  0  0  0  0
   11.0300  -16.0885   31.0575 O   0  0  0  0  0  0  0  0  0  0  0  0
   10.8494  -15.6272   29.7554 C   0  0  0  0  0  0  0  0  0  0  0  0
   11.4758  -16.2020   28.6845 C   0  0  0  0  0  0  0  0  0  0  0  0
   11.2670  -15.7091   27.4041 C   0  0  0  0  0  0  0  0  0  0  0  0
   10.4349  -14.6341   27.1363 C   0  0  0  0  0  0  0  0  0  0  0  0
   10.2101  -14.0938   25.7787 C   0  0  0  0  0  0  0  0  0  0  0  0
    9.5190  -15.0902   24.9229 C   0  0  2  0  0  0  0  0  0  0  0  0
    9.3537  -14.6209   23.5553 N   0  0  0  0  0  0  0  0  0  0  0  0
    8.1676  -15.3797   25.4710 C   0  0  0  0  0  0  0  0  0  0  0  0
    8.0215  -16.4966   26.2970 O   0  0  0  0  0  0  0  0  0  0  0  0
    9.8051  -14.0638   28.2517 C   0  0  0  0  0  0  0  0  0  0  0  0
   10.0159  -14.5571   29.5212 C   0  0  0  0  0  0  0  0  0  0  0  0
    7.1406  -14.7111   25.2589 O   0  0  0  0  0  0  0  0  0  0  0  0
  2  1  1  6
  2  3  1  0
  3  4  1  0
  4  5  1  0
  5  6  2  0
  5  9  1  0
  7  8  2  0
  7  2  1  0
 11 10  1  1
 11 13  1  0
 12 11  1  0
 13 14  1  6
 14  7  1  0
 15 24  1  0
 15 13  1  0
 16 15  2  0
 18 17  1  0
 19 18  2  0
 20 19  1  0
 21 27  1  0
 21 20  2  0
 23 22  1  1
 22 21  1  0
 23 25  1  0
 23 24  1  0
 25 26  1  0
 27 28  2  0
 28 18  1  0
 29 25  2  0
M  END
$$$$
