EVY.pdb
     RDKit          3D

 29 29  0  0  1  0  0  0  0  0999 V2000
    8.1154  -18.2827   17.2875 N   0  0  0  0  0  0  0  0  0  0  0  0
    7.5531  -18.0075   18.6002 C   0  0  1  0  0  0  0  0  0  0  0  0
    7.6755  -19.2168   19.4723 C   0  0  0  0  0  0  0  0  0  0  0  0
    9.0057  -19.8974   19.4143 C   0  0  0  0  0  0  0  0  0  0  0  0
    9.1214  -20.8840   20.4981 C   0  0  0  0  0  0  0  0  0  0  0  0
   10.1272  -21.6012   20.7088 O   0  0  0  0  0  0  0  0  0  0  0  0
    8.2789  -16.8728   19.2522 C   0  0  0  0  0  0  0  0  0  0  0  0
    9.4807  -16.7053   18.9427 O   0  0  0  0  0  0  0  0  0  0  0  0
    8.0463  -21.0686   21.3888 O   0  0  0  0  0  0  0  0  0  0  0  0
    6.9673  -13.3022   19.2431 C   0  0  0  0  0  0  0  0  0  0  0  0
    7.3974  -13.6429   20.6392 C   0  0  2  0  0  0  0  0  0  0  0  0
    8.2075  -12.4828   21.1835 C   0  0  0  0  0  0  0  0  0  0  0  0
    8.2695  -14.8757   20.7104 C   0  0  2  0  0  0  0  0  0  0  0  0
    7.6171  -16.0405   20.1708 N   0  0  0  0  0  0  0  0  0  0  0  0
    8.7223  -15.1574   22.0848 C   0  0  0  0  0  0  0  0  0  0  0  0
    7.8863  -15.0139   23.0144 O   0  0  0  0  0  0  0  0  0  0  0  0
    5.1544  -19.4173   24.0952 O   0  0  0  0  0  0  0  0  0  0  0  0
    6.4510  -18.9082   24.0756 C   0  0  0  0  0  0  0  0  0  0  0  0
    7.4132  -19.3952   23.2349 C   0  0  0  0  0  0  0  0  0  0  0  0
    8.6927  -18.8579   23.2496 C   0  0  0  0  0  0  0  0  0  0  0  0
    9.0667  -17.8238   24.0924 C   0  0  0  0  0  0  0  0  0  0  0  0
   10.4279  -17.2479   24.1242 C   0  0  0  0  0  0  0  0  0  0  0  0
   10.3971  -15.8040   23.7826 C   0  0  2  0  0  0  0  0  0  0  0  0
   10.0499  -15.5755   22.3879 N   0  0  0  0  0  0  0  0  0  0  0  0
   11.7325  -15.1966   24.0244 C   0  0  0  0  0  0  0  0  0  0  0  0
   12.3895  -14.6071   22.9418 O   0  0  0  0  0  0  0  0  0  0  0  0
    8.0614  -17.3431   24.9435 C   0  0  0  0  0  0  0  0  0  0  0  0
    6.7922  -17.8802   24.9249 C   0  0  0  0  0  0  0  0  0  0  0  0
   12.3277  -15.1648   25.1160 O   0  0  0  0  0  0  0  0  0  0  0  0
  2  1  1  6
  2  3  1  0
  3  4  1  0
  4  5  1  0
  5  6  2  0
  5  9  1  0
  7  8  2  0
  7  2  1  0
 11 10  1  6
 11 13  1  0
 12 11  1  0
 13 14  1  1
 14  7  1  0
 15 24  1  0
 15 13  1  0
 16 15  2  0
 18 17  1  0
 19 18  2  0
 20 19  1  0
 21 27  1  0
 21 20  2  0
 23 22  1  6
 22 21  1  0
 23 25  1  0
 23 24  1  0
 25 26  1  0
 27 28  2  0
 28 18  1  0
 29 25  2  0
M  END
$$$$
