EVY.pdb
     RDKit          3D

 29 29  0  0  1  0  0  0  0  0999 V2000
   10.7904  -18.4543   19.7822 N   0  0  0  0  0  0  0  0  0  0  0  0
   11.1785  -17.1891   20.3851 C   0  0  1  0  0  0  0  0  0  0  0  0
   11.4478  -16.1758   19.3181 C   0  0  0  0  0  0  0  0  0  0  0  0
   12.1760  -16.7039   18.1236 C   0  0  0  0  0  0  0  0  0  0  0  0
   12.5327  -15.6037   17.2162 C   0  0  0  0  0  0  0  0  0  0  0  0
   12.3112  -15.5927   15.9828 O   0  0  0  0  0  0  0  0  0  0  0  0
   10.0858  -16.6740   21.2683 C   0  0  0  0  0  0  0  0  0  0  0  0
   10.2411  -15.5383   21.7723 O   0  0  0  0  0  0  0  0  0  0  0  0
   13.1714  -14.4580   17.7288 O   0  0  0  0  0  0  0  0  0  0  0  0
    6.2354  -16.7801   20.4060 C   0  0  0  0  0  0  0  0  0  0  0  0
    6.5044  -17.3291   21.7757 C   0  0  2  0  0  0  0  0  0  0  0  0
    5.4631  -16.7699   22.7250 C   0  0  0  0  0  0  0  0  0  0  0  0
    7.8624  -16.9433   22.3166 C   0  0  2  0  0  0  0  0  0  0  0  0
    8.9394  -17.4508   21.5067 N   0  0  0  0  0  0  0  0  0  0  0  0
    8.0488  -17.3789   23.7127 C   0  0  0  0  0  0  0  0  0  0  0  0
    8.7687  -18.3909   23.9157 O   0  0  0  0  0  0  0  0  0  0  0  0
    7.3758  -10.8663   24.8062 O   0  0  0  0  0  0  0  0  0  0  0  0
    7.4436  -12.1329   25.3822 C   0  0  0  0  0  0  0  0  0  0  0  0
    8.6308  -12.7822   25.5787 C   0  0  0  0  0  0  0  0  0  0  0  0
    8.6513  -14.0441   26.1561 C   0  0  0  0  0  0  0  0  0  0  0  0
    7.5038  -14.7079   26.5587 C   0  0  0  0  0  0  0  0  0  0  0  0
    7.5106  -16.0552   27.1671 C   0  0  0  0  0  0  0  0  0  0  0  0
    7.8612  -17.0866   26.1591 C   0  0  2  0  0  0  0  0  0  0  0  0
    7.4496  -16.7061   24.8161 N   0  0  0  0  0  0  0  0  0  0  0  0
    7.1916  -18.3713   26.4933 C   0  0  0  0  0  0  0  0  0  0  0  0
    6.1782  -18.8219   25.6441 O   0  0  0  0  0  0  0  0  0  0  0  0
    6.3006  -14.0199   26.3460 C   0  0  0  0  0  0  0  0  0  0  0  0
    6.2857  -12.7669   25.7723 C   0  0  0  0  0  0  0  0  0  0  0  0
    7.4529  -19.0918   27.4728 O   0  0  0  0  0  0  0  0  0  0  0  0
  2  1  1  6
  2  3  1  0
  3  4  1  0
  4  5  1  0
  5  6  2  0
  5  9  1  0
  7  8  2  0
  7  2  1  0
 11 10  1  6
 11 13  1  0
 12 11  1  0
 13 14  1  6
 14  7  1  0
 15 24  1  0
 15 13  1  0
 16 15  2  0
 18 17  1  0
 19 18  2  0
 20 19  1  0
 21 27  1  0
 21 20  2  0
 23 22  1  1
 22 21  1  0
 23 25  1  0
 23 24  1  0
 25 26  1  0
 27 28  2  0
 28 18  1  0
 29 25  2  0
M  END
$$$$
