EVY.pdb
     RDKit          3D

 29 29  0  0  1  0  0  0  0  0999 V2000
   10.7410  -15.3264   14.6640 N   0  0  0  0  0  0  0  0  0  0  0  0
    9.9446  -16.0365   15.6521 C   0  0  1  0  0  0  0  0  0  0  0  0
   10.4189  -17.4503   15.7705 C   0  0  0  0  0  0  0  0  0  0  0  0
   10.2488  -18.2727   14.5333 C   0  0  0  0  0  0  0  0  0  0  0  0
   10.7696  -19.6306   14.7479 C   0  0  0  0  0  0  0  0  0  0  0  0
   11.9645  -19.9726   14.5878 O   0  0  0  0  0  0  0  0  0  0  0  0
   10.0645  -15.3786   16.9908 C   0  0  0  0  0  0  0  0  0  0  0  0
   11.1998  -14.9774   17.3347 O   0  0  0  0  0  0  0  0  0  0  0  0
    9.8958  -20.6532   15.1651 O   0  0  0  0  0  0  0  0  0  0  0  0
    7.3117  -12.8185   18.5292 C   0  0  0  0  0  0  0  0  0  0  0  0
    7.7422  -13.8895   19.4872 C   0  0  2  0  0  0  0  0  0  0  0  0
    7.9664  -13.2516   20.8440 C   0  0  0  0  0  0  0  0  0  0  0  0
    9.0343  -14.5641   19.0861 C   0  0  2  0  0  0  0  0  0  0  0  0
    8.9341  -15.2266   17.8115 N   0  0  0  0  0  0  0  0  0  0  0  0
    9.4999  -15.5233   20.1043 C   0  0  0  0  0  0  0  0  0  0  0  0
    9.2451  -16.7413   19.9166 O   0  0  0  0  0  0  0  0  0  0  0  0
   15.2634  -14.5390   18.1897 O   0  0  0  0  0  0  0  0  0  0  0  0
   14.3647  -15.2088   19.0169 C   0  0  0  0  0  0  0  0  0  0  0  0
   14.3812  -16.5683   19.1626 C   0  0  0  0  0  0  0  0  0  0  0  0
   13.4663  -17.1940   19.9976 C   0  0  0  0  0  0  0  0  0  0  0  0
   12.5052  -16.5017   20.7165 C   0  0  0  0  0  0  0  0  0  0  0  0
   11.5194  -17.1562   21.6027 C   0  0  0  0  0  0  0  0  0  0  0  0
   10.6155  -16.1523   22.2174 C   0  0  2  0  0  0  0  0  0  0  0  0
   10.2118  -15.1228   21.2714 N   0  0  0  0  0  0  0  0  0  0  0  0
   11.2997  -15.4822   23.3546 C   0  0  0  0  0  0  0  0  0  0  0  0
   11.7151  -16.2742   24.4276 O   0  0  0  0  0  0  0  0  0  0  0  0
   12.5104  -15.1096   20.5492 C   0  0  0  0  0  0  0  0  0  0  0  0
   13.4213  -14.4931   19.7187 C   0  0  0  0  0  0  0  0  0  0  0  0
   11.5393  -14.2648   23.4411 O   0  0  0  0  0  0  0  0  0  0  0  0
  2  1  1  6
  2  3  1  0
  3  4  1  0
  4  5  1  0
  5  6  2  0
  5  9  1  0
  7  8  2  0
  7  2  1  0
 11 10  1  6
 11 13  1  0
 12 11  1  0
 13 14  1  6
 14  7  1  0
 15 24  1  0
 15 13  1  0
 16 15  2  0
 18 17  1  0
 19 18  2  0
 20 19  1  0
 21 27  1  0
 21 20  2  0
 23 22  1  6
 22 21  1  0
 23 25  1  0
 23 24  1  0
 25 26  1  0
 27 28  2  0
 28 18  1  0
 29 25  2  0
M  END
$$$$
