NYQ.pdb
     RDKit          3D

 30 30  0  0  1  0  0  0  0  0999 V2000
   10.1451  -16.7627   16.0080 N   0  0  0  0  0  0  0  0  0  0  0  0
    8.9149  -16.4014   16.5974 C   0  0  0  0  0  0  0  0  0  0  0  0
    7.8624  -16.7765   16.0196 O   0  0  0  0  0  0  0  0  0  0  0  0
    8.7736  -15.6164   17.8408 C   0  0  0  0  0  0  0  0  0  0  0  0
    8.8819  -16.5616   19.0145 C   0  0  2  0  0  0  0  0  0  0  0  0
    7.7525  -17.4387   18.9796 N   0  0  0  0  0  0  0  0  0  0  0  0
    8.9453  -15.8351   20.3089 C   0  0  0  0  0  0  0  0  0  0  0  0
   10.0911  -15.4956   20.7198 O   0  0  0  0  0  0  0  0  0  0  0  0
    7.2276  -12.3860   28.2056 O   0  0  0  0  0  0  0  0  0  0  0  0
    7.1383  -12.8012   26.8893 C   0  0  0  0  0  0  0  0  0  0  0  0
    6.6092  -14.0457   26.6206 C   0  0  0  0  0  0  0  0  0  0  0  0
    6.4927  -14.5212   25.3129 C   0  0  0  0  0  0  0  0  0  0  0  0
    6.9154  -13.7295   24.2714 C   0  0  0  0  0  0  0  0  0  0  0  0
    6.7896  -14.2334   22.9008 C   0  0  0  0  0  0  0  0  0  0  0  0
    7.9857  -14.9544   22.3981 C   0  0  2  0  0  0  0  0  0  0  0  0
    7.8225  -15.5147   21.0800 N   0  0  0  0  0  0  0  0  0  0  0  0
    8.3252  -16.0487   23.3779 C   0  0  0  0  0  0  0  0  0  0  0  0
    7.5765  -17.0513   23.4466 O   0  0  0  0  0  0  0  0  0  0  0  0
    7.4462  -12.4824   24.5326 C   0  0  0  0  0  0  0  0  0  0  0  0
    7.5598  -12.0156   25.8272 C   0  0  0  0  0  0  0  0  0  0  0  0
   14.2652  -18.4537   24.1729 N   0  0  0  0  0  0  0  0  0  0  0  0
   13.2059  -17.9331   23.3794 C   0  0  0  0  0  0  0  0  0  0  0  0
   13.1084  -18.1920   22.1597 O   0  0  0  0  0  0  0  0  0  0  0  0
   12.2117  -17.0533   24.0964 C   0  0  0  0  0  0  0  0  0  0  0  0
   10.9999  -17.8435   24.4574 C   0  0  0  0  0  0  0  0  0  0  0  0
    9.8974  -17.0660   25.0897 C   0  0  2  0  0  0  0  0  0  0  0  0
    9.4642  -15.9627   24.2127 N   0  0  0  0  0  0  0  0  0  0  0  0
   10.1543  -16.5839   26.4505 C   0  0  0  0  0  0  0  0  0  0  0  0
   10.1612  -15.3587   26.7080 O   0  0  0  0  0  0  0  0  0  0  0  0
   10.3986  -17.4580   27.5015 O   0  0  0  0  0  0  0  0  0  0  0  0
  1  2  1  0
  2  3  2  0
  4  5  1  0
  4  2  1  0
  5  7  1  0
  5  6  1  1
  7  8  2  0
  9 10  1  0
 10 11  2  0
 10 20  1  0
 11 12  1  0
 12 13  2  0
 13 14  1  0
 15 14  1  1
 16 15  1  0
 16  7  1  0
 17 15  1  0
 17 27  1  0
 18 17  2  0
 19 13  1  0
 20 19  2  0
 21 22  1  0
 22 24  1  0
 22 23  2  0
 24 25  1  0
 26 25  1  6
 26 27  1  0
 26 28  1  0
 28 30  1  0
 29 28  2  0
M  END
$$$$
