NYQ.pdb
     RDKit          3D

 30 30  0  0  1  0  0  0  0  0999 V2000
    6.6397  -12.4545   17.3541 N   0  0  0  0  0  0  0  0  0  0  0  0
    7.6004  -13.3036   17.9437 C   0  0  0  0  0  0  0  0  0  0  0  0
    8.0509  -14.2454   17.2421 O   0  0  0  0  0  0  0  0  0  0  0  0
    8.1141  -13.1669   19.3219 C   0  0  0  0  0  0  0  0  0  0  0  0
    7.8817  -14.4717   20.0474 C   0  0  2  0  0  0  0  0  0  0  0  0
    6.4763  -14.7376   20.0365 N   0  0  0  0  0  0  0  0  0  0  0  0
    8.4001  -14.4336   21.4392 C   0  0  0  0  0  0  0  0  0  0  0  0
    9.6458  -14.5831   21.5908 O   0  0  0  0  0  0  0  0  0  0  0  0
    9.3412  -14.3145   30.1769 O   0  0  0  0  0  0  0  0  0  0  0  0
    8.8229  -14.2332   28.8972 C   0  0  0  0  0  0  0  0  0  0  0  0
    8.8423  -13.0161   28.2495 C   0  0  0  0  0  0  0  0  0  0  0  0
    8.3342  -12.8703   26.9571 C   0  0  0  0  0  0  0  0  0  0  0  0
    7.8032  -13.9654   26.3178 C   0  0  0  0  0  0  0  0  0  0  0  0
    7.2724  -13.8065   24.9609 C   0  0  0  0  0  0  0  0  0  0  0  0
    8.1732  -14.2941   23.8867 C   0  0  2  0  0  0  0  0  0  0  0  0
    7.5944  -14.2443   22.5674 N   0  0  0  0  0  0  0  0  0  0  0  0
    8.5755  -15.7100   24.2128 C   0  0  0  0  0  0  0  0  0  0  0  0
    7.7616  -16.6359   23.9881 O   0  0  0  0  0  0  0  0  0  0  0  0
    7.7803  -15.1871   26.9598 C   0  0  0  0  0  0  0  0  0  0  0  0
    8.2838  -15.3275   28.2379 C   0  0  0  0  0  0  0  0  0  0  0  0
   14.0731  -19.3586   22.4504 N   0  0  0  0  0  0  0  0  0  0  0  0
   12.6659  -19.1853   22.3384 C   0  0  0  0  0  0  0  0  0  0  0  0
   12.0873  -19.1966   21.2296 O   0  0  0  0  0  0  0  0  0  0  0  0
   11.9175  -18.9877   23.6337 C   0  0  0  0  0  0  0  0  0  0  0  0
   11.2573  -17.6509   23.6416 C   0  0  0  0  0  0  0  0  0  0  0  0
   10.3899  -17.3757   24.8213 C   0  0  2  0  0  0  0  0  0  0  0  0
    9.8447  -16.0070   24.7630 N   0  0  0  0  0  0  0  0  0  0  0  0
   10.9894  -17.6457   26.1320 C   0  0  0  0  0  0  0  0  0  0  0  0
   10.8641  -18.7654   26.6779 O   0  0  0  0  0  0  0  0  0  0  0  0
   11.7147  -16.6797   26.8168 O   0  0  0  0  0  0  0  0  0  0  0  0
  1  2  1  0
  2  3  2  0
  4  5  1  0
  4  2  1  0
  5  7  1  0
  5  6  1  1
  7  8  2  0
  9 10  1  0
 10 11  2  0
 10 20  1  0
 11 12  1  0
 12 13  2  0
 13 14  1  0
 15 14  1  1
 16 15  1  0
 16  7  1  0
 17 15  1  0
 17 27  1  0
 18 17  2  0
 19 13  1  0
 20 19  2  0
 21 22  1  0
 22 24  1  0
 22 23  2  0
 24 25  1  0
 26 25  1  6
 26 27  1  0
 26 28  1  0
 28 30  1  0
 29 28  2  0
M  END
$$$$
