NYQ.pdb
     RDKit          3D

 30 30  0  0  1  0  0  0  0  0999 V2000
   10.9439  -18.1317   16.6111 N   0  0  0  0  0  0  0  0  0  0  0  0
   11.6802  -17.6467   17.7130 C   0  0  0  0  0  0  0  0  0  0  0  0
   12.8331  -18.1166   17.8924 O   0  0  0  0  0  0  0  0  0  0  0  0
   11.1964  -16.6296   18.6688 C   0  0  0  0  0  0  0  0  0  0  0  0
   10.8333  -17.3254   19.9598 C   0  0  2  0  0  0  0  0  0  0  0  0
    9.7353  -18.2028   19.6938 N   0  0  0  0  0  0  0  0  0  0  0  0
   10.4872  -16.3587   21.0337 C   0  0  0  0  0  0  0  0  0  0  0  0
   11.4086  -15.5913   21.4324 O   0  0  0  0  0  0  0  0  0  0  0  0
    6.5692  -11.7583   27.4061 O   0  0  0  0  0  0  0  0  0  0  0  0
    6.8028  -12.5545   26.2996 C   0  0  0  0  0  0  0  0  0  0  0  0
    7.4239  -11.9986   25.2013 C   0  0  0  0  0  0  0  0  0  0  0  0
    7.6872  -12.7507   24.0547 C   0  0  0  0  0  0  0  0  0  0  0  0
    7.3183  -14.0746   24.0218 C   0  0  0  0  0  0  0  0  0  0  0  0
    7.5982  -14.8593   22.8159 C   0  0  0  0  0  0  0  0  0  0  0  0
    8.9944  -15.3525   22.7130 C   0  0  2  0  0  0  0  0  0  0  0  0
    9.2178  -16.2577   21.6137 N   0  0  0  0  0  0  0  0  0  0  0  0
    9.3541  -16.0296   24.0111 C   0  0  0  0  0  0  0  0  0  0  0  0
    8.6973  -17.0348   24.3699 O   0  0  0  0  0  0  0  0  0  0  0  0
    6.6960  -14.6382   25.1175 C   0  0  0  0  0  0  0  0  0  0  0  0
    6.4373  -13.8912   26.2497 C   0  0  0  0  0  0  0  0  0  0  0  0
   10.2203  -13.7601   29.1076 N   0  0  0  0  0  0  0  0  0  0  0  0
   10.2655  -15.1037   29.5721 C   0  0  0  0  0  0  0  0  0  0  0  0
   10.5352  -15.3804   30.7616 O   0  0  0  0  0  0  0  0  0  0  0  0
    9.9693  -16.1697   28.5461 C   0  0  0  0  0  0  0  0  0  0  0  0
    9.8377  -15.5534   27.1947 C   0  0  0  0  0  0  0  0  0  0  0  0
   10.7246  -16.1270   26.1439 C   0  0  2  0  0  0  0  0  0  0  0  0
   10.4106  -15.5531   24.8225 N   0  0  0  0  0  0  0  0  0  0  0  0
   10.7763  -17.5910   26.0806 C   0  0  0  0  0  0  0  0  0  0  0  0
    9.7254  -18.2712   26.0593 O   0  0  0  0  0  0  0  0  0  0  0  0
   11.9821  -18.2787   26.0421 O   0  0  0  0  0  0  0  0  0  0  0  0
  1  2  1  0
  2  3  2  0
  4  5  1  0
  4  2  1  0
  5  7  1  0
  5  6  1  6
  7  8  2  0
  9 10  1  0
 10 11  2  0
 10 20  1  0
 11 12  1  0
 12 13  2  0
 13 14  1  0
 15 14  1  1
 16 15  1  0
 16  7  1  0
 17 15  1  0
 17 27  1  0
 18 17  2  0
 19 13  1  0
 20 19  2  0
 21 22  1  0
 22 24  1  0
 22 23  2  0
 24 25  1  0
 26 25  1  1
 26 27  1  0
 26 28  1  0
 28 30  1  0
 29 28  2  0
M  END
$$$$
