NYQ.pdb
     RDKit          3D

 30 30  0  0  1  0  0  0  0  0999 V2000
   10.3712  -18.5180   17.7511 N   0  0  0  0  0  0  0  0  0  0  0  0
   10.6396  -18.5716   19.1356 C   0  0  0  0  0  0  0  0  0  0  0  0
   10.9384  -19.6908   19.6257 O   0  0  0  0  0  0  0  0  0  0  0  0
   10.5951  -17.4113   20.0488 C   0  0  0  0  0  0  0  0  0  0  0  0
    9.9877  -17.8597   21.3575 C   0  0  2  0  0  0  0  0  0  0  0  0
    8.7783  -18.5646   21.0635 N   0  0  0  0  0  0  0  0  0  0  0  0
    9.7230  -16.7158   22.2680 C   0  0  0  0  0  0  0  0  0  0  0  0
   10.7111  -15.9938   22.5830 O   0  0  0  0  0  0  0  0  0  0  0  0
    7.7191  -12.9683   17.6964 O   0  0  0  0  0  0  0  0  0  0  0  0
    7.5859  -13.3266   19.0256 C   0  0  0  0  0  0  0  0  0  0  0  0
    8.2116  -12.5597   19.9854 C   0  0  0  0  0  0  0  0  0  0  0  0
    8.1147  -12.8700   21.3434 C   0  0  0  0  0  0  0  0  0  0  0  0
    7.3787  -13.9649   21.7301 C   0  0  0  0  0  0  0  0  0  0  0  0
    7.2796  -14.2852   23.1569 C   0  0  0  0  0  0  0  0  0  0  0  0
    8.2907  -15.2581   23.6409 C   0  0  2  0  0  0  0  0  0  0  0  0
    8.4599  -16.4044   22.7834 N   0  0  0  0  0  0  0  0  0  0  0  0
    7.8893  -15.7104   25.0219 C   0  0  0  0  0  0  0  0  0  0  0  0
    6.6726  -15.7280   25.3215 O   0  0  0  0  0  0  0  0  0  0  0  0
    6.7494  -14.7376   20.7749 C   0  0  0  0  0  0  0  0  0  0  0  0
    6.8476  -14.4275   19.4329 C   0  0  0  0  0  0  0  0  0  0  0  0
    7.3469  -20.5401   24.8184 N   0  0  0  0  0  0  0  0  0  0  0  0
    7.3286  -20.7484   26.2252 C   0  0  0  0  0  0  0  0  0  0  0  0
    6.9774  -21.8399   26.7247 O   0  0  0  0  0  0  0  0  0  0  0  0
    7.7568  -19.5767   27.0741 C   0  0  0  0  0  0  0  0  0  0  0  0
    8.2003  -18.4513   26.2023 C   0  0  0  0  0  0  0  0  0  0  0  0
    8.6309  -17.2197   26.9216 C   0  0  2  0  0  0  0  0  0  0  0  0
    8.8546  -16.1112   25.9754 N   0  0  0  0  0  0  0  0  0  0  0  0
    9.7742  -17.3750   27.8266 C   0  0  0  0  0  0  0  0  0  0  0  0
    9.6498  -17.9635   28.9246 O   0  0  0  0  0  0  0  0  0  0  0  0
   11.0318  -16.8805   27.5067 O   0  0  0  0  0  0  0  0  0  0  0  0
  1  2  1  0
  2  3  2  0
  4  5  1  0
  4  2  1  0
  5  7  1  0
  5  6  1  6
  7  8  2  0
  9 10  1  0
 10 11  2  0
 10 20  1  0
 11 12  1  0
 12 13  2  0
 13 14  1  0
 15 14  1  6
 16 15  1  0
 16  7  1  0
 17 15  1  0
 17 27  1  0
 18 17  2  0
 19 13  1  0
 20 19  2  0
 21 22  1  0
 22 24  1  0
 22 23  2  0
 24 25  1  0
 26 25  1  6
 26 27  1  0
 26 28  1  0
 28 30  1  0
 29 28  2  0
M  END
$$$$
