NYQ.pdb
     RDKit          3D

 30 30  0  0  1  0  0  0  0  0999 V2000
    9.3758  -17.3924   16.7057 N   0  0  0  0  0  0  0  0  0  0  0  0
   10.1585  -17.4389   17.8790 C   0  0  0  0  0  0  0  0  0  0  0  0
   10.9121  -18.4340   18.0346 O   0  0  0  0  0  0  0  0  0  0  0  0
   10.1570  -16.4064   18.9354 C   0  0  0  0  0  0  0  0  0  0  0  0
   10.0518  -17.0971   20.2750 C   0  0  2  0  0  0  0  0  0  0  0  0
    8.9655  -18.0252   20.2082 N   0  0  0  0  0  0  0  0  0  0  0  0
    9.8511  -16.1298   21.3847 C   0  0  0  0  0  0  0  0  0  0  0  0
   10.7384  -15.2434   21.5395 O   0  0  0  0  0  0  0  0  0  0  0  0
    6.4324  -11.0719   27.7237 O   0  0  0  0  0  0  0  0  0  0  0  0
    6.6559  -12.0403   26.7619 C   0  0  0  0  0  0  0  0  0  0  0  0
    5.7220  -12.2104   25.7619 C   0  0  0  0  0  0  0  0  0  0  0  0
    5.8909  -13.1710   24.7627 C   0  0  0  0  0  0  0  0  0  0  0  0
    7.0138  -13.9640   24.7779 C   0  0  0  0  0  0  0  0  0  0  0  0
    7.1862  -14.9699   23.7259 C   0  0  0  0  0  0  0  0  0  0  0  0
    8.5768  -15.1036   23.2243 C   0  0  2  0  0  0  0  0  0  0  0  0
    8.7511  -16.1508   22.2492 N   0  0  0  0  0  0  0  0  0  0  0  0
    9.4836  -15.3499   24.4033 C   0  0  0  0  0  0  0  0  0  0  0  0
    9.3803  -14.6099   25.4093 O   0  0  0  0  0  0  0  0  0  0  0  0
    7.9532  -13.7997   25.7759 C   0  0  0  0  0  0  0  0  0  0  0  0
    7.7826  -12.8486   26.7623 C   0  0  0  0  0  0  0  0  0  0  0  0
    6.9222  -19.0202   26.3925 N   0  0  0  0  0  0  0  0  0  0  0  0
    7.9504  -19.4738   27.2642 C   0  0  0  0  0  0  0  0  0  0  0  0
    7.7153  -20.2645   28.2043 O   0  0  0  0  0  0  0  0  0  0  0  0
    9.3359  -18.9449   26.9862 C   0  0  0  0  0  0  0  0  0  0  0  0
    9.2891  -17.9546   25.8724 C   0  0  0  0  0  0  0  0  0  0  0  0
   10.5980  -17.3437   25.5076 C   0  0  2  0  0  0  0  0  0  0  0  0
   10.4398  -16.3926   24.3921 N   0  0  0  0  0  0  0  0  0  0  0  0
   11.6908  -18.2849   25.2428 C   0  0  0  0  0  0  0  0  0  0  0  0
   11.8169  -18.8244   24.1201 O   0  0  0  0  0  0  0  0  0  0  0  0
   12.6235  -18.6147   26.2173 O   0  0  0  0  0  0  0  0  0  0  0  0
  1  2  1  0
  2  3  2  0
  4  5  1  0
  4  2  1  0
  5  7  1  0
  5  6  1  6
  7  8  2  0
  9 10  1  0
 10 11  2  0
 10 20  1  0
 11 12  1  0
 12 13  2  0
 13 14  1  0
 15 14  1  1
 16 15  1  0
 16  7  1  0
 17 15  1  0
 17 27  1  0
 18 17  2  0
 19 13  1  0
 20 19  2  0
 21 22  1  0
 22 24  1  0
 22 23  2  0
 24 25  1  0
 26 25  1  6
 26 27  1  0
 26 28  1  0
 28 30  1  0
 29 28  2  0
M  END
$$$$
