NYQ.pdb
     RDKit          3D

 30 30  0  0  1  0  0  0  0  0999 V2000
    9.6751  -17.9623   16.2306 N   0  0  0  0  0  0  0  0  0  0  0  0
   10.2737  -17.9506   17.5085 C   0  0  0  0  0  0  0  0  0  0  0  0
   10.9593  -18.9527   17.8372 O   0  0  0  0  0  0  0  0  0  0  0  0
   10.1539  -16.8496   18.4860 C   0  0  0  0  0  0  0  0  0  0  0  0
    9.8284  -17.4455   19.8356 C   0  0  2  0  0  0  0  0  0  0  0  0
    8.6354  -18.2226   19.6980 N   0  0  0  0  0  0  0  0  0  0  0  0
    9.6594  -16.4007   20.8783 C   0  0  0  0  0  0  0  0  0  0  0  0
   10.6695  -15.6902   21.1462 O   0  0  0  0  0  0  0  0  0  0  0  0
    6.8442  -11.6865   27.7447 O   0  0  0  0  0  0  0  0  0  0  0  0
    6.9077  -12.4511   26.5939 C   0  0  0  0  0  0  0  0  0  0  0  0
    7.1356  -11.8199   25.3895 C   0  0  0  0  0  0  0  0  0  0  0  0
    7.2104  -12.5368   24.1936 C   0  0  0  0  0  0  0  0  0  0  0  0
    7.0531  -13.9023   24.2195 C   0  0  0  0  0  0  0  0  0  0  0  0
    7.1337  -14.6497   22.9613 C   0  0  0  0  0  0  0  0  0  0  0  0
    8.4440  -15.3026   22.7163 C   0  0  2  0  0  0  0  0  0  0  0  0
    8.4620  -16.1689   21.5643 N   0  0  0  0  0  0  0  0  0  0  0  0
    8.8201  -16.0861   23.9482 C   0  0  0  0  0  0  0  0  0  0  0  0
    7.9653  -16.8407   24.4681 O   0  0  0  0  0  0  0  0  0  0  0  0
    6.8246  -14.5413   25.4215 C   0  0  0  0  0  0  0  0  0  0  0  0
    6.7513  -13.8289   26.6021 C   0  0  0  0  0  0  0  0  0  0  0  0
   12.0105  -20.7310   23.1492 N   0  0  0  0  0  0  0  0  0  0  0  0
   11.2525  -20.7383   24.3526 C   0  0  0  0  0  0  0  0  0  0  0  0
   10.5356  -21.7117   24.6733 O   0  0  0  0  0  0  0  0  0  0  0  0
   11.3659  -19.5050   25.2145 C   0  0  0  0  0  0  0  0  0  0  0  0
   10.7022  -18.3512   24.5424 C   0  0  0  0  0  0  0  0  0  0  0  0
   10.7244  -17.0712   25.3046 C   0  0  2  0  0  0  0  0  0  0  0  0
   10.1097  -15.9839   24.5210 N   0  0  0  0  0  0  0  0  0  0  0  0
   12.0309  -16.6637   25.8312 C   0  0  0  0  0  0  0  0  0  0  0  0
   12.6267  -17.3612   26.6832 O   0  0  0  0  0  0  0  0  0  0  0  0
   12.6568  -15.4975   25.4109 O   0  0  0  0  0  0  0  0  0  0  0  0
  1  2  1  0
  2  3  2  0
  4  5  1  0
  4  2  1  0
  5  7  1  0
  5  6  1  6
  7  8  2  0
  9 10  1  0
 10 11  2  0
 10 20  1  0
 11 12  1  0
 12 13  2  0
 13 14  1  0
 15 14  1  1
 16 15  1  0
 16  7  1  0
 17 15  1  0
 17 27  1  0
 18 17  2  0
 19 13  1  0
 20 19  2  0
 21 22  1  0
 22 24  1  0
 22 23  2  0
 24 25  1  0
 26 25  1  6
 26 27  1  0
 26 28  1  0
 28 30  1  0
 29 28  2  0
M  END
$$$$
