NYQ.pdb
     RDKit          3D

 30 30  0  0  1  0  0  0  0  0999 V2000
   12.4687  -18.5041   17.6008 N   0  0  0  0  0  0  0  0  0  0  0  0
   11.5761  -18.5855   18.6908 C   0  0  0  0  0  0  0  0  0  0  0  0
   10.7653  -19.5470   18.7061 O   0  0  0  0  0  0  0  0  0  0  0  0
   11.5251  -17.6258   19.8126 C   0  0  0  0  0  0  0  0  0  0  0  0
   10.1106  -17.1083   19.9313 C   0  0  2  0  0  0  0  0  0  0  0  0
    9.8189  -16.3492   18.7545 N   0  0  0  0  0  0  0  0  0  0  0  0
    9.9217  -16.2821   21.1516 C   0  0  0  0  0  0  0  0  0  0  0  0
   10.9523  -15.7375   21.6398 O   0  0  0  0  0  0  0  0  0  0  0  0
    6.8276  -11.6609   27.9285 O   0  0  0  0  0  0  0  0  0  0  0  0
    6.9165  -12.4131   26.7712 C   0  0  0  0  0  0  0  0  0  0  0  0
    7.6196  -11.9029   25.7005 C   0  0  0  0  0  0  0  0  0  0  0  0
    7.7450  -12.6142   24.5055 C   0  0  0  0  0  0  0  0  0  0  0  0
    7.1538  -13.8505   24.3959 C   0  0  0  0  0  0  0  0  0  0  0  0
    7.2899  -14.5930   23.1395 C   0  0  0  0  0  0  0  0  0  0  0  0
    8.5974  -15.2737   22.9655 C   0  0  2  0  0  0  0  0  0  0  0  0
    8.6851  -16.0811   21.7746 N   0  0  0  0  0  0  0  0  0  0  0  0
    8.8507  -16.1297   24.1805 C   0  0  0  0  0  0  0  0  0  0  0  0
    8.1023  -17.1118   24.3938 O   0  0  0  0  0  0  0  0  0  0  0  0
    6.4483  -14.3679   25.4635 C   0  0  0  0  0  0  0  0  0  0  0  0
    6.3264  -13.6615   26.6437 C   0  0  0  0  0  0  0  0  0  0  0  0
   13.8782  -18.4865   26.1146 N   0  0  0  0  0  0  0  0  0  0  0  0
   13.1334  -18.6535   24.9145 C   0  0  0  0  0  0  0  0  0  0  0  0
   13.6068  -19.2521   23.9237 O   0  0  0  0  0  0  0  0  0  0  0  0
   11.7432  -18.0668   24.9104 C   0  0  0  0  0  0  0  0  0  0  0  0
   11.4980  -17.3291   26.1828 C   0  0  0  0  0  0  0  0  0  0  0  0
   10.1756  -16.6500   26.2807 C   0  0  2  0  0  0  0  0  0  0  0  0
    9.9094  -15.8445   25.0747 N   0  0  0  0  0  0  0  0  0  0  0  0
    9.9502  -15.8626   27.4970 C   0  0  0  0  0  0  0  0  0  0  0  0
    9.8104  -14.6197   27.4417 O   0  0  0  0  0  0  0  0  0  0  0  0
    9.8828  -16.4569   28.7503 O   0  0  0  0  0  0  0  0  0  0  0  0
  1  2  1  0
  2  3  2  0
  4  5  1  0
  4  2  1  0
  5  7  1  0
  5  6  1  6
  7  8  2  0
  9 10  1  0
 10 11  2  0
 10 20  1  0
 11 12  1  0
 12 13  2  0
 13 14  1  0
 15 14  1  1
 16 15  1  0
 16  7  1  0
 17 15  1  0
 17 27  1  0
 18 17  2  0
 19 13  1  0
 20 19  2  0
 21 22  1  0
 22 24  1  0
 22 23  2  0
 24 25  1  0
 26 25  1  6
 26 27  1  0
 26 28  1  0
 28 30  1  0
 29 28  2  0
M  END
$$$$
