NYQ.pdb
     RDKit          3D

 30 30  0  0  1  0  0  0  0  0999 V2000
   13.3806  -21.8676   13.0927 N   0  0  0  0  0  0  0  0  0  0  0  0
   12.4739  -20.9173   13.6088 C   0  0  0  0  0  0  0  0  0  0  0  0
   11.8254  -20.2256   12.7822 O   0  0  0  0  0  0  0  0  0  0  0  0
   12.2316  -20.6765   15.0459 C   0  0  0  0  0  0  0  0  0  0  0  0
   13.2501  -21.4627   15.8379 C   0  0  2  0  0  0  0  0  0  0  0  0
   12.9497  -22.8528   15.6849 N   0  0  0  0  0  0  0  0  0  0  0  0
   13.2541  -21.0793   17.2733 C   0  0  0  0  0  0  0  0  0  0  0  0
   13.6000  -19.8956   17.5491 O   0  0  0  0  0  0  0  0  0  0  0  0
   12.0396  -20.4647   25.9284 O   0  0  0  0  0  0  0  0  0  0  0  0
   12.0261  -20.9004   24.6158 C   0  0  0  0  0  0  0  0  0  0  0  0
   11.2960  -20.1885   23.6878 C   0  0  0  0  0  0  0  0  0  0  0  0
   11.2432  -20.5779   22.3479 C   0  0  0  0  0  0  0  0  0  0  0  0
   11.9352  -21.6961   21.9469 C   0  0  0  0  0  0  0  0  0  0  0  0
   11.8769  -22.0993   20.5389 C   0  0  0  0  0  0  0  0  0  0  0  0
   12.9173  -21.4823   19.6786 C   0  0  2  0  0  0  0  0  0  0  0  0
   12.9012  -21.9458   18.3138 N   0  0  0  0  0  0  0  0  0  0  0  0
   14.2655  -21.7586   20.2942 C   0  0  0  0  0  0  0  0  0  0  0  0
   14.6929  -22.9365   20.3079 O   0  0  0  0  0  0  0  0  0  0  0  0
   12.6683  -22.4139   22.8702 C   0  0  0  0  0  0  0  0  0  0  0  0
   12.7181  -22.0257   24.1944 C   0  0  0  0  0  0  0  0  0  0  0  0
   19.1607  -18.8227   19.1939 N   0  0  0  0  0  0  0  0  0  0  0  0
   19.7663  -19.5819   20.2330 C   0  0  0  0  0  0  0  0  0  0  0  0
   21.0025  -19.5704   20.4222 O   0  0  0  0  0  0  0  0  0  0  0  0
   18.8296  -20.3982   21.0892 C   0  0  0  0  0  0  0  0  0  0  0  0
   17.4257  -20.2220   20.6189 C   0  0  0  0  0  0  0  0  0  0  0  0
   16.3926  -20.9451   21.4124 C   0  0  2  0  0  0  0  0  0  0  0  0
   15.0479  -20.7197   20.8510 N   0  0  0  0  0  0  0  0  0  0  0  0
   16.4059  -20.6953   22.8572 C   0  0  0  0  0  0  0  0  0  0  0  0
   15.4890  -20.0426   23.4054 O   0  0  0  0  0  0  0  0  0  0  0  0
   17.4270  -21.1679   23.6711 O   0  0  0  0  0  0  0  0  0  0  0  0
  1  2  1  0
  2  3  2  0
  4  5  1  0
  4  2  1  0
  5  7  1  0
  5  6  1  1
  7  8  2  0
  9 10  1  0
 10 11  2  0
 10 20  1  0
 11 12  1  0
 12 13  2  0
 13 14  1  0
 15 14  1  1
 16 15  1  0
 16  7  1  0
 17 15  1  0
 17 27  1  0
 18 17  2  0
 19 13  1  0
 20 19  2  0
 21 22  1  0
 22 24  1  0
 22 23  2  0
 24 25  1  0
 26 25  1  6
 26 27  1  0
 26 28  1  0
 28 30  1  0
 29 28  2  0
M  END
$$$$
