NYQ.pdb
     RDKit          3D

 30 30  0  0  1  0  0  0  0  0999 V2000
    4.8501  -21.2467   22.8582 N   0  0  0  0  0  0  0  0  0  0  0  0
    5.6180  -20.9791   24.0116 C   0  0  0  0  0  0  0  0  0  0  0  0
    5.5639  -21.8138   24.9511 O   0  0  0  0  0  0  0  0  0  0  0  0
    6.4787  -19.7927   24.1953 C   0  0  0  0  0  0  0  0  0  0  0  0
    6.3115  -18.8935   22.9927 C   0  0  2  0  0  0  0  0  0  0  0  0
    5.9997  -19.7178   21.8661 N   0  0  0  0  0  0  0  0  0  0  0  0
    7.5289  -18.0827   22.7317 C   0  0  0  0  0  0  0  0  0  0  0  0
    8.3512  -18.5394   21.8877 O   0  0  0  0  0  0  0  0  0  0  0  0
    7.3154  -13.0263   17.7132 O   0  0  0  0  0  0  0  0  0  0  0  0
    7.6393  -13.4189   18.9992 C   0  0  0  0  0  0  0  0  0  0  0  0
    8.9022  -13.9153   19.2433 C   0  0  0  0  0  0  0  0  0  0  0  0
    9.2889  -14.3279   20.5200 C   0  0  0  0  0  0  0  0  0  0  0  0
    8.3892  -14.2364   21.5554 C   0  0  0  0  0  0  0  0  0  0  0  0
    8.8011  -14.6699   22.8936 C   0  0  0  0  0  0  0  0  0  0  0  0
    9.0032  -16.1340   23.0310 C   0  0  2  0  0  0  0  0  0  0  0  0
    7.8047  -16.8637   23.3608 N   0  0  0  0  0  0  0  0  0  0  0  0
   10.0503  -16.3698   24.0897 C   0  0  0  0  0  0  0  0  0  0  0  0
   11.1075  -15.6980   24.0536 O   0  0  0  0  0  0  0  0  0  0  0  0
    7.1229  -13.7405   21.3188 C   0  0  0  0  0  0  0  0  0  0  0  0
    6.7441  -13.3334   20.0549 C   0  0  0  0  0  0  0  0  0  0  0  0
    9.1620  -13.3896   27.8931 N   0  0  0  0  0  0  0  0  0  0  0  0
   10.0812  -14.0591   28.7473 C   0  0  0  0  0  0  0  0  0  0  0  0
   10.6115  -13.4845   29.7233 O   0  0  0  0  0  0  0  0  0  0  0  0
   10.3757  -15.4989   28.4049 C   0  0  0  0  0  0  0  0  0  0  0  0
   10.0299  -15.7643   26.9790 C   0  0  0  0  0  0  0  0  0  0  0  0
   10.3509  -17.1346   26.4901 C   0  0  2  0  0  0  0  0  0  0  0  0
    9.8603  -17.3280   25.1132 N   0  0  0  0  0  0  0  0  0  0  0  0
    9.9268  -18.2382   27.3575 C   0  0  0  0  0  0  0  0  0  0  0  0
   10.6372  -18.6097   28.3191 O   0  0  0  0  0  0  0  0  0  0  0  0
    8.7301  -18.9117   27.1508 O   0  0  0  0  0  0  0  0  0  0  0  0
  1  2  1  0
  2  3  2  0
  4  5  1  0
  4  2  1  0
  5  7  1  0
  5  6  1  6
  7  8  2  0
  9 10  1  0
 10 11  2  0
 10 20  1  0
 11 12  1  0
 12 13  2  0
 13 14  1  0
 15 14  1  1
 16 15  1  0
 16  7  1  0
 17 15  1  0
 17 27  1  0
 18 17  2  0
 19 13  1  0
 20 19  2  0
 21 22  1  0
 22 24  1  0
 22 23  2  0
 24 25  1  0
 26 25  1  1
 26 27  1  0
 26 28  1  0
 28 30  1  0
 29 28  2  0
M  END
$$$$
