NYQ.pdb
     RDKit          3D

 30 30  0  0  1  0  0  0  0  0999 V2000
   15.2048  -15.1258   15.5780 N   0  0  0  0  0  0  0  0  0  0  0  0
   13.8080  -15.0047   15.7388 C   0  0  0  0  0  0  0  0  0  0  0  0
   13.0801  -15.3637   14.7777 O   0  0  0  0  0  0  0  0  0  0  0  0
   13.1401  -14.4883   16.9509 C   0  0  0  0  0  0  0  0  0  0  0  0
   13.1626  -15.5715   18.0040 C   0  0  2  0  0  0  0  0  0  0  0  0
   12.4154  -16.6852   17.5066 N   0  0  0  0  0  0  0  0  0  0  0  0
   12.6064  -15.0997   19.2984 C   0  0  0  0  0  0  0  0  0  0  0  0
   13.1756  -14.1097   19.8396 O   0  0  0  0  0  0  0  0  0  0  0  0
    7.1075  -12.0458   17.4224 O   0  0  0  0  0  0  0  0  0  0  0  0
    7.7227  -12.8317   18.3798 C   0  0  0  0  0  0  0  0  0  0  0  0
    8.2334  -12.2255   19.5079 C   0  0  0  0  0  0  0  0  0  0  0  0
    8.8655  -12.9648   20.5097 C   0  0  0  0  0  0  0  0  0  0  0  0
    8.9802  -14.3273   20.3664 C   0  0  0  0  0  0  0  0  0  0  0  0
    9.6437  -15.0982   21.4218 C   0  0  0  0  0  0  0  0  0  0  0  0
   11.1108  -15.2424   21.2487 C   0  0  2  0  0  0  0  0  0  0  0  0
   11.5064  -15.6848   19.9351 N   0  0  0  0  0  0  0  0  0  0  0  0
   11.6167  -16.2122   22.2862 C   0  0  0  0  0  0  0  0  0  0  0  0
   11.2892  -17.4184   22.1956 O   0  0  0  0  0  0  0  0  0  0  0  0
    8.4714  -14.9413   19.2398 C   0  0  0  0  0  0  0  0  0  0  0  0
    7.8470  -14.2068   18.2512 C   0  0  0  0  0  0  0  0  0  0  0  0
   17.1404  -16.0935   24.7007 N   0  0  0  0  0  0  0  0  0  0  0  0
   16.6883  -15.8835   23.3687 C   0  0  0  0  0  0  0  0  0  0  0  0
   17.4706  -15.5443   22.4537 O   0  0  0  0  0  0  0  0  0  0  0  0
   15.2137  -16.0943   23.1285 C   0  0  0  0  0  0  0  0  0  0  0  0
   14.5388  -16.4715   24.4035 C   0  0  0  0  0  0  0  0  0  0  0  0
   13.0744  -16.7248   24.2985 C   0  0  2  0  0  0  0  0  0  0  0  0
   12.4469  -15.7865   23.3498 N   0  0  0  0  0  0  0  0  0  0  0  0
   12.3391  -16.7578   25.5667 C   0  0  0  0  0  0  0  0  0  0  0  0
   12.6850  -17.5285   26.4906 O   0  0  0  0  0  0  0  0  0  0  0  0
   11.2379  -15.9429   25.7944 O   0  0  0  0  0  0  0  0  0  0  0  0
  1  2  1  0
  2  3  2  0
  4  5  1  0
  4  2  1  0
  5  7  1  0
  5  6  1  6
  7  8  2  0
  9 10  1  0
 10 11  2  0
 10 20  1  0
 11 12  1  0
 12 13  2  0
 13 14  1  0
 15 14  1  6
 16 15  1  0
 16  7  1  0
 17 15  1  0
 17 27  1  0
 18 17  2  0
 19 13  1  0
 20 19  2  0
 21 22  1  0
 22 24  1  0
 22 23  2  0
 24 25  1  0
 26 25  1  1
 26 27  1  0
 26 28  1  0
 28 30  1  0
 29 28  2  0
M  END
$$$$
