NYQ.pdb
     RDKit          3D

 30 30  0  0  1  0  0  0  0  0999 V2000
    8.8963  -17.6524   17.1974 N   0  0  0  0  0  0  0  0  0  0  0  0
    8.4340  -17.9849   18.4886 C   0  0  0  0  0  0  0  0  0  0  0  0
    7.3939  -18.6878   18.5693 O   0  0  0  0  0  0  0  0  0  0  0  0
    9.0813  -17.5685   19.7494 C   0  0  0  0  0  0  0  0  0  0  0  0
    8.2653  -16.4509   20.3560 C   0  0  2  0  0  0  0  0  0  0  0  0
    8.3563  -15.3176   19.4879 N   0  0  0  0  0  0  0  0  0  0  0  0
    8.7281  -16.1047   21.7247 C   0  0  0  0  0  0  0  0  0  0  0  0
    9.8462  -15.5238   21.8216 O   0  0  0  0  0  0  0  0  0  0  0  0
    6.8833  -10.5210   27.1713 O   0  0  0  0  0  0  0  0  0  0  0  0
    6.9703  -11.8086   26.6739 C   0  0  0  0  0  0  0  0  0  0  0  0
    8.1865  -12.4566   26.7192 C   0  0  0  0  0  0  0  0  0  0  0  0
    8.3379  -13.7568   26.2330 C   0  0  0  0  0  0  0  0  0  0  0  0
    7.2493  -14.4036   25.6977 C   0  0  0  0  0  0  0  0  0  0  0  0
    7.4141  -15.7686   25.1900 C   0  0  0  0  0  0  0  0  0  0  0  0
    8.4789  -15.9203   24.1671 C   0  0  2  0  0  0  0  0  0  0  0  0
    8.0025  -16.3842   22.8881 N   0  0  0  0  0  0  0  0  0  0  0  0
    9.5156  -16.8758   24.7011 C   0  0  0  0  0  0  0  0  0  0  0  0
    9.2413  -18.0975   24.7521 O   0  0  0  0  0  0  0  0  0  0  0  0
    6.0285  -13.7613   25.6489 C   0  0  0  0  0  0  0  0  0  0  0  0
    5.8826  -12.4754   26.1307 C   0  0  0  0  0  0  0  0  0  0  0  0
   15.4725  -15.9381   24.1583 N   0  0  0  0  0  0  0  0  0  0  0  0
   15.6207  -17.0832   24.9888 C   0  0  0  0  0  0  0  0  0  0  0  0
   16.7458  -17.5526   25.2684 O   0  0  0  0  0  0  0  0  0  0  0  0
   14.3430  -17.6940   25.5093 C   0  0  0  0  0  0  0  0  0  0  0  0
   13.1712  -16.8995   25.0415 C   0  0  0  0  0  0  0  0  0  0  0  0
   11.8514  -17.3337   25.5793 C   0  0  2  0  0  0  0  0  0  0  0  0
   10.7805  -16.4198   25.1412 N   0  0  0  0  0  0  0  0  0  0  0  0
   11.7927  -17.5537   27.0279 C   0  0  0  0  0  0  0  0  0  0  0  0
   11.1078  -16.8079   27.7642 O   0  0  0  0  0  0  0  0  0  0  0  0
   12.4880  -18.5890   27.6385 O   0  0  0  0  0  0  0  0  0  0  0  0
  1  2  1  0
  2  3  2  0
  4  5  1  0
  4  2  1  0
  5  7  1  0
  5  6  1  6
  7  8  2  0
  9 10  1  0
 10 11  2  0
 10 20  1  0
 11 12  1  0
 12 13  2  0
 13 14  1  0
 15 14  1  1
 16 15  1  0
 16  7  1  0
 17 15  1  0
 17 27  1  0
 18 17  2  0
 19 13  1  0
 20 19  2  0
 21 22  1  0
 22 24  1  0
 22 23  2  0
 24 25  1  0
 26 25  1  1
 26 27  1  0
 26 28  1  0
 28 30  1  0
 29 28  2  0
M  END
$$$$
