NYQ.pdb
     RDKit          3D

 30 30  0  0  1  0  0  0  0  0999 V2000
   11.7094  -18.9551   18.7659 N   0  0  0  0  0  0  0  0  0  0  0  0
   11.7386  -17.5633   18.5343 C   0  0  0  0  0  0  0  0  0  0  0  0
   12.2954  -17.1622   17.4801 O   0  0  0  0  0  0  0  0  0  0  0  0
   11.1643  -16.5457   19.4380 C   0  0  0  0  0  0  0  0  0  0  0  0
   10.6869  -17.2392   20.6925 C   0  0  2  0  0  0  0  0  0  0  0  0
    9.5815  -18.0758   20.3401 N   0  0  0  0  0  0  0  0  0  0  0  0
   10.2986  -16.2702   21.7496 C   0  0  0  0  0  0  0  0  0  0  0  0
   11.2133  -15.5326   22.2146 O   0  0  0  0  0  0  0  0  0  0  0  0
    6.0420  -11.3280   27.6258 O   0  0  0  0  0  0  0  0  0  0  0  0
    6.3245  -12.2135   26.6016 C   0  0  0  0  0  0  0  0  0  0  0  0
    6.9503  -11.7395   25.4682 C   0  0  0  0  0  0  0  0  0  0  0  0
    7.2617  -12.5837   24.4005 C   0  0  0  0  0  0  0  0  0  0  0  0
    6.9364  -13.9169   24.4829 C   0  0  0  0  0  0  0  0  0  0  0  0
    7.2668  -14.7985   23.3596 C   0  0  0  0  0  0  0  0  0  0  0  0
    8.7053  -15.1489   23.2548 C   0  0  2  0  0  0  0  0  0  0  0  0
    8.9971  -16.1363   22.2459 N   0  0  0  0  0  0  0  0  0  0  0  0
    9.1712  -15.6435   24.6007 C   0  0  0  0  0  0  0  0  0  0  0  0
    8.8395  -15.0047   25.6265 O   0  0  0  0  0  0  0  0  0  0  0  0
    6.3097  -14.3989   25.6144 C   0  0  0  0  0  0  0  0  0  0  0  0
    6.0034  -13.5609   26.6683 C   0  0  0  0  0  0  0  0  0  0  0  0
    6.8718  -19.2307   28.3333 N   0  0  0  0  0  0  0  0  0  0  0  0
    7.8883  -19.6540   27.4331 C   0  0  0  0  0  0  0  0  0  0  0  0
    8.4416  -20.7703   27.5424 O   0  0  0  0  0  0  0  0  0  0  0  0
    8.2563  -18.6778   26.3429 C   0  0  0  0  0  0  0  0  0  0  0  0
    9.1903  -17.6458   26.8775 C   0  0  0  0  0  0  0  0  0  0  0  0
   10.3790  -17.3600   26.0259 C   0  0  2  0  0  0  0  0  0  0  0  0
    9.9690  -16.8055   24.7227 N   0  0  0  0  0  0  0  0  0  0  0  0
   11.3208  -18.4701   25.8502 C   0  0  0  0  0  0  0  0  0  0  0  0
   11.1320  -19.5696   26.4183 O   0  0  0  0  0  0  0  0  0  0  0  0
   12.4517  -18.3498   25.0534 O   0  0  0  0  0  0  0  0  0  0  0  0
  1  2  1  0
  2  3  2  0
  4  5  1  0
  4  2  1  0
  5  7  1  0
  5  6  1  6
  7  8  2  0
  9 10  1  0
 10 11  2  0
 10 20  1  0
 11 12  1  0
 12 13  2  0
 13 14  1  0
 15 14  1  1
 16 15  1  0
 16  7  1  0
 17 15  1  0
 17 27  1  0
 18 17  2  0
 19 13  1  0
 20 19  2  0
 21 22  1  0
 22 24  1  0
 22 23  2  0
 24 25  1  0
 26 25  1  6
 26 27  1  0
 26 28  1  0
 28 30  1  0
 29 28  2  0
M  END
$$$$
