KPC.pdb
     RDKit          3D

 23 23  0  0  1  0  0  0  0  0999 V2000
    7.7784  -17.9814   17.1882 N   0  0  0  0  0  0  0  0  0  0  0  0
    7.1410  -17.1192   18.2209 C   0  0  1  0  0  0  0  0  0  0  0  0
    6.2895  -18.0145   19.0251 C   0  0  0  0  0  0  0  0  0  0  0  0
    6.8254  -19.1615   19.7601 C   0  0  0  0  0  0  0  0  0  0  0  0
    6.0018  -20.0721   20.5543 C   0  0  0  0  0  0  0  0  0  0  0  0
    6.6854  -21.1896   21.2480 C   0  0  0  0  0  0  0  0  0  0  0  0
    5.6609  -22.0039   21.9836 N   0  0  0  0  0  0  0  0  0  0  0  0
    8.2256  -16.4952   18.9820 C   0  0  0  0  0  0  0  0  0  0  0  0
    9.3826  -17.0221   18.8782 O   0  0  0  0  0  0  0  0  0  0  0  0
    8.0627  -15.3622   19.8107 N   0  0  0  0  0  0  0  0  0  0  0  0
    6.8587  -14.6900   20.1505 C   0  0  0  0  0  0  0  0  0  0  0  0
    7.3076  -13.3724   20.7744 C   0  0  0  0  0  0  0  0  0  0  0  0
    8.7718  -13.2515   20.3584 C   0  0  0  0  0  0  0  0  0  0  0  0
    9.1548  -14.7126   20.4869 C   0  0  1  0  0  0  0  0  0  0  0  0
    9.1315  -15.1507   21.9062 C   0  0  0  0  0  0  0  0  0  0  0  0
    8.0620  -15.4625   22.4676 O   0  0  0  0  0  0  0  0  0  0  0  0
   10.3392  -15.2223   22.6540 N   0  0  0  0  0  0  0  0  0  0  0  0
   10.7207  -16.3475   23.4656 C   0  0  1  0  0  0  0  0  0  0  0  0
   10.7315  -17.5947   22.6303 C   0  0  0  0  0  0  0  0  0  0  0  0
   11.2752  -18.9734   23.6536 S   0  0  0  0  0  0  0  0  0  0  0  0
   12.0390  -16.1364   24.1099 C   0  0  0  0  0  0  0  0  0  0  0  0
   13.0599  -15.5371   23.4047 O   0  0  0  0  0  0  0  0  0  0  0  0
   12.2170  -16.5062   25.2975 O   0  0  0  0  0  0  0  0  0  0  0  0
  2  1  1  6
  3  2  1  0
  4  3  1  0
  5  6  1  0
  5  4  1  0
  7  6  1  0
  8 10  1  0
  8  2  1  0
  9  8  2  0
 10 11  1  0
 12 11  1  0
 13 14  1  0
 13 12  1  0
 14 10  1  0
 15 17  1  0
 14 15  1  1
 16 15  2  0
 18 17  1  0
 18 21  1  0
 18 19  1  6
 20 19  1  0
 21 22  1  0
 23 21  2  0
M  END
$$$$
