KPC.pdb
     RDKit          3D

 23 23  0  0  1  0  0  0  0  0999 V2000
    9.5257  -15.3774   20.9513 N   0  0  0  0  0  0  0  0  0  0  0  0
    8.3791  -15.3455   21.9003 C   0  0  1  0  0  0  0  0  0  0  0  0
    7.8459  -16.7194   21.9360 C   0  0  0  0  0  0  0  0  0  0  0  0
    8.6641  -17.8726   22.3152 C   0  0  0  0  0  0  0  0  0  0  0  0
    8.1778  -19.2515   22.3008 C   0  0  0  0  0  0  0  0  0  0  0  0
    9.1139  -20.3154   22.7358 C   0  0  0  0  0  0  0  0  0  0  0  0
    8.3953  -21.6332   22.7144 N   0  0  0  0  0  0  0  0  0  0  0  0
    8.9049  -14.8827   23.1865 C   0  0  0  0  0  0  0  0  0  0  0  0
   10.1732  -14.8083   23.2999 O   0  0  0  0  0  0  0  0  0  0  0  0
    8.0980  -14.5216   24.2891 N   0  0  0  0  0  0  0  0  0  0  0  0
    6.7022  -14.7229   24.4577 C   0  0  0  0  0  0  0  0  0  0  0  0
    6.3213  -13.8512   25.6499 C   0  0  0  0  0  0  0  0  0  0  0  0
    7.5097  -12.9050   25.8050 C   0  0  0  0  0  0  0  0  0  0  0  0
    8.6144  -13.8889   25.4743 C   0  0  1  0  0  0  0  0  0  0  0  0
    8.7372  -14.9314   26.5255 C   0  0  0  0  0  0  0  0  0  0  0  0
    8.4238  -16.1172   26.2977 O   0  0  0  0  0  0  0  0  0  0  0  0
    9.2182  -14.5908   27.8199 N   0  0  0  0  0  0  0  0  0  0  0  0
   10.3876  -15.1710   28.4251 C   0  0  1  0  0  0  0  0  0  0  0  0
   10.5694  -14.6184   29.8089 C   0  0  0  0  0  0  0  0  0  0  0  0
   10.4044  -12.8263   29.7442 S   0  0  0  0  0  0  0  0  0  0  0  0
   10.3108  -16.6509   28.4573 C   0  0  0  0  0  0  0  0  0  0  0  0
   11.3723  -17.3834   28.9424 O   0  0  0  0  0  0  0  0  0  0  0  0
    9.2757  -17.2291   28.0409 O   0  0  0  0  0  0  0  0  0  0  0  0
  2  1  1  6
  3  2  1  0
  4  3  1  0
  5  6  1  0
  5  4  1  0
  7  6  1  0
  8 10  1  0
  8  2  1  0
  9  8  2  0
 10 11  1  0
 12 11  1  0
 13 14  1  0
 13 12  1  0
 14 10  1  0
 15 17  1  0
 14 15  1  1
 16 15  2  0
 18 17  1  0
 18 21  1  0
 18 19  1  1
 20 19  1  0
 21 22  1  0
 23 21  2  0
M  END
$$$$
