KPC.pdb
     RDKit          3D

 23 23  0  0  1  0  0  0  0  0999 V2000
    7.6282  -13.9206   21.0365 N   0  0  0  0  0  0  0  0  0  0  0  0
    7.0052  -14.1730   22.3648 C   0  0  1  0  0  0  0  0  0  0  0  0
    6.5496  -15.5748   22.3374 C   0  0  0  0  0  0  0  0  0  0  0  0
    7.4625  -16.6958   22.1068 C   0  0  0  0  0  0  0  0  0  0  0  0
    7.0514  -18.0984   22.1511 C   0  0  0  0  0  0  0  0  0  0  0  0
    8.0745  -19.1249   21.8397 C   0  0  0  0  0  0  0  0  0  0  0  0
    7.4532  -20.4852   21.9708 N   0  0  0  0  0  0  0  0  0  0  0  0
    8.0328  -13.9060   23.3737 C   0  0  0  0  0  0  0  0  0  0  0  0
    9.2478  -13.9534   22.9884 O   0  0  0  0  0  0  0  0  0  0  0  0
    7.7562  -13.6049   24.7264 N   0  0  0  0  0  0  0  0  0  0  0  0
    6.4899  -13.5078   25.3621 C   0  0  0  0  0  0  0  0  0  0  0  0
    6.7743  -12.8387   26.7030 C   0  0  0  0  0  0  0  0  0  0  0  0
    8.1709  -12.2472   26.5271 C   0  0  0  0  0  0  0  0  0  0  0  0
    8.7801  -13.3695   25.7102 C   0  0  1  0  0  0  0  0  0  0  0  0
    8.9212  -14.6071   26.5199 C   0  0  0  0  0  0  0  0  0  0  0  0
    7.9479  -15.3611   26.7205 O   0  0  0  0  0  0  0  0  0  0  0  0
   10.1797  -14.9548   27.0840 N   0  0  0  0  0  0  0  0  0  0  0  0
   10.5104  -16.2670   27.5730 C   0  0  1  0  0  0  0  0  0  0  0  0
   11.9061  -16.6273   27.1540 C   0  0  0  0  0  0  0  0  0  0  0  0
   12.3822  -18.1567   27.9772 S   0  0  0  0  0  0  0  0  0  0  0  0
   10.3656  -16.3554   29.0455 C   0  0  0  0  0  0  0  0  0  0  0  0
   10.1588  -17.5797   29.6430 O   0  0  0  0  0  0  0  0  0  0  0  0
   10.4325  -15.3108   29.7408 O   0  0  0  0  0  0  0  0  0  0  0  0
  2  1  1  6
  3  2  1  0
  4  3  1  0
  5  6  1  0
  5  4  1  0
  7  6  1  0
  8 10  1  0
  8  2  1  0
  9  8  2  0
 10 11  1  0
 12 11  1  0
 13 14  1  0
 13 12  1  0
 14 10  1  0
 15 17  1  0
 14 15  1  1
 16 15  2  0
 18 17  1  0
 18 21  1  0
 18 19  1  1
 20 19  1  0
 21 22  1  0
 23 21  2  0
M  END
$$$$
