KPC.pdb
     RDKit          3D

 23 23  0  0  1  0  0  0  0  0999 V2000
    9.5554  -12.8575   20.1869 N   0  0  0  0  0  0  0  0  0  0  0  0
    8.3868  -13.1097   21.0741 C   0  0  1  0  0  0  0  0  0  0  0  0
    7.5167  -14.0460   20.3396 C   0  0  0  0  0  0  0  0  0  0  0  0
    7.2686  -13.9282   18.9017 C   0  0  0  0  0  0  0  0  0  0  0  0
    7.8418  -14.8301   17.9035 C   0  0  0  0  0  0  0  0  0  0  0  0
    7.4611  -14.6187   16.4866 C   0  0  0  0  0  0  0  0  0  0  0  0
    8.0683  -15.7094   15.6527 N   0  0  0  0  0  0  0  0  0  0  0  0
    8.9144  -13.6537   22.3274 C   0  0  0  0  0  0  0  0  0  0  0  0
   10.1423  -13.9990   22.3365 O   0  0  0  0  0  0  0  0  0  0  0  0
    8.1506  -13.8147   23.5054 N   0  0  0  0  0  0  0  0  0  0  0  0
    6.7392  -13.7529   23.6507 C   0  0  0  0  0  0  0  0  0  0  0  0
    6.5034  -13.6588   25.1548 C   0  0  0  0  0  0  0  0  0  0  0  0
    7.8697  -13.2704   25.7150 C   0  0  0  0  0  0  0  0  0  0  0  0
    8.7294  -14.1089   24.7900 C   0  0  1  0  0  0  0  0  0  0  0  0
    8.5397  -15.5594   25.0490 C   0  0  0  0  0  0  0  0  0  0  0  0
    7.4988  -16.1474   24.6930 O   0  0  0  0  0  0  0  0  0  0  0  0
    9.5512  -16.3070   25.7130 N   0  0  0  0  0  0  0  0  0  0  0  0
    9.6859  -17.7370   25.6271 C   0  0  1  0  0  0  0  0  0  0  0  0
   10.9835  -18.0846   24.9572 C   0  0  0  0  0  0  0  0  0  0  0  0
   12.2835  -17.0366   25.6317 S   0  0  0  0  0  0  0  0  0  0  0  0
    9.5965  -18.3768   26.9612 C   0  0  0  0  0  0  0  0  0  0  0  0
    9.5766  -19.7508   27.0640 O   0  0  0  0  0  0  0  0  0  0  0  0
    9.5392  -17.6604   27.9919 O   0  0  0  0  0  0  0  0  0  0  0  0
  2  1  1  6
  3  2  1  0
  4  3  1  0
  5  6  1  0
  5  4  1  0
  7  6  1  0
  8 10  1  0
  8  2  1  0
  9  8  2  0
 10 11  1  0
 12 11  1  0
 13 14  1  0
 13 12  1  0
 14 10  1  0
 15 17  1  0
 14 15  1  1
 16 15  2  0
 18 17  1  0
 18 21  1  0
 18 19  1  1
 20 19  1  0
 21 22  1  0
 23 21  2  0
M  END
$$$$
