KPC.pdb
     RDKit          3D

 23 23  0  0  1  0  0  0  0  0999 V2000
    8.2896  -13.0519   20.6182 N   0  0  0  0  0  0  0  0  0  0  0  0
    7.3392  -13.2151   21.7523 C   0  0  1  0  0  0  0  0  0  0  0  0
    6.5360  -14.4105   21.4375 C   0  0  0  0  0  0  0  0  0  0  0  0
    7.1201  -15.6231   20.8616 C   0  0  0  0  0  0  0  0  0  0  0  0
    7.1209  -16.9212   21.5347 C   0  0  0  0  0  0  0  0  0  0  0  0
    7.7018  -18.0736   20.8053 C   0  0  0  0  0  0  0  0  0  0  0  0
    7.6128  -19.2938   21.6753 N   0  0  0  0  0  0  0  0  0  0  0  0
    8.1464  -13.3494   22.9670 C   0  0  0  0  0  0  0  0  0  0  0  0
    9.3877  -13.5985   22.8120 O   0  0  0  0  0  0  0  0  0  0  0  0
    7.6337  -13.2211   24.2777 N   0  0  0  0  0  0  0  0  0  0  0  0
    6.2961  -12.9548   24.6740 C   0  0  0  0  0  0  0  0  0  0  0  0
    6.3897  -12.5934   26.1530 C   0  0  0  0  0  0  0  0  0  0  0  0
    7.8735  -12.3012   26.3643 C   0  0  0  0  0  0  0  0  0  0  0  0
    8.4374  -13.3801   25.4611 C   0  0  1  0  0  0  0  0  0  0  0  0
    8.1693  -14.7342   26.0103 C   0  0  0  0  0  0  0  0  0  0  0  0
    7.3397  -15.4954   25.4731 O   0  0  0  0  0  0  0  0  0  0  0  0
    8.8603  -15.1879   27.1676 N   0  0  0  0  0  0  0  0  0  0  0  0
    9.8580  -16.2247   27.1575 C   0  0  1  0  0  0  0  0  0  0  0  0
   10.9254  -15.8914   26.1559 C   0  0  0  0  0  0  0  0  0  0  0  0
   12.1605  -17.2019   26.1668 S   0  0  0  0  0  0  0  0  0  0  0  0
   10.4468  -16.4315   28.5020 C   0  0  0  0  0  0  0  0  0  0  0  0
   10.5046  -17.6992   29.0389 O   0  0  0  0  0  0  0  0  0  0  0  0
   10.8904  -15.4470   29.1448 O   0  0  0  0  0  0  0  0  0  0  0  0
  2  1  1  6
  3  2  1  0
  4  3  1  0
  5  6  1  0
  5  4  1  0
  7  6  1  0
  8 10  1  0
  8  2  1  0
  9  8  2  0
 10 11  1  0
 12 11  1  0
 13 14  1  0
 13 12  1  0
 14 10  1  0
 15 17  1  0
 14 15  1  1
 16 15  2  0
 18 17  1  0
 18 21  1  0
 18 19  1  6
 20 19  1  0
 21 22  1  0
 23 21  2  0
M  END
$$$$
