KPC.pdb
     RDKit          3D

 23 23  0  0  1  0  0  0  0  0999 V2000
    9.1924  -16.8609   16.2464 N   0  0  0  0  0  0  0  0  0  0  0  0
    8.1978  -16.2926   17.1972 C   0  0  1  0  0  0  0  0  0  0  0  0
    7.2629  -17.3895   17.5072 C   0  0  0  0  0  0  0  0  0  0  0  0
    7.7138  -18.6987   17.9824 C   0  0  0  0  0  0  0  0  0  0  0  0
    6.8135  -19.8216   18.2408 C   0  0  0  0  0  0  0  0  0  0  0  0
    7.4002  -21.0547   18.8175 C   0  0  0  0  0  0  0  0  0  0  0  0
    6.2924  -22.0166   19.1360 N   0  0  0  0  0  0  0  0  0  0  0  0
    8.9480  -15.8104   18.3590 C   0  0  0  0  0  0  0  0  0  0  0  0
   10.1862  -16.1118   18.4137 O   0  0  0  0  0  0  0  0  0  0  0  0
    8.3845  -15.0439   19.4040 N   0  0  0  0  0  0  0  0  0  0  0  0
    7.0105  -14.8165   19.6823 C   0  0  0  0  0  0  0  0  0  0  0  0
    6.9984  -13.6698   20.6881 C   0  0  0  0  0  0  0  0  0  0  0  0
    8.4021  -13.0778   20.5838 C   0  0  0  0  0  0  0  0  0  0  0  0
    9.1704  -14.3724   20.4056 C   0  0  1  0  0  0  0  0  0  0  0  0
    9.1271  -15.1966   21.6409 C   0  0  0  0  0  0  0  0  0  0  0  0
    8.1356  -15.9044   21.9095 O   0  0  0  0  0  0  0  0  0  0  0  0
   10.2253  -15.1915   22.5446 N   0  0  0  0  0  0  0  0  0  0  0  0
   10.3722  -16.1107   23.6418 C   0  0  1  0  0  0  0  0  0  0  0  0
   11.7959  -16.1085   24.1179 C   0  0  0  0  0  0  0  0  0  0  0  0
   12.8543  -16.6958   22.7844 S   0  0  0  0  0  0  0  0  0  0  0  0
    9.4468  -15.7886   24.7540 C   0  0  0  0  0  0  0  0  0  0  0  0
    9.2690  -16.6888   25.7820 O   0  0  0  0  0  0  0  0  0  0  0  0
    8.8292  -14.6943   24.7520 O   0  0  0  0  0  0  0  0  0  0  0  0
  2  1  1  6
  3  2  1  0
  4  3  1  0
  5  6  1  0
  5  4  1  0
  7  6  1  0
  8 10  1  0
  8  2  1  0
  9  8  2  0
 10 11  1  0
 12 11  1  0
 13 14  1  0
 13 12  1  0
 14 10  1  0
 15 17  1  0
 14 15  1  1
 16 15  2  0
 18 17  1  0
 18 21  1  0
 18 19  1  1
 20 19  1  0
 21 22  1  0
 23 21  2  0
M  END
$$$$
