KPC.pdb
     RDKit          3D

 23 23  0  0  1  0  0  0  0  0999 V2000
    8.0931  -18.3632   18.3208 N   0  0  0  0  0  0  0  0  0  0  0  0
    7.2701  -17.3218   18.9949 C   0  0  1  0  0  0  0  0  0  0  0  0
    6.3271  -18.0511   19.8622 C   0  0  0  0  0  0  0  0  0  0  0  0
    6.7496  -19.1383   20.7469 C   0  0  0  0  0  0  0  0  0  0  0  0
    5.8311  -19.8971   21.5947 C   0  0  0  0  0  0  0  0  0  0  0  0
    6.4169  -20.8885   22.5281 C   0  0  0  0  0  0  0  0  0  0  0  0
    5.3061  -21.5652   23.2778 N   0  0  0  0  0  0  0  0  0  0  0  0
    8.1970  -16.4561   19.7274 C   0  0  0  0  0  0  0  0  0  0  0  0
    9.3673  -16.9143   19.9446 O   0  0  0  0  0  0  0  0  0  0  0  0
    7.8705  -15.1644   20.1987 N   0  0  0  0  0  0  0  0  0  0  0  0
    6.6250  -14.4877   20.1111 C   0  0  0  0  0  0  0  0  0  0  0  0
    6.9402  -13.0381   20.4659 C   0  0  0  0  0  0  0  0  0  0  0  0
    8.4593  -12.9527   20.3371 C   0  0  0  0  0  0  0  0  0  0  0  0
    8.8014  -14.3185   20.8985 C   0  0  1  0  0  0  0  0  0  0  0  0
    8.4829  -14.3985   22.3473 C   0  0  0  0  0  0  0  0  0  0  0  0
    7.3655  -14.0540   22.7820 O   0  0  0  0  0  0  0  0  0  0  0  0
    9.4557  -14.8735   23.2698 N   0  0  0  0  0  0  0  0  0  0  0  0
    9.1435  -15.6221   24.4583 C   0  0  1  0  0  0  0  0  0  0  0  0
    8.3202  -16.8247   24.0984 C   0  0  0  0  0  0  0  0  0  0  0  0
    7.1857  -17.1771   25.4518 S   0  0  0  0  0  0  0  0  0  0  0  0
   10.3683  -16.0248   25.1896 C   0  0  0  0  0  0  0  0  0  0  0  0
   10.3605  -16.0762   26.5665 O   0  0  0  0  0  0  0  0  0  0  0  0
   11.4081  -16.3174   24.5475 O   0  0  0  0  0  0  0  0  0  0  0  0
  2  1  1  1
  3  2  1  0
  4  3  1  0
  5  6  1  0
  5  4  1  0
  7  6  1  0
  8 10  1  0
  8  2  1  0
  9  8  2  0
 10 11  1  0
 12 11  1  0
 13 14  1  0
 13 12  1  0
 14 10  1  0
 15 17  1  0
 14 15  1  1
 16 15  2  0
 18 17  1  0
 18 21  1  0
 18 19  1  6
 20 19  1  0
 21 22  1  0
 23 21  2  0
M  END
$$$$
