KPC.pdb
     RDKit          3D

 23 23  0  0  1  0  0  0  0  0999 V2000
    8.9223  -18.0388   17.1358 N   0  0  0  0  0  0  0  0  0  0  0  0
    7.9567  -17.3669   18.0481 C   0  0  1  0  0  0  0  0  0  0  0  0
    7.1557  -18.4460   18.6541 C   0  0  0  0  0  0  0  0  0  0  0  0
    5.7881  -18.7471   18.2272 C   0  0  0  0  0  0  0  0  0  0  0  0
    5.4587  -19.7270   17.1930 C   0  0  0  0  0  0  0  0  0  0  0  0
    4.0305  -19.8918   16.8318 C   0  0  0  0  0  0  0  0  0  0  0  0
    3.9301  -20.8298   15.6639 N   0  0  0  0  0  0  0  0  0  0  0  0
    8.7474  -16.6038   19.0164 C   0  0  0  0  0  0  0  0  0  0  0  0
    9.9382  -17.0054   19.2353 O   0  0  0  0  0  0  0  0  0  0  0  0
    8.2711  -15.4680   19.7092 N   0  0  0  0  0  0  0  0  0  0  0  0
    6.9524  -14.9409   19.7274 C   0  0  0  0  0  0  0  0  0  0  0  0
    7.0932  -13.5528   20.3439 C   0  0  0  0  0  0  0  0  0  0  0  0
    8.5899  -13.2639   20.2552 C   0  0  0  0  0  0  0  0  0  0  0  0
    9.0983  -14.6581   20.5645 C   0  0  1  0  0  0  0  0  0  0  0  0
    8.8023  -15.0377   21.9700 C   0  0  0  0  0  0  0  0  0  0  0  0
    7.6630  -15.4154   22.3098 O   0  0  0  0  0  0  0  0  0  0  0  0
    9.8225  -14.9760   22.9590 N   0  0  0  0  0  0  0  0  0  0  0  0
   10.2806  -16.1092   23.7181 C   0  0  1  0  0  0  0  0  0  0  0  0
   10.6988  -17.2086   22.7855 C   0  0  0  0  0  0  0  0  0  0  0  0
   11.3363  -18.5835   23.7585 S   0  0  0  0  0  0  0  0  0  0  0  0
   11.3907  -15.7449   24.6304 C   0  0  0  0  0  0  0  0  0  0  0  0
   12.5573  -15.2208   24.1176 O   0  0  0  0  0  0  0  0  0  0  0  0
   11.2602  -15.9168   25.8684 O   0  0  0  0  0  0  0  0  0  0  0  0
  2  1  1  6
  3  2  1  0
  4  3  1  0
  5  6  1  0
  5  4  1  0
  7  6  1  0
  8 10  1  0
  8  2  1  0
  9  8  2  0
 10 11  1  0
 12 11  1  0
 13 14  1  0
 13 12  1  0
 14 10  1  0
 15 17  1  0
 14 15  1  1
 16 15  2  0
 18 17  1  0
 18 21  1  0
 18 19  1  6
 20 19  1  0
 21 22  1  0
 23 21  2  0
M  END
$$$$
