KPC.pdb
     RDKit          3D

 23 23  0  0  1  0  0  0  0  0999 V2000
   -0.9764  -25.5295   27.5092 N   0  0  0  0  0  0  0  0  0  0  0  0
   -2.1542  -26.2800   28.0247 C   0  0  1  0  0  0  0  0  0  0  0  0
   -1.8652  -26.5607   29.4428 C   0  0  0  0  0  0  0  0  0  0  0  0
   -0.6929  -27.3253   29.8718 C   0  0  0  0  0  0  0  0  0  0  0  0
    0.5724  -26.7122   30.2736 C   0  0  0  0  0  0  0  0  0  0  0  0
    1.6093  -27.5954   30.8584 C   0  0  0  0  0  0  0  0  0  0  0  0
    2.8654  -26.7994   31.0643 N   0  0  0  0  0  0  0  0  0  0  0  0
   -3.3258  -25.4255   27.8190 C   0  0  0  0  0  0  0  0  0  0  0  0
   -3.1120  -24.1768   27.6703 O   0  0  0  0  0  0  0  0  0  0  0  0
   -4.6560  -25.9007   27.7777 N   0  0  0  0  0  0  0  0  0  0  0  0
   -5.1168  -27.2335   27.9456 C   0  0  0  0  0  0  0  0  0  0  0  0
   -6.5664  -27.2102   27.4714 C   0  0  0  0  0  0  0  0  0  0  0  0
   -6.6730  -25.9043   26.6872 C   0  0  0  0  0  0  0  0  0  0  0  0
   -5.7961  -25.0454   27.5766 C   0  0  1  0  0  0  0  0  0  0  0  0
   -6.4311  -24.8209   28.9008 C   0  0  0  0  0  0  0  0  0  0  0  0
   -6.4260  -25.7084   29.7773 O   0  0  0  0  0  0  0  0  0  0  0  0
   -7.0606  -23.5793   29.1924 N   0  0  0  0  0  0  0  0  0  0  0  0
   -7.5725  -23.2183   30.4877 C   0  0  1  0  0  0  0  0  0  0  0  0
   -7.0980  -21.8422   30.8549 C   0  0  0  0  0  0  0  0  0  0  0  0
   -7.6566  -20.6811   29.5967 S   0  0  0  0  0  0  0  0  0  0  0  0
   -9.0523  -23.2919   30.5320 C   0  0  0  0  0  0  0  0  0  0  0  0
   -9.7627  -23.5363   29.3769 O   0  0  0  0  0  0  0  0  0  0  0  0
   -9.6505  -23.1305   31.6253 O   0  0  0  0  0  0  0  0  0  0  0  0
  2  1  1  1
  3  2  1  0
  4  3  1  0
  5  6  1  0
  5  4  1  0
  7  6  1  0
  8 10  1  0
  8  2  1  0
  9  8  2  0
 10 11  1  0
 12 11  1  0
 13 14  1  0
 13 12  1  0
 14 10  1  0
 15 17  1  0
 14 15  1  1
 16 15  2  0
 18 17  1  0
 18 21  1  0
 18 19  1  6
 20 19  1  0
 21 22  1  0
 23 21  2  0
M  END
$$$$
