KPC.pdb
     RDKit          3D

 23 23  0  0  1  0  0  0  0  0999 V2000
    9.1004  -15.6336   15.1209 N   0  0  0  0  0  0  0  0  0  0  0  0
    8.2473  -15.1381   16.2358 C   0  0  1  0  0  0  0  0  0  0  0  0
    7.2899  -16.2215   16.5240 C   0  0  0  0  0  0  0  0  0  0  0  0
    7.3589  -17.5291   15.8693 C   0  0  0  0  0  0  0  0  0  0  0  0
    8.1316  -18.6563   16.3893 C   0  0  0  0  0  0  0  0  0  0  0  0
    8.0517  -19.9417   15.6553 C   0  0  0  0  0  0  0  0  0  0  0  0
    8.9962  -20.9220   16.2883 N   0  0  0  0  0  0  0  0  0  0  0  0
    9.1438  -14.8301   17.3522 C   0  0  0  0  0  0  0  0  0  0  0  0
   10.3826  -15.0846   17.1864 O   0  0  0  0  0  0  0  0  0  0  0  0
    8.7183  -14.2770   18.5811 N   0  0  0  0  0  0  0  0  0  0  0  0
    7.3901  -14.0270   19.0173 C   0  0  0  0  0  0  0  0  0  0  0  0
    7.5415  -13.1313   20.2426 C   0  0  0  0  0  0  0  0  0  0  0  0
    8.9787  -12.6241   20.1488 C   0  0  0  0  0  0  0  0  0  0  0  0
    9.6237  -13.8951   19.6329 C   0  0  1  0  0  0  0  0  0  0  0  0
    9.5976  -14.9662   20.6620 C   0  0  0  0  0  0  0  0  0  0  0  0
    8.5712  -15.6478   20.8577 O   0  0  0  0  0  0  0  0  0  0  0  0
   10.7527  -15.2337   21.4475 N   0  0  0  0  0  0  0  0  0  0  0  0
   10.8891  -16.3676   22.3226 C   0  0  1  0  0  0  0  0  0  0  0  0
   12.2175  -17.0282   22.0932 C   0  0  0  0  0  0  0  0  0  0  0  0
   12.4076  -17.3523   20.3320 S   0  0  0  0  0  0  0  0  0  0  0  0
   10.7334  -15.9833   23.7457 C   0  0  0  0  0  0  0  0  0  0  0  0
   10.7712  -16.9504   24.7264 O   0  0  0  0  0  0  0  0  0  0  0  0
   10.5676  -14.7751   24.0490 O   0  0  0  0  0  0  0  0  0  0  0  0
  2  1  1  6
  3  2  1  0
  4  3  1  0
  5  6  1  0
  5  4  1  0
  7  6  1  0
  8 10  1  0
  8  2  1  0
  9  8  2  0
 10 11  1  0
 12 11  1  0
 13 14  1  0
 13 12  1  0
 14 10  1  0
 15 17  1  0
 14 15  1  1
 16 15  2  0
 18 17  1  0
 18 21  1  0
 18 19  1  1
 20 19  1  0
 21 22  1  0
 23 21  2  0
M  END
$$$$
