KPC.pdb
     RDKit          3D

 23 23  0  0  1  0  0  0  0  0999 V2000
    6.9991  -18.0520   17.7768 N   0  0  0  0  0  0  0  0  0  0  0  0
    6.5362  -17.0185   18.7431 C   0  0  1  0  0  0  0  0  0  0  0  0
    5.6429  -17.7173   19.6849 C   0  0  0  0  0  0  0  0  0  0  0  0
    6.0957  -18.8288   20.5232 C   0  0  0  0  0  0  0  0  0  0  0  0
    5.2562  -19.4818   21.5267 C   0  0  0  0  0  0  0  0  0  0  0  0
    5.8850  -20.5174   22.3808 C   0  0  0  0  0  0  0  0  0  0  0  0
    4.8581  -21.0444   23.3407 N   0  0  0  0  0  0  0  0  0  0  0  0
    7.7343  -16.4576   19.3717 C   0  0  0  0  0  0  0  0  0  0  0  0
    8.8341  -17.0718   19.1712 O   0  0  0  0  0  0  0  0  0  0  0  0
    7.7376  -15.2945   20.1744 N   0  0  0  0  0  0  0  0  0  0  0  0
    6.6238  -14.5414   20.6319 C   0  0  0  0  0  0  0  0  0  0  0  0
    7.2192  -13.2370   21.1521 C   0  0  0  0  0  0  0  0  0  0  0  0
    8.6269  -13.2167   20.5608 C   0  0  0  0  0  0  0  0  0  0  0  0
    8.9387  -14.6942   20.6930 C   0  0  1  0  0  0  0  0  0  0  0  0
    9.0623  -15.0912   22.1192 C   0  0  0  0  0  0  0  0  0  0  0  0
    8.1087  -14.9545   22.9117 O   0  0  0  0  0  0  0  0  0  0  0  0
   10.2809  -15.6383   22.6077 N   0  0  0  0  0  0  0  0  0  0  0  0
   10.4224  -16.2779   23.8888 C   0  0  1  0  0  0  0  0  0  0  0  0
   10.3427  -17.7678   23.7232 C   0  0  0  0  0  0  0  0  0  0  0  0
   10.5691  -18.5432   25.3328 S   0  0  0  0  0  0  0  0  0  0  0  0
   11.6877  -15.8915   24.5573 C   0  0  0  0  0  0  0  0  0  0  0  0
   12.6480  -15.1927   23.8586 O   0  0  0  0  0  0  0  0  0  0  0  0
   11.8766  -16.2046   25.7595 O   0  0  0  0  0  0  0  0  0  0  0  0
  2  1  1  6
  3  2  1  0
  4  3  1  0
  5  6  1  0
  5  4  1  0
  7  6  1  0
  8 10  1  0
  8  2  1  0
  9  8  2  0
 10 11  1  0
 12 11  1  0
 13 14  1  0
 13 12  1  0
 14 10  1  0
 15 17  1  0
 14 15  1  1
 16 15  2  0
 18 17  1  0
 18 21  1  0
 18 19  1  6
 20 19  1  0
 21 22  1  0
 23 21  2  0
M  END
$$$$
