IKL.pdb
     RDKit          3D

 26 25  0  0  1  0  0  0  0  0999 V2000
   27.3753  -20.1648   -5.6530 C   0  0  0  0  0  0  0  0  0  0  0  0
   26.0547  -20.0957   -6.4262 C   0  0  0  0  0  0  0  0  0  0  0  0
   26.4090  -20.2261   -7.8890 C   0  0  2  0  0  0  0  0  0  0  0  0
   27.5154  -19.2623   -8.1801 C   0  0  0  0  0  0  0  0  0  0  0  0
   25.2312  -20.1210   -8.8030 C   0  0  2  0  0  0  0  0  0  0  0  0
   24.2544  -21.0977   -8.4291 N   0  0  0  0  0  0  0  0  0  0  0  0
   25.6096  -20.2419  -10.2378 C   0  0  0  0  0  0  0  0  0  0  0  0
   26.4521  -19.4954  -10.7758 O   0  0  0  0  0  0  0  0  0  0  0  0
   24.9773  -21.2480  -11.0003 N   0  0  0  0  0  0  0  0  0  0  0  0
   25.0489  -21.4696  -12.4007 C   0  0  1  0  0  0  0  0  0  0  0  0
   24.7011  -22.9000  -12.8361 C   0  0  0  0  0  0  0  0  0  0  0  0
   24.9912  -23.1850  -14.2657 C   0  0  0  0  0  0  0  0  0  0  0  0
   24.6993  -24.6235  -14.6651 C   0  0  0  0  0  0  0  0  0  0  0  0
   25.1321  -24.9505  -16.0578 C   0  0  0  0  0  0  0  0  0  0  0  0
   24.7896  -26.3352  -16.3488 N   0  0  0  0  0  0  0  0  0  0  0  0
   24.4656  -20.4431  -13.2555 C   0  0  0  0  0  0  0  0  0  0  0  0
   23.5107  -19.6811  -12.8656 O   0  0  0  0  0  0  0  0  0  0  0  0
   27.6310  -16.8075  -16.0739 C   0  0  0  0  0  0  0  0  0  0  0  0
   26.5232  -16.8011  -15.0150 C   0  0  1  0  0  0  0  0  0  0  0  0
   25.2583  -16.2405  -15.6185 C   0  0  0  0  0  0  0  0  0  0  0  0
   26.3087  -18.2010  -14.4793 C   0  0  0  0  0  0  0  0  0  0  0  0
   25.1295  -18.8745  -15.1113 C   0  0  2  0  0  0  0  0  0  0  0  0
   24.9120  -20.2187  -14.5672 N   0  0  0  0  0  0  0  0  0  0  0  0
   25.2613  -18.9583  -16.5895 C   0  0  0  0  0  0  0  0  0  0  0  0
   24.8935  -17.9882  -17.2875 O   0  0  0  0  0  0  0  0  0  0  0  0
   25.7759  -20.0719  -17.2101 O   0  0  0  0  0  0  0  0  0  0  0  0
  2  1  1  0
  3  2  1  0
  3  4  1  6
  5  3  1  0
  5  6  1  1
  7  5  1  0
  7  8  2  0
  9  7  1  0
 10  9  1  0
 10 11  1  1
 12 11  1  0
 13 12  1  0
 13 14  1  0
 15 14  1  0
 16 23  1  0
 16 10  1  0
 17 16  2  0
 19 21  1  0
 19 18  1  6
 20 19  1  0
 22 21  1  1
 22 23  1  0
 22 24  1  0
 24 25  2  0
 24 26  1  0
M  END
$$$$
