IKL.pdb
     RDKit          3D

 26 25  0  0  1  0  0  0  0  0999 V2000
   29.9311  -22.8485  -16.8489 C   0  0  0  0  0  0  0  0  0  0  0  0
   29.2318  -21.7293  -17.6267 C   0  0  0  0  0  0  0  0  0  0  0  0
   28.1596  -21.1809  -16.7147 C   0  0  2  0  0  0  0  0  0  0  0  0
   27.3308  -22.3316  -16.2384 C   0  0  0  0  0  0  0  0  0  0  0  0
   27.3808  -20.0548  -17.3141 C   0  0  2  0  0  0  0  0  0  0  0  0
   28.2769  -18.9973  -17.6697 N   0  0  0  0  0  0  0  0  0  0  0  0
   26.2906  -19.5757  -16.4206 C   0  0  0  0  0  0  0  0  0  0  0  0
   26.4985  -18.8106  -15.4573 O   0  0  0  0  0  0  0  0  0  0  0  0
   24.9776  -20.0176  -16.6929 N   0  0  0  0  0  0  0  0  0  0  0  0
   23.7858  -19.7385  -15.9739 C   0  0  1  0  0  0  0  0  0  0  0  0
   22.5629  -19.4541  -16.8570 C   0  0  0  0  0  0  0  0  0  0  0  0
   21.3236  -19.1497  -16.0950 C   0  0  0  0  0  0  0  0  0  0  0  0
   21.1172  -17.6629  -15.8481 C   0  0  0  0  0  0  0  0  0  0  0  0
   19.9536  -17.3666  -14.9581 C   0  0  0  0  0  0  0  0  0  0  0  0
   19.7568  -15.9254  -14.8978 N   0  0  0  0  0  0  0  0  0  0  0  0
   23.4932  -20.5991  -14.8345 C   0  0  0  0  0  0  0  0  0  0  0  0
   23.4379  -21.8766  -14.9308 O   0  0  0  0  0  0  0  0  0  0  0  0
   25.4182  -19.6759   -9.7536 C   0  0  0  0  0  0  0  0  0  0  0  0
   24.9546  -20.3166  -11.0662 C   0  0  1  0  0  0  0  0  0  0  0  0
   25.5498  -21.6987  -11.1852 C   0  0  0  0  0  0  0  0  0  0  0  0
   23.4419  -20.3583  -11.1178 C   0  0  0  0  0  0  0  0  0  0  0  0
   22.9350  -20.9396  -12.4018 C   0  0  2  0  0  0  0  0  0  0  0  0
   23.2521  -20.0854  -13.5507 N   0  0  0  0  0  0  0  0  0  0  0  0
   21.4697  -21.1859  -12.3623 C   0  0  0  0  0  0  0  0  0  0  0  0
   20.6929  -20.2903  -12.7596 O   0  0  0  0  0  0  0  0  0  0  0  0
   20.9453  -22.3702  -11.9014 O   0  0  0  0  0  0  0  0  0  0  0  0
  2  1  1  0
  3  2  1  0
  3  4  1  6
  5  3  1  0
  5  6  1  1
  7  5  1  0
  7  8  2  0
  9  7  1  0
 10  9  1  0
 10 11  1  6
 12 11  1  0
 13 12  1  0
 13 14  1  0
 15 14  1  0
 16 23  1  0
 16 10  1  0
 17 16  2  0
 19 21  1  0
 19 18  1  1
 20 19  1  0
 22 21  1  1
 22 23  1  0
 22 24  1  0
 24 25  2  0
 24 26  1  0
M  END
$$$$
