IKL.pdb
     RDKit          3D

 26 25  0  0  1  0  0  0  0  0999 V2000
   20.8212  -31.2596  -12.4143 C   0  0  0  0  0  0  0  0  0  0  0  0
   21.4158  -29.9222  -11.9622 C   0  0  0  0  0  0  0  0  0  0  0  0
   20.3223  -28.8924  -12.1237 C   0  0  2  0  0  0  0  0  0  0  0  0
   19.7785  -29.0154  -13.5118 C   0  0  0  0  0  0  0  0  0  0  0  0
   20.7378  -27.5105  -11.7348 C   0  0  2  0  0  0  0  0  0  0  0  0
   21.3451  -27.5466  -10.4395 N   0  0  0  0  0  0  0  0  0  0  0  0
   19.6105  -26.5394  -11.7876 C   0  0  0  0  0  0  0  0  0  0  0  0
   18.9398  -26.3439  -12.8213 O   0  0  0  0  0  0  0  0  0  0  0  0
   19.3066  -25.8227  -10.6097 N   0  0  0  0  0  0  0  0  0  0  0  0
   18.2801  -24.8647  -10.4000 C   0  0  1  0  0  0  0  0  0  0  0  0
   18.0519  -24.4898   -8.9291 C   0  0  0  0  0  0  0  0  0  0  0  0
   17.8403  -25.6565   -8.0328 C   0  0  0  0  0  0  0  0  0  0  0  0
   17.5136  -25.2646   -6.5997 C   0  0  0  0  0  0  0  0  0  0  0  0
   17.2356  -26.4363   -5.7144 C   0  0  0  0  0  0  0  0  0  0  0  0
   16.9670  -25.9592   -4.3655 N   0  0  0  0  0  0  0  0  0  0  0  0
   18.2603  -23.7200  -11.3021 C   0  0  0  0  0  0  0  0  0  0  0  0
   19.3272  -23.2269  -11.8149 O   0  0  0  0  0  0  0  0  0  0  0  0
   18.4655  -21.9228  -15.9633 C   0  0  0  0  0  0  0  0  0  0  0  0
   17.0904  -22.2866  -15.3932 C   0  0  1  0  0  0  0  0  0  0  0  0
   16.3043  -23.0488  -16.4321 C   0  0  0  0  0  0  0  0  0  0  0  0
   17.2522  -23.0908  -14.1204 C   0  0  0  0  0  0  0  0  0  0  0  0
   16.9424  -22.2834  -12.8974 C   0  0  2  0  0  0  0  0  0  0  0  0
   17.0677  -23.0788  -11.6719 N   0  0  0  0  0  0  0  0  0  0  0  0
   15.5846  -21.6815  -12.9558 C   0  0  0  0  0  0  0  0  0  0  0  0
   14.6146  -22.3269  -12.5018 O   0  0  0  0  0  0  0  0  0  0  0  0
   15.3657  -20.4358  -13.4946 O   0  0  0  0  0  0  0  0  0  0  0  0
  2  1  1  0
  3  2  1  0
  3  4  1  6
  5  3  1  0
  5  6  1  1
  7  5  1  0
  7  8  2  0
  9  7  1  0
 10  9  1  0
 10 11  1  1
 12 11  1  0
 13 12  1  0
 13 14  1  0
 15 14  1  0
 16 23  1  0
 16 10  1  0
 17 16  2  0
 19 21  1  0
 19 18  1  6
 20 19  1  0
 22 21  1  6
 22 23  1  0
 22 24  1  0
 24 25  2  0
 24 26  1  0
M  END
$$$$
