IKL.pdb
     RDKit          3D

 26 25  0  0  1  0  0  0  0  0999 V2000
   16.7094  -12.9714  -18.1457 C   0  0  0  0  0  0  0  0  0  0  0  0
   17.6289  -12.7897  -16.9341 C   0  0  0  0  0  0  0  0  0  0  0  0
   17.4988  -11.3450  -16.5121 C   0  0  2  0  0  0  0  0  0  0  0  0
   17.8295  -10.4908  -17.6949 C   0  0  0  0  0  0  0  0  0  0  0  0
   18.2583  -11.0127  -15.2686 C   0  0  2  0  0  0  0  0  0  0  0  0
   17.9162  -11.9489  -14.2417 N   0  0  0  0  0  0  0  0  0  0  0  0
   18.0429   -9.6075  -14.8266 C   0  0  0  0  0  0  0  0  0  0  0  0
   18.0960   -8.6401  -15.6127 O   0  0  0  0  0  0  0  0  0  0  0  0
   17.7694   -9.3845  -13.4595 N   0  0  0  0  0  0  0  0  0  0  0  0
   17.5005   -8.1550  -12.8027 C   0  0  1  0  0  0  0  0  0  0  0  0
   16.7623   -8.2979  -11.4644 C   0  0  0  0  0  0  0  0  0  0  0  0
   16.3266   -7.0060  -10.8724 C   0  0  0  0  0  0  0  0  0  0  0  0
   15.4762   -7.1719   -9.6220 C   0  0  0  0  0  0  0  0  0  0  0  0
   14.9633   -5.8773   -9.0791 C   0  0  0  0  0  0  0  0  0  0  0  0
   14.1252   -6.1473   -7.9198 N   0  0  0  0  0  0  0  0  0  0  0  0
   18.5850   -7.1818  -12.7680 C   0  0  0  0  0  0  0  0  0  0  0  0
   19.4981   -7.1978  -11.8678 O   0  0  0  0  0  0  0  0  0  0  0  0
   22.1308   -6.5757  -16.3130 C   0  0  0  0  0  0  0  0  0  0  0  0
   21.3997   -6.4945  -14.9686 C   0  0  1  0  0  0  0  0  0  0  0  0
   22.3980   -6.6467  -13.8468 C   0  0  0  0  0  0  0  0  0  0  0  0
   20.6457   -5.1854  -14.8658 C   0  0  0  0  0  0  0  0  0  0  0  0
   19.7549   -5.1381  -13.6627 C   0  0  2  0  0  0  0  0  0  0  0  0
   18.7033   -6.1585  -13.7214 N   0  0  0  0  0  0  0  0  0  0  0  0
   19.1321   -3.8006  -13.4821 C   0  0  0  0  0  0  0  0  0  0  0  0
   19.8673   -2.8138  -13.2603 O   0  0  0  0  0  0  0  0  0  0  0  0
   17.7712   -3.6185  -13.5522 O   0  0  0  0  0  0  0  0  0  0  0  0
  2  1  1  0
  3  2  1  0
  3  4  1  6
  5  3  1  0
  5  6  1  1
  7  5  1  0
  7  8  2  0
  9  7  1  0
 10  9  1  0
 10 11  1  1
 12 11  1  0
 13 12  1  0
 13 14  1  0
 15 14  1  0
 16 23  1  0
 16 10  1  0
 17 16  2  0
 19 21  1  0
 19 18  1  6
 20 19  1  0
 22 21  1  6
 22 23  1  0
 22 24  1  0
 24 25  2  0
 24 26  1  0
M  END
$$$$
