IKL.pdb
     RDKit          3D

 26 25  0  0  1  0  0  0  0  0999 V2000
   16.0274  -13.8279  -13.1383 C   0  0  0  0  0  0  0  0  0  0  0  0
   15.7812  -13.1986  -11.7636 C   0  0  0  0  0  0  0  0  0  0  0  0
   15.8913  -11.7038  -11.9522 C   0  0  2  0  0  0  0  0  0  0  0  0
   17.2487  -11.4111  -12.5088 C   0  0  0  0  0  0  0  0  0  0  0  0
   15.5322  -10.9174  -10.7331 C   0  0  2  0  0  0  0  0  0  0  0  0
   14.2912  -11.3995  -10.2085 N   0  0  0  0  0  0  0  0  0  0  0  0
   15.4886   -9.4519  -10.9916 C   0  0  0  0  0  0  0  0  0  0  0  0
   14.8362   -8.9543  -11.9315 O   0  0  0  0  0  0  0  0  0  0  0  0
   16.2221   -8.6112  -10.1263 N   0  0  0  0  0  0  0  0  0  0  0  0
   16.3943   -7.2039  -10.1999 C   0  0  1  0  0  0  0  0  0  0  0  0
   15.7323   -6.4222   -9.0567 C   0  0  0  0  0  0  0  0  0  0  0  0
   15.7847   -4.9461   -9.2229 C   0  0  0  0  0  0  0  0  0  0  0  0
   14.9011   -4.1965   -8.2371 C   0  0  0  0  0  0  0  0  0  0  0  0
   14.9284   -2.7142   -8.4265 C   0  0  0  0  0  0  0  0  0  0  0  0
   14.0528   -2.0936   -7.4430 N   0  0  0  0  0  0  0  0  0  0  0  0
   17.7297   -6.7257  -10.5350 C   0  0  0  0  0  0  0  0  0  0  0  0
   18.6654   -6.6247   -9.6639 O   0  0  0  0  0  0  0  0  0  0  0  0
   21.0438   -8.9922  -13.7460 C   0  0  0  0  0  0  0  0  0  0  0  0
   20.3923   -8.1288  -12.6604 C   0  0  1  0  0  0  0  0  0  0  0  0
   21.3121   -8.0491  -11.4663 C   0  0  0  0  0  0  0  0  0  0  0  0
   20.0774   -6.7536  -13.2102 C   0  0  0  0  0  0  0  0  0  0  0  0
   19.4260   -5.8715  -12.1899 C   0  0  2  0  0  0  0  0  0  0  0  0
   18.0826   -6.3427  -11.8385 N   0  0  0  0  0  0  0  0  0  0  0  0
   19.3479   -4.4580  -12.6431 C   0  0  0  0  0  0  0  0  0  0  0  0
   18.2499   -4.0064  -13.0356 O   0  0  0  0  0  0  0  0  0  0  0  0
   20.4484   -3.6341  -12.6427 O   0  0  0  0  0  0  0  0  0  0  0  0
  2  1  1  0
  3  2  1  0
  3  4  1  1
  5  3  1  0
  5  6  1  6
  7  5  1  0
  7  8  2  0
  9  7  1  0
 10  9  1  0
 10 11  1  1
 12 11  1  0
 13 12  1  0
 13 14  1  0
 15 14  1  0
 16 23  1  0
 16 10  1  0
 17 16  2  0
 19 21  1  0
 19 18  1  6
 20 19  1  0
 22 21  1  6
 22 23  1  0
 22 24  1  0
 24 25  2  0
 24 26  1  0
M  END
$$$$
