IKL.pdb
     RDKit          3D

 26 25  0  0  1  0  0  0  0  0999 V2000
   28.7846  -20.3290   -3.6046 C   0  0  0  0  0  0  0  0  0  0  0  0
   28.6214  -19.2631   -4.6927 C   0  0  0  0  0  0  0  0  0  0  0  0
   28.4827  -20.0061   -6.0008 C   0  0  2  0  0  0  0  0  0  0  0  0
   29.5950  -21.0032   -6.0815 C   0  0  0  0  0  0  0  0  0  0  0  0
   28.3593  -19.1090   -7.1897 C   0  0  2  0  0  0  0  0  0  0  0  0
   27.2109  -18.2700   -7.0314 N   0  0  0  0  0  0  0  0  0  0  0  0
   28.3173  -19.8638   -8.4723 C   0  0  0  0  0  0  0  0  0  0  0  0
   29.0870  -20.8144   -8.7182 O   0  0  0  0  0  0  0  0  0  0  0  0
   27.3607  -19.4709   -9.4335 N   0  0  0  0  0  0  0  0  0  0  0  0
   26.8057  -20.2385  -10.4910 C   0  0  1  0  0  0  0  0  0  0  0  0
   27.8330  -21.0457  -11.2969 C   0  0  0  0  0  0  0  0  0  0  0  0
   27.3067  -21.5894  -12.5762 C   0  0  0  0  0  0  0  0  0  0  0  0
   27.6726  -20.7438  -13.7867 C   0  0  0  0  0  0  0  0  0  0  0  0
   27.1120  -21.2709  -15.0680 C   0  0  0  0  0  0  0  0  0  0  0  0
   27.5103  -20.3917  -16.1578 N   0  0  0  0  0  0  0  0  0  0  0  0
   25.5884  -20.9814  -10.1901 C   0  0  0  0  0  0  0  0  0  0  0  0
   25.5638  -22.2607  -10.1053 O   0  0  0  0  0  0  0  0  0  0  0  0
   22.2458  -20.6164   -6.1983 C   0  0  0  0  0  0  0  0  0  0  0  0
   23.0656  -21.0412   -7.4214 C   0  0  1  0  0  0  0  0  0  0  0  0
   23.3980  -22.5097   -7.3148 C   0  0  0  0  0  0  0  0  0  0  0  0
   22.2991  -20.7372   -8.6913 C   0  0  0  0  0  0  0  0  0  0  0  0
   23.0854  -21.0725   -9.9213 C   0  0  2  0  0  0  0  0  0  0  0  0
   24.3570  -20.3440   -9.9719 N   0  0  0  0  0  0  0  0  0  0  0  0
   22.3163  -20.8053  -11.1649 C   0  0  0  0  0  0  0  0  0  0  0  0
   22.6803  -19.8735  -11.9151 O   0  0  0  0  0  0  0  0  0  0  0  0
   21.2168  -21.5536  -11.5129 O   0  0  0  0  0  0  0  0  0  0  0  0
  2  1  1  0
  3  2  1  0
  3  4  1  6
  5  3  1  0
  5  6  1  1
  7  5  1  0
  7  8  2  0
  9  7  1  0
 10  9  1  0
 10 11  1  1
 12 11  1  0
 13 12  1  0
 13 14  1  0
 15 14  1  0
 16 23  1  0
 16 10  1  0
 17 16  2  0
 19 21  1  0
 19 18  1  1
 20 19  1  0
 22 21  1  1
 22 23  1  0
 22 24  1  0
 24 25  2  0
 24 26  1  0
M  END
$$$$
