IKL.pdb
     RDKit          3D

 26 25  0  0  1  0  0  0  0  0999 V2000
   30.9399  -20.9343  -11.2003 C   0  0  0  0  0  0  0  0  0  0  0  0
   30.5778  -21.3381  -12.6329 C   0  0  0  0  0  0  0  0  0  0  0  0
   29.1919  -20.7956  -12.8921 C   0  0  2  0  0  0  0  0  0  0  0  0
   28.2542  -21.4564  -11.9319 C   0  0  0  0  0  0  0  0  0  0  0  0
   28.7762  -20.8725  -14.3256 C   0  0  2  0  0  0  0  0  0  0  0  0
   29.8220  -20.3479  -15.1496 N   0  0  0  0  0  0  0  0  0  0  0  0
   27.4785  -20.1890  -14.5810 C   0  0  0  0  0  0  0  0  0  0  0  0
   27.3638  -18.9467  -14.5912 O   0  0  0  0  0  0  0  0  0  0  0  0
   26.3464  -20.9986  -14.8186 N   0  0  0  0  0  0  0  0  0  0  0  0
   24.9924  -20.5995  -14.9694 C   0  0  1  0  0  0  0  0  0  0  0  0
   24.5359  -20.4393  -16.4262 C   0  0  0  0  0  0  0  0  0  0  0  0
   23.1736  -19.8636  -16.5738 C   0  0  0  0  0  0  0  0  0  0  0  0
   22.6765  -19.8514  -18.0115 C   0  0  0  0  0  0  0  0  0  0  0  0
   21.3538  -19.1749  -18.1747 C   0  0  0  0  0  0  0  0  0  0  0  0
   20.9765  -19.2027  -19.5805 N   0  0  0  0  0  0  0  0  0  0  0  0
   24.0146  -21.2728  -14.1238 C   0  0  0  0  0  0  0  0  0  0  0  0
   24.1964  -22.4572  -13.6671 O   0  0  0  0  0  0  0  0  0  0  0  0
   25.2090  -20.1433   -9.9268 C   0  0  0  0  0  0  0  0  0  0  0  0
   24.3114  -20.9023  -10.9101 C   0  0  1  0  0  0  0  0  0  0  0  0
   23.7357  -22.1179  -10.2252 C   0  0  0  0  0  0  0  0  0  0  0  0
   23.2203  -19.9892  -11.4281 C   0  0  0  0  0  0  0  0  0  0  0  0
   22.2968  -20.6914  -12.3755 C   0  0  2  0  0  0  0  0  0  0  0  0
   22.8043  -20.6676  -13.7511 N   0  0  0  0  0  0  0  0  0  0  0  0
   20.9264  -20.1164  -12.3474 C   0  0  0  0  0  0  0  0  0  0  0  0
   20.6291  -19.2163  -13.1628 O   0  0  0  0  0  0  0  0  0  0  0  0
   19.9774  -20.5466  -11.4505 O   0  0  0  0  0  0  0  0  0  0  0  0
  2  1  1  0
  3  2  1  0
  3  4  1  1
  5  3  1  0
  5  6  1  6
  7  5  1  0
  7  8  2  0
  9  7  1  0
 10  9  1  0
 10 11  1  6
 12 11  1  0
 13 12  1  0
 13 14  1  0
 15 14  1  0
 16 23  1  0
 16 10  1  0
 17 16  2  0
 19 21  1  0
 19 18  1  1
 20 19  1  0
 22 21  1  1
 22 23  1  0
 22 24  1  0
 24 25  2  0
 24 26  1  0
M  END
$$$$
