IKL.pdb
     RDKit          3D

 26 25  0  0  1  0  0  0  0  0999 V2000
   19.1962  -20.6911  -18.2543 C   0  0  0  0  0  0  0  0  0  0  0  0
   20.0989  -19.5999  -17.6703 C   0  0  0  0  0  0  0  0  0  0  0  0
   20.9938  -20.2807  -16.6614 C   0  0  2  0  0  0  0  0  0  0  0  0
   20.1220  -21.0589  -15.7274 C   0  0  0  0  0  0  0  0  0  0  0  0
   21.9569  -19.3541  -15.9925 C   0  0  2  0  0  0  0  0  0  0  0  0
   22.7152  -18.6610  -16.9887 N   0  0  0  0  0  0  0  0  0  0  0  0
   22.8380  -20.0534  -15.0172 C   0  0  0  0  0  0  0  0  0  0  0  0
   22.3898  -20.6857  -14.0396 O   0  0  0  0  0  0  0  0  0  0  0  0
   24.2326  -19.9849  -15.2269 N   0  0  0  0  0  0  0  0  0  0  0  0
   25.2739  -20.4963  -14.4087 C   0  0  1  0  0  0  0  0  0  0  0  0
   26.6440  -20.5711  -15.0970 C   0  0  0  0  0  0  0  0  0  0  0  0
   26.7207  -21.5813  -16.1846 C   0  0  0  0  0  0  0  0  0  0  0  0
   28.1181  -21.7376  -16.7651 C   0  0  0  0  0  0  0  0  0  0  0  0
   28.1835  -22.7122  -17.8963 C   0  0  0  0  0  0  0  0  0  0  0  0
   29.5615  -22.8168  -18.3540 N   0  0  0  0  0  0  0  0  0  0  0  0
   25.3363  -19.9959  -13.0412 C   0  0  0  0  0  0  0  0  0  0  0  0
   25.2768  -18.7460  -12.7604 O   0  0  0  0  0  0  0  0  0  0  0  0
   22.0315  -21.4275   -9.3660 C   0  0  0  0  0  0  0  0  0  0  0  0
   23.0709  -20.6863  -10.2138 C   0  0  1  0  0  0  0  0  0  0  0  0
   22.7702  -19.2073  -10.1927 C   0  0  0  0  0  0  0  0  0  0  0  0
   24.4644  -20.9761   -9.6973 C   0  0  0  0  0  0  0  0  0  0  0  0
   25.5259  -20.3599  -10.5559 C   0  0  2  0  0  0  0  0  0  0  0  0
   25.4654  -20.8515  -11.9360 N   0  0  0  0  0  0  0  0  0  0  0  0
   26.8890  -20.5928  -10.0107 C   0  0  0  0  0  0  0  0  0  0  0  0
   27.7461  -21.1445  -10.7349 O   0  0  0  0  0  0  0  0  0  0  0  0
   27.2332  -20.2187   -8.7333 O   0  0  0  0  0  0  0  0  0  0  0  0
  2  1  1  0
  3  2  1  0
  3  4  1  1
  5  3  1  0
  5  6  1  6
  7  5  1  0
  7  8  2  0
  9  7  1  0
 10  9  1  0
 10 11  1  6
 12 11  1  0
 13 12  1  0
 13 14  1  0
 15 14  1  0
 16 23  1  0
 16 10  1  0
 17 16  2  0
 19 21  1  0
 19 18  1  1
 20 19  1  0
 22 21  1  1
 22 23  1  0
 22 24  1  0
 24 25  2  0
 24 26  1  0
M  END
$$$$
