IKL.pdb
     RDKit          3D

 26 25  0  0  1  0  0  0  0  0999 V2000
   25.6503  -13.7802  -18.3086 C   0  0  0  0  0  0  0  0  0  0  0  0
   24.1966  -13.8905  -17.8383 C   0  0  0  0  0  0  0  0  0  0  0  0
   23.6984  -12.4761  -17.6556 C   0  0  2  0  0  0  0  0  0  0  0  0
   24.6633  -11.7623  -16.7628 C   0  0  0  0  0  0  0  0  0  0  0  0
   22.2696  -12.3946  -17.2247 C   0  0  2  0  0  0  0  0  0  0  0  0
   21.4646  -13.1843  -18.1057 N   0  0  0  0  0  0  0  0  0  0  0  0
   21.7785  -10.9918  -17.1390 C   0  0  0  0  0  0  0  0  0  0  0  0
   22.3125  -10.1364  -16.4043 O   0  0  0  0  0  0  0  0  0  0  0  0
   20.6631  -10.6379  -17.9291 N   0  0  0  0  0  0  0  0  0  0  0  0
   19.9464   -9.4126  -17.9451 C   0  0  1  0  0  0  0  0  0  0  0  0
   18.8230   -9.3474  -18.9892 C   0  0  0  0  0  0  0  0  0  0  0  0
   18.1569   -8.0218  -19.0796 C   0  0  0  0  0  0  0  0  0  0  0  0
   17.0692   -7.9646  -20.1417 C   0  0  0  0  0  0  0  0  0  0  0  0
   16.4287   -6.6194  -20.2610 C   0  0  0  0  0  0  0  0  0  0  0  0
   15.2508   -6.7280  -21.1095 N   0  0  0  0  0  0  0  0  0  0  0  0
   19.5705   -8.8584  -16.6505 C   0  0  0  0  0  0  0  0  0  0  0  0
   18.8578   -9.5057  -15.8034 O   0  0  0  0  0  0  0  0  0  0  0  0
   19.6239   -7.8042  -11.8523 C   0  0  0  0  0  0  0  0  0  0  0  0
   20.9659   -7.6380  -12.5732 C   0  0  1  0  0  0  0  0  0  0  0  0
   22.0300   -8.4117  -11.8332 C   0  0  0  0  0  0  0  0  0  0  0  0
   20.8440   -8.0988  -14.0103 C   0  0  0  0  0  0  0  0  0  0  0  0
   20.0076   -7.1687  -14.8341 C   0  0  2  0  0  0  0  0  0  0  0  0
   19.9653   -7.5747  -16.2425 N   0  0  0  0  0  0  0  0  0  0  0  0
   20.4817   -5.7629  -14.7422 C   0  0  0  0  0  0  0  0  0  0  0  0
   20.4234   -5.1736  -13.6408 O   0  0  0  0  0  0  0  0  0  0  0  0
   20.9820   -5.0931  -15.8335 O   0  0  0  0  0  0  0  0  0  0  0  0
  2  1  1  0
  3  2  1  0
  3  4  1  1
  5  3  1  0
  5  6  1  6
  7  5  1  0
  7  8  2  0
  9  7  1  0
 10  9  1  0
 10 11  1  6
 12 11  1  0
 13 12  1  0
 13 14  1  0
 15 14  1  0
 16 23  1  0
 16 10  1  0
 17 16  2  0
 19 21  1  0
 19 18  1  1
 20 19  1  0
 22 21  1  1
 22 23  1  0
 22 24  1  0
 24 25  2  0
 24 26  1  0
M  END
$$$$
