IKL.pdb
     RDKit          3D

 26 25  0  0  1  0  0  0  0  0999 V2000
   22.1856  -20.4353   -8.6996 C   0  0  0  0  0  0  0  0  0  0  0  0
   23.5773  -21.0676   -8.7988 C   0  0  0  0  0  0  0  0  0  0  0  0
   24.2337  -20.4659  -10.0192 C   0  0  2  0  0  0  0  0  0  0  0  0
   23.2572  -20.5434  -11.1497 C   0  0  0  0  0  0  0  0  0  0  0  0
   25.5825  -21.0365  -10.3173 C   0  0  2  0  0  0  0  0  0  0  0  0
   26.4091  -20.9278   -9.1543 N   0  0  0  0  0  0  0  0  0  0  0  0
   26.2189  -20.4057  -11.5063 C   0  0  0  0  0  0  0  0  0  0  0  0
   26.8235  -19.3160  -11.4461 O   0  0  0  0  0  0  0  0  0  0  0  0
   26.1218  -21.0852  -12.7401 N   0  0  0  0  0  0  0  0  0  0  0  0
   26.5995  -20.6759  -14.0127 C   0  0  1  0  0  0  0  0  0  0  0  0
   27.1981  -21.8071  -14.8604 C   0  0  0  0  0  0  0  0  0  0  0  0
   27.8073  -21.3497  -16.1367 C   0  0  0  0  0  0  0  0  0  0  0  0
   28.4644  -22.4710  -16.9272 C   0  0  0  0  0  0  0  0  0  0  0  0
   29.1131  -22.0036  -18.1900 C   0  0  0  0  0  0  0  0  0  0  0  0
   29.7859  -23.1287  -18.8229 N   0  0  0  0  0  0  0  0  0  0  0  0
   25.7458  -19.7698  -14.7707 C   0  0  0  0  0  0  0  0  0  0  0  0
   24.4912  -19.9785  -14.9343 O   0  0  0  0  0  0  0  0  0  0  0  0
   25.8909  -13.9175  -15.2619 C   0  0  0  0  0  0  0  0  0  0  0  0
   25.1856  -15.2780  -15.2713 C   0  0  1  0  0  0  0  0  0  0  0  0
   23.7857  -15.1114  -15.8105 C   0  0  0  0  0  0  0  0  0  0  0  0
   25.9817  -16.2699  -16.0928 C   0  0  0  0  0  0  0  0  0  0  0  0
   25.3784  -17.6406  -16.0658 C   0  0  2  0  0  0  0  0  0  0  0  0
   26.2415  -18.6035  -15.3743 N   0  0  0  0  0  0  0  0  0  0  0  0
   25.0763  -18.1439  -17.4314 C   0  0  0  0  0  0  0  0  0  0  0  0
   25.9433  -18.8098  -18.0384 O   0  0  0  0  0  0  0  0  0  0  0  0
   23.8710  -17.8979  -18.0451 O   0  0  0  0  0  0  0  0  0  0  0  0
  2  1  1  0
  3  2  1  0
  3  4  1  6
  5  3  1  0
  5  6  1  1
  7  5  1  0
  7  8  2  0
  9  7  1  0
 10  9  1  0
 10 11  1  6
 12 11  1  0
 13 12  1  0
 13 14  1  0
 15 14  1  0
 16 23  1  0
 16 10  1  0
 17 16  2  0
 19 21  1  0
 19 18  1  6
 20 19  1  0
 22 21  1  6
 22 23  1  0
 22 24  1  0
 24 25  2  0
 24 26  1  0
M  END
$$$$
