IKL.pdb
     RDKit          3D

 26 25  0  0  1  0  0  0  0  0999 V2000
   27.5133  -24.0467  -16.5228 C   0  0  0  0  0  0  0  0  0  0  0  0
   27.1235  -23.2987  -15.2440 C   0  0  0  0  0  0  0  0  0  0  0  0
   26.1180  -22.2483  -15.6534 C   0  0  2  0  0  0  0  0  0  0  0  0
   26.6515  -21.5508  -16.8645 C   0  0  0  0  0  0  0  0  0  0  0  0
   25.7105  -21.3411  -14.5378 C   0  0  2  0  0  0  0  0  0  0  0  0
   25.3268  -22.1275  -13.4055 N   0  0  0  0  0  0  0  0  0  0  0  0
   24.6364  -20.3911  -14.9380 C   0  0  0  0  0  0  0  0  0  0  0  0
   24.8145  -19.4938  -15.7864 O   0  0  0  0  0  0  0  0  0  0  0  0
   23.3744  -20.5298  -14.3200 N   0  0  0  0  0  0  0  0  0  0  0  0
   22.1958  -19.7699  -14.5406 C   0  0  1  0  0  0  0  0  0  0  0  0
   20.8970  -20.4794  -14.1331 C   0  0  0  0  0  0  0  0  0  0  0  0
   21.1076  -21.7857  -13.4560 C   0  0  0  0  0  0  0  0  0  0  0  0
   19.8120  -22.5205  -13.1466 C   0  0  0  0  0  0  0  0  0  0  0  0
   19.7271  -23.8669  -13.7899 C   0  0  0  0  0  0  0  0  0  0  0  0
   18.5206  -24.5383  -13.3286 N   0  0  0  0  0  0  0  0  0  0  0  0
   22.2400  -18.3667  -14.1488 C   0  0  0  0  0  0  0  0  0  0  0  0
   22.9085  -17.9540  -13.1353 O   0  0  0  0  0  0  0  0  0  0  0  0
   25.8318  -15.3766  -15.9737 C   0  0  0  0  0  0  0  0  0  0  0  0
   24.5731  -15.6322  -15.1378 C   0  0  1  0  0  0  0  0  0  0  0  0
   23.8407  -14.3294  -14.9260 C   0  0  0  0  0  0  0  0  0  0  0  0
   23.6941  -16.6572  -15.8228 C   0  0  0  0  0  0  0  0  0  0  0  0
   22.2367  -16.3520  -15.6608 C   0  0  2  0  0  0  0  0  0  0  0  0
   21.5517  -17.3695  -14.8573 N   0  0  0  0  0  0  0  0  0  0  0  0
   21.5470  -16.2137  -16.9702 C   0  0  0  0  0  0  0  0  0  0  0  0
   21.3752  -17.2314  -17.6761 O   0  0  0  0  0  0  0  0  0  0  0  0
   21.0930  -14.9988  -17.4264 O   0  0  0  0  0  0  0  0  0  0  0  0
  2  1  1  0
  3  2  1  0
  3  4  1  6
  5  3  1  0
  5  6  1  1
  7  5  1  0
  7  8  2  0
  9  7  1  0
 10  9  1  0
 10 11  1  1
 12 11  1  0
 13 12  1  0
 13 14  1  0
 15 14  1  0
 16 23  1  0
 16 10  1  0
 17 16  2  0
 19 21  1  0
 19 18  1  6
 20 19  1  0
 22 21  1  6
 22 23  1  0
 22 24  1  0
 24 25  2  0
 24 26  1  0
M  END
$$$$
