IKL.pdb
     RDKit          3D

 26 25  0  0  1  0  0  0  0  0999 V2000
   29.3987  -17.1875  -17.6384 C   0  0  0  0  0  0  0  0  0  0  0  0
   27.9741  -17.6907  -17.8909 C   0  0  0  0  0  0  0  0  0  0  0  0
   27.2958  -17.7475  -16.5423 C   0  0  2  0  0  0  0  0  0  0  0  0
   28.1759  -18.5298  -15.6195 C   0  0  0  0  0  0  0  0  0  0  0  0
   25.8784  -18.2175  -16.6032 C   0  0  2  0  0  0  0  0  0  0  0  0
   25.1454  -17.3914  -17.5130 N   0  0  0  0  0  0  0  0  0  0  0  0
   25.2348  -18.2651  -15.2615 C   0  0  0  0  0  0  0  0  0  0  0  0
   25.0176  -17.2406  -14.5836 O   0  0  0  0  0  0  0  0  0  0  0  0
   24.8640  -19.5304  -14.7565 N   0  0  0  0  0  0  0  0  0  0  0  0
   24.2361  -19.8377  -13.5210 C   0  0  1  0  0  0  0  0  0  0  0  0
   22.8807  -20.5457  -13.6560 C   0  0  0  0  0  0  0  0  0  0  0  0
   22.1981  -20.7986  -12.3601 C   0  0  0  0  0  0  0  0  0  0  0  0
   20.8275  -21.4399  -12.5155 C   0  0  0  0  0  0  0  0  0  0  0  0
   20.0850  -21.5696  -11.2249 C   0  0  0  0  0  0  0  0  0  0  0  0
   18.8036  -22.2130  -11.4768 N   0  0  0  0  0  0  0  0  0  0  0  0
   25.0852  -20.4004  -12.4785 C   0  0  0  0  0  0  0  0  0  0  0  0
   25.8099  -21.4416  -12.6658 O   0  0  0  0  0  0  0  0  0  0  0  0
   27.5908  -18.9024   -6.9799 C   0  0  0  0  0  0  0  0  0  0  0  0
   27.0957  -20.0033   -7.9241 C   0  0  1  0  0  0  0  0  0  0  0  0
   26.1743  -20.9312   -7.1702 C   0  0  0  0  0  0  0  0  0  0  0  0
   26.4036  -19.3875   -9.1219 C   0  0  0  0  0  0  0  0  0  0  0  0
   25.9876  -20.4175  -10.1266 C   0  0  2  0  0  0  0  0  0  0  0  0
   25.1674  -19.8379  -11.1951 N   0  0  0  0  0  0  0  0  0  0  0  0
   25.2501  -21.5443   -9.4975 C   0  0  0  0  0  0  0  0  0  0  0  0
   24.0480  -21.3871   -9.1912 O   0  0  0  0  0  0  0  0  0  0  0  0
   25.8525  -22.7536   -9.2433 O   0  0  0  0  0  0  0  0  0  0  0  0
  2  1  1  0
  3  2  1  0
  3  4  1  1
  5  3  1  0
  5  6  1  6
  7  5  1  0
  7  8  2  0
  9  7  1  0
 10  9  1  0
 10 11  1  6
 12 11  1  0
 13 12  1  0
 13 14  1  0
 15 14  1  0
 16 23  1  0
 16 10  1  0
 17 16  2  0
 19 21  1  0
 19 18  1  1
 20 19  1  0
 22 21  1  1
 22 23  1  0
 22 24  1  0
 24 25  2  0
 24 26  1  0
M  END
$$$$
