IKL.pdb
     RDKit          3D

 26 25  0  0  1  0  0  0  0  0999 V2000
   23.2361  -24.9227  -13.0869 C   0  0  0  0  0  0  0  0  0  0  0  0
   24.3585  -23.9375  -12.7463 C   0  0  0  0  0  0  0  0  0  0  0  0
   24.0968  -22.6933  -13.5622 C   0  0  2  0  0  0  0  0  0  0  0  0
   23.8388  -23.1168  -14.9735 C   0  0  0  0  0  0  0  0  0  0  0  0
   25.1477  -21.6421  -13.4066 C   0  0  2  0  0  0  0  0  0  0  0  0
   25.3119  -21.3401  -12.0175 N   0  0  0  0  0  0  0  0  0  0  0  0
   24.8551  -20.4200  -14.2050 C   0  0  0  0  0  0  0  0  0  0  0  0
   24.0082  -19.5742  -13.8532 O   0  0  0  0  0  0  0  0  0  0  0  0
   25.5766  -20.2317  -15.4040 N   0  0  0  0  0  0  0  0  0  0  0  0
   25.4039  -19.2235  -16.3885 C   0  0  1  0  0  0  0  0  0  0  0  0
   26.5921  -19.0611  -17.3467 C   0  0  0  0  0  0  0  0  0  0  0  0
   26.4119  -17.9866  -18.3577 C   0  0  0  0  0  0  0  0  0  0  0  0
   27.2355  -16.7410  -18.0673 C   0  0  0  0  0  0  0  0  0  0  0  0
   27.0417  -15.6549  -19.0756 C   0  0  0  0  0  0  0  0  0  0  0  0
   27.7797  -14.4745  -18.6500 N   0  0  0  0  0  0  0  0  0  0  0  0
   24.1084  -19.1758  -17.0547 C   0  0  0  0  0  0  0  0  0  0  0  0
   23.5287  -20.2241  -17.5125 O   0  0  0  0  0  0  0  0  0  0  0  0
   19.2039  -17.6208  -15.4833 C   0  0  0  0  0  0  0  0  0  0  0  0
   20.3765  -18.2826  -16.2150 C   0  0  1  0  0  0  0  0  0  0  0  0
   19.8731  -19.4777  -16.9874 C   0  0  0  0  0  0  0  0  0  0  0  0
   21.0535  -17.2795  -17.1250 C   0  0  0  0  0  0  0  0  0  0  0  0
   22.1289  -17.9064  -17.9580 C   0  0  2  0  0  0  0  0  0  0  0  0
   23.4056  -17.9750  -17.2399 N   0  0  0  0  0  0  0  0  0  0  0  0
   22.3269  -17.1893  -19.2448 C   0  0  0  0  0  0  0  0  0  0  0  0
   23.2795  -16.3863  -19.3517 O   0  0  0  0  0  0  0  0  0  0  0  0
   21.4924  -17.3841  -20.3199 O   0  0  0  0  0  0  0  0  0  0  0  0
  2  1  1  0
  3  2  1  0
  3  4  1  6
  5  3  1  0
  5  6  1  1
  7  5  1  0
  7  8  2  0
  9  7  1  0
 10  9  1  0
 10 11  1  6
 12 11  1  0
 13 12  1  0
 13 14  1  0
 15 14  1  0
 16 23  1  0
 16 10  1  0
 17 16  2  0
 19 21  1  0
 19 18  1  6
 20 19  1  0
 22 21  1  1
 22 23  1  0
 22 24  1  0
 24 25  2  0
 24 26  1  0
M  END
$$$$
