QRF.pdb
     RDKit          3D

 32 32  0  0  1  0  0  0  0  0999 V2000
   26.6224  -17.4548  -20.5524 N   0  0  0  0  0  0  0  0  0  0  0  0
   27.3165  -16.3372  -21.0639 C   0  0  0  0  0  0  0  0  0  0  0  0
   28.5118  -16.5095  -21.4336 O   0  0  0  0  0  0  0  0  0  0  0  0
   26.7393  -14.9766  -21.1952 C   0  0  0  0  0  0  0  0  0  0  0  0
   25.3048  -14.9701  -20.7283 C   0  0  0  0  0  0  0  0  0  0  0  0
   25.1406  -14.3671  -19.3705 C   0  0  2  0  0  0  0  0  0  0  0  0
   24.3844  -15.2805  -18.5383 N   0  0  0  0  0  0  0  0  0  0  0  0
   24.5768  -13.0080  -19.3326 C   0  0  0  0  0  0  0  0  0  0  0  0
   25.2328  -12.0758  -19.8664 O   0  0  0  0  0  0  0  0  0  0  0  0
   17.0520   -8.8187  -20.8061 N   0  0  0  0  0  0  0  0  0  0  0  0
   17.9098   -7.8132  -20.2764 C   0  0  0  0  0  0  0  0  0  0  0  0
   17.5307   -6.5844  -20.2240 N   0  0  0  0  0  0  0  0  0  0  0  0
   19.1986   -8.1965  -19.8052 N   0  0  0  0  0  0  0  0  0  0  0  0
   19.6029   -9.5756  -19.9065 C   0  0  0  0  0  0  0  0  0  0  0  0
   20.9858   -9.7892  -19.2940 C   0  0  0  0  0  0  0  0  0  0  0  0
   21.4445  -11.2100  -19.4538 C   0  0  0  0  0  0  0  0  0  0  0  0
   22.8164  -11.3432  -18.8475 C   0  0  2  0  0  0  0  0  0  0  0  0
   23.3460  -12.6479  -18.7368 N   0  0  0  0  0  0  0  0  0  0  0  0
   22.9627  -10.6177  -17.5819 C   0  0  0  0  0  0  0  0  0  0  0  0
   22.3683  -11.0509  -16.5579 O   0  0  0  0  0  0  0  0  0  0  0  0
   18.1708   -5.8695  -19.8179 N   0  0  0  0  0  0  0  0  0  0  0  0
   23.7560   -9.4444  -17.4885 C   0  0  2  0  0  0  0  0  0  0  0  0
   23.9489   -8.7065  -16.2327 C   0  0  0  0  0  0  0  0  0  0  0  0
   25.4222   -8.3817  -16.1729 C   0  0  0  0  0  0  0  0  0  0  0  0
   26.2920   -9.5620  -16.0418 C   0  0  0  0  0  0  0  0  0  0  0  0
   26.0708  -10.5892  -15.1604 C   0  0  0  0  0  0  0  0  0  0  0  0
   26.9491  -11.6494  -15.1290 C   0  0  0  0  0  0  0  0  0  0  0  0
   28.0549  -11.7062  -15.9676 C   0  0  0  0  0  0  0  0  0  0  0  0
   28.2740  -10.6824  -16.8447 C   0  0  0  0  0  0  0  0  0  0  0  0
   27.3926   -9.6362  -16.8640 C   0  0  0  0  0  0  0  0  0  0  0  0
   23.0784   -7.5332  -16.1624 O   0  0  0  0  0  0  0  0  0  0  0  0
   22.5546   -7.0671  -17.1978 O   0  0  0  0  0  0  0  0  0  0  0  0
  1  2  1  0
  2  3  2  0
  4  2  1  0
  4  5  1  0
  6  5  1  0
  6  7  1  1
  8  6  1  0
  8  9  2  0
 10 11  1  0
 11 13  1  0
 11 12  2  0
 13 14  1  0
 14 15  1  0
 15 16  1  0
 17 16  1  1
 17 18  1  0
 18  8  1  0
 19 17  1  0
 20 19  2  0
 21 19  1  0
 22 21  1  0
 22 23  1  6
 23 24  1  0
 24 25  2  0
 24 29  1  0
 25 26  1  0
 26 27  2  0
 28 27  1  0
 29 28  2  0
 30 22  1  0
 31 30  2  0
 32 30  1  0
M  END
$$$$
