QRF.pdb
     RDKit          3D

 32 32  0  0  1  0  0  0  0  0999 V2000
   22.2777  -17.3805  -21.1028 N   0  0  0  0  0  0  0  0  0  0  0  0
   23.6642  -17.1432  -20.9873 C   0  0  0  0  0  0  0  0  0  0  0  0
   24.1896  -16.3345  -21.8028 O   0  0  0  0  0  0  0  0  0  0  0  0
   24.5450  -17.7786  -19.9762 C   0  0  0  0  0  0  0  0  0  0  0  0
   23.7501  -18.7262  -19.1124 C   0  0  0  0  0  0  0  0  0  0  0  0
   23.7702  -18.3469  -17.6667 C   0  0  2  0  0  0  0  0  0  0  0  0
   25.1398  -18.1004  -17.2639 N   0  0  0  0  0  0  0  0  0  0  0  0
   23.0949  -19.2765  -16.7468 C   0  0  0  0  0  0  0  0  0  0  0  0
   23.0491  -20.4951  -17.0587 O   0  0  0  0  0  0  0  0  0  0  0  0
   24.2813  -24.3661  -13.6416 N   0  0  0  0  0  0  0  0  0  0  0  0
   25.3621  -23.6174  -14.1882 C   0  0  0  0  0  0  0  0  0  0  0  0
   26.0116  -24.0494  -15.2119 N   0  0  0  0  0  0  0  0  0  0  0  0
   25.7101  -22.3783  -13.5770 N   0  0  0  0  0  0  0  0  0  0  0  0
   24.9661  -21.9271  -12.4288 C   0  0  0  0  0  0  0  0  0  0  0  0
   23.6519  -21.2715  -12.8486 C   0  0  0  0  0  0  0  0  0  0  0  0
   23.8480  -20.3421  -14.0115 C   0  0  0  0  0  0  0  0  0  0  0  0
   22.5115  -19.7644  -14.3958 C   0  0  2  0  0  0  0  0  0  0  0  0
   22.4785  -18.9178  -15.5258 N   0  0  0  0  0  0  0  0  0  0  0  0
   21.8012  -19.1503  -13.2698 C   0  0  0  0  0  0  0  0  0  0  0  0
   22.4461  -18.4285  -12.4620 O   0  0  0  0  0  0  0  0  0  0  0  0
   26.8023  -23.4859  -15.5899 N   0  0  0  0  0  0  0  0  0  0  0  0
   20.4099  -19.3518  -13.0735 C   0  0  2  0  0  0  0  0  0  0  0  0
   19.4556  -18.2460  -12.9149 C   0  0  0  0  0  0  0  0  0  0  0  0
   19.6549  -17.3592  -14.1206 C   0  0  0  0  0  0  0  0  0  0  0  0
   18.7840  -16.1727  -14.1432 C   0  0  0  0  0  0  0  0  0  0  0  0
   17.6456  -16.0658  -14.9006 C   0  0  0  0  0  0  0  0  0  0  0  0
   16.9022  -14.9082  -14.8375 C   0  0  0  0  0  0  0  0  0  0  0  0
   17.2753  -13.8444  -14.0261 C   0  0  0  0  0  0  0  0  0  0  0  0
   18.4094  -13.9523  -13.2727 C   0  0  0  0  0  0  0  0  0  0  0  0
   19.1372  -15.1085  -13.3460 C   0  0  0  0  0  0  0  0  0  0  0  0
   18.0872  -18.7385  -12.7591 O   0  0  0  0  0  0  0  0  0  0  0  0
   17.6842  -19.7176  -13.4245 O   0  0  0  0  0  0  0  0  0  0  0  0
  1  2  1  0
  2  3  2  0
  4  2  1  0
  4  5  1  0
  6  5  1  0
  6  7  1  1
  8  6  1  0
  8  9  2  0
 10 11  1  0
 11 13  1  0
 11 12  2  0
 13 14  1  0
 14 15  1  0
 15 16  1  0
 17 16  1  1
 17 18  1  0
 18  8  1  0
 19 17  1  0
 20 19  2  0
 21 19  1  0
 22 21  1  0
 22 23  1  1
 23 24  1  0
 24 25  2  0
 24 29  1  0
 25 26  1  0
 26 27  2  0
 28 27  1  0
 29 28  2  0
 30 22  1  0
 31 30  2  0
 32 30  1  0
M  END
$$$$
