QRF.pdb
     RDKit          3D

 32 32  0  0  1  0  0  0  0  0999 V2000
   31.4553  -31.5445  -17.8957 N   0  0  0  0  0  0  0  0  0  0  0  0
   32.2270  -31.2851  -19.0487 C   0  0  0  0  0  0  0  0  0  0  0  0
   33.2725  -31.9725  -19.2201 O   0  0  0  0  0  0  0  0  0  0  0  0
   31.8950  -30.2613  -20.0702 C   0  0  0  0  0  0  0  0  0  0  0  0
   30.6531  -29.5051  -19.6679 C   0  0  0  0  0  0  0  0  0  0  0  0
   29.4120  -30.0560  -20.2927 C   0  0  2  0  0  0  0  0  0  0  0  0
   29.4110  -29.7296  -21.7042 N   0  0  0  0  0  0  0  0  0  0  0  0
   28.1436  -29.6775  -19.6492 C   0  0  0  0  0  0  0  0  0  0  0  0
   27.4916  -28.7174  -20.1366 O   0  0  0  0  0  0  0  0  0  0  0  0
   29.1748  -33.1642  -12.8133 N   0  0  0  0  0  0  0  0  0  0  0  0
   28.2476  -33.0499  -13.8879 C   0  0  0  0  0  0  0  0  0  0  0  0
   28.4426  -33.6755  -14.9956 N   0  0  0  0  0  0  0  0  0  0  0  0
   27.0982  -32.2269  -13.7110 N   0  0  0  0  0  0  0  0  0  0  0  0
   26.1866  -32.0460  -14.8119 C   0  0  0  0  0  0  0  0  0  0  0  0
   26.7359  -31.0386  -15.8202 C   0  0  0  0  0  0  0  0  0  0  0  0
   25.7366  -30.7418  -16.9009 C   0  0  0  0  0  0  0  0  0  0  0  0
   26.3848  -29.8441  -17.9215 C   0  0  2  0  0  0  0  0  0  0  0  0
   27.5838  -30.3024  -18.5109 N   0  0  0  0  0  0  0  0  0  0  0  0
   26.5311  -28.4589  -17.4641 C   0  0  0  0  0  0  0  0  0  0  0  0
   27.6700  -28.0503  -17.1096 O   0  0  0  0  0  0  0  0  0  0  0  0
   27.7441  -33.5842  -15.7634 N   0  0  0  0  0  0  0  0  0  0  0  0
   25.4218  -27.5749  -17.4132 C   0  0  1  0  0  0  0  0  0  0  0  0
   25.5505  -26.1466  -17.0935 C   0  0  0  0  0  0  0  0  0  0  0  0
   26.4008  -25.5576  -18.1935 C   0  0  0  0  0  0  0  0  0  0  0  0
   26.4481  -24.0863  -18.1927 C   0  0  0  0  0  0  0  0  0  0  0  0
   25.3513  -23.2792  -18.3553 C   0  0  0  0  0  0  0  0  0  0  0  0
   25.5130  -21.9117  -18.3303 C   0  0  0  0  0  0  0  0  0  0  0  0
   26.7592  -21.3274  -18.1444 C   0  0  0  0  0  0  0  0  0  0  0  0
   27.8506  -22.1325  -17.9827 C   0  0  0  0  0  0  0  0  0  0  0  0
   27.6739  -23.4890  -18.0099 C   0  0  0  0  0  0  0  0  0  0  0  0
   24.2414  -25.5105  -16.9491 O   0  0  0  0  0  0  0  0  0  0  0  0
   23.2966  -25.8209  -17.7072 O   0  0  0  0  0  0  0  0  0  0  0  0
  1  2  1  0
  2  3  2  0
  4  2  1  0
  4  5  1  0
  6  5  1  0
  6  7  1  6
  8  6  1  0
  8  9  2  0
 10 11  1  0
 11 13  1  0
 11 12  2  0
 13 14  1  0
 14 15  1  0
 15 16  1  0
 17 16  1  1
 17 18  1  0
 18  8  1  0
 19 17  1  0
 20 19  2  0
 21 19  1  0
 22 21  1  0
 22 23  1  1
 23 24  1  0
 24 25  2  0
 24 29  1  0
 25 26  1  0
 26 27  2  0
 28 27  1  0
 29 28  2  0
 30 22  1  0
 31 30  2  0
 32 30  1  0
M  END
$$$$
