QRF.pdb
     RDKit          3D

 32 32  0  0  1  0  0  0  0  0999 V2000
   23.0119  -15.0256  -16.3137 N   0  0  0  0  0  0  0  0  0  0  0  0
   24.2179  -14.3792  -16.6604 C   0  0  0  0  0  0  0  0  0  0  0  0
   24.1698  -13.1403  -16.9006 O   0  0  0  0  0  0  0  0  0  0  0  0
   25.5350  -15.0549  -16.7627 C   0  0  0  0  0  0  0  0  0  0  0  0
   25.3810  -16.5377  -16.5317 C   0  0  0  0  0  0  0  0  0  0  0  0
   25.7210  -16.9444  -15.1341 C   0  0  2  0  0  0  0  0  0  0  0  0
   27.0616  -16.4906  -14.8250 N   0  0  0  0  0  0  0  0  0  0  0  0
   25.5464  -18.3711  -14.8173 C   0  0  0  0  0  0  0  0  0  0  0  0
   24.3888  -18.8600  -14.8896 O   0  0  0  0  0  0  0  0  0  0  0  0
   28.0041  -23.8144  -19.1044 N   0  0  0  0  0  0  0  0  0  0  0  0
   28.3889  -24.1377  -17.7722 C   0  0  0  0  0  0  0  0  0  0  0  0
   28.0514  -25.2615  -17.2432 N   0  0  0  0  0  0  0  0  0  0  0  0
   29.1561  -23.1895  -17.0358 N   0  0  0  0  0  0  0  0  0  0  0  0
   28.8359  -22.9484  -15.6520 C   0  0  0  0  0  0  0  0  0  0  0  0
   27.6819  -21.9564  -15.5199 C   0  0  0  0  0  0  0  0  0  0  0  0
   27.4589  -21.5598  -14.0889 C   0  0  0  0  0  0  0  0  0  0  0  0
   26.3117  -20.5859  -14.0333 C   0  0  2  0  0  0  0  0  0  0  0  0
   26.5781  -19.2562  -14.4281 N   0  0  0  0  0  0  0  0  0  0  0  0
   25.5927  -20.6109  -12.7559 C   0  0  0  0  0  0  0  0  0  0  0  0
   26.2487  -20.7571  -11.6892 O   0  0  0  0  0  0  0  0  0  0  0  0
   28.2604  -25.4356  -16.2375 N   0  0  0  0  0  0  0  0  0  0  0  0
   24.1811  -20.4744  -12.6980 C   0  0  1  0  0  0  0  0  0  0  0  0
   23.3858  -20.8718  -11.5283 C   0  0  0  0  0  0  0  0  0  0  0  0
   23.4554  -19.7051  -10.5724 C   0  0  0  0  0  0  0  0  0  0  0  0
   24.6526  -19.7017   -9.7158 C   0  0  0  0  0  0  0  0  0  0  0  0
   25.7102  -18.8428   -9.8718 C   0  0  0  0  0  0  0  0  0  0  0  0
   26.7773  -18.9256   -9.0051 C   0  0  0  0  0  0  0  0  0  0  0  0
   26.8109  -19.8575   -7.9758 C   0  0  0  0  0  0  0  0  0  0  0  0
   25.7569  -20.7124   -7.8218 C   0  0  0  0  0  0  0  0  0  0  0  0
   24.7042  -20.6177   -8.6906 C   0  0  0  0  0  0  0  0  0  0  0  0
   22.0246  -21.2476  -11.9093 O   0  0  0  0  0  0  0  0  0  0  0  0
   21.6310  -21.1022  -13.0873 O   0  0  0  0  0  0  0  0  0  0  0  0
  1  2  1  0
  2  3  2  0
  4  2  1  0
  4  5  1  0
  6  5  1  0
  6  7  1  6
  8  6  1  0
  8  9  2  0
 10 11  1  0
 11 13  1  0
 11 12  2  0
 13 14  1  0
 14 15  1  0
 15 16  1  0
 17 16  1  1
 17 18  1  0
 18  8  1  0
 19 17  1  0
 20 19  2  0
 21 19  1  0
 22 21  1  0
 22 23  1  1
 23 24  1  0
 24 25  2  0
 24 29  1  0
 25 26  1  0
 26 27  2  0
 28 27  1  0
 29 28  2  0
 30 22  1  0
 31 30  2  0
 32 30  1  0
M  END
$$$$
