QRF.pdb
     RDKit          3D

 32 32  0  0  1  0  0  0  0  0999 V2000
   30.4370  -19.8281  -19.2375 N   0  0  0  0  0  0  0  0  0  0  0  0
   29.8567  -21.1139  -19.1930 C   0  0  0  0  0  0  0  0  0  0  0  0
   30.2053  -21.9444  -20.0784 O   0  0  0  0  0  0  0  0  0  0  0  0
   28.8663  -21.5552  -18.1800 C   0  0  0  0  0  0  0  0  0  0  0  0
   28.6861  -20.4901  -17.1269 C   0  0  0  0  0  0  0  0  0  0  0  0
   28.6376  -21.0484  -15.7411 C   0  0  2  0  0  0  0  0  0  0  0  0
   28.2314  -22.4374  -15.8074 N   0  0  0  0  0  0  0  0  0  0  0  0
   27.8288  -20.2940  -14.7701 C   0  0  0  0  0  0  0  0  0  0  0  0
   27.5716  -19.0872  -15.0188 O   0  0  0  0  0  0  0  0  0  0  0  0
   23.2314  -23.2495  -15.0825 N   0  0  0  0  0  0  0  0  0  0  0  0
   22.0747  -22.6776  -14.4804 C   0  0  0  0  0  0  0  0  0  0  0  0
   21.1310  -23.4251  -14.0253 N   0  0  0  0  0  0  0  0  0  0  0  0
   21.9837  -21.2585  -14.3926 N   0  0  0  0  0  0  0  0  0  0  0  0
   23.1236  -20.4567  -14.7580 C   0  0  0  0  0  0  0  0  0  0  0  0
   24.3540  -20.8468  -13.9413 C   0  0  0  0  0  0  0  0  0  0  0  0
   25.1150  -19.6367  -13.4815 C   0  0  0  0  0  0  0  0  0  0  0  0
   26.3698  -20.0937  -12.7858 C   0  0  2  0  0  0  0  0  0  0  0  0
   27.3093  -20.8097  -13.5602 N   0  0  0  0  0  0  0  0  0  0  0  0
   26.1103  -20.7857  -11.5196 C   0  0  0  0  0  0  0  0  0  0  0  0
   26.0053  -22.0421  -11.5211 O   0  0  0  0  0  0  0  0  0  0  0  0
   20.2373  -22.9877  -13.7162 N   0  0  0  0  0  0  0  0  0  0  0  0
   25.9760  -20.0723  -10.2999 C   0  0  2  0  0  0  0  0  0  0  0  0
   25.6180  -20.7184   -9.0299 C   0  0  0  0  0  0  0  0  0  0  0  0
   26.0348  -19.7507   -7.9484 C   0  0  0  0  0  0  0  0  0  0  0  0
   27.4355  -19.8967   -7.5199 C   0  0  0  0  0  0  0  0  0  0  0  0
   28.2512  -20.9352   -7.8902 C   0  0  0  0  0  0  0  0  0  0  0  0
   29.5502  -20.9657   -7.4337 C   0  0  0  0  0  0  0  0  0  0  0  0
   30.0569  -19.9713   -6.6070 C   0  0  0  0  0  0  0  0  0  0  0  0
   29.2433  -18.9378   -6.2390 C   0  0  0  0  0  0  0  0  0  0  0  0
   27.9554  -18.9214   -6.7006 C   0  0  0  0  0  0  0  0  0  0  0  0
   24.2004  -21.0766   -8.9928 O   0  0  0  0  0  0  0  0  0  0  0  0
   23.4061  -20.6174   -9.8424 O   0  0  0  0  0  0  0  0  0  0  0  0
  1  2  1  0
  2  3  2  0
  4  2  1  0
  4  5  1  0
  6  5  1  0
  6  7  1  6
  8  6  1  0
  8  9  2  0
 10 11  1  0
 11 13  1  0
 11 12  2  0
 13 14  1  0
 14 15  1  0
 15 16  1  0
 17 16  1  6
 17 18  1  0
 18  8  1  0
 19 17  1  0
 20 19  2  0
 21 19  1  0
 22 21  1  0
 22 23  1  6
 23 24  1  0
 24 25  2  0
 24 29  1  0
 25 26  1  0
 26 27  2  0
 28 27  1  0
 29 28  2  0
 30 22  1  0
 31 30  2  0
 32 30  1  0
M  END
$$$$
