QRF.pdb
     RDKit          3D

 32 32  0  0  1  0  0  0  0  0999 V2000
   21.3848  -22.3945  -15.1668 N   0  0  0  0  0  0  0  0  0  0  0  0
   21.1748  -23.7700  -15.4036 C   0  0  0  0  0  0  0  0  0  0  0  0
   20.3232  -24.0898  -16.2797 O   0  0  0  0  0  0  0  0  0  0  0  0
   21.8839  -24.8635  -14.6942 C   0  0  0  0  0  0  0  0  0  0  0  0
   22.9118  -24.2927  -13.7489 C   0  0  0  0  0  0  0  0  0  0  0  0
   24.1251  -23.7786  -14.4546 C   0  0  2  0  0  0  0  0  0  0  0  0
   24.8033  -24.8880  -15.0934 N   0  0  0  0  0  0  0  0  0  0  0  0
   25.0514  -22.9743  -13.6415 C   0  0  0  0  0  0  0  0  0  0  0  0
   25.9902  -23.5659  -13.0474 O   0  0  0  0  0  0  0  0  0  0  0  0
   27.5344  -17.0525  -16.3113 N   0  0  0  0  0  0  0  0  0  0  0  0
   27.9272  -18.2794  -16.9180 C   0  0  0  0  0  0  0  0  0  0  0  0
   27.8706  -18.4308  -18.1948 N   0  0  0  0  0  0  0  0  0  0  0  0
   28.3845  -19.3374  -16.0806 N   0  0  0  0  0  0  0  0  0  0  0  0
   28.0379  -19.3275  -14.6822 C   0  0  0  0  0  0  0  0  0  0  0  0
   26.5224  -19.3173  -14.4919 C   0  0  0  0  0  0  0  0  0  0  0  0
   26.1497  -19.4176  -13.0407 C   0  0  0  0  0  0  0  0  0  0  0  0
   25.9360  -20.8684  -12.6987 C   0  0  2  0  0  0  0  0  0  0  0  0
   24.9784  -21.5737  -13.4605 N   0  0  0  0  0  0  0  0  0  0  0  0
   25.7285  -21.1007  -11.2660 C   0  0  0  0  0  0  0  0  0  0  0  0
   24.5501  -21.1775  -10.8246 O   0  0  0  0  0  0  0  0  0  0  0  0
   28.1216  -19.3523  -18.6113 N   0  0  0  0  0  0  0  0  0  0  0  0
   26.8225  -21.2400  -10.3725 C   0  0  2  0  0  0  0  0  0  0  0  0
   26.7368  -20.9069   -8.9441 C   0  0  0  0  0  0  0  0  0  0  0  0
   28.0980  -20.3731   -8.5675 C   0  0  0  0  0  0  0  0  0  0  0  0
   28.1934  -19.9005   -7.1766 C   0  0  0  0  0  0  0  0  0  0  0  0
   27.9779  -18.6036   -6.7862 C   0  0  0  0  0  0  0  0  0  0  0  0
   28.0880  -18.2755   -5.4532 C   0  0  0  0  0  0  0  0  0  0  0  0
   28.4120  -19.2246   -4.4922 C   0  0  0  0  0  0  0  0  0  0  0  0
   28.6264  -20.5157   -4.8826 C   0  0  0  0  0  0  0  0  0  0  0  0
   28.5133  -20.8261   -6.2103 C   0  0  0  0  0  0  0  0  0  0  0  0
   25.6392  -19.9780   -8.6762 O   0  0  0  0  0  0  0  0  0  0  0  0
   25.5425  -18.9070   -9.3144 O   0  0  0  0  0  0  0  0  0  0  0  0
  1  2  1  0
  2  3  2  0
  4  2  1  0
  4  5  1  0
  6  5  1  0
  6  7  1  1
  8  6  1  0
  8  9  2  0
 10 11  1  0
 11 13  1  0
 11 12  2  0
 13 14  1  0
 14 15  1  0
 15 16  1  0
 17 16  1  1
 17 18  1  0
 18  8  1  0
 19 17  1  0
 20 19  2  0
 21 19  1  0
 22 21  1  0
 22 23  1  6
 23 24  1  0
 24 25  2  0
 24 29  1  0
 25 26  1  0
 26 27  2  0
 28 27  1  0
 29 28  2  0
 30 22  1  0
 31 30  2  0
 32 30  1  0
M  END
$$$$
