QRF.pdb
     RDKit          3D

 32 32  0  0  1  0  0  0  0  0999 V2000
   28.9351  -17.5295  -17.2994 N   0  0  0  0  0  0  0  0  0  0  0  0
   28.4365  -16.2267  -17.0839 C   0  0  0  0  0  0  0  0  0  0  0  0
   28.8433  -15.3100  -17.8515 O   0  0  0  0  0  0  0  0  0  0  0  0
   27.4701  -15.8614  -16.0189 C   0  0  0  0  0  0  0  0  0  0  0  0
   27.1141  -17.0756  -15.1974 C   0  0  0  0  0  0  0  0  0  0  0  0
   25.9838  -17.8595  -15.7826 C   0  0  2  0  0  0  0  0  0  0  0  0
   24.8185  -17.0043  -15.8791 N   0  0  0  0  0  0  0  0  0  0  0  0
   25.6672  -19.1317  -15.1136 C   0  0  0  0  0  0  0  0  0  0  0  0
   24.7990  -19.1255  -14.2022 O   0  0  0  0  0  0  0  0  0  0  0  0
   30.3888  -23.9017  -16.4739 N   0  0  0  0  0  0  0  0  0  0  0  0
   29.5868  -25.0570  -16.2509 C   0  0  0  0  0  0  0  0  0  0  0  0
   30.0803  -26.1024  -15.6853 N   0  0  0  0  0  0  0  0  0  0  0  0
   28.2247  -25.0313  -16.6680 N   0  0  0  0  0  0  0  0  0  0  0  0
   27.6726  -23.8081  -17.1919 C   0  0  0  0  0  0  0  0  0  0  0  0
   27.5222  -22.7581  -16.0928 C   0  0  0  0  0  0  0  0  0  0  0  0
   26.1922  -22.8691  -15.4047 C   0  0  0  0  0  0  0  0  0  0  0  0
   25.8941  -21.5608  -14.7213 C   0  0  2  0  0  0  0  0  0  0  0  0
   26.2633  -20.3806  -15.4038 N   0  0  0  0  0  0  0  0  0  0  0  0
   26.3529  -21.5171  -13.3295 C   0  0  0  0  0  0  0  0  0  0  0  0
   27.5751  -21.7054  -13.0837 O   0  0  0  0  0  0  0  0  0  0  0  0
   29.4591  -26.9133  -15.4803 N   0  0  0  0  0  0  0  0  0  0  0  0
   25.4529  -21.2684  -12.2606 C   0  0  1  0  0  0  0  0  0  0  0  0
   25.8466  -21.3492  -10.8474 C   0  0  0  0  0  0  0  0  0  0  0  0
   27.0508  -20.4493  -10.7075 C   0  0  0  0  0  0  0  0  0  0  0  0
   27.5213  -20.2875   -9.3221 C   0  0  0  0  0  0  0  0  0  0  0  0
   27.1139  -19.2835   -8.4814 C   0  0  0  0  0  0  0  0  0  0  0  0
   27.6162  -19.2340   -7.2000 C   0  0  0  0  0  0  0  0  0  0  0  0
   28.5258  -20.1754   -6.7358 C   0  0  0  0  0  0  0  0  0  0  0  0
   28.9307  -21.1746   -7.5743 C   0  0  0  0  0  0  0  0  0  0  0  0
   28.4228  -21.2104   -8.8442 C   0  0  0  0  0  0  0  0  0  0  0  0
   24.7366  -20.9987   -9.9618 O   0  0  0  0  0  0  0  0  0  0  0  0
   24.7182  -21.3978   -8.7769 O   0  0  0  0  0  0  0  0  0  0  0  0
  1  2  1  0
  2  3  2  0
  4  2  1  0
  4  5  1  0
  6  5  1  0
  6  7  1  1
  8  6  1  0
  8  9  2  0
 10 11  1  0
 11 13  1  0
 11 12  2  0
 13 14  1  0
 14 15  1  0
 15 16  1  0
 17 16  1  6
 17 18  1  0
 18  8  1  0
 19 17  1  0
 20 19  2  0
 21 19  1  0
 22 21  1  0
 22 23  1  1
 23 24  1  0
 24 25  2  0
 24 29  1  0
 25 26  1  0
 26 27  2  0
 28 27  1  0
 29 28  2  0
 30 22  1  0
 31 30  2  0
 32 30  1  0
M  END
$$$$
