QRF.pdb
     RDKit          3D

 32 32  0  0  1  0  0  0  0  0999 V2000
   29.1105  -22.6505  -15.2815 N   0  0  0  0  0  0  0  0  0  0  0  0
   29.1478  -21.9744  -16.5200 C   0  0  0  0  0  0  0  0  0  0  0  0
   29.6050  -22.6021  -17.5160 O   0  0  0  0  0  0  0  0  0  0  0  0
   28.6887  -20.5792  -16.7307 C   0  0  0  0  0  0  0  0  0  0  0  0
   28.1399  -20.0099  -15.4460 C   0  0  0  0  0  0  0  0  0  0  0  0
   26.7026  -20.3569  -15.2264 C   0  0  2  0  0  0  0  0  0  0  0  0
   25.9378  -19.9511  -16.3878 N   0  0  0  0  0  0  0  0  0  0  0  0
   26.1013  -19.8548  -13.9803 C   0  0  0  0  0  0  0  0  0  0  0  0
   26.0783  -18.6109  -13.7890 O   0  0  0  0  0  0  0  0  0  0  0  0
   20.3836  -23.6631  -13.2047 N   0  0  0  0  0  0  0  0  0  0  0  0
   20.0536  -23.0587  -11.9584 C   0  0  0  0  0  0  0  0  0  0  0  0
   19.2828  -23.6574  -11.1194 N   0  0  0  0  0  0  0  0  0  0  0  0
   20.5951  -21.7753  -11.6593 N   0  0  0  0  0  0  0  0  0  0  0  0
   21.4878  -21.1515  -12.6025 C   0  0  0  0  0  0  0  0  0  0  0  0
   22.9446  -21.3244  -12.1772 C   0  0  0  0  0  0  0  0  0  0  0  0
   23.5181  -20.0424  -11.6459 C   0  0  0  0  0  0  0  0  0  0  0  0
   25.0176  -20.0976  -11.7729 C   0  0  2  0  0  0  0  0  0  0  0  0
   25.5416  -20.6571  -12.9592 N   0  0  0  0  0  0  0  0  0  0  0  0
   25.6774  -20.6717  -10.5962 C   0  0  0  0  0  0  0  0  0  0  0  0
   26.0413  -21.8784  -10.6286 O   0  0  0  0  0  0  0  0  0  0  0  0
   19.0689  -23.2015  -10.2073 N   0  0  0  0  0  0  0  0  0  0  0  0
   25.9126  -19.8994   -9.4288 C   0  0  2  0  0  0  0  0  0  0  0  0
   26.5593  -20.4426   -8.2266 C   0  0  0  0  0  0  0  0  0  0  0  0
   27.4819  -19.3541   -7.7327 C   0  0  0  0  0  0  0  0  0  0  0  0
   28.0314  -19.5972   -6.3889 C   0  0  0  0  0  0  0  0  0  0  0  0
   27.5286  -19.0452   -5.2385 C   0  0  0  0  0  0  0  0  0  0  0  0
   28.1200  -19.3493   -4.0325 C   0  0  0  0  0  0  0  0  0  0  0  0
   29.2138  -20.2013   -3.9501 C   0  0  0  0  0  0  0  0  0  0  0  0
   29.7135  -20.7501   -5.0967 C   0  0  0  0  0  0  0  0  0  0  0  0
   29.1151  -20.4386   -6.2870 C   0  0  0  0  0  0  0  0  0  0  0  0
   25.5727  -20.8789   -7.2390 O   0  0  0  0  0  0  0  0  0  0  0  0
   25.8871  -21.6917   -6.3422 O   0  0  0  0  0  0  0  0  0  0  0  0
  1  2  1  0
  2  3  2  0
  4  2  1  0
  4  5  1  0
  6  5  1  0
  6  7  1  6
  8  6  1  0
  8  9  2  0
 10 11  1  0
 11 13  1  0
 11 12  2  0
 13 14  1  0
 14 15  1  0
 15 16  1  0
 17 16  1  1
 17 18  1  0
 18  8  1  0
 19 17  1  0
 20 19  2  0
 21 19  1  0
 22 21  1  0
 22 23  1  1
 23 24  1  0
 24 25  2  0
 24 29  1  0
 25 26  1  0
 26 27  2  0
 28 27  1  0
 29 28  2  0
 30 22  1  0
 31 30  2  0
 32 30  1  0
M  END
$$$$
