QRF.pdb
     RDKit          3D

 32 32  0  0  1  0  0  0  0  0999 V2000
   27.4857  -18.2675  -21.5857 N   0  0  0  0  0  0  0  0  0  0  0  0
   26.2981  -18.0962  -20.8424 C   0  0  0  0  0  0  0  0  0  0  0  0
   25.2432  -17.8208  -21.4798 O   0  0  0  0  0  0  0  0  0  0  0  0
   26.2051  -18.2163  -19.3663 C   0  0  0  0  0  0  0  0  0  0  0  0
   27.5623  -18.5161  -18.7798 C   0  0  0  0  0  0  0  0  0  0  0  0
   27.5170  -18.7467  -17.3037 C   0  0  2  0  0  0  0  0  0  0  0  0
   28.8683  -18.9288  -16.8142 N   0  0  0  0  0  0  0  0  0  0  0  0
   26.6264  -19.8257  -16.8468 C   0  0  0  0  0  0  0  0  0  0  0  0
   25.3927  -19.5877  -16.7706 O   0  0  0  0  0  0  0  0  0  0  0  0
   23.8785  -27.0846  -14.9928 N   0  0  0  0  0  0  0  0  0  0  0  0
   23.3393  -26.9361  -16.3022 C   0  0  0  0  0  0  0  0  0  0  0  0
   22.1488  -27.3426  -16.5744 N   0  0  0  0  0  0  0  0  0  0  0  0
   24.1464  -26.3276  -17.3062 N   0  0  0  0  0  0  0  0  0  0  0  0
   25.3776  -25.6840  -16.9243 C   0  0  0  0  0  0  0  0  0  0  0  0
   25.1440  -24.2161  -16.5726 C   0  0  0  0  0  0  0  0  0  0  0  0
   26.4283  -23.5255  -16.2139 C   0  0  0  0  0  0  0  0  0  0  0  0
   26.1343  -22.0733  -15.9455 C   0  0  2  0  0  0  0  0  0  0  0  0
   27.0386  -21.1262  -16.4750 N   0  0  0  0  0  0  0  0  0  0  0  0
   25.8581  -21.7900  -14.5338 C   0  0  0  0  0  0  0  0  0  0  0  0
   26.7507  -22.0318  -13.6768 O   0  0  0  0  0  0  0  0  0  0  0  0
   21.8107  -27.3093  -17.5594 N   0  0  0  0  0  0  0  0  0  0  0  0
   24.6127  -21.2520  -14.1164 C   0  0  1  0  0  0  0  0  0  0  0  0
   24.2764  -21.0126  -12.7064 C   0  0  0  0  0  0  0  0  0  0  0  0
   25.0988  -19.8174  -12.2883 C   0  0  0  0  0  0  0  0  0  0  0  0
   26.5183  -20.1214  -12.0447 C   0  0  0  0  0  0  0  0  0  0  0  0
   27.5553  -19.5997  -12.7750 C   0  0  0  0  0  0  0  0  0  0  0  0
   28.8477  -19.9495  -12.4528 C   0  0  0  0  0  0  0  0  0  0  0  0
   29.1294  -20.8180  -11.4061 C   0  0  0  0  0  0  0  0  0  0  0  0
   28.0956  -21.3369  -10.6798 C   0  0  0  0  0  0  0  0  0  0  0  0
   26.8173  -20.9799  -11.0120 C   0  0  0  0  0  0  0  0  0  0  0  0
   22.8361  -20.8368  -12.5223 O   0  0  0  0  0  0  0  0  0  0  0  0
   22.3603  -20.6386  -11.3830 O   0  0  0  0  0  0  0  0  0  0  0  0
  1  2  1  0
  2  3  2  0
  4  2  1  0
  4  5  1  0
  6  5  1  0
  6  7  1  6
  8  6  1  0
  8  9  2  0
 10 11  1  0
 11 13  1  0
 11 12  2  0
 13 14  1  0
 14 15  1  0
 15 16  1  0
 17 16  1  1
 17 18  1  0
 18  8  1  0
 19 17  1  0
 20 19  2  0
 21 19  1  0
 22 21  1  0
 22 23  1  1
 23 24  1  0
 24 25  2  0
 24 29  1  0
 25 26  1  0
 26 27  2  0
 28 27  1  0
 29 28  2  0
 30 22  1  0
 31 30  2  0
 32 30  1  0
M  END
$$$$
