QRF.pdb
     RDKit          3D

 32 32  0  0  1  0  0  0  0  0999 V2000
   30.3521  -17.2734  -15.5986 N   0  0  0  0  0  0  0  0  0  0  0  0
   29.5374  -17.4347  -16.7398 C   0  0  0  0  0  0  0  0  0  0  0  0
   30.1102  -17.4997  -17.8635 O   0  0  0  0  0  0  0  0  0  0  0  0
   28.0570  -17.5318  -16.7094 C   0  0  0  0  0  0  0  0  0  0  0  0
   27.5667  -17.5962  -15.2842 C   0  0  0  0  0  0  0  0  0  0  0  0
   27.5375  -18.9898  -14.7444 C   0  0  2  0  0  0  0  0  0  0  0  0
   27.2733  -19.9101  -15.8316 N   0  0  0  0  0  0  0  0  0  0  0  0
   26.6322  -19.2219  -13.6073 C   0  0  0  0  0  0  0  0  0  0  0  0
   26.6397  -18.3922  -12.6608 O   0  0  0  0  0  0  0  0  0  0  0  0
   20.7493  -23.2286   -9.6931 N   0  0  0  0  0  0  0  0  0  0  0  0
   20.1038  -21.9614   -9.6221 C   0  0  0  0  0  0  0  0  0  0  0  0
   19.3718  -21.6507   -8.6102 N   0  0  0  0  0  0  0  0  0  0  0  0
   20.2853  -21.0435  -10.6966 N   0  0  0  0  0  0  0  0  0  0  0  0
   21.1883  -21.3831  -11.7667 C   0  0  0  0  0  0  0  0  0  0  0  0
   22.5575  -20.7402  -11.5549 C   0  0  0  0  0  0  0  0  0  0  0  0
   23.4655  -20.9818  -12.7262 C   0  0  0  0  0  0  0  0  0  0  0  0
   24.8192  -20.4017  -12.4126 C   0  0  2  0  0  0  0  0  0  0  0  0
   25.7428  -20.3136  -13.4776 N   0  0  0  0  0  0  0  0  0  0  0  0
   25.4478  -21.0040  -11.2329 C   0  0  0  0  0  0  0  0  0  0  0  0
   25.7934  -22.2157  -11.2772 O   0  0  0  0  0  0  0  0  0  0  0  0
   18.9518  -20.6987   -8.5569 N   0  0  0  0  0  0  0  0  0  0  0  0
   25.6730  -20.2533  -10.0495 C   0  0  2  0  0  0  0  0  0  0  0  0
   26.1552  -20.8556   -8.7992 C   0  0  0  0  0  0  0  0  0  0  0  0
   27.5678  -20.3525   -8.6224 C   0  0  0  0  0  0  0  0  0  0  0  0
   27.9665  -20.1648   -7.2179 C   0  0  0  0  0  0  0  0  0  0  0  0
   28.6268  -21.1066   -6.4710 C   0  0  0  0  0  0  0  0  0  0  0  0
   28.9569  -20.8190   -5.1653 C   0  0  0  0  0  0  0  0  0  0  0  0
   28.6383  -19.5985   -4.5837 C   0  0  0  0  0  0  0  0  0  0  0  0
   27.9806  -18.6616   -5.3288 C   0  0  0  0  0  0  0  0  0  0  0  0
   27.6596  -18.9621   -6.6244 C   0  0  0  0  0  0  0  0  0  0  0  0
   25.2686  -20.5438   -7.6784 O   0  0  0  0  0  0  0  0  0  0  0  0
   24.4744  -19.5803   -7.7449 O   0  0  0  0  0  0  0  0  0  0  0  0
  1  2  1  0
  2  3  2  0
  4  2  1  0
  4  5  1  0
  6  5  1  0
  6  7  1  6
  8  6  1  0
  8  9  2  0
 10 11  1  0
 11 13  1  0
 11 12  2  0
 13 14  1  0
 14 15  1  0
 15 16  1  0
 17 16  1  6
 17 18  1  0
 18  8  1  0
 19 17  1  0
 20 19  2  0
 21 19  1  0
 22 21  1  0
 22 23  1  6
 23 24  1  0
 24 25  2  0
 24 29  1  0
 25 26  1  0
 26 27  2  0
 28 27  1  0
 29 28  2  0
 30 22  1  0
 31 30  2  0
 32 30  1  0
M  END
$$$$
