QRF.pdb
     RDKit          3D

 32 32  0  0  1  0  0  0  0  0999 V2000
   25.6823   -9.9524  -15.1289 N   0  0  0  0  0  0  0  0  0  0  0  0
   25.2066  -11.1803  -15.6371 C   0  0  0  0  0  0  0  0  0  0  0  0
   26.0271  -12.1369  -15.7197 O   0  0  0  0  0  0  0  0  0  0  0  0
   23.8117  -11.4230  -16.0811 C   0  0  0  0  0  0  0  0  0  0  0  0
   22.9494  -10.2238  -15.7739 C   0  0  0  0  0  0  0  0  0  0  0  0
   21.5355  -10.3959  -16.2272 C   0  0  2  0  0  0  0  0  0  0  0  0
   21.5041  -10.4099  -17.6755 N   0  0  0  0  0  0  0  0  0  0  0  0
   20.5605   -9.4420  -15.6743 C   0  0  0  0  0  0  0  0  0  0  0  0
   20.7325   -8.2158  -15.9008 O   0  0  0  0  0  0  0  0  0  0  0  0
   12.6254   -9.4647  -16.7136 N   0  0  0  0  0  0  0  0  0  0  0  0
   13.4385  -10.4360  -16.0632 C   0  0  0  0  0  0  0  0  0  0  0  0
   12.9473  -11.5679  -15.6972 N   0  0  0  0  0  0  0  0  0  0  0  0
   14.8090  -10.1278  -15.8253 N   0  0  0  0  0  0  0  0  0  0  0  0
   15.3805   -8.9516  -16.4300 C   0  0  0  0  0  0  0  0  0  0  0  0
   16.8640   -8.8243  -16.0892 C   0  0  0  0  0  0  0  0  0  0  0  0
   17.1019   -8.9526  -14.6121 C   0  0  0  0  0  0  0  0  0  0  0  0
   18.5766   -8.8011  -14.3479 C   0  0  2  0  0  0  0  0  0  0  0  0
   19.4314   -9.7836  -14.8946 N   0  0  0  0  0  0  0  0  0  0  0  0
   18.8908   -8.5724  -12.9342 C   0  0  0  0  0  0  0  0  0  0  0  0
   19.0215   -9.5663  -12.1696 O   0  0  0  0  0  0  0  0  0  0  0  0
   13.5628  -12.2621  -15.2229 N   0  0  0  0  0  0  0  0  0  0  0  0
   19.0496   -7.2615  -12.4138 C   0  0  2  0  0  0  0  0  0  0  0  0
   19.3042   -6.9900  -10.9925 C   0  0  0  0  0  0  0  0  0  0  0  0
   20.7407   -6.5315  -10.9158 C   0  0  0  0  0  0  0  0  0  0  0  0
   21.1285   -5.5922  -11.9808 C   0  0  0  0  0  0  0  0  0  0  0  0
   21.8446   -5.9438  -13.0964 C   0  0  0  0  0  0  0  0  0  0  0  0
   22.1456   -4.9805  -14.0334 C   0  0  0  0  0  0  0  0  0  0  0  0
   21.7427   -3.6603  -13.8785 C   0  0  0  0  0  0  0  0  0  0  0  0
   21.0297   -3.3117  -12.7669 C   0  0  0  0  0  0  0  0  0  0  0  0
   20.7384   -4.2799  -11.8451 C   0  0  0  0  0  0  0  0  0  0  0  0
   18.3439   -6.0287  -10.4510 O   0  0  0  0  0  0  0  0  0  0  0  0
   17.5726   -5.4036  -11.2111 O   0  0  0  0  0  0  0  0  0  0  0  0
  1  2  1  0
  2  3  2  0
  4  2  1  0
  4  5  1  0
  6  5  1  0
  6  7  1  6
  8  6  1  0
  8  9  2  0
 10 11  1  0
 11 13  1  0
 11 12  2  0
 13 14  1  0
 14 15  1  0
 15 16  1  0
 17 16  1  1
 17 18  1  0
 18  8  1  0
 19 17  1  0
 20 19  2  0
 21 19  1  0
 22 21  1  0
 22 23  1  6
 23 24  1  0
 24 25  2  0
 24 29  1  0
 25 26  1  0
 26 27  2  0
 28 27  1  0
 29 28  2  0
 30 22  1  0
 31 30  2  0
 32 30  1  0
M  END
$$$$
