QRF.pdb
     RDKit          3D

 32 32  0  0  1  0  0  0  0  0999 V2000
   29.2491  -23.2605  -15.0858 N   0  0  0  0  0  0  0  0  0  0  0  0
   29.4928  -22.3492  -16.1357 C   0  0  0  0  0  0  0  0  0  0  0  0
   30.1235  -22.7733  -17.1443 O   0  0  0  0  0  0  0  0  0  0  0  0
   29.0604  -20.9297  -16.1347 C   0  0  0  0  0  0  0  0  0  0  0  0
   28.3352  -20.6053  -14.8522 C   0  0  0  0  0  0  0  0  0  0  0  0
   26.9978  -19.9797  -15.0857 C   0  0  2  0  0  0  0  0  0  0  0  0
   27.1751  -18.7610  -15.8485 N   0  0  0  0  0  0  0  0  0  0  0  0
   26.1742  -19.7526  -13.8872 C   0  0  0  0  0  0  0  0  0  0  0  0
   26.3450  -18.6865  -13.2403 O   0  0  0  0  0  0  0  0  0  0  0  0
   20.7759  -23.8691  -13.9103 N   0  0  0  0  0  0  0  0  0  0  0  0
   20.5270  -23.3873  -12.5937 C   0  0  0  0  0  0  0  0  0  0  0  0
   20.1477  -24.1878  -11.6599 N   0  0  0  0  0  0  0  0  0  0  0  0
   20.7065  -21.9985  -12.3315 N   0  0  0  0  0  0  0  0  0  0  0  0
   21.0100  -21.1099  -13.4242 C   0  0  0  0  0  0  0  0  0  0  0  0
   22.4938  -20.7480  -13.4422 C   0  0  0  0  0  0  0  0  0  0  0  0
   23.0908  -20.8065  -12.0657 C   0  0  0  0  0  0  0  0  0  0  0  0
   24.5418  -20.4138  -12.1540 C   0  0  2  0  0  0  0  0  0  0  0  0
   25.1950  -20.6409  -13.3855 N   0  0  0  0  0  0  0  0  0  0  0  0
   25.3481  -20.9232  -11.0405 C   0  0  0  0  0  0  0  0  0  0  0  0
   25.9296  -22.0347  -11.1666 O   0  0  0  0  0  0  0  0  0  0  0  0
   20.0699  -23.8327  -10.6835 N   0  0  0  0  0  0  0  0  0  0  0  0
   25.4853  -20.1932   -9.8310 C   0  0  2  0  0  0  0  0  0  0  0  0
   26.2410  -20.6943   -8.6750 C   0  0  0  0  0  0  0  0  0  0  0  0
   27.1994  -19.5883   -8.3037 C   0  0  0  0  0  0  0  0  0  0  0  0
   27.9037  -19.8071   -7.0298 C   0  0  0  0  0  0  0  0  0  0  0  0
   28.9607  -20.6664   -6.8704 C   0  0  0  0  0  0  0  0  0  0  0  0
   29.5489  -20.7863   -5.6310 C   0  0  0  0  0  0  0  0  0  0  0  0
   29.0995  -20.0591   -4.5363 C   0  0  0  0  0  0  0  0  0  0  0  0
   28.0467  -19.2039   -4.6965 C   0  0  0  0  0  0  0  0  0  0  0  0
   27.4729  -19.0956   -5.9338 C   0  0  0  0  0  0  0  0  0  0  0  0
   25.3500  -21.0985   -7.5877 O   0  0  0  0  0  0  0  0  0  0  0  0
   25.7851  -21.7657   -6.6238 O   0  0  0  0  0  0  0  0  0  0  0  0
  1  2  1  0
  2  3  2  0
  4  2  1  0
  4  5  1  0
  6  5  1  0
  6  7  1  1
  8  6  1  0
  8  9  2  0
 10 11  1  0
 11 13  1  0
 11 12  2  0
 13 14  1  0
 14 15  1  0
 15 16  1  0
 17 16  1  6
 17 18  1  0
 18  8  1  0
 19 17  1  0
 20 19  2  0
 21 19  1  0
 22 21  1  0
 22 23  1  1
 23 24  1  0
 24 25  2  0
 24 29  1  0
 25 26  1  0
 26 27  2  0
 28 27  1  0
 29 28  2  0
 30 22  1  0
 31 30  2  0
 32 30  1  0
M  END
$$$$
