QRF.pdb
     RDKit          3D

 32 32  0  0  1  0  0  0  0  0999 V2000
   26.0253  -16.7601  -16.7785 N   0  0  0  0  0  0  0  0  0  0  0  0
   27.2743  -17.2106  -17.2573 C   0  0  0  0  0  0  0  0  0  0  0  0
   27.4714  -17.1728  -18.5042 O   0  0  0  0  0  0  0  0  0  0  0  0
   28.3686  -17.7255  -16.3975 C   0  0  0  0  0  0  0  0  0  0  0  0
   27.9649  -17.6646  -14.9452 C   0  0  0  0  0  0  0  0  0  0  0  0
   27.8984  -19.0140  -14.3057 C   0  0  2  0  0  0  0  0  0  0  0  0
   27.6334  -20.0064  -15.3274 N   0  0  0  0  0  0  0  0  0  0  0  0
   26.9700  -19.1447  -13.1711 C   0  0  0  0  0  0  0  0  0  0  0  0
   27.0187  -18.2789  -12.2588 O   0  0  0  0  0  0  0  0  0  0  0  0
   19.1091  -22.4787  -11.6488 N   0  0  0  0  0  0  0  0  0  0  0  0
   19.8010  -21.7797  -12.6784 C   0  0  0  0  0  0  0  0  0  0  0  0
   19.3060  -21.6930  -13.8632 N   0  0  0  0  0  0  0  0  0  0  0  0
   21.0548  -21.1778  -12.3691 N   0  0  0  0  0  0  0  0  0  0  0  0
   21.5773  -21.2893  -11.0311 C   0  0  0  0  0  0  0  0  0  0  0  0
   22.9333  -20.5964  -10.9114 C   0  0  0  0  0  0  0  0  0  0  0  0
   23.7629  -20.7943  -12.1473 C   0  0  0  0  0  0  0  0  0  0  0  0
   25.1273  -20.2031  -11.9100 C   0  0  2  0  0  0  0  0  0  0  0  0
   26.0151  -20.1748  -13.0081 N   0  0  0  0  0  0  0  0  0  0  0  0
   25.7937  -20.7439  -10.7213 C   0  0  0  0  0  0  0  0  0  0  0  0
   26.2048  -21.9356  -10.7413 O   0  0  0  0  0  0  0  0  0  0  0  0
   19.8526  -21.2164  -14.6113 N   0  0  0  0  0  0  0  0  0  0  0  0
   25.9835  -19.9560   -9.5560 C   0  0  2  0  0  0  0  0  0  0  0  0
   26.5657  -20.4879   -8.3164 C   0  0  0  0  0  0  0  0  0  0  0  0
   27.6223  -19.4920   -7.9021 C   0  0  0  0  0  0  0  0  0  0  0  0
   28.2367  -19.7778   -6.5953 C   0  0  0  0  0  0  0  0  0  0  0  0
   29.1166  -20.8042   -6.3645 C   0  0  0  0  0  0  0  0  0  0  0  0
   29.6357  -20.9735   -5.1002 C   0  0  0  0  0  0  0  0  0  0  0  0
   29.2912  -20.1312   -4.0509 C   0  0  0  0  0  0  0  0  0  0  0  0
   28.4148  -19.1096   -4.2823 C   0  0  0  0  0  0  0  0  0  0  0  0
   27.9078  -18.9542   -5.5435 C   0  0  0  0  0  0  0  0  0  0  0  0
   25.5395  -20.7226   -7.3009 O   0  0  0  0  0  0  0  0  0  0  0  0
   24.4473  -20.1156   -7.3486 O   0  0  0  0  0  0  0  0  0  0  0  0
  1  2  1  0
  2  3  2  0
  4  2  1  0
  4  5  1  0
  6  5  1  0
  6  7  1  6
  8  6  1  0
  8  9  2  0
 10 11  1  0
 11 13  1  0
 11 12  2  0
 13 14  1  0
 14 15  1  0
 15 16  1  0
 17 16  1  6
 17 18  1  0
 18  8  1  0
 19 17  1  0
 20 19  2  0
 21 19  1  0
 22 21  1  0
 22 23  1  6
 23 24  1  0
 24 25  2  0
 24 29  1  0
 25 26  1  0
 26 27  2  0
 28 27  1  0
 29 28  2  0
 30 22  1  0
 31 30  2  0
 32 30  1  0
M  END
$$$$
