QRF.pdb
     RDKit          3D

 32 32  0  0  1  0  0  0  0  0999 V2000
   19.1017  -14.3229  -18.0777 N   0  0  0  0  0  0  0  0  0  0  0  0
   20.3154  -13.7132  -17.6935 C   0  0  0  0  0  0  0  0  0  0  0  0
   20.2900  -12.4807  -17.4190 O   0  0  0  0  0  0  0  0  0  0  0  0
   21.6162  -14.4197  -17.5916 C   0  0  0  0  0  0  0  0  0  0  0  0
   21.4699  -15.8518  -18.0429 C   0  0  0  0  0  0  0  0  0  0  0  0
   22.7637  -16.4538  -18.4878 C   0  0  2  0  0  0  0  0  0  0  0  0
   22.7241  -16.6465  -19.9230 N   0  0  0  0  0  0  0  0  0  0  0  0
   23.1781  -17.6808  -17.7885 C   0  0  0  0  0  0  0  0  0  0  0  0
   22.4749  -18.7149  -17.9324 O   0  0  0  0  0  0  0  0  0  0  0  0
   27.7437  -20.0919  -11.9541 N   0  0  0  0  0  0  0  0  0  0  0  0
   27.5539  -21.4578  -12.3086 C   0  0  0  0  0  0  0  0  0  0  0  0
   27.3098  -22.3444  -11.4081 N   0  0  0  0  0  0  0  0  0  0  0  0
   27.6402  -21.8231  -13.6830 N   0  0  0  0  0  0  0  0  0  0  0  0
   27.5678  -20.7950  -14.6898 C   0  0  0  0  0  0  0  0  0  0  0  0
   26.1254  -20.3443  -14.9120 C   0  0  0  0  0  0  0  0  0  0  0  0
   26.0224  -19.3729  -16.0524 C   0  0  0  0  0  0  0  0  0  0  0  0
   24.5775  -18.9855  -16.2247 C   0  0  2  0  0  0  0  0  0  0  0  0
   24.3114  -17.8043  -16.9519 N   0  0  0  0  0  0  0  0  0  0  0  0
   23.8206  -19.0002  -14.9692 C   0  0  0  0  0  0  0  0  0  0  0  0
   24.0856  -18.1396  -14.0868 O   0  0  0  0  0  0  0  0  0  0  0  0
   27.1620  -23.3354  -11.6941 N   0  0  0  0  0  0  0  0  0  0  0  0
   22.8018  -19.9591  -14.7300 C   0  0  1  0  0  0  0  0  0  0  0  0
   22.2283  -20.2027  -13.3995 C   0  0  0  0  0  0  0  0  0  0  0  0
   21.5124  -18.9273  -13.0243 C   0  0  0  0  0  0  0  0  0  0  0  0
   20.7440  -19.0167  -11.7719 C   0  0  0  0  0  0  0  0  0  0  0  0
   21.3040  -18.9949  -10.5201 C   0  0  0  0  0  0  0  0  0  0  0  0
   20.4856  -19.0784   -9.4157 C   0  0  0  0  0  0  0  0  0  0  0  0
   19.1059  -19.1843   -9.5360 C   0  0  0  0  0  0  0  0  0  0  0  0
   18.5497  -19.2061  -10.7832 C   0  0  0  0  0  0  0  0  0  0  0  0
   19.3758  -19.1222  -11.8706 C   0  0  0  0  0  0  0  0  0  0  0  0
   21.3719  -21.3884  -13.3948 O   0  0  0  0  0  0  0  0  0  0  0  0
   21.2369  -22.0710  -12.3558 O   0  0  0  0  0  0  0  0  0  0  0  0
  1  2  1  0
  2  3  2  0
  4  2  1  0
  4  5  1  0
  6  5  1  0
  6  7  1  6
  8  6  1  0
  8  9  2  0
 10 11  1  0
 11 13  1  0
 11 12  2  0
 13 14  1  0
 14 15  1  0
 15 16  1  0
 17 16  1  1
 17 18  1  0
 18  8  1  0
 19 17  1  0
 20 19  2  0
 21 19  1  0
 22 21  1  0
 22 23  1  6
 23 24  1  0
 24 25  2  0
 24 29  1  0
 25 26  1  0
 26 27  2  0
 28 27  1  0
 29 28  2  0
 30 22  1  0
 31 30  2  0
 32 30  1  0
M  END
$$$$
