RQH.pdb
     RDKit          3D

 31 31  0  0  1  0  0  0  0  0999 V2000
    8.6648  -15.1128   15.3318 N   0  0  0  0  0  0  0  0  0  0  0  0
    9.1613  -16.3714   15.7741 C   0  0  0  0  0  0  0  0  0  0  0  0
   10.1251  -16.9639   15.1415 N   0  0  0  0  0  0  0  0  0  0  0  0
    8.5549  -16.9439   16.9340 N   0  0  0  0  0  0  0  0  0  0  0  0
    7.5658  -16.1921   17.6469 C   0  0  0  0  0  0  0  0  0  0  0  0
    8.2285  -15.0501   18.3990 C   0  0  0  0  0  0  0  0  0  0  0  0
    7.1344  -14.3564   19.1858 C   0  0  0  0  0  0  0  0  0  0  0  0
    7.6658  -13.0984   19.8573 C   0  0  2  0  0  0  0  0  0  0  0  0
    8.2236  -12.2445   18.8620 N   0  0  0  0  0  0  0  0  0  0  0  0
    8.6324  -13.5201   20.8871 C   0  0  0  0  0  0  0  0  0  0  0  0
    9.8585  -13.2596   20.8455 O   0  0  0  0  0  0  0  0  0  0  0  0
   10.4267  -17.9097   15.4196 N   0  0  0  0  0  0  0  0  0  0  0  0
    5.6582  -12.8079   25.8308 C   0  0  0  0  0  0  0  0  0  0  0  0
    6.8829  -13.0191   26.4994 O   0  0  0  0  0  0  0  0  0  0  0  0
    7.0089  -12.7955   27.7092 C   0  0  0  0  0  0  0  0  0  0  0  0
    8.0584  -13.5262   25.7264 C   0  0  0  0  0  0  0  0  0  0  0  0
    7.6488  -13.6738   24.2929 C   0  0  1  0  0  0  0  0  0  0  0  0
    8.7162  -14.0816   23.3353 N   0  0  0  0  0  0  0  0  0  0  0  0
    8.1527  -14.2657   21.9944 C   0  0  0  0  0  0  0  0  0  0  0  0
    9.4183  -15.3412   23.6555 O   0  0  0  0  0  0  0  0  0  0  0  0
    9.9502  -15.5163   24.8175 N   0  0  0  0  0  0  0  0  0  0  0  0
    9.5777  -16.4457   22.7797 C   0  0  2  0  0  0  0  0  0  0  0  0
   10.3330  -17.6538   23.2061 C   0  0  0  0  0  0  0  0  0  0  0  0
   11.1944  -18.1170   22.0562 C   0  0  0  0  0  0  0  0  0  0  0  0
   10.4036  -18.2954   20.8282 C   0  0  0  0  0  0  0  0  0  0  0  0
    9.1995  -19.0211   20.8437 N   0  0  0  0  0  0  0  0  0  0  0  0
    8.7292  -19.0006   19.5873 C   0  0  0  0  0  0  0  0  0  0  0  0
    9.5550  -18.3142   18.7926 N   0  0  0  0  0  0  0  0  0  0  0  0
   10.5588  -17.8998   19.5713 C   0  0  0  0  0  0  0  0  0  0  0  0
   11.0877  -17.2538   24.4011 O   0  0  0  0  0  0  0  0  0  0  0  0
   11.1842  -16.0269   24.7551 O   0  0  0  0  0  0  0  0  0  0  0  0
  2  1  1  0
  3  2  2  0
  4  2  1  0
  5  4  1  0
  6  5  1  0
  6  7  1  0
  8  7  1  0
  8  9  1  6
 10  8  1  0
 10 11  2  0
 13 12  1  0
 13 14  2  0
 15 16  1  0
 15 13  1  0
 17 16  1  6
 17 18  1  0
 18 10  1  0
 19 17  1  0
 19 21  1  0
 20 19  2  0
 22 21  1  0
 22 23  1  6
 23 24  1  0
 24 28  1  0
 25 24  2  0
 25 26  1  0
 26 27  1  0
 28 27  2  0
 29 22  1  0
 30 29  2  0
 31 29  1  0
M  END
$$$$
