RQH.pdb
     RDKit          3D

 31 31  0  0  1  0  0  0  0  0999 V2000
    7.5740  -17.2927   14.7927 N   0  0  0  0  0  0  0  0  0  0  0  0
    8.7641  -16.7909   14.1943 C   0  0  0  0  0  0  0  0  0  0  0  0
    9.6531  -17.5985   13.7066 N   0  0  0  0  0  0  0  0  0  0  0  0
    8.9309  -15.3726   14.1568 N   0  0  0  0  0  0  0  0  0  0  0  0
    7.9798  -14.5406   14.8313 C   0  0  0  0  0  0  0  0  0  0  0  0
    8.1981  -14.6198   16.3330 C   0  0  0  0  0  0  0  0  0  0  0  0
    8.5025  -13.2109   16.8019 C   0  0  0  0  0  0  0  0  0  0  0  0
    8.7753  -13.1863   18.2988 C   0  0  2  0  0  0  0  0  0  0  0  0
    9.0959  -11.8532   18.6877 N   0  0  0  0  0  0  0  0  0  0  0  0
    9.8498  -14.1583   18.5697 C   0  0  0  0  0  0  0  0  0  0  0  0
    9.7636  -15.3847   18.3223 O   0  0  0  0  0  0  0  0  0  0  0  0
   10.4916  -17.2273   13.2357 N   0  0  0  0  0  0  0  0  0  0  0  0
   15.1584  -14.0443   17.1626 C   0  0  0  0  0  0  0  0  0  0  0  0
   15.5798  -14.7200   18.3276 O   0  0  0  0  0  0  0  0  0  0  0  0
   16.6570  -15.3257   18.3729 C   0  0  0  0  0  0  0  0  0  0  0  0
   14.7021  -14.7036   19.5384 C   0  0  0  0  0  0  0  0  0  0  0  0
   13.4708  -13.9140   19.2147 C   0  0  1  0  0  0  0  0  0  0  0  0
   12.1649  -14.5952   19.4446 N   0  0  0  0  0  0  0  0  0  0  0  0
   11.0564  -13.6837   19.1449 C   0  0  0  0  0  0  0  0  0  0  0  0
   11.9282  -15.0817   20.8191 O   0  0  0  0  0  0  0  0  0  0  0  0
   12.4074  -14.4412   21.8311 N   0  0  0  0  0  0  0  0  0  0  0  0
   11.1857  -16.2379   21.1717 C   0  0  1  0  0  0  0  0  0  0  0  0
   11.0551  -16.6559   22.5930 C   0  0  0  0  0  0  0  0  0  0  0  0
    9.6660  -17.2057   22.8101 C   0  0  0  0  0  0  0  0  0  0  0  0
    8.6352  -16.1987   22.5123 C   0  0  0  0  0  0  0  0  0  0  0  0
    8.7368  -14.8903   23.0167 N   0  0  0  0  0  0  0  0  0  0  0  0
    7.6575  -14.2287   22.5724 C   0  0  0  0  0  0  0  0  0  0  0  0
    6.8928  -15.0325   21.8282 N   0  0  0  0  0  0  0  0  0  0  0  0
    7.5099  -16.2177   21.8098 C   0  0  0  0  0  0  0  0  0  0  0  0
   12.1310  -17.6284   22.8254 O   0  0  0  0  0  0  0  0  0  0  0  0
   12.3335  -18.1427   23.9806 O   0  0  0  0  0  0  0  0  0  0  0  0
  2  1  1  0
  3  2  2  0
  4  2  1  0
  5  4  1  0
  6  5  1  0
  6  7  1  0
  8  7  1  0
  8  9  1  6
 10  8  1  0
 10 11  2  0
 13 12  1  0
 13 14  2  0
 15 16  1  0
 15 13  1  0
 17 16  1  6
 17 18  1  0
 18 10  1  0
 19 17  1  0
 19 21  1  0
 20 19  2  0
 22 21  1  0
 22 23  1  1
 23 24  1  0
 24 28  1  0
 25 24  2  0
 25 26  1  0
 26 27  1  0
 28 27  2  0
 29 22  1  0
 30 29  2  0
 31 29  1  0
M  END
$$$$
