RQH.pdb
     RDKit          3D

 31 31  0  0  1  0  0  0  0  0999 V2000
    5.6282  -21.0031   20.0009 N   0  0  0  0  0  0  0  0  0  0  0  0
    7.0330  -21.1657   20.1632 C   0  0  0  0  0  0  0  0  0  0  0  0
    7.5587  -22.3474   20.2497 N   0  0  0  0  0  0  0  0  0  0  0  0
    7.8270  -19.9796   20.2255 N   0  0  0  0  0  0  0  0  0  0  0  0
    7.1748  -18.7045   20.2499 C   0  0  0  0  0  0  0  0  0  0  0  0
    8.2093  -17.5979   20.3692 C   0  0  0  0  0  0  0  0  0  0  0  0
    7.4426  -16.2914   20.4214 C   0  0  0  0  0  0  0  0  0  0  0  0
    8.3961  -15.1073   20.4892 C   0  0  2  0  0  0  0  0  0  0  0  0
    9.4165  -15.2797   19.5093 N   0  0  0  0  0  0  0  0  0  0  0  0
    8.9064  -15.0273   21.8697 C   0  0  0  0  0  0  0  0  0  0  0  0
   10.1044  -15.2208   22.1860 O   0  0  0  0  0  0  0  0  0  0  0  0
    8.5675  -22.4568   20.4312 N   0  0  0  0  0  0  0  0  0  0  0  0
    5.4376  -12.4005   26.2558 C   0  0  0  0  0  0  0  0  0  0  0  0
    6.5921  -12.6100   27.0397 O   0  0  0  0  0  0  0  0  0  0  0  0
    6.6891  -12.1568   28.1863 C   0  0  0  0  0  0  0  0  0  0  0  0
    7.7274  -13.3996   26.4704 C   0  0  0  0  0  0  0  0  0  0  0  0
    7.4070  -13.7190   25.0422 C   0  0  1  0  0  0  0  0  0  0  0  0
    8.4542  -14.4506   24.2737 N   0  0  0  0  0  0  0  0  0  0  0  0
    7.9917  -14.7130   22.9075 C   0  0  0  0  0  0  0  0  0  0  0  0
    8.8555  -15.7614   24.8238 O   0  0  0  0  0  0  0  0  0  0  0  0
    8.5322  -16.8524   24.2162 N   0  0  0  0  0  0  0  0  0  0  0  0
    9.6044  -15.9668   26.0110 C   0  0  1  0  0  0  0  0  0  0  0  0
   10.3790  -17.2196   26.2165 C   0  0  0  0  0  0  0  0  0  0  0  0
   11.7017  -17.0938   25.5000 C   0  0  0  0  0  0  0  0  0  0  0  0
   11.6759  -17.7770   24.1971 C   0  0  0  0  0  0  0  0  0  0  0  0
   10.4963  -18.3728   23.7173 N   0  0  0  0  0  0  0  0  0  0  0  0
   10.7991  -18.9032   22.5227 C   0  0  0  0  0  0  0  0  0  0  0  0
   12.0824  -18.6795   22.2262 N   0  0  0  0  0  0  0  0  0  0  0  0
   12.5870  -17.9961   23.2578 C   0  0  0  0  0  0  0  0  0  0  0  0
   10.4954  -17.3849   27.6714 O   0  0  0  0  0  0  0  0  0  0  0  0
   10.2028  -16.4366   28.4807 O   0  0  0  0  0  0  0  0  0  0  0  0
  2  1  1  0
  3  2  2  0
  4  2  1  0
  5  4  1  0
  6  5  1  0
  6  7  1  0
  8  7  1  0
  8  9  1  6
 10  8  1  0
 10 11  2  0
 13 12  1  0
 13 14  2  0
 15 16  1  0
 15 13  1  0
 17 16  1  6
 17 18  1  0
 18 10  1  0
 19 17  1  0
 19 21  1  0
 20 19  2  0
 22 21  1  0
 22 23  1  1
 23 24  1  0
 24 28  1  0
 25 24  2  0
 25 26  1  0
 26 27  1  0
 28 27  2  0
 29 22  1  0
 30 29  2  0
 31 29  1  0
M  END
$$$$
