RQH.pdb
     RDKit          3D

 31 31  0  0  1  0  0  0  0  0999 V2000
   15.0896  -15.1735   18.2457 N   0  0  0  0  0  0  0  0  0  0  0  0
   14.1501  -14.6377   19.1712 C   0  0  0  0  0  0  0  0  0  0  0  0
   14.3518  -14.7275   20.4485 N   0  0  0  0  0  0  0  0  0  0  0  0
   12.9884  -14.0040   18.6328 N   0  0  0  0  0  0  0  0  0  0  0  0
   12.0267  -13.4341   19.5284 C   0  0  0  0  0  0  0  0  0  0  0  0
   10.6864  -14.1291   19.3571 C   0  0  0  0  0  0  0  0  0  0  0  0
   10.9869  -15.5497   18.9222 C   0  0  0  0  0  0  0  0  0  0  0  0
    9.7001  -16.3329   18.7069 C   0  0  2  0  0  0  0  0  0  0  0  0
    8.9959  -15.7694   17.6034 N   0  0  0  0  0  0  0  0  0  0  0  0
    8.9445  -16.3007   19.9721 C   0  0  0  0  0  0  0  0  0  0  0  0
    7.7000  -16.1619   20.0414 O   0  0  0  0  0  0  0  0  0  0  0  0
   15.1702  -15.2383   20.8120 N   0  0  0  0  0  0  0  0  0  0  0  0
    7.4336  -20.6833   21.3773 C   0  0  0  0  0  0  0  0  0  0  0  0
    7.3200  -20.3748   22.7497 O   0  0  0  0  0  0  0  0  0  0  0  0
    6.7858  -21.1537   23.5479 C   0  0  0  0  0  0  0  0  0  0  0  0
    7.8590  -19.0734   23.2522 C   0  0  0  0  0  0  0  0  0  0  0  0
    8.4553  -18.3339   22.0937 C   0  0  1  0  0  0  0  0  0  0  0  0
    9.0289  -16.9897   22.3875 N   0  0  0  0  0  0  0  0  0  0  0  0
    9.6629  -16.4344   21.1879 C   0  0  0  0  0  0  0  0  0  0  0  0
   10.0592  -16.9490   23.4452 O   0  0  0  0  0  0  0  0  0  0  0  0
   10.9630  -17.8668   23.5135 N   0  0  0  0  0  0  0  0  0  0  0  0
   10.1762  -15.9534   24.4491 C   0  0  2  0  0  0  0  0  0  0  0  0
    9.6190  -16.1742   25.8102 C   0  0  0  0  0  0  0  0  0  0  0  0
    8.1267  -16.3708   25.6963 C   0  0  0  0  0  0  0  0  0  0  0  0
    7.4163  -15.0834   25.6393 C   0  0  0  0  0  0  0  0  0  0  0  0
    8.1237  -13.8685   25.6215 N   0  0  0  0  0  0  0  0  0  0  0  0
    7.2021  -12.8949   25.5684 C   0  0  0  0  0  0  0  0  0  0  0  0
    5.9730  -13.4181   25.5519 N   0  0  0  0  0  0  0  0  0  0  0  0
    6.1345  -14.7439   25.5957 C   0  0  0  0  0  0  0  0  0  0  0  0
   10.3393  -17.3326   26.3552 O   0  0  0  0  0  0  0  0  0  0  0  0
   10.9127  -17.2895   27.4994 O   0  0  0  0  0  0  0  0  0  0  0  0
  2  1  1  0
  3  2  2  0
  4  2  1  0
  5  4  1  0
  6  5  1  0
  6  7  1  0
  8  7  1  0
  8  9  1  6
 10  8  1  0
 10 11  2  0
 13 12  1  0
 13 14  2  0
 15 16  1  0
 15 13  1  0
 17 16  1  6
 17 18  1  0
 18 10  1  0
 19 17  1  0
 19 21  1  0
 20 19  2  0
 22 21  1  0
 22 23  1  6
 23 24  1  0
 24 28  1  0
 25 24  2  0
 25 26  1  0
 26 27  1  0
 28 27  2  0
 29 22  1  0
 30 29  2  0
 31 29  1  0
M  END
$$$$
