RQH.pdb
     RDKit          3D

 31 31  0  0  1  0  0  0  0  0999 V2000
    9.8441  -14.5728   16.3934 N   0  0  0  0  0  0  0  0  0  0  0  0
    8.6655  -14.1458   15.7190 C   0  0  0  0  0  0  0  0  0  0  0  0
    8.4304  -14.5117   14.4978 N   0  0  0  0  0  0  0  0  0  0  0  0
    7.7647  -13.3054   16.4423 N   0  0  0  0  0  0  0  0  0  0  0  0
    8.0776  -12.9477   17.7935 C   0  0  0  0  0  0  0  0  0  0  0  0
    7.4697  -13.9605   18.7495 C   0  0  0  0  0  0  0  0  0  0  0  0
    7.8682  -13.5309   20.1474 C   0  0  0  0  0  0  0  0  0  0  0  0
    7.4076  -14.5510   21.1784 C   0  0  2  0  0  0  0  0  0  0  0  0
    6.2771  -14.0286   21.8714 N   0  0  0  0  0  0  0  0  0  0  0  0
    8.5561  -14.8462   22.0539 C   0  0  0  0  0  0  0  0  0  0  0  0
    8.8473  -14.1800   23.0757 O   0  0  0  0  0  0  0  0  0  0  0  0
    7.5909  -14.1725   14.0049 N   0  0  0  0  0  0  0  0  0  0  0  0
   10.7448  -17.0175   25.8288 C   0  0  0  0  0  0  0  0  0  0  0  0
   11.7768  -17.7892   25.2534 O   0  0  0  0  0  0  0  0  0  0  0  0
   12.7232  -18.2129   25.9273 C   0  0  0  0  0  0  0  0  0  0  0  0
   11.7253  -18.1032   23.7922 C   0  0  0  0  0  0  0  0  0  0  0  0
   10.4669  -17.5158   23.2302 C   0  0  1  0  0  0  0  0  0  0  0  0
   10.6076  -16.2325   22.4846 N   0  0  0  0  0  0  0  0  0  0  0  0
    9.3857  -15.9490   21.7257 C   0  0  0  0  0  0  0  0  0  0  0  0
   11.7133  -16.1765   21.5068 O   0  0  0  0  0  0  0  0  0  0  0  0
   11.8056  -17.0612   20.5726 N   0  0  0  0  0  0  0  0  0  0  0  0
   12.7413  -15.1995   21.4747 C   0  0  1  0  0  0  0  0  0  0  0  0
   13.8659  -15.3077   20.5075 C   0  0  0  0  0  0  0  0  0  0  0  0
   14.3039  -13.9170   20.1168 C   0  0  0  0  0  0  0  0  0  0  0  0
   15.5346  -13.9460   19.3108 C   0  0  0  0  0  0  0  0  0  0  0  0
   16.7968  -13.8088   19.9148 N   0  0  0  0  0  0  0  0  0  0  0  0
   17.6995  -13.8767   18.9245 C   0  0  0  0  0  0  0  0  0  0  0  0
   17.0884  -14.0463   17.7488 N   0  0  0  0  0  0  0  0  0  0  0  0
   15.7792  -14.0845   18.0142 C   0  0  0  0  0  0  0  0  0  0  0  0
   14.9026  -16.0977   21.1849 O   0  0  0  0  0  0  0  0  0  0  0  0
   15.0832  -16.0245   22.4506 O   0  0  0  0  0  0  0  0  0  0  0  0
  2  1  1  0
  3  2  2  0
  4  2  1  0
  5  4  1  0
  6  5  1  0
  6  7  1  0
  8  7  1  0
  8  9  1  1
 10  8  1  0
 10 11  2  0
 13 12  1  0
 13 14  2  0
 15 16  1  0
 15 13  1  0
 17 16  1  1
 17 18  1  0
 18 10  1  0
 19 17  1  0
 19 21  1  0
 20 19  2  0
 22 21  1  0
 22 23  1  1
 23 24  1  0
 24 28  1  0
 25 24  2  0
 25 26  1  0
 26 27  1  0
 28 27  2  0
 29 22  1  0
 30 29  2  0
 31 29  1  0
M  END
$$$$
