RQH.pdb
     RDKit          3D

 31 31  0  0  1  0  0  0  0  0999 V2000
    6.9814  -13.9239   14.3877 N   0  0  0  0  0  0  0  0  0  0  0  0
    7.8848  -13.8669   15.4863 C   0  0  0  0  0  0  0  0  0  0  0  0
    9.0883  -14.3367   15.3807 N   0  0  0  0  0  0  0  0  0  0  0  0
    7.4086  -13.2748   16.6960 N   0  0  0  0  0  0  0  0  0  0  0  0
    8.2833  -13.2016   17.8279 C   0  0  0  0  0  0  0  0  0  0  0  0
    8.4413  -14.5797   18.4482 C   0  0  0  0  0  0  0  0  0  0  0  0
    8.7098  -14.3628   19.9241 C   0  0  0  0  0  0  0  0  0  0  0  0
    8.9326  -15.6904   20.6339 C   0  0  2  0  0  0  0  0  0  0  0  0
    7.7101  -16.4229   20.6371 N   0  0  0  0  0  0  0  0  0  0  0  0
    9.4488  -15.3913   21.9818 C   0  0  0  0  0  0  0  0  0  0  0  0
   10.5221  -14.7807   22.2012 O   0  0  0  0  0  0  0  0  0  0  0  0
    9.7013  -14.3895   16.2080 N   0  0  0  0  0  0  0  0  0  0  0  0
    5.5436  -14.1885   26.3023 C   0  0  0  0  0  0  0  0  0  0  0  0
    6.3097  -13.3341   25.4810 O   0  0  0  0  0  0  0  0  0  0  0  0
    6.1944  -12.1041   25.5377 C   0  0  0  0  0  0  0  0  0  0  0  0
    7.2858  -13.9303   24.5174 C   0  0  0  0  0  0  0  0  0  0  0  0
    8.1820  -14.8625   25.2740 C   0  0  2  0  0  0  0  0  0  0  0  0
    9.1810  -15.6227   24.4699 N   0  0  0  0  0  0  0  0  0  0  0  0
    8.6903  -15.8174   23.1021 C   0  0  0  0  0  0  0  0  0  0  0  0
    9.5192  -16.9694   24.9739 O   0  0  0  0  0  0  0  0  0  0  0  0
    9.5935  -17.9710   24.1644 N   0  0  0  0  0  0  0  0  0  0  0  0
    9.7924  -17.3030   26.3254 C   0  0  1  0  0  0  0  0  0  0  0  0
   10.9064  -18.2252   26.6726 C   0  0  0  0  0  0  0  0  0  0  0  0
   12.1927  -17.6599   26.1207 C   0  0  0  0  0  0  0  0  0  0  0  0
   12.5680  -18.3103   24.8552 C   0  0  0  0  0  0  0  0  0  0  0  0
   11.7215  -19.2561   24.2507 N   0  0  0  0  0  0  0  0  0  0  0  0
   12.3403  -19.6554   23.1291 C   0  0  0  0  0  0  0  0  0  0  0  0
   13.5104  -19.0252   22.9939 N   0  0  0  0  0  0  0  0  0  0  0  0
   13.6208  -18.2180   24.0532 C   0  0  0  0  0  0  0  0  0  0  0  0
   10.8822  -18.3499   28.1360 O   0  0  0  0  0  0  0  0  0  0  0  0
   10.3497  -17.4522   28.8779 O   0  0  0  0  0  0  0  0  0  0  0  0
  2  1  1  0
  3  2  2  0
  4  2  1  0
  5  4  1  0
  6  5  1  0
  6  7  1  0
  8  7  1  0
  8  9  1  1
 10  8  1  0
 10 11  2  0
 13 12  1  0
 13 14  2  0
 15 16  1  0
 15 13  1  0
 17 16  1  6
 17 18  1  0
 18 10  1  0
 19 17  1  0
 19 21  1  0
 20 19  2  0
 22 21  1  0
 22 23  1  1
 23 24  1  0
 24 28  1  0
 25 24  2  0
 25 26  1  0
 26 27  1  0
 28 27  2  0
 29 22  1  0
 30 29  2  0
 31 29  1  0
M  END
$$$$
