RQH.pdb
     RDKit          3D

 31 31  0  0  1  0  0  0  0  0999 V2000
   12.5355  -18.1898   12.7423 N   0  0  0  0  0  0  0  0  0  0  0  0
   13.8322  -18.6306   12.3544 C   0  0  0  0  0  0  0  0  0  0  0  0
   14.0039  -19.3068   11.2619 N   0  0  0  0  0  0  0  0  0  0  0  0
   14.9224  -18.2969   13.2152 N   0  0  0  0  0  0  0  0  0  0  0  0
   14.6776  -17.4788   14.3652 C   0  0  0  0  0  0  0  0  0  0  0  0
   13.7297  -18.1926   15.3143 C   0  0  0  0  0  0  0  0  0  0  0  0
   13.5865  -17.3041   16.5339 C   0  0  0  0  0  0  0  0  0  0  0  0
   12.1247  -16.9650   16.7871 C   0  0  2  0  0  0  0  0  0  0  0  0
   11.4857  -16.7155   15.5379 N   0  0  0  0  0  0  0  0  0  0  0  0
   12.0895  -15.8173   17.7114 C   0  0  0  0  0  0  0  0  0  0  0  0
   12.8084  -14.7971   17.5891 O   0  0  0  0  0  0  0  0  0  0  0  0
   14.9545  -19.5314   10.9322 N   0  0  0  0  0  0  0  0  0  0  0  0
    7.8148  -12.3302   19.4232 C   0  0  0  0  0  0  0  0  0  0  0  0
    7.5041  -13.7068   19.4220 O   0  0  0  0  0  0  0  0  0  0  0  0
    6.3373  -14.1087   19.3416 C   0  0  0  0  0  0  0  0  0  0  0  0
    8.6131  -14.7052   19.5205 C   0  0  0  0  0  0  0  0  0  0  0  0
    9.9103  -13.9596   19.5963 C   0  0  1  0  0  0  0  0  0  0  0  0
   11.1385  -14.7811   19.7942 N   0  0  0  0  0  0  0  0  0  0  0  0
   11.1900  -15.8640   18.8073 C   0  0  0  0  0  0  0  0  0  0  0  0
   11.2704  -15.4302   21.1144 O   0  0  0  0  0  0  0  0  0  0  0  0
   10.5957  -16.4945   21.3902 N   0  0  0  0  0  0  0  0  0  0  0  0
   12.1081  -14.9924   22.1722 C   0  0  2  0  0  0  0  0  0  0  0  0
   12.2204  -15.7772   23.4305 C   0  0  0  0  0  0  0  0  0  0  0  0
   10.9880  -16.6367   23.5764 C   0  0  0  0  0  0  0  0  0  0  0  0
   11.0477  -17.4623   24.7929 C   0  0  0  0  0  0  0  0  0  0  0  0
   12.0829  -17.2946   25.7294 N   0  0  0  0  0  0  0  0  0  0  0  0
   11.8550  -18.1832   26.7085 C   0  0  0  0  0  0  0  0  0  0  0  0
   10.7525  -18.8908   26.4471 N   0  0  0  0  0  0  0  0  0  0  0  0
   10.2859  -18.4323   25.2818 C   0  0  0  0  0  0  0  0  0  0  0  0
   13.4737  -16.5352   23.3197 O   0  0  0  0  0  0  0  0  0  0  0  0
   14.4589  -16.3233   24.1098 O   0  0  0  0  0  0  0  0  0  0  0  0
  2  1  1  0
  3  2  2  0
  4  2  1  0
  5  4  1  0
  6  5  1  0
  6  7  1  0
  8  7  1  0
  8  9  1  6
 10  8  1  0
 10 11  2  0
 13 12  1  0
 13 14  2  0
 15 16  1  0
 15 13  1  0
 17 16  1  6
 17 18  1  0
 18 10  1  0
 19 17  1  0
 19 21  1  0
 20 19  2  0
 22 21  1  0
 22 23  1  1
 23 24  1  0
 24 28  1  0
 25 24  2  0
 25 26  1  0
 26 27  1  0
 28 27  2  0
 29 22  1  0
 30 29  2  0
 31 29  1  0
M  END
$$$$
