RQH.pdb
     RDKit          3D

 31 31  0  0  1  0  0  0  0  0999 V2000
   12.8553  -16.1759   17.8372 N   0  0  0  0  0  0  0  0  0  0  0  0
   12.9306  -14.9845   18.6124 C   0  0  0  0  0  0  0  0  0  0  0  0
   13.9926  -14.2417   18.5861 N   0  0  0  0  0  0  0  0  0  0  0  0
   11.7946  -14.6498   19.4113 N   0  0  0  0  0  0  0  0  0  0  0  0
   10.6222  -15.4691   19.3342 C   0  0  0  0  0  0  0  0  0  0  0  0
    9.5618  -14.7753   18.4956 C   0  0  0  0  0  0  0  0  0  0  0  0
    8.2528  -14.9189   19.2461 C   0  0  0  0  0  0  0  0  0  0  0  0
    7.8307  -13.5901   19.8560 C   0  0  2  0  0  0  0  0  0  0  0  0
    8.2682  -12.5326   19.0066 N   0  0  0  0  0  0  0  0  0  0  0  0
    8.3923  -13.5288   21.2175 C   0  0  0  0  0  0  0  0  0  0  0  0
    9.5765  -13.2042   21.4727 O   0  0  0  0  0  0  0  0  0  0  0  0
   14.0757  -13.4292   19.2151 N   0  0  0  0  0  0  0  0  0  0  0  0
    5.2579  -11.9928   26.1020 C   0  0  0  0  0  0  0  0  0  0  0  0
    6.4168  -12.4108   26.7902 O   0  0  0  0  0  0  0  0  0  0  0  0
    6.5920  -12.1477   27.9858 C   0  0  0  0  0  0  0  0  0  0  0  0
    7.4597  -13.1917   26.0560 C   0  0  0  0  0  0  0  0  0  0  0  0
    7.0793  -13.2364   24.6076 C   0  0  1  0  0  0  0  0  0  0  0  0
    8.0565  -13.8792   23.6833 N   0  0  0  0  0  0  0  0  0  0  0  0
    7.5471  -13.8557   22.3088 C   0  0  0  0  0  0  0  0  0  0  0  0
    8.3784  -15.2918   23.9713 O   0  0  0  0  0  0  0  0  0  0  0  0
    8.1542  -16.2065   23.0898 N   0  0  0  0  0  0  0  0  0  0  0  0
    8.9440  -15.7829   25.1761 C   0  0  1  0  0  0  0  0  0  0  0  0
    9.8067  -16.9944   25.1748 C   0  0  0  0  0  0  0  0  0  0  0  0
   10.9432  -16.7781   24.2051 C   0  0  0  0  0  0  0  0  0  0  0  0
   11.9283  -17.8687   24.2776 C   0  0  0  0  0  0  0  0  0  0  0  0
   11.7206  -18.9746   25.1206 N   0  0  0  0  0  0  0  0  0  0  0  0
   12.7830  -19.7780   24.9594 C   0  0  0  0  0  0  0  0  0  0  0  0
   13.6356  -19.2504   24.0766 N   0  0  0  0  0  0  0  0  0  0  0  0
   13.0916  -18.0955   23.6814 C   0  0  0  0  0  0  0  0  0  0  0  0
   10.2315  -17.1855   26.5678 O   0  0  0  0  0  0  0  0  0  0  0  0
   10.4688  -18.3503   27.0439 O   0  0  0  0  0  0  0  0  0  0  0  0
  2  1  1  0
  3  2  2  0
  4  2  1  0
  5  4  1  0
  6  5  1  0
  6  7  1  0
  8  7  1  0
  8  9  1  6
 10  8  1  0
 10 11  2  0
 13 12  1  0
 13 14  2  0
 15 16  1  0
 15 13  1  0
 17 16  1  6
 17 18  1  0
 18 10  1  0
 19 17  1  0
 19 21  1  0
 20 19  2  0
 22 21  1  0
 22 23  1  1
 23 24  1  0
 24 28  1  0
 25 24  2  0
 25 26  1  0
 26 27  1  0
 28 27  2  0
 29 22  1  0
 30 29  2  0
 31 29  1  0
M  END
$$$$
