RQH.pdb
     RDKit          3D

 31 31  0  0  1  0  0  0  0  0999 V2000
   10.0293  -13.4341   20.0446 N   0  0  0  0  0  0  0  0  0  0  0  0
    9.0129  -12.5397   19.6051 C   0  0  0  0  0  0  0  0  0  0  0  0
    9.1961  -11.2570   19.6426 N   0  0  0  0  0  0  0  0  0  0  0  0
    7.7960  -13.1151   19.1265 N   0  0  0  0  0  0  0  0  0  0  0  0
    7.4119  -14.4162   19.5860 C   0  0  0  0  0  0  0  0  0  0  0  0
    7.4340  -14.4547   21.1048 C   0  0  0  0  0  0  0  0  0  0  0  0
    6.9985  -15.8488   21.5098 C   0  0  0  0  0  0  0  0  0  0  0  0
    8.1016  -16.8608   21.2362 C   0  0  2  0  0  0  0  0  0  0  0  0
    7.6069  -17.8515   20.3391 N   0  0  0  0  0  0  0  0  0  0  0  0
    8.5392  -17.4019   22.5355 C   0  0  0  0  0  0  0  0  0  0  0  0
    8.0289  -18.4083   23.0828 O   0  0  0  0  0  0  0  0  0  0  0  0
    8.4744  -10.6169   19.2792 N   0  0  0  0  0  0  0  0  0  0  0  0
   13.7391  -19.1416   24.5361 C   0  0  0  0  0  0  0  0  0  0  0  0
   13.6618  -18.0845   23.6044 O   0  0  0  0  0  0  0  0  0  0  0  0
   14.6128  -17.7981   22.8675 C   0  0  0  0  0  0  0  0  0  0  0  0
   12.3986  -17.2902   23.5050 C   0  0  0  0  0  0  0  0  0  0  0  0
   11.3668  -17.9387   24.3763 C   0  0  1  0  0  0  0  0  0  0  0  0
   10.0700  -17.2176   24.5202 N   0  0  0  0  0  0  0  0  0  0  0  0
    9.6013  -16.7492   23.2124 C   0  0  0  0  0  0  0  0  0  0  0  0
   10.0918  -16.0260   25.3927 O   0  0  0  0  0  0  0  0  0  0  0  0
   10.6699  -14.9406   25.0031 N   0  0  0  0  0  0  0  0  0  0  0  0
    9.5102  -15.9343   26.6834 C   0  0  1  0  0  0  0  0  0  0  0  0
    9.7488  -14.7453   27.5443 C   0  0  0  0  0  0  0  0  0  0  0  0
    8.4299  -14.2954   28.1246 C   0  0  0  0  0  0  0  0  0  0  0  0
    7.6195  -13.5775   27.1282 C   0  0  0  0  0  0  0  0  0  0  0  0
    8.1372  -13.2794   25.8555 N   0  0  0  0  0  0  0  0  0  0  0  0
    7.1665  -12.6305   25.1946 C   0  0  0  0  0  0  0  0  0  0  0  0
    6.0830  -12.5042   25.9657 N   0  0  0  0  0  0  0  0  0  0  0  0
    6.3869  -13.0866   27.1294 C   0  0  0  0  0  0  0  0  0  0  0  0
   10.7354  -15.1678   28.5471 O   0  0  0  0  0  0  0  0  0  0  0  0
   11.6763  -14.3897   28.9331 O   0  0  0  0  0  0  0  0  0  0  0  0
  2  1  1  0
  3  2  2  0
  4  2  1  0
  5  4  1  0
  6  5  1  0
  6  7  1  0
  8  7  1  0
  8  9  1  6
 10  8  1  0
 10 11  2  0
 13 12  1  0
 13 14  2  0
 15 16  1  0
 15 13  1  0
 17 16  1  6
 17 18  1  0
 18 10  1  0
 19 17  1  0
 19 21  1  0
 20 19  2  0
 22 21  1  0
 22 23  1  1
 23 24  1  0
 24 28  1  0
 25 24  2  0
 25 26  1  0
 26 27  1  0
 28 27  2  0
 29 22  1  0
 30 29  2  0
 31 29  1  0
M  END
$$$$
