RQH.pdb
     RDKit          3D

 31 31  0  0  1  0  0  0  0  0999 V2000
    7.5803  -14.4773   14.6088 N   0  0  0  0  0  0  0  0  0  0  0  0
    7.8930  -13.3312   15.3929 C   0  0  0  0  0  0  0  0  0  0  0  0
    8.2189  -12.2103   14.8292 N   0  0  0  0  0  0  0  0  0  0  0  0
    7.8317  -13.4724   16.8132 N   0  0  0  0  0  0  0  0  0  0  0  0
    7.6963  -14.7816   17.3785 C   0  0  0  0  0  0  0  0  0  0  0  0
    9.0691  -15.3545   17.6885 C   0  0  0  0  0  0  0  0  0  0  0  0
    8.8429  -16.7469   18.2430 C   0  0  0  0  0  0  0  0  0  0  0  0
   10.1654  -17.4044   18.6096 C   0  0  2  0  0  0  0  0  0  0  0  0
    9.9101  -18.7275   19.0735 N   0  0  0  0  0  0  0  0  0  0  0  0
   10.8275  -16.5434   19.6060 C   0  0  0  0  0  0  0  0  0  0  0  0
   11.2198  -15.3754   19.3722 O   0  0  0  0  0  0  0  0  0  0  0  0
    8.4720  -11.3925   15.4037 N   0  0  0  0  0  0  0  0  0  0  0  0
   12.2117  -17.8926   26.2443 C   0  0  0  0  0  0  0  0  0  0  0  0
   11.4799  -16.8045   25.7228 O   0  0  0  0  0  0  0  0  0  0  0  0
   10.4486  -16.3948   26.2686 C   0  0  0  0  0  0  0  0  0  0  0  0
   11.9630  -16.1291   24.4790 C   0  0  0  0  0  0  0  0  0  0  0  0
   11.2848  -16.7669   23.3053 C   0  0  1  0  0  0  0  0  0  0  0  0
   11.6616  -16.2503   21.9586 N   0  0  0  0  0  0  0  0  0  0  0  0
   11.0363  -17.0618   20.9098 C   0  0  0  0  0  0  0  0  0  0  0  0
   13.1073  -16.2423   21.6559 O   0  0  0  0  0  0  0  0  0  0  0  0
   13.7034  -17.3236   21.2827 N   0  0  0  0  0  0  0  0  0  0  0  0
   13.9620  -15.1123   21.7286 C   0  0  1  0  0  0  0  0  0  0  0  0
   15.4217  -15.2432   21.4755 C   0  0  0  0  0  0  0  0  0  0  0  0
   15.9247  -13.9564   20.8673 C   0  0  0  0  0  0  0  0  0  0  0  0
   15.6263  -13.8878   19.4281 C   0  0  0  0  0  0  0  0  0  0  0  0
   15.0318  -14.9734   18.7613 N   0  0  0  0  0  0  0  0  0  0  0  0
   14.8934  -14.6006   17.4799 C   0  0  0  0  0  0  0  0  0  0  0  0
   15.3594  -13.3612   17.3031 N   0  0  0  0  0  0  0  0  0  0  0  0
   15.7962  -12.9558   18.4992 C   0  0  0  0  0  0  0  0  0  0  0  0
   16.0257  -15.5724   22.7733 O   0  0  0  0  0  0  0  0  0  0  0  0
   15.3254  -15.6344   23.8437 O   0  0  0  0  0  0  0  0  0  0  0  0
  2  1  1  0
  3  2  2  0
  4  2  1  0
  5  4  1  0
  6  5  1  0
  6  7  1  0
  8  7  1  0
  8  9  1  1
 10  8  1  0
 10 11  2  0
 13 12  1  0
 13 14  2  0
 15 16  1  0
 15 13  1  0
 17 16  1  1
 17 18  1  0
 18 10  1  0
 19 17  1  0
 19 21  1  0
 20 19  2  0
 22 21  1  0
 22 23  1  1
 23 24  1  0
 24 28  1  0
 25 24  2  0
 25 26  1  0
 26 27  1  0
 28 27  2  0
 29 22  1  0
 30 29  2  0
 31 29  1  0
M  END
$$$$
