RQH.pdb
     RDKit          3D

 31 31  0  0  1  0  0  0  0  0999 V2000
   10.0832  -15.8485   16.2758 N   0  0  0  0  0  0  0  0  0  0  0  0
    8.7699  -16.1977   15.8518 C   0  0  0  0  0  0  0  0  0  0  0  0
    8.5864  -16.9511   14.8131 N   0  0  0  0  0  0  0  0  0  0  0  0
    7.6768  -15.6849   16.6155 N   0  0  0  0  0  0  0  0  0  0  0  0
    7.8445  -14.4586   17.3364 C   0  0  0  0  0  0  0  0  0  0  0  0
    8.3076  -14.7521   18.7536 C   0  0  0  0  0  0  0  0  0  0  0  0
    7.4089  -13.9545   19.6775 C   0  0  0  0  0  0  0  0  0  0  0  0
    8.1874  -12.8377   20.3576 C   0  0  2  0  0  0  0  0  0  0  0  0
    9.1265  -12.2990   19.4308 N   0  0  0  0  0  0  0  0  0  0  0  0
    8.8071  -13.4034   21.5694 C   0  0  0  0  0  0  0  0  0  0  0  0
   10.0130  -13.2488   21.8768 O   0  0  0  0  0  0  0  0  0  0  0  0
    7.6442  -17.0614   14.4095 N   0  0  0  0  0  0  0  0  0  0  0  0
    6.2793  -11.6607   25.5091 C   0  0  0  0  0  0  0  0  0  0  0  0
    6.5745  -12.6211   26.5000 O   0  0  0  0  0  0  0  0  0  0  0  0
    6.5738  -12.3339   27.7028 C   0  0  0  0  0  0  0  0  0  0  0  0
    6.8964  -14.0216   26.0859 C   0  0  0  0  0  0  0  0  0  0  0  0
    6.8645  -14.0875   24.5895 C   0  0  2  0  0  0  0  0  0  0  0  0
    8.1845  -14.1171   23.8973 N   0  0  0  0  0  0  0  0  0  0  0  0
    7.9953  -14.1700   22.4444 C   0  0  0  0  0  0  0  0  0  0  0  0
    9.0596  -15.2588   24.2331 O   0  0  0  0  0  0  0  0  0  0  0  0
    9.4232  -15.4674   25.4530 N   0  0  0  0  0  0  0  0  0  0  0  0
    9.5701  -16.2094   23.3122 C   0  0  2  0  0  0  0  0  0  0  0  0
   10.4062  -17.3482   23.7769 C   0  0  0  0  0  0  0  0  0  0  0  0
   11.7921  -17.1991   23.1975 C   0  0  0  0  0  0  0  0  0  0  0  0
   11.7497  -17.0230   21.7372 C   0  0  0  0  0  0  0  0  0  0  0  0
   11.2148  -15.8549   21.1660 N   0  0  0  0  0  0  0  0  0  0  0  0
   11.3207  -16.0012   19.8365 C   0  0  0  0  0  0  0  0  0  0  0  0
   11.8830  -17.1764   19.5412 N   0  0  0  0  0  0  0  0  0  0  0  0
   12.1315  -17.7724   20.7112 C   0  0  0  0  0  0  0  0  0  0  0  0
   10.3592  -17.3073   25.2444 O   0  0  0  0  0  0  0  0  0  0  0  0
    9.4169  -17.8722   25.9023 O   0  0  0  0  0  0  0  0  0  0  0  0
  2  1  1  0
  3  2  2  0
  4  2  1  0
  5  4  1  0
  6  5  1  0
  6  7  1  0
  8  7  1  0
  8  9  1  6
 10  8  1  0
 10 11  2  0
 13 12  1  0
 13 14  2  0
 15 16  1  0
 15 13  1  0
 17 16  1  6
 17 18  1  0
 18 10  1  0
 19 17  1  0
 19 21  1  0
 20 19  2  0
 22 21  1  0
 22 23  1  6
 23 24  1  0
 24 28  1  0
 25 24  2  0
 25 26  1  0
 26 27  1  0
 28 27  2  0
 29 22  1  0
 30 29  2  0
 31 29  1  0
M  END
$$$$
