CLS.pdb
     RDKit          3D

 21 20  0  0  1  0  0  0  0  0999 V2000
    7.6270  -14.3826   20.0052 N   0  0  0  0  0  0  0  0  0  0  0  0
    7.0437  -15.0728   21.1158 C   0  0  1  0  0  0  0  0  0  0  0  0
    7.0485  -16.5576   20.8164 C   0  0  0  0  0  0  0  0  0  0  0  0
    5.3094  -17.1170   20.8212 S   0  0  0  0  0  0  0  0  0  0  0  0
    7.8026  -14.8039   22.3852 C   0  0  0  0  0  0  0  0  0  0  0  0
    9.0568  -14.7348   22.3891 O   0  0  0  0  0  0  0  0  0  0  0  0
    5.7787  -11.9092   26.7763 C   0  0  0  0  0  0  0  0  0  0  0  0
    6.7788  -12.4112   25.7600 C   0  0  1  0  0  0  0  0  0  0  0  0
    7.9407  -11.4877   25.7378 C   0  0  0  0  0  0  0  0  0  0  0  0
    7.1175  -13.8573   25.9539 C   0  0  0  0  0  0  0  0  0  0  0  0
    7.8706  -14.4920   24.8287 C   0  0  2  0  0  0  0  0  0  0  0  0
    7.1295  -14.6204   23.6142 N   0  0  0  0  0  0  0  0  0  0  0  0
    8.2010  -15.8927   25.2816 C   0  0  0  0  0  0  0  0  0  0  0  0
    7.3216  -16.7771   25.4312 O   0  0  0  0  0  0  0  0  0  0  0  0
   11.9491  -17.3638   24.8419 O   0  0  0  0  0  0  0  0  0  0  0  0
   10.8550  -18.2341   24.9580 C   0  0  0  0  0  0  0  0  0  0  0  0
    9.8829  -17.6182   25.9706 C   0  0  2  0  0  0  0  0  0  0  0  0
    9.5427  -16.2721   25.5611 N   0  0  0  0  0  0  0  0  0  0  0  0
   10.4245  -17.6726   27.3382 C   0  0  0  0  0  0  0  0  0  0  0  0
   10.8201  -18.8554   27.9338 O   0  0  0  0  0  0  0  0  0  0  0  0
   10.5368  -16.6133   27.9997 O   0  0  0  0  0  0  0  0  0  0  0  0
  2  5  1  0
  2  3  1  0
  2  1  1  6
  4  3  1  0
  5  6  2  0
  8  7  1  1
  8  9  1  0
  8 10  1  0
 11 10  1  1
 11 12  1  0
 11 13  1  0
 12  5  1  0
 13 18  1  0
 13 14  2  0
 16 15  1  0
 17 16  1  6
 18 17  1  0
 19 20  1  0
 19 17  1  0
 21 19  2  0
M  END
$$$$
