CLS.pdb
     RDKit          3D

 21 20  0  0  1  0  0  0  0  0999 V2000
    5.0435  -19.7223   23.0776 N   0  0  0  0  0  0  0  0  0  0  0  0
    5.6727  -19.2704   24.2817 C   0  0  1  0  0  0  0  0  0  0  0  0
    6.7590  -20.2570   24.6569 C   0  0  0  0  0  0  0  0  0  0  0  0
    5.9407  -21.6959   25.4296 S   0  0  0  0  0  0  0  0  0  0  0  0
    6.2640  -17.8995   24.1072 C   0  0  0  0  0  0  0  0  0  0  0  0
    6.7276  -17.5289   23.0001 O   0  0  0  0  0  0  0  0  0  0  0  0
    7.3312  -12.6921   24.7701 C   0  0  0  0  0  0  0  0  0  0  0  0
    7.5422  -13.4861   26.0389 C   0  0  1  0  0  0  0  0  0  0  0  0
    7.3875  -12.5767   27.2019 C   0  0  0  0  0  0  0  0  0  0  0  0
    6.7055  -14.7276   26.0849 C   0  0  0  0  0  0  0  0  0  0  0  0
    7.0287  -15.7529   25.0455 C   0  0  2  0  0  0  0  0  0  0  0  0
    6.3173  -16.9841   25.1827 N   0  0  0  0  0  0  0  0  0  0  0  0
    8.4915  -16.0794   25.2179 C   0  0  0  0  0  0  0  0  0  0  0  0
    8.9569  -16.5404   26.2897 O   0  0  0  0  0  0  0  0  0  0  0  0
   11.3452  -15.5130   22.0927 O   0  0  0  0  0  0  0  0  0  0  0  0
   11.1482  -16.7651   22.6937 C   0  0  0  0  0  0  0  0  0  0  0  0
   10.7126  -16.5166   24.1423 C   0  0  2  0  0  0  0  0  0  0  0  0
    9.4153  -15.8744   24.1563 N   0  0  0  0  0  0  0  0  0  0  0  0
   11.7282  -15.7540   24.8863 C   0  0  0  0  0  0  0  0  0  0  0  0
   13.0326  -16.1904   25.0223 O   0  0  0  0  0  0  0  0  0  0  0  0
   11.4121  -14.6655   25.4224 O   0  0  0  0  0  0  0  0  0  0  0  0
  2  5  1  0
  2  3  1  0
  2  1  1  6
  4  3  1  0
  5  6  2  0
  8  7  1  6
  8  9  1  0
  8 10  1  0
 11 10  1  1
 11 12  1  0
 11 13  1  0
 12  5  1  0
 13 18  1  0
 13 14  2  0
 16 15  1  0
 17 16  1  6
 18 17  1  0
 19 20  1  0
 19 17  1  0
 21 19  2  0
M  END
$$$$
