CLS.pdb
     RDKit          3D

 21 20  0  0  1  0  0  0  0  0999 V2000
    9.2453  -18.2514   16.5146 N   0  0  0  0  0  0  0  0  0  0  0  0
    8.6375  -18.3273   17.8088 C   0  0  1  0  0  0  0  0  0  0  0  0
    8.8043  -19.7369   18.3372 C   0  0  0  0  0  0  0  0  0  0  0  0
    7.7980  -19.8688   19.8561 S   0  0  0  0  0  0  0  0  0  0  0  0
    9.2600  -17.3460   18.7623 C   0  0  0  0  0  0  0  0  0  0  0  0
   10.5021  -17.1600   18.7831 O   0  0  0  0  0  0  0  0  0  0  0  0
    8.1406  -13.1996   19.0457 C   0  0  0  0  0  0  0  0  0  0  0  0
    8.2236  -13.2404   20.5545 C   0  0  1  0  0  0  0  0  0  0  0  0
    7.2521  -12.2663   21.1121 C   0  0  0  0  0  0  0  0  0  0  0  0
    8.1143  -14.6319   21.0979 C   0  0  0  0  0  0  0  0  0  0  0  0
    9.0702  -15.6217   20.5126 C   0  0  2  0  0  0  0  0  0  0  0  0
    8.4678  -16.6016   19.6655 N   0  0  0  0  0  0  0  0  0  0  0  0
    9.6673  -16.3695   21.6791 C   0  0  0  0  0  0  0  0  0  0  0  0
    9.0299  -17.2454   22.3149 O   0  0  0  0  0  0  0  0  0  0  0  0
   12.7918  -18.4052   21.6086 O   0  0  0  0  0  0  0  0  0  0  0  0
   11.7568  -18.3788   22.5552 C   0  0  0  0  0  0  0  0  0  0  0  0
   11.6580  -16.9452   23.0886 C   0  0  2  0  0  0  0  0  0  0  0  0
   10.9966  -16.1072   22.1109 N   0  0  0  0  0  0  0  0  0  0  0  0
   12.9781  -16.4238   23.4785 C   0  0  0  0  0  0  0  0  0  0  0  0
   13.7307  -16.9894   24.4905 O   0  0  0  0  0  0  0  0  0  0  0  0
   13.4503  -15.4292   22.8784 O   0  0  0  0  0  0  0  0  0  0  0  0
  2  5  1  0
  2  3  1  0
  2  1  1  6
  4  3  1  0
  5  6  2  0
  8  7  1  6
  8  9  1  0
  8 10  1  0
 11 10  1  1
 11 12  1  0
 11 13  1  0
 12  5  1  0
 13 18  1  0
 13 14  2  0
 16 15  1  0
 17 16  1  6
 18 17  1  0
 19 20  1  0
 19 17  1  0
 21 19  2  0
M  END
$$$$
