CLS.pdb
     RDKit          3D

 21 20  0  0  1  0  0  0  0  0999 V2000
    7.6234  -16.4571   20.7987 N   0  0  0  0  0  0  0  0  0  0  0  0
    8.9661  -15.9972   20.9881 C   0  0  1  0  0  0  0  0  0  0  0  0
    9.2780  -14.9691   19.9205 C   0  0  0  0  0  0  0  0  0  0  0  0
    8.5510  -15.5736   18.3573 S   0  0  0  0  0  0  0  0  0  0  0  0
    9.1481  -15.3909   22.3516 C   0  0  0  0  0  0  0  0  0  0  0  0
   10.2911  -15.1071   22.7882 O   0  0  0  0  0  0  0  0  0  0  0  0
    8.4433  -12.1003   26.3668 C   0  0  0  0  0  0  0  0  0  0  0  0
    7.2921  -13.0783   26.3089 C   0  0  1  0  0  0  0  0  0  0  0  0
    6.0853  -12.4286   26.8790 C   0  0  0  0  0  0  0  0  0  0  0  0
    7.1122  -13.6730   24.9461 C   0  0  0  0  0  0  0  0  0  0  0  0
    8.2339  -14.5438   24.4774 C   0  0  2  0  0  0  0  0  0  0  0  0
    8.0392  -15.1210   23.1853 N   0  0  0  0  0  0  0  0  0  0  0  0
    8.3114  -15.6910   25.4542 C   0  0  0  0  0  0  0  0  0  0  0  0
    7.3127  -16.3938   25.7484 O   0  0  0  0  0  0  0  0  0  0  0  0
   11.5630  -17.8749   25.7009 O   0  0  0  0  0  0  0  0  0  0  0  0
   10.3162  -18.3348   26.1499 C   0  0  0  0  0  0  0  0  0  0  0  0
    9.6616  -17.1940   26.9373 C   0  0  2  0  0  0  0  0  0  0  0  0
    9.5384  -16.0267   26.0900 N   0  0  0  0  0  0  0  0  0  0  0  0
   10.3917  -16.9123   28.1840 C   0  0  0  0  0  0  0  0  0  0  0  0
   10.6012  -17.8731   29.1552 O   0  0  0  0  0  0  0  0  0  0  0  0
   10.8465  -15.7613   28.3858 O   0  0  0  0  0  0  0  0  0  0  0  0
  2  5  1  0
  2  3  1  0
  2  1  1  6
  4  3  1  0
  5  6  2  0
  8  7  1  6
  8  9  1  0
  8 10  1  0
 11 10  1  1
 11 12  1  0
 11 13  1  0
 12  5  1  0
 13 18  1  0
 13 14  2  0
 16 15  1  0
 17 16  1  6
 18 17  1  0
 19 20  1  0
 19 17  1  0
 21 19  2  0
M  END
$$$$
