CLS.pdb
     RDKit          3D

 21 20  0  0  1  0  0  0  0  0999 V2000
    9.9350  -16.1215   20.5972 N   0  0  0  0  0  0  0  0  0  0  0  0
    8.6817  -16.0775   21.2881 C   0  0  1  0  0  0  0  0  0  0  0  0
    8.1685  -17.4939   21.4452 C   0  0  0  0  0  0  0  0  0  0  0  0
    7.7077  -18.0910   19.7813 S   0  0  0  0  0  0  0  0  0  0  0  0
    8.8250  -15.4321   22.6381 C   0  0  0  0  0  0  0  0  0  0  0  0
    9.9389  -15.3775   23.2162 O   0  0  0  0  0  0  0  0  0  0  0  0
    7.9374  -11.4670   26.1220 C   0  0  0  0  0  0  0  0  0  0  0  0
    6.8671  -12.5326   26.1846 C   0  0  1  0  0  0  0  0  0  0  0  0
    5.6193  -11.9249   26.7111 C   0  0  0  0  0  0  0  0  0  0  0  0
    6.7187  -13.2737   24.8915 C   0  0  0  0  0  0  0  0  0  0  0  0
    7.8941  -14.1101   24.4977 C   0  0  2  0  0  0  0  0  0  0  0  0
    7.7116  -14.8664   23.2996 N   0  0  0  0  0  0  0  0  0  0  0  0
    8.0911  -15.1087   25.6114 C   0  0  0  0  0  0  0  0  0  0  0  0
    8.4743  -14.7709   26.7589 O   0  0  0  0  0  0  0  0  0  0  0  0
    7.5819  -19.2613   24.9728 O   0  0  0  0  0  0  0  0  0  0  0  0
    7.1832  -18.6997   26.1949 C   0  0  0  0  0  0  0  0  0  0  0  0
    8.0655  -17.4716   26.4463 C   0  0  2  0  0  0  0  0  0  0  0  0
    7.8466  -16.4938   25.4016 N   0  0  0  0  0  0  0  0  0  0  0  0
    9.4826  -17.8457   26.5817 C   0  0  0  0  0  0  0  0  0  0  0  0
    9.9332  -18.7041   27.5668 O   0  0  0  0  0  0  0  0  0  0  0  0
   10.3241  -17.3753   25.7799 O   0  0  0  0  0  0  0  0  0  0  0  0
  2  5  1  0
  2  3  1  0
  2  1  1  1
  4  3  1  0
  5  6  2  0
  8  7  1  6
  8  9  1  0
  8 10  1  0
 11 10  1  1
 11 12  1  0
 11 13  1  0
 12  5  1  0
 13 18  1  0
 13 14  2  0
 16 15  1  0
 17 16  1  6
 18 17  1  0
 19 20  1  0
 19 17  1  0
 21 19  2  0
M  END
$$$$
