CLS.pdb
     RDKit          3D

 21 20  0  0  1  0  0  0  0  0999 V2000
    7.2467  -15.4986   20.2903 N   0  0  0  0  0  0  0  0  0  0  0  0
    6.8001  -15.9737   21.5650 C   0  0  1  0  0  0  0  0  0  0  0  0
    6.7609  -17.4874   21.5278 C   0  0  0  0  0  0  0  0  0  0  0  0
    5.9614  -18.0468   23.0722 S   0  0  0  0  0  0  0  0  0  0  0  0
    7.7099  -15.5120   22.6689 C   0  0  0  0  0  0  0  0  0  0  0  0
    8.9514  -15.4315   22.4956 O   0  0  0  0  0  0  0  0  0  0  0  0
    5.9690  -12.1945   26.8809 C   0  0  0  0  0  0  0  0  0  0  0  0
    6.7873  -12.7792   25.7523 C   0  0  1  0  0  0  0  0  0  0  0  0
    7.6997  -11.7303   25.2318 C   0  0  0  0  0  0  0  0  0  0  0  0
    7.4486  -14.0686   26.1309 C   0  0  0  0  0  0  0  0  0  0  0  0
    8.0862  -14.8136   25.0020 C   0  0  2  0  0  0  0  0  0  0  0  0
    7.1976  -15.1537   23.9364 N   0  0  0  0  0  0  0  0  0  0  0  0
    8.5797  -16.1154   25.5832 C   0  0  0  0  0  0  0  0  0  0  0  0
    7.7997  -16.9880   26.0392 O   0  0  0  0  0  0  0  0  0  0  0  0
   12.6159  -17.1573   25.3034 O   0  0  0  0  0  0  0  0  0  0  0  0
   11.6291  -18.1534   25.2604 C   0  0  0  0  0  0  0  0  0  0  0  0
   10.4595  -17.6799   26.1309 C   0  0  2  0  0  0  0  0  0  0  0  0
    9.9699  -16.4098   25.6382 N   0  0  0  0  0  0  0  0  0  0  0  0
   10.8342  -17.6273   27.5534 C   0  0  0  0  0  0  0  0  0  0  0  0
   11.3608  -18.7154   28.2234 O   0  0  0  0  0  0  0  0  0  0  0  0
   10.6751  -16.5612   28.1941 O   0  0  0  0  0  0  0  0  0  0  0  0
  2  5  1  0
  2  3  1  0
  2  1  1  6
  4  3  1  0
  5  6  2  0
  8  7  1  1
  8  9  1  0
  8 10  1  0
 11 10  1  1
 11 12  1  0
 11 13  1  0
 12  5  1  0
 13 18  1  0
 13 14  2  0
 16 15  1  0
 17 16  1  6
 18 17  1  0
 19 20  1  0
 19 17  1  0
 21 19  2  0
M  END
$$$$
