CLS.pdb
     RDKit          3D

 21 20  0  0  1  0  0  0  0  0999 V2000
    8.2545  -15.9896   20.0538 N   0  0  0  0  0  0  0  0  0  0  0  0
    7.5402  -16.1426   21.2852 C   0  0  1  0  0  0  0  0  0  0  0  0
    7.8062  -17.5319   21.8267 C   0  0  0  0  0  0  0  0  0  0  0  0
    9.5869  -17.6273   22.2229 S   0  0  0  0  0  0  0  0  0  0  0  0
    7.9628  -15.1106   22.2931 C   0  0  0  0  0  0  0  0  0  0  0  0
    9.0275  -14.4600   22.1484 O   0  0  0  0  0  0  0  0  0  0  0  0
    7.5977  -11.1089   25.7982 C   0  0  0  0  0  0  0  0  0  0  0  0
    6.9227  -12.3616   26.3084 C   0  0  1  0  0  0  0  0  0  0  0  0
    5.8561  -11.9727   27.2647 C   0  0  0  0  0  0  0  0  0  0  0  0
    6.4855  -13.2699   25.2006 C   0  0  0  0  0  0  0  0  0  0  0  0
    7.5911  -13.8486   24.3769 C   0  0  2  0  0  0  0  0  0  0  0  0
    7.1759  -14.8395   23.4354 N   0  0  0  0  0  0  0  0  0  0  0  0
    8.5202  -14.5377   25.3455 C   0  0  0  0  0  0  0  0  0  0  0  0
    8.9970  -13.9556   26.3514 O   0  0  0  0  0  0  0  0  0  0  0  0
    9.9457  -18.5471   27.4170 O   0  0  0  0  0  0  0  0  0  0  0  0
    9.1091  -17.9323   26.4737 C   0  0  0  0  0  0  0  0  0  0  0  0
    9.7464  -16.5892   26.1000 C   0  0  2  0  0  0  0  0  0  0  0  0
    8.8984  -15.8952   25.1541 N   0  0  0  0  0  0  0  0  0  0  0  0
   11.1207  -16.7653   25.6028 C   0  0  0  0  0  0  0  0  0  0  0  0
   11.5413  -16.2594   24.3874 O   0  0  0  0  0  0  0  0  0  0  0  0
   11.9519  -17.3963   26.2980 O   0  0  0  0  0  0  0  0  0  0  0  0
  2  5  1  0
  2  3  1  0
  2  1  1  6
  4  3  1  0
  5  6  2  0
  8  7  1  6
  8  9  1  0
  8 10  1  0
 11 10  1  1
 11 12  1  0
 11 13  1  0
 12  5  1  0
 13 18  1  0
 13 14  2  0
 16 15  1  0
 17 16  1  6
 18 17  1  0
 19 20  1  0
 19 17  1  0
 21 19  2  0
M  END
$$$$
