CLS.pdb
     RDKit          3D

 21 20  0  0  1  0  0  0  0  0999 V2000
    6.2747  -16.5829   22.0128 N   0  0  0  0  0  0  0  0  0  0  0  0
    7.4755  -15.8303   21.8084 C   0  0  1  0  0  0  0  0  0  0  0  0
    7.1574  -14.6493   20.9150 C   0  0  0  0  0  0  0  0  0  0  0  0
    8.7422  -14.0323   20.2478 S   0  0  0  0  0  0  0  0  0  0  0  0
    8.0454  -15.3470   23.1127 C   0  0  0  0  0  0  0  0  0  0  0  0
    9.2714  -15.1021   23.2342 O   0  0  0  0  0  0  0  0  0  0  0  0
    5.6134  -11.6522   26.4547 C   0  0  0  0  0  0  0  0  0  0  0  0
    6.6933  -12.4208   25.7280 C   0  0  1  0  0  0  0  0  0  0  0  0
    7.9219  -11.5890   25.6819 C   0  0  0  0  0  0  0  0  0  0  0  0
    6.8797  -13.8033   26.2732 C   0  0  0  0  0  0  0  0  0  0  0  0
    7.7808  -14.6882   25.4725 C   0  0  2  0  0  0  0  0  0  0  0  0
    7.2201  -15.1528   24.2435 N   0  0  0  0  0  0  0  0  0  0  0  0
    8.0314  -15.9105   26.3207 C   0  0  0  0  0  0  0  0  0  0  0  0
    8.5410  -15.8420   27.4668 O   0  0  0  0  0  0  0  0  0  0  0  0
    7.7354  -19.7369   24.6475 O   0  0  0  0  0  0  0  0  0  0  0  0
    7.3337  -19.6141   25.9859 C   0  0  0  0  0  0  0  0  0  0  0  0
    8.0653  -18.4034   26.5764 C   0  0  2  0  0  0  0  0  0  0  0  0
    7.6948  -17.2087   25.8478 N   0  0  0  0  0  0  0  0  0  0  0  0
    9.5213  -18.6171   26.6076 C   0  0  0  0  0  0  0  0  0  0  0  0
   10.4047  -17.8150   25.9102 O   0  0  0  0  0  0  0  0  0  0  0  0
    9.9920  -19.5589   27.2887 O   0  0  0  0  0  0  0  0  0  0  0  0
  2  5  1  0
  2  3  1  0
  2  1  1  1
  4  3  1  0
  5  6  2  0
  8  7  1  1
  8  9  1  0
  8 10  1  0
 11 10  1  1
 11 12  1  0
 11 13  1  0
 12  5  1  0
 13 18  1  0
 13 14  2  0
 16 15  1  0
 17 16  1  6
 18 17  1  0
 19 20  1  0
 19 17  1  0
 21 19  2  0
M  END
$$$$
