CLS.pdb
     RDKit          3D

 21 20  0  0  1  0  0  0  0  0999 V2000
    8.2239  -15.2808   20.2542 N   0  0  0  0  0  0  0  0  0  0  0  0
    7.5660  -15.8318   21.4004 C   0  0  1  0  0  0  0  0  0  0  0  0
    7.5813  -17.3419   21.2848 C   0  0  0  0  0  0  0  0  0  0  0  0
    6.6827  -18.0052   22.7304 S   0  0  0  0  0  0  0  0  0  0  0  0
    8.2432  -15.4088   22.6741 C   0  0  0  0  0  0  0  0  0  0  0  0
    9.4872  -15.2414   22.7229 O   0  0  0  0  0  0  0  0  0  0  0  0
    5.7717  -12.2782   26.6612 C   0  0  0  0  0  0  0  0  0  0  0  0
    6.7620  -12.8373   25.6654 C   0  0  1  0  0  0  0  0  0  0  0  0
    7.7782  -11.7969   25.3680 C   0  0  0  0  0  0  0  0  0  0  0  0
    7.3133  -14.1645   26.0876 C   0  0  0  0  0  0  0  0  0  0  0  0
    8.1716  -14.8501   25.0731 C   0  0  2  0  0  0  0  0  0  0  0  0
    7.5022  -15.1862   23.8567 N   0  0  0  0  0  0  0  0  0  0  0  0
    8.6046  -16.1522   25.7002 C   0  0  0  0  0  0  0  0  0  0  0  0
    7.7845  -17.0379   26.0477 O   0  0  0  0  0  0  0  0  0  0  0  0
   11.7917  -17.7312   24.5767 O   0  0  0  0  0  0  0  0  0  0  0  0
   11.7919  -18.0610   25.9402 C   0  0  0  0  0  0  0  0  0  0  0  0
   10.4173  -17.6847   26.5046 C   0  0  2  0  0  0  0  0  0  0  0  0
    9.9806  -16.4317   25.9258 N   0  0  0  0  0  0  0  0  0  0  0  0
   10.4301  -17.6529   27.9762 C   0  0  0  0  0  0  0  0  0  0  0  0
   10.8274  -18.7348   28.7389 O   0  0  0  0  0  0  0  0  0  0  0  0
   10.0693  -16.6112   28.5738 O   0  0  0  0  0  0  0  0  0  0  0  0
  2  5  1  0
  2  3  1  0
  2  1  1  6
  4  3  1  0
  5  6  2  0
  8  7  1  1
  8  9  1  0
  8 10  1  0
 11 10  1  1
 11 12  1  0
 11 13  1  0
 12  5  1  0
 13 18  1  0
 13 14  2  0
 16 15  1  0
 17 16  1  6
 18 17  1  0
 19 20  1  0
 19 17  1  0
 21 19  2  0
M  END
$$$$
