CLS.pdb
     RDKit          3D

 21 20  0  0  1  0  0  0  0  0999 V2000
    9.7102  -15.8946   20.2146 N   0  0  0  0  0  0  0  0  0  0  0  0
    8.6113  -16.0927   21.1109 C   0  0  1  0  0  0  0  0  0  0  0  0
    8.3846  -17.5815   21.2731 C   0  0  0  0  0  0  0  0  0  0  0  0
    7.0429  -18.0534   20.1266 S   0  0  0  0  0  0  0  0  0  0  0  0
    8.8802  -15.4667   22.4508 C   0  0  0  0  0  0  0  0  0  0  0  0
   10.0485  -15.3811   22.9043 O   0  0  0  0  0  0  0  0  0  0  0  0
    8.3176  -11.9058   26.3974 C   0  0  0  0  0  0  0  0  0  0  0  0
    7.2327  -12.9579   26.4278 C   0  0  1  0  0  0  0  0  0  0  0  0
    6.0399  -12.3934   27.1074 C   0  0  0  0  0  0  0  0  0  0  0  0
    6.9746  -13.5554   25.0788 C   0  0  0  0  0  0  0  0  0  0  0  0
    8.1065  -14.3461   24.5047 C   0  0  2  0  0  0  0  0  0  0  0  0
    7.8275  -14.9546   23.2427 N   0  0  0  0  0  0  0  0  0  0  0  0
    8.3689  -15.4703   25.4761 C   0  0  0  0  0  0  0  0  0  0  0  0
    7.5029  -16.3370   25.7530 O   0  0  0  0  0  0  0  0  0  0  0  0
   10.4887  -18.0248   25.1987 O   0  0  0  0  0  0  0  0  0  0  0  0
   10.9582  -17.6087   26.4534 C   0  0  0  0  0  0  0  0  0  0  0  0
    9.9023  -16.6727   27.0523 C   0  0  2  0  0  0  0  0  0  0  0  0
    9.6275  -15.5943   26.1265 N   0  0  0  0  0  0  0  0  0  0  0  0
   10.3060  -16.1865   28.3817 C   0  0  0  0  0  0  0  0  0  0  0  0
   10.4546  -14.8424   28.6673 O   0  0  0  0  0  0  0  0  0  0  0  0
   10.5266  -17.0119   29.2995 O   0  0  0  0  0  0  0  0  0  0  0  0
  2  5  1  0
  2  3  1  0
  2  1  1  6
  4  3  1  0
  5  6  2  0
  8  7  1  6
  8  9  1  0
  8 10  1  0
 11 10  1  1
 11 12  1  0
 11 13  1  0
 12  5  1  0
 13 18  1  0
 13 14  2  0
 16 15  1  0
 17 16  1  6
 18 17  1  0
 19 20  1  0
 19 17  1  0
 21 19  2  0
M  END
$$$$
