CLS.pdb
     RDKit          3D

 21 20  0  0  1  0  0  0  0  0999 V2000
    9.1694  -14.9513   20.4576 N   0  0  0  0  0  0  0  0  0  0  0  0
    8.1881  -15.4870   21.3521 C   0  0  1  0  0  0  0  0  0  0  0  0
    7.9939  -16.9544   21.0308 C   0  0  0  0  0  0  0  0  0  0  0  0
    6.6654  -17.5763   22.1196 S   0  0  0  0  0  0  0  0  0  0  0  0
    8.6118  -15.3284   22.7855 C   0  0  0  0  0  0  0  0  0  0  0  0
    9.8078  -15.4963   23.1311 O   0  0  0  0  0  0  0  0  0  0  0  0
    5.6881  -12.2076   26.6042 C   0  0  0  0  0  0  0  0  0  0  0  0
    6.8329  -12.7509   25.7801 C   0  0  1  0  0  0  0  0  0  0  0  0
    8.0053  -11.8553   25.9436 C   0  0  0  0  0  0  0  0  0  0  0  0
    7.0960  -14.2008   26.0485 C   0  0  0  0  0  0  0  0  0  0  0  0
    8.1010  -14.8438   25.1471 C   0  0  2  0  0  0  0  0  0  0  0  0
    7.6785  -14.9854   23.7898 N   0  0  0  0  0  0  0  0  0  0  0  0
    8.3114  -16.2395   25.6803 C   0  0  0  0  0  0  0  0  0  0  0  0
    7.3704  -17.0624   25.8031 O   0  0  0  0  0  0  0  0  0  0  0  0
   11.8961  -18.0880   25.4907 O   0  0  0  0  0  0  0  0  0  0  0  0
   10.7143  -18.8186   25.6844 C   0  0  0  0  0  0  0  0  0  0  0  0
    9.8192  -18.0042   26.6254 C   0  0  2  0  0  0  0  0  0  0  0  0
    9.6044  -16.6845   26.0708 N   0  0  0  0  0  0  0  0  0  0  0  0
   10.3711  -17.9607   27.9893 C   0  0  0  0  0  0  0  0  0  0  0  0
   10.6610  -16.7739   28.6355 O   0  0  0  0  0  0  0  0  0  0  0  0
   10.5915  -19.0334   28.6000 O   0  0  0  0  0  0  0  0  0  0  0  0
  2  5  1  0
  2  3  1  0
  2  1  1  6
  4  3  1  0
  5  6  2  0
  8  7  1  1
  8  9  1  0
  8 10  1  0
 11 10  1  1
 11 12  1  0
 11 13  1  0
 12  5  1  0
 13 18  1  0
 13 14  2  0
 16 15  1  0
 17 16  1  6
 18 17  1  0
 19 20  1  0
 19 17  1  0
 21 19  2  0
M  END
$$$$
