CLS.pdb
     RDKit          3D

 21 20  0  0  1  0  0  0  0  0999 V2000
    8.2952  -14.7077   20.0729 N   0  0  0  0  0  0  0  0  0  0  0  0
    7.5023  -15.2113   21.1536 C   0  0  1  0  0  0  0  0  0  0  0  0
    7.3193  -16.7027   20.9623 C   0  0  0  0  0  0  0  0  0  0  0  0
    5.7572  -16.9438   20.0464 S   0  0  0  0  0  0  0  0  0  0  0  0
    8.1545  -14.9415   22.4809 C   0  0  0  0  0  0  0  0  0  0  0  0
    9.4048  -14.9419   22.6015 O   0  0  0  0  0  0  0  0  0  0  0  0
    5.6735  -12.0783   26.7746 C   0  0  0  0  0  0  0  0  0  0  0  0
    6.6974  -12.5279   25.7574 C   0  0  1  0  0  0  0  0  0  0  0  0
    7.7940  -11.5285   25.7109 C   0  0  0  0  0  0  0  0  0  0  0  0
    7.1346  -13.9445   25.9706 C   0  0  0  0  0  0  0  0  0  0  0  0
    8.0174  -14.5067   24.9026 C   0  0  2  0  0  0  0  0  0  0  0  0
    7.3819  -14.6790   23.6348 N   0  0  0  0  0  0  0  0  0  0  0  0
    8.4211  -15.8824   25.3723 C   0  0  0  0  0  0  0  0  0  0  0  0
    7.5809  -16.7485   25.7213 O   0  0  0  0  0  0  0  0  0  0  0  0
   12.4279  -17.1384   25.1840 O   0  0  0  0  0  0  0  0  0  0  0  0
   11.3792  -18.0453   24.9710 C   0  0  0  0  0  0  0  0  0  0  0  0
   10.1960  -17.5909   25.8331 C   0  0  2  0  0  0  0  0  0  0  0  0
    9.7911  -16.2581   25.4392 N   0  0  0  0  0  0  0  0  0  0  0  0
   10.5084  -17.6851   27.2685 C   0  0  0  0  0  0  0  0  0  0  0  0
   10.4639  -16.5908   28.1115 O   0  0  0  0  0  0  0  0  0  0  0  0
   10.8287  -18.7939   27.7585 O   0  0  0  0  0  0  0  0  0  0  0  0
  2  5  1  0
  2  3  1  0
  2  1  1  6
  4  3  1  0
  5  6  2  0
  8  7  1  1
  8  9  1  0
  8 10  1  0
 11 10  1  1
 11 12  1  0
 11 13  1  0
 12  5  1  0
 13 18  1  0
 13 14  2  0
 16 15  1  0
 17 16  1  6
 18 17  1  0
 19 20  1  0
 19 17  1  0
 21 19  2  0
M  END
$$$$
