ELN.pdb
     RDKit          3D

 26 25  0  0  1  0  0  0  0  0999 V2000
    7.1482  -16.9096   21.6673 N   0  0  0  0  0  0  0  0  0  0  0  0
    8.5981  -16.8690   21.7247 C   0  0  1  0  0  0  0  0  0  0  0  0
    9.1496  -16.0317   20.5645 C   0  0  0  0  0  0  0  0  0  0  0  0
    8.7758  -16.7010   19.2352 C   0  0  0  0  0  0  0  0  0  0  0  0
    9.7087  -16.2451   18.1764 C   0  0  0  0  0  0  0  0  0  0  0  0
    9.3204  -15.6995   17.1165 O   0  0  0  0  0  0  0  0  0  0  0  0
    8.9783  -16.2350   23.0118 C   0  0  0  0  0  0  0  0  0  0  0  0
   10.2001  -16.0177   23.2758 O   0  0  0  0  0  0  0  0  0  0  0  0
   11.0729  -16.4350   18.3718 O   0  0  0  0  0  0  0  0  0  0  0  0
    8.2821  -12.3681   25.3413 C   0  0  0  0  0  0  0  0  0  0  0  0
    7.0412  -13.2358   25.3598 C   0  0  2  0  0  0  0  0  0  0  0  0
    5.8912  -12.4633   25.9265 C   0  0  0  0  0  0  0  0  0  0  0  0
    7.2650  -14.5831   25.9379 C   0  0  0  0  0  0  0  0  0  0  0  0
    8.2623  -15.4600   25.2739 C   0  0  2  0  0  0  0  0  0  0  0  0
    7.9494  -15.8778   23.9430 N   0  0  0  0  0  0  0  0  0  0  0  0
    8.6750  -16.5963   26.1431 C   0  0  0  0  0  0  0  0  0  0  0  0
    7.7941  -17.3801   26.5694 O   0  0  0  0  0  0  0  0  0  0  0  0
   12.0761  -19.9970   24.7209 N   0  0  0  0  0  0  0  0  0  0  0  0
   11.0452  -19.5742   25.6352 C   0  0  0  0  0  0  0  0  0  0  0  0
    9.8695  -19.9007   25.3754 O   0  0  0  0  0  0  0  0  0  0  0  0
   11.4856  -18.7864   26.8062 C   0  0  0  0  0  0  0  0  0  0  0  0
   10.3384  -18.0275   27.3793 C   0  0  2  0  0  0  0  0  0  0  0  0
   10.0175  -16.8572   26.5305 N   0  0  0  0  0  0  0  0  0  0  0  0
   10.7092  -17.5006   28.7135 C   0  0  0  0  0  0  0  0  0  0  0  0
   10.8529  -16.2579   28.9297 O   0  0  0  0  0  0  0  0  0  0  0  0
   10.9106  -18.3627   29.7804 O   0  0  0  0  0  0  0  0  0  0  0  0
  2  1  1  6
  3  2  1  0
  4  3  1  0
  5  4  1  0
  5  6  2  0
  7  2  1  0
  7  8  2  0
  9  5  1  0
 11 10  1  1
 11 12  1  0
 14 13  1  1
 13 11  1  0
 14 15  1  0
 15  7  1  0
 16 14  1  0
 17 16  2  0
 18 19  1  0
 19 21  1  0
 20 19  2  0
 22 21  1  6
 22 23  1  0
 23 16  1  0
 24 26  1  0
 24 22  1  0
 25 24  2  0
M  END
$$$$
