ELN.pdb
     RDKit          3D

 26 25  0  0  1  0  0  0  0  0999 V2000
    7.7523  -15.6256   20.6108 N   0  0  0  0  0  0  0  0  0  0  0  0
    7.4027  -16.0680   21.9484 C   0  0  1  0  0  0  0  0  0  0  0  0
    7.7375  -17.5548   22.1176 C   0  0  0  0  0  0  0  0  0  0  0  0
    8.8269  -17.9459   21.1101 C   0  0  0  0  0  0  0  0  0  0  0  0
    9.0756  -19.4053   21.1975 C   0  0  0  0  0  0  0  0  0  0  0  0
    8.1567  -20.2563   21.1421 O   0  0  0  0  0  0  0  0  0  0  0  0
    8.2067  -15.2715   22.9086 C   0  0  0  0  0  0  0  0  0  0  0  0
    9.3238  -14.7868   22.5523 O   0  0  0  0  0  0  0  0  0  0  0  0
   10.3871  -19.8437   21.3494 O   0  0  0  0  0  0  0  0  0  0  0  0
    7.1421  -11.3880   24.9986 C   0  0  0  0  0  0  0  0  0  0  0  0
    6.5528  -12.5925   25.7021 C   0  0  2  0  0  0  0  0  0  0  0  0
    5.5385  -12.1457   26.7081 C   0  0  0  0  0  0  0  0  0  0  0  0
    7.5708  -13.5540   26.1908 C   0  0  0  0  0  0  0  0  0  0  0  0
    8.4040  -14.2487   25.1770 C   0  0  2  0  0  0  0  0  0  0  0  0
    7.7035  -15.0636   24.2342 N   0  0  0  0  0  0  0  0  0  0  0  0
    9.5587  -14.9587   25.7931 C   0  0  0  0  0  0  0  0  0  0  0  0
   10.1137  -14.4504   26.7961 O   0  0  0  0  0  0  0  0  0  0  0  0
   11.0011  -18.5616   28.8246 N   0  0  0  0  0  0  0  0  0  0  0  0
    9.8993  -18.8539   27.9424 C   0  0  0  0  0  0  0  0  0  0  0  0
    9.4217  -20.0059   27.9725 O   0  0  0  0  0  0  0  0  0  0  0  0
    9.4361  -17.7475   27.0781 C   0  0  0  0  0  0  0  0  0  0  0  0
   10.5677  -17.2174   26.2664 C   0  0  2  0  0  0  0  0  0  0  0  0
   10.0847  -16.1899   25.3156 N   0  0  0  0  0  0  0  0  0  0  0  0
   11.1516  -18.3113   25.4554 C   0  0  0  0  0  0  0  0  0  0  0  0
   12.1806  -18.9523   25.8322 O   0  0  0  0  0  0  0  0  0  0  0  0
   10.5809  -18.6727   24.2448 O   0  0  0  0  0  0  0  0  0  0  0  0
  2  1  1  6
  3  2  1  0
  4  3  1  0
  5  4  1  0
  5  6  2  0
  7  2  1  0
  7  8  2  0
  9  5  1  0
 11 10  1  1
 11 12  1  0
 14 13  1  1
 13 11  1  0
 14 15  1  0
 15  7  1  0
 16 14  1  0
 17 16  2  0
 18 19  1  0
 19 21  1  0
 20 19  2  0
 22 21  1  6
 22 23  1  0
 23 16  1  0
 24 26  1  0
 24 22  1  0
 25 24  2  0
M  END
$$$$
