ELN.pdb
     RDKit          3D

 26 25  0  0  1  0  0  0  0  0999 V2000
    9.6943  -18.0097   17.4104 N   0  0  0  0  0  0  0  0  0  0  0  0
   10.8969  -17.2002   17.3370 C   0  0  1  0  0  0  0  0  0  0  0  0
   11.0351  -16.5849   15.9393 C   0  0  0  0  0  0  0  0  0  0  0  0
   10.0002  -17.2213   15.0018 C   0  0  0  0  0  0  0  0  0  0  0  0
   10.1077  -16.6019   13.6587 C   0  0  0  0  0  0  0  0  0  0  0  0
    9.1069  -16.3075   12.9633 O   0  0  0  0  0  0  0  0  0  0  0  0
   10.7686  -16.1143   18.3407 C   0  0  0  0  0  0  0  0  0  0  0  0
   11.6781  -15.2360   18.4455 O   0  0  0  0  0  0  0  0  0  0  0  0
   11.3765  -16.3396   13.1520 O   0  0  0  0  0  0  0  0  0  0  0  0
    8.6676  -12.3889   19.2686 C   0  0  0  0  0  0  0  0  0  0  0  0
    7.6896  -13.5262   19.4757 C   0  0  2  0  0  0  0  0  0  0  0  0
    6.3147  -12.9777   19.6986 C   0  0  0  0  0  0  0  0  0  0  0  0
    8.1512  -14.5375   20.4574 C   0  0  0  0  0  0  0  0  0  0  0  0
    9.4950  -15.1340   20.2506 C   0  0  2  0  0  0  0  0  0  0  0  0
    9.6099  -16.0779   19.1830 N   0  0  0  0  0  0  0  0  0  0  0  0
   10.0842  -15.6399   21.5211 C   0  0  0  0  0  0  0  0  0  0  0  0
   10.2049  -14.8491   22.4866 O   0  0  0  0  0  0  0  0  0  0  0  0
   14.6011  -15.6250   23.7727 N   0  0  0  0  0  0  0  0  0  0  0  0
   14.0446  -16.6915   22.9787 C   0  0  0  0  0  0  0  0  0  0  0  0
   14.6106  -17.8024   23.0205 O   0  0  0  0  0  0  0  0  0  0  0  0
   12.8426  -16.3623   22.1832 C   0  0  0  0  0  0  0  0  0  0  0  0
   11.7118  -17.2558   22.5619 C   0  0  2  0  0  0  0  0  0  0  0  0
   10.5274  -16.9760   21.7181 N   0  0  0  0  0  0  0  0  0  0  0  0
   11.3135  -16.9852   23.9631 C   0  0  0  0  0  0  0  0  0  0  0  0
   12.1251  -17.1169   24.9304 O   0  0  0  0  0  0  0  0  0  0  0  0
   10.0243  -16.5721   24.2618 O   0  0  0  0  0  0  0  0  0  0  0  0
  2  1  1  6
  3  2  1  0
  4  3  1  0
  5  4  1  0
  5  6  2  0
  7  2  1  0
  7  8  2  0
  9  5  1  0
 11 10  1  1
 11 12  1  0
 14 13  1  1
 13 11  1  0
 14 15  1  0
 15  7  1  0
 16 14  1  0
 17 16  2  0
 18 19  1  0
 19 21  1  0
 20 19  2  0
 22 21  1  6
 22 23  1  0
 23 16  1  0
 24 26  1  0
 24 22  1  0
 25 24  2  0
M  END
$$$$
