ELN.pdb
     RDKit          3D

 26 25  0  0  1  0  0  0  0  0999 V2000
    7.4756  -17.0897   21.5748 N   0  0  0  0  0  0  0  0  0  0  0  0
    8.8268  -16.5769   21.4393 C   0  0  1  0  0  0  0  0  0  0  0  0
    8.9937  -15.8792   20.0841 C   0  0  0  0  0  0  0  0  0  0  0  0
    7.6384  -15.8388   19.3655 C   0  0  0  0  0  0  0  0  0  0  0  0
    7.7879  -16.4046   18.0029 C   0  0  0  0  0  0  0  0  0  0  0  0
    7.4122  -17.5623   17.7022 O   0  0  0  0  0  0  0  0  0  0  0  0
    9.0441  -15.5922   22.5284 C   0  0  0  0  0  0  0  0  0  0  0  0
   10.1616  -15.0012   22.6362 O   0  0  0  0  0  0  0  0  0  0  0  0
    8.3726  -15.6131   17.0197 O   0  0  0  0  0  0  0  0  0  0  0  0
    5.8403  -12.4741   26.9248 C   0  0  0  0  0  0  0  0  0  0  0  0
    7.1450  -12.9190   26.2982 C   0  0  2  0  0  0  0  0  0  0  0  0
    8.0364  -11.7349   26.0890 C   0  0  0  0  0  0  0  0  0  0  0  0
    6.9695  -13.8132   25.1280 C   0  0  0  0  0  0  0  0  0  0  0  0
    8.1762  -14.4949   24.5956 C   0  0  2  0  0  0  0  0  0  0  0  0
    7.9786  -15.3251   23.4486 N   0  0  0  0  0  0  0  0  0  0  0  0
    8.9493  -15.1818   25.6669 C   0  0  0  0  0  0  0  0  0  0  0  0
    9.1870  -14.5621   26.7307 O   0  0  0  0  0  0  0  0  0  0  0  0
   10.6423  -18.7298   28.8205 N   0  0  0  0  0  0  0  0  0  0  0  0
    9.4257  -19.1810   28.1930 C   0  0  0  0  0  0  0  0  0  0  0  0
    8.8656  -20.1883   28.6703 O   0  0  0  0  0  0  0  0  0  0  0  0
    8.9534  -18.3971   27.0319 C   0  0  0  0  0  0  0  0  0  0  0  0
    9.8666  -17.2471   26.7790 C   0  0  2  0  0  0  0  0  0  0  0  0
    9.4453  -16.5100   25.5655 N   0  0  0  0  0  0  0  0  0  0  0  0
   11.2367  -17.7490   26.5216 C   0  0  0  0  0  0  0  0  0  0  0  0
   11.8876  -18.4042   27.3927 O   0  0  0  0  0  0  0  0  0  0  0  0
   11.8553  -17.5156   25.3030 O   0  0  0  0  0  0  0  0  0  0  0  0
  2  1  1  6
  3  2  1  0
  4  3  1  0
  5  4  1  0
  5  6  2  0
  7  2  1  0
  7  8  2  0
  9  5  1  0
 11 10  1  6
 11 12  1  0
 14 13  1  1
 13 11  1  0
 14 15  1  0
 15  7  1  0
 16 14  1  0
 17 16  2  0
 18 19  1  0
 19 21  1  0
 20 19  2  0
 22 21  1  6
 22 23  1  0
 23 16  1  0
 24 26  1  0
 24 22  1  0
 25 24  2  0
M  END
$$$$
