ELN.pdb
     RDKit          3D

 26 25  0  0  1  0  0  0  0  0999 V2000
   13.5985  -14.5265   16.7769 N   0  0  0  0  0  0  0  0  0  0  0  0
   12.6721  -15.5575   17.2078 C   0  0  1  0  0  0  0  0  0  0  0  0
   13.3874  -16.9116   17.2857 C   0  0  0  0  0  0  0  0  0  0  0  0
   13.7482  -17.3755   15.8681 C   0  0  0  0  0  0  0  0  0  0  0  0
   14.3118  -18.7458   15.9283 C   0  0  0  0  0  0  0  0  0  0  0  0
   15.4776  -18.9851   16.3227 O   0  0  0  0  0  0  0  0  0  0  0  0
   12.1811  -15.1835   18.5576 C   0  0  0  0  0  0  0  0  0  0  0  0
   13.0069  -14.8830   19.4728 O   0  0  0  0  0  0  0  0  0  0  0  0
   13.5085  -19.8084   15.5271 O   0  0  0  0  0  0  0  0  0  0  0  0
    9.1107  -12.0293   19.4944 C   0  0  0  0  0  0  0  0  0  0  0  0
    8.3855  -13.3345   19.2425 C   0  0  2  0  0  0  0  0  0  0  0  0
    6.9108  -13.0888   19.1695 C   0  0  0  0  0  0  0  0  0  0  0  0
    8.8157  -14.4371   20.1362 C   0  0  0  0  0  0  0  0  0  0  0  0
   10.2442  -14.8396   20.0942 C   0  0  2  0  0  0  0  0  0  0  0  0
   10.7699  -15.1701   18.8065 N   0  0  0  0  0  0  0  0  0  0  0  0
   10.5657  -15.8700   21.1198 C   0  0  0  0  0  0  0  0  0  0  0  0
   10.4260  -17.0802   20.8230 O   0  0  0  0  0  0  0  0  0  0  0  0
   14.2297  -17.3463   25.4382 N   0  0  0  0  0  0  0  0  0  0  0  0
   13.5014  -17.7179   24.2512 C   0  0  0  0  0  0  0  0  0  0  0  0
   13.3425  -18.9343   24.0247 O   0  0  0  0  0  0  0  0  0  0  0  0
   13.0068  -16.6090   23.4076 C   0  0  0  0  0  0  0  0  0  0  0  0
   11.5203  -16.6538   23.3148 C   0  0  2  0  0  0  0  0  0  0  0  0
   11.0250  -15.5730   22.4318 N   0  0  0  0  0  0  0  0  0  0  0  0
   10.9323  -16.4167   24.6540 C   0  0  0  0  0  0  0  0  0  0  0  0
   10.3182  -15.3425   24.9382 O   0  0  0  0  0  0  0  0  0  0  0  0
   11.0357  -17.3766   25.6489 O   0  0  0  0  0  0  0  0  0  0  0  0
  2  1  1  1
  3  2  1  0
  4  3  1  0
  5  4  1  0
  5  6  2  0
  7  2  1  0
  7  8  2  0
  9  5  1  0
 11 10  1  1
 11 12  1  0
 14 13  1  6
 13 11  1  0
 14 15  1  0
 15  7  1  0
 16 14  1  0
 17 16  2  0
 18 19  1  0
 19 21  1  0
 20 19  2  0
 22 21  1  1
 22 23  1  0
 23 16  1  0
 24 26  1  0
 24 22  1  0
 25 24  2  0
M  END
$$$$
