ELN.pdb
     RDKit          3D

 26 25  0  0  1  0  0  0  0  0999 V2000
    8.9922  -16.2528   20.3585 N   0  0  0  0  0  0  0  0  0  0  0  0
    7.7651  -16.0891   21.1166 C   0  0  1  0  0  0  0  0  0  0  0  0
    7.0490  -17.4374   21.2603 C   0  0  0  0  0  0  0  0  0  0  0  0
    6.6094  -17.9271   19.8740 C   0  0  0  0  0  0  0  0  0  0  0  0
    6.0472  -19.2943   19.9916 C   0  0  0  0  0  0  0  0  0  0  0  0
    6.0054  -19.9215   21.0763 O   0  0  0  0  0  0  0  0  0  0  0  0
    8.1335  -15.5831   22.4624 C   0  0  0  0  0  0  0  0  0  0  0  0
    9.1764  -16.0172   23.0402 O   0  0  0  0  0  0  0  0  0  0  0  0
    5.5473  -19.9036   18.8453 O   0  0  0  0  0  0  0  0  0  0  0  0
    5.8633  -11.6377   26.8113 C   0  0  0  0  0  0  0  0  0  0  0  0
    6.9299  -12.5944   26.3212 C   0  0  2  0  0  0  0  0  0  0  0  0
    8.2854  -12.0630   26.6684 C   0  0  0  0  0  0  0  0  0  0  0  0
    6.7430  -13.0248   24.9143 C   0  0  0  0  0  0  0  0  0  0  0  0
    7.5019  -14.2142   24.4518 C   0  0  2  0  0  0  0  0  0  0  0  0
    7.2962  -14.6056   23.0923 N   0  0  0  0  0  0  0  0  0  0  0  0
    7.3788  -15.3585   25.3965 C   0  0  0  0  0  0  0  0  0  0  0  0
    6.2614  -15.9110   25.5321 O   0  0  0  0  0  0  0  0  0  0  0  0
    6.7461  -20.1790   26.5070 N   0  0  0  0  0  0  0  0  0  0  0  0
    8.0597  -19.5936   26.4108 C   0  0  0  0  0  0  0  0  0  0  0  0
    9.0206  -20.2458   26.8666 O   0  0  0  0  0  0  0  0  0  0  0  0
    8.1426  -18.2621   25.7734 C   0  0  0  0  0  0  0  0  0  0  0  0
    8.3487  -17.2073   26.8055 C   0  0  2  0  0  0  0  0  0  0  0  0
    8.4552  -15.8748   26.1681 N   0  0  0  0  0  0  0  0  0  0  0  0
    9.6285  -17.4480   27.5122 C   0  0  0  0  0  0  0  0  0  0  0  0
    9.7626  -18.3826   28.3608 O   0  0  0  0  0  0  0  0  0  0  0  0
   10.7331  -16.6486   27.2614 O   0  0  0  0  0  0  0  0  0  0  0  0
  2  1  1  6
  3  2  1  0
  4  3  1  0
  5  4  1  0
  5  6  2  0
  7  2  1  0
  7  8  2  0
  9  5  1  0
 11 10  1  6
 11 12  1  0
 14 13  1  1
 13 11  1  0
 14 15  1  0
 15  7  1  0
 16 14  1  0
 17 16  2  0
 18 19  1  0
 19 21  1  0
 20 19  2  0
 22 21  1  6
 22 23  1  0
 23 16  1  0
 24 26  1  0
 24 22  1  0
 25 24  2  0
M  END
$$$$
