ELN.pdb
     RDKit          3D

 26 25  0  0  1  0  0  0  0  0999 V2000
    9.7161  -15.2130   20.2257 N   0  0  0  0  0  0  0  0  0  0  0  0
    8.7038  -15.8091   21.0784 C   0  0  1  0  0  0  0  0  0  0  0  0
    8.7957  -17.3385   21.0178 C   0  0  0  0  0  0  0  0  0  0  0  0
    8.8519  -17.7842   19.5504 C   0  0  0  0  0  0  0  0  0  0  0  0
    8.7315  -19.2607   19.4807 C   0  0  0  0  0  0  0  0  0  0  0  0
    7.7081  -19.8782   19.8590 O   0  0  0  0  0  0  0  0  0  0  0  0
    8.9645  -15.3564   22.4677 C   0  0  0  0  0  0  0  0  0  0  0  0
   10.1335  -15.0028   22.8113 O   0  0  0  0  0  0  0  0  0  0  0  0
    9.8041  -19.9876   18.9744 O   0  0  0  0  0  0  0  0  0  0  0  0
    8.3023  -12.4527   26.4450 C   0  0  0  0  0  0  0  0  0  0  0  0
    7.0046  -12.3792   25.6680 C   0  0  2  0  0  0  0  0  0  0  0  0
    5.8477  -12.3382   26.6168 C   0  0  0  0  0  0  0  0  0  0  0  0
    6.9095  -13.3738   24.5719 C   0  0  0  0  0  0  0  0  0  0  0  0
    7.9096  -14.4709   24.5495 C   0  0  2  0  0  0  0  0  0  0  0  0
    7.8816  -15.3282   23.4057 N   0  0  0  0  0  0  0  0  0  0  0  0
    7.9337  -15.2324   25.8288 C   0  0  0  0  0  0  0  0  0  0  0  0
    8.0287  -14.5980   26.9062 O   0  0  0  0  0  0  0  0  0  0  0  0
   12.1425  -18.3103   24.2983 N   0  0  0  0  0  0  0  0  0  0  0  0
   10.7249  -18.4407   24.5240 C   0  0  0  0  0  0  0  0  0  0  0  0
   10.2191  -19.5742   24.3985 O   0  0  0  0  0  0  0  0  0  0  0  0
    9.9993  -17.2049   24.8875 C   0  0  0  0  0  0  0  0  0  0  0  0
    9.0903  -17.4598   26.0404 C   0  0  2  0  0  0  0  0  0  0  0  0
    7.8573  -16.6491   25.9151 N   0  0  0  0  0  0  0  0  0  0  0  0
    9.7533  -17.0401   27.2972 C   0  0  0  0  0  0  0  0  0  0  0  0
    9.9980  -17.8602   28.2348 O   0  0  0  0  0  0  0  0  0  0  0  0
   10.1331  -15.7203   27.4868 O   0  0  0  0  0  0  0  0  0  0  0  0
  2  1  1  6
  3  2  1  0
  4  3  1  0
  5  4  1  0
  5  6  2  0
  7  2  1  0
  7  8  2  0
  9  5  1  0
 11 10  1  1
 11 12  1  0
 14 13  1  1
 13 11  1  0
 14 15  1  0
 15  7  1  0
 16 14  1  0
 17 16  2  0
 18 19  1  0
 19 21  1  0
 20 19  2  0
 22 21  1  6
 22 23  1  0
 23 16  1  0
 24 26  1  0
 24 22  1  0
 25 24  2  0
M  END
$$$$
