ELN.pdb
     RDKit          3D

 26 25  0  0  1  0  0  0  0  0999 V2000
    9.4057  -15.5293   20.2625 N   0  0  0  0  0  0  0  0  0  0  0  0
    8.2791  -15.7577   21.1490 C   0  0  1  0  0  0  0  0  0  0  0  0
    8.0819  -17.2612   21.3762 C   0  0  0  0  0  0  0  0  0  0  0  0
    9.4347  -17.9742   21.2469 C   0  0  0  0  0  0  0  0  0  0  0  0
    9.4800  -19.1166   22.1913 C   0  0  0  0  0  0  0  0  0  0  0  0
    8.5354  -19.9310   22.3194 O   0  0  0  0  0  0  0  0  0  0  0  0
    8.5877  -15.1019   22.4443 C   0  0  0  0  0  0  0  0  0  0  0  0
    9.7939  -14.9464   22.8057 O   0  0  0  0  0  0  0  0  0  0  0  0
   10.6216  -19.2867   22.9678 O   0  0  0  0  0  0  0  0  0  0  0  0
    5.5559  -12.0960   27.0665 C   0  0  0  0  0  0  0  0  0  0  0  0
    6.8328  -12.5491   26.3904 C   0  0  2  0  0  0  0  0  0  0  0  0
    7.8153  -11.4205   26.3550 C   0  0  0  0  0  0  0  0  0  0  0  0
    6.6084  -13.2540   25.1049 C   0  0  0  0  0  0  0  0  0  0  0  0
    7.7488  -14.0075   24.5250 C   0  0  2  0  0  0  0  0  0  0  0  0
    7.5077  -14.6536   23.2727 N   0  0  0  0  0  0  0  0  0  0  0  0
    8.3826  -14.9163   25.5196 C   0  0  0  0  0  0  0  0  0  0  0  0
    8.6849  -14.4591   26.6474 O   0  0  0  0  0  0  0  0  0  0  0  0
    8.4848  -19.2896   28.6303 N   0  0  0  0  0  0  0  0  0  0  0  0
    9.0223  -19.4182   27.2992 C   0  0  0  0  0  0  0  0  0  0  0  0
    9.9002  -20.2839   27.1089 O   0  0  0  0  0  0  0  0  0  0  0  0
    8.4746  -18.5020   26.2762 C   0  0  0  0  0  0  0  0  0  0  0  0
    9.1232  -17.1646   26.3802 C   0  0  2  0  0  0  0  0  0  0  0  0
    8.6749  -16.2858   25.2757 N   0  0  0  0  0  0  0  0  0  0  0  0
   10.5909  -17.3128   26.2414 C   0  0  0  0  0  0  0  0  0  0  0  0
   11.2053  -16.9640   25.1867 O   0  0  0  0  0  0  0  0  0  0  0  0
   11.3465  -17.8426   27.2760 O   0  0  0  0  0  0  0  0  0  0  0  0
  2  1  1  6
  3  2  1  0
  4  3  1  0
  5  4  1  0
  5  6  2  0
  7  2  1  0
  7  8  2  0
  9  5  1  0
 11 10  1  6
 11 12  1  0
 14 13  1  1
 13 11  1  0
 14 15  1  0
 15  7  1  0
 16 14  1  0
 17 16  2  0
 18 19  1  0
 19 21  1  0
 20 19  2  0
 22 21  1  6
 22 23  1  0
 23 16  1  0
 24 26  1  0
 24 22  1  0
 25 24  2  0
M  END
$$$$
