ELN.pdb
     RDKit          3D

 26 25  0  0  1  0  0  0  0  0999 V2000
   10.0443  -17.7008   16.0313 N   0  0  0  0  0  0  0  0  0  0  0  0
    9.5274  -18.0549   17.3407 C   0  0  1  0  0  0  0  0  0  0  0  0
   10.1341  -19.3838   17.8065 C   0  0  0  0  0  0  0  0  0  0  0  0
    9.5860  -20.5229   16.9365 C   0  0  0  0  0  0  0  0  0  0  0  0
   10.1615  -21.8108   17.3938 C   0  0  0  0  0  0  0  0  0  0  0  0
    9.8466  -22.9141   16.8884 O   0  0  0  0  0  0  0  0  0  0  0  0
    9.9204  -16.9785   18.2841 C   0  0  0  0  0  0  0  0  0  0  0  0
   11.0687  -16.4460   18.1969 O   0  0  0  0  0  0  0  0  0  0  0  0
   11.0894  -21.7886   18.4301 O   0  0  0  0  0  0  0  0  0  0  0  0
    8.4269  -12.7487   19.6101 C   0  0  0  0  0  0  0  0  0  0  0  0
    7.5312  -13.8583   20.1195 C   0  0  2  0  0  0  0  0  0  0  0  0
    6.2969  -13.2726   20.7310 C   0  0  0  0  0  0  0  0  0  0  0  0
    8.2428  -14.8701   20.9377 C   0  0  0  0  0  0  0  0  0  0  0  0
    9.3565  -15.6140   20.2967 C   0  0  2  0  0  0  0  0  0  0  0  0
    8.9881  -16.5569   19.2873 N   0  0  0  0  0  0  0  0  0  0  0  0
   10.2928  -16.1929   21.2993 C   0  0  0  0  0  0  0  0  0  0  0  0
   10.0689  -17.3459   21.7381 O   0  0  0  0  0  0  0  0  0  0  0  0
   14.5042  -17.7118   23.6078 N   0  0  0  0  0  0  0  0  0  0  0  0
   14.7025  -16.2903   23.4751 C   0  0  0  0  0  0  0  0  0  0  0  0
   15.6639  -15.7791   24.0840 O   0  0  0  0  0  0  0  0  0  0  0  0
   13.7371  -15.5675   22.6199 C   0  0  0  0  0  0  0  0  0  0  0  0
   12.4028  -16.2286   22.6742 C   0  0  2  0  0  0  0  0  0  0  0  0
   11.4388  -15.5189   21.8024 N   0  0  0  0  0  0  0  0  0  0  0  0
   11.8682  -16.1544   24.0541 C   0  0  0  0  0  0  0  0  0  0  0  0
   10.8825  -15.4130   24.3545 O   0  0  0  0  0  0  0  0  0  0  0  0
   12.4367  -16.9056   25.0713 O   0  0  0  0  0  0  0  0  0  0  0  0
  2  1  1  6
  3  2  1  0
  4  3  1  0
  5  4  1  0
  5  6  2  0
  7  2  1  0
  7  8  2  0
  9  5  1  0
 11 10  1  1
 11 12  1  0
 14 13  1  1
 13 11  1  0
 14 15  1  0
 15  7  1  0
 16 14  1  0
 17 16  2  0
 18 19  1  0
 19 21  1  0
 20 19  2  0
 22 21  1  1
 22 23  1  0
 23 16  1  0
 24 26  1  0
 24 22  1  0
 25 24  2  0
M  END
$$$$
