ELN.pdb
     RDKit          3D

 26 25  0  0  1  0  0  0  0  0999 V2000
    8.7956  -14.8444   20.6697 N   0  0  0  0  0  0  0  0  0  0  0  0
    8.0805  -15.5245   21.7343 C   0  0  1  0  0  0  0  0  0  0  0  0
    8.2203  -17.0435   21.5782 C   0  0  0  0  0  0  0  0  0  0  0  0
    9.6731  -17.3838   21.2197 C   0  0  0  0  0  0  0  0  0  0  0  0
    9.8103  -18.8525   21.0676 C   0  0  0  0  0  0  0  0  0  0  0  0
    9.8581  -19.4190   19.9501 O   0  0  0  0  0  0  0  0  0  0  0  0
    8.6885  -15.1055   23.0218 C   0  0  0  0  0  0  0  0  0  0  0  0
    9.9335  -14.8705   23.0892 O   0  0  0  0  0  0  0  0  0  0  0  0
    9.8871  -19.6313   22.2177 O   0  0  0  0  0  0  0  0  0  0  0  0
    7.8572  -11.5342   25.6364 C   0  0  0  0  0  0  0  0  0  0  0  0
    6.8479  -12.6297   25.9085 C   0  0  2  0  0  0  0  0  0  0  0  0
    5.7330  -12.0935   26.7511 C   0  0  0  0  0  0  0  0  0  0  0  0
    7.4577  -13.8998   26.3718 C   0  0  0  0  0  0  0  0  0  0  0  0
    8.3885  -14.5941   25.4465 C   0  0  2  0  0  0  0  0  0  0  0  0
    7.8513  -14.9742   24.1774 N   0  0  0  0  0  0  0  0  0  0  0  0
    9.1115  -15.7114   26.1143 C   0  0  0  0  0  0  0  0  0  0  0  0
    9.6938  -15.4879   27.2021 O   0  0  0  0  0  0  0  0  0  0  0  0
    8.9052  -20.3917   23.6777 N   0  0  0  0  0  0  0  0  0  0  0  0
    9.0068  -19.9002   25.0289 C   0  0  0  0  0  0  0  0  0  0  0  0
    8.0363  -20.0891   25.7896 O   0  0  0  0  0  0  0  0  0  0  0  0
   10.2657  -19.2127   25.3869 C   0  0  0  0  0  0  0  0  0  0  0  0
    9.9874  -18.0658   26.2965 C   0  0  2  0  0  0  0  0  0  0  0  0
    9.1903  -17.0327   25.5962 N   0  0  0  0  0  0  0  0  0  0  0  0
   11.2637  -17.4265   26.6936 C   0  0  0  0  0  0  0  0  0  0  0  0
   11.9852  -16.7925   25.8635 O   0  0  0  0  0  0  0  0  0  0  0  0
   11.7118  -17.5018   28.0034 O   0  0  0  0  0  0  0  0  0  0  0  0
  2  1  1  6
  3  2  1  0
  4  3  1  0
  5  4  1  0
  5  6  2  0
  7  2  1  0
  7  8  2  0
  9  5  1  0
 11 10  1  1
 11 12  1  0
 14 13  1  1
 13 11  1  0
 14 15  1  0
 15  7  1  0
 16 14  1  0
 17 16  2  0
 18 19  1  0
 19 21  1  0
 20 19  2  0
 22 21  1  6
 22 23  1  0
 23 16  1  0
 24 26  1  0
 24 22  1  0
 25 24  2  0
M  END
$$$$
