ELN.pdb
     RDKit          3D

 26 25  0  0  1  0  0  0  0  0999 V2000
    9.9811  -17.8195   15.0753 N   0  0  0  0  0  0  0  0  0  0  0  0
    8.7925  -17.7000   15.9001 C   0  0  1  0  0  0  0  0  0  0  0  0
    8.2397  -19.0905   16.2348 C   0  0  0  0  0  0  0  0  0  0  0  0
    9.4054  -20.0794   16.3698 C   0  0  0  0  0  0  0  0  0  0  0  0
    8.8745  -21.4200   16.7164 C   0  0  0  0  0  0  0  0  0  0  0  0
    9.3590  -22.4823   16.2598 O   0  0  0  0  0  0  0  0  0  0  0  0
    9.1853  -17.0126   17.1556 C   0  0  0  0  0  0  0  0  0  0  0  0
   10.3994  -17.0084   17.5239 O   0  0  0  0  0  0  0  0  0  0  0  0
    7.7906  -21.4966   17.5851 O   0  0  0  0  0  0  0  0  0  0  0  0
    6.5874  -13.2690   21.5083 C   0  0  0  0  0  0  0  0  0  0  0  0
    7.7817  -13.8481   20.7795 C   0  0  2  0  0  0  0  0  0  0  0  0
    8.7139  -12.7473   20.3798 C   0  0  0  0  0  0  0  0  0  0  0  0
    7.4184  -14.8101   19.7108 C   0  0  0  0  0  0  0  0  0  0  0  0
    8.5098  -15.6213   19.1148 C   0  0  2  0  0  0  0  0  0  0  0  0
    8.1767  -16.3615   17.9380 N   0  0  0  0  0  0  0  0  0  0  0  0
    9.2060  -16.4563   20.1323 C   0  0  0  0  0  0  0  0  0  0  0  0
    8.8061  -17.6288   20.3259 O   0  0  0  0  0  0  0  0  0  0  0  0
   13.2698  -19.6475   21.5759 N   0  0  0  0  0  0  0  0  0  0  0  0
   13.0445  -18.3038   22.0465 C   0  0  0  0  0  0  0  0  0  0  0  0
   13.4940  -17.9993   23.1697 O   0  0  0  0  0  0  0  0  0  0  0  0
   12.2948  -17.4061   21.1422 C   0  0  0  0  0  0  0  0  0  0  0  0
   11.0332  -16.9533   21.7930 C   0  0  2  0  0  0  0  0  0  0  0  0
   10.3073  -16.0097   20.9121 N   0  0  0  0  0  0  0  0  0  0  0  0
   11.3538  -16.2171   23.0381 C   0  0  0  0  0  0  0  0  0  0  0  0
   11.1640  -16.7234   24.1867 O   0  0  0  0  0  0  0  0  0  0  0  0
   11.8802  -14.9357   22.9833 O   0  0  0  0  0  0  0  0  0  0  0  0
  2  1  1  6
  3  2  1  0
  4  3  1  0
  5  4  1  0
  5  6  2  0
  7  2  1  0
  7  8  2  0
  9  5  1  0
 11 10  1  6
 11 12  1  0
 14 13  1  1
 13 11  1  0
 14 15  1  0
 15  7  1  0
 16 14  1  0
 17 16  2  0
 18 19  1  0
 19 21  1  0
 20 19  2  0
 22 21  1  6
 22 23  1  0
 23 16  1  0
 24 26  1  0
 24 22  1  0
 25 24  2  0
M  END
$$$$
