ELN.pdb
     RDKit          3D

 26 25  0  0  1  0  0  0  0  0999 V2000
    7.3883  -17.6157   22.0639 N   0  0  0  0  0  0  0  0  0  0  0  0
    8.7887  -17.2369   22.0156 C   0  0  1  0  0  0  0  0  0  0  0  0
    9.1827  -16.8515   20.5847 C   0  0  0  0  0  0  0  0  0  0  0  0
    7.9587  -16.2746   19.8609 C   0  0  0  0  0  0  0  0  0  0  0  0
    8.2884  -16.0631   18.4306 C   0  0  0  0  0  0  0  0  0  0  0  0
    8.5529  -14.9344   17.9532 O   0  0  0  0  0  0  0  0  0  0  0  0
    8.9669  -16.0633   22.9067 C   0  0  0  0  0  0  0  0  0  0  0  0
   10.0242  -15.3659   22.8341 O   0  0  0  0  0  0  0  0  0  0  0  0
    8.3019  -17.1681   17.5856 O   0  0  0  0  0  0  0  0  0  0  0  0
    5.7357  -12.4035   26.7912 C   0  0  0  0  0  0  0  0  0  0  0  0
    7.0458  -12.8342   26.1657 C   0  0  2  0  0  0  0  0  0  0  0  0
    7.8174  -11.6295   25.7258 C   0  0  0  0  0  0  0  0  0  0  0  0
    6.8989  -13.9134   25.1590 C   0  0  0  0  0  0  0  0  0  0  0  0
    8.1082  -14.7034   24.8155 C   0  0  2  0  0  0  0  0  0  0  0  0
    7.9328  -15.7368   23.8434 N   0  0  0  0  0  0  0  0  0  0  0  0
    8.8273  -15.1815   26.0285 C   0  0  0  0  0  0  0  0  0  0  0  0
    9.4313  -14.3446   26.7405 O   0  0  0  0  0  0  0  0  0  0  0  0
   11.9578  -19.2059   28.2283 N   0  0  0  0  0  0  0  0  0  0  0  0
   12.1713  -17.9671   27.5232 C   0  0  0  0  0  0  0  0  0  0  0  0
   13.2340  -17.3510   27.7411 O   0  0  0  0  0  0  0  0  0  0  0  0
   11.0987  -17.5418   26.5988 C   0  0  0  0  0  0  0  0  0  0  0  0
    9.9396  -17.0036   27.3651 C   0  0  2  0  0  0  0  0  0  0  0  0
    8.8792  -16.5409   26.4407 N   0  0  0  0  0  0  0  0  0  0  0  0
   10.3692  -15.8228   28.1502 C   0  0  0  0  0  0  0  0  0  0  0  0
   10.3272  -14.6468   27.6737 O   0  0  0  0  0  0  0  0  0  0  0  0
   10.8343  -15.9707   29.4478 O   0  0  0  0  0  0  0  0  0  0  0  0
  2  1  1  6
  3  2  1  0
  4  3  1  0
  5  4  1  0
  5  6  2  0
  7  2  1  0
  7  8  2  0
  9  5  1  0
 11 10  1  6
 11 12  1  0
 14 13  1  1
 13 11  1  0
 14 15  1  0
 15  7  1  0
 16 14  1  0
 17 16  2  0
 18 19  1  0
 19 21  1  0
 20 19  2  0
 22 21  1  6
 22 23  1  0
 23 16  1  0
 24 26  1  0
 24 22  1  0
 25 24  2  0
M  END
$$$$
