ELN.pdb
     RDKit          3D

 26 25  0  0  1  0  0  0  0  0999 V2000
    6.9550  -16.4264   21.8411 N   0  0  0  0  0  0  0  0  0  0  0  0
    8.3748  -16.7113   21.9428 C   0  0  1  0  0  0  0  0  0  0  0  0
    9.1054  -16.2090   20.6917 C   0  0  0  0  0  0  0  0  0  0  0  0
    8.1176  -16.1491   19.5188 C   0  0  0  0  0  0  0  0  0  0  0  0
    8.8454  -15.7734   18.2825 C   0  0  0  0  0  0  0  0  0  0  0  0
   10.0768  -15.5386   18.2629 O   0  0  0  0  0  0  0  0  0  0  0  0
    8.8920  -15.9935   23.1345 C   0  0  0  0  0  0  0  0  0  0  0  0
   10.1300  -15.7335   23.2312 O   0  0  0  0  0  0  0  0  0  0  0  0
    8.1256  -15.6769   17.0960 O   0  0  0  0  0  0  0  0  0  0  0  0
    8.0405  -12.0028   25.2247 C   0  0  0  0  0  0  0  0  0  0  0  0
    6.9623  -13.0223   25.5264 C   0  0  2  0  0  0  0  0  0  0  0  0
    5.8082  -12.3533   26.2054 C   0  0  0  0  0  0  0  0  0  0  0  0
    7.4721  -14.2538   26.1768 C   0  0  0  0  0  0  0  0  0  0  0  0
    8.4376  -15.0854   25.4148 C   0  0  2  0  0  0  0  0  0  0  0  0
    7.9757  -15.6049   24.1655 N   0  0  0  0  0  0  0  0  0  0  0  0
    9.0687  -16.1315   26.2659 C   0  0  0  0  0  0  0  0  0  0  0  0
    8.4027  -17.1525   26.5595 O   0  0  0  0  0  0  0  0  0  0  0  0
   12.6215  -19.9168   27.2083 N   0  0  0  0  0  0  0  0  0  0  0  0
   12.9995  -18.5980   27.6504 C   0  0  0  0  0  0  0  0  0  0  0  0
   13.8155  -18.5126   28.5902 O   0  0  0  0  0  0  0  0  0  0  0  0
   12.3772  -17.4612   26.9389 C   0  0  0  0  0  0  0  0  0  0  0  0
   11.0033  -17.2149   27.4605 C   0  0  2  0  0  0  0  0  0  0  0  0
   10.3924  -16.0514   26.7777 N   0  0  0  0  0  0  0  0  0  0  0  0
   11.0728  -16.8782   28.9017 C   0  0  0  0  0  0  0  0  0  0  0  0
   11.1399  -17.7737   29.7991 O   0  0  0  0  0  0  0  0  0  0  0  0
   11.0688  -15.5556   29.3173 O   0  0  0  0  0  0  0  0  0  0  0  0
  2  1  1  6
  3  2  1  0
  4  3  1  0
  5  4  1  0
  5  6  2  0
  7  2  1  0
  7  8  2  0
  9  5  1  0
 11 10  1  1
 11 12  1  0
 14 13  1  1
 13 11  1  0
 14 15  1  0
 15  7  1  0
 16 14  1  0
 17 16  2  0
 18 19  1  0
 19 21  1  0
 20 19  2  0
 22 21  1  6
 22 23  1  0
 23 16  1  0
 24 26  1  0
 24 22  1  0
 25 24  2  0
M  END
$$$$
