ELN.pdb
     RDKit          3D

 26 25  0  0  1  0  0  0  0  0999 V2000
    8.9417  -15.7684   20.1008 N   0  0  0  0  0  0  0  0  0  0  0  0
    8.2418  -16.2548   21.2758 C   0  0  1  0  0  0  0  0  0  0  0  0
    8.6553  -17.7005   21.5763 C   0  0  0  0  0  0  0  0  0  0  0  0
    9.8070  -18.1013   20.6447 C   0  0  0  0  0  0  0  0  0  0  0  0
   10.1486  -19.5265   20.8713 C   0  0  0  0  0  0  0  0  0  0  0  0
   11.3051  -19.9102   21.1664 O   0  0  0  0  0  0  0  0  0  0  0  0
    8.6251  -15.3872   22.4174 C   0  0  0  0  0  0  0  0  0  0  0  0
    9.8249  -14.9934   22.5405 O   0  0  0  0  0  0  0  0  0  0  0  0
    9.1386  -20.4753   20.7480 O   0  0  0  0  0  0  0  0  0  0  0  0
    5.8755  -12.4944   27.2940 C   0  0  0  0  0  0  0  0  0  0  0  0
    7.0731  -12.7484   26.4028 C   0  0  2  0  0  0  0  0  0  0  0  0
    7.7382  -11.4505   26.0658 C   0  0  0  0  0  0  0  0  0  0  0  0
    6.7838  -13.6453   25.2576 C   0  0  0  0  0  0  0  0  0  0  0  0
    7.9384  -14.1695   24.4852 C   0  0  2  0  0  0  0  0  0  0  0  0
    7.6246  -15.0076   23.3704 N   0  0  0  0  0  0  0  0  0  0  0  0
    8.9780  -14.7660   25.3686 C   0  0  0  0  0  0  0  0  0  0  0  0
    9.3169  -14.1461   26.4046 O   0  0  0  0  0  0  0  0  0  0  0  0
   10.8881  -17.1835   29.3184 N   0  0  0  0  0  0  0  0  0  0  0  0
   10.2798  -17.9417   28.2542 C   0  0  0  0  0  0  0  0  0  0  0  0
   10.4462  -19.1781   28.2539 O   0  0  0  0  0  0  0  0  0  0  0  0
    9.5080  -17.1725   27.2549 C   0  0  0  0  0  0  0  0  0  0  0  0
   10.4094  -16.6736   26.1784 C   0  0  2  0  0  0  0  0  0  0  0  0
    9.6240  -16.0065   25.1148 N   0  0  0  0  0  0  0  0  0  0  0  0
   11.1049  -17.8178   25.5440 C   0  0  0  0  0  0  0  0  0  0  0  0
   11.9832  -18.4964   26.1601 O   0  0  0  0  0  0  0  0  0  0  0  0
   10.8102  -18.1865   24.2404 O   0  0  0  0  0  0  0  0  0  0  0  0
  2  1  1  6
  3  2  1  0
  4  3  1  0
  5  4  1  0
  5  6  2  0
  7  2  1  0
  7  8  2  0
  9  5  1  0
 11 10  1  6
 11 12  1  0
 14 13  1  1
 13 11  1  0
 14 15  1  0
 15  7  1  0
 16 14  1  0
 17 16  2  0
 18 19  1  0
 19 21  1  0
 20 19  2  0
 22 21  1  1
 22 23  1  0
 23 16  1  0
 24 26  1  0
 24 22  1  0
 25 24  2  0
M  END
$$$$
