ELN.pdb
     RDKit          3D

 26 25  0  0  1  0  0  0  0  0999 V2000
    7.8329  -13.8869   20.2231 N   0  0  0  0  0  0  0  0  0  0  0  0
    7.4670  -14.9776   21.1083 C   0  0  1  0  0  0  0  0  0  0  0  0
    7.9606  -16.3114   20.5352 C   0  0  0  0  0  0  0  0  0  0  0  0
    6.9758  -16.7968   19.4630 C   0  0  0  0  0  0  0  0  0  0  0  0
    6.6985  -18.2391   19.6678 C   0  0  0  0  0  0  0  0  0  0  0  0
    7.2658  -18.9218   20.5531 O   0  0  0  0  0  0  0  0  0  0  0  0
    8.1236  -14.7326   22.4167 C   0  0  0  0  0  0  0  0  0  0  0  0
    9.3699  -14.5006   22.4680 O   0  0  0  0  0  0  0  0  0  0  0  0
    5.7688  -18.8572   18.8377 O   0  0  0  0  0  0  0  0  0  0  0  0
    7.9289  -11.6949   25.8156 C   0  0  0  0  0  0  0  0  0  0  0  0
    6.7350  -12.6263   25.8245 C   0  0  2  0  0  0  0  0  0  0  0  0
    5.6991  -12.1131   26.7753 C   0  0  0  0  0  0  0  0  0  0  0  0
    7.0968  -14.0572   25.9702 C   0  0  0  0  0  0  0  0  0  0  0  0
    7.9308  -14.6682   24.9046 C   0  0  2  0  0  0  0  0  0  0  0  0
    7.3313  -14.7648   23.6103 N   0  0  0  0  0  0  0  0  0  0  0  0
    8.5459  -15.9516   25.3422 C   0  0  0  0  0  0  0  0  0  0  0  0
    7.8168  -16.9669   25.4406 O   0  0  0  0  0  0  0  0  0  0  0  0
   11.3124  -18.6584   23.4030 N   0  0  0  0  0  0  0  0  0  0  0  0
   11.8429  -17.5347   24.1333 C   0  0  0  0  0  0  0  0  0  0  0  0
   12.2760  -16.5673   23.4754 O   0  0  0  0  0  0  0  0  0  0  0  0
   11.8216  -17.6380   25.6080 C   0  0  0  0  0  0  0  0  0  0  0  0
   10.4403  -17.4171   26.1214 C   0  0  2  0  0  0  0  0  0  0  0  0
    9.9219  -16.1080   25.6626 N   0  0  0  0  0  0  0  0  0  0  0  0
   10.4624  -17.3744   27.6023 C   0  0  0  0  0  0  0  0  0  0  0  0
   10.1003  -16.3449   28.2508 O   0  0  0  0  0  0  0  0  0  0  0  0
   10.8835  -18.4750   28.3327 O   0  0  0  0  0  0  0  0  0  0  0  0
  2  1  1  6
  3  2  1  0
  4  3  1  0
  5  4  1  0
  5  6  2  0
  7  2  1  0
  7  8  2  0
  9  5  1  0
 11 10  1  1
 11 12  1  0
 14 13  1  1
 13 11  1  0
 14 15  1  0
 15  7  1  0
 16 14  1  0
 17 16  2  0
 18 19  1  0
 19 21  1  0
 20 19  2  0
 22 21  1  6
 22 23  1  0
 23 16  1  0
 24 26  1  0
 24 22  1  0
 25 24  2  0
M  END
$$$$
