RIP.pdb
     RDKit          3D

 27 27  0  0  1  0  0  0  0  0999 V2000
    6.5801  -20.8942   19.7611 N   0  0  0  0  0  0  0  0  0  0  0  0
    6.6761  -20.0199   18.6289 C   0  0  0  0  0  0  0  0  0  0  0  0
    5.7156  -19.9507   17.7907 N   0  0  0  0  0  0  0  0  0  0  0  0
    7.8347  -19.2201   18.4209 N   0  0  0  0  0  0  0  0  0  0  0  0
    8.2684  -18.2575   19.4005 C   0  0  0  0  0  0  0  0  0  0  0  0
    7.0769  -17.5932   20.0441 C   0  0  0  0  0  0  0  0  0  0  0  0
    7.4080  -17.0954   21.4274 C   0  0  0  0  0  0  0  0  0  0  0  0
    7.1068  -15.6053   21.5552 C   0  0  2  0  0  0  0  0  0  0  0  0
    7.3655  -14.9028   20.3361 N   0  0  0  0  0  0  0  0  0  0  0  0
    7.8770  -15.0050   22.6691 C   0  0  0  0  0  0  0  0  0  0  0  0
    9.1051  -14.7879   22.5074 O   0  0  0  0  0  0  0  0  0  0  0  0
    5.8063  -19.4040   16.9236 C   0  0  0  0  0  0  0  0  0  0  0  0
    5.9105  -11.4984   26.4404 C   0  0  0  0  0  0  0  0  0  0  0  0
    6.7299  -12.2662   25.3861 C   0  0  2  0  0  0  0  0  0  0  0  0
    7.3495  -13.4602   26.0498 C   0  0  0  0  0  0  0  0  0  0  0  0
    8.2708  -13.0005   27.1305 C   0  0  2  0  0  0  0  0  0  0  0  0
    8.1007  -14.3803   25.0971 N   0  0  0  0  0  0  0  0  0  0  0  0
    7.3078  -14.6521   23.9324 C   0  0  0  0  0  0  0  0  0  0  0  0
    8.6945  -15.5520   25.7464 O   0  0  0  0  0  0  0  0  0  0  0  0
    7.9357  -16.1555   26.5904 N   0  0  0  0  0  0  0  0  0  0  0  0
    9.9843  -16.0880   25.5600 C   0  0  0  0  0  0  0  0  0  0  0  0
   10.8815  -15.7064   24.5055 C   0  0  0  0  0  0  0  0  0  0  0  0
   12.1293  -16.5979   24.6431 C   0  0  0  0  0  0  0  0  0  0  0  0
   12.0655  -17.0245   26.0795 C   0  0  2  0  0  0  0  0  0  0  0  0
   10.5813  -17.1347   26.3319 C   0  0  0  0  0  0  0  0  0  0  0  0
   10.3190  -17.0215   27.8000 O   0  0  0  0  0  0  0  0  0  0  0  0
    9.9448  -15.9215   28.2521 O   0  0  0  0  0  0  0  0  0  0  0  0
  2  1  1  0
  3  2  2  0
  4  2  1  0
  5  4  1  0
  6  5  1  0
  6  7  1  0
  8 10  1  0
  8  9  1  6
  8  7  1  0
 10 11  2  0
 13 12  1  0
 14 13  1  0
 14 15  1  1
 16 17  1  6
 16 14  1  0
 17 10  1  0
 18 16  1  0
 19 18  2  0
 20 18  1  0
 20 24  1  0
 21 22  1  0
 21 20  1  0
 22 23  1  0
 23 24  1  0
 25 27  1  0
 24 25  1  1
 26 25  2  0
M  END
$$$$
