RIP.pdb
     RDKit          3D

 27 27  0  0  1  0  0  0  0  0999 V2000
    9.8993  -14.4251   16.1693 N   0  0  0  0  0  0  0  0  0  0  0  0
    9.9890  -13.4086   17.1762 C   0  0  0  0  0  0  0  0  0  0  0  0
   11.1312  -13.0211   17.5945 N   0  0  0  0  0  0  0  0  0  0  0  0
    8.8153  -12.8181   17.7233 N   0  0  0  0  0  0  0  0  0  0  0  0
    7.7720  -13.6222   18.3060 C   0  0  0  0  0  0  0  0  0  0  0  0
    8.3654  -14.8083   19.0244 C   0  0  0  0  0  0  0  0  0  0  0  0
    8.8315  -14.4341   20.4077 C   0  0  0  0  0  0  0  0  0  0  0  0
    8.2471  -15.3799   21.4524 C   0  0  2  0  0  0  0  0  0  0  0  0
    6.9247  -15.8029   21.1081 N   0  0  0  0  0  0  0  0  0  0  0  0
    8.2546  -14.7530   22.7945 C   0  0  0  0  0  0  0  0  0  0  0  0
    7.9263  -13.5435   22.8990 O   0  0  0  0  0  0  0  0  0  0  0  0
   11.2124  -12.3251   18.3481 C   0  0  0  0  0  0  0  0  0  0  0  0
    6.1519  -12.3718   26.6478 C   0  0  0  0  0  0  0  0  0  0  0  0
    6.9715  -13.6527   26.8932 C   0  0  2  0  0  0  0  0  0  0  0  0
    7.1228  -14.3722   25.5858 C   0  0  0  0  0  0  0  0  0  0  0  0
    6.1978  -15.5434   25.5578 C   0  0  2  0  0  0  0  0  0  0  0  0
    8.5429  -14.8375   25.2936 N   0  0  0  0  0  0  0  0  0  0  0  0
    8.6154  -15.4422   23.9942 C   0  0  0  0  0  0  0  0  0  0  0  0
    9.1540  -15.6032   26.3833 O   0  0  0  0  0  0  0  0  0  0  0  0
    8.8901  -16.8612   26.3855 N   0  0  0  0  0  0  0  0  0  0  0  0
    9.9844  -15.1295   27.4184 C   0  0  0  0  0  0  0  0  0  0  0  0
   10.1697  -13.7435   27.7459 C   0  0  0  0  0  0  0  0  0  0  0  0
   11.2126  -13.6927   28.8775 C   0  0  0  0  0  0  0  0  0  0  0  0
   11.1223  -15.0705   29.4630 C   0  0  2  0  0  0  0  0  0  0  0  0
   10.8235  -15.9290   28.2578 C   0  0  0  0  0  0  0  0  0  0  0  0
   10.1834  -17.2046   28.7051 O   0  0  0  0  0  0  0  0  0  0  0  0
    8.9630  -17.3584   28.5020 O   0  0  0  0  0  0  0  0  0  0  0  0
  2  1  1  0
  3  2  2  0
  4  2  1  0
  5  4  1  0
  6  5  1  0
  6  7  1  0
  8 10  1  0
  8  9  1  6
  8  7  1  0
 10 11  2  0
 13 12  1  0
 14 13  1  0
 14 15  1  6
 16 17  1  1
 16 14  1  0
 17 10  1  0
 18 16  1  0
 19 18  2  0
 20 18  1  0
 20 24  1  0
 21 22  1  0
 21 20  1  0
 22 23  1  0
 23 24  1  0
 25 27  1  0
 24 25  1  1
 26 25  2  0
M  END
$$$$
