RIP.pdb
     RDKit          3D

 27 27  0  0  1  0  0  0  0  0999 V2000
   13.9978  -20.5267   19.1275 N   0  0  0  0  0  0  0  0  0  0  0  0
   13.0919  -19.9609   20.0839 C   0  0  0  0  0  0  0  0  0  0  0  0
   12.4798  -20.7170   20.9107 N   0  0  0  0  0  0  0  0  0  0  0  0
   12.8606  -18.5573   20.1281 N   0  0  0  0  0  0  0  0  0  0  0  0
   12.0243  -17.9658   21.1405 C   0  0  0  0  0  0  0  0  0  0  0  0
   10.5701  -18.2253   20.8350 C   0  0  0  0  0  0  0  0  0  0  0  0
    9.6858  -17.8020   21.9794 C   0  0  0  0  0  0  0  0  0  0  0  0
    9.1667  -16.3829   21.7687 C   0  0  2  0  0  0  0  0  0  0  0  0
    9.8071  -15.7397   20.6631 N   0  0  0  0  0  0  0  0  0  0  0  0
    9.3277  -15.5741   22.9993 C   0  0  0  0  0  0  0  0  0  0  0  0
   10.4452  -15.0476   23.2351 O   0  0  0  0  0  0  0  0  0  0  0  0
   11.7623  -20.3394   21.5441 C   0  0  0  0  0  0  0  0  0  0  0  0
    6.0072  -12.1577   26.8675 C   0  0  0  0  0  0  0  0  0  0  0  0
    7.3622  -12.8494   26.6272 C   0  0  2  0  0  0  0  0  0  0  0  0
    7.1989  -13.8255   25.5000 C   0  0  0  0  0  0  0  0  0  0  0  0
    6.1126  -14.7917   25.8384 C   0  0  2  0  0  0  0  0  0  0  0  0
    8.4691  -14.5890   25.1505 N   0  0  0  0  0  0  0  0  0  0  0  0
    8.2822  -15.3504   23.9486 C   0  0  0  0  0  0  0  0  0  0  0  0
    9.0533  -15.3196   26.2784 O   0  0  0  0  0  0  0  0  0  0  0  0
    8.7360  -16.5631   26.3506 N   0  0  0  0  0  0  0  0  0  0  0  0
    9.9094  -14.8262   27.2830 C   0  0  0  0  0  0  0  0  0  0  0  0
   10.2639  -13.4441   27.4462 C   0  0  0  0  0  0  0  0  0  0  0  0
   11.2730  -13.3812   28.6075 C   0  0  0  0  0  0  0  0  0  0  0  0
   10.9886  -14.6513   29.3526 C   0  0  2  0  0  0  0  0  0  0  0  0
   10.6143  -15.6116   28.2496 C   0  0  0  0  0  0  0  0  0  0  0  0
    9.8020  -16.7298   28.8213 O   0  0  0  0  0  0  0  0  0  0  0  0
    8.6103  -16.8360   28.4708 O   0  0  0  0  0  0  0  0  0  0  0  0
  2  1  1  0
  3  2  2  0
  4  2  1  0
  5  4  1  0
  6  5  1  0
  6  7  1  0
  8 10  1  0
  8  9  1  6
  8  7  1  0
 10 11  2  0
 13 12  1  0
 14 13  1  0
 14 15  1  6
 16 17  1  1
 16 14  1  0
 17 10  1  0
 18 16  1  0
 19 18  2  0
 20 18  1  0
 20 24  1  0
 21 22  1  0
 21 20  1  0
 22 23  1  0
 23 24  1  0
 25 27  1  0
 24 25  1  1
 26 25  2  0
M  END
$$$$
