RIP.pdb
     RDKit          3D

 27 27  0  0  1  0  0  0  0  0999 V2000
    7.7595  -12.8959   17.3566 N   0  0  0  0  0  0  0  0  0  0  0  0
    8.3854  -13.8358   16.4733 C   0  0  0  0  0  0  0  0  0  0  0  0
    7.8771  -14.0724   15.3263 N   0  0  0  0  0  0  0  0  0  0  0  0
    9.5749  -14.5167   16.8565 N   0  0  0  0  0  0  0  0  0  0  0  0
   10.1554  -14.3369   18.1623 C   0  0  0  0  0  0  0  0  0  0  0  0
    9.4335  -15.1877   19.1773 C   0  0  0  0  0  0  0  0  0  0  0  0
   10.0020  -14.9928   20.5592 C   0  0  0  0  0  0  0  0  0  0  0  0
    9.2325  -15.8195   21.5849 C   0  0  2  0  0  0  0  0  0  0  0  0
    7.8505  -15.9469   21.2381 N   0  0  0  0  0  0  0  0  0  0  0  0
    9.3722  -15.2404   22.9411 C   0  0  0  0  0  0  0  0  0  0  0  0
   10.4708  -14.7227   23.2675 O   0  0  0  0  0  0  0  0  0  0  0  0
    8.3198  -14.7360   14.6763 C   0  0  0  0  0  0  0  0  0  0  0  0
    5.3470  -12.3478   25.3481 C   0  0  0  0  0  0  0  0  0  0  0  0
    6.7548  -12.7729   24.8902 C   0  0  2  0  0  0  0  0  0  0  0  0
    7.1444  -14.0062   25.6498 C   0  0  0  0  0  0  0  0  0  0  0  0
    7.2062  -13.6885   27.1070 C   0  0  2  0  0  0  0  0  0  0  0  0
    8.4659  -14.6181   25.2054 N   0  0  0  0  0  0  0  0  0  0  0  0
    8.3262  -15.2318   23.9158 C   0  0  0  0  0  0  0  0  0  0  0  0
    9.1158  -15.4392   26.2304 O   0  0  0  0  0  0  0  0  0  0  0  0
    8.8685  -16.6988   26.1630 N   0  0  0  0  0  0  0  0  0  0  0  0
    9.9673  -15.0169   27.2706 C   0  0  0  0  0  0  0  0  0  0  0  0
   10.4095  -13.6643   27.4643 C   0  0  0  0  0  0  0  0  0  0  0  0
   11.3786  -13.6836   28.6607 C   0  0  0  0  0  0  0  0  0  0  0  0
   10.9816  -14.9391   29.3786 C   0  0  2  0  0  0  0  0  0  0  0  0
   10.5819  -15.8593   28.2507 C   0  0  0  0  0  0  0  0  0  0  0  0
    9.6751  -16.9250   28.7788 O   0  0  0  0  0  0  0  0  0  0  0  0
    8.4477  -16.8022   28.5978 O   0  0  0  0  0  0  0  0  0  0  0  0
  2  1  1  0
  3  2  2  0
  4  2  1  0
  5  4  1  0
  6  5  1  0
  6  7  1  0
  8 10  1  0
  8  9  1  6
  8  7  1  0
 10 11  2  0
 13 12  1  0
 14 13  1  0
 14 15  1  6
 16 17  1  1
 16 14  1  0
 17 10  1  0
 18 16  1  0
 19 18  2  0
 20 18  1  0
 20 24  1  0
 21 22  1  0
 21 20  1  0
 22 23  1  0
 23 24  1  0
 25 27  1  0
 24 25  1  1
 26 25  2  0
M  END
$$$$
