RIP.pdb
     RDKit          3D

 27 27  0  0  1  0  0  0  0  0999 V2000
    7.0507  -14.9303   16.1847 N   0  0  0  0  0  0  0  0  0  0  0  0
    8.2547  -14.3884   16.7434 C   0  0  0  0  0  0  0  0  0  0  0  0
    8.4200  -13.1238   16.8027 N   0  0  0  0  0  0  0  0  0  0  0  0
    9.2792  -15.2437   17.2376 N   0  0  0  0  0  0  0  0  0  0  0  0
    9.3225  -15.6415   18.6212 C   0  0  0  0  0  0  0  0  0  0  0  0
    7.9875  -16.1999   19.0470 C   0  0  0  0  0  0  0  0  0  0  0  0
    7.9327  -16.4120   20.5379 C   0  0  0  0  0  0  0  0  0  0  0  0
    7.3389  -15.1937   21.2385 C   0  0  2  0  0  0  0  0  0  0  0  0
    7.3678  -14.0322   20.4040 N   0  0  0  0  0  0  0  0  0  0  0  0
    8.0384  -14.9273   22.5169 C   0  0  0  0  0  0  0  0  0  0  0  0
    9.2499  -14.5916   22.4849 O   0  0  0  0  0  0  0  0  0  0  0  0
    9.3267  -12.7192   17.0728 C   0  0  0  0  0  0  0  0  0  0  0  0
    5.9568  -11.7982   26.2628 C   0  0  0  0  0  0  0  0  0  0  0  0
    6.9015  -12.5415   25.2998 C   0  0  2  0  0  0  0  0  0  0  0  0
    7.2718  -13.8543   25.9238 C   0  0  0  0  0  0  0  0  0  0  0  0
    8.0000  -13.6042   27.2025 C   0  0  2  0  0  0  0  0  0  0  0  0
    8.1116  -14.7536   25.0268 N   0  0  0  0  0  0  0  0  0  0  0  0
    7.4179  -15.0284   23.8011 C   0  0  0  0  0  0  0  0  0  0  0  0
    8.6724  -15.9209   25.7125 O   0  0  0  0  0  0  0  0  0  0  0  0
    7.8467  -16.5730   26.4508 N   0  0  0  0  0  0  0  0  0  0  0  0
    9.9943  -16.4061   25.6615 C   0  0  0  0  0  0  0  0  0  0  0  0
   10.9995  -15.9403   24.7477 C   0  0  0  0  0  0  0  0  0  0  0  0
   12.2532  -16.7994   24.9948 C   0  0  0  0  0  0  0  0  0  0  0  0
   12.0292  -17.3054   26.3887 C   0  0  2  0  0  0  0  0  0  0  0  0
   10.5304  -17.4746   26.4483 C   0  0  0  0  0  0  0  0  0  0  0  0
   10.0857  -17.4496   27.8760 O   0  0  0  0  0  0  0  0  0  0  0  0
   10.0113  -18.5306   28.4926 O   0  0  0  0  0  0  0  0  0  0  0  0
  2  1  1  0
  3  2  2  0
  4  2  1  0
  5  4  1  0
  6  5  1  0
  6  7  1  0
  8 10  1  0
  8  9  1  6
  8  7  1  0
 10 11  2  0
 13 12  1  0
 14 13  1  0
 14 15  1  6
 16 17  1  6
 16 14  1  0
 17 10  1  0
 18 16  1  0
 19 18  2  0
 20 18  1  0
 20 24  1  0
 21 22  1  0
 21 20  1  0
 22 23  1  0
 23 24  1  0
 25 27  1  0
 24 25  1  1
 26 25  2  0
M  END
$$$$
