RIP.pdb
     RDKit          3D

 27 27  0  0  1  0  0  0  0  0999 V2000
    7.5486  -20.4114   18.3113 N   0  0  0  0  0  0  0  0  0  0  0  0
    7.3856  -20.1042   19.7022 C   0  0  0  0  0  0  0  0  0  0  0  0
    6.2156  -20.0178   20.2057 N   0  0  0  0  0  0  0  0  0  0  0  0
    8.5164  -19.8914   20.5397 N   0  0  0  0  0  0  0  0  0  0  0  0
    8.8088  -18.5933   21.0910 C   0  0  0  0  0  0  0  0  0  0  0  0
    7.9361  -17.5438   20.4489 C   0  0  0  0  0  0  0  0  0  0  0  0
    7.0138  -16.9070   21.4561 C   0  0  0  0  0  0  0  0  0  0  0  0
    7.2066  -15.3940   21.4891 C   0  0  2  0  0  0  0  0  0  0  0  0
    7.8693  -14.9154   20.3151 N   0  0  0  0  0  0  0  0  0  0  0  0
    7.9487  -14.9830   22.7035 C   0  0  0  0  0  0  0  0  0  0  0  0
    9.1929  -14.8177   22.6250 O   0  0  0  0  0  0  0  0  0  0  0  0
    6.0796  -19.7438   21.1881 C   0  0  0  0  0  0  0  0  0  0  0  0
    5.9383  -11.5332   26.4590 C   0  0  0  0  0  0  0  0  0  0  0  0
    6.7718  -12.3177   25.4283 C   0  0  2  0  0  0  0  0  0  0  0  0
    7.2880  -13.5614   26.0891 C   0  0  0  0  0  0  0  0  0  0  0  0
    8.1285  -13.1831   27.2632 C   0  0  2  0  0  0  0  0  0  0  0  0
    8.0849  -14.4713   25.1641 N   0  0  0  0  0  0  0  0  0  0  0  0
    7.3348  -14.7594   23.9752 C   0  0  0  0  0  0  0  0  0  0  0  0
    8.6769  -15.6312   25.8360 O   0  0  0  0  0  0  0  0  0  0  0  0
    7.9100  -16.2291   26.6766 N   0  0  0  0  0  0  0  0  0  0  0  0
    9.9724  -16.1611   25.6742 C   0  0  0  0  0  0  0  0  0  0  0  0
   10.9601  -15.6394   24.7715 C   0  0  0  0  0  0  0  0  0  0  0  0
   12.1827  -16.5703   24.8686 C   0  0  0  0  0  0  0  0  0  0  0  0
   11.9923  -17.2160   26.2088 C   0  0  2  0  0  0  0  0  0  0  0  0
   10.4909  -17.3299   26.3169 C   0  0  0  0  0  0  0  0  0  0  0  0
   10.1054  -17.4428   27.7576 O   0  0  0  0  0  0  0  0  0  0  0  0
    9.7500  -16.4101   28.3588 O   0  0  0  0  0  0  0  0  0  0  0  0
  2  1  1  0
  3  2  2  0
  4  2  1  0
  5  4  1  0
  6  5  1  0
  6  7  1  0
  8 10  1  0
  8  9  1  6
  8  7  1  0
 10 11  2  0
 13 12  1  0
 14 13  1  0
 14 15  1  1
 16 17  1  6
 16 14  1  0
 17 10  1  0
 18 16  1  0
 19 18  2  0
 20 18  1  0
 20 24  1  0
 21 22  1  0
 21 20  1  0
 22 23  1  0
 23 24  1  0
 25 27  1  0
 24 25  1  1
 26 25  2  0
M  END
$$$$
