RIP.pdb
     RDKit          3D

 27 27  0  0  1  0  0  0  0  0999 V2000
   10.2692  -18.4693   17.6943 N   0  0  0  0  0  0  0  0  0  0  0  0
    9.3625  -19.5504   17.9482 C   0  0  0  0  0  0  0  0  0  0  0  0
    8.6843  -20.0549   16.9913 N   0  0  0  0  0  0  0  0  0  0  0  0
    9.2033  -20.0761   19.2610 N   0  0  0  0  0  0  0  0  0  0  0  0
    9.2202  -19.2205   20.4195 C   0  0  0  0  0  0  0  0  0  0  0  0
   10.5720  -18.5679   20.5680 C   0  0  0  0  0  0  0  0  0  0  0  0
   10.6307  -17.7038   21.8012 C   0  0  0  0  0  0  0  0  0  0  0  0
    9.5107  -16.6678   21.7926 C   0  0  2  0  0  0  0  0  0  0  0  0
    9.4974  -15.9074   20.5810 N   0  0  0  0  0  0  0  0  0  0  0  0
    9.6154  -15.7680   22.9646 C   0  0  0  0  0  0  0  0  0  0  0  0
   10.7395  -15.2879   23.2601 O   0  0  0  0  0  0  0  0  0  0  0  0
    8.0288  -20.8305   17.1569 C   0  0  0  0  0  0  0  0  0  0  0  0
    6.1162  -12.1980   26.5944 C   0  0  0  0  0  0  0  0  0  0  0  0
    7.4898  -12.8647   26.3916 C   0  0  2  0  0  0  0  0  0  0  0  0
    7.3570  -13.8968   25.3112 C   0  0  0  0  0  0  0  0  0  0  0  0
    6.3025  -14.8805   25.6964 C   0  0  2  0  0  0  0  0  0  0  0  0
    8.6507  -14.6346   24.9945 N   0  0  0  0  0  0  0  0  0  0  0  0
    8.5075  -15.4053   23.7925 C   0  0  0  0  0  0  0  0  0  0  0  0
    9.2245  -15.3473   26.1391 O   0  0  0  0  0  0  0  0  0  0  0  0
    8.9468  -16.6008   26.2006 N   0  0  0  0  0  0  0  0  0  0  0  0
   10.0327  -14.8275   27.1697 C   0  0  0  0  0  0  0  0  0  0  0  0
   10.3245  -13.4333   27.3528 C   0  0  0  0  0  0  0  0  0  0  0  0
   11.2996  -13.3384   28.5407 C   0  0  0  0  0  0  0  0  0  0  0  0
   11.0495  -14.6259   29.2682 C   0  0  2  0  0  0  0  0  0  0  0  0
   10.7446  -15.5912   28.1484 C   0  0  0  0  0  0  0  0  0  0  0  0
    9.9654  -16.7473   28.6898 O   0  0  0  0  0  0  0  0  0  0  0  0
   10.5555  -17.5722   29.4148 O   0  0  0  0  0  0  0  0  0  0  0  0
  2  1  1  0
  3  2  2  0
  4  2  1  0
  5  4  1  0
  6  5  1  0
  6  7  1  0
  8 10  1  0
  8  9  1  6
  8  7  1  0
 10 11  2  0
 13 12  1  0
 14 13  1  0
 14 15  1  6
 16 17  1  1
 16 14  1  0
 17 10  1  0
 18 16  1  0
 19 18  2  0
 20 18  1  0
 20 24  1  0
 21 22  1  0
 21 20  1  0
 22 23  1  0
 23 24  1  0
 25 27  1  0
 24 25  1  1
 26 25  2  0
M  END
$$$$
