RIP.pdb
     RDKit          3D

 27 27  0  0  1  0  0  0  0  0999 V2000
   10.1139  -19.1721   17.5111 N   0  0  0  0  0  0  0  0  0  0  0  0
    8.9792  -19.9348   17.9426 C   0  0  0  0  0  0  0  0  0  0  0  0
    8.6233  -20.9752   17.2939 N   0  0  0  0  0  0  0  0  0  0  0  0
    8.2352  -19.5486   19.0927 N   0  0  0  0  0  0  0  0  0  0  0  0
    7.9100  -18.1689   19.3481 C   0  0  0  0  0  0  0  0  0  0  0  0
    9.1226  -17.4319   19.8597 C   0  0  0  0  0  0  0  0  0  0  0  0
    8.9253  -16.9732   21.2815 C   0  0  0  0  0  0  0  0  0  0  0  0
    8.4027  -15.5405   21.3227 C   0  0  2  0  0  0  0  0  0  0  0  0
    8.9089  -14.7571   20.2381 N   0  0  0  0  0  0  0  0  0  0  0  0
    8.7263  -14.8979   22.6176 C   0  0  0  0  0  0  0  0  0  0  0  0
    9.9072  -14.5190   22.8263 O   0  0  0  0  0  0  0  0  0  0  0  0
    7.7881  -21.5107   17.5666 C   0  0  0  0  0  0  0  0  0  0  0  0
    6.5400  -11.1558   26.5689 C   0  0  0  0  0  0  0  0  0  0  0  0
    7.1997  -12.5391   26.7233 C   0  0  2  0  0  0  0  0  0  0  0  0
    6.8996  -13.3435   25.4933 C   0  0  0  0  0  0  0  0  0  0  0  0
    5.8308  -14.3382   25.8037 C   0  0  2  0  0  0  0  0  0  0  0  0
    8.1092  -14.0609   24.9097 N   0  0  0  0  0  0  0  0  0  0  0  0
    7.7715  -14.6776   23.6588 C   0  0  0  0  0  0  0  0  0  0  0  0
    8.8126  -14.9173   25.8685 O   0  0  0  0  0  0  0  0  0  0  0  0
    8.4823  -16.1592   25.8405 N   0  0  0  0  0  0  0  0  0  0  0  0
    9.7943  -14.5451   26.8082 C   0  0  0  0  0  0  0  0  0  0  0  0
   10.2856  -13.2077   26.9884 C   0  0  0  0  0  0  0  0  0  0  0  0
   11.3938  -13.2842   28.0546 C   0  0  0  0  0  0  0  0  0  0  0  0
   11.0616  -14.5564   28.7760 C   0  0  2  0  0  0  0  0  0  0  0  0
   10.5068  -15.4308   27.6777 C   0  0  0  0  0  0  0  0  0  0  0  0
    9.6496  -16.4982   28.2800 O   0  0  0  0  0  0  0  0  0  0  0  0
    8.4181  -16.4452   28.0929 O   0  0  0  0  0  0  0  0  0  0  0  0
  2  1  1  0
  3  2  2  0
  4  2  1  0
  5  4  1  0
  6  5  1  0
  6  7  1  0
  8 10  1  0
  8  9  1  6
  8  7  1  0
 10 11  2  0
 13 12  1  0
 14 13  1  0
 14 15  1  6
 16 17  1  1
 16 14  1  0
 17 10  1  0
 18 16  1  0
 19 18  2  0
 20 18  1  0
 20 24  1  0
 21 22  1  0
 21 20  1  0
 22 23  1  0
 23 24  1  0
 25 27  1  0
 24 25  1  1
 26 25  2  0
M  END
$$$$
