RIP.pdb
     RDKit          3D

 27 27  0  0  1  0  0  0  0  0999 V2000
    9.0031  -13.4775   17.0705 N   0  0  0  0  0  0  0  0  0  0  0  0
    8.4254  -13.3308   18.3743 C   0  0  0  0  0  0  0  0  0  0  0  0
    8.8157  -12.3908   19.1451 N   0  0  0  0  0  0  0  0  0  0  0  0
    7.4148  -14.2236   18.8293 N   0  0  0  0  0  0  0  0  0  0  0  0
    6.8574  -14.1150   20.1528 C   0  0  0  0  0  0  0  0  0  0  0  0
    7.4658  -15.1523   21.0634 C   0  0  0  0  0  0  0  0  0  0  0  0
    6.8164  -16.4985   20.8712 C   0  0  0  0  0  0  0  0  0  0  0  0
    7.3780  -17.5184   21.8571 C   0  0  2  0  0  0  0  0  0  0  0  0
    6.7278  -18.7871   21.7398 N   0  0  0  0  0  0  0  0  0  0  0  0
    7.2817  -17.0166   23.2475 C   0  0  0  0  0  0  0  0  0  0  0  0
    6.1534  -16.9842   23.8021 O   0  0  0  0  0  0  0  0  0  0  0  0
    8.5176  -12.3532   20.1292 C   0  0  0  0  0  0  0  0  0  0  0  0
   10.0752  -17.4799   28.5099 C   0  0  0  0  0  0  0  0  0  0  0  0
    9.0596  -16.6189   27.7354 C   0  0  2  0  0  0  0  0  0  0  0  0
    9.1198  -17.0082   26.2881 C   0  0  0  0  0  0  0  0  0  0  0  0
   10.5423  -17.0063   25.8359 C   0  0  2  0  0  0  0  0  0  0  0  0
    8.2924  -16.1183   25.3705 N   0  0  0  0  0  0  0  0  0  0  0  0
    8.4021  -16.5607   24.0098 C   0  0  0  0  0  0  0  0  0  0  0  0
    8.4985  -14.6840   25.5887 O   0  0  0  0  0  0  0  0  0  0  0  0
    9.6789  -14.2520   25.3198 N   0  0  0  0  0  0  0  0  0  0  0  0
    7.5685  -13.7339   26.0552 C   0  0  0  0  0  0  0  0  0  0  0  0
    6.1587  -13.9712   26.1916 C   0  0  0  0  0  0  0  0  0  0  0  0
    5.5300  -12.6437   26.6534 C   0  0  0  0  0  0  0  0  0  0  0  0
    6.6985  -11.9264   27.2612 C   0  0  2  0  0  0  0  0  0  0  0  0
    7.8537  -12.3742   26.3988 C   0  0  0  0  0  0  0  0  0  0  0  0
    9.1322  -12.2024   27.1555 O   0  0  0  0  0  0  0  0  0  0  0  0
    9.6155  -13.1945   27.7356 O   0  0  0  0  0  0  0  0  0  0  0  0
  2  1  1  0
  3  2  2  0
  4  2  1  0
  5  4  1  0
  6  5  1  0
  6  7  1  0
  8 10  1  0
  8  9  1  1
  8  7  1  0
 10 11  2  0
 13 12  1  0
 14 13  1  0
 14 15  1  6
 16 17  1  6
 16 14  1  0
 17 10  1  0
 18 16  1  0
 19 18  2  0
 20 18  1  0
 20 24  1  0
 21 22  1  0
 21 20  1  0
 22 23  1  0
 23 24  1  0
 25 27  1  0
 24 25  1  1
 26 25  2  0
M  END
$$$$
