IFD.pdb
     RDKit          3D

 28 28  0  0  1  0  0  0  0  0999 V2000
    7.8956  -12.5134   18.2035 C   0  0  0  0  0  0  0  0  0  0  0  0
    7.2022  -13.3742   19.2361 C   0  0  0  0  0  0  0  0  0  0  0  0
    8.1473  -13.7296   20.3489 C   0  0  2  0  0  0  0  0  0  0  0  0
    9.4465  -14.2409   19.7986 C   0  0  0  0  0  0  0  0  0  0  0  0
    7.5196  -14.6389   21.3677 C   0  0  2  0  0  0  0  0  0  0  0  0
    6.1154  -14.2902   21.4466 N   0  0  0  0  0  0  0  0  0  0  0  0
    8.1178  -14.5423   22.7010 C   0  0  0  0  0  0  0  0  0  0  0  0
    8.6299  -13.4784   23.1595 O   0  0  0  0  0  0  0  0  0  0  0  0
    8.1404  -15.6815   23.5464 N   0  0  0  0  0  0  0  0  0  0  0  0
    8.7657  -15.6831   24.8629 C   0  0  1  0  0  0  0  0  0  0  0  0
    7.6476  -15.5329   25.8713 C   0  0  0  0  0  0  0  0  0  0  0  0
    7.3461  -14.1248   26.2069 C   0  0  0  0  0  0  0  0  0  0  0  0
    6.0452  -13.6231   26.1746 C   0  0  0  0  0  0  0  0  0  0  0  0
    5.7430  -12.3161   26.4937 C   0  0  0  0  0  0  0  0  0  0  0  0
    6.7628  -11.4709   26.8588 C   0  0  0  0  0  0  0  0  0  0  0  0
    8.0614  -11.9305   26.9025 C   0  0  0  0  0  0  0  0  0  0  0  0
    8.3504  -13.2580   26.5762 C   0  0  0  0  0  0  0  0  0  0  0  0
    9.4567  -16.9680   25.0463 C   0  0  0  0  0  0  0  0  0  0  0  0
    8.8565  -18.0502   24.8397 O   0  0  0  0  0  0  0  0  0  0  0  0
   10.7989  -17.0080   25.4554 N   0  0  0  0  0  0  0  0  0  0  0  0
   11.4377  -18.2838   25.7125 C   0  0  1  0  0  0  0  0  0  0  0  0
   12.8887  -18.1000   25.3257 C   0  0  0  0  0  0  0  0  0  0  0  0
   13.1066  -17.6299   23.9593 C   0  0  0  0  0  0  0  0  0  0  0  0
   12.8517  -18.2845   22.9165 O   0  0  0  0  0  0  0  0  0  0  0  0
   11.2728  -18.5641   27.1673 C   0  0  0  0  0  0  0  0  0  0  0  0
   11.7034  -19.6578   27.6486 O   0  0  0  0  0  0  0  0  0  0  0  0
   13.6474  -16.3351   23.8044 O   0  0  0  0  0  0  0  0  0  0  0  0
   10.6674  -17.6962   28.0638 O   0  0  0  0  0  0  0  0  0  0  0  0
  2  1  1  0
  3  2  1  0
  3  4  1  6
  5  3  1  0
  5  6  1  1
  7  8  2  0
  7  5  1  0
  9  7  1  0
 10  9  1  0
 11 12  1  0
 10 11  1  1
 12 13  2  0
 13 14  1  0
 15 14  2  0
 16 15  1  0
 17 12  1  0
 17 16  2  0
 18 19  2  0
 18 10  1  0
 20 18  1  0
 21 20  1  0
 21 22  1  1
 23 22  1  0
 24 23  2  0
 25 21  1  0
 26 25  2  0
 27 23  1  0
 28 25  1  0
M  END
$$$$
