IFD.pdb
     RDKit          3D

 28 28  0  0  1  0  0  0  0  0999 V2000
    8.5297  -19.6333   18.4500 C   0  0  0  0  0  0  0  0  0  0  0  0
    8.5659  -18.1216   18.4876 C   0  0  0  0  0  0  0  0  0  0  0  0
    8.8063  -17.6332   19.8882 C   0  0  2  0  0  0  0  0  0  0  0  0
    7.8599  -18.2912   20.8492 C   0  0  0  0  0  0  0  0  0  0  0  0
    8.8189  -16.1331   19.9795 C   0  0  2  0  0  0  0  0  0  0  0  0
    9.8013  -15.6536   19.0283 N   0  0  0  0  0  0  0  0  0  0  0  0
    9.1450  -15.6203   21.3120 C   0  0  0  0  0  0  0  0  0  0  0  0
   10.2604  -15.8151   21.8797 O   0  0  0  0  0  0  0  0  0  0  0  0
    8.1833  -14.8630   22.0294 N   0  0  0  0  0  0  0  0  0  0  0  0
    8.3883  -14.4098   23.3993 C   0  0  1  0  0  0  0  0  0  0  0  0
    7.2208  -13.5072   23.7340 C   0  0  0  0  0  0  0  0  0  0  0  0
    7.2406  -13.0160   25.1285 C   0  0  0  0  0  0  0  0  0  0  0  0
    6.1378  -12.3826   25.7010 C   0  0  0  0  0  0  0  0  0  0  0  0
    6.1337  -11.9267   27.0025 C   0  0  0  0  0  0  0  0  0  0  0  0
    7.2602  -12.1020   27.7691 C   0  0  0  0  0  0  0  0  0  0  0  0
    8.3697  -12.7238   27.2381 C   0  0  0  0  0  0  0  0  0  0  0  0
    8.3573  -13.1800   25.9174 C   0  0  0  0  0  0  0  0  0  0  0  0
    8.3996  -15.5870   24.2803 C   0  0  0  0  0  0  0  0  0  0  0  0
    7.4255  -16.3775   24.3010 O   0  0  0  0  0  0  0  0  0  0  0  0
    9.4986  -15.8481   25.1136 N   0  0  0  0  0  0  0  0  0  0  0  0
    9.6171  -17.1351   25.7703 C   0  0  1  0  0  0  0  0  0  0  0  0
   10.4774  -17.9820   24.8584 C   0  0  0  0  0  0  0  0  0  0  0  0
   10.9333  -19.2433   25.4388 C   0  0  0  0  0  0  0  0  0  0  0  0
   10.2220  -20.0329   26.1108 O   0  0  0  0  0  0  0  0  0  0  0  0
   10.2659  -16.8888   27.0896 C   0  0  0  0  0  0  0  0  0  0  0  0
   10.5479  -17.8712   27.8436 O   0  0  0  0  0  0  0  0  0  0  0  0
   12.2827  -19.5982   25.2241 O   0  0  0  0  0  0  0  0  0  0  0  0
   10.5960  -15.6313   27.5723 O   0  0  0  0  0  0  0  0  0  0  0  0
  2  1  1  0
  3  2  1  0
  3  4  1  1
  5  3  1  0
  5  6  1  6
  7  8  2  0
  7  5  1  0
  9  7  1  0
 10  9  1  0
 11 12  1  0
 10 11  1  1
 12 13  2  0
 13 14  1  0
 15 14  2  0
 16 15  1  0
 17 12  1  0
 17 16  2  0
 18 19  2  0
 18 10  1  0
 20 18  1  0
 21 20  1  0
 21 22  1  6
 23 22  1  0
 24 23  2  0
 25 21  1  0
 26 25  2  0
 27 23  1  0
 28 25  1  0
M  END
$$$$
