IFD.pdb
     RDKit          3D

 28 28  0  0  1  0  0  0  0  0999 V2000
    8.0552  -16.2853   16.4536 C   0  0  0  0  0  0  0  0  0  0  0  0
    7.6109  -15.1546   17.3548 C   0  0  0  0  0  0  0  0  0  0  0  0
    8.2243  -15.2940   18.7195 C   0  0  2  0  0  0  0  0  0  0  0  0
    8.0576  -16.6933   19.2355 C   0  0  0  0  0  0  0  0  0  0  0  0
    7.7498  -14.2344   19.6738 C   0  0  2  0  0  0  0  0  0  0  0  0
    8.0401  -12.9504   19.0682 N   0  0  0  0  0  0  0  0  0  0  0  0
    8.3774  -14.2990   20.9954 C   0  0  0  0  0  0  0  0  0  0  0  0
    9.5934  -14.0120   21.2041 O   0  0  0  0  0  0  0  0  0  0  0  0
    7.6107  -14.7001   22.1198 N   0  0  0  0  0  0  0  0  0  0  0  0
    8.1171  -14.6538   23.4857 C   0  0  1  0  0  0  0  0  0  0  0  0
    6.9081  -14.5582   24.3906 C   0  0  0  0  0  0  0  0  0  0  0  0
    6.9257  -13.3686   25.2687 C   0  0  0  0  0  0  0  0  0  0  0  0
    5.7717  -12.9008   25.8968 C   0  0  0  0  0  0  0  0  0  0  0  0
    5.7700  -11.7996   26.7267 C   0  0  0  0  0  0  0  0  0  0  0  0
    6.9516  -11.1338   26.9459 C   0  0  0  0  0  0  0  0  0  0  0  0
    8.1129  -11.5665   26.3427 C   0  0  0  0  0  0  0  0  0  0  0  0
    8.0972  -12.6844   25.5045 C   0  0  0  0  0  0  0  0  0  0  0  0
    8.8602  -15.8954   23.7469 C   0  0  0  0  0  0  0  0  0  0  0  0
    8.4357  -16.9952   23.3174 O   0  0  0  0  0  0  0  0  0  0  0  0
   10.0565  -15.8738   24.4808 N   0  0  0  0  0  0  0  0  0  0  0  0
   10.8415  -17.0849   24.6181 C   0  0  1  0  0  0  0  0  0  0  0  0
   12.2443  -16.7140   24.1898 C   0  0  0  0  0  0  0  0  0  0  0  0
   12.9184  -17.7106   23.3606 C   0  0  0  0  0  0  0  0  0  0  0  0
   12.4634  -18.8481   23.0776 O   0  0  0  0  0  0  0  0  0  0  0  0
   10.7762  -17.4816   26.0536 C   0  0  0  0  0  0  0  0  0  0  0  0
   11.1935  -18.6278   26.4076 O   0  0  0  0  0  0  0  0  0  0  0  0
   14.1826  -17.3620   22.8378 O   0  0  0  0  0  0  0  0  0  0  0  0
   10.2803  -16.6710   27.0637 O   0  0  0  0  0  0  0  0  0  0  0  0
  2  1  1  0
  3  2  1  0
  3  4  1  1
  5  3  1  0
  5  6  1  6
  7  8  2  0
  7  5  1  0
  9  7  1  0
 10  9  1  0
 11 12  1  0
 10 11  1  1
 12 13  2  0
 13 14  1  0
 15 14  2  0
 16 15  1  0
 17 12  1  0
 17 16  2  0
 18 19  2  0
 18 10  1  0
 20 18  1  0
 21 20  1  0
 21 22  1  1
 23 22  1  0
 24 23  2  0
 25 21  1  0
 26 25  2  0
 27 23  1  0
 28 25  1  0
M  END
$$$$
