IFD.pdb
     RDKit          3D

 28 28  0  0  1  0  0  0  0  0999 V2000
    7.8669  -11.6663   19.7439 C   0  0  0  0  0  0  0  0  0  0  0  0
    7.7601  -12.9713   20.5012 C   0  0  0  0  0  0  0  0  0  0  0  0
    8.4782  -14.0686   19.7675 C   0  0  2  0  0  0  0  0  0  0  0  0
    7.9590  -14.1974   18.3654 C   0  0  0  0  0  0  0  0  0  0  0  0
    8.4867  -15.3619   20.5331 C   0  0  2  0  0  0  0  0  0  0  0  0
    7.1195  -15.8392   20.5842 N   0  0  0  0  0  0  0  0  0  0  0  0
    9.0093  -15.2437   21.8961 C   0  0  0  0  0  0  0  0  0  0  0  0
   10.1969  -14.8901   22.1587 O   0  0  0  0  0  0  0  0  0  0  0  0
    8.1669  -15.5334   23.0003 N   0  0  0  0  0  0  0  0  0  0  0  0
    8.6326  -15.5202   24.3814 C   0  0  1  0  0  0  0  0  0  0  0  0
    7.4013  -15.3826   25.2501 C   0  0  0  0  0  0  0  0  0  0  0  0
    7.1914  -14.0092   25.7561 C   0  0  0  0  0  0  0  0  0  0  0  0
    8.2513  -13.1196   25.9308 C   0  0  0  0  0  0  0  0  0  0  0  0
    8.0744  -11.8321   26.3918 C   0  0  0  0  0  0  0  0  0  0  0  0
    6.8036  -11.4051   26.6923 C   0  0  0  0  0  0  0  0  0  0  0  0
    5.7309  -12.2556   26.5323 C   0  0  0  0  0  0  0  0  0  0  0  0
    5.9276  -13.5573   26.0639 C   0  0  0  0  0  0  0  0  0  0  0  0
    9.3156  -16.7939   24.6524 C   0  0  0  0  0  0  0  0  0  0  0  0
    8.7407  -17.8863   24.4280 O   0  0  0  0  0  0  0  0  0  0  0  0
   10.6215  -16.8116   25.1667 N   0  0  0  0  0  0  0  0  0  0  0  0
   11.3175  -18.0732   25.3270 C   0  0  1  0  0  0  0  0  0  0  0  0
   12.7462  -17.8088   24.9055 C   0  0  0  0  0  0  0  0  0  0  0  0
   13.6647  -18.9271   25.1082 C   0  0  0  0  0  0  0  0  0  0  0  0
   13.3865  -20.1389   24.9209 O   0  0  0  0  0  0  0  0  0  0  0  0
   11.2135  -18.4439   26.7671 C   0  0  0  0  0  0  0  0  0  0  0  0
   11.7471  -19.5208   27.1781 O   0  0  0  0  0  0  0  0  0  0  0  0
   14.9686  -18.6150   25.5503 O   0  0  0  0  0  0  0  0  0  0  0  0
   10.5597  -17.6804   27.7225 O   0  0  0  0  0  0  0  0  0  0  0  0
  2  1  1  0
  3  2  1  0
  3  4  1  6
  5  3  1  0
  5  6  1  1
  7  8  2  0
  7  5  1  0
  9  7  1  0
 10  9  1  0
 11 12  1  0
 10 11  1  1
 12 13  2  0
 13 14  1  0
 15 14  2  0
 16 15  1  0
 17 12  1  0
 17 16  2  0
 18 19  2  0
 18 10  1  0
 20 18  1  0
 21 20  1  0
 21 22  1  1
 23 22  1  0
 24 23  2  0
 25 21  1  0
 26 25  2  0
 27 23  1  0
 28 25  1  0
M  END
$$$$
