IFD.pdb
     RDKit          3D

 28 28  0  0  1  0  0  0  0  0999 V2000
    7.6062  -11.6124   20.3890 C   0  0  0  0  0  0  0  0  0  0  0  0
    7.6526  -12.9904   21.0112 C   0  0  0  0  0  0  0  0  0  0  0  0
    8.5149  -13.9106   20.1942 C   0  0  2  0  0  0  0  0  0  0  0  0
    8.0687  -13.9229   18.7614 C   0  0  0  0  0  0  0  0  0  0  0  0
    8.6347  -15.2787   20.8046 C   0  0  2  0  0  0  0  0  0  0  0  0
    7.3394  -15.9170   20.6846 N   0  0  0  0  0  0  0  0  0  0  0  0
    9.0411  -15.2696   22.2116 C   0  0  0  0  0  0  0  0  0  0  0  0
   10.0951  -14.7044   22.6287 O   0  0  0  0  0  0  0  0  0  0  0  0
    8.2340  -15.9184   23.1815 N   0  0  0  0  0  0  0  0  0  0  0  0
    8.4902  -15.8359   24.6139 C   0  0  1  0  0  0  0  0  0  0  0  0
    7.1639  -15.5230   25.2717 C   0  0  0  0  0  0  0  0  0  0  0  0
    7.0735  -14.1369   25.7786 C   0  0  0  0  0  0  0  0  0  0  0  0
    8.1386  -13.5238   26.4377 C   0  0  0  0  0  0  0  0  0  0  0  0
    8.0769  -12.2291   26.9086 C   0  0  0  0  0  0  0  0  0  0  0  0
    6.9204  -11.5113   26.7224 C   0  0  0  0  0  0  0  0  0  0  0  0
    5.8464  -12.0834   26.0752 C   0  0  0  0  0  0  0  0  0  0  0  0
    5.9256  -13.3964   25.6041 C   0  0  0  0  0  0  0  0  0  0  0  0
    8.9977  -17.1385   25.0698 C   0  0  0  0  0  0  0  0  0  0  0  0
    8.5164  -18.2047   24.6163 O   0  0  0  0  0  0  0  0  0  0  0  0
   10.0285  -17.2135   26.0196 N   0  0  0  0  0  0  0  0  0  0  0  0
   10.8474  -18.4068   26.1038 C   0  0  1  0  0  0  0  0  0  0  0  0
   12.1222  -18.0817   25.3567 C   0  0  0  0  0  0  0  0  0  0  0  0
   13.0931  -19.1718   25.2927 C   0  0  0  0  0  0  0  0  0  0  0  0
   12.9711  -20.2877   25.8591 O   0  0  0  0  0  0  0  0  0  0  0  0
   11.0916  -18.6619   27.5520 C   0  0  0  0  0  0  0  0  0  0  0  0
   11.0161  -17.7018   28.3800 O   0  0  0  0  0  0  0  0  0  0  0  0
   14.2608  -18.9478   24.5316 O   0  0  0  0  0  0  0  0  0  0  0  0
   11.4041  -19.9049   28.0818 O   0  0  0  0  0  0  0  0  0  0  0  0
  2  1  1  0
  3  2  1  0
  3  4  1  6
  5  3  1  0
  5  6  1  1
  7  8  2  0
  7  5  1  0
  9  7  1  0
 10  9  1  0
 11 12  1  0
 10 11  1  1
 12 13  2  0
 13 14  1  0
 15 14  2  0
 16 15  1  0
 17 12  1  0
 17 16  2  0
 18 19  2  0
 18 10  1  0
 20 18  1  0
 21 20  1  0
 21 22  1  6
 23 22  1  0
 24 23  2  0
 25 21  1  0
 26 25  2  0
 27 23  1  0
 28 25  1  0
M  END
$$$$
