IFD.pdb
     RDKit          3D

 28 28  0  0  1  0  0  0  0  0999 V2000
    7.4020  -12.1709   19.2348 C   0  0  0  0  0  0  0  0  0  0  0  0
    7.6213  -13.3976   20.0923 C   0  0  0  0  0  0  0  0  0  0  0  0
    8.6135  -14.3233   19.4469 C   0  0  2  0  0  0  0  0  0  0  0  0
    8.2276  -14.6064   18.0246 C   0  0  0  0  0  0  0  0  0  0  0  0
    8.8639  -15.5586   20.2656 C   0  0  2  0  0  0  0  0  0  0  0  0
    7.6531  -16.3535   20.2239 N   0  0  0  0  0  0  0  0  0  0  0  0
    9.2167  -15.2869   21.6608 C   0  0  0  0  0  0  0  0  0  0  0  0
   10.3288  -14.7951   22.0152 O   0  0  0  0  0  0  0  0  0  0  0  0
    8.2864  -15.5789   22.6915 N   0  0  0  0  0  0  0  0  0  0  0  0
    8.5387  -15.2872   24.0971 C   0  0  1  0  0  0  0  0  0  0  0  0
    7.2032  -14.9230   24.7082 C   0  0  0  0  0  0  0  0  0  0  0  0
    7.3020  -13.8857   25.7573 C   0  0  0  0  0  0  0  0  0  0  0  0
    8.5069  -13.6011   26.3992 C   0  0  0  0  0  0  0  0  0  0  0  0
    8.6210  -12.6310   27.3726 C   0  0  0  0  0  0  0  0  0  0  0  0
    7.5040  -11.9137   27.7267 C   0  0  0  0  0  0  0  0  0  0  0  0
    6.2954  -12.1665   27.1143 C   0  0  0  0  0  0  0  0  0  0  0  0
    6.1971  -13.1530   26.1297 C   0  0  0  0  0  0  0  0  0  0  0  0
    9.0836  -16.4969   24.7310 C   0  0  0  0  0  0  0  0  0  0  0  0
    8.4778  -17.5920   24.6414 O   0  0  0  0  0  0  0  0  0  0  0  0
   10.2898  -16.4494   25.4474 N   0  0  0  0  0  0  0  0  0  0  0  0
   10.7987  -17.6480   26.0848 C   0  0  1  0  0  0  0  0  0  0  0  0
   12.3030  -17.5819   25.9382 C   0  0  0  0  0  0  0  0  0  0  0  0
   12.8020  -17.8409   24.5893 C   0  0  0  0  0  0  0  0  0  0  0  0
   12.5343  -18.8566   23.8983 O   0  0  0  0  0  0  0  0  0  0  0  0
   10.3679  -17.5950   27.5109 C   0  0  0  0  0  0  0  0  0  0  0  0
    9.9513  -16.4997   28.0005 O   0  0  0  0  0  0  0  0  0  0  0  0
   13.6530  -16.8679   24.0218 O   0  0  0  0  0  0  0  0  0  0  0  0
   10.3868  -18.6829   28.3709 O   0  0  0  0  0  0  0  0  0  0  0  0
  2  1  1  0
  3  2  1  0
  3  4  1  6
  5  3  1  0
  5  6  1  1
  7  8  2  0
  7  5  1  0
  9  7  1  0
 10  9  1  0
 11 12  1  0
 10 11  1  1
 12 13  2  0
 13 14  1  0
 15 14  2  0
 16 15  1  0
 17 12  1  0
 17 16  2  0
 18 19  2  0
 18 10  1  0
 20 18  1  0
 21 20  1  0
 21 22  1  1
 23 22  1  0
 24 23  2  0
 25 21  1  0
 26 25  2  0
 27 23  1  0
 28 25  1  0
M  END
$$$$
