IFD.pdb
     RDKit          3D

 28 28  0  0  1  0  0  0  0  0999 V2000
    8.3449  -14.6211   16.6057 C   0  0  0  0  0  0  0  0  0  0  0  0
    7.4091  -14.9104   17.7584 C   0  0  0  0  0  0  0  0  0  0  0  0
    8.1697  -14.9777   19.0527 C   0  0  2  0  0  0  0  0  0  0  0  0
    8.1490  -16.3715   19.6083 C   0  0  0  0  0  0  0  0  0  0  0  0
    7.7300  -13.9267   20.0329 C   0  0  2  0  0  0  0  0  0  0  0  0
    8.0257  -12.6375   19.4412 N   0  0  0  0  0  0  0  0  0  0  0  0
    8.3839  -14.0206   21.3400 C   0  0  0  0  0  0  0  0  0  0  0  0
    9.5822  -13.6659   21.5467 O   0  0  0  0  0  0  0  0  0  0  0  0
    7.6649  -14.5310   22.4515 N   0  0  0  0  0  0  0  0  0  0  0  0
    8.2637  -14.7229   23.7664 C   0  0  1  0  0  0  0  0  0  0  0  0
    7.1243  -14.7301   24.7621 C   0  0  0  0  0  0  0  0  0  0  0  0
    6.9545  -13.4419   25.4679 C   0  0  0  0  0  0  0  0  0  0  0  0
    5.6988  -12.9766   25.8576 C   0  0  0  0  0  0  0  0  0  0  0  0
    5.5213  -11.7831   26.5252 C   0  0  0  0  0  0  0  0  0  0  0  0
    6.6243  -11.0189   26.8199 C   0  0  0  0  0  0  0  0  0  0  0  0
    7.8817  -11.4459   26.4510 C   0  0  0  0  0  0  0  0  0  0  0  0
    8.0441  -12.6580   25.7751 C   0  0  0  0  0  0  0  0  0  0  0  0
    8.9629  -16.0165   23.7730 C   0  0  0  0  0  0  0  0  0  0  0  0
    8.4206  -17.0371   23.2846 O   0  0  0  0  0  0  0  0  0  0  0  0
   10.2481  -16.1338   24.3250 N   0  0  0  0  0  0  0  0  0  0  0  0
   10.9431  -17.4050   24.2730 C   0  0  1  0  0  0  0  0  0  0  0  0
   12.3183  -17.0971   23.7225 C   0  0  0  0  0  0  0  0  0  0  0  0
   13.2360  -18.2337   23.6879 C   0  0  0  0  0  0  0  0  0  0  0  0
   14.0963  -18.4998   24.5654 O   0  0  0  0  0  0  0  0  0  0  0  0
   10.9977  -17.9250   25.6689 C   0  0  0  0  0  0  0  0  0  0  0  0
   11.4188  -19.1039   25.8836 O   0  0  0  0  0  0  0  0  0  0  0  0
   13.1444  -19.0994   22.5765 O   0  0  0  0  0  0  0  0  0  0  0  0
   10.6128  -17.1989   26.7860 O   0  0  0  0  0  0  0  0  0  0  0  0
  2  1  1  0
  3  2  1  0
  3  4  1  1
  5  3  1  0
  5  6  1  6
  7  8  2  0
  7  5  1  0
  9  7  1  0
 10  9  1  0
 11 12  1  0
 10 11  1  1
 12 13  2  0
 13 14  1  0
 15 14  2  0
 16 15  1  0
 17 12  1  0
 17 16  2  0
 18 19  2  0
 18 10  1  0
 20 18  1  0
 21 20  1  0
 21 22  1  1
 23 22  1  0
 24 23  2  0
 25 21  1  0
 26 25  2  0
 27 23  1  0
 28 25  1  0
M  END
$$$$
