IFD.pdb
     RDKit          3D

 28 28  0  0  1  0  0  0  0  0999 V2000
    8.1069  -11.7075   20.1993 C   0  0  0  0  0  0  0  0  0  0  0  0
    7.9986  -13.0417   20.9037 C   0  0  0  0  0  0  0  0  0  0  0  0
    8.6341  -14.1269   20.0812 C   0  0  2  0  0  0  0  0  0  0  0  0
    8.0708  -14.1371   18.6903 C   0  0  0  0  0  0  0  0  0  0  0  0
    8.5909  -15.4652   20.7636 C   0  0  2  0  0  0  0  0  0  0  0  0
    7.2152  -15.9192   20.7310 N   0  0  0  0  0  0  0  0  0  0  0  0
    9.0600  -15.4418   22.1508 C   0  0  0  0  0  0  0  0  0  0  0  0
   10.2065  -15.0251   22.4916 O   0  0  0  0  0  0  0  0  0  0  0  0
    8.2100  -15.9029   23.1890 N   0  0  0  0  0  0  0  0  0  0  0  0
    8.5413  -15.7785   24.6028 C   0  0  1  0  0  0  0  0  0  0  0  0
    7.2318  -15.5910   25.3375 C   0  0  0  0  0  0  0  0  0  0  0  0
    7.0253  -14.2103   25.8246 C   0  0  0  0  0  0  0  0  0  0  0  0
    7.9885  -13.5464   26.5840 C   0  0  0  0  0  0  0  0  0  0  0  0
    7.8185  -12.2557   27.0386 C   0  0  0  0  0  0  0  0  0  0  0  0
    6.6540  -11.5939   26.7328 C   0  0  0  0  0  0  0  0  0  0  0  0
    5.6789  -12.2172   25.9842 C   0  0  0  0  0  0  0  0  0  0  0  0
    5.8672  -13.5255   25.5311 C   0  0  0  0  0  0  0  0  0  0  0  0
    9.2024  -17.0189   25.0349 C   0  0  0  0  0  0  0  0  0  0  0  0
    8.8183  -18.1312   24.5998 O   0  0  0  0  0  0  0  0  0  0  0  0
   10.2738  -16.9818   25.9410 N   0  0  0  0  0  0  0  0  0  0  0  0
   10.9576  -18.2084   26.3011 C   0  0  1  0  0  0  0  0  0  0  0  0
   12.4060  -17.9967   25.9184 C   0  0  0  0  0  0  0  0  0  0  0  0
   12.9456  -18.9812   24.9829 C   0  0  0  0  0  0  0  0  0  0  0  0
   12.3288  -19.9889   24.5528 O   0  0  0  0  0  0  0  0  0  0  0  0
   10.7825  -18.3852   27.7708 C   0  0  0  0  0  0  0  0  0  0  0  0
   10.5012  -17.3803   28.4949 O   0  0  0  0  0  0  0  0  0  0  0  0
   14.2669  -18.7787   24.5291 O   0  0  0  0  0  0  0  0  0  0  0  0
   10.9062  -19.5996   28.4292 O   0  0  0  0  0  0  0  0  0  0  0  0
  2  1  1  0
  3  2  1  0
  3  4  1  6
  5  3  1  0
  5  6  1  1
  7  8  2  0
  7  5  1  0
  9  7  1  0
 10  9  1  0
 11 12  1  0
 10 11  1  1
 12 13  2  0
 13 14  1  0
 15 14  2  0
 16 15  1  0
 17 12  1  0
 17 16  2  0
 18 19  2  0
 18 10  1  0
 20 18  1  0
 21 20  1  0
 21 22  1  1
 23 22  1  0
 24 23  2  0
 25 21  1  0
 26 25  2  0
 27 23  1  0
 28 25  1  0
M  END
$$$$
