IFD.pdb
     RDKit          3D

 28 28  0  0  1  0  0  0  0  0999 V2000
    8.7652  -19.8591   18.3472 C   0  0  0  0  0  0  0  0  0  0  0  0
    8.2083  -18.4532   18.3857 C   0  0  0  0  0  0  0  0  0  0  0  0
    8.6429  -17.7466   19.6387 C   0  0  2  0  0  0  0  0  0  0  0  0
    8.3629  -18.5903   20.8478 C   0  0  0  0  0  0  0  0  0  0  0  0
    8.0930  -16.3510   19.7316 C   0  0  2  0  0  0  0  0  0  0  0  0
    8.5161  -15.6430   18.5402 N   0  0  0  0  0  0  0  0  0  0  0  0
    8.5375  -15.6134   20.9162 C   0  0  0  0  0  0  0  0  0  0  0  0
    9.7107  -15.1558   21.0524 O   0  0  0  0  0  0  0  0  0  0  0  0
    7.6310  -15.3835   21.9831 N   0  0  0  0  0  0  0  0  0  0  0  0
    8.0075  -14.6989   23.2136 C   0  0  1  0  0  0  0  0  0  0  0  0
    6.7425  -14.0798   23.7668 C   0  0  0  0  0  0  0  0  0  0  0  0
    6.9306  -13.4437   25.0884 C   0  0  0  0  0  0  0  0  0  0  0  0
    7.6766  -12.2755   25.2430 C   0  0  0  0  0  0  0  0  0  0  0  0
    7.8549  -11.6623   26.4652 C   0  0  0  0  0  0  0  0  0  0  0  0
    7.2755  -12.2224   27.5778 C   0  0  0  0  0  0  0  0  0  0  0  0
    6.5309  -13.3767   27.4645 C   0  0  0  0  0  0  0  0  0  0  0  0
    6.3598  -13.9853   26.2185 C   0  0  0  0  0  0  0  0  0  0  0  0
    8.5476  -15.6945   24.1513 C   0  0  0  0  0  0  0  0  0  0  0  0
    7.8955  -16.7303   24.4273 O   0  0  0  0  0  0  0  0  0  0  0  0
    9.8008  -15.5052   24.7545 N   0  0  0  0  0  0  0  0  0  0  0  0
   10.3844  -16.5639   25.5547 C   0  0  1  0  0  0  0  0  0  0  0  0
   11.8747  -16.4921   25.3038 C   0  0  0  0  0  0  0  0  0  0  0  0
   12.3110  -17.0484   24.0249 C   0  0  0  0  0  0  0  0  0  0  0  0
   13.0169  -16.4487   23.1747 O   0  0  0  0  0  0  0  0  0  0  0  0
   10.0368  -16.2737   26.9749 C   0  0  0  0  0  0  0  0  0  0  0  0
   10.3768  -17.0926   27.8843 O   0  0  0  0  0  0  0  0  0  0  0  0
   11.9035  -18.3665   23.7256 O   0  0  0  0  0  0  0  0  0  0  0  0
    9.3500  -15.1437   27.3932 O   0  0  0  0  0  0  0  0  0  0  0  0
  2  1  1  0
  3  2  1  0
  3  4  1  1
  5  3  1  0
  5  6  1  6
  7  8  2  0
  7  5  1  0
  9  7  1  0
 10  9  1  0
 11 12  1  0
 10 11  1  1
 12 13  2  0
 13 14  1  0
 15 14  2  0
 16 15  1  0
 17 12  1  0
 17 16  2  0
 18 19  2  0
 18 10  1  0
 20 18  1  0
 21 20  1  0
 21 22  1  1
 23 22  1  0
 24 23  2  0
 25 21  1  0
 26 25  2  0
 27 23  1  0
 28 25  1  0
M  END
$$$$
