IFD.pdb
     RDKit          3D

 28 28  0  0  1  0  0  0  0  0999 V2000
    8.8040  -19.8881   18.0763 C   0  0  0  0  0  0  0  0  0  0  0  0
    8.3632  -18.4413   18.1001 C   0  0  0  0  0  0  0  0  0  0  0  0
    8.7335  -17.7973   19.4063 C   0  0  2  0  0  0  0  0  0  0  0  0
    8.2344  -18.6152   20.5613 C   0  0  0  0  0  0  0  0  0  0  0  0
    8.3312  -16.3505   19.4681 C   0  0  2  0  0  0  0  0  0  0  0  0
    8.9323  -15.6889   18.3277 N   0  0  0  0  0  0  0  0  0  0  0  0
    8.7455  -15.6692   20.6965 C   0  0  0  0  0  0  0  0  0  0  0  0
    9.9493  -15.3732   20.9571 O   0  0  0  0  0  0  0  0  0  0  0  0
    7.7723  -15.3091   21.6641 N   0  0  0  0  0  0  0  0  0  0  0  0
    8.1107  -14.7030   22.9457 C   0  0  1  0  0  0  0  0  0  0  0  0
    6.8689  -13.9819   23.4228 C   0  0  0  0  0  0  0  0  0  0  0  0
    7.0600  -13.2715   24.7055 C   0  0  0  0  0  0  0  0  0  0  0  0
    7.8835  -12.1509   24.8101 C   0  0  0  0  0  0  0  0  0  0  0  0
    8.0664  -11.4693   25.9949 C   0  0  0  0  0  0  0  0  0  0  0  0
    7.4121  -11.9096   27.1198 C   0  0  0  0  0  0  0  0  0  0  0  0
    6.5896  -13.0137   27.0555 C   0  0  0  0  0  0  0  0  0  0  0  0
    6.4151  -13.6928   25.8469 C   0  0  0  0  0  0  0  0  0  0  0  0
    8.4770  -15.7751   23.8830 C   0  0  0  0  0  0  0  0  0  0  0  0
    7.7209  -16.7624   24.0499 O   0  0  0  0  0  0  0  0  0  0  0  0
    9.6775  -15.7143   24.6078 N   0  0  0  0  0  0  0  0  0  0  0  0
   10.1078  -16.8569   25.3896 C   0  0  1  0  0  0  0  0  0  0  0  0
   11.6113  -16.9172   25.2325 C   0  0  0  0  0  0  0  0  0  0  0  0
   12.0786  -17.1512   23.8679 C   0  0  0  0  0  0  0  0  0  0  0  0
   12.7554  -16.3425   23.1831 O   0  0  0  0  0  0  0  0  0  0  0  0
    9.6977  -16.5953   26.7987 C   0  0  0  0  0  0  0  0  0  0  0  0
    9.8325  -17.5083   27.6714 O   0  0  0  0  0  0  0  0  0  0  0  0
   11.7395  -18.3872   23.2761 O   0  0  0  0  0  0  0  0  0  0  0  0
    9.1645  -15.3952   27.2446 O   0  0  0  0  0  0  0  0  0  0  0  0
  2  1  1  0
  3  2  1  0
  3  4  1  1
  5  3  1  0
  5  6  1  6
  7  8  2  0
  7  5  1  0
  9  7  1  0
 10  9  1  0
 11 12  1  0
 10 11  1  1
 12 13  2  0
 13 14  1  0
 15 14  2  0
 16 15  1  0
 17 12  1  0
 17 16  2  0
 18 19  2  0
 18 10  1  0
 20 18  1  0
 21 20  1  0
 21 22  1  1
 23 22  1  0
 24 23  2  0
 25 21  1  0
 26 25  2  0
 27 23  1  0
 28 25  1  0
M  END
$$$$
