IFD.pdb
     RDKit          3D

 28 28  0  0  1  0  0  0  0  0999 V2000
    8.7094  -16.7713   16.2771 C   0  0  0  0  0  0  0  0  0  0  0  0
    8.0691  -15.5407   16.8801 C   0  0  0  0  0  0  0  0  0  0  0  0
    8.5692  -15.3163   18.2792 C   0  0  2  0  0  0  0  0  0  0  0  0
    8.5722  -16.6015   19.0540 C   0  0  0  0  0  0  0  0  0  0  0  0
    7.8529  -14.1913   18.9720 C   0  0  2  0  0  0  0  0  0  0  0  0
    8.0616  -12.9967   18.1788 N   0  0  0  0  0  0  0  0  0  0  0  0
    8.3100  -13.9484   20.3420 C   0  0  0  0  0  0  0  0  0  0  0  0
    9.4537  -13.4820   20.6225 O   0  0  0  0  0  0  0  0  0  0  0  0
    7.4508  -14.2403   21.4327 N   0  0  0  0  0  0  0  0  0  0  0  0
    7.8393  -14.0506   22.8246 C   0  0  1  0  0  0  0  0  0  0  0  0
    6.5798  -13.6807   23.5772 C   0  0  0  0  0  0  0  0  0  0  0  0
    6.8168  -13.3826   25.0059 C   0  0  0  0  0  0  0  0  0  0  0  0
    7.2433  -12.1257   25.4341 C   0  0  0  0  0  0  0  0  0  0  0  0
    7.4601  -11.8256   26.7625 C   0  0  0  0  0  0  0  0  0  0  0  0
    7.2482  -12.8024   27.7051 C   0  0  0  0  0  0  0  0  0  0  0  0
    6.8263  -14.0568   27.3201 C   0  0  0  0  0  0  0  0  0  0  0  0
    6.6112  -14.3443   25.9698 C   0  0  0  0  0  0  0  0  0  0  0  0
    8.3887  -15.3178   23.3293 C   0  0  0  0  0  0  0  0  0  0  0  0
    7.8310  -16.4082   23.0569 O   0  0  0  0  0  0  0  0  0  0  0  0
    9.5454  -15.3313   24.1243 N   0  0  0  0  0  0  0  0  0  0  0  0
   10.1089  -16.5948   24.5578 C   0  0  1  0  0  0  0  0  0  0  0  0
   11.5753  -16.5364   24.1901 C   0  0  0  0  0  0  0  0  0  0  0  0
   12.1904  -17.8309   23.9054 C   0  0  0  0  0  0  0  0  0  0  0  0
   11.6356  -18.7807   23.2963 O   0  0  0  0  0  0  0  0  0  0  0  0
    9.8996  -16.6782   26.0314 C   0  0  0  0  0  0  0  0  0  0  0  0
   10.1130  -17.7754   26.6345 O   0  0  0  0  0  0  0  0  0  0  0  0
   13.5152  -18.0247   24.3533 O   0  0  0  0  0  0  0  0  0  0  0  0
    9.4775  -15.6178   26.8192 O   0  0  0  0  0  0  0  0  0  0  0  0
  2  1  1  0
  3  2  1  0
  3  4  1  1
  5  3  1  0
  5  6  1  6
  7  8  2  0
  7  5  1  0
  9  7  1  0
 10  9  1  0
 11 12  1  0
 10 11  1  1
 12 13  2  0
 13 14  1  0
 15 14  2  0
 16 15  1  0
 17 12  1  0
 17 16  2  0
 18 19  2  0
 18 10  1  0
 20 18  1  0
 21 20  1  0
 21 22  1  1
 23 22  1  0
 24 23  2  0
 25 21  1  0
 26 25  2  0
 27 23  1  0
 28 25  1  0
M  END
$$$$
