IFD.pdb
     RDKit          3D

 28 28  0  0  1  0  0  0  0  0999 V2000
    8.0692  -11.6422   19.8484 C   0  0  0  0  0  0  0  0  0  0  0  0
    7.8780  -12.9243   20.6280 C   0  0  0  0  0  0  0  0  0  0  0  0
    8.4384  -14.0935   19.8683 C   0  0  2  0  0  0  0  0  0  0  0  0
    7.8199  -14.1853   18.5041 C   0  0  0  0  0  0  0  0  0  0  0  0
    8.3716  -15.3737   20.6527 C   0  0  2  0  0  0  0  0  0  0  0  0
    6.9716  -15.7227   20.7861 N   0  0  0  0  0  0  0  0  0  0  0  0
    8.9782  -15.2894   21.9830 C   0  0  0  0  0  0  0  0  0  0  0  0
   10.1856  -14.9602   22.1787 O   0  0  0  0  0  0  0  0  0  0  0  0
    8.1996  -15.5855   23.1315 N   0  0  0  0  0  0  0  0  0  0  0  0
    8.7361  -15.5538   24.4863 C   0  0  1  0  0  0  0  0  0  0  0  0
    7.5496  -15.4277   25.4169 C   0  0  0  0  0  0  0  0  0  0  0  0
    7.3020  -14.0410   25.8664 C   0  0  0  0  0  0  0  0  0  0  0  0
    8.3455  -13.1806   26.2067 C   0  0  0  0  0  0  0  0  0  0  0  0
    8.1351  -11.8814   26.6183 C   0  0  0  0  0  0  0  0  0  0  0  0
    6.8462  -11.4123   26.6974 C   0  0  0  0  0  0  0  0  0  0  0  0
    5.7888  -12.2332   26.3691 C   0  0  0  0  0  0  0  0  0  0  0  0
    6.0195  -13.5472   25.9536 C   0  0  0  0  0  0  0  0  0  0  0  0
    9.4521  -16.8147   24.7310 C   0  0  0  0  0  0  0  0  0  0  0  0
    8.8498  -17.9133   24.6647 O   0  0  0  0  0  0  0  0  0  0  0  0
   10.8206  -16.8129   25.0429 N   0  0  0  0  0  0  0  0  0  0  0  0
   11.5552  -18.0623   25.0765 C   0  0  1  0  0  0  0  0  0  0  0  0
   12.9599  -17.7231   24.6284 C   0  0  0  0  0  0  0  0  0  0  0  0
   13.9155  -18.8255   24.7112 C   0  0  0  0  0  0  0  0  0  0  0  0
   13.6723  -19.9635   25.1874 O   0  0  0  0  0  0  0  0  0  0  0  0
   11.5145  -18.5498   26.4845 C   0  0  0  0  0  0  0  0  0  0  0  0
   12.0485  -19.6641   26.7787 O   0  0  0  0  0  0  0  0  0  0  0  0
   15.2153  -18.5872   24.2147 O   0  0  0  0  0  0  0  0  0  0  0  0
   10.9208  -17.8596   27.5307 O   0  0  0  0  0  0  0  0  0  0  0  0
  2  1  1  0
  3  2  1  0
  3  4  1  6
  5  3  1  0
  5  6  1  1
  7  8  2  0
  7  5  1  0
  9  7  1  0
 10  9  1  0
 11 12  1  0
 10 11  1  1
 12 13  2  0
 13 14  1  0
 15 14  2  0
 16 15  1  0
 17 12  1  0
 17 16  2  0
 18 19  2  0
 18 10  1  0
 20 18  1  0
 21 20  1  0
 21 22  1  1
 23 22  1  0
 24 23  2  0
 25 21  1  0
 26 25  2  0
 27 23  1  0
 28 25  1  0
M  END
$$$$
