KVS.pdb
     RDKit          3D

 23 22  0  0  1  0  0  0  0  0999 V2000
    7.2227  -13.8533   20.8258 N   0  0  0  0  0  0  0  0  0  0  0  0
    7.0737  -14.8502   21.8667 C   0  0  1  0  0  0  0  0  0  0  0  0
    7.4350  -16.2464   21.3969 C   0  0  0  0  0  0  0  0  0  0  0  0
    6.2201  -17.1027   21.4839 C   0  0  0  0  0  0  0  0  0  0  0  0
    5.9622  -17.9277   20.2555 C   0  0  0  0  0  0  0  0  0  0  0  0
    4.7039  -18.7468   20.3507 C   0  0  0  0  0  0  0  0  0  0  0  0
    4.3793  -19.3177   19.0586 N   0  0  0  0  0  0  0  0  0  0  0  0
    7.9038  -14.4692   23.0480 C   0  0  0  0  0  0  0  0  0  0  0  0
    9.1242  -14.2090   22.9008 O   0  0  0  0  0  0  0  0  0  0  0  0
    7.2759  -11.7426   25.6837 C   0  0  0  0  0  0  0  0  0  0  0  0
    7.4787  -13.0422   26.3699 C   0  0  1  0  0  0  0  0  0  0  0  0
    6.1022  -13.6511   26.6209 C   0  0  0  0  0  0  0  0  0  0  0  0
    8.2382  -14.0203   25.5071 C   0  0  2  0  0  0  0  0  0  0  0  0
    7.3727  -14.3844   24.3588 N   0  0  0  0  0  0  0  0  0  0  0  0
    8.5715  -15.2852   26.1842 C   0  0  0  0  0  0  0  0  0  0  0  0
    7.6606  -16.1397   26.3767 O   0  0  0  0  0  0  0  0  0  0  0  0
   12.2789  -16.8634   26.4882 O   0  0  0  0  0  0  0  0  0  0  0  0
   11.1384  -17.6781   26.6416 C   0  0  0  0  0  0  0  0  0  0  0  0
   10.0512  -16.8912   27.3807 C   0  0  2  0  0  0  0  0  0  0  0  0
    9.8558  -15.6536   26.6560 N   0  0  0  0  0  0  0  0  0  0  0  0
   10.4595  -16.6465   28.7860 C   0  0  0  0  0  0  0  0  0  0  0  0
   10.5554  -15.4759   29.2300 O   0  0  0  0  0  0  0  0  0  0  0  0
   10.7471  -17.6888   29.6508 O   0  0  0  0  0  0  0  0  0  0  0  0
  2  1  1  6
  3  2  1  0
  4  3  1  0
  5  4  1  0
  6  5  1  0
  7  6  1  0
  8  2  1  0
  8  9  2  0
 11 10  1  6
 11 12  1  0
 13 14  1  6
 13 11  1  0
 14  8  1  0
 15 13  1  0
 16 15  2  0
 18 17  1  0
 19 18  1  6
 19 20  1  0
 20 15  1  0
 21 19  1  0
 21 23  1  0
 22 21  2  0
M  END
$$$$
