KVS.pdb
     RDKit          3D

 23 22  0  0  1  0  0  0  0  0999 V2000
    6.8041  -15.8056   21.4199 N   0  0  0  0  0  0  0  0  0  0  0  0
    6.5246  -16.0620   22.8184 C   0  0  1  0  0  0  0  0  0  0  0  0
    6.5158  -17.5415   23.1525 C   0  0  0  0  0  0  0  0  0  0  0  0
    5.3706  -18.1781   22.4453 C   0  0  0  0  0  0  0  0  0  0  0  0
    5.2070  -19.6424   22.7374 C   0  0  0  0  0  0  0  0  0  0  0  0
    4.0398  -20.2592   22.0159 C   0  0  0  0  0  0  0  0  0  0  0  0
    4.0033  -21.6885   22.2530 N   0  0  0  0  0  0  0  0  0  0  0  0
    7.5207  -15.3442   23.6683 C   0  0  0  0  0  0  0  0  0  0  0  0
    8.7403  -15.3726   23.3670 O   0  0  0  0  0  0  0  0  0  0  0  0
    6.9717  -11.7410   25.3408 C   0  0  0  0  0  0  0  0  0  0  0  0
    7.4877  -12.7355   26.3131 C   0  0  1  0  0  0  0  0  0  0  0  0
    6.2902  -13.3131   27.0620 C   0  0  0  0  0  0  0  0  0  0  0  0
    8.1713  -13.8917   25.6246 C   0  0  2  0  0  0  0  0  0  0  0  0
    7.1520  -14.6149   24.8257 N   0  0  0  0  0  0  0  0  0  0  0  0
    8.7466  -14.8850   26.5477 C   0  0  0  0  0  0  0  0  0  0  0  0
    7.9832  -15.7263   27.1015 O   0  0  0  0  0  0  0  0  0  0  0  0
   11.9799  -16.5357   25.9355 O   0  0  0  0  0  0  0  0  0  0  0  0
   11.9635  -16.4561   27.3432 C   0  0  0  0  0  0  0  0  0  0  0  0
   10.5710  -16.0176   27.8081 C   0  0  2  0  0  0  0  0  0  0  0  0
   10.1177  -14.9971   26.8873 N   0  0  0  0  0  0  0  0  0  0  0  0
   10.6302  -15.5129   29.2022 C   0  0  0  0  0  0  0  0  0  0  0  0
   10.3517  -14.3163   29.4618 O   0  0  0  0  0  0  0  0  0  0  0  0
   10.9908  -16.3337   30.2572 O   0  0  0  0  0  0  0  0  0  0  0  0
  2  1  1  6
  3  2  1  0
  4  3  1  0
  5  4  1  0
  6  5  1  0
  7  6  1  0
  8  2  1  0
  8  9  2  0
 11 10  1  6
 11 12  1  0
 13 14  1  6
 13 11  1  0
 14  8  1  0
 15 13  1  0
 16 15  2  0
 18 17  1  0
 19 18  1  6
 19 20  1  0
 20 15  1  0
 21 19  1  0
 21 23  1  0
 22 21  2  0
M  END
$$$$
