KVS.pdb
     RDKit          3D

 23 22  0  0  1  0  0  0  0  0999 V2000
    7.1345  -15.4613   21.1761 N   0  0  0  0  0  0  0  0  0  0  0  0
    6.6773  -15.8047   22.5075 C   0  0  1  0  0  0  0  0  0  0  0  0
    6.6561  -17.3017   22.7518 C   0  0  0  0  0  0  0  0  0  0  0  0
    5.8232  -17.9403   21.6957 C   0  0  0  0  0  0  0  0  0  0  0  0
    5.6990  -19.4311   21.8307 C   0  0  0  0  0  0  0  0  0  0  0  0
    4.8021  -20.0432   20.7894 C   0  0  0  0  0  0  0  0  0  0  0  0
    4.7755  -21.4848   20.9365 N   0  0  0  0  0  0  0  0  0  0  0  0
    7.5360  -15.1256   23.5229 C   0  0  0  0  0  0  0  0  0  0  0  0
    8.7675  -14.9887   23.3142 O   0  0  0  0  0  0  0  0  0  0  0  0
    7.8946  -12.3628   27.6169 C   0  0  0  0  0  0  0  0  0  0  0  0
    7.0859  -13.0288   26.5666 C   0  0  1  0  0  0  0  0  0  0  0  0
    6.5750  -11.9454   25.6213 C   0  0  0  0  0  0  0  0  0  0  0  0
    7.9157  -13.9774   25.7360 C   0  0  2  0  0  0  0  0  0  0  0  0
    7.0205  -14.6152   24.7400 N   0  0  0  0  0  0  0  0  0  0  0  0
    8.5200  -15.0782   26.5059 C   0  0  0  0  0  0  0  0  0  0  0  0
    7.7671  -15.9308   27.0565 O   0  0  0  0  0  0  0  0  0  0  0  0
   11.3219  -17.3136   25.5906 O   0  0  0  0  0  0  0  0  0  0  0  0
   11.6325  -16.9363   26.9133 C   0  0  0  0  0  0  0  0  0  0  0  0
   10.3877  -16.3331   27.5721 C   0  0  2  0  0  0  0  0  0  0  0  0
    9.9087  -15.2855   26.6958 N   0  0  0  0  0  0  0  0  0  0  0  0
   10.7216  -15.8118   28.9205 C   0  0  0  0  0  0  0  0  0  0  0  0
   11.1444  -16.5819   29.8178 O   0  0  0  0  0  0  0  0  0  0  0  0
   10.5810  -14.4712   29.2363 O   0  0  0  0  0  0  0  0  0  0  0  0
  2  1  1  6
  3  2  1  0
  4  3  1  0
  5  4  1  0
  6  5  1  0
  7  6  1  0
  8  2  1  0
  8  9  2  0
 11 10  1  1
 11 12  1  0
 13 14  1  6
 13 11  1  0
 14  8  1  0
 15 13  1  0
 16 15  2  0
 18 17  1  0
 19 18  1  6
 19 20  1  0
 20 15  1  0
 21 19  1  0
 21 23  1  0
 22 21  2  0
M  END
$$$$
