KVS.pdb
     RDKit          3D

 23 22  0  0  1  0  0  0  0  0999 V2000
   10.1617  -20.1777   26.9565 N   0  0  0  0  0  0  0  0  0  0  0  0
   10.3920  -18.9516   26.2195 C   0  0  1  0  0  0  0  0  0  0  0  0
    9.9841  -19.0584   24.7624 C   0  0  0  0  0  0  0  0  0  0  0  0
   10.9065  -20.0092   24.0827 C   0  0  0  0  0  0  0  0  0  0  0  0
   10.7634  -20.0394   22.5877 C   0  0  0  0  0  0  0  0  0  0  0  0
   11.6706  -21.0434   21.9303 C   0  0  0  0  0  0  0  0  0  0  0  0
   10.9026  -22.1783   21.4581 N   0  0  0  0  0  0  0  0  0  0  0  0
    9.6666  -17.8260   26.8801 C   0  0  0  0  0  0  0  0  0  0  0  0
    8.5290  -18.0178   27.3781 O   0  0  0  0  0  0  0  0  0  0  0  0
    9.6182  -13.0968   28.3906 C   0  0  0  0  0  0  0  0  0  0  0  0
   10.3292  -14.3517   28.0436 C   0  0  1  0  0  0  0  0  0  0  0  0
   10.9101  -14.9246   29.3331 C   0  0  0  0  0  0  0  0  0  0  0  0
    9.3899  -15.3938   27.4869 C   0  0  2  0  0  0  0  0  0  0  0  0
   10.2086  -16.5205   26.9763 N   0  0  0  0  0  0  0  0  0  0  0  0
    8.5824  -14.9265   26.3470 C   0  0  0  0  0  0  0  0  0  0  0  0
    9.0213  -15.0890   25.1732 O   0  0  0  0  0  0  0  0  0  0  0  0
    5.0390  -13.5247   27.0051 O   0  0  0  0  0  0  0  0  0  0  0  0
    5.3930  -13.0578   25.7226 C   0  0  0  0  0  0  0  0  0  0  0  0
    6.6616  -13.7785   25.2549 C   0  0  2  0  0  0  0  0  0  0  0  0
    7.3182  -14.2931   26.4378 N   0  0  0  0  0  0  0  0  0  0  0  0
    7.5359  -12.8443   24.5036 C   0  0  0  0  0  0  0  0  0  0  0  0
    8.6136  -12.4357   25.0020 O   0  0  0  0  0  0  0  0  0  0  0  0
    7.1996  -12.3933   23.2386 O   0  0  0  0  0  0  0  0  0  0  0  0
  2  1  1  1
  3  2  1  0
  4  3  1  0
  5  4  1  0
  6  5  1  0
  7  6  1  0
  8  2  1  0
  8  9  2  0
 11 10  1  1
 11 12  1  0
 13 14  1  6
 13 11  1  0
 14  8  1  0
 15 13  1  0
 16 15  2  0
 18 17  1  0
 19 18  1  1
 19 20  1  0
 20 15  1  0
 21 19  1  0
 21 23  1  0
 22 21  2  0
M  END
$$$$
