KVS.pdb
     RDKit          3D

 23 22  0  0  1  0  0  0  0  0999 V2000
    9.3148  -17.2318   16.0037 N   0  0  0  0  0  0  0  0  0  0  0  0
    8.3204  -17.2132   17.0575 C   0  0  1  0  0  0  0  0  0  0  0  0
    7.9066  -18.6048   17.4972 C   0  0  0  0  0  0  0  0  0  0  0  0
    7.2947  -19.3046   16.3342 C   0  0  0  0  0  0  0  0  0  0  0  0
    8.0792  -20.4907   15.8504 C   0  0  0  0  0  0  0  0  0  0  0  0
    7.3604  -21.2777   14.7886 C   0  0  0  0  0  0  0  0  0  0  0  0
    8.0926  -22.4905   14.4825 N   0  0  0  0  0  0  0  0  0  0  0  0
    8.8380  -16.4340   18.2213 C   0  0  0  0  0  0  0  0  0  0  0  0
   10.0602  -16.4736   18.5106 O   0  0  0  0  0  0  0  0  0  0  0  0
    7.9600  -12.9314   21.6441 C   0  0  0  0  0  0  0  0  0  0  0  0
    7.5216  -13.7626   20.4962 C   0  0  1  0  0  0  0  0  0  0  0  0
    7.3203  -12.8326   19.3033 C   0  0  0  0  0  0  0  0  0  0  0  0
    8.5751  -14.7662   20.0947 C   0  0  2  0  0  0  0  0  0  0  0  0
    8.0009  -15.6326   19.0364 N   0  0  0  0  0  0  0  0  0  0  0  0
    8.9890  -15.6696   21.1820 C   0  0  0  0  0  0  0  0  0  0  0  0
    8.1657  -16.5211   21.6226 O   0  0  0  0  0  0  0  0  0  0  0  0
   11.8368  -17.8728   21.3605 O   0  0  0  0  0  0  0  0  0  0  0  0
   10.7972  -17.9623   22.3089 C   0  0  0  0  0  0  0  0  0  0  0  0
   10.5387  -16.5758   22.9075 C   0  0  2  0  0  0  0  0  0  0  0  0
   10.2623  -15.6815   21.8035 N   0  0  0  0  0  0  0  0  0  0  0  0
   11.7138  -16.1292   23.6956 C   0  0  0  0  0  0  0  0  0  0  0  0
   12.3710  -15.1175   23.3471 O   0  0  0  0  0  0  0  0  0  0  0  0
   12.1251  -16.8041   24.8323 O   0  0  0  0  0  0  0  0  0  0  0  0
  2  1  1  6
  3  2  1  0
  4  3  1  0
  5  4  1  0
  6  5  1  0
  7  6  1  0
  8  2  1  0
  8  9  2  0
 11 10  1  1
 11 12  1  0
 13 14  1  6
 13 11  1  0
 14  8  1  0
 15 13  1  0
 16 15  2  0
 18 17  1  0
 19 18  1  6
 19 20  1  0
 20 15  1  0
 21 19  1  0
 21 23  1  0
 22 21  2  0
M  END
$$$$
