KVS.pdb
     RDKit          3D

 23 22  0  0  1  0  0  0  0  0999 V2000
    9.0698  -17.5870   16.4495 N   0  0  0  0  0  0  0  0  0  0  0  0
    8.0713  -17.3356   17.4690 C   0  0  1  0  0  0  0  0  0  0  0  0
    7.4757  -18.6116   18.0330 C   0  0  0  0  0  0  0  0  0  0  0  0
    6.8759  -19.3877   16.9129 C   0  0  0  0  0  0  0  0  0  0  0  0
    6.2671  -20.6958   17.3305 C   0  0  0  0  0  0  0  0  0  0  0  0
    5.6772  -21.4640   16.1792 C   0  0  0  0  0  0  0  0  0  0  0  0
    5.3203  -22.8037   16.6018 N   0  0  0  0  0  0  0  0  0  0  0  0
    8.6682  -16.5137   18.5633 C   0  0  0  0  0  0  0  0  0  0  0  0
    9.9032  -16.5691   18.7887 O   0  0  0  0  0  0  0  0  0  0  0  0
    8.0594  -12.9403   21.9708 C   0  0  0  0  0  0  0  0  0  0  0  0
    7.5596  -13.7418   20.8269 C   0  0  1  0  0  0  0  0  0  0  0  0
    7.4280  -12.8050   19.6296 C   0  0  0  0  0  0  0  0  0  0  0  0
    8.5349  -14.8233   20.4301 C   0  0  2  0  0  0  0  0  0  0  0  0
    7.8943  -15.6536   19.3811 N   0  0  0  0  0  0  0  0  0  0  0  0
    8.8856  -15.7460   21.5235 C   0  0  0  0  0  0  0  0  0  0  0  0
    7.9722  -16.4223   22.0758 O   0  0  0  0  0  0  0  0  0  0  0  0
   12.6102  -17.3192   22.2605 O   0  0  0  0  0  0  0  0  0  0  0  0
   11.3991  -17.9437   22.6231 C   0  0  0  0  0  0  0  0  0  0  0  0
   10.4146  -16.8830   23.1263 C   0  0  2  0  0  0  0  0  0  0  0  0
   10.1898  -15.9601   22.0343 N   0  0  0  0  0  0  0  0  0  0  0  0
   10.9652  -16.1969   24.3212 C   0  0  0  0  0  0  0  0  0  0  0  0
   11.2411  -14.9724   24.2856 O   0  0  0  0  0  0  0  0  0  0  0  0
   11.1927  -16.8740   25.5071 O   0  0  0  0  0  0  0  0  0  0  0  0
  2  1  1  6
  3  2  1  0
  4  3  1  0
  5  4  1  0
  6  5  1  0
  7  6  1  0
  8  2  1  0
  8  9  2  0
 11 10  1  1
 11 12  1  0
 13 14  1  6
 13 11  1  0
 14  8  1  0
 15 13  1  0
 16 15  2  0
 18 17  1  0
 19 18  1  6
 19 20  1  0
 20 15  1  0
 21 19  1  0
 21 23  1  0
 22 21  2  0
M  END
$$$$
