KVS.pdb
     RDKit          3D

 23 22  0  0  1  0  0  0  0  0999 V2000
    7.7096  -15.2531   20.9134 N   0  0  0  0  0  0  0  0  0  0  0  0
    7.0860  -15.6501   22.1597 C   0  0  1  0  0  0  0  0  0  0  0  0
    7.0015  -17.1562   22.3190 C   0  0  0  0  0  0  0  0  0  0  0  0
    6.1967  -17.7053   21.1932 C   0  0  0  0  0  0  0  0  0  0  0  0
    6.0221  -19.1966   21.2345 C   0  0  0  0  0  0  0  0  0  0  0  0
    5.2496  -19.7311   20.0594 C   0  0  0  0  0  0  0  0  0  0  0  0
    5.2596  -21.1803   20.0711 N   0  0  0  0  0  0  0  0  0  0  0  0
    7.8296  -15.0481   23.3061 C   0  0  0  0  0  0  0  0  0  0  0  0
    9.0841  -14.9826   23.2766 O   0  0  0  0  0  0  0  0  0  0  0  0
    7.7244  -12.4360   27.5214 C   0  0  0  0  0  0  0  0  0  0  0  0
    7.0446  -13.0269   26.3426 C   0  0  1  0  0  0  0  0  0  0  0  0
    6.6791  -11.8841   25.3998 C   0  0  0  0  0  0  0  0  0  0  0  0
    7.9560  -13.9526   25.5742 C   0  0  2  0  0  0  0  0  0  0  0  0
    7.1770  -14.5345   24.4540 N   0  0  0  0  0  0  0  0  0  0  0  0
    8.4544  -15.0938   26.3610 C   0  0  0  0  0  0  0  0  0  0  0  0
    7.6246  -15.8748   26.9074 O   0  0  0  0  0  0  0  0  0  0  0  0
   12.3987  -16.2648   26.5020 O   0  0  0  0  0  0  0  0  0  0  0  0
   11.3876  -17.2199   26.7336 C   0  0  0  0  0  0  0  0  0  0  0  0
   10.1926  -16.5374   27.4071 C   0  0  2  0  0  0  0  0  0  0  0  0
    9.8179  -15.4162   26.5721 N   0  0  0  0  0  0  0  0  0  0  0  0
   10.5549  -16.1038   28.7791 C   0  0  0  0  0  0  0  0  0  0  0  0
   10.5343  -14.8880   29.0925 O   0  0  0  0  0  0  0  0  0  0  0  0
   10.9250  -17.0140   29.7545 O   0  0  0  0  0  0  0  0  0  0  0  0
  2  1  1  6
  3  2  1  0
  4  3  1  0
  5  4  1  0
  6  5  1  0
  7  6  1  0
  8  2  1  0
  8  9  2  0
 11 10  1  1
 11 12  1  0
 13 14  1  6
 13 11  1  0
 14  8  1  0
 15 13  1  0
 16 15  2  0
 18 17  1  0
 19 18  1  6
 19 20  1  0
 20 15  1  0
 21 19  1  0
 21 23  1  0
 22 21  2  0
M  END
$$$$
