KVS.pdb
     RDKit          3D

 23 22  0  0  1  0  0  0  0  0999 V2000
    7.7685  -13.7916   20.5894 N   0  0  0  0  0  0  0  0  0  0  0  0
    7.0125  -14.2863   21.7222 C   0  0  1  0  0  0  0  0  0  0  0  0
    6.5882  -15.7332   21.5568 C   0  0  0  0  0  0  0  0  0  0  0  0
    7.7794  -16.5312   21.1555 C   0  0  0  0  0  0  0  0  0  0  0  0
    7.4624  -17.9397   20.7409 C   0  0  0  0  0  0  0  0  0  0  0  0
    8.6902  -18.7514   20.4293 C   0  0  0  0  0  0  0  0  0  0  0  0
    8.3133  -20.0775   19.9819 N   0  0  0  0  0  0  0  0  0  0  0  0
    7.8144  -14.1204   22.9708 C   0  0  0  0  0  0  0  0  0  0  0  0
    9.0695  -14.1001   22.9136 O   0  0  0  0  0  0  0  0  0  0  0  0
    6.9515  -11.5499   25.9396 C   0  0  0  0  0  0  0  0  0  0  0  0
    7.2131  -12.9265   26.4266 C   0  0  1  0  0  0  0  0  0  0  0  0
    5.8686  -13.6396   26.5386 C   0  0  0  0  0  0  0  0  0  0  0  0
    8.0475  -13.7187   25.4497 C   0  0  2  0  0  0  0  0  0  0  0  0
    7.2179  -13.9815   24.2484 N   0  0  0  0  0  0  0  0  0  0  0  0
    8.4686  -15.0380   25.9516 C   0  0  0  0  0  0  0  0  0  0  0  0
    7.6278  -15.9807   25.9872 O   0  0  0  0  0  0  0  0  0  0  0  0
   11.4645  -16.9228   24.8807 O   0  0  0  0  0  0  0  0  0  0  0  0
   11.4765  -17.0431   26.2856 C   0  0  0  0  0  0  0  0  0  0  0  0
   10.0830  -16.7166   26.8324 C   0  0  2  0  0  0  0  0  0  0  0  0
    9.7672  -15.3680   26.4125 N   0  0  0  0  0  0  0  0  0  0  0  0
   10.0667  -16.8500   28.3101 C   0  0  0  0  0  0  0  0  0  0  0  0
    9.8246  -15.8571   29.0397 O   0  0  0  0  0  0  0  0  0  0  0  0
   10.3152  -18.0613   28.9328 O   0  0  0  0  0  0  0  0  0  0  0  0
  2  1  1  6
  3  2  1  0
  4  3  1  0
  5  4  1  0
  6  5  1  0
  7  6  1  0
  8  2  1  0
  8  9  2  0
 11 10  1  6
 11 12  1  0
 13 14  1  6
 13 11  1  0
 14  8  1  0
 15 13  1  0
 16 15  2  0
 18 17  1  0
 19 18  1  1
 19 20  1  0
 20 15  1  0
 21 19  1  0
 21 23  1  0
 22 21  2  0
M  END
$$$$
