KVS.pdb
     RDKit          3D

 23 22  0  0  1  0  0  0  0  0999 V2000
    6.6630  -16.2909   21.3108 N   0  0  0  0  0  0  0  0  0  0  0  0
    6.2322  -16.5496   22.6698 C   0  0  1  0  0  0  0  0  0  0  0  0
    6.1584  -18.0306   22.9893 C   0  0  0  0  0  0  0  0  0  0  0  0
    5.2942  -18.6902   21.9720 C   0  0  0  0  0  0  0  0  0  0  0  0
    3.8849  -18.9347   22.4305 C   0  0  0  0  0  0  0  0  0  0  0  0
    3.0078  -19.5121   21.3532 C   0  0  0  0  0  0  0  0  0  0  0  0
    1.6444  -19.6341   21.8295 N   0  0  0  0  0  0  0  0  0  0  0  0
    7.1470  -15.8577   23.6258 C   0  0  0  0  0  0  0  0  0  0  0  0
    8.3898  -15.8934   23.4440 O   0  0  0  0  0  0  0  0  0  0  0  0
    7.7016  -12.8598   27.5536 C   0  0  0  0  0  0  0  0  0  0  0  0
    6.8476  -13.5053   26.5266 C   0  0  1  0  0  0  0  0  0  0  0  0
    6.3729  -12.4154   25.5699 C   0  0  0  0  0  0  0  0  0  0  0  0
    7.6204  -14.5049   25.7010 C   0  0  2  0  0  0  0  0  0  0  0  0
    6.6737  -15.1455   24.7555 N   0  0  0  0  0  0  0  0  0  0  0  0
    8.2163  -15.5994   26.4864 C   0  0  0  0  0  0  0  0  0  0  0  0
    7.4567  -16.4301   27.0607 O   0  0  0  0  0  0  0  0  0  0  0  0
   12.2337  -16.5894   26.4466 O   0  0  0  0  0  0  0  0  0  0  0  0
   11.2431  -17.5712   26.6536 C   0  0  0  0  0  0  0  0  0  0  0  0
   10.0771  -16.9556   27.4340 C   0  0  2  0  0  0  0  0  0  0  0  0
    9.6037  -15.8230   26.6670 N   0  0  0  0  0  0  0  0  0  0  0  0
   10.5227  -16.5528   28.7908 C   0  0  0  0  0  0  0  0  0  0  0  0
   10.4816  -15.3494   29.1469 O   0  0  0  0  0  0  0  0  0  0  0  0
   10.9953  -17.4791   29.7048 O   0  0  0  0  0  0  0  0  0  0  0  0
  2  1  1  6
  3  2  1  0
  4  3  1  0
  5  4  1  0
  6  5  1  0
  7  6  1  0
  8  2  1  0
  8  9  2  0
 11 10  1  1
 11 12  1  0
 13 14  1  6
 13 11  1  0
 14  8  1  0
 15 13  1  0
 16 15  2  0
 18 17  1  0
 19 18  1  6
 19 20  1  0
 20 15  1  0
 21 19  1  0
 21 23  1  0
 22 21  2  0
M  END
$$$$
