KVS.pdb
     RDKit          3D

 23 22  0  0  1  0  0  0  0  0999 V2000
    9.2537  -16.4239   15.3537 N   0  0  0  0  0  0  0  0  0  0  0  0
    8.5090  -16.7468   16.5539 C   0  0  1  0  0  0  0  0  0  0  0  0
    8.5437  -18.2268   16.8846 C   0  0  0  0  0  0  0  0  0  0  0  0
    9.6105  -18.8680   16.0675 C   0  0  0  0  0  0  0  0  0  0  0  0
    9.6668  -20.3634   16.1972 C   0  0  0  0  0  0  0  0  0  0  0  0
   10.7337  -20.9882   15.3401 C   0  0  0  0  0  0  0  0  0  0  0  0
   10.7745  -22.4207   15.5565 N   0  0  0  0  0  0  0  0  0  0  0  0
    9.0342  -15.9468   17.7001 C   0  0  0  0  0  0  0  0  0  0  0  0
   10.2649  -15.7098   17.7893 O   0  0  0  0  0  0  0  0  0  0  0  0
    8.0812  -13.1709   21.7157 C   0  0  0  0  0  0  0  0  0  0  0  0
    7.6310  -13.8918   20.4998 C   0  0  1  0  0  0  0  0  0  0  0  0
    7.1561  -12.8476   19.4935 C   0  0  0  0  0  0  0  0  0  0  0  0
    8.7611  -14.6477   19.8444 C   0  0  2  0  0  0  0  0  0  0  0  0
    8.1951  -15.4286   18.7174 N   0  0  0  0  0  0  0  0  0  0  0  0
    9.4212  -15.6248   20.7271 C   0  0  0  0  0  0  0  0  0  0  0  0
    8.8482  -16.7256   20.9654 O   0  0  0  0  0  0  0  0  0  0  0  0
   12.5514  -17.2958   20.2943 O   0  0  0  0  0  0  0  0  0  0  0  0
   11.5513  -17.6765   21.2124 C   0  0  0  0  0  0  0  0  0  0  0  0
   11.2601  -16.5054   22.1565 C   0  0  2  0  0  0  0  0  0  0  0  0
   10.6788  -15.4490   21.3559 N   0  0  0  0  0  0  0  0  0  0  0  0
   12.5077  -16.0637   22.8271 C   0  0  0  0  0  0  0  0  0  0  0  0
   12.9671  -14.9118   22.6295 O   0  0  0  0  0  0  0  0  0  0  0  0
   13.2044  -16.8961   23.6864 O   0  0  0  0  0  0  0  0  0  0  0  0
  2  1  1  6
  3  2  1  0
  4  3  1  0
  5  4  1  0
  6  5  1  0
  7  6  1  0
  8  2  1  0
  8  9  2  0
 11 10  1  1
 11 12  1  0
 13 14  1  6
 13 11  1  0
 14  8  1  0
 15 13  1  0
 16 15  2  0
 18 17  1  0
 19 18  1  6
 19 20  1  0
 20 15  1  0
 21 19  1  0
 21 23  1  0
 22 21  2  0
M  END
$$$$
