KVS.pdb
     RDKit          3D

 23 22  0  0  1  0  0  0  0  0999 V2000
    8.0898  -12.7616   20.1414 N   0  0  0  0  0  0  0  0  0  0  0  0
    7.4527  -13.7588   20.9777 C   0  0  1  0  0  0  0  0  0  0  0  0
    7.6364  -15.1693   20.4509 C   0  0  0  0  0  0  0  0  0  0  0  0
    7.1779  -15.2076   19.0349 C   0  0  0  0  0  0  0  0  0  0  0  0
    7.3390  -16.5470   18.3743 C   0  0  0  0  0  0  0  0  0  0  0  0
    6.8393  -16.5667   16.9554 C   0  0  0  0  0  0  0  0  0  0  0  0
    7.0046  -17.8887   16.3848 N   0  0  0  0  0  0  0  0  0  0  0  0
    7.9774  -13.6532   22.3717 C   0  0  0  0  0  0  0  0  0  0  0  0
    9.2061  -13.4799   22.5692 O   0  0  0  0  0  0  0  0  0  0  0  0
    7.1025  -12.9177   27.1754 C   0  0  0  0  0  0  0  0  0  0  0  0
    6.6634  -12.9836   25.7599 C   0  0  1  0  0  0  0  0  0  0  0  0
    6.4926  -11.5511   25.2626 C   0  0  0  0  0  0  0  0  0  0  0  0
    7.7040  -13.6307   24.8787 C   0  0  2  0  0  0  0  0  0  0  0  0
    7.1400  -13.7409   23.5112 N   0  0  0  0  0  0  0  0  0  0  0  0
    8.0654  -15.0003   25.2828 C   0  0  0  0  0  0  0  0  0  0  0  0
    7.1502  -15.8565   25.4452 O   0  0  0  0  0  0  0  0  0  0  0  0
   11.9202  -16.4330   25.3961 O   0  0  0  0  0  0  0  0  0  0  0  0
   10.8550  -17.3321   25.1833 C   0  0  0  0  0  0  0  0  0  0  0  0
    9.6166  -16.8352   25.9362 C   0  0  2  0  0  0  0  0  0  0  0  0
    9.3818  -15.4708   25.5137 N   0  0  0  0  0  0  0  0  0  0  0  0
    9.8346  -16.9270   27.4010 C   0  0  0  0  0  0  0  0  0  0  0  0
    9.8495  -15.8921   28.1119 O   0  0  0  0  0  0  0  0  0  0  0  0
   10.0276  -18.1443   28.0317 O   0  0  0  0  0  0  0  0  0  0  0  0
  2  1  1  6
  3  2  1  0
  4  3  1  0
  5  4  1  0
  6  5  1  0
  7  6  1  0
  8  2  1  0
  8  9  2  0
 11 10  1  1
 11 12  1  0
 13 14  1  6
 13 11  1  0
 14  8  1  0
 15 13  1  0
 16 15  2  0
 18 17  1  0
 19 18  1  6
 19 20  1  0
 20 15  1  0
 21 19  1  0
 21 23  1  0
 22 21  2  0
M  END
$$$$
