KVS.pdb
     RDKit          3D

 23 22  0  0  1  0  0  0  0  0999 V2000
    7.6148  -14.9508   20.8945 N   0  0  0  0  0  0  0  0  0  0  0  0
    7.1336  -15.5938   22.1005 C   0  0  1  0  0  0  0  0  0  0  0  0
    7.2717  -17.1037   22.0546 C   0  0  0  0  0  0  0  0  0  0  0  0
    6.0008  -17.6782   21.5335 C   0  0  0  0  0  0  0  0  0  0  0  0
    6.1017  -18.2243   20.1379 C   0  0  0  0  0  0  0  0  0  0  0  0
    5.5865  -19.6327   20.0188 C   0  0  0  0  0  0  0  0  0  0  0  0
    5.6721  -20.0825   18.6437 N   0  0  0  0  0  0  0  0  0  0  0  0
    7.8565  -15.0425   23.2850 C   0  0  0  0  0  0  0  0  0  0  0  0
    9.1120  -14.9889   23.2860 O   0  0  0  0  0  0  0  0  0  0  0  0
    7.6742  -12.4249   27.4848 C   0  0  0  0  0  0  0  0  0  0  0  0
    7.0026  -13.0662   26.3279 C   0  0  1  0  0  0  0  0  0  0  0  0
    6.5847  -11.9587   25.3649 C   0  0  0  0  0  0  0  0  0  0  0  0
    7.9381  -13.9752   25.5685 C   0  0  2  0  0  0  0  0  0  0  0  0
    7.1828  -14.5652   24.4364 N   0  0  0  0  0  0  0  0  0  0  0  0
    8.4437  -15.1113   26.3581 C   0  0  0  0  0  0  0  0  0  0  0  0
    7.6337  -15.9992   26.7486 O   0  0  0  0  0  0  0  0  0  0  0  0
   12.3126  -16.3889   26.5119 O   0  0  0  0  0  0  0  0  0  0  0  0
   11.2291  -17.2338   26.8284 C   0  0  0  0  0  0  0  0  0  0  0  0
   10.1649  -16.4297   27.5824 C   0  0  2  0  0  0  0  0  0  0  0  0
    9.7941  -15.3166   26.7349 N   0  0  0  0  0  0  0  0  0  0  0  0
   10.6974  -15.9717   28.8894 C   0  0  0  0  0  0  0  0  0  0  0  0
   10.8037  -14.7466   29.1433 O   0  0  0  0  0  0  0  0  0  0  0  0
   11.0925  -16.8686   29.8673 O   0  0  0  0  0  0  0  0  0  0  0  0
  2  1  1  6
  3  2  1  0
  4  3  1  0
  5  4  1  0
  6  5  1  0
  7  6  1  0
  8  2  1  0
  8  9  2  0
 11 10  1  1
 11 12  1  0
 13 14  1  6
 13 11  1  0
 14  8  1  0
 15 13  1  0
 16 15  2  0
 18 17  1  0
 19 18  1  6
 19 20  1  0
 20 15  1  0
 21 19  1  0
 21 23  1  0
 22 21  2  0
M  END
$$$$
