KVS.pdb
     RDKit          3D

 23 22  0  0  1  0  0  0  0  0999 V2000
    7.3461  -15.1394   20.9293 N   0  0  0  0  0  0  0  0  0  0  0  0
    6.8311  -15.6431   22.1866 C   0  0  1  0  0  0  0  0  0  0  0  0
    6.8814  -17.1564   22.2763 C   0  0  0  0  0  0  0  0  0  0  0  0
    5.7743  -17.7150   21.4521 C   0  0  0  0  0  0  0  0  0  0  0  0
    4.7158  -18.4246   22.2473 C   0  0  0  0  0  0  0  0  0  0  0  0
    3.6755  -19.0849   21.3841 C   0  0  0  0  0  0  0  0  0  0  0  0
    4.2790  -20.1341   20.5869 N   0  0  0  0  0  0  0  0  0  0  0  0
    7.5875  -15.0309   23.3192 C   0  0  0  0  0  0  0  0  0  0  0  0
    8.8386  -14.9320   23.2587 O   0  0  0  0  0  0  0  0  0  0  0  0
    7.5454  -12.4433   27.5448 C   0  0  0  0  0  0  0  0  0  0  0  0
    6.8473  -13.0360   26.3777 C   0  0  1  0  0  0  0  0  0  0  0  0
    6.4752  -11.8956   25.4346 C   0  0  0  0  0  0  0  0  0  0  0  0
    7.7441  -13.9696   25.6016 C   0  0  2  0  0  0  0  0  0  0  0  0
    6.9509  -14.5440   24.4876 N   0  0  0  0  0  0  0  0  0  0  0  0
    8.2387  -15.1155   26.3839 C   0  0  0  0  0  0  0  0  0  0  0  0
    7.4186  -15.9927   26.7776 O   0  0  0  0  0  0  0  0  0  0  0  0
   12.1094  -16.2895   26.4863 O   0  0  0  0  0  0  0  0  0  0  0  0
   11.0841  -17.2145   26.7716 C   0  0  0  0  0  0  0  0  0  0  0  0
    9.9590  -16.5033   27.5305 C   0  0  2  0  0  0  0  0  0  0  0  0
    9.5886  -15.3418   26.7502 N   0  0  0  0  0  0  0  0  0  0  0  0
   10.4146  -16.1282   28.8918 C   0  0  0  0  0  0  0  0  0  0  0  0
   10.4428  -14.9245   29.2483 O   0  0  0  0  0  0  0  0  0  0  0  0
   10.8213  -17.0813   29.8099 O   0  0  0  0  0  0  0  0  0  0  0  0
  2  1  1  6
  3  2  1  0
  4  3  1  0
  5  4  1  0
  6  5  1  0
  7  6  1  0
  8  2  1  0
  8  9  2  0
 11 10  1  1
 11 12  1  0
 13 14  1  6
 13 11  1  0
 14  8  1  0
 15 13  1  0
 16 15  2  0
 18 17  1  0
 19 18  1  6
 19 20  1  0
 20 15  1  0
 21 19  1  0
 21 23  1  0
 22 21  2  0
M  END
$$$$
