HKI.pdb
     RDKit          3D

 28 28  0  0  1  0  0  0  0  0999 V2000
   15.6420  -13.2299  -13.9158 N   0  0  0  0  0  0  0  0  0  0  0  0
   14.7138  -12.1291  -14.0358 C   0  0  1  0  0  0  0  0  0  0  0  0
   13.4961  -12.4318  -13.1989 C   0  0  0  0  0  0  0  0  0  0  0  0
   12.7594  -13.5504  -13.8378 C   0  0  0  0  0  0  0  0  0  0  0  0
   11.8162  -13.4232  -14.8564 C   0  0  0  0  0  0  0  0  0  0  0  0
   11.3436  -14.6362  -15.2071 N   0  0  0  0  0  0  0  0  0  0  0  0
   11.9790  -15.5143  -14.4214 C   0  0  0  0  0  0  0  0  0  0  0  0
   12.8200  -14.8705  -13.6079 N   0  0  0  0  0  0  0  0  0  0  0  0
   15.3906  -10.8905  -13.6007 C   0  0  0  0  0  0  0  0  0  0  0  0
   15.7419  -10.7212  -12.4163 O   0  0  0  0  0  0  0  0  0  0  0  0
   15.6489   -9.8708  -14.5412 N   0  0  0  0  0  0  0  0  0  0  0  0
   16.2602   -8.6206  -14.2158 C   0  0  1  0  0  0  0  0  0  0  0  0
   16.6582   -7.8231  -15.4252 C   0  0  0  0  0  0  0  0  0  0  0  0
   17.1872   -6.4715  -15.0801 C   0  0  0  0  0  0  0  0  0  0  0  0
   18.6687   -6.3716  -15.2624 C   0  0  0  0  0  0  0  0  0  0  0  0
   19.0629   -4.9406  -14.8672 C   0  0  0  0  0  0  0  0  0  0  0  0
   20.4559   -4.6858  -15.0786 N   0  0  0  0  0  0  0  0  0  0  0  0
   15.4574   -7.8384  -13.2300 C   0  0  0  0  0  0  0  0  0  0  0  0
   14.2445   -7.7617  -13.4397 O   0  0  0  0  0  0  0  0  0  0  0  0
   14.2947   -6.7144   -7.4713 C   0  0  0  0  0  0  0  0  0  0  0  0
   14.5298   -6.0590   -8.8067 C   0  0  0  0  0  0  0  0  0  0  0  0
   15.2026   -6.9201   -9.8186 C   0  0  2  0  0  0  0  0  0  0  0  0
   16.5137   -7.4382   -9.2205 C   0  0  0  0  0  0  0  0  0  0  0  0
   15.4019   -6.3323  -11.1675 C   0  0  2  0  0  0  0  0  0  0  0  0
   16.0285   -7.2074  -12.1038 N   0  0  0  0  0  0  0  0  0  0  0  0
   15.8743   -4.9221  -11.1959 C   0  0  0  0  0  0  0  0  0  0  0  0
   15.1063   -3.8455  -10.7737 O   0  0  0  0  0  0  0  0  0  0  0  0
   17.0166   -4.6022  -11.6100 O   0  0  0  0  0  0  0  0  0  0  0  0
  2  1  1  1
  2  3  1  0
  2  9  1  0
  3  4  1  0
  4  5  2  0
  6  5  1  0
  7  6  1  0
  8  4  1  0
  8  7  2  0
  9 11  1  0
  9 10  2  0
 11 12  1  0
 12 13  1  6
 14 13  1  0
 15 14  1  0
 15 16  1  0
 17 16  1  0
 18 12  1  0
 18 19  2  0
 20 21  1  0
 21 22  1  0
 22 23  1  1
 22 24  1  0
 24 25  1  1
 25 18  1  0
 26 24  1  0
 27 26  1  0
 28 26  2  0
M  END
$$$$
