HKI.pdb
     RDKit          3D

 28 28  0  0  1  0  0  0  0  0999 V2000
   22.3175  -18.3453  -17.9365 N   0  0  0  0  0  0  0  0  0  0  0  0
   22.6471  -17.7546  -16.6597 C   0  0  1  0  0  0  0  0  0  0  0  0
   21.3691  -17.5125  -15.8961 C   0  0  0  0  0  0  0  0  0  0  0  0
   20.8113  -16.2061  -16.3258 C   0  0  0  0  0  0  0  0  0  0  0  0
   19.7647  -16.0291  -17.2296 C   0  0  0  0  0  0  0  0  0  0  0  0
   19.5080  -14.7157  -17.3927 N   0  0  0  0  0  0  0  0  0  0  0  0
   20.3795  -14.0748  -16.6041 C   0  0  0  0  0  0  0  0  0  0  0  0
   21.1539  -14.9590  -15.9701 N   0  0  0  0  0  0  0  0  0  0  0  0
   23.5587  -18.6657  -15.9385 C   0  0  0  0  0  0  0  0  0  0  0  0
   23.1263  -19.6216  -15.2645 O   0  0  0  0  0  0  0  0  0  0  0  0
   24.9523  -18.4560  -16.0089 N   0  0  0  0  0  0  0  0  0  0  0  0
   25.9229  -19.3476  -15.4560 C   0  0  1  0  0  0  0  0  0  0  0  0
   27.2615  -19.2597  -16.1324 C   0  0  0  0  0  0  0  0  0  0  0  0
   27.2337  -19.7545  -17.5396 C   0  0  0  0  0  0  0  0  0  0  0  0
   28.5480  -19.5841  -18.2336 C   0  0  0  0  0  0  0  0  0  0  0  0
   28.3152  -19.9484  -19.7075 C   0  0  0  0  0  0  0  0  0  0  0  0
   29.4608  -19.6709  -20.5203 N   0  0  0  0  0  0  0  0  0  0  0  0
   26.0041  -19.2432  -13.9691 C   0  0  0  0  0  0  0  0  0  0  0  0
   26.0202  -18.1055  -13.4936 O   0  0  0  0  0  0  0  0  0  0  0  0
   23.9301  -20.3458   -8.6338 C   0  0  0  0  0  0  0  0  0  0  0  0
   25.2084  -20.2743   -9.4269 C   0  0  0  0  0  0  0  0  0  0  0  0
   25.0446  -20.4420  -10.8978 C   0  0  2  0  0  0  0  0  0  0  0  0
   24.2222  -21.7083  -11.1533 C   0  0  0  0  0  0  0  0  0  0  0  0
   26.2841  -20.4109  -11.7145 C   0  0  2  0  0  0  0  0  0  0  0  0
   26.0599  -20.3716  -13.1227 N   0  0  0  0  0  0  0  0  0  0  0  0
   27.3775  -21.3145  -11.2665 C   0  0  0  0  0  0  0  0  0  0  0  0
   28.0019  -21.2118  -10.0309 O   0  0  0  0  0  0  0  0  0  0  0  0
   27.8188  -22.2462  -11.9848 O   0  0  0  0  0  0  0  0  0  0  0  0
  2  1  1  6
  2  3  1  0
  2  9  1  0
  3  4  1  0
  4  5  2  0
  6  5  1  0
  7  6  1  0
  8  4  1  0
  8  7  2  0
  9 11  1  0
  9 10  2  0
 11 12  1  0
 12 13  1  6
 14 13  1  0
 15 14  1  0
 15 16  1  0
 17 16  1  0
 18 12  1  0
 18 19  2  0
 20 21  1  0
 21 22  1  0
 22 23  1  1
 22 24  1  0
 24 25  1  6
 25 18  1  0
 26 24  1  0
 27 26  1  0
 28 26  2  0
M  END
$$$$
