HKI.pdb
     RDKit          3D

 28 28  0  0  1  0  0  0  0  0999 V2000
   28.4778  -22.5224  -18.4796 N   0  0  0  0  0  0  0  0  0  0  0  0
   27.7999  -22.9920  -17.2931 C   0  0  1  0  0  0  0  0  0  0  0  0
   28.8169  -23.6211  -16.3740 C   0  0  0  0  0  0  0  0  0  0  0  0
   29.2053  -24.9362  -16.9412 C   0  0  0  0  0  0  0  0  0  0  0  0
   28.6267  -26.1622  -16.6164 C   0  0  0  0  0  0  0  0  0  0  0  0
   29.2142  -27.1538  -17.3158 N   0  0  0  0  0  0  0  0  0  0  0  0
   30.1489  -26.5619  -18.0695 C   0  0  0  0  0  0  0  0  0  0  0  0
   30.1444  -25.2450  -17.8479 N   0  0  0  0  0  0  0  0  0  0  0  0
   27.1119  -21.8496  -16.6584 C   0  0  0  0  0  0  0  0  0  0  0  0
   27.7134  -20.7884  -16.3995 O   0  0  0  0  0  0  0  0  0  0  0  0
   25.7424  -21.9538  -16.3346 N   0  0  0  0  0  0  0  0  0  0  0  0
   24.9920  -20.9191  -15.6953 C   0  0  1  0  0  0  0  0  0  0  0  0
   23.9894  -20.2664  -16.6040 C   0  0  0  0  0  0  0  0  0  0  0  0
   22.8577  -21.1698  -16.9629 C   0  0  0  0  0  0  0  0  0  0  0  0
   21.9208  -20.5507  -17.9514 C   0  0  0  0  0  0  0  0  0  0  0  0
   20.8302  -21.5947  -18.2341 C   0  0  0  0  0  0  0  0  0  0  0  0
   19.8885  -21.1413  -19.2128 N   0  0  0  0  0  0  0  0  0  0  0  0
   24.4094  -21.3641  -14.3950 C   0  0  0  0  0  0  0  0  0  0  0  0
   23.8361  -22.4560  -14.3896 O   0  0  0  0  0  0  0  0  0  0  0  0
   25.4762  -20.8654   -8.3469 C   0  0  0  0  0  0  0  0  0  0  0  0
   24.5092  -21.1719   -9.4600 C   0  0  0  0  0  0  0  0  0  0  0  0
   24.9526  -20.7376  -10.8139 C   0  0  2  0  0  0  0  0  0  0  0  0
   25.4699  -19.2996  -10.7172 C   0  0  0  0  0  0  0  0  0  0  0  0
   23.9762  -20.9031  -11.9202 C   0  0  2  0  0  0  0  0  0  0  0  0
   24.4948  -20.5968  -13.2133 N   0  0  0  0  0  0  0  0  0  0  0  0
   22.6005  -20.4061  -11.6493 C   0  0  0  0  0  0  0  0  0  0  0  0
   21.7634  -20.9488  -10.6841 O   0  0  0  0  0  0  0  0  0  0  0  0
   22.0930  -19.4479  -12.2840 O   0  0  0  0  0  0  0  0  0  0  0  0
  2  1  1  6
  2  3  1  0
  2  9  1  0
  3  4  1  0
  4  5  2  0
  6  5  1  0
  7  6  1  0
  8  4  1  0
  8  7  2  0
  9 11  1  0
  9 10  2  0
 11 12  1  0
 12 13  1  6
 14 13  1  0
 15 14  1  0
 15 16  1  0
 17 16  1  0
 18 12  1  0
 18 19  2  0
 20 21  1  0
 21 22  1  0
 22 23  1  1
 22 24  1  0
 24 25  1  6
 25 18  1  0
 26 24  1  0
 27 26  1  0
 28 26  2  0
M  END
$$$$
