HKI.pdb
     RDKit          3D

 28 28  0  0  1  0  0  0  0  0999 V2000
   18.7116  -14.7162  -18.2187 N   0  0  0  0  0  0  0  0  0  0  0  0
   20.1123  -14.3618  -18.2064 C   0  0  1  0  0  0  0  0  0  0  0  0
   20.7331  -14.8043  -19.5077 C   0  0  0  0  0  0  0  0  0  0  0  0
   20.6240  -16.2817  -19.5961 C   0  0  0  0  0  0  0  0  0  0  0  0
   20.1344  -17.1199  -18.5955 C   0  0  0  0  0  0  0  0  0  0  0  0
   20.1715  -18.4039  -19.0048 N   0  0  0  0  0  0  0  0  0  0  0  0
   20.6771  -18.3754  -20.2440 C   0  0  0  0  0  0  0  0  0  0  0  0
   20.9461  -17.1156  -20.5961 N   0  0  0  0  0  0  0  0  0  0  0  0
   20.2292  -12.9034  -18.0049 C   0  0  0  0  0  0  0  0  0  0  0  0
   21.3174  -12.3110  -18.1461 O   0  0  0  0  0  0  0  0  0  0  0  0
   19.0878  -12.1563  -17.6443 N   0  0  0  0  0  0  0  0  0  0  0  0
   19.1031  -10.7517  -17.3810 C   0  0  1  0  0  0  0  0  0  0  0  0
   17.7290  -10.1541  -17.2728 C   0  0  0  0  0  0  0  0  0  0  0  0
   17.7506   -8.6663  -17.1645 C   0  0  0  0  0  0  0  0  0  0  0  0
   16.3814   -8.0820  -17.0160 C   0  0  0  0  0  0  0  0  0  0  0  0
   16.5524   -6.5557  -17.0350 C   0  0  0  0  0  0  0  0  0  0  0  0
   15.2958   -5.8704  -16.9970 N   0  0  0  0  0  0  0  0  0  0  0  0
   19.9920  -10.4011  -16.2341 C   0  0  0  0  0  0  0  0  0  0  0  0
   19.7430  -10.9427  -15.1545 O   0  0  0  0  0  0  0  0  0  0  0  0
   25.4472  -10.4844  -14.2116 C   0  0  0  0  0  0  0  0  0  0  0  0
   24.2094   -9.6265  -14.2140 C   0  0  0  0  0  0  0  0  0  0  0  0
   23.2620   -9.8948  -15.3313 C   0  0  2  0  0  0  0  0  0  0  0  0
   24.0252   -9.7771  -16.6537 C   0  0  0  0  0  0  0  0  0  0  0  0
   22.0049   -9.1048  -15.3437 C   0  0  2  0  0  0  0  0  0  0  0  0
   21.0720   -9.4994  -16.3482 N   0  0  0  0  0  0  0  0  0  0  0  0
   22.1606   -7.6372  -15.1575 C   0  0  0  0  0  0  0  0  0  0  0  0
   22.5050   -7.0481  -13.9486 O   0  0  0  0  0  0  0  0  0  0  0  0
   21.9886   -6.8170  -16.0936 O   0  0  0  0  0  0  0  0  0  0  0  0
  2  1  1  6
  2  3  1  0
  2  9  1  0
  3  4  1  0
  4  5  2  0
  6  5  1  0
  7  6  1  0
  8  4  1  0
  8  7  2  0
  9 11  1  0
  9 10  2  0
 11 12  1  0
 12 13  1  1
 14 13  1  0
 15 14  1  0
 15 16  1  0
 17 16  1  0
 18 12  1  0
 18 19  2  0
 20 21  1  0
 21 22  1  0
 22 23  1  6
 22 24  1  0
 24 25  1  6
 25 18  1  0
 26 24  1  0
 27 26  1  0
 28 26  2  0
M  END
$$$$
