HKI.pdb
     RDKit          3D

 28 28  0  0  1  0  0  0  0  0999 V2000
   26.6890  -19.5369  -15.7679 N   0  0  0  0  0  0  0  0  0  0  0  0
   27.3898  -18.7472  -14.7814 C   0  0  1  0  0  0  0  0  0  0  0  0
   27.3113  -17.2952  -15.1817 C   0  0  0  0  0  0  0  0  0  0  0  0
   27.9614  -17.1426  -16.5069 C   0  0  0  0  0  0  0  0  0  0  0  0
   28.5688  -18.1649  -17.2346 C   0  0  0  0  0  0  0  0  0  0  0  0
   29.0560  -17.6833  -18.3958 N   0  0  0  0  0  0  0  0  0  0  0  0
   28.7605  -16.3776  -18.3997 C   0  0  0  0  0  0  0  0  0  0  0  0
   28.1105  -16.0555  -17.2785 N   0  0  0  0  0  0  0  0  0  0  0  0
   26.7781  -18.9909  -13.4594 C   0  0  0  0  0  0  0  0  0  0  0  0
   27.0497  -18.2767  -12.4738 O   0  0  0  0  0  0  0  0  0  0  0  0
   25.8643  -20.0542  -13.3000 N   0  0  0  0  0  0  0  0  0  0  0  0
   25.1979  -20.3573  -12.0726 C   0  0  1  0  0  0  0  0  0  0  0  0
   24.1237  -21.3968  -12.2225 C   0  0  0  0  0  0  0  0  0  0  0  0
   22.7483  -20.8211  -12.1705 C   0  0  0  0  0  0  0  0  0  0  0  0
   21.9752  -21.0682  -13.4272 C   0  0  0  0  0  0  0  0  0  0  0  0
   20.6302  -20.3447  -13.2631 C   0  0  0  0  0  0  0  0  0  0  0  0
   19.7764  -20.5271  -14.3979 N   0  0  0  0  0  0  0  0  0  0  0  0
   26.1563  -20.6529  -10.9670 C   0  0  0  0  0  0  0  0  0  0  0  0
   27.0121  -21.5122  -11.1906 O   0  0  0  0  0  0  0  0  0  0  0  0
   29.1334  -19.7101   -5.7819 C   0  0  0  0  0  0  0  0  0  0  0  0
   28.0101  -20.4489   -6.4605 C   0  0  0  0  0  0  0  0  0  0  0  0
   27.5455  -19.8459   -7.7406 C   0  0  2  0  0  0  0  0  0  0  0  0
   27.2543  -18.3618   -7.5005 C   0  0  0  0  0  0  0  0  0  0  0  0
   26.4208  -20.5279   -8.4294 C   0  0  2  0  0  0  0  0  0  0  0  0
   26.1116  -19.9981   -9.7173 N   0  0  0  0  0  0  0  0  0  0  0  0
   25.2480  -20.8632   -7.5779 C   0  0  0  0  0  0  0  0  0  0  0  0
   23.9508  -20.4590   -7.8627 O   0  0  0  0  0  0  0  0  0  0  0  0
   25.3507  -21.5441   -6.5271 O   0  0  0  0  0  0  0  0  0  0  0  0
  2  1  1  6
  2  3  1  0
  2  9  1  0
  3  4  1  0
  4  5  2  0
  6  5  1  0
  7  6  1  0
  8  4  1  0
  8  7  2  0
  9 11  1  0
  9 10  2  0
 11 12  1  0
 12 13  1  6
 14 13  1  0
 15 14  1  0
 15 16  1  0
 17 16  1  0
 18 12  1  0
 18 19  2  0
 20 21  1  0
 21 22  1  0
 22 23  1  1
 22 24  1  0
 24 25  1  6
 25 18  1  0
 26 24  1  0
 27 26  1  0
 28 26  2  0
M  END
$$$$
