HKI.pdb
     RDKit          3D

 28 28  0  0  1  0  0  0  0  0999 V2000
   22.2534  -19.6205  -17.1097 N   0  0  0  0  0  0  0  0  0  0  0  0
   22.6069  -18.9019  -15.9070 C   0  0  1  0  0  0  0  0  0  0  0  0
   21.3585  -18.6897  -15.0876 C   0  0  0  0  0  0  0  0  0  0  0  0
   20.4791  -17.7427  -15.8171 C   0  0  0  0  0  0  0  0  0  0  0  0
   19.1535  -17.9804  -16.1771 C   0  0  0  0  0  0  0  0  0  0  0  0
   18.6487  -16.9115  -16.8255 N   0  0  0  0  0  0  0  0  0  0  0  0
   19.6410  -16.0143  -16.8737 C   0  0  0  0  0  0  0  0  0  0  0  0
   20.7284  -16.5069  -16.2751 N   0  0  0  0  0  0  0  0  0  0  0  0
   23.6251  -19.6803  -15.1731 C   0  0  0  0  0  0  0  0  0  0  0  0
   23.3206  -20.6945  -14.5145 O   0  0  0  0  0  0  0  0  0  0  0  0
   24.9756  -19.2733  -15.2134 N   0  0  0  0  0  0  0  0  0  0  0  0
   26.0483  -20.0053  -14.6169 C   0  0  1  0  0  0  0  0  0  0  0  0
   27.3418  -19.8812  -15.3709 C   0  0  0  0  0  0  0  0  0  0  0  0
   27.1684  -20.0185  -16.8463 C   0  0  0  0  0  0  0  0  0  0  0  0
   28.4485  -19.8219  -17.5952 C   0  0  0  0  0  0  0  0  0  0  0  0
   28.0910  -19.8523  -19.0887 C   0  0  0  0  0  0  0  0  0  0  0  0
   29.2308  -19.6149  -19.9222 N   0  0  0  0  0  0  0  0  0  0  0  0
   26.1850  -19.7198  -13.1581 C   0  0  0  0  0  0  0  0  0  0  0  0
   26.1677  -18.5335  -12.8216 O   0  0  0  0  0  0  0  0  0  0  0  0
   22.9786  -20.5472   -9.4064 C   0  0  0  0  0  0  0  0  0  0  0  0
   24.1509  -20.1975  -10.2847 C   0  0  0  0  0  0  0  0  0  0  0  0
   25.4325  -20.8595   -9.9139 C   0  0  2  0  0  0  0  0  0  0  0  0
   25.7376  -20.5395   -8.4478 C   0  0  0  0  0  0  0  0  0  0  0  0
   26.5986  -20.5951  -10.7941 C   0  0  2  0  0  0  0  0  0  0  0  0
   26.3274  -20.7350  -12.1877 N   0  0  0  0  0  0  0  0  0  0  0  0
   27.8967  -21.1588  -10.3360 C   0  0  0  0  0  0  0  0  0  0  0  0
   28.5078  -20.8077   -9.1401 O   0  0  0  0  0  0  0  0  0  0  0  0
   28.5397  -22.0031  -11.0085 O   0  0  0  0  0  0  0  0  0  0  0  0
  2  1  1  6
  2  3  1  0
  2  9  1  0
  3  4  1  0
  4  5  2  0
  6  5  1  0
  7  6  1  0
  8  4  1  0
  8  7  2  0
  9 11  1  0
  9 10  2  0
 11 12  1  0
 12 13  1  6
 14 13  1  0
 15 14  1  0
 15 16  1  0
 17 16  1  0
 18 12  1  0
 18 19  2  0
 20 21  1  0
 21 22  1  0
 22 23  1  1
 22 24  1  0
 24 25  1  6
 25 18  1  0
 26 24  1  0
 27 26  1  0
 28 26  2  0
M  END
$$$$
