HKI.pdb
     RDKit          3D

 28 28  0  0  1  0  0  0  0  0999 V2000
   26.0351   -9.8267  -18.9126 N   0  0  0  0  0  0  0  0  0  0  0  0
   26.1390   -9.0158  -17.7212 C   0  0  1  0  0  0  0  0  0  0  0  0
   27.1434   -7.9186  -17.9707 C   0  0  0  0  0  0  0  0  0  0  0  0
   28.4932   -8.5313  -18.0407 C   0  0  0  0  0  0  0  0  0  0  0  0
   28.7844   -9.8781  -17.8288 C   0  0  0  0  0  0  0  0  0  0  0  0
   30.1071  -10.0962  -17.9720 N   0  0  0  0  0  0  0  0  0  0  0  0
   30.6413   -8.9052  -18.2692 C   0  0  0  0  0  0  0  0  0  0  0  0
   29.6837   -7.9752  -18.3102 N   0  0  0  0  0  0  0  0  0  0  0  0
   24.8019   -8.4790  -17.3967 C   0  0  0  0  0  0  0  0  0  0  0  0
   24.0592   -8.0027  -18.2779 O   0  0  0  0  0  0  0  0  0  0  0  0
   24.3474   -8.5023  -16.0610 N   0  0  0  0  0  0  0  0  0  0  0  0
   23.0594   -8.0410  -15.6477 C   0  0  1  0  0  0  0  0  0  0  0  0
   22.3997   -8.9452  -14.6455 C   0  0  0  0  0  0  0  0  0  0  0  0
   21.6705  -10.0810  -15.2809 C   0  0  0  0  0  0  0  0  0  0  0  0
   20.2570   -9.7337  -15.6265 C   0  0  0  0  0  0  0  0  0  0  0  0
   19.5958  -11.0295  -16.1195 C   0  0  0  0  0  0  0  0  0  0  0  0
   18.2438  -10.8199  -16.5415 N   0  0  0  0  0  0  0  0  0  0  0  0
   23.0797   -6.6087  -15.2279 C   0  0  0  0  0  0  0  0  0  0  0  0
   23.8537   -6.3096  -14.3156 O   0  0  0  0  0  0  0  0  0  0  0  0
   23.4898   -1.0508  -17.3486 C   0  0  0  0  0  0  0  0  0  0  0  0
   22.7567   -1.8889  -16.3346 C   0  0  0  0  0  0  0  0  0  0  0  0
   22.8205   -3.3580  -16.5707 C   0  0  2  0  0  0  0  0  0  0  0  0
   22.2612   -3.6501  -17.9661 C   0  0  0  0  0  0  0  0  0  0  0  0
   22.2082   -4.2271  -15.5342 C   0  0  2  0  0  0  0  0  0  0  0  0
   22.2667   -5.6221  -15.8265 N   0  0  0  0  0  0  0  0  0  0  0  0
   20.9205   -3.7470  -14.9649 C   0  0  0  0  0  0  0  0  0  0  0  0
   19.7391   -4.4743  -15.0153 O   0  0  0  0  0  0  0  0  0  0  0  0
   20.8102   -2.6345  -14.3915 O   0  0  0  0  0  0  0  0  0  0  0  0
  2  1  1  6
  2  3  1  0
  2  9  1  0
  3  4  1  0
  4  5  2  0
  6  5  1  0
  7  6  1  0
  8  4  1  0
  8  7  2  0
  9 11  1  0
  9 10  2  0
 11 12  1  0
 12 13  1  1
 14 13  1  0
 15 14  1  0
 15 16  1  0
 17 16  1  0
 18 12  1  0
 18 19  2  0
 20 21  1  0
 21 22  1  0
 22 23  1  6
 22 24  1  0
 24 25  1  6
 25 18  1  0
 26 24  1  0
 27 26  1  0
 28 26  2  0
M  END
$$$$
