HKI.pdb
     RDKit          3D

 28 28  0  0  1  0  0  0  0  0999 V2000
   21.8648  -19.2283  -17.6551 N   0  0  0  0  0  0  0  0  0  0  0  0
   22.5564  -18.4431  -16.6587 C   0  0  1  0  0  0  0  0  0  0  0  0
   21.5363  -17.6717  -15.8592 C   0  0  0  0  0  0  0  0  0  0  0  0
   20.9625  -16.6175  -16.7319 C   0  0  0  0  0  0  0  0  0  0  0  0
   19.6054  -16.4258  -16.9868 C   0  0  0  0  0  0  0  0  0  0  0  0
   19.4316  -15.3792  -17.8188 N   0  0  0  0  0  0  0  0  0  0  0  0
   20.6602  -14.9187  -18.0843 C   0  0  0  0  0  0  0  0  0  0  0  0
   21.5700  -15.6533  -17.4394 N   0  0  0  0  0  0  0  0  0  0  0  0
   23.3529  -19.3521  -15.8097 C   0  0  0  0  0  0  0  0  0  0  0  0
   22.8092  -20.1790  -15.0509 O   0  0  0  0  0  0  0  0  0  0  0  0
   24.7619  -19.2894  -15.8527 N   0  0  0  0  0  0  0  0  0  0  0  0
   25.6218  -20.0710  -15.0207 C   0  0  1  0  0  0  0  0  0  0  0  0
   26.9953  -20.2595  -15.5994 C   0  0  0  0  0  0  0  0  0  0  0  0
   27.2387  -21.6530  -16.0733 C   0  0  0  0  0  0  0  0  0  0  0  0
   28.6368  -21.8556  -16.5654 C   0  0  0  0  0  0  0  0  0  0  0  0
   28.7220  -23.3086  -17.0562 C   0  0  0  0  0  0  0  0  0  0  0  0
   30.0044  -23.6166  -17.6135 N   0  0  0  0  0  0  0  0  0  0  0  0
   25.6367  -19.5857  -13.6091 C   0  0  0  0  0  0  0  0  0  0  0  0
   25.2512  -18.4303  -13.4164 O   0  0  0  0  0  0  0  0  0  0  0  0
   21.9820  -20.2009   -9.6992 C   0  0  0  0  0  0  0  0  0  0  0  0
   23.4872  -20.1937   -9.7492 C   0  0  0  0  0  0  0  0  0  0  0  0
   24.0707  -20.3663  -11.1086 C   0  0  2  0  0  0  0  0  0  0  0  0
   23.4134  -21.5820  -11.7682 C   0  0  0  0  0  0  0  0  0  0  0  0
   25.5519  -20.4203  -11.1964 C   0  0  2  0  0  0  0  0  0  0  0  0
   26.0640  -20.3856  -12.5273 N   0  0  0  0  0  0  0  0  0  0  0  0
   26.2201  -21.3824  -10.2795 C   0  0  0  0  0  0  0  0  0  0  0  0
   26.7865  -22.5781  -10.6999 O   0  0  0  0  0  0  0  0  0  0  0  0
   26.3196  -21.1778   -9.0439 O   0  0  0  0  0  0  0  0  0  0  0  0
  2  1  1  6
  2  3  1  0
  2  9  1  0
  3  4  1  0
  4  5  2  0
  6  5  1  0
  7  6  1  0
  8  4  1  0
  8  7  2  0
  9 11  1  0
  9 10  2  0
 11 12  1  0
 12 13  1  6
 14 13  1  0
 15 14  1  0
 15 16  1  0
 17 16  1  0
 18 12  1  0
 18 19  2  0
 20 21  1  0
 21 22  1  0
 22 23  1  1
 22 24  1  0
 24 25  1  6
 25 18  1  0
 26 24  1  0
 27 26  1  0
 28 26  2  0
M  END
$$$$
