HKI.pdb
     RDKit          3D

 28 28  0  0  1  0  0  0  0  0999 V2000
   24.4271  -20.3869  -16.9392 N   0  0  0  0  0  0  0  0  0  0  0  0
   23.7894  -19.5175  -15.9772 C   0  0  1  0  0  0  0  0  0  0  0  0
   23.5646  -18.1712  -16.6189 C   0  0  0  0  0  0  0  0  0  0  0  0
   24.8806  -17.5020  -16.7683 C   0  0  0  0  0  0  0  0  0  0  0  0
   25.9135  -17.9218  -17.6052 C   0  0  0  0  0  0  0  0  0  0  0  0
   26.9662  -17.0861  -17.5002 N   0  0  0  0  0  0  0  0  0  0  0  0
   26.6025  -16.1541  -16.6106 C   0  0  0  0  0  0  0  0  0  0  0  0
   25.3642  -16.4002  -16.1754 N   0  0  0  0  0  0  0  0  0  0  0  0
   22.5236  -20.1418  -15.5421 C   0  0  0  0  0  0  0  0  0  0  0  0
   21.7199  -20.6266  -16.3631 O   0  0  0  0  0  0  0  0  0  0  0  0
   22.2095  -20.1945  -14.1674 N   0  0  0  0  0  0  0  0  0  0  0  0
   21.0183  -20.7844  -13.6426 C   0  0  1  0  0  0  0  0  0  0  0  0
   21.1362  -21.1705  -12.1955 C   0  0  0  0  0  0  0  0  0  0  0  0
   19.9534  -21.9334  -11.7007 C   0  0  0  0  0  0  0  0  0  0  0  0
   20.1014  -22.3594  -10.2743 C   0  0  0  0  0  0  0  0  0  0  0  0
   18.8988  -23.2617   -9.9598 C   0  0  0  0  0  0  0  0  0  0  0  0
   18.8605  -23.6510   -8.5825 N   0  0  0  0  0  0  0  0  0  0  0  0
   19.8047  -19.9675  -13.9393 C   0  0  0  0  0  0  0  0  0  0  0  0
   19.8186  -18.7954  -13.5563 O   0  0  0  0  0  0  0  0  0  0  0  0
   15.9603  -18.4120  -18.2313 C   0  0  0  0  0  0  0  0  0  0  0  0
   16.0422  -18.8030  -16.7793 C   0  0  0  0  0  0  0  0  0  0  0  0
   17.3050  -19.4863  -16.3836 C   0  0  2  0  0  0  0  0  0  0  0  0
   17.4926  -20.7153  -17.2777 C   0  0  0  0  0  0  0  0  0  0  0  0
   17.4612  -19.8175  -14.9447 C   0  0  2  0  0  0  0  0  0  0  0  0
   18.6820  -20.4818  -14.6232 N   0  0  0  0  0  0  0  0  0  0  0  0
   16.2477  -20.3473  -14.2668 C   0  0  0  0  0  0  0  0  0  0  0  0
   16.2171  -21.5504  -13.5751 O   0  0  0  0  0  0  0  0  0  0  0  0
   15.1506  -19.7350  -14.2735 O   0  0  0  0  0  0  0  0  0  0  0  0
  2  1  1  6
  2  3  1  0
  2  9  1  0
  3  4  1  0
  4  5  2  0
  6  5  1  0
  7  6  1  0
  8  4  1  0
  8  7  2  0
  9 11  1  0
  9 10  2  0
 11 12  1  0
 12 13  1  1
 14 13  1  0
 15 14  1  0
 15 16  1  0
 17 16  1  0
 18 12  1  0
 18 19  2  0
 20 21  1  0
 21 22  1  0
 22 23  1  6
 22 24  1  0
 24 25  1  6
 25 18  1  0
 26 24  1  0
 27 26  1  0
 28 26  2  0
M  END
$$$$
