HKI.pdb
     RDKit          3D

 28 28  0  0  1  0  0  0  0  0999 V2000
   24.8039  -17.8704  -15.9980 N   0  0  0  0  0  0  0  0  0  0  0  0
   25.9717  -18.1918  -15.2102 C   0  0  1  0  0  0  0  0  0  0  0  0
   26.7082  -16.9136  -14.8962 C   0  0  0  0  0  0  0  0  0  0  0  0
   27.2989  -16.3962  -16.1553 C   0  0  0  0  0  0  0  0  0  0  0  0
   26.5907  -16.0830  -17.3145 C   0  0  0  0  0  0  0  0  0  0  0  0
   27.4329  -15.6364  -18.2679 N   0  0  0  0  0  0  0  0  0  0  0  0
   28.6531  -15.6680  -17.7181 C   0  0  0  0  0  0  0  0  0  0  0  0
   28.5746  -16.1190  -16.4636 N   0  0  0  0  0  0  0  0  0  0  0  0
   25.5374  -18.8955  -13.9865 C   0  0  0  0  0  0  0  0  0  0  0  0
   24.7011  -18.3949  -13.2087 O   0  0  0  0  0  0  0  0  0  0  0  0
   26.0768  -20.1638  -13.6838 N   0  0  0  0  0  0  0  0  0  0  0  0
   25.6929  -20.9449  -12.5501 C   0  0  1  0  0  0  0  0  0  0  0  0
   25.6531  -22.4198  -12.8328 C   0  0  0  0  0  0  0  0  0  0  0  0
   24.5762  -22.7973  -13.7937 C   0  0  0  0  0  0  0  0  0  0  0  0
   24.4675  -24.2775  -13.9811 C   0  0  0  0  0  0  0  0  0  0  0  0
   23.3553  -24.5074  -15.0152 C   0  0  0  0  0  0  0  0  0  0  0  0
   23.1503  -25.8979  -15.2885 N   0  0  0  0  0  0  0  0  0  0  0  0
   26.4816  -20.5978  -11.3312 C   0  0  0  0  0  0  0  0  0  0  0  0
   27.7096  -20.6497  -11.4325 O   0  0  0  0  0  0  0  0  0  0  0  0
   28.4922  -19.6666   -5.9205 C   0  0  0  0  0  0  0  0  0  0  0  0
   27.5274  -20.5179   -6.7031 C   0  0  0  0  0  0  0  0  0  0  0  0
   27.0774  -19.9301   -7.9955 C   0  0  2  0  0  0  0  0  0  0  0  0
   26.5365  -18.5229   -7.7265 C   0  0  0  0  0  0  0  0  0  0  0  0
   26.1339  -20.7422   -8.8047 C   0  0  2  0  0  0  0  0  0  0  0  0
   25.8812  -20.2241  -10.1095 N   0  0  0  0  0  0  0  0  0  0  0  0
   24.9422  -21.2617   -8.0817 C   0  0  0  0  0  0  0  0  0  0  0  0
   23.6486  -21.1891   -8.5801 O   0  0  0  0  0  0  0  0  0  0  0  0
   25.0239  -21.8095   -6.9539 O   0  0  0  0  0  0  0  0  0  0  0  0
  2  1  1  6
  2  3  1  0
  2  9  1  0
  3  4  1  0
  4  5  2  0
  6  5  1  0
  7  6  1  0
  8  4  1  0
  8  7  2  0
  9 11  1  0
  9 10  2  0
 11 12  1  0
 12 13  1  6
 14 13  1  0
 15 14  1  0
 15 16  1  0
 17 16  1  0
 18 12  1  0
 18 19  2  0
 20 21  1  0
 21 22  1  0
 22 23  1  1
 22 24  1  0
 24 25  1  6
 25 18  1  0
 26 24  1  0
 27 26  1  0
 28 26  2  0
M  END
$$$$
