HKI.pdb
     RDKit          3D

 28 28  0  0  1  0  0  0  0  0999 V2000
   41.2536  -12.3908  -11.4451 N   0  0  0  0  0  0  0  0  0  0  0  0
   40.9219  -10.9938  -11.2831 C   0  0  1  0  0  0  0  0  0  0  0  0
   39.5630  -10.7475  -11.8894 C   0  0  0  0  0  0  0  0  0  0  0  0
   39.7445  -10.4516  -13.3322 C   0  0  0  0  0  0  0  0  0  0  0  0
   40.9656  -10.4066  -14.0034 C   0  0  0  0  0  0  0  0  0  0  0  0
   40.7705  -10.1136  -15.3049 N   0  0  0  0  0  0  0  0  0  0  0  0
   39.4470   -9.9759  -15.4515 C   0  0  0  0  0  0  0  0  0  0  0  0
   38.8368  -10.1764  -14.2807 N   0  0  0  0  0  0  0  0  0  0  0  0
   40.9541  -10.6641   -9.8438 C   0  0  0  0  0  0  0  0  0  0  0  0
   40.2615  -11.2891   -9.0163 O   0  0  0  0  0  0  0  0  0  0  0  0
   41.7850   -9.6191   -9.3871 N   0  0  0  0  0  0  0  0  0  0  0  0
   41.8482   -9.1858   -8.0266 C   0  0  1  0  0  0  0  0  0  0  0  0
   43.1521   -9.5187   -7.3587 C   0  0  0  0  0  0  0  0  0  0  0  0
   43.2485   -8.9762   -5.9723 C   0  0  0  0  0  0  0  0  0  0  0  0
   44.5384   -9.3343   -5.3046 C   0  0  0  0  0  0  0  0  0  0  0  0
   44.4967   -8.7034   -3.9048 C   0  0  0  0  0  0  0  0  0  0  0  0
   45.5887   -9.1341   -3.0850 N   0  0  0  0  0  0  0  0  0  0  0  0
   41.4523   -7.7551   -7.8700 C   0  0  0  0  0  0  0  0  0  0  0  0
   42.0051   -6.9426   -8.6150 O   0  0  0  0  0  0  0  0  0  0  0  0
   36.2419   -6.7891   -6.8243 C   0  0  0  0  0  0  0  0  0  0  0  0
   37.6800   -6.7402   -7.2684 C   0  0  0  0  0  0  0  0  0  0  0  0
   38.5705   -5.8997   -6.4205 C   0  0  2  0  0  0  0  0  0  0  0  0
   38.0729   -4.4527   -6.4798 C   0  0  0  0  0  0  0  0  0  0  0  0
   40.0284   -5.9966   -6.6845 C   0  0  2  0  0  0  0  0  0  0  0  0
   40.4956   -7.3226   -6.9265 N   0  0  0  0  0  0  0  0  0  0  0  0
   40.9005   -5.1603   -5.8168 C   0  0  0  0  0  0  0  0  0  0  0  0
   41.3282   -3.8846   -6.1584 O   0  0  0  0  0  0  0  0  0  0  0  0
   41.3171   -5.5555   -4.6992 O   0  0  0  0  0  0  0  0  0  0  0  0
  2  1  1  1
  2  3  1  0
  2  9  1  0
  3  4  1  0
  4  5  2  0
  6  5  1  0
  7  6  1  0
  8  4  1  0
  8  7  2  0
  9 11  1  0
  9 10  2  0
 11 12  1  0
 12 13  1  6
 14 13  1  0
 15 14  1  0
 15 16  1  0
 17 16  1  0
 18 12  1  0
 18 19  2  0
 20 21  1  0
 21 22  1  0
 22 23  1  6
 22 24  1  0
 24 25  1  1
 25 18  1  0
 26 24  1  0
 27 26  1  0
 28 26  2  0
M  END
$$$$
