HKI.pdb
     RDKit          3D

 28 28  0  0  1  0  0  0  0  0999 V2000
   18.4019  -21.7911  -14.0798 N   0  0  0  0  0  0  0  0  0  0  0  0
   19.3680  -20.7224  -14.1904 C   0  0  1  0  0  0  0  0  0  0  0  0
   19.1143  -19.7269  -13.0861 C   0  0  0  0  0  0  0  0  0  0  0  0
   17.9372  -18.9053  -13.4625 C   0  0  0  0  0  0  0  0  0  0  0  0
   17.2111  -19.0234  -14.6466 C   0  0  0  0  0  0  0  0  0  0  0  0
   16.2043  -18.1269  -14.6664 N   0  0  0  0  0  0  0  0  0  0  0  0
   16.2947  -17.4541  -13.5126 C   0  0  0  0  0  0  0  0  0  0  0  0
   17.3235  -17.9155  -12.7970 N   0  0  0  0  0  0  0  0  0  0  0  0
   20.7245  -21.3015  -14.1128 C   0  0  0  0  0  0  0  0  0  0  0  0
   21.1236  -21.8920  -13.0896 O   0  0  0  0  0  0  0  0  0  0  0  0
   21.5945  -21.1880  -15.2179 N   0  0  0  0  0  0  0  0  0  0  0  0
   22.9428  -21.6619  -15.2247 C   0  0  1  0  0  0  0  0  0  0  0  0
   23.4682  -21.9343  -16.6055 C   0  0  0  0  0  0  0  0  0  0  0  0
   24.8676  -22.4514  -16.6020 C   0  0  0  0  0  0  0  0  0  0  0  0
   25.3731  -22.7480  -17.9784 C   0  0  0  0  0  0  0  0  0  0  0  0
   26.8042  -23.2811  -17.8138 C   0  0  0  0  0  0  0  0  0  0  0  0
   26.8262  -24.6440  -17.3755 N   0  0  0  0  0  0  0  0  0  0  0  0
   23.8483  -20.8021  -14.4068 C   0  0  0  0  0  0  0  0  0  0  0  0
   23.6400  -19.5871  -14.4422 O   0  0  0  0  0  0  0  0  0  0  0  0
   24.8953  -21.0365   -9.2198 C   0  0  0  0  0  0  0  0  0  0  0  0
   24.7816  -20.6710  -10.6763 C   0  0  0  0  0  0  0  0  0  0  0  0
   26.0114  -20.9109  -11.4815 C   0  0  2  0  0  0  0  0  0  0  0  0
   27.1791  -20.1790  -10.8138 C   0  0  0  0  0  0  0  0  0  0  0  0
   25.9264  -20.6124  -12.9334 C   0  0  2  0  0  0  0  0  0  0  0  0
   24.8987  -21.3237  -13.6211 N   0  0  0  0  0  0  0  0  0  0  0  0
   27.2256  -20.5141  -13.6513 C   0  0  0  0  0  0  0  0  0  0  0  0
   27.9486  -19.3354  -13.7741 O   0  0  0  0  0  0  0  0  0  0  0  0
   27.7665  -21.5039  -14.2046 O   0  0  0  0  0  0  0  0  0  0  0  0
  2  1  1  1
  2  3  1  0
  2  9  1  0
  3  4  1  0
  4  5  2  0
  6  5  1  0
  7  6  1  0
  8  4  1  0
  8  7  2  0
  9 11  1  0
  9 10  2  0
 11 12  1  0
 12 13  1  6
 14 13  1  0
 15 14  1  0
 15 16  1  0
 17 16  1  0
 18 12  1  0
 18 19  2  0
 20 21  1  0
 21 22  1  0
 22 23  1  1
 22 24  1  0
 24 25  1  6
 25 18  1  0
 26 24  1  0
 27 26  1  0
 28 26  2  0
M  END
$$$$
