HKI.pdb
     RDKit          3D

 28 28  0  0  1  0  0  0  0  0999 V2000
   17.8390  -11.4334  -16.9563 N   0  0  0  0  0  0  0  0  0  0  0  0
   18.9537  -11.0624  -16.1151 C   0  0  1  0  0  0  0  0  0  0  0  0
   20.1979  -10.9958  -16.9651 C   0  0  0  0  0  0  0  0  0  0  0  0
   20.5160  -12.3681  -17.4318 C   0  0  0  0  0  0  0  0  0  0  0  0
   20.5538  -12.7838  -18.7619 C   0  0  0  0  0  0  0  0  0  0  0  0
   20.8784  -14.0905  -18.8318 N   0  0  0  0  0  0  0  0  0  0  0  0
   21.0422  -14.4922  -17.5653 C   0  0  0  0  0  0  0  0  0  0  0  0
   20.8273  -13.4701  -16.7332 N   0  0  0  0  0  0  0  0  0  0  0  0
   18.6514   -9.7668  -15.4737 C   0  0  0  0  0  0  0  0  0  0  0  0
   18.2724   -8.7827  -16.1393 O   0  0  0  0  0  0  0  0  0  0  0  0
   18.7922   -9.6318  -14.0763 N   0  0  0  0  0  0  0  0  0  0  0  0
   18.6242   -8.3995  -13.3721 C   0  0  1  0  0  0  0  0  0  0  0  0
   18.0026   -8.5723  -12.0154 C   0  0  0  0  0  0  0  0  0  0  0  0
   17.4652   -7.2974  -11.4571 C   0  0  0  0  0  0  0  0  0  0  0  0
   16.6647   -7.5090  -10.2111 C   0  0  0  0  0  0  0  0  0  0  0  0
   16.0822   -6.1406   -9.8273 C   0  0  0  0  0  0  0  0  0  0  0  0
   15.1361   -6.2369   -8.7570 N   0  0  0  0  0  0  0  0  0  0  0  0
   19.8756   -7.5861  -13.3496 C   0  0  0  0  0  0  0  0  0  0  0  0
   20.7407   -7.9228  -12.5377 O   0  0  0  0  0  0  0  0  0  0  0  0
   21.9871   -3.2860  -16.8312 C   0  0  0  0  0  0  0  0  0  0  0  0
   21.3603   -4.5787  -16.3795 C   0  0  0  0  0  0  0  0  0  0  0  0
   21.9180   -5.1393  -15.1174 C   0  0  2  0  0  0  0  0  0  0  0  0
   22.7122   -6.4037  -15.4572 C   0  0  0  0  0  0  0  0  0  0  0  0
   20.9582   -5.3680  -14.0080 C   0  0  2  0  0  0  0  0  0  0  0  0
   20.0885   -6.4819  -14.2028 N   0  0  0  0  0  0  0  0  0  0  0  0
   20.3189   -4.1493  -13.4433 C   0  0  0  0  0  0  0  0  0  0  0  0
   21.0004   -3.2019  -12.6916 O   0  0  0  0  0  0  0  0  0  0  0  0
   19.1010   -3.8888  -13.6088 O   0  0  0  0  0  0  0  0  0  0  0  0
  2  1  1  6
  2  3  1  0
  2  9  1  0
  3  4  1  0
  4  5  2  0
  6  5  1  0
  7  6  1  0
  8  4  1  0
  8  7  2  0
  9 11  1  0
  9 10  2  0
 11 12  1  0
 12 13  1  1
 14 13  1  0
 15 14  1  0
 15 16  1  0
 17 16  1  0
 18 12  1  0
 18 19  2  0
 20 21  1  0
 21 22  1  0
 22 23  1  6
 22 24  1  0
 24 25  1  6
 25 18  1  0
 26 24  1  0
 27 26  1  0
 28 26  2  0
M  END
$$$$
