HKI.pdb
     RDKit          3D

 28 28  0  0  1  0  0  0  0  0999 V2000
   21.1320  -15.4447  -19.2403 N   0  0  0  0  0  0  0  0  0  0  0  0
   21.8364  -15.5227  -17.9811 C   0  0  1  0  0  0  0  0  0  0  0  0
   21.2904  -14.4633  -17.0568 C   0  0  0  0  0  0  0  0  0  0  0  0
   21.6827  -13.1349  -17.5893 C   0  0  0  0  0  0  0  0  0  0  0  0
   20.8036  -12.1371  -18.0076 C   0  0  0  0  0  0  0  0  0  0  0  0
   21.4920  -11.0580  -18.4309 N   0  0  0  0  0  0  0  0  0  0  0  0
   22.7851  -11.3710  -18.2820 C   0  0  0  0  0  0  0  0  0  0  0  0
   22.8994  -12.6041  -17.7822 N   0  0  0  0  0  0  0  0  0  0  0  0
   21.6663  -16.8814  -17.4276 C   0  0  0  0  0  0  0  0  0  0  0  0
   20.5354  -17.3754  -17.2482 O   0  0  0  0  0  0  0  0  0  0  0  0
   22.8049  -17.6442  -17.0918 N   0  0  0  0  0  0  0  0  0  0  0  0
   22.7493  -18.9612  -16.5396 C   0  0  1  0  0  0  0  0  0  0  0  0
   24.0392  -19.7183  -16.6815 C   0  0  0  0  0  0  0  0  0  0  0  0
   23.9413  -21.1264  -16.1984 C   0  0  0  0  0  0  0  0  0  0  0  0
   25.2361  -21.8658  -16.3199 C   0  0  0  0  0  0  0  0  0  0  0  0
   24.9669  -23.3011  -15.8438 C   0  0  0  0  0  0  0  0  0  0  0  0
   26.1583  -24.0949  -15.8193 N   0  0  0  0  0  0  0  0  0  0  0  0
   22.2099  -18.9684  -15.1478 C   0  0  0  0  0  0  0  0  0  0  0  0
   22.9070  -18.4364  -14.2807 O   0  0  0  0  0  0  0  0  0  0  0  0
   17.6541  -17.5103  -11.7224 C   0  0  0  0  0  0  0  0  0  0  0  0
   18.6479  -18.6191  -11.9481 C   0  0  0  0  0  0  0  0  0  0  0  0
   19.2579  -18.6483  -13.3065 C   0  0  2  0  0  0  0  0  0  0  0  0
   18.1369  -18.7995  -14.3388 C   0  0  0  0  0  0  0  0  0  0  0  0
   20.3504  -19.6295  -13.5258 C   0  0  2  0  0  0  0  0  0  0  0  0
   20.9671  -19.5461  -14.8095 N   0  0  0  0  0  0  0  0  0  0  0  0
   20.0922  -21.0077  -13.0293 C   0  0  0  0  0  0  0  0  0  0  0  0
   20.3219  -22.1514  -13.7818 O   0  0  0  0  0  0  0  0  0  0  0  0
   19.6416  -21.2363  -11.8790 O   0  0  0  0  0  0  0  0  0  0  0  0
  2  1  1  6
  2  3  1  0
  2  9  1  0
  3  4  1  0
  4  5  2  0
  6  5  1  0
  7  6  1  0
  8  4  1  0
  8  7  2  0
  9 11  1  0
  9 10  2  0
 11 12  1  0
 12 13  1  1
 14 13  1  0
 15 14  1  0
 15 16  1  0
 17 16  1  0
 18 12  1  0
 18 19  2  0
 20 21  1  0
 21 22  1  0
 22 23  1  6
 22 24  1  0
 24 25  1  6
 25 18  1  0
 26 24  1  0
 27 26  1  0
 28 26  2  0
M  END
$$$$
