HKI.pdb
     RDKit          3D

 28 28  0  0  1  0  0  0  0  0999 V2000
   19.1529  -14.4217  -18.2020 N   0  0  0  0  0  0  0  0  0  0  0  0
   18.3052  -13.3733  -17.6825 C   0  0  1  0  0  0  0  0  0  0  0  0
   17.7882  -13.7969  -16.3304 C   0  0  0  0  0  0  0  0  0  0  0  0
   16.8670  -14.9441  -16.5236 C   0  0  0  0  0  0  0  0  0  0  0  0
   17.0569  -16.2303  -16.0203 C   0  0  0  0  0  0  0  0  0  0  0  0
   16.0298  -17.0266  -16.3789 N   0  0  0  0  0  0  0  0  0  0  0  0
   15.2054  -16.2543  -17.0973 C   0  0  0  0  0  0  0  0  0  0  0  0
   15.7017  -15.0175  -17.1838 N   0  0  0  0  0  0  0  0  0  0  0  0
   19.0895  -12.1240  -17.6087 C   0  0  0  0  0  0  0  0  0  0  0  0
   20.1950  -12.0814  -17.0331 O   0  0  0  0  0  0  0  0  0  0  0  0
   18.5831  -10.9476  -18.2009 N   0  0  0  0  0  0  0  0  0  0  0  0
   19.2468   -9.6827  -18.1584 C   0  0  1  0  0  0  0  0  0  0  0  0
   18.6279   -8.6579  -19.0660 C   0  0  0  0  0  0  0  0  0  0  0  0
   19.0110   -8.8428  -20.4959 C   0  0  0  0  0  0  0  0  0  0  0  0
   18.3535   -7.8479  -21.3992 C   0  0  0  0  0  0  0  0  0  0  0  0
   18.7897   -8.1998  -22.8293 C   0  0  0  0  0  0  0  0  0  0  0  0
   18.0821   -9.3318  -23.3471 N   0  0  0  0  0  0  0  0  0  0  0  0
   19.4428   -9.1937  -16.7617 C   0  0  0  0  0  0  0  0  0  0  0  0
   18.5268   -9.4108  -15.9650 O   0  0  0  0  0  0  0  0  0  0  0  0
   23.3591  -10.8579  -13.9559 C   0  0  0  0  0  0  0  0  0  0  0  0
   22.1347  -10.2075  -14.5440 C   0  0  0  0  0  0  0  0  0  0  0  0
   22.0813   -8.7260  -14.4013 C   0  0  2  0  0  0  0  0  0  0  0  0
   22.2068   -8.3765  -12.9157 C   0  0  0  0  0  0  0  0  0  0  0  0
   20.9314   -8.0359  -15.0387 C   0  0  2  0  0  0  0  0  0  0  0  0
   20.6073   -8.5146  -16.3428 N   0  0  0  0  0  0  0  0  0  0  0  0
   20.8897   -6.5583  -14.8718 C   0  0  0  0  0  0  0  0  0  0  0  0
   20.4926   -5.9280  -13.7004 O   0  0  0  0  0  0  0  0  0  0  0  0
   21.2146   -5.7667  -15.7918 O   0  0  0  0  0  0  0  0  0  0  0  0
  2  1  1  1
  2  3  1  0
  2  9  1  0
  3  4  1  0
  4  5  2  0
  6  5  1  0
  7  6  1  0
  8  4  1  0
  8  7  2  0
  9 11  1  0
  9 10  2  0
 11 12  1  0
 12 13  1  6
 14 13  1  0
 15 14  1  0
 15 16  1  0
 17 16  1  0
 18 12  1  0
 18 19  2  0
 20 21  1  0
 21 22  1  0
 22 23  1  1
 22 24  1  0
 24 25  1  6
 25 18  1  0
 26 24  1  0
 27 26  1  0
 28 26  2  0
M  END
$$$$
