HKI.pdb
     RDKit          3D

 28 28  0  0  1  0  0  0  0  0999 V2000
   18.7929  -11.4784  -18.8091 N   0  0  0  0  0  0  0  0  0  0  0  0
   19.8228  -12.3580  -19.3124 C   0  0  1  0  0  0  0  0  0  0  0  0
   20.9710  -11.5185  -19.8142 C   0  0  0  0  0  0  0  0  0  0  0  0
   20.5713  -10.9099  -21.1073 C   0  0  0  0  0  0  0  0  0  0  0  0
   21.3185  -10.9414  -22.2837 C   0  0  0  0  0  0  0  0  0  0  0  0
   20.6625  -10.2961  -23.2691 N   0  0  0  0  0  0  0  0  0  0  0  0
   19.5195   -9.8643  -22.7219 C   0  0  0  0  0  0  0  0  0  0  0  0
   19.4644  -10.2283  -21.4382 N   0  0  0  0  0  0  0  0  0  0  0  0
   20.2370  -13.2705  -18.2273 C   0  0  0  0  0  0  0  0  0  0  0  0
   20.8005  -12.8467  -17.1988 O   0  0  0  0  0  0  0  0  0  0  0  0
   19.9929  -14.6548  -18.3502 N   0  0  0  0  0  0  0  0  0  0  0  0
   20.3241  -15.6162  -17.3460 C   0  0  1  0  0  0  0  0  0  0  0  0
   19.2986  -16.7053  -17.2071 C   0  0  0  0  0  0  0  0  0  0  0  0
   19.6289  -17.6784  -16.1255 C   0  0  0  0  0  0  0  0  0  0  0  0
   18.6112  -18.7681  -16.0038 C   0  0  0  0  0  0  0  0  0  0  0  0
   19.0472  -19.6441  -14.8198 C   0  0  0  0  0  0  0  0  0  0  0  0
   18.2772  -20.8475  -14.7254 N   0  0  0  0  0  0  0  0  0  0  0  0
   21.7171  -16.1317  -17.4944 C   0  0  0  0  0  0  0  0  0  0  0  0
   22.0690  -16.4582  -18.6303 O   0  0  0  0  0  0  0  0  0  0  0  0
   27.2904  -14.7493  -15.7520 C   0  0  0  0  0  0  0  0  0  0  0  0
   26.3764  -15.8846  -16.1311 C   0  0  0  0  0  0  0  0  0  0  0  0
   24.9253  -15.6160  -15.9302 C   0  0  2  0  0  0  0  0  0  0  0  0
   24.6915  -15.2936  -14.4516 C   0  0  0  0  0  0  0  0  0  0  0  0
   23.9811  -16.6474  -16.4295 C   0  0  2  0  0  0  0  0  0  0  0  0
   22.6111  -16.2502  -16.4084 N   0  0  0  0  0  0  0  0  0  0  0  0
   24.2493  -18.0409  -15.9837 C   0  0  0  0  0  0  0  0  0  0  0  0
   25.1848  -18.8731  -16.5831 O   0  0  0  0  0  0  0  0  0  0  0  0
   23.6394  -18.5697  -15.0209 O   0  0  0  0  0  0  0  0  0  0  0  0
  2  1  1  1
  2  3  1  0
  2  9  1  0
  3  4  1  0
  4  5  2  0
  6  5  1  0
  7  6  1  0
  8  4  1  0
  8  7  2  0
  9 11  1  0
  9 10  2  0
 11 12  1  0
 12 13  1  6
 14 13  1  0
 15 14  1  0
 15 16  1  0
 17 16  1  0
 18 12  1  0
 18 19  2  0
 20 21  1  0
 21 22  1  0
 22 23  1  1
 22 24  1  0
 24 25  1  1
 25 18  1  0
 26 24  1  0
 27 26  1  0
 28 26  2  0
M  END
$$$$
