AAM.pdb
     RDKit          3D

 19 18  0  0  1  0  0  0  0  0999 V2000
   17.3647  -15.0292  -18.1005 C   0  0  0  0  0  0  0  0  0  0  0  0
   18.2227  -14.6339  -16.9378 C   0  0  2  0  0  0  0  0  0  0  0  0
   17.5097  -14.9130  -15.7135 N   0  0  0  0  0  0  0  0  0  0  0  0
   18.5563  -13.1810  -17.0442 C   0  0  0  0  0  0  0  0  0  0  0  0
   19.3127  -12.7628  -17.9573 O   0  0  0  0  0  0  0  0  0  0  0  0
   17.0851  -10.0741  -15.8324 C   0  0  0  0  0  0  0  0  0  0  0  0
   18.3003  -10.8097  -16.2926 C   0  0  2  0  0  0  0  0  0  0  0  0
   18.0394  -12.2262  -16.1301 N   0  0  0  0  0  0  0  0  0  0  0  0
   19.5198  -10.4235  -15.5369 C   0  0  0  0  0  0  0  0  0  0  0  0
   20.0493  -11.2682  -14.7999 O   0  0  0  0  0  0  0  0  0  0  0  0
   26.6792  -10.2931  -14.8765 C   0  0  0  0  0  0  0  0  0  0  0  0
   25.1412  -10.5947  -15.7774 S   0  0  0  0  0  0  0  0  0  0  0  0
   23.8340   -9.5691  -15.0375 C   0  0  0  0  0  0  0  0  0  0  0  0
   22.4871   -9.8827  -15.6793 C   0  0  0  0  0  0  0  0  0  0  0  0
   21.4484   -8.9334  -15.1704 C   0  0  2  0  0  0  0  0  0  0  0  0
   20.1242   -9.1520  -15.5975 N   0  0  0  0  0  0  0  0  0  0  0  0
   21.8925   -7.5299  -15.3192 C   0  0  0  0  0  0  0  0  0  0  0  0
   22.4963   -6.8913  -14.2719 O   0  0  0  0  0  0  0  0  0  0  0  0
   21.7111   -6.9476  -16.3975 O   0  0  0  0  0  0  0  0  0  0  0  0
  2  3  1  0
  2  1  1  6
  4  2  1  0
  5  4  2  0
  7  6  1  1
  7  9  1  0
  7  8  1  0
  8  4  1  0
  9 10  2  0
 11 12  1  0
 12 13  1  0
 14 13  1  0
 15 14  1  6
 16 15  1  0
 16  9  1  0
 17 18  1  0
 17 15  1  0
 19 17  2  0
M  END
$$$$
