AAM.pdb
     RDKit          3D

 19 18  0  0  1  0  0  0  0  0999 V2000
   16.8422  -15.3097  -17.1667 C   0  0  0  0  0  0  0  0  0  0  0  0
   17.5493  -14.6485  -16.0233 C   0  0  2  0  0  0  0  0  0  0  0  0
   16.6395  -14.5455  -14.9067 N   0  0  0  0  0  0  0  0  0  0  0  0
   18.0246  -13.2986  -16.4534 C   0  0  0  0  0  0  0  0  0  0  0  0
   18.9034  -13.1831  -17.3452 O   0  0  0  0  0  0  0  0  0  0  0  0
   16.9079   -9.8235  -16.1151 C   0  0  0  0  0  0  0  0  0  0  0  0
   18.0238  -10.8055  -16.2586 C   0  0  2  0  0  0  0  0  0  0  0  0
   17.5099  -12.1068  -15.8797 N   0  0  0  0  0  0  0  0  0  0  0  0
   19.2007  -10.4560  -15.4218 C   0  0  0  0  0  0  0  0  0  0  0  0
   19.6453  -11.3116  -14.6425 O   0  0  0  0  0  0  0  0  0  0  0  0
   26.3171  -10.6720  -14.5159 C   0  0  0  0  0  0  0  0  0  0  0  0
   24.7806  -10.9458  -15.4281 S   0  0  0  0  0  0  0  0  0  0  0  0
   23.5255   -9.7921  -14.7943 C   0  0  0  0  0  0  0  0  0  0  0  0
   22.1890  -10.0290  -15.4885 C   0  0  0  0  0  0  0  0  0  0  0  0
   21.1761   -9.0471  -14.9897 C   0  0  2  0  0  0  0  0  0  0  0  0
   19.8548   -9.2082  -15.4499 N   0  0  0  0  0  0  0  0  0  0  0  0
   21.6773   -7.6600  -15.1082 C   0  0  0  0  0  0  0  0  0  0  0  0
   22.2596   -7.0513  -14.0313 O   0  0  0  0  0  0  0  0  0  0  0  0
   21.5630   -7.0641  -16.1883 O   0  0  0  0  0  0  0  0  0  0  0  0
  2  3  1  0
  2  1  1  6
  4  2  1  0
  5  4  2  0
  7  6  1  1
  7  9  1  0
  7  8  1  0
  8  4  1  0
  9 10  2  0
 11 12  1  0
 12 13  1  0
 14 13  1  0
 15 14  1  6
 16 15  1  0
 16  9  1  0
 17 18  1  0
 17 15  1  0
 19 17  2  0
M  END
$$$$
