AAM.pdb
     RDKit          3D

 19 18  0  0  1  0  0  0  0  0999 V2000
   19.5622  -14.5800  -17.3523 C   0  0  0  0  0  0  0  0  0  0  0  0
   19.3059  -14.0014  -18.7102 C   0  0  2  0  0  0  0  0  0  0  0  0
   19.7326  -14.9502  -19.7116 N   0  0  0  0  0  0  0  0  0  0  0  0
   20.0486  -12.7114  -18.8434 C   0  0  0  0  0  0  0  0  0  0  0  0
   21.3004  -12.7023  -18.9611 O   0  0  0  0  0  0  0  0  0  0  0  0
   19.1093   -9.1317  -19.2142 C   0  0  0  0  0  0  0  0  0  0  0  0
   20.1098  -10.2152  -18.9795 C   0  0  2  0  0  0  0  0  0  0  0  0
   19.3795  -11.4597  -18.8422 N   0  0  0  0  0  0  0  0  0  0  0  0
   20.9393   -9.9720  -17.7711 C   0  0  0  0  0  0  0  0  0  0  0  0
   20.5070  -10.3514  -16.6728 O   0  0  0  0  0  0  0  0  0  0  0  0
   26.5515  -11.6504  -15.2965 C   0  0  0  0  0  0  0  0  0  0  0  0
   26.6568   -9.8540  -15.1241 S   0  0  0  0  0  0  0  0  0  0  0  0
   24.9754   -9.1691  -15.2329 C   0  0  0  0  0  0  0  0  0  0  0  0
   24.3536   -9.5026  -16.5843 C   0  0  0  0  0  0  0  0  0  0  0  0
   22.9174   -9.0829  -16.6004 C   0  0  2  0  0  0  0  0  0  0  0  0
   22.1955   -9.3337  -17.7834 N   0  0  0  0  0  0  0  0  0  0  0  0
   22.7620   -7.7007  -16.0958 C   0  0  0  0  0  0  0  0  0  0  0  0
   22.5613   -7.4807  -14.7614 O   0  0  0  0  0  0  0  0  0  0  0  0
   22.8164   -6.7543  -16.8934 O   0  0  0  0  0  0  0  0  0  0  0  0
  2  3  1  0
  2  1  1  1
  4  2  1  0
  5  4  2  0
  7  6  1  1
  7  9  1  0
  7  8  1  0
  8  4  1  0
  9 10  2  0
 11 12  1  0
 12 13  1  0
 14 13  1  0
 15 14  1  6
 16 15  1  0
 16  9  1  0
 17 18  1  0
 17 15  1  0
 19 17  2  0
M  END
$$$$
