AAM.pdb
     RDKit          3D

 19 18  0  0  1  0  0  0  0  0999 V2000
   23.2236   -3.4634  -16.1831 C   0  0  0  0  0  0  0  0  0  0  0  0
   21.7855   -3.6687  -16.5494 C   0  0  2  0  0  0  0  0  0  0  0  0
   20.9606   -2.8717  -15.6722 N   0  0  0  0  0  0  0  0  0  0  0  0
   21.4495   -5.1199  -16.4288 C   0  0  0  0  0  0  0  0  0  0  0  0
   21.4710   -5.6913  -15.3090 O   0  0  0  0  0  0  0  0  0  0  0  0
   19.8443   -7.6051  -18.6373 C   0  0  0  0  0  0  0  0  0  0  0  0
   20.6333   -7.2680  -17.4151 C   0  0  2  0  0  0  0  0  0  0  0  0
   21.0971   -5.9023  -17.5593 N   0  0  0  0  0  0  0  0  0  0  0  0
   21.7869   -8.1821  -17.2123 C   0  0  0  0  0  0  0  0  0  0  0  0
   22.9296   -7.7414  -17.4048 O   0  0  0  0  0  0  0  0  0  0  0  0
   27.7834  -11.4044  -15.5761 C   0  0  0  0  0  0  0  0  0  0  0  0
   26.5211  -10.1260  -15.7780 S   0  0  0  0  0  0  0  0  0  0  0  0
   24.9033  -10.8498  -15.3695 C   0  0  0  0  0  0  0  0  0  0  0  0
   23.7960   -9.8218  -15.5732 C   0  0  0  0  0  0  0  0  0  0  0  0
   22.8053  -10.3329  -16.5713 C   0  0  2  0  0  0  0  0  0  0  0  0
   21.6746   -9.5288  -16.8131 N   0  0  0  0  0  0  0  0  0  0  0  0
   22.4762  -11.7523  -16.3144 C   0  0  0  0  0  0  0  0  0  0  0  0
   23.1801  -12.7403  -16.9450 O   0  0  0  0  0  0  0  0  0  0  0  0
   21.5617  -12.0297  -15.5259 O   0  0  0  0  0  0  0  0  0  0  0  0
  2  3  1  0
  2  1  1  1
  4  2  1  0
  5  4  2  0
  7  6  1  6
  7  9  1  0
  7  8  1  0
  8  4  1  0
  9 10  2  0
 11 12  1  0
 12 13  1  0
 14 13  1  0
 15 14  1  1
 16 15  1  0
 16  9  1  0
 17 18  1  0
 17 15  1  0
 19 17  2  0
M  END
$$$$
