AAM.pdb
     RDKit          3D

 19 18  0  0  1  0  0  0  0  0999 V2000
   17.5812  -13.4595  -16.9499 C   0  0  0  0  0  0  0  0  0  0  0  0
   17.5603  -12.8611  -18.3232 C   0  0  2  0  0  0  0  0  0  0  0  0
   18.2180  -13.7647  -19.2376 N   0  0  0  0  0  0  0  0  0  0  0  0
   18.2487  -11.5351  -18.2924 C   0  0  0  0  0  0  0  0  0  0  0  0
   19.5017  -11.4620  -18.3672 O   0  0  0  0  0  0  0  0  0  0  0  0
   17.1571   -7.9757  -18.2337 C   0  0  0  0  0  0  0  0  0  0  0  0
   18.2033   -9.0385  -18.1564 C   0  0  2  0  0  0  0  0  0  0  0  0
   17.5252  -10.3194  -18.1787 N   0  0  0  0  0  0  0  0  0  0  0  0
   19.0418   -8.9241  -16.9352 C   0  0  0  0  0  0  0  0  0  0  0  0
   18.9837   -9.8316  -16.0926 O   0  0  0  0  0  0  0  0  0  0  0  0
   25.1072  -10.4276  -13.3289 C   0  0  0  0  0  0  0  0  0  0  0  0
   23.9534  -10.5168  -14.7177 S   0  0  0  0  0  0  0  0  0  0  0  0
   22.8387   -9.0824  -14.6287 C   0  0  0  0  0  0  0  0  0  0  0  0
   21.8429   -9.1125  -15.7827 C   0  0  0  0  0  0  0  0  0  0  0  0
   20.9262   -7.9332  -15.6938 C   0  0  2  0  0  0  0  0  0  0  0  0
   19.9073   -7.8461  -16.6623 N   0  0  0  0  0  0  0  0  0  0  0  0
   21.6906   -6.6773  -15.5268 C   0  0  0  0  0  0  0  0  0  0  0  0
   22.0455   -5.9442  -16.6249 O   0  0  0  0  0  0  0  0  0  0  0  0
   22.0009   -6.3033  -14.3872 O   0  0  0  0  0  0  0  0  0  0  0  0
  2  3  1  0
  2  1  1  1
  4  2  1  0
  5  4  2  0
  7  6  1  1
  7  9  1  0
  7  8  1  0
  8  4  1  0
  9 10  2  0
 11 12  1  0
 12 13  1  0
 14 13  1  0
 15 14  1  6
 16 15  1  0
 16  9  1  0
 17 18  1  0
 17 15  1  0
 19 17  2  0
M  END
$$$$
