AAM.pdb
     RDKit          3D

 19 18  0  0  1  0  0  0  0  0999 V2000
   13.9981  -11.6084  -14.1622 C   0  0  0  0  0  0  0  0  0  0  0  0
   15.4447  -11.9586  -13.9917 C   0  0  2  0  0  0  0  0  0  0  0  0
   15.5505  -13.3575  -13.6495 N   0  0  0  0  0  0  0  0  0  0  0  0
   16.0361  -11.0991  -12.9217 C   0  0  0  0  0  0  0  0  0  0  0  0
   15.6926  -11.2440  -11.7209 O   0  0  0  0  0  0  0  0  0  0  0  0
   18.7880   -8.6061  -12.7634 C   0  0  0  0  0  0  0  0  0  0  0  0
   17.6293   -9.3289  -12.1593 C   0  0  2  0  0  0  0  0  0  0  0  0
   16.9973  -10.0966  -13.2139 N   0  0  0  0  0  0  0  0  0  0  0  0
   16.6448   -8.4065  -11.5368 C   0  0  0  0  0  0  0  0  0  0  0  0
   15.7257   -7.9625  -12.2404 O   0  0  0  0  0  0  0  0  0  0  0  0
   11.9074   -5.7705   -6.0574 C   0  0  0  0  0  0  0  0  0  0  0  0
   13.0602   -7.0766   -6.5403 S   0  0  0  0  0  0  0  0  0  0  0  0
   14.0056   -6.5006   -7.9833 C   0  0  0  0  0  0  0  0  0  0  0  0
   15.0155   -7.5591   -8.4123 C   0  0  0  0  0  0  0  0  0  0  0  0
   15.7242   -7.1124   -9.6522 C   0  0  2  0  0  0  0  0  0  0  0  0
   16.6814   -7.9948  -10.1896 N   0  0  0  0  0  0  0  0  0  0  0  0
   16.2145   -5.7234   -9.5129 C   0  0  0  0  0  0  0  0  0  0  0  0
   15.3222   -4.6933   -9.4035 O   0  0  0  0  0  0  0  0  0  0  0  0
   17.4347   -5.5097   -9.4966 O   0  0  0  0  0  0  0  0  0  0  0  0
  2  3  1  0
  2  1  1  1
  4  2  1  0
  5  4  2  0
  7  6  1  6
  7  9  1  0
  7  8  1  0
  8  4  1  0
  9 10  2  0
 11 12  1  0
 12 13  1  0
 14 13  1  0
 15 14  1  1
 16 15  1  0
 16  9  1  0
 17 18  1  0
 17 15  1  0
 19 17  2  0
M  END
$$$$
