AAM.pdb
     RDKit          3D

 19 18  0  0  1  0  0  0  0  0999 V2000
   24.2199  -12.8228  -15.7082 C   0  0  0  0  0  0  0  0  0  0  0  0
   22.9422  -12.9079  -16.4859 C   0  0  2  0  0  0  0  0  0  0  0  0
   23.2313  -13.4125  -17.8076 N   0  0  0  0  0  0  0  0  0  0  0  0
   22.3172  -11.5522  -16.5549 C   0  0  0  0  0  0  0  0  0  0  0  0
   22.8555  -10.6319  -17.2214 O   0  0  0  0  0  0  0  0  0  0  0  0
   19.1575  -10.0053  -15.3490 C   0  0  0  0  0  0  0  0  0  0  0  0
   20.5427   -9.9165  -15.8996 C   0  0  2  0  0  0  0  0  0  0  0  0
   21.1057  -11.2521  -15.8792 N   0  0  0  0  0  0  0  0  0  0  0  0
   21.4043   -8.9856  -15.1260 C   0  0  0  0  0  0  0  0  0  0  0  0
   22.3929   -9.4479  -14.5378 O   0  0  0  0  0  0  0  0  0  0  0  0
   24.8855   -4.9341  -18.8429 C   0  0  0  0  0  0  0  0  0  0  0  0
   25.0538   -5.8186  -17.2753 S   0  0  0  0  0  0  0  0  0  0  0  0
   23.4104   -5.9353  -16.5048 C   0  0  0  0  0  0  0  0  0  0  0  0
   23.4871   -6.7390  -15.2115 C   0  0  0  0  0  0  0  0  0  0  0  0
   22.1597   -6.7190  -14.5212 C   0  0  2  0  0  0  0  0  0  0  0  0
   21.1758   -7.5999  -15.0107 N   0  0  0  0  0  0  0  0  0  0  0  0
   21.6745   -5.3327  -14.3426 C   0  0  0  0  0  0  0  0  0  0  0  0
   20.5113   -4.9351  -14.9412 O   0  0  0  0  0  0  0  0  0  0  0  0
   22.3317   -4.5448  -13.6482 O   0  0  0  0  0  0  0  0  0  0  0  0
  2  3  1  0
  2  1  1  1
  4  2  1  0
  5  4  2  0
  7  6  1  1
  7  9  1  0
  7  8  1  0
  8  4  1  0
  9 10  2  0
 11 12  1  0
 12 13  1  0
 14 13  1  0
 15 14  1  6
 16 15  1  0
 16  9  1  0
 17 18  1  0
 17 15  1  0
 19 17  2  0
M  END
$$$$
