AAM.pdb
     RDKit          3D

 19 18  0  0  1  0  0  0  0  0999 V2000
   20.8530  -17.4343  -17.4080 C   0  0  0  0  0  0  0  0  0  0  0  0
   20.7769  -17.2915  -18.8973 C   0  0  2  0  0  0  0  0  0  0  0  0
   21.2966  -18.4914  -19.5099 N   0  0  0  0  0  0  0  0  0  0  0  0
   21.5631  -16.0919  -19.3172 C   0  0  0  0  0  0  0  0  0  0  0  0
   22.8196  -16.1020  -19.2729 O   0  0  0  0  0  0  0  0  0  0  0  0
   20.7106  -12.8819  -20.9941 C   0  0  0  0  0  0  0  0  0  0  0  0
   21.6897  -13.8456  -20.4088 C   0  0  2  0  0  0  0  0  0  0  0  0
   20.9313  -14.9072  -19.7773 N   0  0  0  0  0  0  0  0  0  0  0  0
   22.5965  -13.2063  -19.4206 C   0  0  0  0  0  0  0  0  0  0  0  0
   22.2317  -13.1470  -18.2373 O   0  0  0  0  0  0  0  0  0  0  0  0
   28.2882  -12.4421  -14.7563 C   0  0  0  0  0  0  0  0  0  0  0  0
   27.6705  -13.2960  -16.2251 S   0  0  0  0  0  0  0  0  0  0  0  0
   26.4931  -12.1986  -17.0722 C   0  0  0  0  0  0  0  0  0  0  0  0
   25.6715  -12.9852  -18.0874 C   0  0  0  0  0  0  0  0  0  0  0  0
   24.6843  -12.0793  -18.7536 C   0  0  2  0  0  0  0  0  0  0  0  0
   23.8549  -12.6557  -19.7352 N   0  0  0  0  0  0  0  0  0  0  0  0
   25.3282  -10.8206  -19.1899 C   0  0  0  0  0  0  0  0  0  0  0  0
   25.7131   -9.8942  -18.2610 O   0  0  0  0  0  0  0  0  0  0  0  0
   25.5122  -10.6208  -20.3986 O   0  0  0  0  0  0  0  0  0  0  0  0
  2  3  1  0
  2  1  1  1
  4  2  1  0
  5  4  2  0
  7  6  1  1
  7  9  1  0
  7  8  1  0
  8  4  1  0
  9 10  2  0
 11 12  1  0
 12 13  1  0
 14 13  1  0
 15 14  1  6
 16 15  1  0
 16  9  1  0
 17 18  1  0
 17 15  1  0
 19 17  2  0
M  END
$$$$
