AAM.pdb
     RDKit          3D

 19 18  0  0  1  0  0  0  0  0999 V2000
   21.7876  -21.4669  -12.3154 C   0  0  0  0  0  0  0  0  0  0  0  0
   22.8154  -20.3900  -12.1467 C   0  0  2  0  0  0  0  0  0  0  0  0
   23.3377  -20.0339  -13.4449 N   0  0  0  0  0  0  0  0  0  0  0  0
   23.9029  -20.8844  -11.2488 C   0  0  0  0  0  0  0  0  0  0  0  0
   23.6296  -21.5555  -10.2213 O   0  0  0  0  0  0  0  0  0  0  0  0
   27.5670  -21.2209  -11.5261 C   0  0  0  0  0  0  0  0  0  0  0  0
   26.3231  -21.1940  -10.7004 C   0  0  2  0  0  0  0  0  0  0  0  0
   25.2715  -20.6197  -11.5161 N   0  0  0  0  0  0  0  0  0  0  0  0
   26.4870  -20.4096   -9.4493 C   0  0  0  0  0  0  0  0  0  0  0  0
   26.1813  -19.2082   -9.4620 O   0  0  0  0  0  0  0  0  0  0  0  0
   27.4958  -22.1273   -3.0469 C   0  0  0  0  0  0  0  0  0  0  0  0
   28.4613  -20.6113   -3.2402 S   0  0  0  0  0  0  0  0  0  0  0  0
   27.9288  -19.7849   -4.7704 C   0  0  0  0  0  0  0  0  0  0  0  0
   27.7033  -20.8104   -5.8758 C   0  0  0  0  0  0  0  0  0  0  0  0
   27.2575  -20.1200   -7.1262 C   0  0  2  0  0  0  0  0  0  0  0  0
   26.9711  -20.9384   -8.2362 N   0  0  0  0  0  0  0  0  0  0  0  0
   28.1423  -18.9784   -7.4473 C   0  0  0  0  0  0  0  0  0  0  0  0
   27.9917  -17.7919   -6.7849 O   0  0  0  0  0  0  0  0  0  0  0  0
   29.0140  -19.1128   -8.3173 O   0  0  0  0  0  0  0  0  0  0  0  0
  2  3  1  0
  2  1  1  6
  4  2  1  0
  5  4  2  0
  7  6  1  6
  7  9  1  0
  7  8  1  0
  8  4  1  0
  9 10  2  0
 11 12  1  0
 12 13  1  0
 14 13  1  0
 15 14  1  1
 16 15  1  0
 16  9  1  0
 17 18  1  0
 17 15  1  0
 19 17  2  0
M  END
$$$$
