AAM.pdb
     RDKit          3D

 19 18  0  0  1  0  0  0  0  0999 V2000
   23.3843  -20.2592   -9.4069 C   0  0  0  0  0  0  0  0  0  0  0  0
   22.2525  -20.4733  -10.3649 C   0  0  2  0  0  0  0  0  0  0  0  0
   21.4642  -21.5962   -9.9146 N   0  0  0  0  0  0  0  0  0  0  0  0
   22.8048  -20.7200  -11.7314 C   0  0  0  0  0  0  0  0  0  0  0  0
   23.6363  -21.6421  -11.9293 O   0  0  0  0  0  0  0  0  0  0  0  0
   21.9510  -19.7314  -15.1653 C   0  0  0  0  0  0  0  0  0  0  0  0
   22.9687  -20.1745  -14.1664 C   0  0  2  0  0  0  0  0  0  0  0  0
   22.4180  -19.9331  -12.8475 N   0  0  0  0  0  0  0  0  0  0  0  0
   24.2638  -19.4625  -14.3189 C   0  0  0  0  0  0  0  0  0  0  0  0
   24.5163  -18.5256  -13.5473 O   0  0  0  0  0  0  0  0  0  0  0  0
   28.0884  -21.1927  -11.2415 C   0  0  0  0  0  0  0  0  0  0  0  0
   29.3722  -20.2900  -12.1389 S   0  0  0  0  0  0  0  0  0  0  0  0
   28.6517  -19.6546  -13.6833 C   0  0  0  0  0  0  0  0  0  0  0  0
   27.1763  -20.0278  -13.7728 C   0  0  0  0  0  0  0  0  0  0  0  0
   26.6089  -19.5492  -15.0720 C   0  0  2  0  0  0  0  0  0  0  0  0
   25.2362  -19.7783  -15.2886 N   0  0  0  0  0  0  0  0  0  0  0  0
   27.4625  -19.9605  -16.2084 C   0  0  0  0  0  0  0  0  0  0  0  0
   28.3908  -19.0927  -16.7127 O   0  0  0  0  0  0  0  0  0  0  0  0
   27.3249  -21.0931  -16.6914 O   0  0  0  0  0  0  0  0  0  0  0  0
  2  3  1  0
  2  1  1  1
  4  2  1  0
  5  4  2  0
  7  6  1  6
  7  9  1  0
  7  8  1  0
  8  4  1  0
  9 10  2  0
 11 12  1  0
 12 13  1  0
 14 13  1  0
 15 14  1  1
 16 15  1  0
 16  9  1  0
 17 18  1  0
 17 15  1  0
 19 17  2  0
M  END
$$$$
