AAM.pdb
     RDKit          3D

 19 18  0  0  1  0  0  0  0  0999 V2000
   22.1648  -18.5605  -14.5069 C   0  0  0  0  0  0  0  0  0  0  0  0
   21.4784  -18.8591  -15.8046 C   0  0  2  0  0  0  0  0  0  0  0  0
   21.7604  -20.2246  -16.1801 N   0  0  0  0  0  0  0  0  0  0  0  0
   21.9630  -17.9054  -16.8482 C   0  0  0  0  0  0  0  0  0  0  0  0
   23.1676  -17.9083  -17.2085 O   0  0  0  0  0  0  0  0  0  0  0  0
   20.3223  -15.6527  -19.2842 C   0  0  0  0  0  0  0  0  0  0  0  0
   21.5396  -16.1450  -18.5730 C   0  0  2  0  0  0  0  0  0  0  0  0
   21.0941  -16.9693  -17.4670 N   0  0  0  0  0  0  0  0  0  0  0  0
   22.3945  -15.0370  -18.0742 C   0  0  0  0  0  0  0  0  0  0  0  0
   22.5318  -14.9034  -16.8493 O   0  0  0  0  0  0  0  0  0  0  0  0
   28.6514  -12.2327  -15.7289 C   0  0  0  0  0  0  0  0  0  0  0  0
   27.5136  -13.5488  -16.2203 S   0  0  0  0  0  0  0  0  0  0  0  0
   26.1165  -12.7953  -17.1083 C   0  0  0  0  0  0  0  0  0  0  0  0
   25.1526  -13.8730  -17.5919 C   0  0  0  0  0  0  0  0  0  0  0  0
   24.0604  -13.2508  -18.4037 C   0  0  2  0  0  0  0  0  0  0  0  0
   23.0674  -14.1164  -18.9021 N   0  0  0  0  0  0  0  0  0  0  0  0
   24.6138  -12.3362  -19.4266 C   0  0  0  0  0  0  0  0  0  0  0  0
   24.6985  -10.9962  -19.1687 O   0  0  0  0  0  0  0  0  0  0  0  0
   24.9961  -12.7987  -20.5105 O   0  0  0  0  0  0  0  0  0  0  0  0
  2  3  1  0
  2  1  1  1
  4  2  1  0
  5  4  2  0
  7  6  1  1
  7  9  1  0
  7  8  1  0
  8  4  1  0
  9 10  2  0
 11 12  1  0
 12 13  1  0
 14 13  1  0
 15 14  1  6
 16 15  1  0
 16  9  1  0
 17 18  1  0
 17 15  1  0
 19 17  2  0
M  END
$$$$
