AAM.pdb
     RDKit          3D

 19 18  0  0  1  0  0  0  0  0999 V2000
   20.4507  -11.6644    5.3906 C   0  0  0  0  0  0  0  0  0  0  0  0
   20.8520  -10.9855    6.6644 C   0  0  2  0  0  0  0  0  0  0  0  0
   22.2665  -10.6989    6.6165 N   0  0  0  0  0  0  0  0  0  0  0  0
   20.5243  -11.8745    7.8200 C   0  0  0  0  0  0  0  0  0  0  0  0
   21.3192  -12.7813    8.1761 O   0  0  0  0  0  0  0  0  0  0  0  0
   17.8620  -11.9830   10.4109 C   0  0  0  0  0  0  0  0  0  0  0  0
   19.0211  -12.5857    9.6877 C   0  0  2  0  0  0  0  0  0  0  0  0
   19.3173  -11.7334    8.5533 N   0  0  0  0  0  0  0  0  0  0  0  0
   18.7474  -13.9722    9.2290 C   0  0  0  0  0  0  0  0  0  0  0  0
   18.4784  -14.1554    8.0328 O   0  0  0  0  0  0  0  0  0  0  0  0
   21.0018  -19.9137    6.1723 C   0  0  0  0  0  0  0  0  0  0  0  0
   21.4647  -18.7584    7.4835 S   0  0  0  0  0  0  0  0  0  0  0  0
   19.9558  -18.2666    8.3718 C   0  0  0  0  0  0  0  0  0  0  0  0
   20.0994  -16.8500    8.9168 C   0  0  0  0  0  0  0  0  0  0  0  0
   18.8138  -16.4152    9.5471 C   0  0  2  0  0  0  0  0  0  0  0  0
   18.7711  -15.1062   10.0651 N   0  0  0  0  0  0  0  0  0  0  0  0
   18.3105  -17.4394   10.4888 C   0  0  0  0  0  0  0  0  0  0  0  0
   17.0047  -17.8395   10.4268 O   0  0  0  0  0  0  0  0  0  0  0  0
   19.0834  -17.9249   11.3266 O   0  0  0  0  0  0  0  0  0  0  0  0
  2  3  1  0
  2  1  1  6
  4  2  1  0
  5  4  2  0
  7  6  1  6
  7  9  1  0
  7  8  1  0
  8  4  1  0
  9 10  2  0
 11 12  1  0
 12 13  1  0
 14 13  1  0
 15 14  1  1
 16 15  1  0
 16  9  1  0
 17 18  1  0
 17 15  1  0
 19 17  2  0
M  END
$$$$
