KMQ.pdb
     RDKit          3D

 27 26  0  0  1  0  0  0  0  0999 V2000
   27.5757  -21.5903  -15.9786 N   0  0  0  0  0  0  0  0  0  0  0  0
   27.0904  -20.4993  -15.1797 C   0  0  1  0  0  0  0  0  0  0  0  0
   26.4361  -19.4043  -15.9479 C   0  0  0  0  0  0  0  0  0  0  0  0
   27.2340  -18.8898  -17.0927 C   0  0  0  0  0  0  0  0  0  0  0  0
   28.4949  -18.1785  -16.7486 C   0  0  0  0  0  0  0  0  0  0  0  0
   29.1411  -17.7050  -18.0548 C   0  0  0  0  0  0  0  0  0  0  0  0
   30.3822  -17.0484  -17.6916 N   0  0  0  0  0  0  0  0  0  0  0  0
   26.1331  -21.0543  -14.1781 C   0  0  0  0  0  0  0  0  0  0  0  0
   25.3276  -21.9353  -14.5878 O   0  0  0  0  0  0  0  0  0  0  0  0
   26.4244  -19.4987   -7.8324 C   0  0  0  0  0  0  0  0  0  0  0  0
   27.2408  -21.0235   -8.3281 S   0  0  0  0  0  0  0  0  0  0  0  0
   26.7838  -21.4549  -10.0299 C   0  0  0  0  0  0  0  0  0  0  0  0
   25.5553  -20.7033  -10.4722 C   0  0  0  0  0  0  0  0  0  0  0  0
   25.1623  -21.0127  -11.8926 C   0  0  2  0  0  0  0  0  0  0  0  0
   26.1528  -20.5954  -12.8452 N   0  0  0  0  0  0  0  0  0  0  0  0
   23.8421  -20.3763  -12.2404 C   0  0  0  0  0  0  0  0  0  0  0  0
   23.7685  -19.1672  -12.5571 O   0  0  0  0  0  0  0  0  0  0  0  0
   20.7745  -21.4516  -16.7978 N   0  0  0  0  0  0  0  0  0  0  0  0
   19.8101  -20.6368  -16.1500 C   0  0  0  0  0  0  0  0  0  0  0  0
   18.8213  -20.2417  -16.8338 O   0  0  0  0  0  0  0  0  0  0  0  0
   19.9666  -20.2671  -14.7230 C   0  0  0  0  0  0  0  0  0  0  0  0
   21.2217  -20.7758  -14.1199 C   0  0  0  0  0  0  0  0  0  0  0  0
   21.4106  -20.4591  -12.6508 C   0  0  2  0  0  0  0  0  0  0  0  0
   22.6459  -21.1210  -12.2210 N   0  0  0  0  0  0  0  0  0  0  0  0
   20.3186  -21.0631  -11.8658 C   0  0  0  0  0  0  0  0  0  0  0  0
   19.1560  -20.3659  -11.6428 O   0  0  0  0  0  0  0  0  0  0  0  0
   20.4382  -22.2067  -11.3979 O   0  0  0  0  0  0  0  0  0  0  0  0
  2  3  1  0
  2  1  1  6
  4  3  1  0
  5  4  1  0
  5  6  1  0
  6  7  1  0
  8  9  2  0
  8  2  1  0
 10 11  1  0
 11 12  1  0
 12 13  1  0
 14 13  1  1
 14 15  1  0
 15  8  1  0
 16 17  2  0
 16 14  1  0
 18 19  1  0
 19 20  2  0
 21 19  1  0
 21 22  1  0
 23 22  1  6
 23 24  1  0
 24 16  1  0
 25 23  1  0
 26 25  1  0
 27 25  2  0
M  END
$$$$
