KMQ.pdb
     RDKit          3D

 27 26  0  0  1  0  0  0  0  0999 V2000
   27.9166  -22.1478  -15.6405 N   0  0  0  0  0  0  0  0  0  0  0  0
   27.9609  -21.1540  -14.6038 C   0  0  1  0  0  0  0  0  0  0  0  0
   27.9531  -19.7456  -15.0868 C   0  0  0  0  0  0  0  0  0  0  0  0
   27.0561  -19.4944  -16.2462 C   0  0  0  0  0  0  0  0  0  0  0  0
   27.1483  -18.1462  -16.8691 C   0  0  0  0  0  0  0  0  0  0  0  0
   26.1491  -18.0931  -18.0296 C   0  0  0  0  0  0  0  0  0  0  0  0
   26.2751  -16.7782  -18.6282 N   0  0  0  0  0  0  0  0  0  0  0  0
   26.7965  -21.3830  -13.6987 C   0  0  0  0  0  0  0  0  0  0  0  0
   25.8931  -22.1583  -14.1181 O   0  0  0  0  0  0  0  0  0  0  0  0
   26.2561  -19.3430   -7.3892 C   0  0  0  0  0  0  0  0  0  0  0  0
   27.5277  -20.5102   -7.8973 S   0  0  0  0  0  0  0  0  0  0  0  0
   27.1397  -21.1863   -9.5355 C   0  0  0  0  0  0  0  0  0  0  0  0
   25.9404  -20.5021  -10.1381 C   0  0  0  0  0  0  0  0  0  0  0  0
   25.6435  -20.9715  -11.5379 C   0  0  2  0  0  0  0  0  0  0  0  0
   26.7378  -20.7488  -12.4409 N   0  0  0  0  0  0  0  0  0  0  0  0
   24.4083  -20.3035  -12.0828 C   0  0  0  0  0  0  0  0  0  0  0  0
   24.4758  -19.2082  -12.6855 O   0  0  0  0  0  0  0  0  0  0  0  0
   23.0839  -19.9440  -16.4599 N   0  0  0  0  0  0  0  0  0  0  0  0
   21.7472  -20.4142  -16.3845 C   0  0  0  0  0  0  0  0  0  0  0  0
   20.9867  -20.1805  -17.3686 O   0  0  0  0  0  0  0  0  0  0  0  0
   21.2696  -21.1505  -15.1899 C   0  0  0  0  0  0  0  0  0  0  0  0
   22.3087  -21.3087  -14.1446 C   0  0  0  0  0  0  0  0  0  0  0  0
   22.0818  -20.5098  -12.8778 C   0  0  2  0  0  0  0  0  0  0  0  0
   23.1356  -20.8895  -11.9323 N   0  0  0  0  0  0  0  0  0  0  0  0
   20.8036  -20.9070  -12.2598 C   0  0  0  0  0  0  0  0  0  0  0  0
   19.6169  -20.4023  -12.7335 O   0  0  0  0  0  0  0  0  0  0  0  0
   20.7862  -21.7004  -11.3051 O   0  0  0  0  0  0  0  0  0  0  0  0
  2  3  1  0
  2  1  1  6
  4  3  1  0
  5  4  1  0
  5  6  1  0
  6  7  1  0
  8  9  2  0
  8  2  1  0
 10 11  1  0
 11 12  1  0
 12 13  1  0
 14 13  1  1
 14 15  1  0
 15  8  1  0
 16 17  2  0
 16 14  1  0
 18 19  1  0
 19 20  2  0
 21 19  1  0
 21 22  1  0
 23 22  1  6
 23 24  1  0
 24 16  1  0
 25 23  1  0
 26 25  1  0
 27 25  2  0
M  END
$$$$
