KMQ.pdb
     RDKit          3D

 27 26  0  0  1  0  0  0  0  0999 V2000
   26.4343  -15.4592  -17.4282 N   0  0  0  0  0  0  0  0  0  0  0  0
   25.7547  -15.0537  -16.2292 C   0  0  1  0  0  0  0  0  0  0  0  0
   26.1789  -15.7725  -14.9962 C   0  0  0  0  0  0  0  0  0  0  0  0
   26.1018  -17.2550  -15.0871 C   0  0  0  0  0  0  0  0  0  0  0  0
   24.8482  -17.8142  -15.6615 C   0  0  0  0  0  0  0  0  0  0  0  0
   25.0275  -19.3297  -15.8000 C   0  0  0  0  0  0  0  0  0  0  0  0
   23.7741  -19.8529  -16.3085 N   0  0  0  0  0  0  0  0  0  0  0  0
   25.9664  -13.5865  -16.0556 C   0  0  0  0  0  0  0  0  0  0  0  0
   25.4900  -13.0622  -15.0111 O   0  0  0  0  0  0  0  0  0  0  0  0
   30.1434   -7.2082  -18.0960 C   0  0  0  0  0  0  0  0  0  0  0  0
   29.8059   -8.9477  -18.4084 S   0  0  0  0  0  0  0  0  0  0  0  0
   28.3527   -9.4838  -17.4639 C   0  0  0  0  0  0  0  0  0  0  0  0
   28.0759  -10.9498  -17.6737 C   0  0  0  0  0  0  0  0  0  0  0  0
   26.8836  -11.4357  -16.8927 C   0  0  2  0  0  0  0  0  0  0  0  0
   26.6695  -12.8492  -17.0301 N   0  0  0  0  0  0  0  0  0  0  0  0
   25.6325  -10.7036  -17.3023 C   0  0  0  0  0  0  0  0  0  0  0  0
   25.1702  -10.8078  -18.4611 O   0  0  0  0  0  0  0  0  0  0  0  0
   20.4453  -11.5458  -15.1840 N   0  0  0  0  0  0  0  0  0  0  0  0
   20.1247  -10.4285  -15.9979 C   0  0  0  0  0  0  0  0  0  0  0  0
   18.8999  -10.1798  -16.1969 O   0  0  0  0  0  0  0  0  0  0  0  0
   21.1948   -9.5906  -16.5896 C   0  0  0  0  0  0  0  0  0  0  0  0
   22.5560  -10.1317  -16.3625 C   0  0  0  0  0  0  0  0  0  0  0  0
   23.6924   -9.2512  -16.8398 C   0  0  2  0  0  0  0  0  0  0  0  0
   24.9409   -9.8770  -16.3945 N   0  0  0  0  0  0  0  0  0  0  0  0
   23.6215   -7.9391  -16.1713 C   0  0  0  0  0  0  0  0  0  0  0  0
   24.5449   -7.5972  -15.2133 O   0  0  0  0  0  0  0  0  0  0  0  0
   22.7270   -7.1304  -16.4663 O   0  0  0  0  0  0  0  0  0  0  0  0
  2  3  1  0
  2  1  1  6
  4  3  1  0
  5  4  1  0
  5  6  1  0
  6  7  1  0
  8  9  2  0
  8  2  1  0
 10 11  1  0
 11 12  1  0
 12 13  1  0
 14 13  1  6
 14 15  1  0
 15  8  1  0
 16 17  2  0
 16 14  1  0
 18 19  1  0
 19 20  2  0
 21 19  1  0
 21 22  1  0
 23 22  1  1
 23 24  1  0
 24 16  1  0
 25 23  1  0
 26 25  1  0
 27 25  2  0
M  END
$$$$
