KMQ.pdb
     RDKit          3D

 27 26  0  0  1  0  0  0  0  0999 V2000
   26.6336  -16.5712  -19.4070 N   0  0  0  0  0  0  0  0  0  0  0  0
   27.8307  -15.8187  -19.6618 C   0  0  1  0  0  0  0  0  0  0  0  0
   28.3942  -15.9843  -21.0300 C   0  0  0  0  0  0  0  0  0  0  0  0
   28.7383  -17.3853  -21.3916 C   0  0  0  0  0  0  0  0  0  0  0  0
   29.3651  -17.5849  -22.7263 C   0  0  0  0  0  0  0  0  0  0  0  0
   29.6062  -19.0864  -22.9146 C   0  0  0  0  0  0  0  0  0  0  0  0
   30.2276  -19.2489  -24.2149 N   0  0  0  0  0  0  0  0  0  0  0  0
   27.5293  -14.3785  -19.4115 C   0  0  0  0  0  0  0  0  0  0  0  0
   26.3486  -13.9957  -19.6407 O   0  0  0  0  0  0  0  0  0  0  0  0
   25.2751   -8.9835  -15.2125 C   0  0  0  0  0  0  0  0  0  0  0  0
   25.6093  -10.6757  -15.7246 S   0  0  0  0  0  0  0  0  0  0  0  0
   26.8691  -10.6986  -17.0298 C   0  0  0  0  0  0  0  0  0  0  0  0
   27.1839  -12.1078  -17.4597 C   0  0  0  0  0  0  0  0  0  0  0  0
   28.2411  -12.1683  -18.5304 C   0  0  2  0  0  0  0  0  0  0  0  0
   28.5373  -13.5121  -18.9415 N   0  0  0  0  0  0  0  0  0  0  0  0
   29.5113  -11.4983  -18.0763 C   0  0  0  0  0  0  0  0  0  0  0  0
   30.2934  -12.0638  -17.2786 O   0  0  0  0  0  0  0  0  0  0  0  0
   34.1340  -11.2161  -21.9319 N   0  0  0  0  0  0  0  0  0  0  0  0
   33.5395  -10.2135  -21.1225 C   0  0  0  0  0  0  0  0  0  0  0  0
   33.9966   -9.0371  -21.2155 O   0  0  0  0  0  0  0  0  0  0  0  0
   32.4243  -10.5445  -20.2037 C   0  0  0  0  0  0  0  0  0  0  0  0
   31.9054   -9.3691  -19.4645 C   0  0  0  0  0  0  0  0  0  0  0  0
   31.1800   -9.6834  -18.1724 C   0  0  2  0  0  0  0  0  0  0  0  0
   29.8617  -10.2125  -18.5342 N   0  0  0  0  0  0  0  0  0  0  0  0
   30.9383   -8.4386  -17.4204 C   0  0  0  0  0  0  0  0  0  0  0  0
   31.9530   -7.8526  -16.7032 O   0  0  0  0  0  0  0  0  0  0  0  0
   29.8161   -7.9078  -17.4267 O   0  0  0  0  0  0  0  0  0  0  0  0
  2  3  1  0
  2  1  1  6
  4  3  1  0
  5  4  1  0
  5  6  1  0
  6  7  1  0
  8  9  2  0
  8  2  1  0
 10 11  1  0
 11 12  1  0
 12 13  1  0
 14 13  1  1
 14 15  1  0
 15  8  1  0
 16 17  2  0
 16 14  1  0
 18 19  1  0
 19 20  2  0
 21 19  1  0
 21 22  1  0
 23 22  1  6
 23 24  1  0
 24 16  1  0
 25 23  1  0
 26 25  1  0
 27 25  2  0
M  END
$$$$
