KMQ.pdb
     RDKit          3D

 27 26  0  0  1  0  0  0  0  0999 V2000
   28.2323  -21.1393  -16.2834 N   0  0  0  0  0  0  0  0  0  0  0  0
   27.6728  -20.1564  -15.3974 C   0  0  1  0  0  0  0  0  0  0  0  0
   26.8467  -19.1119  -16.0636 C   0  0  0  0  0  0  0  0  0  0  0  0
   27.5606  -18.3339  -17.1110 C   0  0  0  0  0  0  0  0  0  0  0  0
   28.9047  -17.8132  -16.7419 C   0  0  0  0  0  0  0  0  0  0  0  0
   29.4640  -17.0528  -17.9490 C   0  0  0  0  0  0  0  0  0  0  0  0
   30.8526  -16.7598  -17.6501 N   0  0  0  0  0  0  0  0  0  0  0  0
   26.8527  -20.8728  -14.3767 C   0  0  0  0  0  0  0  0  0  0  0  0
   26.2814  -21.9349  -14.7486 O   0  0  0  0  0  0  0  0  0  0  0  0
   27.4660  -20.2743   -7.8378 C   0  0  0  0  0  0  0  0  0  0  0  0
   25.7078  -20.6269   -7.9855 S   0  0  0  0  0  0  0  0  0  0  0  0
   25.3242  -21.2125   -9.6591 C   0  0  0  0  0  0  0  0  0  0  0  0
   26.1807  -20.5222  -10.6884 C   0  0  0  0  0  0  0  0  0  0  0  0
   25.8798  -20.9718  -12.0938 C   0  0  2  0  0  0  0  0  0  0  0  0
   26.7412  -20.3616  -13.0675 N   0  0  0  0  0  0  0  0  0  0  0  0
   24.4452  -20.6910  -12.4571 C   0  0  0  0  0  0  0  0  0  0  0  0
   24.0630  -19.5331  -12.7413 O   0  0  0  0  0  0  0  0  0  0  0  0
   20.9802  -23.7924  -15.9986 N   0  0  0  0  0  0  0  0  0  0  0  0
   19.9044  -23.2195  -15.2720 C   0  0  0  0  0  0  0  0  0  0  0  0
   18.7572  -23.2437  -15.8058 O   0  0  0  0  0  0  0  0  0  0  0  0
   20.1285  -22.6159  -13.9368 C   0  0  0  0  0  0  0  0  0  0  0  0
   21.5362  -22.7070  -13.4812 C   0  0  0  0  0  0  0  0  0  0  0  0
   22.1471  -21.4080  -12.9974 C   0  0  2  0  0  0  0  0  0  0  0  0
   23.4855  -21.7224  -12.4891 N   0  0  0  0  0  0  0  0  0  0  0  0
   21.3765  -20.8905  -11.8521 C   0  0  0  0  0  0  0  0  0  0  0  0
   20.2367  -20.1519  -12.0590 O   0  0  0  0  0  0  0  0  0  0  0  0
   21.7494  -21.1159  -10.6896 O   0  0  0  0  0  0  0  0  0  0  0  0
  2  3  1  0
  2  1  1  6
  4  3  1  0
  5  4  1  0
  5  6  1  0
  6  7  1  0
  8  9  2  0
  8  2  1  0
 10 11  1  0
 11 12  1  0
 12 13  1  0
 14 13  1  1
 14 15  1  0
 15  8  1  0
 16 17  2  0
 16 14  1  0
 18 19  1  0
 19 20  2  0
 21 19  1  0
 21 22  1  0
 23 22  1  1
 23 24  1  0
 24 16  1  0
 25 23  1  0
 26 25  1  0
 27 25  2  0
M  END
$$$$
