KMQ.pdb
     RDKit          3D

 27 26  0  0  1  0  0  0  0  0999 V2000
   26.3204  -20.5563  -13.6553 N   0  0  0  0  0  0  0  0  0  0  0  0
   26.6705  -19.3186  -14.2954 C   0  0  1  0  0  0  0  0  0  0  0  0
   28.0709  -19.2479  -14.7965 C   0  0  0  0  0  0  0  0  0  0  0  0
   29.1085  -19.5632  -13.7787 C   0  0  0  0  0  0  0  0  0  0  0  0
   28.6901  -20.4630  -12.6700 C   0  0  0  0  0  0  0  0  0  0  0  0
   29.9076  -20.7011  -11.7704 C   0  0  0  0  0  0  0  0  0  0  0  0
   29.4759  -21.5946  -10.7128 N   0  0  0  0  0  0  0  0  0  0  0  0
   25.7193  -19.1010  -15.4248 C   0  0  0  0  0  0  0  0  0  0  0  0
   26.1759  -18.5254  -16.4509 O   0  0  0  0  0  0  0  0  0  0  0  0
   21.2106  -23.2351  -16.9527 C   0  0  0  0  0  0  0  0  0  0  0  0
   20.9952  -22.0817  -18.3167 S   0  0  0  0  0  0  0  0  0  0  0  0
   21.8673  -20.5293  -17.9687 C   0  0  0  0  0  0  0  0  0  0  0  0
   22.7291  -20.6514  -16.7391 C   0  0  0  0  0  0  0  0  0  0  0  0
   23.4544  -19.3743  -16.4063 C   0  0  2  0  0  0  0  0  0  0  0  0
   24.3803  -19.5297  -15.3195 N   0  0  0  0  0  0  0  0  0  0  0  0
   22.4842  -18.2705  -16.0757 C   0  0  0  0  0  0  0  0  0  0  0  0
   22.8203  -17.3076  -15.3495 O   0  0  0  0  0  0  0  0  0  0  0  0
   21.9128  -13.9754  -18.8903 N   0  0  0  0  0  0  0  0  0  0  0  0
   20.7448  -13.6969  -18.1343 C   0  0  0  0  0  0  0  0  0  0  0  0
   20.2462  -12.5377  -18.2305 O   0  0  0  0  0  0  0  0  0  0  0  0
   20.1399  -14.7343  -17.2651 C   0  0  0  0  0  0  0  0  0  0  0  0
   20.9424  -15.9784  -17.1919 C   0  0  0  0  0  0  0  0  0  0  0  0
   20.3347  -17.0951  -16.3684 C   0  0  2  0  0  0  0  0  0  0  0  0
   21.1658  -18.2851  -16.5731 N   0  0  0  0  0  0  0  0  0  0  0  0
   18.9956  -17.4266  -16.8885 C   0  0  0  0  0  0  0  0  0  0  0  0
   17.8953  -16.7138  -16.4779 O   0  0  0  0  0  0  0  0  0  0  0  0
   18.8482  -18.3531  -17.7015 O   0  0  0  0  0  0  0  0  0  0  0  0
  2  3  1  0
  2  1  1  6
  4  3  1  0
  5  4  1  0
  5  6  1  0
  6  7  1  0
  8  9  2  0
  8  2  1  0
 10 11  1  0
 11 12  1  0
 12 13  1  0
 14 13  1  1
 14 15  1  0
 15  8  1  0
 16 17  2  0
 16 14  1  0
 18 19  1  0
 19 20  2  0
 21 19  1  0
 21 22  1  0
 23 22  1  6
 23 24  1  0
 24 16  1  0
 25 23  1  0
 26 25  1  0
 27 25  2  0
M  END
$$$$
