KMQ.pdb
     RDKit          3D

 27 26  0  0  1  0  0  0  0  0999 V2000
   30.6082  -29.8504  -18.6801 N   0  0  0  0  0  0  0  0  0  0  0  0
   29.7877  -29.5121  -17.5503 C   0  0  1  0  0  0  0  0  0  0  0  0
   29.0260  -28.2403  -17.6889 C   0  0  0  0  0  0  0  0  0  0  0  0
   29.8718  -27.0255  -17.8332 C   0  0  0  0  0  0  0  0  0  0  0  0
   29.1482  -25.7305  -17.9497 C   0  0  0  0  0  0  0  0  0  0  0  0
   28.0854  -25.6829  -16.8469 C   0  0  0  0  0  0  0  0  0  0  0  0
   27.4704  -24.3713  -16.9172 N   0  0  0  0  0  0  0  0  0  0  0  0
   28.8425  -30.6429  -17.3148 C   0  0  0  0  0  0  0  0  0  0  0  0
   28.3144  -31.1654  -18.3350 O   0  0  0  0  0  0  0  0  0  0  0  0
   25.7647  -35.9195  -12.3246 C   0  0  0  0  0  0  0  0  0  0  0  0
   26.8195  -34.4705  -12.4831 S   0  0  0  0  0  0  0  0  0  0  0  0
   26.6147  -33.7224  -14.1231 C   0  0  0  0  0  0  0  0  0  0  0  0
   27.6361  -32.6407  -14.3608 C   0  0  0  0  0  0  0  0  0  0  0  0
   27.5165  -32.0156  -15.7256 C   0  0  2  0  0  0  0  0  0  0  0  0
   28.5731  -31.0832  -16.0028 N   0  0  0  0  0  0  0  0  0  0  0  0
   26.1892  -31.3225  -15.8897 C   0  0  0  0  0  0  0  0  0  0  0  0
   26.1238  -30.0961  -16.1333 O   0  0  0  0  0  0  0  0  0  0  0  0
   22.9678  -32.8451  -19.8295 N   0  0  0  0  0  0  0  0  0  0  0  0
   22.3114  -31.6103  -19.5888 C   0  0  0  0  0  0  0  0  0  0  0  0
   21.3097  -31.3283  -20.3089 O   0  0  0  0  0  0  0  0  0  0  0  0
   22.7919  -30.6910  -18.5299 C   0  0  0  0  0  0  0  0  0  0  0  0
   23.9654  -31.2123  -17.7892 C   0  0  0  0  0  0  0  0  0  0  0  0
   23.7582  -31.4109  -16.3019 C   0  0  2  0  0  0  0  0  0  0  0  0
   24.9769  -32.0316  -15.7745 N   0  0  0  0  0  0  0  0  0  0  0  0
   22.6666  -32.3753  -16.0747 C   0  0  0  0  0  0  0  0  0  0  0  0
   22.9208  -33.7254  -16.0791 O   0  0  0  0  0  0  0  0  0  0  0  0
   21.5071  -31.9781  -15.8779 O   0  0  0  0  0  0  0  0  0  0  0  0
  2  3  1  0
  2  1  1  6
  4  3  1  0
  5  4  1  0
  5  6  1  0
  6  7  1  0
  8  9  2  0
  8  2  1  0
 10 11  1  0
 11 12  1  0
 12 13  1  0
 14 13  1  1
 14 15  1  0
 15  8  1  0
 16 17  2  0
 16 14  1  0
 18 19  1  0
 19 20  2  0
 21 19  1  0
 21 22  1  0
 23 22  1  6
 23 24  1  0
 24 16  1  0
 25 23  1  0
 26 25  1  0
 27 25  2  0
M  END
$$$$
