KMQ.pdb
     RDKit          3D

 27 26  0  0  1  0  0  0  0  0999 V2000
   28.5797  -19.9769  -16.0827 N   0  0  0  0  0  0  0  0  0  0  0  0
   28.2409  -19.2711  -14.8781 C   0  0  1  0  0  0  0  0  0  0  0  0
   27.6571  -17.9177  -15.0893 C   0  0  0  0  0  0  0  0  0  0  0  0
   27.7717  -17.4051  -16.4808 C   0  0  0  0  0  0  0  0  0  0  0  0
   26.6789  -17.7888  -17.4150 C   0  0  0  0  0  0  0  0  0  0  0  0
   26.9962  -17.1834  -18.7864 C   0  0  0  0  0  0  0  0  0  0  0  0
   25.9073  -17.5565  -19.6687 N   0  0  0  0  0  0  0  0  0  0  0  0
   27.2856  -20.1170  -14.1039 C   0  0  0  0  0  0  0  0  0  0  0  0
   26.8062  -21.1228  -14.6967 O   0  0  0  0  0  0  0  0  0  0  0  0
   27.0945  -20.0896   -7.5400 C   0  0  0  0  0  0  0  0  0  0  0  0
   25.5206  -20.8807   -7.9063 S   0  0  0  0  0  0  0  0  0  0  0  0
   25.4305  -21.3126   -9.6661 C   0  0  0  0  0  0  0  0  0  0  0  0
   26.2182  -20.3420  -10.5070 C   0  0  0  0  0  0  0  0  0  0  0  0
   26.0932  -20.6143  -11.9829 C   0  0  2  0  0  0  0  0  0  0  0  0
   26.9545  -19.7819  -12.7750 N   0  0  0  0  0  0  0  0  0  0  0  0
   24.6712  -20.4390  -12.4477 C   0  0  0  0  0  0  0  0  0  0  0  0
   24.1712  -19.3000  -12.5900 O   0  0  0  0  0  0  0  0  0  0  0  0
   20.8797  -25.0696  -14.5718 N   0  0  0  0  0  0  0  0  0  0  0  0
   20.0053  -23.9546  -14.4972 C   0  0  0  0  0  0  0  0  0  0  0  0
   18.7944  -24.1362  -14.8172 O   0  0  0  0  0  0  0  0  0  0  0  0
   20.5040  -22.6289  -14.0600 C   0  0  0  0  0  0  0  0  0  0  0  0
   21.9377  -22.6370  -13.6833 C   0  0  0  0  0  0  0  0  0  0  0  0
   22.4957  -21.3056  -13.2246 C   0  0  2  0  0  0  0  0  0  0  0  0
   23.8563  -21.5515  -12.7379 N   0  0  0  0  0  0  0  0  0  0  0  0
   21.7225  -20.8116  -12.0706 C   0  0  0  0  0  0  0  0  0  0  0  0
   22.0035  -21.2607  -10.8030 O   0  0  0  0  0  0  0  0  0  0  0  0
   20.8097  -19.9859  -12.2321 O   0  0  0  0  0  0  0  0  0  0  0  0
  2  3  1  0
  2  1  1  6
  4  3  1  0
  5  4  1  0
  5  6  1  0
  6  7  1  0
  8  9  2  0
  8  2  1  0
 10 11  1  0
 11 12  1  0
 12 13  1  0
 14 13  1  1
 14 15  1  0
 15  8  1  0
 16 17  2  0
 16 14  1  0
 18 19  1  0
 19 20  2  0
 21 19  1  0
 21 22  1  0
 23 22  1  1
 23 24  1  0
 24 16  1  0
 25 23  1  0
 26 25  1  0
 27 25  2  0
M  END
$$$$
