KMQ.pdb
     RDKit          3D

 27 26  0  0  1  0  0  0  0  0999 V2000
   20.8676  -15.5525  -17.5903 N   0  0  0  0  0  0  0  0  0  0  0  0
   20.7803  -15.4963  -16.1574 C   0  0  1  0  0  0  0  0  0  0  0  0
   21.0209  -16.7923  -15.4649 C   0  0  0  0  0  0  0  0  0  0  0  0
   20.2382  -17.9362  -16.0041 C   0  0  0  0  0  0  0  0  0  0  0  0
   20.7090  -18.5041  -17.2965 C   0  0  0  0  0  0  0  0  0  0  0  0
   19.7912  -19.6763  -17.6591 C   0  0  0  0  0  0  0  0  0  0  0  0
   20.1445  -20.0809  -19.0062 N   0  0  0  0  0  0  0  0  0  0  0  0
   21.7610  -14.4786  -15.6776 C   0  0  0  0  0  0  0  0  0  0  0  0
   21.8634  -14.3314  -14.4283 O   0  0  0  0  0  0  0  0  0  0  0  0
   27.4355  -12.7460  -14.3720 C   0  0  0  0  0  0  0  0  0  0  0  0
   27.2535  -13.3662  -16.0512 S   0  0  0  0  0  0  0  0  0  0  0  0
   25.5295  -13.8377  -16.3620 C   0  0  0  0  0  0  0  0  0  0  0  0
   24.7107  -12.6526  -16.8033 C   0  0  0  0  0  0  0  0  0  0  0  0
   23.3386  -12.6284  -16.1831 C   0  0  2  0  0  0  0  0  0  0  0  0
   22.5218  -13.7332  -16.6012 N   0  0  0  0  0  0  0  0  0  0  0  0
   22.6252  -11.3392  -16.4960 C   0  0  0  0  0  0  0  0  0  0  0  0
   22.2761  -11.0585  -17.6651 O   0  0  0  0  0  0  0  0  0  0  0  0
   17.3776  -10.1693  -15.6098 N   0  0  0  0  0  0  0  0  0  0  0  0
   17.7422   -8.8136  -15.8162 C   0  0  0  0  0  0  0  0  0  0  0  0
   16.8117   -7.9577  -15.8719 O   0  0  0  0  0  0  0  0  0  0  0  0
   19.1656   -8.4257  -15.9614 C   0  0  0  0  0  0  0  0  0  0  0  0
   20.1030   -9.5608  -15.7876 C   0  0  0  0  0  0  0  0  0  0  0  0
   21.5737   -9.2032  -15.8487 C   0  0  2  0  0  0  0  0  0  0  0  0
   22.3270  -10.4062  -15.4829 N   0  0  0  0  0  0  0  0  0  0  0  0
   21.8834   -8.1891  -14.8244 C   0  0  0  0  0  0  0  0  0  0  0  0
   22.5239   -8.5483  -13.6633 O   0  0  0  0  0  0  0  0  0  0  0  0
   21.5684   -7.0012  -14.9998 O   0  0  0  0  0  0  0  0  0  0  0  0
  2  3  1  0
  2  1  1  6
  4  3  1  0
  5  4  1  0
  5  6  1  0
  6  7  1  0
  8  9  2  0
  8  2  1  0
 10 11  1  0
 11 12  1  0
 12 13  1  0
 14 13  1  6
 14 15  1  0
 15  8  1  0
 16 17  2  0
 16 14  1  0
 18 19  1  0
 19 20  2  0
 21 19  1  0
 21 22  1  0
 23 22  1  1
 23 24  1  0
 24 16  1  0
 25 23  1  0
 26 25  1  0
 27 25  2  0
M  END
$$$$
