KMQ.pdb
     RDKit          3D

 27 26  0  0  1  0  0  0  0  0999 V2000
   27.9614  -21.1881  -15.4078 N   0  0  0  0  0  0  0  0  0  0  0  0
   27.6479  -20.1930  -14.4201 C   0  0  1  0  0  0  0  0  0  0  0  0
   27.1854  -18.8892  -14.9707 C   0  0  0  0  0  0  0  0  0  0  0  0
   27.5242  -18.6672  -16.4018 C   0  0  0  0  0  0  0  0  0  0  0  0
   28.7843  -17.9233  -16.6715 C   0  0  0  0  0  0  0  0  0  0  0  0
   28.9410  -17.7955  -18.1905 C   0  0  0  0  0  0  0  0  0  0  0  0
   29.3237  -16.4220  -18.4559 N   0  0  0  0  0  0  0  0  0  0  0  0
   26.6031  -20.7574  -13.5158 C   0  0  0  0  0  0  0  0  0  0  0  0
   25.9941  -21.7857  -13.9215 O   0  0  0  0  0  0  0  0  0  0  0  0
   28.3621  -20.6325   -6.7660 C   0  0  0  0  0  0  0  0  0  0  0  0
   26.9168  -19.9533   -7.5949 S   0  0  0  0  0  0  0  0  0  0  0  0
   26.6471  -20.7981   -9.1776 C   0  0  0  0  0  0  0  0  0  0  0  0
   25.5329  -20.1511   -9.9585 C   0  0  0  0  0  0  0  0  0  0  0  0
   25.3918  -20.7138  -11.3482 C   0  0  2  0  0  0  0  0  0  0  0  0
   26.3329  -20.1478  -12.2736 N   0  0  0  0  0  0  0  0  0  0  0  0
   23.9956  -20.5107  -11.8758 C   0  0  0  0  0  0  0  0  0  0  0  0
   23.5504  -19.3637  -12.1074 O   0  0  0  0  0  0  0  0  0  0  0  0
   20.8999  -24.8852  -15.1041 N   0  0  0  0  0  0  0  0  0  0  0  0
   19.9074  -23.8802  -14.9677 C   0  0  0  0  0  0  0  0  0  0  0  0
   18.7853  -24.0856  -15.5155 O   0  0  0  0  0  0  0  0  0  0  0  0
   20.1871  -22.6376  -14.2093 C   0  0  0  0  0  0  0  0  0  0  0  0
   21.5192  -22.6350  -13.5589 C   0  0  0  0  0  0  0  0  0  0  0  0
   21.8853  -21.3561  -12.8346 C   0  0  2  0  0  0  0  0  0  0  0  0
   23.1442  -21.6053  -12.1262 N   0  0  0  0  0  0  0  0  0  0  0  0
   20.8760  -21.0616  -11.8011 C   0  0  0  0  0  0  0  0  0  0  0  0
   21.1255  -21.3572  -10.4829 O   0  0  0  0  0  0  0  0  0  0  0  0
   19.7908  -20.5445  -12.1110 O   0  0  0  0  0  0  0  0  0  0  0  0
  2  3  1  0
  2  1  1  6
  4  3  1  0
  5  4  1  0
  5  6  1  0
  6  7  1  0
  8  9  2  0
  8  2  1  0
 10 11  1  0
 11 12  1  0
 12 13  1  0
 14 13  1  1
 14 15  1  0
 15  8  1  0
 16 17  2  0
 16 14  1  0
 18 19  1  0
 19 20  2  0
 21 19  1  0
 21 22  1  0
 23 22  1  1
 23 24  1  0
 24 16  1  0
 25 23  1  0
 26 25  1  0
 27 25  2  0
M  END
$$$$
