FAW.pdb
     RDKit          3D

 31 33  0  0  1  0  0  0  0  0999 V2000
    7.9383  -16.9395   17.4780 N   0  0  0  0  0  0  0  0  0  0  0  0
    8.2686  -16.0214   18.5581 C   0  0  1  0  0  0  0  0  0  0  0  0
    7.2188  -14.8875   18.5685 C   0  0  0  0  0  0  0  0  0  0  0  0
    7.5261  -14.0820   19.7805 C   0  0  0  0  0  0  0  0  0  0  0  0
    7.0369  -14.3245   21.0298 C   0  0  0  0  0  0  0  0  0  0  0  0
    7.3608  -13.5251   22.1165 C   0  0  0  0  0  0  0  0  0  0  0  0
    8.2151  -12.4362   21.9288 C   0  0  0  0  0  0  0  0  0  0  0  0
    8.7044  -12.1962   20.6722 C   0  0  0  0  0  0  0  0  0  0  0  0
    8.3779  -12.9980   19.5895 C   0  0  0  0  0  0  0  0  0  0  0  0
    8.1131  -16.7282   19.8406 C   0  0  0  0  0  0  0  0  0  0  0  0
    7.0898  -17.4209   20.0321 O   0  0  0  0  0  0  0  0  0  0  0  0
   10.0714  -18.7082   21.6330 C   0  0  0  0  0  0  0  0  0  0  0  0
    9.2161  -17.4863   21.9446 C   0  0  2  0  0  0  0  0  0  0  0  0
    9.1346  -16.5994   20.8177 N   0  0  0  0  0  0  0  0  0  0  0  0
    9.8739  -16.8233   23.0973 C   0  0  0  0  0  0  0  0  0  0  0  0
   10.8998  -16.1187   22.9066 O   0  0  0  0  0  0  0  0  0  0  0  0
    9.4079  -16.9375   24.4233 N   0  0  0  0  0  0  0  0  0  0  0  0
   10.1356  -16.2857   25.5190 C   0  0  1  0  0  0  0  0  0  0  0  0
    9.1999  -16.0800   26.6565 C   0  0  0  0  0  0  0  0  0  0  0  0
    7.8514  -15.5969   26.3118 C   0  0  0  0  0  0  0  0  0  0  0  0
    6.7388  -16.3586   25.9571 C   0  0  0  0  0  0  0  0  0  0  0  0
    5.7100  -15.5449   25.6842 N   0  0  0  0  0  0  0  0  0  0  0  0
    6.0824  -14.2545   25.8413 C   0  0  0  0  0  0  0  0  0  0  0  0
    5.3997  -13.0479   25.6999 C   0  0  0  0  0  0  0  0  0  0  0  0
    6.0201  -11.8415   25.9435 C   0  0  0  0  0  0  0  0  0  0  0  0
    7.3421  -11.8441   26.3343 C   0  0  0  0  0  0  0  0  0  0  0  0
    7.9985  -13.0461   26.4673 C   0  0  0  0  0  0  0  0  0  0  0  0
    7.4024  -14.2796   26.2287 C   0  0  0  0  0  0  0  0  0  0  0  0
   11.3628  -17.0241   25.7672 C   0  0  0  0  0  0  0  0  0  0  0  0
   12.3727  -16.4327   26.5561 O   0  0  0  0  0  0  0  0  0  0  0  0
   11.6302  -18.1797   25.3359 O   0  0  0  0  0  0  0  0  0  0  0  0
  2  1  1  6
  2  3  1  0
  3  4  1  0
  4  5  2  0
  5  6  1  0
  7  6  2  0
  8  7  1  0
  9  4  1  0
  9  8  2  0
 10  2  1  0
 11 10  2  0
 13 12  1  6
 13 14  1  0
 14 10  1  0
 15 13  1  0
 15 17  1  0
 16 15  2  0
 18 17  1  0
 18 29  1  0
 19 20  1  0
 18 19  1  1
 20 21  2  0
 22 21  1  0
 23 22  1  0
 24 23  2  0
 25 24  1  0
 26 25  2  0
 26 27  1  0
 27 28  2  0
 28 23  1  0
 28 20  1  0
 29 30  1  0
 31 29  2  0
M  END
$$$$
