FAW.pdb
     RDKit          3D

 31 33  0  0  1  0  0  0  0  0999 V2000
    6.1443  -18.8464   20.6410 N   0  0  0  0  0  0  0  0  0  0  0  0
    6.8669  -17.5875   20.7499 C   0  0  1  0  0  0  0  0  0  0  0  0
    6.0772  -16.6558   21.6966 C   0  0  0  0  0  0  0  0  0  0  0  0
    6.6623  -15.3039   21.4915 C   0  0  0  0  0  0  0  0  0  0  0  0
    7.3042  -14.5724   22.4466 C   0  0  0  0  0  0  0  0  0  0  0  0
    7.8204  -13.3112   22.1865 C   0  0  0  0  0  0  0  0  0  0  0  0
    7.6802  -12.7700   20.9065 C   0  0  0  0  0  0  0  0  0  0  0  0
    7.0349  -13.5082   19.9500 C   0  0  0  0  0  0  0  0  0  0  0  0
    6.5209  -14.7681   20.2148 C   0  0  0  0  0  0  0  0  0  0  0  0
    8.1562  -17.8410   21.4147 C   0  0  0  0  0  0  0  0  0  0  0  0
    8.2115  -18.6943   22.3273 O   0  0  0  0  0  0  0  0  0  0  0  0
   11.6659  -16.8282   20.4522 C   0  0  0  0  0  0  0  0  0  0  0  0
   10.6287  -17.5315   21.3190 C   0  0  2  0  0  0  0  0  0  0  0  0
    9.2956  -17.1065   20.9942 N   0  0  0  0  0  0  0  0  0  0  0  0
   10.9738  -17.1789   22.7180 C   0  0  0  0  0  0  0  0  0  0  0  0
   12.1081  -17.4808   23.1734 O   0  0  0  0  0  0  0  0  0  0  0  0
   10.0872  -16.5106   23.5876 N   0  0  0  0  0  0  0  0  0  0  0  0
   10.5093  -16.1705   24.9518 C   0  0  1  0  0  0  0  0  0  0  0  0
   10.0775  -14.7793   25.2514 C   0  0  0  0  0  0  0  0  0  0  0  0
    8.6266  -14.5622   25.3864 C   0  0  0  0  0  0  0  0  0  0  0  0
    7.5988  -15.4417   25.0488 C   0  0  0  0  0  0  0  0  0  0  0  0
    6.4165  -14.8597   25.2904 N   0  0  0  0  0  0  0  0  0  0  0  0
    6.6024  -13.6138   25.7819 C   0  0  0  0  0  0  0  0  0  0  0  0
    5.7204  -12.6192   26.1996 C   0  0  0  0  0  0  0  0  0  0  0  0
    6.1788  -11.4151   26.6892 C   0  0  0  0  0  0  0  0  0  0  0  0
    7.5394  -11.2050   26.7613 C   0  0  0  0  0  0  0  0  0  0  0  0
    8.3935  -12.1994   26.3431 C   0  0  0  0  0  0  0  0  0  0  0  0
    7.9638  -13.4241   25.8440 C   0  0  0  0  0  0  0  0  0  0  0  0
   10.0788  -17.2291   25.8500 C   0  0  0  0  0  0  0  0  0  0  0  0
    9.3295  -18.3072   25.3320 O   0  0  0  0  0  0  0  0  0  0  0  0
   10.3126  -17.2878   27.0890 O   0  0  0  0  0  0  0  0  0  0  0  0
  2  1  1  1
  2  3  1  0
  3  4  1  0
  4  5  2  0
  5  6  1  0
  7  6  2  0
  8  7  1  0
  9  4  1  0
  9  8  2  0
 10  2  1  0
 11 10  2  0
 13 12  1  6
 13 14  1  0
 14 10  1  0
 15 13  1  0
 15 17  1  0
 16 15  2  0
 18 17  1  0
 18 29  1  0
 19 20  1  0
 18 19  1  1
 20 21  2  0
 22 21  1  0
 23 22  1  0
 24 23  2  0
 25 24  1  0
 26 25  2  0
 26 27  1  0
 27 28  2  0
 28 23  1  0
 28 20  1  0
 29 30  1  0
 31 29  2  0
M  END
$$$$
