FAW.pdb
     RDKit          3D

 31 33  0  0  1  0  0  0  0  0999 V2000
    6.1833  -17.8595   19.7536 N   0  0  0  0  0  0  0  0  0  0  0  0
    6.9878  -16.7877   20.3219 C   0  0  1  0  0  0  0  0  0  0  0  0
    6.0344  -15.6801   20.8240 C   0  0  0  0  0  0  0  0  0  0  0  0
    6.8376  -14.4288   20.7905 C   0  0  0  0  0  0  0  0  0  0  0  0
    7.2276  -13.7757   19.6589 C   0  0  0  0  0  0  0  0  0  0  0  0
    7.9844  -12.6137   19.7019 C   0  0  0  0  0  0  0  0  0  0  0  0
    8.3606  -12.0930   20.9422 C   0  0  0  0  0  0  0  0  0  0  0  0
    7.9666  -12.7520   22.0763 C   0  0  0  0  0  0  0  0  0  0  0  0
    7.2104  -13.9129   22.0282 C   0  0  0  0  0  0  0  0  0  0  0  0
    7.6774  -17.3005   21.5177 C   0  0  0  0  0  0  0  0  0  0  0  0
    7.0007  -17.8115   22.4368 O   0  0  0  0  0  0  0  0  0  0  0  0
   11.2395  -18.2437   22.1161 C   0  0  0  0  0  0  0  0  0  0  0  0
    9.8479  -17.8649   22.6079 C   0  0  2  0  0  0  0  0  0  0  0  0
    9.0915  -17.1978   21.5852 N   0  0  0  0  0  0  0  0  0  0  0  0
   10.0665  -16.9747   23.7744 C   0  0  0  0  0  0  0  0  0  0  0  0
   10.3873  -15.7718   23.5868 O   0  0  0  0  0  0  0  0  0  0  0  0
    9.9331  -17.4054   25.1106 N   0  0  0  0  0  0  0  0  0  0  0  0
   10.3560  -16.5320   26.2121 C   0  0  1  0  0  0  0  0  0  0  0  0
    9.2327  -16.4059   27.1786 C   0  0  0  0  0  0  0  0  0  0  0  0
    8.0188  -15.7344   26.6826 C   0  0  0  0  0  0  0  0  0  0  0  0
    6.8897  -16.3248   26.1167 C   0  0  0  0  0  0  0  0  0  0  0  0
    6.0181  -15.3712   25.7621 N   0  0  0  0  0  0  0  0  0  0  0  0
    6.5134  -14.1506   26.0675 C   0  0  0  0  0  0  0  0  0  0  0  0
    6.0084  -12.8600   25.9216 C   0  0  0  0  0  0  0  0  0  0  0  0
    6.7240  -11.7594   26.3414 C   0  0  0  0  0  0  0  0  0  0  0  0
    7.9622  -11.9546   26.9152 C   0  0  0  0  0  0  0  0  0  0  0  0
    8.4433  -13.2367   27.0494 C   0  0  0  0  0  0  0  0  0  0  0  0
    7.7475  -14.3675   26.6360 C   0  0  0  0  0  0  0  0  0  0  0  0
   11.6388  -16.9996   26.7109 C   0  0  0  0  0  0  0  0  0  0  0  0
   12.3166  -16.2361   27.6855 O   0  0  0  0  0  0  0  0  0  0  0  0
   12.2318  -18.0541   26.3512 O   0  0  0  0  0  0  0  0  0  0  0  0
  2  1  1  1
  2  3  1  0
  3  4  1  0
  4  5  2  0
  5  6  1  0
  7  6  2  0
  8  7  1  0
  9  4  1  0
  9  8  2  0
 10  2  1  0
 11 10  2  0
 13 12  1  6
 13 14  1  0
 14 10  1  0
 15 13  1  0
 15 17  1  0
 16 15  2  0
 18 17  1  0
 18 29  1  0
 19 20  1  0
 18 19  1  1
 20 21  2  0
 22 21  1  0
 23 22  1  0
 24 23  2  0
 25 24  1  0
 26 25  2  0
 26 27  1  0
 27 28  2  0
 28 23  1  0
 28 20  1  0
 29 30  1  0
 31 29  2  0
M  END
$$$$
