FAW.pdb
     RDKit          3D

 31 33  0  0  1  0  0  0  0  0999 V2000
    6.8495  -17.4397   21.4645 N   0  0  0  0  0  0  0  0  0  0  0  0
    7.8470  -17.6810   20.4323 C   0  0  1  0  0  0  0  0  0  0  0  0
    7.4621  -16.8557   19.1839 C   0  0  0  0  0  0  0  0  0  0  0  0
    7.3841  -15.4473   19.6556 C   0  0  0  0  0  0  0  0  0  0  0  0
    7.9472  -14.3761   19.0276 C   0  0  0  0  0  0  0  0  0  0  0  0
    7.8405  -13.0872   19.5296 C   0  0  0  0  0  0  0  0  0  0  0  0
    7.1342  -12.8760   20.7160 C   0  0  0  0  0  0  0  0  0  0  0  0
    6.5700  -13.9548   21.3435 C   0  0  0  0  0  0  0  0  0  0  0  0
    6.6794  -15.2409   20.8379 C   0  0  0  0  0  0  0  0  0  0  0  0
    9.1384  -17.1420   20.8909 C   0  0  0  0  0  0  0  0  0  0  0  0
   10.1700  -17.3911   20.2293 O   0  0  0  0  0  0  0  0  0  0  0  0
   10.4035  -14.2914   22.5243 C   0  0  0  0  0  0  0  0  0  0  0  0
   10.3941  -15.8138   22.5872 C   0  0  2  0  0  0  0  0  0  0  0  0
    9.1674  -16.3546   22.0715 N   0  0  0  0  0  0  0  0  0  0  0  0
   10.5645  -16.1541   24.0211 C   0  0  0  0  0  0  0  0  0  0  0  0
   11.5778  -15.7385   24.6424 O   0  0  0  0  0  0  0  0  0  0  0  0
    9.6385  -16.9325   24.7458 N   0  0  0  0  0  0  0  0  0  0  0  0
    9.8977  -17.2674   26.1514 C   0  0  1  0  0  0  0  0  0  0  0  0
    8.6655  -17.0002   26.9401 C   0  0  0  0  0  0  0  0  0  0  0  0
    7.7358  -16.0047   26.3787 C   0  0  0  0  0  0  0  0  0  0  0  0
    6.6333  -16.2371   25.5575 C   0  0  0  0  0  0  0  0  0  0  0  0
    6.0652  -15.0682   25.2323 N   0  0  0  0  0  0  0  0  0  0  0  0
    6.7417  -14.0465   25.8041 C   0  0  0  0  0  0  0  0  0  0  0  0
    6.5577  -12.6652   25.7934 C   0  0  0  0  0  0  0  0  0  0  0  0
    7.3988  -11.8254   26.4911 C   0  0  0  0  0  0  0  0  0  0  0  0
    8.4382  -12.3770   27.2093 C   0  0  0  0  0  0  0  0  0  0  0  0
    8.6032  -13.7431   27.2064 C   0  0  0  0  0  0  0  0  0  0  0  0
    7.7735  -14.6175   26.5130 C   0  0  0  0  0  0  0  0  0  0  0  0
   10.4746  -18.6001   26.2138 C   0  0  0  0  0  0  0  0  0  0  0  0
   10.9245  -19.0965   27.4561 O   0  0  0  0  0  0  0  0  0  0  0  0
   10.6212  -19.3885   25.2390 O   0  0  0  0  0  0  0  0  0  0  0  0
  2  1  1  1
  2  3  1  0
  3  4  1  0
  4  5  2  0
  5  6  1  0
  7  6  2  0
  8  7  1  0
  9  4  1  0
  9  8  2  0
 10  2  1  0
 11 10  2  0
 13 12  1  1
 13 14  1  0
 14 10  1  0
 15 13  1  0
 15 17  1  0
 16 15  2  0
 18 17  1  0
 18 29  1  0
 19 20  1  0
 18 19  1  1
 20 21  2  0
 22 21  1  0
 23 22  1  0
 24 23  2  0
 25 24  1  0
 26 25  2  0
 26 27  1  0
 27 28  2  0
 28 23  1  0
 28 20  1  0
 29 30  1  0
 31 29  2  0
M  END
$$$$
