FAW.pdb
     RDKit          3D

 31 33  0  0  1  0  0  0  0  0999 V2000
    6.5521  -17.5220   19.8613 N   0  0  0  0  0  0  0  0  0  0  0  0
    7.3346  -16.5006   20.5421 C   0  0  1  0  0  0  0  0  0  0  0  0
    6.3814  -15.6746   21.4348 C   0  0  0  0  0  0  0  0  0  0  0  0
    7.1867  -14.5117   21.8945 C   0  0  0  0  0  0  0  0  0  0  0  0
    7.3702  -14.1485   23.1959 C   0  0  0  0  0  0  0  0  0  0  0  0
    8.1303  -13.0443   23.5531 C   0  0  0  0  0  0  0  0  0  0  0  0
    8.7284  -12.2776   22.5503 C   0  0  0  0  0  0  0  0  0  0  0  0
    8.5417  -12.6460   21.2445 C   0  0  0  0  0  0  0  0  0  0  0  0
    7.7812  -13.7504   20.8926 C   0  0  0  0  0  0  0  0  0  0  0  0
    8.2759  -17.1634   21.4605 C   0  0  0  0  0  0  0  0  0  0  0  0
    7.8882  -18.1555   22.1158 O   0  0  0  0  0  0  0  0  0  0  0  0
   11.9701  -17.1248   21.2123 C   0  0  0  0  0  0  0  0  0  0  0  0
   10.6963  -17.4850   21.9668 C   0  0  2  0  0  0  0  0  0  0  0  0
    9.5955  -16.6522   21.5693 N   0  0  0  0  0  0  0  0  0  0  0  0
   11.0166  -17.2944   23.4027 C   0  0  0  0  0  0  0  0  0  0  0  0
   12.0090  -17.8867   23.9021 O   0  0  0  0  0  0  0  0  0  0  0  0
   10.2589  -16.4706   24.2606 N   0  0  0  0  0  0  0  0  0  0  0  0
   10.6583  -16.3020   25.6630 C   0  0  1  0  0  0  0  0  0  0  0  0
   10.0175  -15.0705   26.1964 C   0  0  0  0  0  0  0  0  0  0  0  0
    8.5469  -15.0183   26.1254 C   0  0  0  0  0  0  0  0  0  0  0  0
    7.6626  -16.0867   25.9827 C   0  0  0  0  0  0  0  0  0  0  0  0
    6.4074  -15.6220   25.9247 N   0  0  0  0  0  0  0  0  0  0  0  0
    6.4049  -14.2734   26.0236 C   0  0  0  0  0  0  0  0  0  0  0  0
    5.3828  -13.3263   26.0327 C   0  0  0  0  0  0  0  0  0  0  0  0
    5.6537  -11.9817   26.1675 C   0  0  0  0  0  0  0  0  0  0  0  0
    6.9665  -11.5807   26.2951 C   0  0  0  0  0  0  0  0  0  0  0  0
    7.9611  -12.5314   26.2829 C   0  0  0  0  0  0  0  0  0  0  0  0
    7.7218  -13.8945   26.1480 C   0  0  0  0  0  0  0  0  0  0  0  0
   10.4280  -17.5530   26.3665 C   0  0  0  0  0  0  0  0  0  0  0  0
   10.9279  -17.7062   27.6775 O   0  0  0  0  0  0  0  0  0  0  0  0
    9.8058  -18.5528   25.9121 O   0  0  0  0  0  0  0  0  0  0  0  0
  2  1  1  1
  2  3  1  0
  3  4  1  0
  4  5  2  0
  5  6  1  0
  7  6  2  0
  8  7  1  0
  9  4  1  0
  9  8  2  0
 10  2  1  0
 11 10  2  0
 13 12  1  6
 13 14  1  0
 14 10  1  0
 15 13  1  0
 15 17  1  0
 16 15  2  0
 18 17  1  0
 18 29  1  0
 19 20  1  0
 18 19  1  1
 20 21  2  0
 22 21  1  0
 23 22  1  0
 24 23  2  0
 25 24  1  0
 26 25  2  0
 26 27  1  0
 27 28  2  0
 28 23  1  0
 28 20  1  0
 29 30  1  0
 31 29  2  0
M  END
$$$$
