FAW.pdb
     RDKit          3D

 31 33  0  0  1  0  0  0  0  0999 V2000
    9.2406  -17.5115   20.0049 N   0  0  0  0  0  0  0  0  0  0  0  0
    9.4800  -16.5464   21.0679 C   0  0  1  0  0  0  0  0  0  0  0  0
    8.1255  -16.2094   21.7308 C   0  0  0  0  0  0  0  0  0  0  0  0
    7.7767  -14.8504   21.2374 C   0  0  0  0  0  0  0  0  0  0  0  0
    8.5596  -14.0846   20.4251 C   0  0  0  0  0  0  0  0  0  0  0  0
    8.1735  -12.8189   20.0085 C   0  0  0  0  0  0  0  0  0  0  0  0
    6.9440  -12.3093   20.4324 C   0  0  0  0  0  0  0  0  0  0  0  0
    6.1606  -13.0819   21.2481 C   0  0  0  0  0  0  0  0  0  0  0  0
    6.5509  -14.3461   21.6617 C   0  0  0  0  0  0  0  0  0  0  0  0
   10.2929  -17.1902   22.1135 C   0  0  0  0  0  0  0  0  0  0  0  0
   10.3065  -18.4384   22.1897 O   0  0  0  0  0  0  0  0  0  0  0  0
   12.8033  -15.8765   24.6210 C   0  0  0  0  0  0  0  0  0  0  0  0
   11.8825  -16.9296   24.0171 C   0  0  2  0  0  0  0  0  0  0  0  0
   11.0364  -16.3689   23.0008 N   0  0  0  0  0  0  0  0  0  0  0  0
   11.0793  -17.4528   25.1493 C   0  0  0  0  0  0  0  0  0  0  0  0
   11.6377  -17.6806   26.2546 O   0  0  0  0  0  0  0  0  0  0  0  0
    9.6968  -17.7158   25.0594 N   0  0  0  0  0  0  0  0  0  0  0  0
    8.9421  -18.1094   26.2554 C   0  0  1  0  0  0  0  0  0  0  0  0
    8.6796  -16.8959   27.0741 C   0  0  0  0  0  0  0  0  0  0  0  0
    7.7235  -15.9256   26.5128 C   0  0  0  0  0  0  0  0  0  0  0  0
    6.4554  -16.1825   25.9933 C   0  0  0  0  0  0  0  0  0  0  0  0
    5.9150  -15.0394   25.5504 N   0  0  0  0  0  0  0  0  0  0  0  0
    6.7704  -14.0115   25.7505 C   0  0  0  0  0  0  0  0  0  0  0  0
    6.6873  -12.6454   25.4883 C   0  0  0  0  0  0  0  0  0  0  0  0
    7.7174  -11.7898   25.8145 C   0  0  0  0  0  0  0  0  0  0  0  0
    8.8458  -12.3099   26.4116 C   0  0  0  0  0  0  0  0  0  0  0  0
    8.9086  -13.6615   26.6613 C   0  0  0  0  0  0  0  0  0  0  0  0
    7.8881  -14.5514   26.3443 C   0  0  0  0  0  0  0  0  0  0  0  0
    7.8053  -18.9165   25.8441 C   0  0  0  0  0  0  0  0  0  0  0  0
    7.5781  -19.1324   24.4679 O   0  0  0  0  0  0  0  0  0  0  0  0
    6.9699  -19.4642   26.6156 O   0  0  0  0  0  0  0  0  0  0  0  0
  2  1  1  6
  2  3  1  0
  3  4  1  0
  4  5  2  0
  5  6  1  0
  7  6  2  0
  8  7  1  0
  9  4  1  0
  9  8  2  0
 10  2  1  0
 11 10  2  0
 13 12  1  1
 13 14  1  0
 14 10  1  0
 15 13  1  0
 15 17  1  0
 16 15  2  0
 18 17  1  0
 18 29  1  0
 19 20  1  0
 18 19  1  6
 20 21  2  0
 22 21  1  0
 23 22  1  0
 24 23  2  0
 25 24  1  0
 26 25  2  0
 26 27  1  0
 27 28  2  0
 28 23  1  0
 28 20  1  0
 29 30  1  0
 31 29  2  0
M  END
$$$$
