FAW.pdb
     RDKit          3D

 31 33  0  0  1  0  0  0  0  0999 V2000
   10.7456  -17.0733   17.4384 N   0  0  0  0  0  0  0  0  0  0  0  0
   10.3570  -17.6713   18.7074 C   0  0  1  0  0  0  0  0  0  0  0  0
   11.6239  -18.2447   19.3811 C   0  0  0  0  0  0  0  0  0  0  0  0
   11.6003  -19.7013   19.0812 C   0  0  0  0  0  0  0  0  0  0  0  0
   10.7285  -20.3143   18.2307 C   0  0  0  0  0  0  0  0  0  0  0  0
   10.7591  -21.6825   18.0033 C   0  0  0  0  0  0  0  0  0  0  0  0
   11.7120  -22.4605   18.6649 C   0  0  0  0  0  0  0  0  0  0  0  0
   12.5859  -21.8407   19.5182 C   0  0  0  0  0  0  0  0  0  0  0  0
   12.5514  -20.4731   19.7420 C   0  0  0  0  0  0  0  0  0  0  0  0
    9.8712  -16.6058   19.6003 C   0  0  0  0  0  0  0  0  0  0  0  0
   10.5223  -15.5417   19.6865 O   0  0  0  0  0  0  0  0  0  0  0  0
    6.8441  -16.2859   21.8651 C   0  0  0  0  0  0  0  0  0  0  0  0
    8.1853  -15.8611   21.2800 C   0  0  2  0  0  0  0  0  0  0  0  0
    8.6757  -16.8240   20.3338 N   0  0  0  0  0  0  0  0  0  0  0  0
    9.1039  -15.7376   22.4384 C   0  0  0  0  0  0  0  0  0  0  0  0
   10.2365  -15.2107   22.2801 O   0  0  0  0  0  0  0  0  0  0  0  0
    8.7767  -16.1850   23.7351 N   0  0  0  0  0  0  0  0  0  0  0  0
    9.7318  -16.0138   24.8366 C   0  0  1  0  0  0  0  0  0  0  0  0
    8.9723  -15.8480   26.1045 C   0  0  0  0  0  0  0  0  0  0  0  0
    7.7561  -15.0197   26.0318 C   0  0  0  0  0  0  0  0  0  0  0  0
    6.4509  -15.4429   25.7844 C   0  0  0  0  0  0  0  0  0  0  0  0
    5.6340  -14.3812   25.7647 N   0  0  0  0  0  0  0  0  0  0  0  0
    6.3369  -13.2484   25.9909 C   0  0  0  0  0  0  0  0  0  0  0  0
    5.9681  -11.9079   26.0849 C   0  0  0  0  0  0  0  0  0  0  0  0
    6.8989  -10.9259   26.3477 C   0  0  0  0  0  0  0  0  0  0  0  0
    8.2169  -11.2922   26.5189 C   0  0  0  0  0  0  0  0  0  0  0  0
    8.5606  -12.6210   26.4214 C   0  0  0  0  0  0  0  0  0  0  0  0
    7.6469  -13.6353   26.1568 C   0  0  0  0  0  0  0  0  0  0  0  0
   10.7205  -17.0770   24.7652 C   0  0  0  0  0  0  0  0  0  0  0  0
   10.5354  -18.1262   23.8394 O   0  0  0  0  0  0  0  0  0  0  0  0
   11.7644  -17.1640   25.4693 O   0  0  0  0  0  0  0  0  0  0  0  0
  2  1  1  6
  2  3  1  0
  3  4  1  0
  4  5  2  0
  5  6  1  0
  7  6  2  0
  8  7  1  0
  9  4  1  0
  9  8  2  0
 10  2  1  0
 11 10  2  0
 13 12  1  1
 13 14  1  0
 14 10  1  0
 15 13  1  0
 15 17  1  0
 16 15  2  0
 18 17  1  0
 18 29  1  0
 19 20  1  0
 18 19  1  1
 20 21  2  0
 22 21  1  0
 23 22  1  0
 24 23  2  0
 25 24  1  0
 26 25  2  0
 26 27  1  0
 27 28  2  0
 28 23  1  0
 28 20  1  0
 29 30  1  0
 31 29  2  0
M  END
$$$$
