FAW.pdb
     RDKit          3D

 31 33  0  0  1  0  0  0  0  0999 V2000
    9.7782  -18.8149   18.3074 N   0  0  0  0  0  0  0  0  0  0  0  0
    9.3495  -18.9350   19.6932 C   0  0  1  0  0  0  0  0  0  0  0  0
   10.3256  -19.8859   20.4218 C   0  0  0  0  0  0  0  0  0  0  0  0
    9.8086  -21.2549   20.1559 C   0  0  0  0  0  0  0  0  0  0  0  0
   10.1809  -22.0457   19.1094 C   0  0  0  0  0  0  0  0  0  0  0  0
    9.6507  -23.3134   18.9180 C   0  0  0  0  0  0  0  0  0  0  0  0
    8.7050  -23.7987   19.8242 C   0  0  0  0  0  0  0  0  0  0  0  0
    8.3340  -23.0011   20.8741 C   0  0  0  0  0  0  0  0  0  0  0  0
    8.8668  -21.7350   21.0611 C   0  0  0  0  0  0  0  0  0  0  0  0
    9.4985  -17.6239   20.3471 C   0  0  0  0  0  0  0  0  0  0  0  0
   10.5970  -17.0307   20.2752 O   0  0  0  0  0  0  0  0  0  0  0  0
    7.0831  -15.2237   21.9647 C   0  0  0  0  0  0  0  0  0  0  0  0
    8.4660  -15.8127   21.7152 C   0  0  2  0  0  0  0  0  0  0  0  0
    8.3856  -17.0766   21.0375 N   0  0  0  0  0  0  0  0  0  0  0  0
    9.0813  -15.9662   23.0564 C   0  0  0  0  0  0  0  0  0  0  0  0
    9.1398  -17.1067   23.5866 O   0  0  0  0  0  0  0  0  0  0  0  0
    9.6167  -14.8866   23.7889 N   0  0  0  0  0  0  0  0  0  0  0  0
   10.2304  -15.1192   25.1020 C   0  0  1  0  0  0  0  0  0  0  0  0
    9.1818  -15.6028   26.0392 C   0  0  0  0  0  0  0  0  0  0  0  0
    7.8588  -14.9653   25.9217 C   0  0  0  0  0  0  0  0  0  0  0  0
    6.6516  -15.5673   25.5694 C   0  0  0  0  0  0  0  0  0  0  0  0
    5.6832  -14.6419   25.5416 N   0  0  0  0  0  0  0  0  0  0  0  0
    6.1881  -13.4295   25.8635 C   0  0  0  0  0  0  0  0  0  0  0  0
    5.6119  -12.1672   25.9911 C   0  0  0  0  0  0  0  0  0  0  0  0
    6.3628  -11.0712   26.3582 C   0  0  0  0  0  0  0  0  0  0  0  0
    7.7090  -11.2424   26.6009 C   0  0  0  0  0  0  0  0  0  0  0  0
    8.2588  -12.4968   26.4686 C   0  0  0  0  0  0  0  0  0  0  0  0
    7.5300  -13.6221   26.0995 C   0  0  0  0  0  0  0  0  0  0  0  0
   11.4181  -15.9378   24.9225 C   0  0  0  0  0  0  0  0  0  0  0  0
   11.9973  -16.0360   23.6391 O   0  0  0  0  0  0  0  0  0  0  0  0
   12.0071  -16.5938   25.8258 O   0  0  0  0  0  0  0  0  0  0  0  0
  2  1  1  6
  2  3  1  0
  3  4  1  0
  4  5  2  0
  5  6  1  0
  7  6  2  0
  8  7  1  0
  9  4  1  0
  9  8  2  0
 10  2  1  0
 11 10  2  0
 13 12  1  1
 13 14  1  0
 14 10  1  0
 15 13  1  0
 15 17  1  0
 16 15  2  0
 18 17  1  0
 18 29  1  0
 19 20  1  0
 18 19  1  1
 20 21  2  0
 22 21  1  0
 23 22  1  0
 24 23  2  0
 25 24  1  0
 26 25  2  0
 26 27  1  0
 27 28  2  0
 28 23  1  0
 28 20  1  0
 29 30  1  0
 31 29  2  0
M  END
$$$$
