FAW.pdb
     RDKit          3D

 31 33  0  0  1  0  0  0  0  0999 V2000
    6.4816  -18.3235   19.3286 N   0  0  0  0  0  0  0  0  0  0  0  0
    7.1529  -17.0638   19.6136 C   0  0  1  0  0  0  0  0  0  0  0  0
    6.0860  -16.0334   20.0470 C   0  0  0  0  0  0  0  0  0  0  0  0
    6.8239  -14.7523   20.2098 C   0  0  0  0  0  0  0  0  0  0  0  0
    7.2503  -13.9560   19.1884 C   0  0  0  0  0  0  0  0  0  0  0  0
    7.9416  -12.7745   19.4138 C   0  0  0  0  0  0  0  0  0  0  0  0
    8.2113  -12.3847   20.7277 C   0  0  0  0  0  0  0  0  0  0  0  0
    7.7810  -13.1873   21.7507 C   0  0  0  0  0  0  0  0  0  0  0  0
    7.0904  -14.3671   21.5203 C   0  0  0  0  0  0  0  0  0  0  0  0
    8.0309  -17.2520   20.7807 C   0  0  0  0  0  0  0  0  0  0  0  0
    7.6037  -17.8946   21.7648 O   0  0  0  0  0  0  0  0  0  0  0  0
   11.5683  -17.5089   20.1556 C   0  0  0  0  0  0  0  0  0  0  0  0
   10.4795  -17.4285   21.2185 C   0  0  2  0  0  0  0  0  0  0  0  0
    9.3368  -16.6968   20.7474 N   0  0  0  0  0  0  0  0  0  0  0  0
   11.1054  -16.7488   22.3791 C   0  0  0  0  0  0  0  0  0  0  0  0
   11.9934  -17.3448   23.0436 O   0  0  0  0  0  0  0  0  0  0  0  0
   10.7572  -15.4460   22.7915 N   0  0  0  0  0  0  0  0  0  0  0  0
    9.9281  -15.2481   23.9865 C   0  0  1  0  0  0  0  0  0  0  0  0
    8.6106  -14.7003   23.5671 C   0  0  0  0  0  0  0  0  0  0  0  0
    7.6060  -14.5326   24.6316 C   0  0  0  0  0  0  0  0  0  0  0  0
    6.6820  -15.4724   25.0864 C   0  0  0  0  0  0  0  0  0  0  0  0
    5.9211  -14.9232   26.0426 N   0  0  0  0  0  0  0  0  0  0  0  0
    6.2947  -13.6414   26.2563 C   0  0  0  0  0  0  0  0  0  0  0  0
    5.8439  -12.6572   27.1338 C   0  0  0  0  0  0  0  0  0  0  0  0
    6.4219  -11.4063   27.1650 C   0  0  0  0  0  0  0  0  0  0  0  0
    7.4658  -11.1381   26.3054 C   0  0  0  0  0  0  0  0  0  0  0  0
    7.8955  -12.1231   25.4462 C   0  0  0  0  0  0  0  0  0  0  0  0
    7.3340  -13.3940   25.3891 C   0  0  0  0  0  0  0  0  0  0  0  0
    9.9420  -16.4718   24.7709 C   0  0  0  0  0  0  0  0  0  0  0  0
   10.3025  -16.4099   26.1342 O   0  0  0  0  0  0  0  0  0  0  0  0
    9.6557  -17.6254   24.3461 O   0  0  0  0  0  0  0  0  0  0  0  0
  2  1  1  1
  2  3  1  0
  3  4  1  0
  4  5  2  0
  5  6  1  0
  7  6  2  0
  8  7  1  0
  9  4  1  0
  9  8  2  0
 10  2  1  0
 11 10  2  0
 13 12  1  6
 13 14  1  0
 14 10  1  0
 15 13  1  0
 15 17  1  0
 16 15  2  0
 18 17  1  0
 18 29  1  0
 19 20  1  0
 18 19  1  6
 20 21  2  0
 22 21  1  0
 23 22  1  0
 24 23  2  0
 25 24  1  0
 26 25  2  0
 26 27  1  0
 27 28  2  0
 28 23  1  0
 28 20  1  0
 29 30  1  0
 31 29  2  0
M  END
$$$$
