FAW.pdb
     RDKit          3D

 31 33  0  0  1  0  0  0  0  0999 V2000
    8.0200  -17.1729   16.7053 N   0  0  0  0  0  0  0  0  0  0  0  0
    8.3190  -16.2050   17.7506 C   0  0  1  0  0  0  0  0  0  0  0  0
    7.1746  -15.1675   17.7923 C   0  0  0  0  0  0  0  0  0  0  0  0
    7.5314  -14.2368   18.8962 C   0  0  0  0  0  0  0  0  0  0  0  0
    8.4052  -13.1951   18.7940 C   0  0  0  0  0  0  0  0  0  0  0  0
    8.6974  -12.3695   19.8700 C   0  0  0  0  0  0  0  0  0  0  0  0
    8.0786  -12.6098   21.0990 C   0  0  0  0  0  0  0  0  0  0  0  0
    7.2014  -13.6571   21.1972 C   0  0  0  0  0  0  0  0  0  0  0  0
    6.9126  -14.4793   20.1190 C   0  0  0  0  0  0  0  0  0  0  0  0
    8.2884  -16.8935   19.0520 C   0  0  0  0  0  0  0  0  0  0  0  0
    7.2123  -17.3901   19.4512 O   0  0  0  0  0  0  0  0  0  0  0  0
   10.4976  -18.8654   20.9835 C   0  0  0  0  0  0  0  0  0  0  0  0
    9.5436  -17.6797   21.0581 C   0  0  2  0  0  0  0  0  0  0  0  0
    9.4858  -16.9709   19.8102 N   0  0  0  0  0  0  0  0  0  0  0  0
   10.0711  -16.8116   22.1394 C   0  0  0  0  0  0  0  0  0  0  0  0
   11.0352  -16.0377   21.9005 O   0  0  0  0  0  0  0  0  0  0  0  0
    9.5453  -16.8013   23.4478 N   0  0  0  0  0  0  0  0  0  0  0  0
   10.2242  -16.0479   24.5090 C   0  0  1  0  0  0  0  0  0  0  0  0
    9.6218  -14.6906   24.5902 C   0  0  0  0  0  0  0  0  0  0  0  0
    8.2920  -14.6045   25.2185 C   0  0  0  0  0  0  0  0  0  0  0  0
    7.2986  -15.5823   25.2470 C   0  0  0  0  0  0  0  0  0  0  0  0
    6.2220  -15.1058   25.8863 N   0  0  0  0  0  0  0  0  0  0  0  0
    6.4471  -13.8368   26.2956 C   0  0  0  0  0  0  0  0  0  0  0  0
    5.6727  -12.9177   27.0008 C   0  0  0  0  0  0  0  0  0  0  0  0
    6.1558  -11.6654   27.3140 C   0  0  0  0  0  0  0  0  0  0  0  0
    7.4320  -11.3297   26.9154 C   0  0  0  0  0  0  0  0  0  0  0  0
    8.1802  -12.2511   26.2193 C   0  0  0  0  0  0  0  0  0  0  0  0
    7.7226  -13.5215   25.8870 C   0  0  0  0  0  0  0  0  0  0  0  0
   10.2473  -16.8596   25.7147 C   0  0  0  0  0  0  0  0  0  0  0  0
    9.5350  -18.0779   25.7364 O   0  0  0  0  0  0  0  0  0  0  0  0
   10.8590  -16.5796   26.7827 O   0  0  0  0  0  0  0  0  0  0  0  0
  2  1  1  6
  2  3  1  0
  3  4  1  0
  4  5  2  0
  5  6  1  0
  7  6  2  0
  8  7  1  0
  9  4  1  0
  9  8  2  0
 10  2  1  0
 11 10  2  0
 13 12  1  6
 13 14  1  0
 14 10  1  0
 15 13  1  0
 15 17  1  0
 16 15  2  0
 18 17  1  0
 18 29  1  0
 19 20  1  0
 18 19  1  1
 20 21  2  0
 22 21  1  0
 23 22  1  0
 24 23  2  0
 25 24  1  0
 26 25  2  0
 26 27  1  0
 27 28  2  0
 28 23  1  0
 28 20  1  0
 29 30  1  0
 31 29  2  0
M  END
$$$$
