FAW.pdb
     RDKit          3D

 31 33  0  0  1  0  0  0  0  0999 V2000
    5.9726  -17.2252   21.6168 N   0  0  0  0  0  0  0  0  0  0  0  0
    6.9934  -17.2974   20.5816 C   0  0  1  0  0  0  0  0  0  0  0  0
    7.1077  -15.9076   19.9159 C   0  0  0  0  0  0  0  0  0  0  0  0
    7.2599  -14.9470   21.0412 C   0  0  0  0  0  0  0  0  0  0  0  0
    6.7170  -15.0989   22.2826 C   0  0  0  0  0  0  0  0  0  0  0  0
    6.8942  -14.1565   23.2853 C   0  0  0  0  0  0  0  0  0  0  0  0
    7.6526  -13.0143   23.0183 C   0  0  0  0  0  0  0  0  0  0  0  0
    8.1963  -12.8658   21.7700 C   0  0  0  0  0  0  0  0  0  0  0  0
    8.0164  -13.8104   20.7715 C   0  0  0  0  0  0  0  0  0  0  0  0
    8.2957  -17.5476   21.2218 C   0  0  0  0  0  0  0  0  0  0  0  0
    8.3918  -18.4666   22.0644 O   0  0  0  0  0  0  0  0  0  0  0  0
   11.7589  -16.2467   20.4200 C   0  0  0  0  0  0  0  0  0  0  0  0
   10.7518  -17.1215   21.1564 C   0  0  2  0  0  0  0  0  0  0  0  0
    9.4011  -16.7349   20.8578 N   0  0  0  0  0  0  0  0  0  0  0  0
   11.0498  -16.9439   22.5988 C   0  0  0  0  0  0  0  0  0  0  0  0
   12.2049  -17.1981   23.0307 O   0  0  0  0  0  0  0  0  0  0  0  0
   10.0952  -16.4972   23.5357 N   0  0  0  0  0  0  0  0  0  0  0  0
   10.4986  -16.2044   24.9164 C   0  0  1  0  0  0  0  0  0  0  0  0
   10.0433  -14.8322   25.2650 C   0  0  0  0  0  0  0  0  0  0  0  0
    8.6081  -14.6771   25.5594 C   0  0  0  0  0  0  0  0  0  0  0  0
    7.6421  -15.6792   25.6398 C   0  0  0  0  0  0  0  0  0  0  0  0
    6.4477  -15.1278   25.8934 N   0  0  0  0  0  0  0  0  0  0  0  0
    6.5658  -13.7842   25.9894 C   0  0  0  0  0  0  0  0  0  0  0  0
    5.6476  -12.7690   26.2503 C   0  0  0  0  0  0  0  0  0  0  0  0
    6.0385  -11.4488   26.3136 C   0  0  0  0  0  0  0  0  0  0  0  0
    7.3674  -11.1419   26.1129 C   0  0  0  0  0  0  0  0  0  0  0  0
    8.2580  -12.1587   25.8558 C   0  0  0  0  0  0  0  0  0  0  0  0
    7.8963  -13.4995   25.7846 C   0  0  0  0  0  0  0  0  0  0  0  0
   10.0750  -17.3032   25.7684 C   0  0  0  0  0  0  0  0  0  0  0  0
   10.4759  -17.3174   27.1216 O   0  0  0  0  0  0  0  0  0  0  0  0
    9.3608  -18.2813   25.4128 O   0  0  0  0  0  0  0  0  0  0  0  0
  2  1  1  1
  2  3  1  0
  3  4  1  0
  4  5  2  0
  5  6  1  0
  7  6  2  0
  8  7  1  0
  9  4  1  0
  9  8  2  0
 10  2  1  0
 11 10  2  0
 13 12  1  6
 13 14  1  0
 14 10  1  0
 15 13  1  0
 15 17  1  0
 16 15  2  0
 18 17  1  0
 18 29  1  0
 19 20  1  0
 18 19  1  1
 20 21  2  0
 22 21  1  0
 23 22  1  0
 24 23  2  0
 25 24  1  0
 26 25  2  0
 26 27  1  0
 27 28  2  0
 28 23  1  0
 28 20  1  0
 29 30  1  0
 31 29  2  0
M  END
$$$$
