AWY.pdb
     RDKit          3D

 32 34  0  0  1  0  0  0  0  0999 V2000
    7.4345  -13.7350   18.6165 C   0  0  0  0  0  0  0  0  0  0  0  0
    8.3080  -14.7926   19.1689 C   0  0  2  0  0  0  0  0  0  0  0  0
    7.7031  -16.0980   19.0033 N   0  0  0  0  0  0  0  0  0  0  0  0
    8.7252  -14.6276   20.5785 C   0  0  0  0  0  0  0  0  0  0  0  0
    9.3916  -13.6399   20.8935 O   0  0  0  0  0  0  0  0  0  0  0  0
    8.4076  -15.5392   21.6114 N   0  0  0  0  0  0  0  0  0  0  0  0
    8.7064  -15.5210   22.9713 C   0  0  1  0  0  0  0  0  0  0  0  0
    7.9270  -16.2186   23.9663 C   0  0  0  0  0  0  0  0  0  0  0  0
    7.0764  -15.3004   24.7850 C   0  0  0  0  0  0  0  0  0  0  0  0
    5.9162  -15.6223   25.4761 C   0  0  0  0  0  0  0  0  0  0  0  0
    5.4447  -14.5317   26.1061 N   0  0  0  0  0  0  0  0  0  0  0  0
    6.2583  -13.4972   25.8523 C   0  0  0  0  0  0  0  0  0  0  0  0
    6.2078  -12.1863   26.2563 C   0  0  0  0  0  0  0  0  0  0  0  0
    7.1603  -11.2660   25.8706 C   0  0  0  0  0  0  0  0  0  0  0  0
    8.1678  -11.7500   25.0517 C   0  0  0  0  0  0  0  0  0  0  0  0
    8.2436  -13.0577   24.6317 C   0  0  0  0  0  0  0  0  0  0  0  0
    7.2729  -13.9390   25.0411 C   0  0  0  0  0  0  0  0  0  0  0  0
   10.1875  -15.7696   23.1557 C   0  0  0  0  0  0  0  0  0  0  0  0
   10.6875  -16.7661   22.5982 O   0  0  0  0  0  0  0  0  0  0  0  0
   11.7324  -17.5337   31.2025 O   0  0  0  0  0  0  0  0  0  0  0  0
   11.5359  -16.8493   30.0128 C   0  0  0  0  0  0  0  0  0  0  0  0
   12.5439  -16.6362   29.1039 C   0  0  0  0  0  0  0  0  0  0  0  0
   12.3162  -15.9606   27.9467 C   0  0  0  0  0  0  0  0  0  0  0  0
   11.0617  -15.4434   27.6049 C   0  0  0  0  0  0  0  0  0  0  0  0
   10.8925  -14.7021   26.3417 C   0  0  0  0  0  0  0  0  0  0  0  0
   11.5600  -15.4166   25.2155 C   0  0  2  0  0  0  0  0  0  0  0  0
   11.0347  -14.9405   23.9202 N   0  0  0  0  0  0  0  0  0  0  0  0
   11.3021  -16.8611   25.2765 C   0  0  0  0  0  0  0  0  0  0  0  0
   12.2014  -17.7726   25.8185 O   0  0  0  0  0  0  0  0  0  0  0  0
   10.0569  -15.6621   28.5230 C   0  0  0  0  0  0  0  0  0  0  0  0
   10.2916  -16.3490   29.6976 C   0  0  0  0  0  0  0  0  0  0  0  0
   10.2286  -17.3250   24.8237 O   0  0  0  0  0  0  0  0  0  0  0  0
  2  1  1  1
  3  2  1  0
  4  2  1  0
  4  5  2  0
  6  4  1  0
  7  6  1  0
  7  8  1  1
  9  8  1  0
  9 17  1  0
 10  9  2  0
 11 10  1  0
 11 12  1  0
 12 13  1  0
 12 17  2  0
 13 14  2  0
 14 15  1  0
 16 15  2  0
 17 16  1  0
 18  7  1  0
 19 18  2  0
 20 21  1  0
 21 31  2  0
 21 22  1  0
 22 23  2  0
 23 24  1  0
 24 25  1  0
 26 25  1  1
 26 28  1  0
 26 27  1  0
 27 18  1  0
 28 29  1  0
 30 24  2  0
 31 30  1  0
 32 28  2  0
M  END
$$$$
