AWY.pdb
     RDKit          3D

 32 34  0  0  1  0  0  0  0  0999 V2000
    7.6572  -20.4054   24.6094 C   0  0  0  0  0  0  0  0  0  0  0  0
    6.9803  -19.2049   24.0734 C   0  0  2  0  0  0  0  0  0  0  0  0
    6.0958  -19.5571   22.9822 N   0  0  0  0  0  0  0  0  0  0  0  0
    7.8585  -18.0940   23.6455 C   0  0  0  0  0  0  0  0  0  0  0  0
    8.2042  -18.0256   22.4645 O   0  0  0  0  0  0  0  0  0  0  0  0
    8.3388  -17.0843   24.5107 N   0  0  0  0  0  0  0  0  0  0  0  0
    9.2370  -16.0431   24.2916 C   0  0  1  0  0  0  0  0  0  0  0  0
    9.2438  -14.8230   25.0632 C   0  0  0  0  0  0  0  0  0  0  0  0
    7.8841  -14.4403   25.5548 C   0  0  0  0  0  0  0  0  0  0  0  0
    6.8745  -15.2919   25.9825 C   0  0  0  0  0  0  0  0  0  0  0  0
    5.8038  -14.5727   26.3630 N   0  0  0  0  0  0  0  0  0  0  0  0
    6.0744  -13.2702   26.1996 C   0  0  0  0  0  0  0  0  0  0  0  0
    5.3152  -12.1517   26.4377 C   0  0  0  0  0  0  0  0  0  0  0  0
    5.7907  -10.8803   26.1920 C   0  0  0  0  0  0  0  0  0  0  0  0
    7.0805  -10.8067   25.6909 C   0  0  0  0  0  0  0  0  0  0  0  0
    7.8637  -11.9100   25.4430 C   0  0  0  0  0  0  0  0  0  0  0  0
    7.3484  -13.1563   25.7031 C   0  0  0  0  0  0  0  0  0  0  0  0
   10.6309  -16.6141   24.1488 C   0  0  0  0  0  0  0  0  0  0  0  0
   11.2478  -16.9188   25.1883 O   0  0  0  0  0  0  0  0  0  0  0  0
   10.8633  -22.3036   26.3684 O   0  0  0  0  0  0  0  0  0  0  0  0
   11.3168  -21.4184   25.4024 C   0  0  0  0  0  0  0  0  0  0  0  0
   10.5865  -21.1048   24.2817 C   0  0  0  0  0  0  0  0  0  0  0  0
   11.0616  -20.2324   23.3540 C   0  0  0  0  0  0  0  0  0  0  0  0
   12.3057  -19.6028   23.4723 C   0  0  0  0  0  0  0  0  0  0  0  0
   12.7667  -18.6833   22.4161 C   0  0  0  0  0  0  0  0  0  0  0  0
   12.6801  -17.2664   22.8735 C   0  0  2  0  0  0  0  0  0  0  0  0
   11.2724  -16.8221   22.9099 N   0  0  0  0  0  0  0  0  0  0  0  0
   13.3884  -16.3675   21.9532 C   0  0  0  0  0  0  0  0  0  0  0  0
   14.7552  -16.4489   21.7109 O   0  0  0  0  0  0  0  0  0  0  0  0
   13.0310  -19.9238   24.5998 C   0  0  0  0  0  0  0  0  0  0  0  0
   12.5452  -20.8104   25.5403 C   0  0  0  0  0  0  0  0  0  0  0  0
   12.7572  -15.4716   21.3435 O   0  0  0  0  0  0  0  0  0  0  0  0
  2  1  1  6
  3  2  1  0
  4  2  1  0
  4  5  2  0
  6  4  1  0
  7  6  1  0
  7  8  1  1
  9  8  1  0
  9 17  1  0
 10  9  2  0
 11 10  1  0
 11 12  1  0
 12 13  1  0
 12 17  2  0
 13 14  2  0
 14 15  1  0
 16 15  2  0
 17 16  1  0
 18  7  1  0
 19 18  2  0
 20 21  1  0
 21 31  2  0
 21 22  1  0
 22 23  2  0
 23 24  1  0
 24 25  1  0
 26 25  1  6
 26 28  1  0
 26 27  1  0
 27 18  1  0
 28 29  1  0
 30 24  2  0
 31 30  1  0
 32 28  2  0
M  END
$$$$
