AWY.pdb
     RDKit          3D

 32 34  0  0  1  0  0  0  0  0999 V2000
    7.4569  -13.5638   19.0602 C   0  0  0  0  0  0  0  0  0  0  0  0
    8.2341  -14.7224   19.5506 C   0  0  2  0  0  0  0  0  0  0  0  0
    7.4923  -15.9530   19.3703 N   0  0  0  0  0  0  0  0  0  0  0  0
    8.7125  -14.6459   20.9483 C   0  0  0  0  0  0  0  0  0  0  0  0
    9.4651  -13.7257   21.2736 O   0  0  0  0  0  0  0  0  0  0  0  0
    8.3610  -15.5703   21.9585 N   0  0  0  0  0  0  0  0  0  0  0  0
    8.6662  -15.6010   23.3167 C   0  0  1  0  0  0  0  0  0  0  0  0
    7.8437  -16.2618   24.3021 C   0  0  0  0  0  0  0  0  0  0  0  0
    6.9515  -15.3159   25.0411 C   0  0  0  0  0  0  0  0  0  0  0  0
    5.7532  -15.6133   25.6761 C   0  0  0  0  0  0  0  0  0  0  0  0
    5.2507  -14.5018   26.2424 N   0  0  0  0  0  0  0  0  0  0  0  0
    6.0806  -13.4774   26.0008 C   0  0  0  0  0  0  0  0  0  0  0  0
    6.0116  -12.1538   26.3580 C   0  0  0  0  0  0  0  0  0  0  0  0
    6.9872  -11.2480   25.9964 C   0  0  0  0  0  0  0  0  0  0  0  0
    8.0376  -11.7602   25.2518 C   0  0  0  0  0  0  0  0  0  0  0  0
    8.1326  -13.0812   24.8800 C   0  0  0  0  0  0  0  0  0  0  0  0
    7.1376  -13.9471   25.2629 C   0  0  0  0  0  0  0  0  0  0  0  0
   10.1267  -15.9576   23.4875 C   0  0  0  0  0  0  0  0  0  0  0  0
   10.6896  -16.5775   22.5642 O   0  0  0  0  0  0  0  0  0  0  0  0
    9.8963  -16.4595   30.5581 O   0  0  0  0  0  0  0  0  0  0  0  0
   10.6423  -16.1851   29.4221 C   0  0  0  0  0  0  0  0  0  0  0  0
   10.5223  -15.0094   28.7214 C   0  0  0  0  0  0  0  0  0  0  0  0
   11.2697  -14.7729   27.6111 C   0  0  0  0  0  0  0  0  0  0  0  0
   12.1979  -15.6933   27.1116 C   0  0  0  0  0  0  0  0  0  0  0  0
   12.9593  -15.3785   25.8890 C   0  0  0  0  0  0  0  0  0  0  0  0
   12.3172  -15.9954   24.6924 C   0  0  2  0  0  0  0  0  0  0  0  0
   10.8880  -15.6294   24.6288 N   0  0  0  0  0  0  0  0  0  0  0  0
   12.3809  -17.4613   24.7526 C   0  0  0  0  0  0  0  0  0  0  0  0
   11.2527  -18.2693   24.8397 O   0  0  0  0  0  0  0  0  0  0  0  0
   12.3111  -16.8699   27.8212 C   0  0  0  0  0  0  0  0  0  0  0  0
   11.5503  -17.1067   28.9489 C   0  0  0  0  0  0  0  0  0  0  0  0
   13.4927  -18.0411   24.7285 O   0  0  0  0  0  0  0  0  0  0  0  0
  2  1  1  1
  3  2  1  0
  4  2  1  0
  4  5  2  0
  6  4  1  0
  7  6  1  0
  7  8  1  1
  9  8  1  0
  9 17  1  0
 10  9  2  0
 11 10  1  0
 11 12  1  0
 12 13  1  0
 12 17  2  0
 13 14  2  0
 14 15  1  0
 16 15  2  0
 17 16  1  0
 18  7  1  0
 19 18  2  0
 20 21  1  0
 21 31  2  0
 21 22  1  0
 22 23  2  0
 23 24  1  0
 24 25  1  0
 26 25  1  1
 26 28  1  0
 26 27  1  0
 27 18  1  0
 28 29  1  0
 30 24  2  0
 31 30  1  0
 32 28  2  0
M  END
$$$$
