AWY.pdb
     RDKit          3D

 32 34  0  0  1  0  0  0  0  0999 V2000
    6.5909  -16.2243   20.7999 C   0  0  0  0  0  0  0  0  0  0  0  0
    7.7708  -16.8997   21.3815 C   0  0  2  0  0  0  0  0  0  0  0  0
    7.3709  -18.0499   22.1652 N   0  0  0  0  0  0  0  0  0  0  0  0
    8.6770  -16.0546   22.1897 C   0  0  0  0  0  0  0  0  0  0  0  0
    9.3328  -15.1745   21.6292 O   0  0  0  0  0  0  0  0  0  0  0  0
    8.8479  -16.1859   23.5869 N   0  0  0  0  0  0  0  0  0  0  0  0
    9.5799  -15.4248   24.4944 C   0  0  1  0  0  0  0  0  0  0  0  0
    9.1559  -15.1815   25.8528 C   0  0  0  0  0  0  0  0  0  0  0  0
    7.7673  -14.6324   25.9372 C   0  0  0  0  0  0  0  0  0  0  0  0
    6.5825  -15.3517   26.0179 C   0  0  0  0  0  0  0  0  0  0  0  0
    5.5407  -14.5047   26.0934 N   0  0  0  0  0  0  0  0  0  0  0  0
    6.0005  -13.2460   26.0648 C   0  0  0  0  0  0  0  0  0  0  0  0
    5.3435  -12.0417   26.1105 C   0  0  0  0  0  0  0  0  0  0  0  0
    6.0183  -10.8394   26.0623 C   0  0  0  0  0  0  0  0  0  0  0  0
    7.3977  -10.9270   25.9651 C   0  0  0  0  0  0  0  0  0  0  0  0
    8.0821  -12.1193   25.9176 C   0  0  0  0  0  0  0  0  0  0  0  0
    7.3685  -13.2917   25.9689 C   0  0  0  0  0  0  0  0  0  0  0  0
   11.0318  -15.8468   24.4361 C   0  0  0  0  0  0  0  0  0  0  0  0
   11.8962  -15.0191   24.7847 O   0  0  0  0  0  0  0  0  0  0  0  0
   10.6028  -17.1057   30.3998 O   0  0  0  0  0  0  0  0  0  0  0  0
   11.0937  -17.5095   29.1676 C   0  0  0  0  0  0  0  0  0  0  0  0
   10.3659  -18.2830   28.2960 C   0  0  0  0  0  0  0  0  0  0  0  0
   10.8782  -18.6612   27.0952 C   0  0  0  0  0  0  0  0  0  0  0  0
   12.1601  -18.2962   26.6689 C   0  0  0  0  0  0  0  0  0  0  0  0
   12.6592  -18.7606   25.3616 C   0  0  0  0  0  0  0  0  0  0  0  0
   12.7952  -17.6191   24.4115 C   0  0  2  0  0  0  0  0  0  0  0  0
   11.4640  -17.1205   24.0115 N   0  0  0  0  0  0  0  0  0  0  0  0
   13.4844  -18.0314   23.1820 C   0  0  0  0  0  0  0  0  0  0  0  0
   14.7785  -18.5396   23.1687 O   0  0  0  0  0  0  0  0  0  0  0  0
   12.8826  -17.5203   27.5501 C   0  0  0  0  0  0  0  0  0  0  0  0
   12.3589  -17.1378   28.7691 C   0  0  0  0  0  0  0  0  0  0  0  0
   12.9041  -17.9298   22.0749 O   0  0  0  0  0  0  0  0  0  0  0  0
  2  1  1  1
  3  2  1  0
  4  2  1  0
  4  5  2  0
  6  4  1  0
  7  6  1  0
  7  8  1  1
  9  8  1  0
  9 17  1  0
 10  9  2  0
 11 10  1  0
 11 12  1  0
 12 13  1  0
 12 17  2  0
 13 14  2  0
 14 15  1  0
 16 15  2  0
 17 16  1  0
 18  7  1  0
 19 18  2  0
 20 21  1  0
 21 31  2  0
 21 22  1  0
 22 23  2  0
 23 24  1  0
 24 25  1  0
 26 25  1  1
 26 28  1  0
 26 27  1  0
 27 18  1  0
 28 29  1  0
 30 24  2  0
 31 30  1  0
 32 28  2  0
M  END
$$$$
