AWY.pdb
     RDKit          3D

 32 34  0  0  1  0  0  0  0  0999 V2000
    9.8709  -18.3312   18.8352 C   0  0  0  0  0  0  0  0  0  0  0  0
    9.1485  -18.5947   20.0983 C   0  0  2  0  0  0  0  0  0  0  0  0
    7.7168  -18.6029   19.8800 N   0  0  0  0  0  0  0  0  0  0  0  0
    9.4603  -17.6958   21.2310 C   0  0  0  0  0  0  0  0  0  0  0  0
   10.6101  -17.6682   21.6738 O   0  0  0  0  0  0  0  0  0  0  0  0
    8.5157  -16.8485   21.8543 N   0  0  0  0  0  0  0  0  0  0  0  0
    8.6576  -15.9211   22.8832 C   0  0  1  0  0  0  0  0  0  0  0  0
    7.7339  -14.8345   23.1076 C   0  0  0  0  0  0  0  0  0  0  0  0
    8.1880  -13.9004   24.1838 C   0  0  0  0  0  0  0  0  0  0  0  0
    9.4754  -13.4266   24.3974 C   0  0  0  0  0  0  0  0  0  0  0  0
    9.4843  -12.5950   25.4543 N   0  0  0  0  0  0  0  0  0  0  0  0
    8.2410  -12.5045   25.9468 C   0  0  0  0  0  0  0  0  0  0  0  0
    7.7383  -11.7953   27.0092 C   0  0  0  0  0  0  0  0  0  0  0  0
    6.4041  -11.8467   27.3557 C   0  0  0  0  0  0  0  0  0  0  0  0
    5.6075  -12.6581   26.5639 C   0  0  0  0  0  0  0  0  0  0  0  0
    6.0838  -13.3794   25.4938 C   0  0  0  0  0  0  0  0  0  0  0  0
    7.4198  -13.2973   25.1856 C   0  0  0  0  0  0  0  0  0  0  0  0
    8.9718  -16.6534   24.1693 C   0  0  0  0  0  0  0  0  0  0  0  0
    8.1599  -17.5113   24.5677 O   0  0  0  0  0  0  0  0  0  0  0  0
   12.9321  -20.6256   30.9039 O   0  0  0  0  0  0  0  0  0  0  0  0
   12.6804  -19.8365   29.7919 C   0  0  0  0  0  0  0  0  0  0  0  0
   12.8149  -18.4692   29.8063 C   0  0  0  0  0  0  0  0  0  0  0  0
   12.5597  -17.7258   28.6975 C   0  0  0  0  0  0  0  0  0  0  0  0
   12.1494  -18.2897   27.4843 C   0  0  0  0  0  0  0  0  0  0  0  0
   11.8696  -17.4196   26.3275 C   0  0  0  0  0  0  0  0  0  0  0  0
   10.4001  -17.2575   26.1306 C   0  0  2  0  0  0  0  0  0  0  0  0
   10.1286  -16.4230   24.9430 N   0  0  0  0  0  0  0  0  0  0  0  0
    9.7824  -16.5813   27.2786 C   0  0  0  0  0  0  0  0  0  0  0  0
    9.1153  -17.2592   28.2928 O   0  0  0  0  0  0  0  0  0  0  0  0
   12.0172  -19.6620   27.4797 C   0  0  0  0  0  0  0  0  0  0  0  0
   12.2775  -20.4142   28.6080 C   0  0  0  0  0  0  0  0  0  0  0  0
    9.8411  -15.3323   27.3752 O   0  0  0  0  0  0  0  0  0  0  0  0
  2  1  1  6
  3  2  1  0
  4  2  1  0
  4  5  2  0
  6  4  1  0
  7  6  1  0
  7  8  1  1
  9  8  1  0
  9 17  1  0
 10  9  2  0
 11 10  1  0
 11 12  1  0
 12 13  1  0
 12 17  2  0
 13 14  2  0
 14 15  1  0
 16 15  2  0
 17 16  1  0
 18  7  1  0
 19 18  2  0
 20 21  1  0
 21 31  2  0
 21 22  1  0
 22 23  2  0
 23 24  1  0
 24 25  1  0
 26 25  1  1
 26 28  1  0
 26 27  1  0
 27 18  1  0
 28 29  1  0
 30 24  2  0
 31 30  1  0
 32 28  2  0
M  END
$$$$
