AWY.pdb
     RDKit          3D

 32 34  0  0  1  0  0  0  0  0999 V2000
   11.6166  -18.2389   19.4076 C   0  0  0  0  0  0  0  0  0  0  0  0
   10.7727  -17.0357   19.2437 C   0  0  2  0  0  0  0  0  0  0  0  0
   11.4024  -16.0831   18.3530 N   0  0  0  0  0  0  0  0  0  0  0  0
   10.3709  -16.3430   20.4876 C   0  0  0  0  0  0  0  0  0  0  0  0
   11.1466  -15.5329   20.9985 O   0  0  0  0  0  0  0  0  0  0  0  0
    9.1362  -16.5467   21.1453 N   0  0  0  0  0  0  0  0  0  0  0  0
    8.5927  -15.9451   22.2773 C   0  0  1  0  0  0  0  0  0  0  0  0
    7.1784  -15.9260   22.5665 C   0  0  0  0  0  0  0  0  0  0  0  0
    6.8605  -15.2489   23.8617 C   0  0  0  0  0  0  0  0  0  0  0  0
    6.4753  -15.8504   25.0522 C   0  0  0  0  0  0  0  0  0  0  0  0
    6.2930  -14.9116   25.9977 N   0  0  0  0  0  0  0  0  0  0  0  0
    6.5459  -13.7064   25.4684 C   0  0  0  0  0  0  0  0  0  0  0  0
    6.4982  -12.4493   26.0174 C   0  0  0  0  0  0  0  0  0  0  0  0
    6.7970  -11.3201   25.2835 C   0  0  0  0  0  0  0  0  0  0  0  0
    7.1473  -11.5374   23.9606 C   0  0  0  0  0  0  0  0  0  0  0  0
    7.2036  -12.7852   23.3844 C   0  0  0  0  0  0  0  0  0  0  0  0
    6.8980  -13.8811   24.1538 C   0  0  0  0  0  0  0  0  0  0  0  0
    9.3990  -16.3544   23.4904 C   0  0  0  0  0  0  0  0  0  0  0  0
    9.7361  -17.5501   23.5929 O   0  0  0  0  0  0  0  0  0  0  0  0
   11.4105  -16.9728   31.8445 O   0  0  0  0  0  0  0  0  0  0  0  0
   11.2812  -16.4441   30.5692 C   0  0  0  0  0  0  0  0  0  0  0  0
   10.4079  -15.4256   30.2731 C   0  0  0  0  0  0  0  0  0  0  0  0
   10.3065  -14.9307   29.0113 C   0  0  0  0  0  0  0  0  0  0  0  0
   11.0705  -15.4145   27.9433 C   0  0  0  0  0  0  0  0  0  0  0  0
   10.8926  -14.8441   26.5955 C   0  0  0  0  0  0  0  0  0  0  0  0
   10.6926  -15.9240   25.5864 C   0  0  2  0  0  0  0  0  0  0  0  0
    9.7917  -15.4632   24.5108 N   0  0  0  0  0  0  0  0  0  0  0  0
   10.0661  -17.1063   26.1915 C   0  0  0  0  0  0  0  0  0  0  0  0
   10.7658  -18.2705   26.4885 O   0  0  0  0  0  0  0  0  0  0  0  0
   11.9437  -16.4362   28.2503 C   0  0  0  0  0  0  0  0  0  0  0  0
   12.0442  -16.9365   29.5333 C   0  0  0  0  0  0  0  0  0  0  0  0
    8.8418  -17.0962   26.4629 O   0  0  0  0  0  0  0  0  0  0  0  0
  2  1  1  1
  3  2  1  0
  4  2  1  0
  4  5  2  0
  6  4  1  0
  7  6  1  0
  7  8  1  1
  9  8  1  0
  9 17  1  0
 10  9  2  0
 11 10  1  0
 11 12  1  0
 12 13  1  0
 12 17  2  0
 13 14  2  0
 14 15  1  0
 16 15  2  0
 17 16  1  0
 18  7  1  0
 19 18  2  0
 20 21  1  0
 21 31  2  0
 21 22  1  0
 22 23  2  0
 23 24  1  0
 24 25  1  0
 26 25  1  1
 26 28  1  0
 26 27  1  0
 27 18  1  0
 28 29  1  0
 30 24  2  0
 31 30  1  0
 32 28  2  0
M  END
$$$$
