AWY.pdb
     RDKit          3D

 32 34  0  0  1  0  0  0  0  0999 V2000
   10.8145  -20.0827   20.0093 C   0  0  0  0  0  0  0  0  0  0  0  0
   10.0237  -18.9633   19.4541 C   0  0  2  0  0  0  0  0  0  0  0  0
   10.4757  -18.6261   18.1202 N   0  0  0  0  0  0  0  0  0  0  0  0
    9.9677  -17.7319   20.2719 C   0  0  0  0  0  0  0  0  0  0  0  0
   10.8989  -16.9272   20.2063 O   0  0  0  0  0  0  0  0  0  0  0  0
    8.9013  -17.4045   21.1404 N   0  0  0  0  0  0  0  0  0  0  0  0
    8.7072  -16.3095   21.9783 C   0  0  1  0  0  0  0  0  0  0  0  0
    7.4092  -15.7445   22.2612 C   0  0  0  0  0  0  0  0  0  0  0  0
    7.4912  -14.3969   22.9047 C   0  0  0  0  0  0  0  0  0  0  0  0
    7.9935  -13.2287   22.3477 C   0  0  0  0  0  0  0  0  0  0  0  0
    7.8830  -12.2200   23.2302 N   0  0  0  0  0  0  0  0  0  0  0  0
    7.3227  -12.6859   24.3552 C   0  0  0  0  0  0  0  0  0  0  0  0
    7.0064  -12.0594   25.5349 C   0  0  0  0  0  0  0  0  0  0  0  0
    6.4286  -12.7361   26.5890 C   0  0  0  0  0  0  0  0  0  0  0  0
    6.1894  -14.0848   26.3797 C   0  0  0  0  0  0  0  0  0  0  0  0
    6.4957  -14.7382   25.2086 C   0  0  0  0  0  0  0  0  0  0  0  0
    7.0698  -14.0238   24.1857 C   0  0  0  0  0  0  0  0  0  0  0  0
    9.5115  -16.5072   23.2447 C   0  0  0  0  0  0  0  0  0  0  0  0
    9.6376  -17.6673   23.6828 O   0  0  0  0  0  0  0  0  0  0  0  0
   10.9571  -16.5046   31.5076 O   0  0  0  0  0  0  0  0  0  0  0  0
   10.8977  -16.0379   30.2034 C   0  0  0  0  0  0  0  0  0  0  0  0
    9.7332  -16.0183   29.4745 C   0  0  0  0  0  0  0  0  0  0  0  0
    9.7108  -15.5537   28.1973 C   0  0  0  0  0  0  0  0  0  0  0  0
   10.8513  -15.0710   27.5458 C   0  0  0  0  0  0  0  0  0  0  0  0
   10.7571  -14.6020   26.1513 C   0  0  0  0  0  0  0  0  0  0  0  0
   10.8707  -15.7451   25.2000 C   0  0  2  0  0  0  0  0  0  0  0  0
   10.1266  -15.4568   23.9574 N   0  0  0  0  0  0  0  0  0  0  0  0
   10.2931  -16.9691   25.7699 C   0  0  0  0  0  0  0  0  0  0  0  0
    8.9241  -17.1823   25.8861 O   0  0  0  0  0  0  0  0  0  0  0  0
   12.0146  -15.0948   28.2852 C   0  0  0  0  0  0  0  0  0  0  0  0
   12.0338  -15.5673   29.5825 C   0  0  0  0  0  0  0  0  0  0  0  0
   11.0460  -17.8833   26.1824 O   0  0  0  0  0  0  0  0  0  0  0  0
  2  1  1  1
  3  2  1  0
  4  2  1  0
  4  5  2  0
  6  4  1  0
  7  6  1  0
  7  8  1  1
  9  8  1  0
  9 17  1  0
 10  9  2  0
 11 10  1  0
 11 12  1  0
 12 13  1  0
 12 17  2  0
 13 14  2  0
 14 15  1  0
 16 15  2  0
 17 16  1  0
 18  7  1  0
 19 18  2  0
 20 21  1  0
 21 31  2  0
 21 22  1  0
 22 23  2  0
 23 24  1  0
 24 25  1  0
 26 25  1  1
 26 28  1  0
 26 27  1  0
 27 18  1  0
 28 29  1  0
 30 24  2  0
 31 30  1  0
 32 28  2  0
M  END
$$$$
