AWY.pdb
     RDKit          3D

 32 34  0  0  1  0  0  0  0  0999 V2000
   13.0345  -18.0932   19.9749 C   0  0  0  0  0  0  0  0  0  0  0  0
   11.6175  -18.2095   20.3814 C   0  0  2  0  0  0  0  0  0  0  0  0
   10.7444  -18.1440   19.2279 N   0  0  0  0  0  0  0  0  0  0  0  0
   11.1470  -17.2454   21.4000 C   0  0  0  0  0  0  0  0  0  0  0  0
   11.5657  -16.0868   21.3657 O   0  0  0  0  0  0  0  0  0  0  0  0
   10.2326  -17.5634   22.4303 N   0  0  0  0  0  0  0  0  0  0  0  0
    9.4639  -16.7465   23.2553 C   0  0  1  0  0  0  0  0  0  0  0  0
    8.0220  -16.7985   23.3057 C   0  0  0  0  0  0  0  0  0  0  0  0
    7.3775  -16.1940   22.0990 C   0  0  0  0  0  0  0  0  0  0  0  0
    6.4125  -16.7703   21.2840 C   0  0  0  0  0  0  0  0  0  0  0  0
    6.0694  -15.9109   20.3081 N   0  0  0  0  0  0  0  0  0  0  0  0
    6.7788  -14.7829   20.4528 C   0  0  0  0  0  0  0  0  0  0  0  0
    6.7944  -13.6236   19.7179 C   0  0  0  0  0  0  0  0  0  0  0  0
    7.6183  -12.5653   20.0408 C   0  0  0  0  0  0  0  0  0  0  0  0
    8.4261  -12.7487   21.1515 C   0  0  0  0  0  0  0  0  0  0  0  0
    8.4312  -13.8989   21.9061 C   0  0  0  0  0  0  0  0  0  0  0  0
    7.5938  -14.9266   21.5472 C   0  0  0  0  0  0  0  0  0  0  0  0
   10.0652  -16.7397   24.6437 C   0  0  0  0  0  0  0  0  0  0  0  0
   10.6489  -17.7697   25.0337 O   0  0  0  0  0  0  0  0  0  0  0  0
    5.6472  -11.7734   26.9489 O   0  0  0  0  0  0  0  0  0  0  0  0
    6.8756  -12.4039   27.0753 C   0  0  0  0  0  0  0  0  0  0  0  0
    7.7231  -12.5982   26.0115 C   0  0  0  0  0  0  0  0  0  0  0  0
    8.9209  -13.2205   26.1712 C   0  0  0  0  0  0  0  0  0  0  0  0
    9.3680  -13.6989   27.4078 C   0  0  0  0  0  0  0  0  0  0  0  0
   10.6702  -14.3836   27.5031 C   0  0  0  0  0  0  0  0  0  0  0  0
   10.6073  -15.7308   26.8663 C   0  0  2  0  0  0  0  0  0  0  0  0
   10.0047  -15.6371   25.5214 N   0  0  0  0  0  0  0  0  0  0  0  0
    9.7682  -16.6484   27.6477 C   0  0  0  0  0  0  0  0  0  0  0  0
    8.6292  -17.2604   27.1365 O   0  0  0  0  0  0  0  0  0  0  0  0
    8.5109  -13.4994   28.4690 C   0  0  0  0  0  0  0  0  0  0  0  0
    7.2948  -12.8666   28.3033 C   0  0  0  0  0  0  0  0  0  0  0  0
   10.0668  -16.9103   28.8372 O   0  0  0  0  0  0  0  0  0  0  0  0
  2  1  1  6
  3  2  1  0
  4  2  1  0
  4  5  2  0
  6  4  1  0
  7  6  1  0
  7  8  1  1
  9  8  1  0
  9 17  1  0
 10  9  2  0
 11 10  1  0
 11 12  1  0
 12 13  1  0
 12 17  2  0
 13 14  2  0
 14 15  1  0
 16 15  2  0
 17 16  1  0
 18  7  1  0
 19 18  2  0
 20 21  1  0
 21 31  2  0
 21 22  1  0
 22 23  2  0
 23 24  1  0
 24 25  1  0
 26 25  1  1
 26 28  1  0
 26 27  1  0
 27 18  1  0
 28 29  1  0
 30 24  2  0
 31 30  1  0
 32 28  2  0
M  END
$$$$
