AWY.pdb
     RDKit          3D

 32 34  0  0  1  0  0  0  0  0999 V2000
   11.6754  -19.7403   21.6541 C   0  0  0  0  0  0  0  0  0  0  0  0
   10.4156  -18.9985   21.4317 C   0  0  2  0  0  0  0  0  0  0  0  0
   10.0159  -19.0686   20.0415 N   0  0  0  0  0  0  0  0  0  0  0  0
   10.4018  -17.5853   21.8687 C   0  0  0  0  0  0  0  0  0  0  0  0
   11.1440  -16.7779   21.3063 O   0  0  0  0  0  0  0  0  0  0  0  0
    9.5815  -17.0837   22.9051 N   0  0  0  0  0  0  0  0  0  0  0  0
    9.5000  -15.8157   23.4746 C   0  0  1  0  0  0  0  0  0  0  0  0
    8.2572  -15.1042   23.6575 C   0  0  0  0  0  0  0  0  0  0  0  0
    7.4852  -14.9495   22.3859 C   0  0  0  0  0  0  0  0  0  0  0  0
    6.3803  -15.6849   21.9787 C   0  0  0  0  0  0  0  0  0  0  0  0
    5.9546  -15.2413   20.7826 N   0  0  0  0  0  0  0  0  0  0  0  0
    6.7451  -14.2342   20.3858 C   0  0  0  0  0  0  0  0  0  0  0  0
    6.7265  -13.4631   19.2504 C   0  0  0  0  0  0  0  0  0  0  0  0
    7.6514  -12.4632   19.0315 C   0  0  0  0  0  0  0  0  0  0  0  0
    8.5968  -12.2890   20.0294 C   0  0  0  0  0  0  0  0  0  0  0  0
    8.6391  -13.0464   21.1769 C   0  0  0  0  0  0  0  0  0  0  0  0
    7.6976  -14.0309   21.3522 C   0  0  0  0  0  0  0  0  0  0  0  0
   10.3457  -15.7815   24.7288 C   0  0  0  0  0  0  0  0  0  0  0  0
   10.1169  -14.8855   25.5647 O   0  0  0  0  0  0  0  0  0  0  0  0
    8.1191  -11.9588   27.8435 O   0  0  0  0  0  0  0  0  0  0  0  0
    8.8976  -13.1026   27.7526 C   0  0  0  0  0  0  0  0  0  0  0  0
   10.2651  -13.0818   27.8835 C   0  0  0  0  0  0  0  0  0  0  0  0
   10.9980  -14.2226   27.7887 C   0  0  0  0  0  0  0  0  0  0  0  0
   10.4224  -15.4766   27.5554 C   0  0  0  0  0  0  0  0  0  0  0  0
   11.2814  -16.6694   27.4430 C   0  0  0  0  0  0  0  0  0  0  0  0
   12.1678  -16.5723   26.2474 C   0  0  2  0  0  0  0  0  0  0  0  0
   11.3763  -16.7034   25.0077 N   0  0  0  0  0  0  0  0  0  0  0  0
   13.1629  -17.6523   26.2355 C   0  0  0  0  0  0  0  0  0  0  0  0
   14.1583  -17.7808   27.1977 O   0  0  0  0  0  0  0  0  0  0  0  0
    9.0500  -15.4871   27.4254 C   0  0  0  0  0  0  0  0  0  0  0  0
    8.3085  -14.3264   27.5224 C   0  0  0  0  0  0  0  0  0  0  0  0
   13.1405  -18.5140   25.3247 O   0  0  0  0  0  0  0  0  0  0  0  0
  2  1  1  6
  3  2  1  0
  4  2  1  0
  4  5  2  0
  6  4  1  0
  7  6  1  0
  7  8  1  1
  9  8  1  0
  9 17  1  0
 10  9  2  0
 11 10  1  0
 11 12  1  0
 12 13  1  0
 12 17  2  0
 13 14  2  0
 14 15  1  0
 16 15  2  0
 17 16  1  0
 18  7  1  0
 19 18  2  0
 20 21  1  0
 21 31  2  0
 21 22  1  0
 22 23  2  0
 23 24  1  0
 24 25  1  0
 26 25  1  1
 26 28  1  0
 26 27  1  0
 27 18  1  0
 28 29  1  0
 30 24  2  0
 31 30  1  0
 32 28  2  0
M  END
$$$$
