AWY.pdb
     RDKit          3D

 32 34  0  0  1  0  0  0  0  0999 V2000
    7.6801  -15.4070   18.9087 C   0  0  0  0  0  0  0  0  0  0  0  0
    7.2410  -15.6090   20.3062 C   0  0  2  0  0  0  0  0  0  0  0  0
    5.9529  -14.9881   20.5356 N   0  0  0  0  0  0  0  0  0  0  0  0
    8.1837  -15.1711   21.3588 C   0  0  0  0  0  0  0  0  0  0  0  0
    8.7053  -14.0581   21.2694 O   0  0  0  0  0  0  0  0  0  0  0  0
    8.5359  -15.9527   22.4830 N   0  0  0  0  0  0  0  0  0  0  0  0
    9.4829  -15.7434   23.4821 C   0  0  1  0  0  0  0  0  0  0  0  0
    9.1717  -15.7717   24.8915 C   0  0  0  0  0  0  0  0  0  0  0  0
    7.8590  -15.1289   25.2085 C   0  0  0  0  0  0  0  0  0  0  0  0
    6.6156  -15.7433   25.2711 C   0  0  0  0  0  0  0  0  0  0  0  0
    5.6772  -14.8380   25.6000 N   0  0  0  0  0  0  0  0  0  0  0  0
    6.2623  -13.6423   25.7568 C   0  0  0  0  0  0  0  0  0  0  0  0
    5.7404  -12.4158   26.0844 C   0  0  0  0  0  0  0  0  0  0  0  0
    6.5312  -11.2905   26.1908 C   0  0  0  0  0  0  0  0  0  0  0  0
    7.8820  -11.4789   25.9463 C   0  0  0  0  0  0  0  0  0  0  0  0
    8.4322  -12.6957   25.6165 C   0  0  0  0  0  0  0  0  0  0  0  0
    7.6062  -13.7890   25.5222 C   0  0  0  0  0  0  0  0  0  0  0  0
   10.7176  -16.5614   23.1725 C   0  0  0  0  0  0  0  0  0  0  0  0
   10.5659  -17.6512   22.5868 O   0  0  0  0  0  0  0  0  0  0  0  0
   11.2907  -16.4540   31.2082 O   0  0  0  0  0  0  0  0  0  0  0  0
   11.4046  -16.1200   29.8673 C   0  0  0  0  0  0  0  0  0  0  0  0
   10.7471  -15.0496   29.3107 C   0  0  0  0  0  0  0  0  0  0  0  0
   10.8813  -14.7505   27.9916 C   0  0  0  0  0  0  0  0  0  0  0  0
   11.6840  -15.4977   27.1225 C   0  0  0  0  0  0  0  0  0  0  0  0
   11.7658  -15.1276   25.6977 C   0  0  0  0  0  0  0  0  0  0  0  0
   12.4696  -16.1851   24.9161 C   0  0  2  0  0  0  0  0  0  0  0  0
   12.0288  -16.1633   23.5069 N   0  0  0  0  0  0  0  0  0  0  0  0
   12.1643  -17.5231   25.4389 C   0  0  0  0  0  0  0  0  0  0  0  0
   13.1234  -18.3574   26.0022 O   0  0  0  0  0  0  0  0  0  0  0  0
   12.3394  -16.5695   27.6901 C   0  0  0  0  0  0  0  0  0  0  0  0
   12.2010  -16.8705   29.0306 C   0  0  0  0  0  0  0  0  0  0  0  0
   10.9910  -17.9628   25.3865 O   0  0  0  0  0  0  0  0  0  0  0  0
  2  1  1  6
  3  2  1  0
  4  2  1  0
  4  5  2  0
  6  4  1  0
  7  6  1  0
  7  8  1  1
  9  8  1  0
  9 17  1  0
 10  9  2  0
 11 10  1  0
 11 12  1  0
 12 13  1  0
 12 17  2  0
 13 14  2  0
 14 15  1  0
 16 15  2  0
 17 16  1  0
 18  7  1  0
 19 18  2  0
 20 21  1  0
 21 31  2  0
 21 22  1  0
 22 23  2  0
 23 24  1  0
 24 25  1  0
 26 25  1  1
 26 28  1  0
 26 27  1  0
 27 18  1  0
 28 29  1  0
 30 24  2  0
 31 30  1  0
 32 28  2  0
M  END
$$$$
