AWY.pdb
     RDKit          3D

 32 34  0  0  1  0  0  0  0  0999 V2000
    8.2994  -19.3271   18.9785 C   0  0  0  0  0  0  0  0  0  0  0  0
    8.6856  -19.0237   20.3733 C   0  0  2  0  0  0  0  0  0  0  0  0
    7.6263  -19.3879   21.2912 N   0  0  0  0  0  0  0  0  0  0  0  0
    9.1075  -17.6327   20.6484 C   0  0  0  0  0  0  0  0  0  0  0  0
   10.1116  -17.1901   20.0874 O   0  0  0  0  0  0  0  0  0  0  0  0
    8.4277  -16.7566   21.5254 N   0  0  0  0  0  0  0  0  0  0  0  0
    8.6006  -15.3980   21.7766 C   0  0  1  0  0  0  0  0  0  0  0  0
    7.5326  -14.5261   22.2047 C   0  0  0  0  0  0  0  0  0  0  0  0
    7.1147  -14.7727   23.6195 C   0  0  0  0  0  0  0  0  0  0  0  0
    6.6206  -15.9539   24.1561 C   0  0  0  0  0  0  0  0  0  0  0  0
    6.3713  -15.7883   25.4672 N   0  0  0  0  0  0  0  0  0  0  0  0
    6.6855  -14.5324   25.8144 C   0  0  0  0  0  0  0  0  0  0  0  0
    6.6087  -13.8812   27.0203 C   0  0  0  0  0  0  0  0  0  0  0  0
    6.9851  -12.5617   27.1629 C   0  0  0  0  0  0  0  0  0  0  0  0
    7.4442  -11.9393   26.0133 C   0  0  0  0  0  0  0  0  0  0  0  0
    7.5320  -12.5670   24.7924 C   0  0  0  0  0  0  0  0  0  0  0  0
    7.1462  -13.8817   24.6978 C   0  0  0  0  0  0  0  0  0  0  0  0
    9.8426  -15.2049   22.6189 C   0  0  0  0  0  0  0  0  0  0  0  0
   10.2806  -14.0462   22.7587 O   0  0  0  0  0  0  0  0  0  0  0  0
   11.2545  -14.7637   30.9012 O   0  0  0  0  0  0  0  0  0  0  0  0
   10.8925  -15.0095   29.5855 C   0  0  0  0  0  0  0  0  0  0  0  0
   10.7942  -14.0135   28.6444 C   0  0  0  0  0  0  0  0  0  0  0  0
   10.4364  -14.2899   27.3625 C   0  0  0  0  0  0  0  0  0  0  0  0
   10.1480  -15.5851   26.9183 C   0  0  0  0  0  0  0  0  0  0  0  0
    9.7454  -15.8084   25.5177 C   0  0  0  0  0  0  0  0  0  0  0  0
   10.9308  -16.1294   24.6714 C   0  0  2  0  0  0  0  0  0  0  0  0
   10.5329  -16.2577   23.2551 N   0  0  0  0  0  0  0  0  0  0  0  0
   11.5320  -17.4104   25.0642 C   0  0  0  0  0  0  0  0  0  0  0  0
   11.4132  -18.5709   24.3077 O   0  0  0  0  0  0  0  0  0  0  0  0
   10.2492  -16.5776   27.8698 C   0  0  0  0  0  0  0  0  0  0  0  0
   10.6132  -16.2932   29.1710 C   0  0  0  0  0  0  0  0  0  0  0  0
   12.1883  -17.4932   26.1297 O   0  0  0  0  0  0  0  0  0  0  0  0
  2  1  1  6
  3  2  1  0
  4  2  1  0
  4  5  2  0
  6  4  1  0
  7  6  1  0
  7  8  1  1
  9  8  1  0
  9 17  1  0
 10  9  2  0
 11 10  1  0
 11 12  1  0
 12 13  1  0
 12 17  2  0
 13 14  2  0
 14 15  1  0
 16 15  2  0
 17 16  1  0
 18  7  1  0
 19 18  2  0
 20 21  1  0
 21 31  2  0
 21 22  1  0
 22 23  2  0
 23 24  1  0
 24 25  1  0
 26 25  1  1
 26 28  1  0
 26 27  1  0
 27 18  1  0
 28 29  1  0
 30 24  2  0
 31 30  1  0
 32 28  2  0
M  END
$$$$
