AWY.pdb
     RDKit          3D

 32 34  0  0  1  0  0  0  0  0999 V2000
    6.8264  -14.3722   19.9792 C   0  0  0  0  0  0  0  0  0  0  0  0
    7.5232  -15.6036   20.4092 C   0  0  2  0  0  0  0  0  0  0  0  0
    6.5758  -16.5941   20.8766 N   0  0  0  0  0  0  0  0  0  0  0  0
    8.5865  -15.4342   21.4236 C   0  0  0  0  0  0  0  0  0  0  0  0
    9.5654  -14.7359   21.1533 O   0  0  0  0  0  0  0  0  0  0  0  0
    8.5600  -16.0269   22.7068 N   0  0  0  0  0  0  0  0  0  0  0  0
    9.4183  -15.8914   23.7948 C   0  0  1  0  0  0  0  0  0  0  0  0
    8.9876  -16.0111   25.1675 C   0  0  0  0  0  0  0  0  0  0  0  0
    7.8074  -15.1479   25.4822 C   0  0  0  0  0  0  0  0  0  0  0  0
    6.4843  -15.5479   25.6120 C   0  0  0  0  0  0  0  0  0  0  0  0
    5.7159  -14.4863   25.9140 N   0  0  0  0  0  0  0  0  0  0  0  0
    6.4911  -13.3954   25.9877 C   0  0  0  0  0  0  0  0  0  0  0  0
    6.1852  -12.0851   26.2593 C   0  0  0  0  0  0  0  0  0  0  0  0
    7.1501  -11.0994   26.2813 C   0  0  0  0  0  0  0  0  0  0  0  0
    8.4435  -11.5173   26.0123 C   0  0  0  0  0  0  0  0  0  0  0  0
    8.7788  -12.8227   25.7373 C   0  0  0  0  0  0  0  0  0  0  0  0
    7.7847  -13.7705   25.7264 C   0  0  0  0  0  0  0  0  0  0  0  0
   10.6737  -16.6960   23.5377 C   0  0  0  0  0  0  0  0  0  0  0  0
   10.5523  -17.8141   23.0000 O   0  0  0  0  0  0  0  0  0  0  0  0
   12.3804  -13.3402   18.3756 O   0  0  0  0  0  0  0  0  0  0  0  0
   12.8372  -14.0356   19.4847 C   0  0  0  0  0  0  0  0  0  0  0  0
   13.2573  -15.3422   19.4203 C   0  0  0  0  0  0  0  0  0  0  0  0
   13.6994  -15.9941   20.5280 C   0  0  0  0  0  0  0  0  0  0  0  0
   13.7573  -15.3920   21.7898 C   0  0  0  0  0  0  0  0  0  0  0  0
   14.2282  -16.1668   22.9523 C   0  0  0  0  0  0  0  0  0  0  0  0
   13.1471  -17.0548   23.4693 C   0  0  2  0  0  0  0  0  0  0  0  0
   11.9718  -16.2555   23.8698 N   0  0  0  0  0  0  0  0  0  0  0  0
   13.5895  -17.7911   24.6604 C   0  0  0  0  0  0  0  0  0  0  0  0
   12.9346  -17.7217   25.8850 O   0  0  0  0  0  0  0  0  0  0  0  0
   13.3337  -14.0812   21.8443 C   0  0  0  0  0  0  0  0  0  0  0  0
   12.8853  -13.4218   20.7170 C   0  0  0  0  0  0  0  0  0  0  0  0
   14.6052  -18.5243   24.6017 O   0  0  0  0  0  0  0  0  0  0  0  0
  2  1  1  1
  3  2  1  0
  4  2  1  0
  4  5  2  0
  6  4  1  0
  7  6  1  0
  7  8  1  1
  9  8  1  0
  9 17  1  0
 10  9  2  0
 11 10  1  0
 11 12  1  0
 12 13  1  0
 12 17  2  0
 13 14  2  0
 14 15  1  0
 16 15  2  0
 17 16  1  0
 18  7  1  0
 19 18  2  0
 20 21  1  0
 21 31  2  0
 21 22  1  0
 22 23  2  0
 23 24  1  0
 24 25  1  0
 26 25  1  1
 26 28  1  0
 26 27  1  0
 27 18  1  0
 28 29  1  0
 30 24  2  0
 31 30  1  0
 32 28  2  0
M  END
$$$$
