AWY.pdb
     RDKit          3D

 32 34  0  0  1  0  0  0  0  0999 V2000
   11.5851  -15.5431   18.4550 C   0  0  0  0  0  0  0  0  0  0  0  0
   11.2027  -16.4931   19.5218 C   0  0  2  0  0  0  0  0  0  0  0  0
   10.2004  -17.4241   19.0465 N   0  0  0  0  0  0  0  0  0  0  0  0
   10.7446  -15.8973   20.7960 C   0  0  0  0  0  0  0  0  0  0  0  0
   11.5233  -15.1931   21.4413 O   0  0  0  0  0  0  0  0  0  0  0  0
    9.4515  -16.0806   21.3375 N   0  0  0  0  0  0  0  0  0  0  0  0
    8.8706  -15.5907   22.5042 C   0  0  1  0  0  0  0  0  0  0  0  0
    7.4474  -15.5935   22.7461 C   0  0  0  0  0  0  0  0  0  0  0  0
    7.0866  -15.0456   24.0901 C   0  0  0  0  0  0  0  0  0  0  0  0
    6.6774  -15.7611   25.2073 C   0  0  0  0  0  0  0  0  0  0  0  0
    6.4582  -14.9181   26.2319 N   0  0  0  0  0  0  0  0  0  0  0  0
    6.7097  -13.6657   25.8261 C   0  0  0  0  0  0  0  0  0  0  0  0
    6.6314  -12.4668   26.4899 C   0  0  0  0  0  0  0  0  0  0  0  0
    6.9353  -11.2701   25.8746 C   0  0  0  0  0  0  0  0  0  0  0  0
    7.3234  -11.3575   24.5473 C   0  0  0  0  0  0  0  0  0  0  0  0
    7.4109  -12.5444   23.8575 C   0  0  0  0  0  0  0  0  0  0  0  0
    7.0988  -13.7113   24.5112 C   0  0  0  0  0  0  0  0  0  0  0  0
    9.6347  -16.1213   23.6976 C   0  0  0  0  0  0  0  0  0  0  0  0
   10.0082  -17.3102   23.6719 O   0  0  0  0  0  0  0  0  0  0  0  0
   12.5928  -17.4552   31.8674 O   0  0  0  0  0  0  0  0  0  0  0  0
   12.1778  -16.8392   30.6966 C   0  0  0  0  0  0  0  0  0  0  0  0
   10.9978  -16.1417   30.6029 C   0  0  0  0  0  0  0  0  0  0  0  0
   10.6214  -15.5496   29.4388 C   0  0  0  0  0  0  0  0  0  0  0  0
   11.3947  -15.6074   28.2740 C   0  0  0  0  0  0  0  0  0  0  0  0
   10.9136  -14.9593   27.0403 C   0  0  0  0  0  0  0  0  0  0  0  0
   10.6432  -15.9736   25.9808 C   0  0  2  0  0  0  0  0  0  0  0  0
    9.9492  -15.3501   24.8361 N   0  0  0  0  0  0  0  0  0  0  0  0
    9.7687  -17.0424   26.4802 C   0  0  0  0  0  0  0  0  0  0  0  0
   10.2497  -18.2393   26.9992 O   0  0  0  0  0  0  0  0  0  0  0  0
   12.5766  -16.3094   28.3778 C   0  0  0  0  0  0  0  0  0  0  0  0
   12.9560  -16.9095   29.5621 C   0  0  0  0  0  0  0  0  0  0  0  0
    8.5233  -16.8985   26.4481 O   0  0  0  0  0  0  0  0  0  0  0  0
  2  1  1  6
  3  2  1  0
  4  2  1  0
  4  5  2  0
  6  4  1  0
  7  6  1  0
  7  8  1  1
  9  8  1  0
  9 17  1  0
 10  9  2  0
 11 10  1  0
 11 12  1  0
 12 13  1  0
 12 17  2  0
 13 14  2  0
 14 15  1  0
 16 15  2  0
 17 16  1  0
 18  7  1  0
 19 18  2  0
 20 21  1  0
 21 31  2  0
 21 22  1  0
 22 23  2  0
 23 24  1  0
 24 25  1  0
 26 25  1  1
 26 28  1  0
 26 27  1  0
 27 18  1  0
 28 29  1  0
 30 24  2  0
 31 30  1  0
 32 28  2  0
M  END
$$$$
