AWY.pdb
     RDKit          3D

 32 34  0  0  1  0  0  0  0  0999 V2000
    4.6040  -16.2787   20.4556 C   0  0  0  0  0  0  0  0  0  0  0  0
    5.9273  -16.9344   20.5291 C   0  0  2  0  0  0  0  0  0  0  0  0
    5.8132  -18.2610   21.0987 N   0  0  0  0  0  0  0  0  0  0  0  0
    6.9881  -16.1906   21.2431 C   0  0  0  0  0  0  0  0  0  0  0  0
    7.3932  -15.1263   20.7721 O   0  0  0  0  0  0  0  0  0  0  0  0
    7.5822  -16.6209   22.4517 N   0  0  0  0  0  0  0  0  0  0  0  0
    8.5719  -16.0416   23.2415 C   0  0  1  0  0  0  0  0  0  0  0  0
    8.6247  -16.1780   24.6777 C   0  0  0  0  0  0  0  0  0  0  0  0
    7.5695  -15.3798   25.3751 C   0  0  0  0  0  0  0  0  0  0  0  0
    6.2971  -15.8022   25.7357 C   0  0  0  0  0  0  0  0  0  0  0  0
    5.6462  -14.8038   26.3587 N   0  0  0  0  0  0  0  0  0  0  0  0
    6.4499  -13.7329   26.4211 C   0  0  0  0  0  0  0  0  0  0  0  0
    6.2504  -12.4816   26.9490 C   0  0  0  0  0  0  0  0  0  0  0  0
    7.2244  -11.5059   26.9033 C   0  0  0  0  0  0  0  0  0  0  0  0
    8.4132  -11.8705   26.2918 C   0  0  0  0  0  0  0  0  0  0  0  0
    8.6408  -13.1163   25.7547 C   0  0  0  0  0  0  0  0  0  0  0  0
    7.6419  -14.0564   25.8235 C   0  0  0  0  0  0  0  0  0  0  0  0
    9.9228  -16.3021   22.6118 C   0  0  0  0  0  0  0  0  0  0  0  0
   10.1724  -17.4587   22.2196 O   0  0  0  0  0  0  0  0  0  0  0  0
    8.0208  -13.6115   17.1602 O   0  0  0  0  0  0  0  0  0  0  0  0
    9.0906  -13.8166   18.0180 C   0  0  0  0  0  0  0  0  0  0  0  0
    9.9292  -14.8998   17.9128 C   0  0  0  0  0  0  0  0  0  0  0  0
   10.9691  -15.0701   18.7713 C   0  0  0  0  0  0  0  0  0  0  0  0
   11.2545  -14.1707   19.8046 C   0  0  0  0  0  0  0  0  0  0  0  0
   12.3870  -14.4302   20.7122 C   0  0  0  0  0  0  0  0  0  0  0  0
   12.0968  -15.5918   21.6015 C   0  0  2  0  0  0  0  0  0  0  0  0
   10.9151  -15.3140   22.4424 N   0  0  0  0  0  0  0  0  0  0  0  0
   13.2177  -15.8553   22.5129 C   0  0  0  0  0  0  0  0  0  0  0  0
   13.1100  -15.7700   23.8965 O   0  0  0  0  0  0  0  0  0  0  0  0
   10.4076  -13.0872   19.9022 C   0  0  0  0  0  0  0  0  0  0  0  0
    9.3522  -12.9172   19.0282 C   0  0  0  0  0  0  0  0  0  0  0  0
   14.3393  -16.1726   22.0504 O   0  0  0  0  0  0  0  0  0  0  0  0
  2  1  1  1
  3  2  1  0
  4  2  1  0
  4  5  2  0
  6  4  1  0
  7  6  1  0
  7  8  1  1
  9  8  1  0
  9 17  1  0
 10  9  2  0
 11 10  1  0
 11 12  1  0
 12 13  1  0
 12 17  2  0
 13 14  2  0
 14 15  1  0
 16 15  2  0
 17 16  1  0
 18  7  1  0
 19 18  2  0
 20 21  1  0
 21 31  2  0
 21 22  1  0
 22 23  2  0
 23 24  1  0
 24 25  1  0
 26 25  1  6
 26 28  1  0
 26 27  1  0
 27 18  1  0
 28 29  1  0
 30 24  2  0
 31 30  1  0
 32 28  2  0
M  END
$$$$
