AWY.pdb
     RDKit          3D

 32 34  0  0  1  0  0  0  0  0999 V2000
    9.5665  -18.4288   18.7190 C   0  0  0  0  0  0  0  0  0  0  0  0
    9.8174  -18.3125   20.1717 C   0  0  2  0  0  0  0  0  0  0  0  0
    8.8886  -19.1327   20.9213 N   0  0  0  0  0  0  0  0  0  0  0  0
    9.8127  -16.9424   20.7296 C   0  0  0  0  0  0  0  0  0  0  0  0
   10.6475  -16.1299   20.3276 O   0  0  0  0  0  0  0  0  0  0  0  0
    8.9007  -16.4885   21.7099 N   0  0  0  0  0  0  0  0  0  0  0  0
    8.7446  -15.2397   22.3055 C   0  0  1  0  0  0  0  0  0  0  0  0
    7.4835  -14.5395   22.3665 C   0  0  0  0  0  0  0  0  0  0  0  0
    6.8950  -14.5238   23.7415 C   0  0  0  0  0  0  0  0  0  0  0  0
    6.4172  -15.6090   24.4636 C   0  0  0  0  0  0  0  0  0  0  0  0
    5.9803  -15.1974   25.6670 N   0  0  0  0  0  0  0  0  0  0  0  0
    6.1545  -13.8719   25.7629 C   0  0  0  0  0  0  0  0  0  0  0  0
    5.8680  -12.9929   26.7776 C   0  0  0  0  0  0  0  0  0  0  0  0
    6.1271  -11.6424   26.6688 C   0  0  0  0  0  0  0  0  0  0  0  0
    6.6936  -11.2328   25.4724 C   0  0  0  0  0  0  0  0  0  0  0  0
    6.9913  -12.0909   24.4393 C   0  0  0  0  0  0  0  0  0  0  0  0
    6.7161  -13.4278   24.5925 C   0  0  0  0  0  0  0  0  0  0  0  0
    9.4406  -15.2420   23.6490 C   0  0  0  0  0  0  0  0  0  0  0  0
    8.8633  -14.6937   24.6081 O   0  0  0  0  0  0  0  0  0  0  0  0
   12.2851  -16.3957   31.5105 O   0  0  0  0  0  0  0  0  0  0  0  0
   11.7798  -16.4001   30.2193 C   0  0  0  0  0  0  0  0  0  0  0  0
   11.6404  -17.5503   29.4809 C   0  0  0  0  0  0  0  0  0  0  0  0
   11.1411  -17.5184   28.2171 C   0  0  0  0  0  0  0  0  0  0  0  0
   10.7409  -16.3335   27.5895 C   0  0  0  0  0  0  0  0  0  0  0  0
   10.2279  -16.3713   26.2079 C   0  0  0  0  0  0  0  0  0  0  0  0
   11.2557  -15.8742   25.2482 C   0  0  2  0  0  0  0  0  0  0  0  0
   10.7028  -15.8280   23.8797 N   0  0  0  0  0  0  0  0  0  0  0  0
   12.4207  -16.7674   25.2087 C   0  0  0  0  0  0  0  0  0  0  0  0
   12.4336  -17.9713   24.5132 O   0  0  0  0  0  0  0  0  0  0  0  0
   10.8846  -15.1849   28.3383 C   0  0  0  0  0  0  0  0  0  0  0  0
   11.3920  -15.2209   29.6220 C   0  0  0  0  0  0  0  0  0  0  0  0
   13.4684  -16.4572   25.8242 O   0  0  0  0  0  0  0  0  0  0  0  0
  2  1  1  6
  3  2  1  0
  4  2  1  0
  4  5  2  0
  6  4  1  0
  7  6  1  0
  7  8  1  1
  9  8  1  0
  9 17  1  0
 10  9  2  0
 11 10  1  0
 11 12  1  0
 12 13  1  0
 12 17  2  0
 13 14  2  0
 14 15  1  0
 16 15  2  0
 17 16  1  0
 18  7  1  0
 19 18  2  0
 20 21  1  0
 21 31  2  0
 21 22  1  0
 22 23  2  0
 23 24  1  0
 24 25  1  0
 26 25  1  1
 26 28  1  0
 26 27  1  0
 27 18  1  0
 28 29  1  0
 30 24  2  0
 31 30  1  0
 32 28  2  0
M  END
$$$$
