GDT.pdb
     RDKit          3D

 20 19  0  0  1  0  0  0  0  0999 V2000
    5.3351  -18.3798   19.4849 N   0  0  0  0  0  0  0  0  0  0  0  0
    5.8337  -17.2458   20.2337 C   0  0  0  0  0  0  0  0  0  0  0  0
    7.1171  -17.5937   20.9349 C   0  0  0  0  0  0  0  0  0  0  0  0
    7.2092  -18.5401   21.7382 O   0  0  0  0  0  0  0  0  0  0  0  0
    8.2311  -16.7927   20.6424 N   0  0  0  0  0  0  0  0  0  0  0  0
    9.5333  -16.9395   21.3633 C   0  0  1  0  0  0  0  0  0  0  0  0
   10.5080  -16.2637   20.4691 C   0  0  0  0  0  0  0  0  0  0  0  0
   11.1191  -16.9861   19.3734 C   0  0  0  0  0  0  0  0  0  0  0  0
   11.0541  -18.2051   19.1511 O   0  0  0  0  0  0  0  0  0  0  0  0
    9.3447  -16.1520   22.6285 C   0  0  0  0  0  0  0  0  0  0  0  0
    9.7892  -14.9532   22.6273 O   0  0  0  0  0  0  0  0  0  0  0  0
   11.8915  -16.2498   18.4207 O   0  0  0  0  0  0  0  0  0  0  0  0
    7.1811  -13.9698   24.2358 C   0  0  0  0  0  0  0  0  0  0  0  0
    7.4321  -15.0556   25.2399 C   0  0  1  0  0  0  0  0  0  0  0  0
    6.2967  -15.8893   25.2143 O   0  0  0  0  0  0  0  0  0  0  0  0
    8.6801  -15.8292   25.0090 C   0  0  2  0  0  0  0  0  0  0  0  0
    8.7261  -16.6013   23.8027 N   0  0  0  0  0  0  0  0  0  0  0  0
    9.2559  -16.4659   26.2188 C   0  0  0  0  0  0  0  0  0  0  0  0
    9.2664  -15.6830   27.3957 O   0  0  0  0  0  0  0  0  0  0  0  0
    9.7312  -17.5903   26.3456 O   0  0  0  0  0  0  0  0  0  0  0  0
  2  1  1  0
  2  3  1  0
  3  4  2  0
  5  3  1  0
  5  6  1  0
  6  7  1  6
  7  8  1  0
  8 12  1  0
  9  8  2  0
 10 11  2  0
 10  6  1  0
 14 13  1  6
 14 16  1  0
 15 14  1  0
 16 17  1  6
 17 10  1  0
 18 19  1  0
 18 16  1  0
 20 18  2  0
M  END
$$$$
