GDT.pdb
     RDKit          3D

 20 19  0  0  1  0  0  0  0  0999 V2000
   10.6334  -17.3281   15.0091 N   0  0  0  0  0  0  0  0  0  0  0  0
   11.2056  -16.0784   15.4633 C   0  0  0  0  0  0  0  0  0  0  0  0
   11.7226  -16.2094   16.8688 C   0  0  0  0  0  0  0  0  0  0  0  0
   11.5211  -17.2194   17.5679 O   0  0  0  0  0  0  0  0  0  0  0  0
   12.4568  -15.1254   17.3728 N   0  0  0  0  0  0  0  0  0  0  0  0
   13.0472  -15.1291   18.7471 C   0  0  1  0  0  0  0  0  0  0  0  0
   14.0731  -14.0563   18.6915 C   0  0  0  0  0  0  0  0  0  0  0  0
   15.3352  -14.2845   18.0201 C   0  0  0  0  0  0  0  0  0  0  0  0
   15.8805  -13.5513   17.1808 O   0  0  0  0  0  0  0  0  0  0  0  0
   11.9081  -14.7236   19.6384 C   0  0  0  0  0  0  0  0  0  0  0  0
   12.2016  -14.4500   20.8524 O   0  0  0  0  0  0  0  0  0  0  0  0
   16.0645  -15.4754   18.3304 O   0  0  0  0  0  0  0  0  0  0  0  0
    9.0980  -11.9722   19.4037 C   0  0  0  0  0  0  0  0  0  0  0  0
    8.5150  -13.3079   19.7585 C   0  0  1  0  0  0  0  0  0  0  0  0
    7.8072  -13.7461   18.6219 O   0  0  0  0  0  0  0  0  0  0  0  0
    9.5139  -14.3166   20.1993 C   0  0  2  0  0  0  0  0  0  0  0  0
   10.5616  -14.6115   19.2673 N   0  0  0  0  0  0  0  0  0  0  0  0
    8.9529  -15.4704   20.9439 C   0  0  0  0  0  0  0  0  0  0  0  0
    9.4837  -16.7412   20.6254 O   0  0  0  0  0  0  0  0  0  0  0  0
    8.0818  -15.4796   21.8083 O   0  0  0  0  0  0  0  0  0  0  0  0
  2  1  1  0
  2  3  1  0
  3  4  2  0
  5  3  1  0
  5  6  1  0
  6  7  1  6
  7  8  1  0
  8 12  1  0
  9  8  2  0
 10 11  2  0
 10  6  1  0
 14 13  1  6
 14 16  1  0
 15 14  1  0
 16 17  1  6
 17 10  1  0
 18 19  1  0
 18 16  1  0
 20 18  2  0
M  END
$$$$
