GDT.pdb
     RDKit          3D

 20 19  0  0  1  0  0  0  0  0999 V2000
    9.5507  -16.5750   14.9534 N   0  0  0  0  0  0  0  0  0  0  0  0
   10.6804  -15.7408   15.3045 C   0  0  0  0  0  0  0  0  0  0  0  0
   11.4480  -16.3389   16.4504 C   0  0  0  0  0  0  0  0  0  0  0  0
   11.0032  -17.2726   17.1430 O   0  0  0  0  0  0  0  0  0  0  0  0
   12.7125  -15.7917   16.7144 N   0  0  0  0  0  0  0  0  0  0  0  0
   13.6442  -16.3816   17.7250 C   0  0  1  0  0  0  0  0  0  0  0  0
   14.9504  -15.7484   17.4102 C   0  0  0  0  0  0  0  0  0  0  0  0
   15.7006  -16.1596   16.2423 C   0  0  0  0  0  0  0  0  0  0  0  0
   16.3978  -15.4416   15.5088 O   0  0  0  0  0  0  0  0  0  0  0  0
   13.1211  -15.8843   19.0425 C   0  0  0  0  0  0  0  0  0  0  0  0
   13.3530  -14.6588   19.3237 O   0  0  0  0  0  0  0  0  0  0  0  0
   15.6591  -17.5369   15.8582 O   0  0  0  0  0  0  0  0  0  0  0  0
    9.6495  -15.5194   20.4544 C   0  0  0  0  0  0  0  0  0  0  0  0
   10.5030  -16.1656   21.5051 C   0  0  1  0  0  0  0  0  0  0  0  0
   10.0637  -17.5003   21.6071 O   0  0  0  0  0  0  0  0  0  0  0  0
   11.9638  -16.0928   21.2401 C   0  0  2  0  0  0  0  0  0  0  0  0
   12.4020  -16.6299   19.9860 N   0  0  0  0  0  0  0  0  0  0  0  0
   12.8283  -16.3727   22.4126 C   0  0  0  0  0  0  0  0  0  0  0  0
   13.8640  -17.3148   22.2185 O   0  0  0  0  0  0  0  0  0  0  0  0
   12.7717  -15.8971   23.5426 O   0  0  0  0  0  0  0  0  0  0  0  0
  2  1  1  0
  2  3  1  0
  3  4  2  0
  5  3  1  0
  5  6  1  0
  6  7  1  6
  7  8  1  0
  8 12  1  0
  9  8  2  0
 10 11  2  0
 10  6  1  0
 14 13  1  6
 14 16  1  0
 15 14  1  0
 16 17  1  6
 17 10  1  0
 18 19  1  0
 18 16  1  0
 20 18  2  0
M  END
$$$$
