GDT.pdb
     RDKit          3D

 20 19  0  0  1  0  0  0  0  0999 V2000
    7.3354  -13.1698   14.8754 N   0  0  0  0  0  0  0  0  0  0  0  0
    8.6608  -13.4248   15.3987 C   0  0  0  0  0  0  0  0  0  0  0  0
    8.6629  -14.6515   16.2677 C   0  0  0  0  0  0  0  0  0  0  0  0
    7.6182  -15.2371   16.6068 O   0  0  0  0  0  0  0  0  0  0  0  0
    9.9156  -15.1205   16.6909 N   0  0  0  0  0  0  0  0  0  0  0  0
   10.0619  -16.2792   17.6255 C   0  0  1  0  0  0  0  0  0  0  0  0
   11.4326  -16.7811   17.3509 C   0  0  0  0  0  0  0  0  0  0  0  0
   11.6795  -17.6572   16.2252 C   0  0  0  0  0  0  0  0  0  0  0  0
   12.7610  -17.8489   15.6482 O   0  0  0  0  0  0  0  0  0  0  0  0
    9.9908  -15.6608   18.9926 C   0  0  0  0  0  0  0  0  0  0  0  0
   10.8846  -14.7906   19.2735 O   0  0  0  0  0  0  0  0  0  0  0  0
   10.5813  -18.4012   15.6895 O   0  0  0  0  0  0  0  0  0  0  0  0
    7.4410  -13.4432   20.5176 C   0  0  0  0  0  0  0  0  0  0  0  0
    7.7688  -14.4929   21.5377 C   0  0  1  0  0  0  0  0  0  0  0  0
    6.6409  -15.3332   21.6184 O   0  0  0  0  0  0  0  0  0  0  0  0
    9.0040  -15.2671   21.2473 C   0  0  2  0  0  0  0  0  0  0  0  0
    9.0401  -15.9407   19.9831 N   0  0  0  0  0  0  0  0  0  0  0  0
    9.5653  -16.0086   22.4030 C   0  0  0  0  0  0  0  0  0  0  0  0
    9.6485  -15.3000   23.6232 O   0  0  0  0  0  0  0  0  0  0  0  0
    9.9738  -17.1649   22.4517 O   0  0  0  0  0  0  0  0  0  0  0  0
  2  1  1  0
  2  3  1  0
  3  4  2  0
  5  3  1  0
  5  6  1  0
  6  7  1  6
  7  8  1  0
  8 12  1  0
  9  8  2  0
 10 11  2  0
 10  6  1  0
 14 13  1  6
 14 16  1  0
 15 14  1  0
 16 17  1  6
 17 10  1  0
 18 19  1  0
 18 16  1  0
 20 18  2  0
M  END
$$$$
