GDT.pdb
     RDKit          3D

 20 19  0  0  1  0  0  0  0  0999 V2000
    6.6277  -19.6643   24.6638 N   0  0  0  0  0  0  0  0  0  0  0  0
    6.2243  -18.4375   24.0100 C   0  0  0  0  0  0  0  0  0  0  0  0
    7.4022  -17.5228   23.8213 C   0  0  0  0  0  0  0  0  0  0  0  0
    8.5164  -17.7480   24.3285 O   0  0  0  0  0  0  0  0  0  0  0  0
    7.1922  -16.3805   23.0344 N   0  0  0  0  0  0  0  0  0  0  0  0
    8.2802  -15.3947   22.7487 C   0  0  1  0  0  0  0  0  0  0  0  0
    7.8416  -14.7428   21.4882 C   0  0  0  0  0  0  0  0  0  0  0  0
    7.9678  -15.4357   20.2234 C   0  0  0  0  0  0  0  0  0  0  0  0
    8.6254  -16.4626   19.9942 O   0  0  0  0  0  0  0  0  0  0  0  0
    8.2102  -14.4265   23.8951 C   0  0  0  0  0  0  0  0  0  0  0  0
    7.7714  -13.2556   23.6284 O   0  0  0  0  0  0  0  0  0  0  0  0
    7.2737  -14.9101   19.0884 O   0  0  0  0  0  0  0  0  0  0  0  0
    6.5683  -12.4743   25.0670 C   0  0  0  0  0  0  0  0  0  0  0  0
    6.9936  -13.1399   26.3422 C   0  0  1  0  0  0  0  0  0  0  0  0
    6.0020  -14.0951   26.6407 O   0  0  0  0  0  0  0  0  0  0  0  0
    8.3451  -13.7565   26.2921 C   0  0  2  0  0  0  0  0  0  0  0  0
    8.5728  -14.6840   25.2238 N   0  0  0  0  0  0  0  0  0  0  0  0
    8.9173  -14.1206   27.6114 C   0  0  0  0  0  0  0  0  0  0  0  0
    8.9348  -13.1018   28.5910 O   0  0  0  0  0  0  0  0  0  0  0  0
    9.3844  -15.1945   27.9787 O   0  0  0  0  0  0  0  0  0  0  0  0
  2  1  1  0
  2  3  1  0
  3  4  2  0
  5  3  1  0
  5  6  1  0
  6  7  1  6
  7  8  1  0
  8 12  1  0
  9  8  2  0
 10 11  2  0
 10  6  1  0
 14 13  1  6
 14 16  1  0
 15 14  1  0
 16 17  1  6
 17 10  1  0
 18 19  1  0
 18 16  1  0
 20 18  2  0
M  END
$$$$
