GDT.pdb
     RDKit          3D

 20 19  0  0  1  0  0  0  0  0999 V2000
   14.5566  -16.2160   21.2272 N   0  0  0  0  0  0  0  0  0  0  0  0
   13.9286  -17.0909   22.1945 C   0  0  0  0  0  0  0  0  0  0  0  0
   12.6053  -16.5318   22.6374 C   0  0  0  0  0  0  0  0  0  0  0  0
   12.1724  -15.4343   22.2407 O   0  0  0  0  0  0  0  0  0  0  0  0
   11.8612  -17.3123   23.5348 N   0  0  0  0  0  0  0  0  0  0  0  0
   10.5250  -16.8822   24.0515 C   0  0  1  0  0  0  0  0  0  0  0  0
    9.7055  -18.1188   23.9786 C   0  0  0  0  0  0  0  0  0  0  0  0
    8.9574  -18.4315   22.7793 C   0  0  0  0  0  0  0  0  0  0  0  0
    8.3339  -19.4763   22.5364 O   0  0  0  0  0  0  0  0  0  0  0  0
   10.7869  -16.5068   25.4823 C   0  0  0  0  0  0  0  0  0  0  0  0
   11.8190  -17.0262   26.0297 O   0  0  0  0  0  0  0  0  0  0  0  0
    8.9075  -17.4547   21.7354 O   0  0  0  0  0  0  0  0  0  0  0  0
   10.2958  -12.8874   27.5325 C   0  0  0  0  0  0  0  0  0  0  0  0
    9.7567  -14.1167   28.2023 C   0  0  1  0  0  0  0  0  0  0  0  0
    8.3541  -14.0463   28.0904 O   0  0  0  0  0  0  0  0  0  0  0  0
   10.2824  -15.3948   27.6551 C   0  0  2  0  0  0  0  0  0  0  0  0
   10.0153  -15.6416   26.2691 N   0  0  0  0  0  0  0  0  0  0  0  0
   10.1657  -16.5610   28.5644 C   0  0  0  0  0  0  0  0  0  0  0  0
   10.6022  -16.3662   29.8946 O   0  0  0  0  0  0  0  0  0  0  0  0
    9.7390  -17.6862   28.3234 O   0  0  0  0  0  0  0  0  0  0  0  0
  2  1  1  0
  2  3  1  0
  3  4  2  0
  5  3  1  0
  5  6  1  0
  6  7  1  1
  7  8  1  0
  8 12  1  0
  9  8  2  0
 10 11  2  0
 10  6  1  0
 14 13  1  6
 14 16  1  0
 15 14  1  0
 16 17  1  6
 17 10  1  0
 18 19  1  0
 18 16  1  0
 20 18  2  0
M  END
$$$$
