GDT.pdb
     RDKit          3D

 20 19  0  0  1  0  0  0  0  0999 V2000
    7.9160  -13.3234   17.9781 N   0  0  0  0  0  0  0  0  0  0  0  0
    8.2009  -12.8977   19.3320 C   0  0  0  0  0  0  0  0  0  0  0  0
    8.0209  -14.0362   20.2969 C   0  0  0  0  0  0  0  0  0  0  0  0
    6.9098  -14.5410   20.5415 O   0  0  0  0  0  0  0  0  0  0  0  0
    9.1793  -14.5180   20.9247 N   0  0  0  0  0  0  0  0  0  0  0  0
    9.1740  -15.7444   21.7809 C   0  0  1  0  0  0  0  0  0  0  0  0
   10.5285  -16.3198   21.5789 C   0  0  0  0  0  0  0  0  0  0  0  0
   10.8709  -16.9642   20.3286 C   0  0  0  0  0  0  0  0  0  0  0  0
   10.5235  -18.0927   19.9478 O   0  0  0  0  0  0  0  0  0  0  0  0
    9.0288  -15.2163   23.1797 C   0  0  0  0  0  0  0  0  0  0  0  0
    9.8363  -14.2878   23.5269 O   0  0  0  0  0  0  0  0  0  0  0  0
   11.6998  -16.2550   19.4032 O   0  0  0  0  0  0  0  0  0  0  0  0
    6.7870  -13.1055   25.2213 C   0  0  0  0  0  0  0  0  0  0  0  0
    6.9644  -14.4006   25.9571 C   0  0  1  0  0  0  0  0  0  0  0  0
    5.7537  -15.1067   25.8142 O   0  0  0  0  0  0  0  0  0  0  0  0
    8.1238  -15.2117   25.5021 C   0  0  2  0  0  0  0  0  0  0  0  0
    8.0939  -15.6380   24.1344 N   0  0  0  0  0  0  0  0  0  0  0  0
    8.6215  -16.2020   26.4881 C   0  0  0  0  0  0  0  0  0  0  0  0
    8.7706  -15.7445   27.8171 O   0  0  0  0  0  0  0  0  0  0  0  0
    8.9270  -17.3777   26.3123 O   0  0  0  0  0  0  0  0  0  0  0  0
  2  1  1  0
  2  3  1  0
  3  4  2  0
  5  3  1  0
  5  6  1  0
  6  7  1  1
  7  8  1  0
  8 12  1  0
  9  8  2  0
 10 11  2  0
 10  6  1  0
 14 13  1  6
 14 16  1  0
 15 14  1  0
 16 17  1  6
 17 10  1  0
 18 19  1  0
 18 16  1  0
 20 18  2  0
M  END
$$$$
