GDT.pdb
     RDKit          3D

 20 19  0  0  1  0  0  0  0  0999 V2000
    7.6757  -12.8009   17.4574 N   0  0  0  0  0  0  0  0  0  0  0  0
    8.8969  -13.0054   18.2073 C   0  0  0  0  0  0  0  0  0  0  0  0
    8.8294  -14.2834   18.9961 C   0  0  0  0  0  0  0  0  0  0  0  0
    7.7916  -14.9649   19.0846 O   0  0  0  0  0  0  0  0  0  0  0  0
   10.0073  -14.6865   19.6428 N   0  0  0  0  0  0  0  0  0  0  0  0
   10.0895  -15.9483   20.4417 C   0  0  1  0  0  0  0  0  0  0  0  0
   11.4604  -16.4497   20.1664 C   0  0  0  0  0  0  0  0  0  0  0  0
   11.8879  -17.7327   20.6830 C   0  0  0  0  0  0  0  0  0  0  0  0
   12.0585  -18.0423   21.8723 O   0  0  0  0  0  0  0  0  0  0  0  0
    9.9722  -15.4898   21.8674 C   0  0  0  0  0  0  0  0  0  0  0  0
   10.8413  -14.6421   22.2685 O   0  0  0  0  0  0  0  0  0  0  0  0
   12.1536  -18.7858   19.7519 O   0  0  0  0  0  0  0  0  0  0  0  0
    7.2262  -13.6007   23.6882 C   0  0  0  0  0  0  0  0  0  0  0  0
    7.6410  -14.7717   24.5291 C   0  0  1  0  0  0  0  0  0  0  0  0
    6.5859  -15.7027   24.4604 O   0  0  0  0  0  0  0  0  0  0  0  0
    8.9348  -15.3858   24.1313 C   0  0  2  0  0  0  0  0  0  0  0  0
    9.0028  -15.8959   22.7939 N   0  0  0  0  0  0  0  0  0  0  0  0
    9.5888  -16.2051   25.1809 C   0  0  0  0  0  0  0  0  0  0  0  0
   10.1220  -17.4469   24.7668 O   0  0  0  0  0  0  0  0  0  0  0  0
    9.7346  -15.9556   26.3737 O   0  0  0  0  0  0  0  0  0  0  0  0
  2  1  1  0
  2  3  1  0
  3  4  2  0
  5  3  1  0
  5  6  1  0
  6  7  1  1
  7  8  1  0
  8 12  1  0
  9  8  2  0
 10 11  2  0
 10  6  1  0
 14 13  1  6
 14 16  1  0
 15 14  1  0
 16 17  1  6
 17 10  1  0
 18 19  1  0
 18 16  1  0
 20 18  2  0
M  END
$$$$
