GDT.pdb
     RDKit          3D

 20 19  0  0  1  0  0  0  0  0999 V2000
    7.6783  -13.2547   16.9722 N   0  0  0  0  0  0  0  0  0  0  0  0
    8.9210  -13.3542   17.7078 C   0  0  0  0  0  0  0  0  0  0  0  0
    8.9278  -14.5801   18.5777 C   0  0  0  0  0  0  0  0  0  0  0  0
    7.9239  -15.2991   18.7343 O   0  0  0  0  0  0  0  0  0  0  0  0
   10.1361  -14.8889   19.2204 N   0  0  0  0  0  0  0  0  0  0  0  0
   10.3090  -16.1222   20.0489 C   0  0  1  0  0  0  0  0  0  0  0  0
   11.7165  -16.5224   19.7935 C   0  0  0  0  0  0  0  0  0  0  0  0
   12.2835  -17.6731   20.4645 C   0  0  0  0  0  0  0  0  0  0  0  0
   11.6813  -18.6864   20.8518 O   0  0  0  0  0  0  0  0  0  0  0  0
   10.1458  -15.6418   21.4628 C   0  0  0  0  0  0  0  0  0  0  0  0
   10.9278  -14.7039   21.8417 O   0  0  0  0  0  0  0  0  0  0  0  0
   13.6893  -17.6811   20.7290 O   0  0  0  0  0  0  0  0  0  0  0  0
    7.6945  -13.6003   23.1706 C   0  0  0  0  0  0  0  0  0  0  0  0
    7.8812  -14.8170   24.0279 C   0  0  1  0  0  0  0  0  0  0  0  0
    6.7229  -15.6014   23.8604 O   0  0  0  0  0  0  0  0  0  0  0  0
    9.1123  -15.5949   23.7304 C   0  0  2  0  0  0  0  0  0  0  0  0
    9.2192  -16.1170   22.4002 N   0  0  0  0  0  0  0  0  0  0  0  0
    9.5706  -16.4857   24.8245 C   0  0  0  0  0  0  0  0  0  0  0  0
    9.6432  -15.9106   26.1137 O   0  0  0  0  0  0  0  0  0  0  0  0
    9.9006  -17.6665   24.7696 O   0  0  0  0  0  0  0  0  0  0  0  0
  2  1  1  0
  2  3  1  0
  3  4  2  0
  5  3  1  0
  5  6  1  0
  6  7  1  1
  7  8  1  0
  8 12  1  0
  9  8  2  0
 10 11  2  0
 10  6  1  0
 14 13  1  6
 14 16  1  0
 15 14  1  0
 16 17  1  6
 17 10  1  0
 18 19  1  0
 18 16  1  0
 20 18  2  0
M  END
$$$$
