GDT.pdb
     RDKit          3D

 20 19  0  0  1  0  0  0  0  0999 V2000
    7.2652  -12.7733   17.7752 N   0  0  0  0  0  0  0  0  0  0  0  0
    8.4963  -13.0552   18.4826 C   0  0  0  0  0  0  0  0  0  0  0  0
    8.3732  -14.3233   19.2805 C   0  0  0  0  0  0  0  0  0  0  0  0
    7.3239  -14.9914   19.3237 O   0  0  0  0  0  0  0  0  0  0  0  0
    9.5119  -14.7331   19.9902 N   0  0  0  0  0  0  0  0  0  0  0  0
    9.5436  -15.9957   20.7915 C   0  0  1  0  0  0  0  0  0  0  0  0
   10.8724  -16.5793   20.4752 C   0  0  0  0  0  0  0  0  0  0  0  0
   11.3165  -17.7889   21.1350 C   0  0  0  0  0  0  0  0  0  0  0  0
   12.4017  -17.9751   21.7069 O   0  0  0  0  0  0  0  0  0  0  0  0
    9.4995  -15.5276   22.2182 C   0  0  0  0  0  0  0  0  0  0  0  0
   10.3921  -14.6825   22.5703 O   0  0  0  0  0  0  0  0  0  0  0  0
   10.4364  -18.9165   21.1511 O   0  0  0  0  0  0  0  0  0  0  0  0
    7.0891  -13.4653   24.1710 C   0  0  0  0  0  0  0  0  0  0  0  0
    7.3970  -14.6859   24.9869 C   0  0  1  0  0  0  0  0  0  0  0  0
    6.2432  -15.4930   24.9437 O   0  0  0  0  0  0  0  0  0  0  0  0
    8.6013  -15.4346   24.5414 C   0  0  2  0  0  0  0  0  0  0  0  0
    8.5749  -15.9222   23.1942 N   0  0  0  0  0  0  0  0  0  0  0  0
    9.1858  -16.3436   25.5576 C   0  0  0  0  0  0  0  0  0  0  0  0
    9.4116  -15.7908   26.8388 O   0  0  0  0  0  0  0  0  0  0  0  0
    9.5060  -17.5228   25.4433 O   0  0  0  0  0  0  0  0  0  0  0  0
  2  1  1  0
  2  3  1  0
  3  4  2  0
  5  3  1  0
  5  6  1  0
  6  7  1  1
  7  8  1  0
  8 12  1  0
  9  8  2  0
 10 11  2  0
 10  6  1  0
 14 13  1  6
 14 16  1  0
 15 14  1  0
 16 17  1  6
 17 10  1  0
 18 19  1  0
 18 16  1  0
 20 18  2  0
M  END
$$$$
