GDT.pdb
     RDKit          3D

 20 19  0  0  1  0  0  0  0  0999 V2000
    7.1631  -12.7401   18.4151 N   0  0  0  0  0  0  0  0  0  0  0  0
    8.3426  -12.9969   19.2141 C   0  0  0  0  0  0  0  0  0  0  0  0
    8.1116  -14.1517   20.1483 C   0  0  0  0  0  0  0  0  0  0  0  0
    7.0118  -14.7259   20.2484 O   0  0  0  0  0  0  0  0  0  0  0  0
    9.2077  -14.5659   20.9198 N   0  0  0  0  0  0  0  0  0  0  0  0
    9.1588  -15.7799   21.7921 C   0  0  1  0  0  0  0  0  0  0  0  0
   10.4806  -16.4219   21.5750 C   0  0  0  0  0  0  0  0  0  0  0  0
   10.8355  -17.6276   22.2935 C   0  0  0  0  0  0  0  0  0  0  0  0
   10.0672  -18.3974   22.8906 O   0  0  0  0  0  0  0  0  0  0  0  0
    9.0632  -15.2282   23.1860 C   0  0  0  0  0  0  0  0  0  0  0  0
    9.9473  -14.3678   23.5220 O   0  0  0  0  0  0  0  0  0  0  0  0
   12.2137  -18.0075   22.3444 O   0  0  0  0  0  0  0  0  0  0  0  0
    6.8263  -12.9293   25.0360 C   0  0  0  0  0  0  0  0  0  0  0  0
    6.9584  -14.1787   25.8554 C   0  0  1  0  0  0  0  0  0  0  0  0
    5.7370  -14.8688   25.7259 O   0  0  0  0  0  0  0  0  0  0  0  0
    8.1114  -15.0393   25.4818 C   0  0  2  0  0  0  0  0  0  0  0  0
    8.0993  -15.5605   24.1471 N   0  0  0  0  0  0  0  0  0  0  0  0
    8.5725  -15.9657   26.5447 C   0  0  0  0  0  0  0  0  0  0  0  0
    8.8075  -15.3951   27.8164 O   0  0  0  0  0  0  0  0  0  0  0  0
    8.7824  -17.1730   26.4767 O   0  0  0  0  0  0  0  0  0  0  0  0
  2  1  1  0
  2  3  1  0
  3  4  2  0
  5  3  1  0
  5  6  1  0
  6  7  1  1
  7  8  1  0
  8 12  1  0
  9  8  2  0
 10 11  2  0
 10  6  1  0
 14 13  1  6
 14 16  1  0
 15 14  1  0
 16 17  1  6
 17 10  1  0
 18 19  1  0
 18 16  1  0
 20 18  2  0
M  END
$$$$
