AMT.pdb
     RDKit          3D

 21 20  0  0  1  0  0  0  0  0999 V2000
   18.7800  -12.5304  -17.5532 C   0  0  0  0  0  0  0  0  0  0  0  0
   19.2817  -11.1186  -17.7629 C   0  0  2  0  0  0  0  0  0  0  0  0
   19.9832  -11.1019  -19.0227 N   0  0  0  0  0  0  0  0  0  0  0  0
   20.2187  -10.7072  -16.6698 C   0  0  0  0  0  0  0  0  0  0  0  0
   19.8189  -10.6455  -15.5016 O   0  0  0  0  0  0  0  0  0  0  0  0
   27.4504  -10.1668  -16.7661 C   0  0  0  0  0  0  0  0  0  0  0  0
   26.5641  -10.4652  -15.2556 S   0  0  0  0  0  0  0  0  0  0  0  0
   24.9085   -9.8345  -15.1539 C   0  0  0  0  0  0  0  0  0  0  0  0
   23.9027  -10.4205  -16.1009 C   0  0  0  0  0  0  0  0  0  0  0  0
   22.5404   -9.9210  -16.0279 C   0  0  2  0  0  0  0  0  0  0  0  0
   21.5546  -10.3861  -16.9402 N   0  0  0  0  0  0  0  0  0  0  0  0
   22.6415   -8.3998  -16.1337 C   0  0  0  0  0  0  0  0  0  0  0  0
   23.2676   -7.9196  -17.1029 O   0  0  0  0  0  0  0  0  0  0  0  0
   20.3167   -5.9166  -17.0839 C   0  0  0  0  0  0  0  0  0  0  0  0
   20.7200   -5.5370  -15.6818 C   0  0  1  0  0  0  0  0  0  0  0  0
   19.7401   -6.0335  -14.8272 O   0  0  0  0  0  0  0  0  0  0  0  0
   22.0532   -6.1007  -15.2821 C   0  0  2  0  0  0  0  0  0  0  0  0
   22.0601   -7.5352  -15.1873 N   0  0  0  0  0  0  0  0  0  0  0  0
   22.4189   -5.5275  -13.9563 C   0  0  0  0  0  0  0  0  0  0  0  0
   22.4223   -6.2572  -12.9246 O   0  0  0  0  0  0  0  0  0  0  0  0
   22.7679   -4.1979  -13.7759 O   0  0  0  0  0  0  0  0  0  0  0  0
  2  1  1  1
  3  2  1  0
  4  2  1  0
  4 11  1  0
  5  4  2  0
  7  6  1  0
  8  7  1  0
 10  9  1  6
  9  8  1  0
 10 11  1  0
 10 12  1  0
 12 18  1  0
 12 13  2  0
 15 17  1  0
 15 14  1  6
 16 15  1  0
 17 19  1  0
 17 18  1  1
 19 21  1  0
 20 19  2  0
M  END
$$$$
