AMT.pdb
     RDKit          3D

 21 20  0  0  1  0  0  0  0  0999 V2000
   18.0594  -13.4606  -18.8661 C   0  0  0  0  0  0  0  0  0  0  0  0
   18.4786  -12.0204  -19.0630 C   0  0  2  0  0  0  0  0  0  0  0  0
   19.2730  -11.9718  -20.2656 N   0  0  0  0  0  0  0  0  0  0  0  0
   19.2977  -11.5306  -17.9093 C   0  0  0  0  0  0  0  0  0  0  0  0
   18.7985  -11.4604  -16.7805 O   0  0  0  0  0  0  0  0  0  0  0  0
   26.5266  -10.2023  -14.7443 C   0  0  0  0  0  0  0  0  0  0  0  0
   25.5020  -10.8548  -16.0407 S   0  0  0  0  0  0  0  0  0  0  0  0
   23.7954  -10.3684  -16.0418 C   0  0  0  0  0  0  0  0  0  0  0  0
   22.9234  -10.9643  -17.1079 C   0  0  0  0  0  0  0  0  0  0  0  0
   21.5150  -10.6082  -17.1007 C   0  0  2  0  0  0  0  0  0  0  0  0
   20.6332  -11.1446  -18.0781 N   0  0  0  0  0  0  0  0  0  0  0  0
   21.4642   -9.0822  -17.1653 C   0  0  0  0  0  0  0  0  0  0  0  0
   21.9244   -8.5226  -18.1835 O   0  0  0  0  0  0  0  0  0  0  0  0
   19.1579   -4.9390  -16.0830 C   0  0  0  0  0  0  0  0  0  0  0  0
   19.3210   -6.4377  -16.0770 C   0  0  1  0  0  0  0  0  0  0  0  0
   18.6150   -6.9289  -17.1712 O   0  0  0  0  0  0  0  0  0  0  0  0
   20.7548   -6.8719  -16.1812 C   0  0  2  0  0  0  0  0  0  0  0  0
   20.9233   -8.2987  -16.1285 N   0  0  0  0  0  0  0  0  0  0  0  0
   21.5078   -6.2549  -15.0533 C   0  0  0  0  0  0  0  0  0  0  0  0
   21.6408   -6.8746  -13.9601 O   0  0  0  0  0  0  0  0  0  0  0  0
   22.0926   -5.0001  -15.1292 O   0  0  0  0  0  0  0  0  0  0  0  0
  2  1  1  1
  3  2  1  0
  4  2  1  0
  4 11  1  0
  5  4  2  0
  7  6  1  0
  8  7  1  0
 10  9  1  6
  9  8  1  0
 10 11  1  0
 10 12  1  0
 12 18  1  0
 12 13  2  0
 15 17  1  0
 15 14  1  6
 16 15  1  0
 17 19  1  0
 17 18  1  1
 19 21  1  0
 20 19  2  0
M  END
$$$$
