AMT.pdb
     RDKit          3D

 21 20  0  0  1  0  0  0  0  0999 V2000
   28.1534  -19.4427  -14.9028 C   0  0  0  0  0  0  0  0  0  0  0  0
   28.5474  -20.7415  -14.2347 C   0  0  2  0  0  0  0  0  0  0  0  0
   28.5869  -21.7514  -15.2634 N   0  0  0  0  0  0  0  0  0  0  0  0
   27.5513  -21.1389  -13.1899 C   0  0  0  0  0  0  0  0  0  0  0  0
   26.6409  -21.9271  -13.4698 O   0  0  0  0  0  0  0  0  0  0  0  0
   28.0920  -19.7931   -6.3964 C   0  0  0  0  0  0  0  0  0  0  0  0
   26.3704  -19.9815   -6.7924 S   0  0  0  0  0  0  0  0  0  0  0  0
   25.9770  -20.5757   -8.4176 C   0  0  0  0  0  0  0  0  0  0  0  0
   27.0003  -20.3398   -9.4895 C   0  0  0  0  0  0  0  0  0  0  0  0
   26.6935  -20.8154  -10.8276 C   0  0  2  0  0  0  0  0  0  0  0  0
   27.6250  -20.6340  -11.8858 N   0  0  0  0  0  0  0  0  0  0  0  0
   25.3656  -20.1649  -11.2135 C   0  0  0  0  0  0  0  0  0  0  0  0
   25.3443  -18.9258  -11.3746 O   0  0  0  0  0  0  0  0  0  0  0  0
   22.7521  -22.7462  -13.2826 C   0  0  0  0  0  0  0  0  0  0  0  0
   22.9712  -21.2701  -13.4961 C   0  0  1  0  0  0  0  0  0  0  0  0
   21.8834  -20.7977  -14.2246 O   0  0  0  0  0  0  0  0  0  0  0  0
   23.0743  -20.5006  -12.2107 C   0  0  2  0  0  0  0  0  0  0  0  0
   24.1827  -20.9072  -11.3904 N   0  0  0  0  0  0  0  0  0  0  0  0
   21.8101  -20.7024  -11.4484 C   0  0  0  0  0  0  0  0  0  0  0  0
   20.7075  -20.3119  -11.9264 O   0  0  0  0  0  0  0  0  0  0  0  0
   21.7646  -21.3127  -10.2044 O   0  0  0  0  0  0  0  0  0  0  0  0
  2  1  1  6
  3  2  1  0
  4  2  1  0
  4 11  1  0
  5  4  2  0
  7  6  1  0
  8  7  1  0
 10  9  1  1
  9  8  1  0
 10 11  1  0
 10 12  1  0
 12 18  1  0
 12 13  2  0
 15 17  1  0
 15 14  1  1
 16 15  1  0
 17 19  1  0
 17 18  1  1
 19 21  1  0
 20 19  2  0
M  END
$$$$
