AMT.pdb
     RDKit          3D

 21 20  0  0  1  0  0  0  0  0999 V2000
   27.3934  -19.6408  -16.4557 C   0  0  0  0  0  0  0  0  0  0  0  0
   27.9687  -20.7312  -15.5789 C   0  0  2  0  0  0  0  0  0  0  0  0
   28.3773  -21.8042  -16.4516 N   0  0  0  0  0  0  0  0  0  0  0  0
   26.9489  -21.2435  -14.6096 C   0  0  0  0  0  0  0  0  0  0  0  0
   26.2717  -22.2387  -14.8911 O   0  0  0  0  0  0  0  0  0  0  0  0
   26.9916  -20.3484   -7.7310 C   0  0  0  0  0  0  0  0  0  0  0  0
   25.3123  -20.5125   -8.2870 S   0  0  0  0  0  0  0  0  0  0  0  0
   25.0653  -21.0748   -9.9520 C   0  0  0  0  0  0  0  0  0  0  0  0
   26.0226  -20.5620  -10.9876 C   0  0  0  0  0  0  0  0  0  0  0  0
   25.8063  -20.9723  -12.3643 C   0  0  2  0  0  0  0  0  0  0  0  0
   26.7395  -20.6159  -13.3755 N   0  0  0  0  0  0  0  0  0  0  0  0
   24.4248  -20.4452  -12.7507 C   0  0  0  0  0  0  0  0  0  0  0  0
   24.2841  -19.2105  -12.8830 O   0  0  0  0  0  0  0  0  0  0  0  0
   19.9686  -21.4573  -14.7299 C   0  0  0  0  0  0  0  0  0  0  0  0
   21.3271  -21.9062  -14.2551 C   0  0  1  0  0  0  0  0  0  0  0  0
   22.0836  -22.1853  -15.3896 O   0  0  0  0  0  0  0  0  0  0  0  0
   22.0350  -20.8661  -13.4353 C   0  0  2  0  0  0  0  0  0  0  0  0
   23.3219  -21.2947  -12.9589 N   0  0  0  0  0  0  0  0  0  0  0  0
   21.1735  -20.5340  -12.2659 C   0  0  0  0  0  0  0  0  0  0  0  0
   21.2684  -21.1973  -11.1946 O   0  0  0  0  0  0  0  0  0  0  0  0
   20.2415  -19.5075  -12.2786 O   0  0  0  0  0  0  0  0  0  0  0  0
  2  1  1  6
  3  2  1  0
  4  2  1  0
  4 11  1  0
  5  4  2  0
  7  6  1  0
  8  7  1  0
 10  9  1  1
  9  8  1  0
 10 11  1  0
 10 12  1  0
 12 18  1  0
 12 13  2  0
 15 17  1  0
 15 14  1  6
 16 15  1  0
 17 19  1  0
 17 18  1  1
 19 21  1  0
 20 19  2  0
M  END
$$$$
