AMT.pdb
     RDKit          3D

 21 20  0  0  1  0  0  0  0  0999 V2000
   19.9386  -13.7656  -20.6071 C   0  0  0  0  0  0  0  0  0  0  0  0
   20.7155  -12.4720  -20.4989 C   0  0  2  0  0  0  0  0  0  0  0  0
   22.0282  -12.7203  -21.0420 N   0  0  0  0  0  0  0  0  0  0  0  0
   20.8452  -12.0340  -19.0730 C   0  0  0  0  0  0  0  0  0  0  0  0
   19.8331  -11.8268  -18.3940 O   0  0  0  0  0  0  0  0  0  0  0  0
   26.4221  -12.9626  -15.0015 C   0  0  0  0  0  0  0  0  0  0  0  0
   25.5310  -13.9776  -16.1557 S   0  0  0  0  0  0  0  0  0  0  0  0
   23.8871  -13.4621  -16.5810 C   0  0  0  0  0  0  0  0  0  0  0  0
   23.5939  -11.9933  -16.4882 C   0  0  0  0  0  0  0  0  0  0  0  0
   22.3847  -11.5076  -17.1305 C   0  0  2  0  0  0  0  0  0  0  0  0
   22.1006  -11.8504  -18.4803 N   0  0  0  0  0  0  0  0  0  0  0  0
   22.4174   -9.9855  -16.9975 C   0  0  0  0  0  0  0  0  0  0  0  0
   23.3024   -9.3611  -17.6211 O   0  0  0  0  0  0  0  0  0  0  0  0
   19.9217   -7.4710  -18.0876 C   0  0  0  0  0  0  0  0  0  0  0  0
   20.1252   -7.2763  -16.6067 C   0  0  1  0  0  0  0  0  0  0  0  0
   19.0740   -7.9221  -15.9624 O   0  0  0  0  0  0  0  0  0  0  0  0
   21.4261   -7.8421  -16.1142 C   0  0  2  0  0  0  0  0  0  0  0  0
   21.4954   -9.2751  -16.2059 N   0  0  0  0  0  0  0  0  0  0  0  0
   21.5948   -7.4409  -14.6892 C   0  0  0  0  0  0  0  0  0  0  0  0
   21.7407   -6.2239  -14.3819 O   0  0  0  0  0  0  0  0  0  0  0  0
   21.6022   -8.3495  -13.6420 O   0  0  0  0  0  0  0  0  0  0  0  0
  2  1  1  1
  3  2  1  0
  4  2  1  0
  4 11  1  0
  5  4  2  0
  7  6  1  0
  8  7  1  0
 10  9  1  6
  9  8  1  0
 10 11  1  0
 10 12  1  0
 12 18  1  0
 12 13  2  0
 15 17  1  0
 15 14  1  6
 16 15  1  0
 17 19  1  0
 17 18  1  1
 19 21  1  0
 20 19  2  0
M  END
$$$$
