AMT.pdb
     RDKit          3D

 21 20  0  0  1  0  0  0  0  0999 V2000
   27.7606  -21.3517  -16.3888 C   0  0  0  0  0  0  0  0  0  0  0  0
   27.8591  -22.4193  -15.3214 C   0  0  2  0  0  0  0  0  0  0  0  0
   27.8720  -23.6931  -15.9973 N   0  0  0  0  0  0  0  0  0  0  0  0
   26.6880  -22.3658  -14.3900 C   0  0  0  0  0  0  0  0  0  0  0  0
   25.6460  -22.9696  -14.6693 O   0  0  0  0  0  0  0  0  0  0  0  0
   26.9645  -19.7202   -8.0131 C   0  0  0  0  0  0  0  0  0  0  0  0
   25.3248  -20.3555   -8.2664 S   0  0  0  0  0  0  0  0  0  0  0  0
   24.9034  -20.8667   -9.9127 C   0  0  0  0  0  0  0  0  0  0  0  0
   26.0369  -21.0176  -10.8845 C   0  0  0  0  0  0  0  0  0  0  0  0
   25.7163  -21.4791  -12.2243 C   0  0  2  0  0  0  0  0  0  0  0  0
   26.7431  -21.6396  -13.1940 N   0  0  0  0  0  0  0  0  0  0  0  0
   24.6649  -20.5106  -12.7649 C   0  0  0  0  0  0  0  0  0  0  0  0
   25.0008  -19.3201  -12.9434 O   0  0  0  0  0  0  0  0  0  0  0  0
   20.8154  -19.6194  -15.5771 C   0  0  0  0  0  0  0  0  0  0  0  0
   21.8846  -20.5075  -14.9937 C   0  0  1  0  0  0  0  0  0  0  0  0
   22.9643  -20.4761  -15.8714 O   0  0  0  0  0  0  0  0  0  0  0  0
   22.3418  -20.0600  -13.6351 C   0  0  2  0  0  0  0  0  0  0  0  0
   23.3492  -20.9118  -13.0637 N   0  0  0  0  0  0  0  0  0  0  0  0
   21.1570  -20.0405  -12.7318 C   0  0  0  0  0  0  0  0  0  0  0  0
   20.3357  -19.0813  -12.7773 O   0  0  0  0  0  0  0  0  0  0  0  0
   20.8888  -21.0428  -11.8122 O   0  0  0  0  0  0  0  0  0  0  0  0
  2  1  1  6
  3  2  1  0
  4  2  1  0
  4 11  1  0
  5  4  2  0
  7  6  1  0
  8  7  1  0
 10  9  1  1
  9  8  1  0
 10 11  1  0
 10 12  1  0
 12 18  1  0
 12 13  2  0
 15 17  1  0
 15 14  1  6
 16 15  1  0
 17 19  1  0
 17 18  1  1
 19 21  1  0
 20 19  2  0
M  END
$$$$
