AMT.pdb
     RDKit          3D

 21 20  0  0  1  0  0  0  0  0999 V2000
   19.5578  -20.5104  -12.9099 C   0  0  0  0  0  0  0  0  0  0  0  0
   20.6599  -21.2818  -13.6021 C   0  0  2  0  0  0  0  0  0  0  0  0
   20.7019  -22.5915  -12.9999 N   0  0  0  0  0  0  0  0  0  0  0  0
   21.9870  -20.6122  -13.4225 C   0  0  0  0  0  0  0  0  0  0  0  0
   22.1660  -19.4664  -13.8508 O   0  0  0  0  0  0  0  0  0  0  0  0
   26.7528  -20.1568   -8.2441 C   0  0  0  0  0  0  0  0  0  0  0  0
   25.1498  -20.9075   -8.3961 S   0  0  0  0  0  0  0  0  0  0  0  0
   24.2717  -20.6337   -9.9137 C   0  0  0  0  0  0  0  0  0  0  0  0
   24.9527  -21.0716  -11.1771 C   0  0  0  0  0  0  0  0  0  0  0  0
   24.3188  -20.7241  -12.4373 C   0  0  2  0  0  0  0  0  0  0  0  0
   23.0454  -21.2591  -12.7727 N   0  0  0  0  0  0  0  0  0  0  0  0
   25.3204  -21.0941  -13.5307 C   0  0  0  0  0  0  0  0  0  0  0  0
   25.4547  -22.3029  -13.8184 O   0  0  0  0  0  0  0  0  0  0  0  0
   28.2656  -19.4279  -17.2401 C   0  0  0  0  0  0  0  0  0  0  0  0
   27.3903  -19.1436  -16.0462 C   0  0  1  0  0  0  0  0  0  0  0  0
   26.3118  -18.3909  -16.5014 O   0  0  0  0  0  0  0  0  0  0  0  0
   26.8763  -20.3905  -15.3857 C   0  0  2  0  0  0  0  0  0  0  0  0
   26.0853  -20.1300  -14.2139 N   0  0  0  0  0  0  0  0  0  0  0  0
   28.0480  -21.2266  -15.0012 C   0  0  0  0  0  0  0  0  0  0  0  0
   28.5973  -21.0753  -13.8733 O   0  0  0  0  0  0  0  0  0  0  0  0
   28.5934  -22.1942  -15.8310 O   0  0  0  0  0  0  0  0  0  0  0  0
  2  1  1  1
  3  2  1  0
  4  2  1  0
  4 11  1  0
  5  4  2  0
  7  6  1  0
  8  7  1  0
 10  9  1  1
  9  8  1  0
 10 11  1  0
 10 12  1  0
 12 18  1  0
 12 13  2  0
 15 17  1  0
 15 14  1  6
 16 15  1  0
 17 19  1  0
 17 18  1  1
 19 21  1  0
 20 19  2  0
M  END
$$$$
