AMT.pdb
     RDKit          3D

 21 20  0  0  1  0  0  0  0  0999 V2000
   20.7592  -14.5602  -19.5049 C   0  0  0  0  0  0  0  0  0  0  0  0
   21.0879  -13.0901  -19.6446 C   0  0  2  0  0  0  0  0  0  0  0  0
   22.2240  -12.9928  -20.5275 N   0  0  0  0  0  0  0  0  0  0  0  0
   21.4371  -12.4835  -18.3210 C   0  0  0  0  0  0  0  0  0  0  0  0
   20.6139  -12.4926  -17.3987 O   0  0  0  0  0  0  0  0  0  0  0  0
   27.6688  -11.5147  -15.4766 C   0  0  0  0  0  0  0  0  0  0  0  0
   26.8001  -12.9890  -15.9542 S   0  0  0  0  0  0  0  0  0  0  0  0
   25.0708  -12.8243  -16.3171 C   0  0  0  0  0  0  0  0  0  0  0  0
   24.5491  -11.4296  -16.5033 C   0  0  0  0  0  0  0  0  0  0  0  0
   23.1619  -11.2796  -16.9081 C   0  0  2  0  0  0  0  0  0  0  0  0
   22.6895  -11.8982  -18.0974 N   0  0  0  0  0  0  0  0  0  0  0  0
   22.9060   -9.7752  -16.9913 C   0  0  0  0  0  0  0  0  0  0  0  0
   23.5987   -9.1056  -17.7874 O   0  0  0  0  0  0  0  0  0  0  0  0
   20.0305   -8.0404  -18.2905 C   0  0  0  0  0  0  0  0  0  0  0  0
   20.1864   -7.5328  -16.8797 C   0  0  1  0  0  0  0  0  0  0  0  0
   19.2720   -8.2274  -16.0932 O   0  0  0  0  0  0  0  0  0  0  0  0
   21.5680   -7.7432  -16.3300 C   0  0  2  0  0  0  0  0  0  0  0  0
   21.9287   -9.1297  -16.2106 N   0  0  0  0  0  0  0  0  0  0  0  0
   21.6308   -7.1102  -14.9827 C   0  0  0  0  0  0  0  0  0  0  0  0
   21.5347   -5.8561  -14.8617 O   0  0  0  0  0  0  0  0  0  0  0  0
   21.7938   -7.8349  -13.8120 O   0  0  0  0  0  0  0  0  0  0  0  0
  2  1  1  1
  3  2  1  0
  4  2  1  0
  4 11  1  0
  5  4  2  0
  7  6  1  0
  8  7  1  0
 10  9  1  6
  9  8  1  0
 10 11  1  0
 10 12  1  0
 12 18  1  0
 12 13  2  0
 15 17  1  0
 15 14  1  6
 16 15  1  0
 17 19  1  0
 17 18  1  1
 19 21  1  0
 20 19  2  0
M  END
$$$$
