AMT.pdb
     RDKit          3D

 21 20  0  0  1  0  0  0  0  0999 V2000
   19.7241  -12.7342  -16.6487 C   0  0  0  0  0  0  0  0  0  0  0  0
   20.0980  -11.3457  -17.1187 C   0  0  2  0  0  0  0  0  0  0  0  0
   20.9805  -11.5049  -18.2481 N   0  0  0  0  0  0  0  0  0  0  0  0
   20.8047  -10.5802  -16.0433 C   0  0  0  0  0  0  0  0  0  0  0  0
   20.2686  -10.4229  -14.9405 O   0  0  0  0  0  0  0  0  0  0  0  0
   27.2458  -12.7270  -15.3279 C   0  0  0  0  0  0  0  0  0  0  0  0
   26.6084  -11.0702  -15.3971 S   0  0  0  0  0  0  0  0  0  0  0  0
   24.8485  -10.8774  -15.2747 C   0  0  0  0  0  0  0  0  0  0  0  0
   24.3175   -9.4746  -15.3193 C   0  0  0  0  0  0  0  0  0  0  0  0
   22.8750   -9.3024  -15.3353 C   0  0  2  0  0  0  0  0  0  0  0  0
   22.0746  -10.0303  -16.2572 N   0  0  0  0  0  0  0  0  0  0  0  0
   22.6298   -7.8069  -15.5325 C   0  0  0  0  0  0  0  0  0  0  0  0
   22.9352   -7.3027  -16.6346 O   0  0  0  0  0  0  0  0  0  0  0  0
   19.6844   -6.0753  -16.0927 C   0  0  0  0  0  0  0  0  0  0  0  0
   20.2395   -5.3991  -14.8650 C   0  0  1  0  0  0  0  0  0  0  0  0
   19.5736   -5.9367  -13.7674 O   0  0  0  0  0  0  0  0  0  0  0  0
   21.7166   -5.6105  -14.6963 C   0  0  2  0  0  0  0  0  0  0  0  0
   22.0789   -6.9913  -14.5262 N   0  0  0  0  0  0  0  0  0  0  0  0
   22.1595   -4.8440  -13.4979 C   0  0  0  0  0  0  0  0  0  0  0  0
   22.5133   -5.4506  -12.4474 O   0  0  0  0  0  0  0  0  0  0  0  0
   22.2099   -3.4590  -13.4604 O   0  0  0  0  0  0  0  0  0  0  0  0
  2  1  1  1
  3  2  1  0
  4  2  1  0
  4 11  1  0
  5  4  2  0
  7  6  1  0
  8  7  1  0
 10  9  1  6
  9  8  1  0
 10 11  1  0
 10 12  1  0
 12 18  1  0
 12 13  2  0
 15 17  1  0
 15 14  1  6
 16 15  1  0
 17 19  1  0
 17 18  1  1
 19 21  1  0
 20 19  2  0
M  END
$$$$
