WPR.pdb
     RDKit          3D

 33 35  0  0  1  0  0  0  0  0999 V2000
   19.3487  -22.1130  -11.5628 N   0  0  0  0  0  0  0  0  0  0  0  0
   18.9631  -23.3281  -12.2090 C   0  0  1  0  0  0  0  0  0  0  0  0
   20.1530  -24.2613  -12.1720 C   0  0  0  0  0  0  0  0  0  0  0  0
   20.7983  -24.4565  -13.4754 C   0  0  0  0  0  0  0  0  0  0  0  0
   21.1013  -23.4513  -14.3687 C   0  0  0  0  0  0  0  0  0  0  0  0
   21.6895  -23.9814  -15.4665 N   0  0  0  0  0  0  0  0  0  0  0  0
   21.7821  -25.3330  -15.3138 C   0  0  0  0  0  0  0  0  0  0  0  0
   22.2953  -26.3055  -16.1406 C   0  0  0  0  0  0  0  0  0  0  0  0
   22.2623  -27.6177  -15.7345 C   0  0  0  0  0  0  0  0  0  0  0  0
   21.7081  -27.9050  -14.4982 C   0  0  0  0  0  0  0  0  0  0  0  0
   21.1945  -26.9279  -13.6720 C   0  0  0  0  0  0  0  0  0  0  0  0
   21.2246  -25.6197  -14.0710 C   0  0  0  0  0  0  0  0  0  0  0  0
   17.7462  -23.9578  -11.6464 C   0  0  0  0  0  0  0  0  0  0  0  0
   17.4843  -23.6464  -10.4351 O   0  0  0  0  0  0  0  0  0  0  0  0
   16.8982  -24.8448  -12.3465 N   0  0  0  0  0  0  0  0  0  0  0  0
   17.1122  -25.2883  -13.7064 C   0  0  0  0  0  0  0  0  0  0  0  0
   15.8422  -26.0193  -14.1055 C   0  0  0  0  0  0  0  0  0  0  0  0
   14.8227  -25.6708  -13.0568 C   0  0  0  0  0  0  0  0  0  0  0  0
   15.7163  -25.4385  -11.8307 C   0  0  1  0  0  0  0  0  0  0  0  0
   15.9357  -26.7849  -11.2357 C   0  0  0  0  0  0  0  0  0  0  0  0
   16.8689  -27.4596  -11.7280 O   0  0  0  0  0  0  0  0  0  0  0  0
   17.7616  -25.7103   -4.7678 N   0  0  0  0  0  0  0  0  0  0  0  0
   16.6027  -25.1500   -5.4104 C   0  0  0  0  0  0  0  0  0  0  0  0
   16.7195  -24.0591   -6.0769 N   0  0  0  0  0  0  0  0  0  0  0  0
   15.3404  -25.7667   -5.3270 N   0  0  0  0  0  0  0  0  0  0  0  0
   15.1087  -27.1591   -5.8181 C   0  0  0  0  0  0  0  0  0  0  0  0
   15.3531  -27.2367   -7.2632 C   0  0  0  0  0  0  0  0  0  0  0  0
   15.2247  -28.4336   -8.0557 C   0  0  0  0  0  0  0  0  0  0  0  0
   15.4561  -28.5825   -9.4873 C   0  0  2  0  0  0  0  0  0  0  0  0
   15.1518  -27.2914  -10.1794 N   0  0  0  0  0  0  0  0  0  0  0  0
   14.6706  -29.6361  -10.1550 C   0  0  0  0  0  0  0  0  0  0  0  0
   15.0306  -30.9830   -9.8521 O   0  0  0  0  0  0  0  0  0  0  0  0
   13.7417  -29.5087  -10.9400 O   0  0  0  0  0  0  0  0  0  0  0  0
  2  3  1  0
  2  1  1  1
  4  3  1  0
  5  4  2  0
  6  5  1  0
  7  6  1  0
  7 12  2  0
  8  7  1  0
  9  8  2  0
  9 10  1  0
 10 11  2  0
 11 12  1  0
 12  4  1  0
 13  2  1  0
 14 13  2  0
 15 13  1  0
 15 16  1  0
 17 16  1  0
 18 17  1  0
 19 18  1  0
 19 15  1  0
 20 21  2  0
 19 20  1  6
 23 22  1  0
 23 25  1  0
 24 23  2  0
 25 26  1  0
 26 27  1  0
 28 27  1  0
 29 28  1  1
 29 30  1  0
 30 20  1  0
 31 32  1  0
 31 29  1  0
 33 31  2  0
M  END
$$$$
