WPR.pdb
     RDKit          3D

 33 35  0  0  1  0  0  0  0  0999 V2000
   26.6233  -20.3921  -16.6930 N   0  0  0  0  0  0  0  0  0  0  0  0
   27.2407  -19.8860  -15.5075 C   0  0  1  0  0  0  0  0  0  0  0  0
   26.7814  -18.4558  -15.3295 C   0  0  0  0  0  0  0  0  0  0  0  0
   27.0108  -17.6056  -16.5034 C   0  0  0  0  0  0  0  0  0  0  0  0
   26.0340  -16.9054  -17.1785 C   0  0  0  0  0  0  0  0  0  0  0  0
   26.5914  -16.2271  -18.2087 N   0  0  0  0  0  0  0  0  0  0  0  0
   27.9331  -16.4685  -18.2274 C   0  0  0  0  0  0  0  0  0  0  0  0
   28.9236  -16.0167  -19.0684 C   0  0  0  0  0  0  0  0  0  0  0  0
   30.2193  -16.4231  -18.8587 C   0  0  0  0  0  0  0  0  0  0  0  0
   30.4721  -17.2782  -17.7990 C   0  0  0  0  0  0  0  0  0  0  0  0
   29.4769  -17.7292  -16.9580 C   0  0  0  0  0  0  0  0  0  0  0  0
   28.1851  -17.3279  -17.1619 C   0  0  0  0  0  0  0  0  0  0  0  0
   26.9949  -20.7026  -14.2964 C   0  0  0  0  0  0  0  0  0  0  0  0
   26.0083  -21.5106  -14.3774 O   0  0  0  0  0  0  0  0  0  0  0  0
   27.7590  -20.6380  -13.1098 N   0  0  0  0  0  0  0  0  0  0  0  0
   28.9769  -19.8736  -12.9547 C   0  0  0  0  0  0  0  0  0  0  0  0
   29.5612  -20.2972  -11.6184 C   0  0  0  0  0  0  0  0  0  0  0  0
   28.8126  -21.5385  -11.2194 C   0  0  0  0  0  0  0  0  0  0  0  0
   27.4538  -21.3026  -11.8930 C   0  0  1  0  0  0  0  0  0  0  0  0
   26.6738  -20.4696  -10.9376 C   0  0  0  0  0  0  0  0  0  0  0  0
   26.9944  -19.2608  -10.8712 O   0  0  0  0  0  0  0  0  0  0  0  0
   21.4003  -22.8463  -15.0051 N   0  0  0  0  0  0  0  0  0  0  0  0
   20.6458  -22.4932  -13.8320 C   0  0  0  0  0  0  0  0  0  0  0  0
   19.6063  -23.1801  -13.5230 N   0  0  0  0  0  0  0  0  0  0  0  0
   21.0171  -21.4112  -13.0122 N   0  0  0  0  0  0  0  0  0  0  0  0
   22.2608  -20.6214  -13.2635 C   0  0  0  0  0  0  0  0  0  0  0  0
   23.2690  -20.9197  -12.2396 C   0  0  0  0  0  0  0  0  0  0  0  0
   23.7371  -19.9832  -11.2491 C   0  0  0  0  0  0  0  0  0  0  0  0
   24.3269  -20.2822   -9.9499 C   0  0  2  0  0  0  0  0  0  0  0  0
   25.6311  -20.9892  -10.1441 N   0  0  0  0  0  0  0  0  0  0  0  0
   23.5051  -21.1128   -9.0513 C   0  0  0  0  0  0  0  0  0  0  0  0
   22.3428  -20.4936   -8.5025 O   0  0  0  0  0  0  0  0  0  0  0  0
   23.6872  -22.2732   -8.7115 O   0  0  0  0  0  0  0  0  0  0  0  0
  2  3  1  0
  2  1  1  6
  4  3  1  0
  5  4  2  0
  6  5  1  0
  7  6  1  0
  7 12  2  0
  8  7  1  0
  9  8  2  0
  9 10  1  0
 10 11  2  0
 11 12  1  0
 12  4  1  0
 13  2  1  0
 14 13  2  0
 15 13  1  0
 15 16  1  0
 17 16  1  0
 18 17  1  0
 19 18  1  0
 19 15  1  0
 20 21  2  0
 19 20  1  1
 23 22  1  0
 23 25  1  0
 24 23  2  0
 25 26  1  0
 26 27  1  0
 28 27  1  0
 29 28  1  6
 29 30  1  0
 30 20  1  0
 31 32  1  0
 31 29  1  0
 33 31  2  0
M  END
$$$$
