WPR.pdb
     RDKit          3D

 33 35  0  0  1  0  0  0  0  0999 V2000
   28.7660  -22.7282  -17.6995 N   0  0  0  0  0  0  0  0  0  0  0  0
   28.1230  -21.6314  -17.0466 C   0  0  1  0  0  0  0  0  0  0  0  0
   26.7949  -21.4065  -17.7349 C   0  0  0  0  0  0  0  0  0  0  0  0
   26.3053  -20.0258  -17.6492 C   0  0  0  0  0  0  0  0  0  0  0  0
   26.9287  -18.9276  -18.2020 C   0  0  0  0  0  0  0  0  0  0  0  0
   26.2084  -17.8136  -17.9333 N   0  0  0  0  0  0  0  0  0  0  0  0
   25.1085  -18.1586  -17.2053 C   0  0  0  0  0  0  0  0  0  0  0  0
   24.0833  -17.3960  -16.6953 C   0  0  0  0  0  0  0  0  0  0  0  0
   23.0799  -18.0093  -15.9848 C   0  0  0  0  0  0  0  0  0  0  0  0
   23.1465  -19.3819  -15.8125 C   0  0  0  0  0  0  0  0  0  0  0  0
   24.1754  -20.1432  -16.3250 C   0  0  0  0  0  0  0  0  0  0  0  0
   25.1773  -19.5381  -17.0333 C   0  0  0  0  0  0  0  0  0  0  0  0
   27.9682  -21.7992  -15.5831 C   0  0  0  0  0  0  0  0  0  0  0  0
   27.5084  -22.9323  -15.2123 O   0  0  0  0  0  0  0  0  0  0  0  0
   28.2875  -20.8171  -14.6191 N   0  0  0  0  0  0  0  0  0  0  0  0
   28.8978  -19.5396  -14.9152 C   0  0  0  0  0  0  0  0  0  0  0  0
   29.2680  -18.9389  -13.5704 C   0  0  0  0  0  0  0  0  0  0  0  0
   29.1484  -20.0592  -12.5748 C   0  0  0  0  0  0  0  0  0  0  0  0
   28.0588  -20.9249  -13.2222 C   0  0  1  0  0  0  0  0  0  0  0  0
   26.7656  -20.3343  -12.7820 C   0  0  0  0  0  0  0  0  0  0  0  0
   26.4681  -19.2249  -13.2811 O   0  0  0  0  0  0  0  0  0  0  0  0
   21.5920  -24.5094  -15.1393 N   0  0  0  0  0  0  0  0  0  0  0  0
   22.6543  -25.2655  -14.5312 C   0  0  0  0  0  0  0  0  0  0  0  0
   23.0551  -26.3487  -15.0913 N   0  0  0  0  0  0  0  0  0  0  0  0
   23.2672  -24.8489  -13.3347 N   0  0  0  0  0  0  0  0  0  0  0  0
   22.8868  -23.5727  -12.6562 C   0  0  0  0  0  0  0  0  0  0  0  0
   23.6679  -22.4550  -13.1989 C   0  0  0  0  0  0  0  0  0  0  0  0
   23.6466  -21.1097  -12.6825 C   0  0  0  0  0  0  0  0  0  0  0  0
   24.4923  -20.5432  -11.6389 C   0  0  2  0  0  0  0  0  0  0  0  0
   25.9097  -20.9685  -11.8589 N   0  0  0  0  0  0  0  0  0  0  0  0
   24.1323  -20.9084  -10.2569 C   0  0  0  0  0  0  0  0  0  0  0  0
   25.0852  -21.6913   -9.5396 O   0  0  0  0  0  0  0  0  0  0  0  0
   23.1171  -20.6258   -9.6366 O   0  0  0  0  0  0  0  0  0  0  0  0
  2  3  1  0
  2  1  1  6
  4  3  1  0
  5  4  2  0
  6  5  1  0
  7  6  1  0
  7 12  2  0
  8  7  1  0
  9  8  2  0
  9 10  1  0
 10 11  2  0
 11 12  1  0
 12  4  1  0
 13  2  1  0
 14 13  2  0
 15 13  1  0
 15 16  1  0
 17 16  1  0
 18 17  1  0
 19 18  1  0
 19 15  1  0
 20 21  2  0
 19 20  1  6
 23 22  1  0
 23 25  1  0
 24 23  2  0
 25 26  1  0
 26 27  1  0
 28 27  1  0
 29 28  1  6
 29 30  1  0
 30 20  1  0
 31 32  1  0
 31 29  1  0
 33 31  2  0
M  END
$$$$
