WPR.pdb
     RDKit          3D

 33 35  0  0  1  0  0  0  0  0999 V2000
   19.7071  -10.4074  -16.2254 N   0  0  0  0  0  0  0  0  0  0  0  0
   19.9113   -9.0194  -15.9527 C   0  0  1  0  0  0  0  0  0  0  0  0
   18.8894   -8.2426  -16.7529 C   0  0  0  0  0  0  0  0  0  0  0  0
   17.4984   -8.5422  -16.3941 C   0  0  0  0  0  0  0  0  0  0  0  0
   16.9635   -9.8077  -16.2811 C   0  0  0  0  0  0  0  0  0  0  0  0
   15.6576   -9.7196  -15.9362 N   0  0  0  0  0  0  0  0  0  0  0  0
   15.3155   -8.4052  -15.8178 C   0  0  0  0  0  0  0  0  0  0  0  0
   14.1213   -7.8053  -15.4911 C   0  0  0  0  0  0  0  0  0  0  0  0
   14.0502   -6.4340  -15.4426 C   0  0  0  0  0  0  0  0  0  0  0  0
   15.1960   -5.7100  -15.7278 C   0  0  0  0  0  0  0  0  0  0  0  0
   16.3912   -6.3145  -16.0550 C   0  0  0  0  0  0  0  0  0  0  0  0
   16.4680   -7.6795  -16.1048 C   0  0  0  0  0  0  0  0  0  0  0  0
   19.8727   -8.6689  -14.5140 C   0  0  0  0  0  0  0  0  0  0  0  0
   19.3992   -9.5747  -13.7472 O   0  0  0  0  0  0  0  0  0  0  0  0
   20.3115   -7.4413  -13.9696 N   0  0  0  0  0  0  0  0  0  0  0  0
   20.8308   -6.3354  -14.7436 C   0  0  0  0  0  0  0  0  0  0  0  0
   21.3907   -5.3516  -13.7312 C   0  0  0  0  0  0  0  0  0  0  0  0
   21.4615   -6.1000  -12.4291 C   0  0  0  0  0  0  0  0  0  0  0  0
   20.3087   -7.1003  -12.5915 C   0  0  1  0  0  0  0  0  0  0  0  0
   19.0846   -6.3725  -12.1595 C   0  0  0  0  0  0  0  0  0  0  0  0
   18.6664   -5.4861  -12.9392 O   0  0  0  0  0  0  0  0  0  0  0  0
   12.3610  -10.8341   -9.4921 N   0  0  0  0  0  0  0  0  0  0  0  0
   12.2322   -9.6070   -8.7520 C   0  0  0  0  0  0  0  0  0  0  0  0
   11.2053   -9.4301   -8.0022 N   0  0  0  0  0  0  0  0  0  0  0  0
   13.2040   -8.5919   -8.8287 N   0  0  0  0  0  0  0  0  0  0  0  0
   14.0944   -8.4405  -10.0194 C   0  0  0  0  0  0  0  0  0  0  0  0
   15.0943   -7.3937   -9.7778 C   0  0  0  0  0  0  0  0  0  0  0  0
   16.0267   -6.9045  -10.7619 C   0  0  0  0  0  0  0  0  0  0  0  0
   17.1370   -5.9826  -10.5554 C   0  0  2  0  0  0  0  0  0  0  0  0
   18.4183   -6.6477  -10.9483 N   0  0  0  0  0  0  0  0  0  0  0  0
   17.3042   -5.4826   -9.1788 C   0  0  0  0  0  0  0  0  0  0  0  0
   16.3728   -4.4919   -8.7470 O   0  0  0  0  0  0  0  0  0  0  0  0
   18.1415   -5.8079   -8.3492 O   0  0  0  0  0  0  0  0  0  0  0  0
  2  3  1  0
  2  1  1  1
  4  3  1  0
  5  4  2  0
  6  5  1  0
  7  6  1  0
  7 12  2  0
  8  7  1  0
  9  8  2  0
  9 10  1  0
 10 11  2  0
 11 12  1  0
 12  4  1  0
 13  2  1  0
 14 13  2  0
 15 13  1  0
 15 16  1  0
 17 16  1  0
 18 17  1  0
 19 18  1  0
 19 15  1  0
 20 21  2  0
 19 20  1  6
 23 22  1  0
 23 25  1  0
 24 23  2  0
 25 26  1  0
 26 27  1  0
 28 27  1  0
 29 28  1  1
 29 30  1  0
 30 20  1  0
 31 32  1  0
 31 29  1  0
 33 31  2  0
M  END
$$$$
