WPR.pdb
     RDKit          3D

 33 35  0  0  1  0  0  0  0  0999 V2000
   28.0165  -20.8802  -16.1219 N   0  0  0  0  0  0  0  0  0  0  0  0
   27.0594  -21.1059  -15.0848 C   0  0  1  0  0  0  0  0  0  0  0  0
   27.1253  -19.9268  -14.1395 C   0  0  0  0  0  0  0  0  0  0  0  0
   27.5508  -20.2764  -12.7793 C   0  0  0  0  0  0  0  0  0  0  0  0
   28.8588  -20.4323  -12.3729 C   0  0  0  0  0  0  0  0  0  0  0  0
   28.8907  -20.7536  -11.0585 N   0  0  0  0  0  0  0  0  0  0  0  0
   27.6142  -20.8138  -10.5831 C   0  0  0  0  0  0  0  0  0  0  0  0
   27.1268  -21.0980   -9.3285 C   0  0  0  0  0  0  0  0  0  0  0  0
   25.7690  -21.0900   -9.1183 C   0  0  0  0  0  0  0  0  0  0  0  0
   24.9438  -20.7931  -10.1903 C   0  0  0  0  0  0  0  0  0  0  0  0
   25.4357  -20.5088  -11.4465 C   0  0  0  0  0  0  0  0  0  0  0  0
   26.7867  -20.5153  -11.6618 C   0  0  0  0  0  0  0  0  0  0  0  0
   25.6816  -21.3517  -15.5702 C   0  0  0  0  0  0  0  0  0  0  0  0
   25.3532  -20.7051  -16.6222 O   0  0  0  0  0  0  0  0  0  0  0  0
   24.7534  -22.2237  -14.9588 N   0  0  0  0  0  0  0  0  0  0  0  0
   25.0304  -23.0384  -13.7963 C   0  0  0  0  0  0  0  0  0  0  0  0
   23.8407  -23.9718  -13.6550 C   0  0  0  0  0  0  0  0  0  0  0  0
   23.0839  -23.8691  -14.9501 C   0  0  0  0  0  0  0  0  0  0  0  0
   23.4144  -22.4336  -15.3812 C   0  0  1  0  0  0  0  0  0  0  0  0
   22.4256  -21.5689  -14.6816 C   0  0  0  0  0  0  0  0  0  0  0  0
   22.8390  -20.9743  -13.6599 O   0  0  0  0  0  0  0  0  0  0  0  0
   23.0269  -14.7249  -17.4758 N   0  0  0  0  0  0  0  0  0  0  0  0
   21.9526  -15.4701  -18.0765 C   0  0  0  0  0  0  0  0  0  0  0  0
   21.3011  -14.9551  -19.0554 N   0  0  0  0  0  0  0  0  0  0  0  0
   21.5950  -16.7517  -17.6180 N   0  0  0  0  0  0  0  0  0  0  0  0
   22.2752  -17.3900  -16.4502 C   0  0  0  0  0  0  0  0  0  0  0  0
   21.6815  -18.7026  -16.1702 C   0  0  0  0  0  0  0  0  0  0  0  0
   20.8809  -19.0128  -15.0125 C   0  0  0  0  0  0  0  0  0  0  0  0
   20.2244  -20.2755  -14.6966 C   0  0  2  0  0  0  0  0  0  0  0  0
   21.0967  -21.4131  -15.1250 N   0  0  0  0  0  0  0  0  0  0  0  0
   18.9009  -20.4789  -15.3131 C   0  0  0  0  0  0  0  0  0  0  0  0
   18.8394  -21.4161  -16.3871 O   0  0  0  0  0  0  0  0  0  0  0  0
   17.8383  -19.9479  -15.0230 O   0  0  0  0  0  0  0  0  0  0  0  0
  2  3  1  0
  2  1  1  6
  4  3  1  0
  5  4  2  0
  6  5  1  0
  7  6  1  0
  7 12  2  0
  8  7  1  0
  9  8  2  0
  9 10  1  0
 10 11  2  0
 11 12  1  0
 12  4  1  0
 13  2  1  0
 14 13  2  0
 15 13  1  0
 15 16  1  0
 17 16  1  0
 18 17  1  0
 19 18  1  0
 19 15  1  0
 20 21  2  0
 19 20  1  1
 23 22  1  0
 23 25  1  0
 24 23  2  0
 25 26  1  0
 26 27  1  0
 28 27  1  0
 29 28  1  6
 29 30  1  0
 30 20  1  0
 31 32  1  0
 31 29  1  0
 33 31  2  0
M  END
$$$$
