WPR.pdb
     RDKit          3D

 33 35  0  0  1  0  0  0  0  0999 V2000
   23.8006  -20.0933  -12.7964 N   0  0  0  0  0  0  0  0  0  0  0  0
   23.6089  -20.8750  -11.6153 C   0  0  1  0  0  0  0  0  0  0  0  0
   24.3346  -20.1789  -10.4854 C   0  0  0  0  0  0  0  0  0  0  0  0
   25.7358  -20.5883  -10.3351 C   0  0  0  0  0  0  0  0  0  0  0  0
   26.4524  -21.3175  -11.2598 C   0  0  0  0  0  0  0  0  0  0  0  0
   27.7107  -21.5182  -10.8033 N   0  0  0  0  0  0  0  0  0  0  0  0
   27.8407  -20.9289   -9.5807 C   0  0  0  0  0  0  0  0  0  0  0  0
   28.9111  -20.8543   -8.7197 C   0  0  0  0  0  0  0  0  0  0  0  0
   28.7684  -20.1860   -7.5278 C   0  0  0  0  0  0  0  0  0  0  0  0
   27.5405  -19.6115   -7.2440 C   0  0  0  0  0  0  0  0  0  0  0  0
   26.4697  -19.6883   -8.1092 C   0  0  0  0  0  0  0  0  0  0  0  0
   26.6059  -20.3524   -9.2974 C   0  0  0  0  0  0  0  0  0  0  0  0
   22.1897  -21.1399  -11.2837 C   0  0  0  0  0  0  0  0  0  0  0  0
   21.5123  -20.1132  -10.9377 O   0  0  0  0  0  0  0  0  0  0  0  0
   21.5735  -22.4105  -11.3274 N   0  0  0  0  0  0  0  0  0  0  0  0
   22.2029  -23.6149  -11.8224 C   0  0  0  0  0  0  0  0  0  0  0  0
   21.0984  -24.6542  -11.9002 C   0  0  0  0  0  0  0  0  0  0  0  0
   19.8096  -23.8934  -11.7562 C   0  0  0  0  0  0  0  0  0  0  0  0
   20.2543  -22.7046  -10.8932 C   0  0  1  0  0  0  0  0  0  0  0  0
   20.1822  -23.1836   -9.4860 C   0  0  0  0  0  0  0  0  0  0  0  0
   21.2191  -23.7198   -9.0325 O   0  0  0  0  0  0  0  0  0  0  0  0
   12.4011  -23.5990   -6.1858 N   0  0  0  0  0  0  0  0  0  0  0  0
   13.2370  -24.7296   -6.4913 C   0  0  0  0  0  0  0  0  0  0  0  0
   12.6947  -25.8226   -6.8901 N   0  0  0  0  0  0  0  0  0  0  0  0
   14.6373  -24.6698   -6.3632 N   0  0  0  0  0  0  0  0  0  0  0  0
   15.3373  -23.4225   -5.9296 C   0  0  0  0  0  0  0  0  0  0  0  0
   16.7871  -23.6442   -5.8771 C   0  0  0  0  0  0  0  0  0  0  0  0
   17.7600  -22.9062   -6.6426 C   0  0  0  0  0  0  0  0  0  0  0  0
   18.9912  -23.4095   -7.2390 C   0  0  2  0  0  0  0  0  0  0  0  0
   19.0254  -23.0518   -8.6914 N   0  0  0  0  0  0  0  0  0  0  0  0
   19.2008  -24.8652   -7.1389 C   0  0  0  0  0  0  0  0  0  0  0  0
   19.7387  -25.3447   -5.9075 O   0  0  0  0  0  0  0  0  0  0  0  0
   18.9714  -25.7250   -7.9775 O   0  0  0  0  0  0  0  0  0  0  0  0
  2  3  1  0
  2  1  1  6
  4  3  1  0
  5  4  2  0
  6  5  1  0
  7  6  1  0
  7 12  2  0
  8  7  1  0
  9  8  2  0
  9 10  1  0
 10 11  2  0
 11 12  1  0
 12  4  1  0
 13  2  1  0
 14 13  2  0
 15 13  1  0
 15 16  1  0
 17 16  1  0
 18 17  1  0
 19 18  1  0
 19 15  1  0
 20 21  2  0
 19 20  1  1
 23 22  1  0
 23 25  1  0
 24 23  2  0
 25 26  1  0
 26 27  1  0
 28 27  1  0
 29 28  1  6
 29 30  1  0
 30 20  1  0
 31 32  1  0
 31 29  1  0
 33 31  2  0
M  END
$$$$
