WPR.pdb
     RDKit          3D

 33 35  0  0  1  0  0  0  0  0999 V2000
   26.8973  -22.8937  -10.6357 N   0  0  0  0  0  0  0  0  0  0  0  0
   25.9915  -21.7995  -10.4782 C   0  0  1  0  0  0  0  0  0  0  0  0
   26.8048  -20.5249  -10.5208 C   0  0  0  0  0  0  0  0  0  0  0  0
   27.8601  -20.4569   -9.5034 C   0  0  0  0  0  0  0  0  0  0  0  0
   29.1246  -20.9897   -9.6355 C   0  0  0  0  0  0  0  0  0  0  0  0
   29.8395  -20.7463   -8.5122 N   0  0  0  0  0  0  0  0  0  0  0  0
   29.0628  -20.0550   -7.6304 C   0  0  0  0  0  0  0  0  0  0  0  0
   29.3289  -19.5802   -6.3670 C   0  0  0  0  0  0  0  0  0  0  0  0
   28.3477  -18.9028   -5.6841 C   0  0  0  0  0  0  0  0  0  0  0  0
   27.1222  -18.7269   -6.3051 C   0  0  0  0  0  0  0  0  0  0  0  0
   26.8589  -19.2043   -7.5715 C   0  0  0  0  0  0  0  0  0  0  0  0
   27.8320  -19.8794   -8.2562 C   0  0  0  0  0  0  0  0  0  0  0  0
   24.8808  -21.7822  -11.4582 C   0  0  0  0  0  0  0  0  0  0  0  0
   25.1172  -22.3894  -12.5574 O   0  0  0  0  0  0  0  0  0  0  0  0
   23.6306  -21.1577  -11.2512 N   0  0  0  0  0  0  0  0  0  0  0  0
   23.3278  -20.2628  -10.1561 C   0  0  0  0  0  0  0  0  0  0  0  0
   21.8263  -20.0415  -10.2086 C   0  0  0  0  0  0  0  0  0  0  0  0
   21.2900  -21.0925  -11.1406 C   0  0  0  0  0  0  0  0  0  0  0  0
   22.4863  -21.3045  -12.0785 C   0  0  1  0  0  0  0  0  0  0  0  0
   22.3663  -20.2514  -13.1232 C   0  0  0  0  0  0  0  0  0  0  0  0
   23.0511  -19.2180  -12.9453 O   0  0  0  0  0  0  0  0  0  0  0  0
   26.1627  -23.9459  -16.2631 N   0  0  0  0  0  0  0  0  0  0  0  0
   24.9538  -24.7223  -16.3401 C   0  0  0  0  0  0  0  0  0  0  0  0
   24.9270  -25.8964  -15.8219 N   0  0  0  0  0  0  0  0  0  0  0  0
   23.7968  -24.2282  -16.9708 N   0  0  0  0  0  0  0  0  0  0  0  0
   23.6222  -22.7749  -17.2724 C   0  0  0  0  0  0  0  0  0  0  0  0
   23.5405  -22.0026  -16.0271 C   0  0  0  0  0  0  0  0  0  0  0  0
   23.2403  -20.5950  -15.9508 C   0  0  0  0  0  0  0  0  0  0  0  0
   21.9615  -19.9737  -15.6287 C   0  0  2  0  0  0  0  0  0  0  0  0
   21.5371  -20.3873  -14.2549 N   0  0  0  0  0  0  0  0  0  0  0  0
   20.8506  -20.2865  -16.5458 C   0  0  0  0  0  0  0  0  0  0  0  0
   20.8318  -19.5770  -17.7835 O   0  0  0  0  0  0  0  0  0  0  0  0
   19.9354  -21.0816  -16.3867 O   0  0  0  0  0  0  0  0  0  0  0  0
  2  3  1  0
  2  1  1  6
  4  3  1  0
  5  4  2  0
  6  5  1  0
  7  6  1  0
  7 12  2  0
  8  7  1  0
  9  8  2  0
  9 10  1  0
 10 11  2  0
 11 12  1  0
 12  4  1  0
 13  2  1  0
 14 13  2  0
 15 13  1  0
 15 16  1  0
 17 16  1  0
 18 17  1  0
 19 18  1  0
 19 15  1  0
 20 21  2  0
 19 20  1  6
 23 22  1  0
 23 25  1  0
 24 23  2  0
 25 26  1  0
 26 27  1  0
 28 27  1  0
 29 28  1  6
 29 30  1  0
 30 20  1  0
 31 32  1  0
 31 29  1  0
 33 31  2  0
M  END
$$$$
