WPR.pdb
     RDKit          3D

 33 35  0  0  1  0  0  0  0  0999 V2000
   24.6438  -19.8945   -9.6312 N   0  0  0  0  0  0  0  0  0  0  0  0
   25.9398  -20.1314  -10.1852 C   0  0  1  0  0  0  0  0  0  0  0  0
   26.6100  -21.1914   -9.3396 C   0  0  0  0  0  0  0  0  0  0  0  0
   26.7165  -20.8411   -7.9186 C   0  0  0  0  0  0  0  0  0  0  0  0
   25.6846  -20.9042   -7.0067 C   0  0  0  0  0  0  0  0  0  0  0  0
   26.1291  -20.5117   -5.7900 N   0  0  0  0  0  0  0  0  0  0  0  0
   27.4500  -20.1868   -5.8814 C   0  0  0  0  0  0  0  0  0  0  0  0
   28.3408  -19.7386   -4.9337 C   0  0  0  0  0  0  0  0  0  0  0  0
   29.6396  -19.4822   -5.3015 C   0  0  0  0  0  0  0  0  0  0  0  0
   29.9970  -19.6888   -6.6236 C   0  0  0  0  0  0  0  0  0  0  0  0
   29.1015  -20.1380   -7.5709 C   0  0  0  0  0  0  0  0  0  0  0  0
   27.8071  -20.3949   -7.2105 C   0  0  0  0  0  0  0  0  0  0  0  0
   25.9317  -20.4909  -11.6222 C   0  0  0  0  0  0  0  0  0  0  0  0
   24.8800  -21.0948  -12.0248 O   0  0  0  0  0  0  0  0  0  0  0  0
   26.9782  -20.2141  -12.5300 N   0  0  0  0  0  0  0  0  0  0  0  0
   28.3202  -19.8326  -12.1489 C   0  0  0  0  0  0  0  0  0  0  0  0
   29.0082  -19.4085  -13.4347 C   0  0  0  0  0  0  0  0  0  0  0  0
   27.9130  -19.2536  -14.4531 C   0  0  0  0  0  0  0  0  0  0  0  0
   26.8811  -20.2700  -13.9453 C   0  0  1  0  0  0  0  0  0  0  0  0
   27.2936  -21.5792  -14.5203 C   0  0  0  0  0  0  0  0  0  0  0  0
   28.5071  -21.8699  -14.4145 O   0  0  0  0  0  0  0  0  0  0  0  0
   22.0488  -22.7487  -13.9946 N   0  0  0  0  0  0  0  0  0  0  0  0
   22.2225  -22.8080  -15.4217 C   0  0  0  0  0  0  0  0  0  0  0  0
   21.8809  -21.7995  -16.1387 N   0  0  0  0  0  0  0  0  0  0  0  0
   22.7574  -23.9454  -16.0547 N   0  0  0  0  0  0  0  0  0  0  0  0
   23.2705  -25.1135  -15.2763 C   0  0  0  0  0  0  0  0  0  0  0  0
   24.7099  -24.9681  -15.0291 C   0  0  0  0  0  0  0  0  0  0  0  0
   25.6812  -24.5913  -16.0250 C   0  0  0  0  0  0  0  0  0  0  0  0
   26.8229  -23.6995  -15.8624 C   0  0  2  0  0  0  0  0  0  0  0  0
   26.3888  -22.4567  -15.1514 N   0  0  0  0  0  0  0  0  0  0  0  0
   27.4909  -23.2835  -17.1088 C   0  0  0  0  0  0  0  0  0  0  0  0
   28.9166  -23.2401  -17.0796 O   0  0  0  0  0  0  0  0  0  0  0  0
   26.9815  -22.9693  -18.1751 O   0  0  0  0  0  0  0  0  0  0  0  0
  2  3  1  0
  2  1  1  1
  4  3  1  0
  5  4  2  0
  6  5  1  0
  7  6  1  0
  7 12  2  0
  8  7  1  0
  9  8  2  0
  9 10  1  0
 10 11  2  0
 11 12  1  0
 12  4  1  0
 13  2  1  0
 14 13  2  0
 15 13  1  0
 15 16  1  0
 17 16  1  0
 18 17  1  0
 19 18  1  0
 19 15  1  0
 20 21  2  0
 19 20  1  6
 23 22  1  0
 23 25  1  0
 24 23  2  0
 25 26  1  0
 26 27  1  0
 28 27  1  0
 29 28  1  6
 29 30  1  0
 30 20  1  0
 31 32  1  0
 31 29  1  0
 33 31  2  0
M  END
$$$$
