WPR.pdb
     RDKit          3D

 33 35  0  0  1  0  0  0  0  0999 V2000
   21.9610  -21.2322  -14.0510 N   0  0  0  0  0  0  0  0  0  0  0  0
   21.3827  -20.7138  -12.8512 C   0  0  1  0  0  0  0  0  0  0  0  0
   19.9851  -20.2420  -13.1860 C   0  0  0  0  0  0  0  0  0  0  0  0
   19.9471  -19.0604  -14.0554 C   0  0  0  0  0  0  0  0  0  0  0  0
   19.8830  -19.0906  -15.4321 C   0  0  0  0  0  0  0  0  0  0  0  0
   19.8633  -17.8258  -15.9136 N   0  0  0  0  0  0  0  0  0  0  0  0
   19.9137  -16.9504  -14.8696 C   0  0  0  0  0  0  0  0  0  0  0  0
   19.9179  -15.5751  -14.8393 C   0  0  0  0  0  0  0  0  0  0  0  0
   19.9755  -14.9306  -13.6272 C   0  0  0  0  0  0  0  0  0  0  0  0
   20.0273  -15.7028  -12.4787 C   0  0  0  0  0  0  0  0  0  0  0  0
   20.0230  -17.0812  -12.5126 C   0  0  0  0  0  0  0  0  0  0  0  0
   19.9657  -17.7284  -13.7165 C   0  0  0  0  0  0  0  0  0  0  0  0
   21.3909  -21.6610  -11.7123 C   0  0  0  0  0  0  0  0  0  0  0  0
   21.2311  -22.8892  -12.0265 O   0  0  0  0  0  0  0  0  0  0  0  0
   21.5581  -21.2945  -10.3582 N   0  0  0  0  0  0  0  0  0  0  0  0
   21.7603  -19.9412   -9.8897 C   0  0  0  0  0  0  0  0  0  0  0  0
   22.1278  -20.0646   -8.4213 C   0  0  0  0  0  0  0  0  0  0  0  0
   22.4430  -21.5178   -8.1991 C   0  0  0  0  0  0  0  0  0  0  0  0
   21.5503  -22.1863   -9.2536 C   0  0  1  0  0  0  0  0  0  0  0  0
   20.2148  -22.3306   -8.6128 C   0  0  0  0  0  0  0  0  0  0  0  0
   19.4200  -21.3765   -8.7745 O   0  0  0  0  0  0  0  0  0  0  0  0
   19.7515  -29.0882  -11.0562 N   0  0  0  0  0  0  0  0  0  0  0  0
   18.9639  -29.4930   -9.9223 C   0  0  0  0  0  0  0  0  0  0  0  0
   19.1670  -30.6459   -9.3955 N   0  0  0  0  0  0  0  0  0  0  0  0
   17.9733  -28.6572   -9.3739 N   0  0  0  0  0  0  0  0  0  0  0  0
   17.8116  -27.2360   -9.8074 C   0  0  0  0  0  0  0  0  0  0  0  0
   18.1913  -26.3258   -8.7206 C   0  0  0  0  0  0  0  0  0  0  0  0
   18.1321  -24.8876   -8.7940 C   0  0  0  0  0  0  0  0  0  0  0  0
   18.4277  -23.9293   -7.7361 C   0  0  2  0  0  0  0  0  0  0  0  0
   19.8445  -23.4656   -7.8635 N   0  0  0  0  0  0  0  0  0  0  0  0
   18.2480  -24.4229   -6.3588 C   0  0  0  0  0  0  0  0  0  0  0  0
   16.9104  -24.4442   -5.8627 O   0  0  0  0  0  0  0  0  0  0  0  0
   19.1001  -24.8221   -5.5778 O   0  0  0  0  0  0  0  0  0  0  0  0
  2  3  1  0
  2  1  1  6
  4  3  1  0
  5  4  2  0
  6  5  1  0
  7  6  1  0
  7 12  2  0
  8  7  1  0
  9  8  2  0
  9 10  1  0
 10 11  2  0
 11 12  1  0
 12  4  1  0
 13  2  1  0
 14 13  2  0
 15 13  1  0
 15 16  1  0
 17 16  1  0
 18 17  1  0
 19 18  1  0
 19 15  1  0
 20 21  2  0
 19 20  1  1
 23 22  1  0
 23 25  1  0
 24 23  2  0
 25 26  1  0
 26 27  1  0
 28 27  1  0
 29 28  1  6
 29 30  1  0
 30 20  1  0
 31 32  1  0
 31 29  1  0
 33 31  2  0
M  END
$$$$
