WPR.pdb
     RDKit          3D

 33 35  0  0  1  0  0  0  0  0999 V2000
   25.5273  -21.9523  -18.8580 N   0  0  0  0  0  0  0  0  0  0  0  0
   25.1891  -21.0148  -17.8337 C   0  0  1  0  0  0  0  0  0  0  0  0
   23.7317  -21.2246  -17.4871 C   0  0  0  0  0  0  0  0  0  0  0  0
   23.1743  -20.1929  -16.6048 C   0  0  0  0  0  0  0  0  0  0  0  0
   22.9119  -18.8909  -16.9740 C   0  0  0  0  0  0  0  0  0  0  0  0
   22.4041  -18.2132  -15.9182 N   0  0  0  0  0  0  0  0  0  0  0  0
   22.3249  -19.0519  -14.8463 C   0  0  0  0  0  0  0  0  0  0  0  0
   21.8821  -18.8408  -13.5610 C   0  0  0  0  0  0  0  0  0  0  0  0
   21.9114  -19.8794  -12.6619 C   0  0  0  0  0  0  0  0  0  0  0  0
   22.3905  -21.1047  -13.0948 C   0  0  0  0  0  0  0  0  0  0  0  0
   22.8336  -21.3128  -14.3837 C   0  0  0  0  0  0  0  0  0  0  0  0
   22.8067  -20.2825  -15.2833 C   0  0  0  0  0  0  0  0  0  0  0  0
   26.0591  -21.0800  -16.6366 C   0  0  0  0  0  0  0  0  0  0  0  0
   26.5312  -22.2373  -16.3710 O   0  0  0  0  0  0  0  0  0  0  0  0
   26.3799  -19.9799  -15.8103 N   0  0  0  0  0  0  0  0  0  0  0  0
   25.8866  -18.6338  -16.0020 C   0  0  0  0  0  0  0  0  0  0  0  0
   26.6779  -17.7648  -15.0403 C   0  0  0  0  0  0  0  0  0  0  0  0
   27.8282  -18.6131  -14.5737 C   0  0  0  0  0  0  0  0  0  0  0  0
   27.2249  -20.0212  -14.6702 C   0  0  1  0  0  0  0  0  0  0  0  0
   26.4922  -20.2302  -13.3918 C   0  0  0  0  0  0  0  0  0  0  0  0
   25.3201  -19.7912  -13.3501 O   0  0  0  0  0  0  0  0  0  0  0  0
   32.3808  -22.9993   -8.8432 N   0  0  0  0  0  0  0  0  0  0  0  0
   31.6340  -22.1345   -7.9688 C   0  0  0  0  0  0  0  0  0  0  0  0
   32.1516  -21.7715   -6.8516 N   0  0  0  0  0  0  0  0  0  0  0  0
   30.3471  -21.6751   -8.3058 N   0  0  0  0  0  0  0  0  0  0  0  0
   29.4253  -22.4740   -9.1694 C   0  0  0  0  0  0  0  0  0  0  0  0
   28.1936  -21.7206   -9.4328 C   0  0  0  0  0  0  0  0  0  0  0  0
   27.1036  -22.1875  -10.2520 C   0  0  0  0  0  0  0  0  0  0  0  0
   26.2524  -21.3992  -11.1348 C   0  0  2  0  0  0  0  0  0  0  0  0
   27.0639  -20.8816  -12.2801 N   0  0  0  0  0  0  0  0  0  0  0  0
   25.5827  -20.2434  -10.5115 C   0  0  0  0  0  0  0  0  0  0  0  0
   26.2236  -18.9786  -10.6698 O   0  0  0  0  0  0  0  0  0  0  0  0
   24.5404  -20.2233   -9.8723 O   0  0  0  0  0  0  0  0  0  0  0  0
  2  3  1  0
  2  1  1  6
  4  3  1  0
  5  4  2  0
  6  5  1  0
  7  6  1  0
  7 12  2  0
  8  7  1  0
  9  8  2  0
  9 10  1  0
 10 11  2  0
 11 12  1  0
 12  4  1  0
 13  2  1  0
 14 13  2  0
 15 13  1  0
 15 16  1  0
 17 16  1  0
 18 17  1  0
 19 18  1  0
 19 15  1  0
 20 21  2  0
 19 20  1  1
 23 22  1  0
 23 25  1  0
 24 23  2  0
 25 26  1  0
 26 27  1  0
 28 27  1  0
 29 28  1  1
 29 30  1  0
 30 20  1  0
 31 32  1  0
 31 29  1  0
 33 31  2  0
M  END
$$$$
