WPR.pdb
     RDKit          3D

 33 35  0  0  1  0  0  0  0  0999 V2000
   24.2571  -18.9358   -8.4376 N   0  0  0  0  0  0  0  0  0  0  0  0
   25.0340  -19.8462   -9.2187 C   0  0  1  0  0  0  0  0  0  0  0  0
   25.3780  -21.0254   -8.3358 C   0  0  0  0  0  0  0  0  0  0  0  0
   25.9622  -20.6515   -7.0427 C   0  0  0  0  0  0  0  0  0  0  0  0
   25.2451  -20.3842   -5.8961 C   0  0  0  0  0  0  0  0  0  0  0  0
   26.0960  -20.0728   -4.8906 N   0  0  0  0  0  0  0  0  0  0  0  0
   27.3762  -20.1299   -5.3561 C   0  0  0  0  0  0  0  0  0  0  0  0
   28.5794  -19.9010   -4.7297 C   0  0  0  0  0  0  0  0  0  0  0  0
   29.7446  -20.0308   -5.4463 C   0  0  0  0  0  0  0  0  0  0  0  0
   29.6540  -20.3901   -6.7808 C   0  0  0  0  0  0  0  0  0  0  0  0
   28.4463  -20.6187   -7.4055 C   0  0  0  0  0  0  0  0  0  0  0  0
   27.2830  -20.4910   -6.6971 C   0  0  0  0  0  0  0  0  0  0  0  0
   24.3882  -20.2692  -10.4829 C   0  0  0  0  0  0  0  0  0  0  0  0
   23.1170  -20.1425  -10.5119 O   0  0  0  0  0  0  0  0  0  0  0  0
   25.0726  -20.7823  -11.6073 N   0  0  0  0  0  0  0  0  0  0  0  0
   26.4275  -21.2879  -11.5872 C   0  0  0  0  0  0  0  0  0  0  0  0
   26.8109  -21.4954  -13.0419 C   0  0  0  0  0  0  0  0  0  0  0  0
   25.7622  -20.7801  -13.8476 C   0  0  0  0  0  0  0  0  0  0  0  0
   24.5435  -20.8858  -12.9206 C   0  0  1  0  0  0  0  0  0  0  0  0
   23.9316  -22.2102  -13.2146 C   0  0  0  0  0  0  0  0  0  0  0  0
   24.5528  -23.2109  -12.7890 O   0  0  0  0  0  0  0  0  0  0  0  0
   19.5262  -24.0757   -7.4433 N   0  0  0  0  0  0  0  0  0  0  0  0
   18.5335  -24.4050   -8.4312 C   0  0  0  0  0  0  0  0  0  0  0  0
   17.2955  -24.4336   -8.0928 N   0  0  0  0  0  0  0  0  0  0  0  0
   18.8839  -24.6984   -9.7623 N   0  0  0  0  0  0  0  0  0  0  0  0
   20.2652  -24.4668  -10.2838 C   0  0  0  0  0  0  0  0  0  0  0  0
   20.2904  -23.2830  -11.1508 C   0  0  0  0  0  0  0  0  0  0  0  0
   21.3996  -22.9001  -11.9876 C   0  0  0  0  0  0  0  0  0  0  0  0
   21.5655  -23.1481  -13.4145 C   0  0  2  0  0  0  0  0  0  0  0  0
   22.7246  -22.3538  -13.9283 N   0  0  0  0  0  0  0  0  0  0  0  0
   20.4011  -22.8246  -14.2585 C   0  0  0  0  0  0  0  0  0  0  0  0
   20.0911  -21.4398  -14.4067 O   0  0  0  0  0  0  0  0  0  0  0  0
   19.6593  -23.5916  -14.8557 O   0  0  0  0  0  0  0  0  0  0  0  0
  2  3  1  0
  2  1  1  1
  4  3  1  0
  5  4  2  0
  6  5  1  0
  7  6  1  0
  7 12  2  0
  8  7  1  0
  9  8  2  0
  9 10  1  0
 10 11  2  0
 11 12  1  0
 12  4  1  0
 13  2  1  0
 14 13  2  0
 15 13  1  0
 15 16  1  0
 17 16  1  0
 18 17  1  0
 19 18  1  0
 19 15  1  0
 20 21  2  0
 19 20  1  1
 23 22  1  0
 23 25  1  0
 24 23  2  0
 25 26  1  0
 26 27  1  0
 28 27  1  0
 29 28  1  1
 29 30  1  0
 30 20  1  0
 31 32  1  0
 31 29  1  0
 33 31  2  0
M  END
$$$$
