WPR.pdb
     RDKit          3D

 33 35  0  0  1  0  0  0  0  0999 V2000
   24.2621  -19.3974   -9.7180 N   0  0  0  0  0  0  0  0  0  0  0  0
   25.5778  -19.7411  -10.1580 C   0  0  1  0  0  0  0  0  0  0  0  0
   26.0247  -20.9462   -9.3605 C   0  0  0  0  0  0  0  0  0  0  0  0
   26.0423  -20.7276   -7.9095 C   0  0  0  0  0  0  0  0  0  0  0  0
   24.9266  -20.6771   -7.1015 C   0  0  0  0  0  0  0  0  0  0  0  0
   25.3036  -20.4610   -5.8197 N   0  0  0  0  0  0  0  0  0  0  0  0
   26.6626  -20.3668   -5.7645 C   0  0  0  0  0  0  0  0  0  0  0  0
   27.5142  -20.1542   -4.7052 C   0  0  0  0  0  0  0  0  0  0  0  0
   28.8683  -20.1026   -4.9324 C   0  0  0  0  0  0  0  0  0  0  0  0
   29.3194  -20.2688   -6.2313 C   0  0  0  0  0  0  0  0  0  0  0  0
   28.4631  -20.4817   -7.2908 C   0  0  0  0  0  0  0  0  0  0  0  0
   27.1139  -20.5340   -7.0706 C   0  0  0  0  0  0  0  0  0  0  0  0
   25.6923  -19.9678  -11.6174 C   0  0  0  0  0  0  0  0  0  0  0  0
   24.5979  -20.2592  -12.2091 O   0  0  0  0  0  0  0  0  0  0  0  0
   26.8936  -19.8829  -12.3562 N   0  0  0  0  0  0  0  0  0  0  0  0
   28.2115  -19.7550  -11.7743 C   0  0  0  0  0  0  0  0  0  0  0  0
   29.1461  -19.4579  -12.9338 C   0  0  0  0  0  0  0  0  0  0  0  0
   28.2587  -19.1006  -14.0937 C   0  0  0  0  0  0  0  0  0  0  0  0
   26.9972  -19.9135  -13.7717 C   0  0  1  0  0  0  0  0  0  0  0  0
   27.2470  -21.2734  -14.3224 C   0  0  0  0  0  0  0  0  0  0  0  0
   27.8980  -22.0534  -13.5902 O   0  0  0  0  0  0  0  0  0  0  0  0
   21.0497  -25.5317  -13.4468 N   0  0  0  0  0  0  0  0  0  0  0  0
   22.2866  -26.2469  -13.6162 C   0  0  0  0  0  0  0  0  0  0  0  0
   22.2611  -27.5230  -13.7531 N   0  0  0  0  0  0  0  0  0  0  0  0
   23.5277  -25.5834  -13.6347 N   0  0  0  0  0  0  0  0  0  0  0  0
   23.6328  -24.1020  -13.4676 C   0  0  0  0  0  0  0  0  0  0  0  0
   24.3531  -23.5114  -14.6017 C   0  0  0  0  0  0  0  0  0  0  0  0
   25.7427  -23.7449  -14.9047 C   0  0  0  0  0  0  0  0  0  0  0  0
   26.5449  -23.1144  -15.9459 C   0  0  2  0  0  0  0  0  0  0  0  0
   26.7874  -21.6814  -15.5909 N   0  0  0  0  0  0  0  0  0  0  0  0
   25.9664  -23.1406  -17.3015 C   0  0  0  0  0  0  0  0  0  0  0  0
   25.9600  -24.4045  -17.9634 O   0  0  0  0  0  0  0  0  0  0  0  0
   25.4852  -22.2153  -17.9399 O   0  0  0  0  0  0  0  0  0  0  0  0
  2  3  1  0
  2  1  1  6
  4  3  1  0
  5  4  2  0
  6  5  1  0
  7  6  1  0
  7 12  2  0
  8  7  1  0
  9  8  2  0
  9 10  1  0
 10 11  2  0
 11 12  1  0
 12  4  1  0
 13  2  1  0
 14 13  2  0
 15 13  1  0
 15 16  1  0
 17 16  1  0
 18 17  1  0
 19 18  1  0
 19 15  1  0
 20 21  2  0
 19 20  1  1
 23 22  1  0
 23 25  1  0
 24 23  2  0
 25 26  1  0
 26 27  1  0
 28 27  1  0
 29 28  1  1
 29 30  1  0
 30 20  1  0
 31 32  1  0
 31 29  1  0
 33 31  2  0
M  END
$$$$
