WPR.pdb
     RDKit          3D

 33 35  0  0  1  0  0  0  0  0999 V2000
   25.9432  -19.8066  -16.0385 N   0  0  0  0  0  0  0  0  0  0  0  0
   25.5681  -19.5011  -14.6936 C   0  0  1  0  0  0  0  0  0  0  0  0
   24.5838  -18.3537  -14.7445 C   0  0  0  0  0  0  0  0  0  0  0  0
   25.1735  -17.0811  -15.1757 C   0  0  0  0  0  0  0  0  0  0  0  0
   26.4636  -16.6744  -14.9099 C   0  0  0  0  0  0  0  0  0  0  0  0
   26.6757  -15.4531  -15.4533 N   0  0  0  0  0  0  0  0  0  0  0  0
   25.5376  -15.0402  -16.0803 C   0  0  0  0  0  0  0  0  0  0  0  0
   25.2516  -13.8860  -16.7721 C   0  0  0  0  0  0  0  0  0  0  0  0
   24.0000  -13.7212  -17.3145 C   0  0  0  0  0  0  0  0  0  0  0  0
   23.0732  -14.7352  -17.1383 C   0  0  0  0  0  0  0  0  0  0  0  0
   23.3631  -15.8907  -16.4443 C   0  0  0  0  0  0  0  0  0  0  0  0
   24.6076  -16.0604  -15.9021 C   0  0  0  0  0  0  0  0  0  0  0  0
   25.0365  -20.6552  -13.9322 C   0  0  0  0  0  0  0  0  0  0  0  0
   24.5531  -21.5993  -14.6448 O   0  0  0  0  0  0  0  0  0  0  0  0
   25.0355  -20.7621  -12.5235 N   0  0  0  0  0  0  0  0  0  0  0  0
   25.6040  -19.7840  -11.6225 C   0  0  0  0  0  0  0  0  0  0  0  0
   25.5866  -20.4309  -10.2487 C   0  0  0  0  0  0  0  0  0  0  0  0
   25.3087  -21.8893  -10.4865 C   0  0  0  0  0  0  0  0  0  0  0  0
   24.4786  -21.8331  -11.7763 C   0  0  1  0  0  0  0  0  0  0  0  0
   23.0770  -21.5901  -11.3391 C   0  0  0  0  0  0  0  0  0  0  0  0
   22.7548  -20.3931  -11.1612 O   0  0  0  0  0  0  0  0  0  0  0  0
   15.4541  -24.5390   -8.9740 N   0  0  0  0  0  0  0  0  0  0  0  0
   15.4357  -24.6890  -10.4048 C   0  0  0  0  0  0  0  0  0  0  0  0
   14.3329  -24.5212  -11.0401 N   0  0  0  0  0  0  0  0  0  0  0  0
   16.5972  -25.0167  -11.1288 N   0  0  0  0  0  0  0  0  0  0  0  0
   17.9281  -25.1575  -10.4635 C   0  0  0  0  0  0  0  0  0  0  0  0
   18.6100  -23.8591  -10.4089 C   0  0  0  0  0  0  0  0  0  0  0  0
   19.9833  -23.6352  -10.7844 C   0  0  0  0  0  0  0  0  0  0  0  0
   20.7324  -22.3864  -10.7168 C   0  0  2  0  0  0  0  0  0  0  0  0
   22.1492  -22.6307  -11.1311 N   0  0  0  0  0  0  0  0  0  0  0  0
   20.7662  -21.7327   -9.3960 C   0  0  0  0  0  0  0  0  0  0  0  0
   21.7627  -22.1949   -8.4855 O   0  0  0  0  0  0  0  0  0  0  0  0
   20.0486  -20.8375   -8.9731 O   0  0  0  0  0  0  0  0  0  0  0  0
  2  3  1  0
  2  1  1  6
  4  3  1  0
  5  4  2  0
  6  5  1  0
  7  6  1  0
  7 12  2  0
  8  7  1  0
  9  8  2  0
  9 10  1  0
 10 11  2  0
 11 12  1  0
 12  4  1  0
 13  2  1  0
 14 13  2  0
 15 13  1  0
 15 16  1  0
 17 16  1  0
 18 17  1  0
 19 18  1  0
 19 15  1  0
 20 21  2  0
 19 20  1  1
 23 22  1  0
 23 25  1  0
 24 23  2  0
 25 26  1  0
 26 27  1  0
 28 27  1  0
 29 28  1  1
 29 30  1  0
 30 20  1  0
 31 32  1  0
 31 29  1  0
 33 31  2  0
M  END
$$$$
