WPR.pdb
     RDKit          3D

 33 35  0  0  1  0  0  0  0  0999 V2000
   26.7492  -18.5421  -10.8192 N   0  0  0  0  0  0  0  0  0  0  0  0
   27.2401  -19.7590  -11.3856 C   0  0  1  0  0  0  0  0  0  0  0  0
   26.7523  -20.8960  -10.5153 C   0  0  0  0  0  0  0  0  0  0  0  0
   27.1027  -20.7540   -9.0974 C   0  0  0  0  0  0  0  0  0  0  0  0
   26.2169  -20.4384   -8.0894 C   0  0  0  0  0  0  0  0  0  0  0  0
   26.8735  -20.3888   -6.9069 N   0  0  0  0  0  0  0  0  0  0  0  0
   28.1913  -20.6689   -7.1165 C   0  0  0  0  0  0  0  0  0  0  0  0
   29.2524  -20.7415   -6.2441 C   0  0  0  0  0  0  0  0  0  0  0  0
   30.5005  -21.0490   -6.7294 C   0  0  0  0  0  0  0  0  0  0  0  0
   30.6353  -21.2743   -8.0893 C   0  0  0  0  0  0  0  0  0  0  0  0
   29.5696  -21.2006   -8.9609 C   0  0  0  0  0  0  0  0  0  0  0  0
   28.3245  -20.8949   -8.4835 C   0  0  0  0  0  0  0  0  0  0  0  0
   26.8817  -19.9566  -12.8092 C   0  0  0  0  0  0  0  0  0  0  0  0
   25.8843  -19.2705  -13.2182 O   0  0  0  0  0  0  0  0  0  0  0  0
   27.5539  -20.8246  -13.6985 N   0  0  0  0  0  0  0  0  0  0  0  0
   28.5751  -21.7724  -13.3105 C   0  0  0  0  0  0  0  0  0  0  0  0
   29.1664  -22.2944  -14.6083 C   0  0  0  0  0  0  0  0  0  0  0  0
   28.6752  -21.3663  -15.6843 C   0  0  0  0  0  0  0  0  0  0  0  0
   27.3332  -20.9064  -15.0985 C   0  0  1  0  0  0  0  0  0  0  0  0
   26.3484  -21.9523  -15.4871 C   0  0  0  0  0  0  0  0  0  0  0  0
   26.4287  -23.0405  -14.8725 O   0  0  0  0  0  0  0  0  0  0  0  0
   18.8807  -19.6877  -18.6147 N   0  0  0  0  0  0  0  0  0  0  0  0
   19.1057  -19.4284  -17.2175 C   0  0  0  0  0  0  0  0  0  0  0  0
   18.1073  -19.1435  -16.4625 N   0  0  0  0  0  0  0  0  0  0  0  0
   20.3946  -19.4777  -16.6545 N   0  0  0  0  0  0  0  0  0  0  0  0
   21.6127  -19.7020  -17.4909 C   0  0  0  0  0  0  0  0  0  0  0  0
   22.5893  -20.5177  -16.7596 C   0  0  0  0  0  0  0  0  0  0  0  0
   23.0658  -21.8092  -17.1865 C   0  0  0  0  0  0  0  0  0  0  0  0
   24.1446  -22.5973  -16.6033 C   0  0  2  0  0  0  0  0  0  0  0  0
   25.3734  -21.7521  -16.4853 N   0  0  0  0  0  0  0  0  0  0  0  0
   24.5177  -23.8160  -17.3440 C   0  0  0  0  0  0  0  0  0  0  0  0
   23.6743  -24.9520  -17.1607 O   0  0  0  0  0  0  0  0  0  0  0  0
   25.4614  -23.9843  -18.1031 O   0  0  0  0  0  0  0  0  0  0  0  0
  2  3  1  0
  2  1  1  1
  4  3  1  0
  5  4  2  0
  6  5  1  0
  7  6  1  0
  7 12  2  0
  8  7  1  0
  9  8  2  0
  9 10  1  0
 10 11  2  0
 11 12  1  0
 12  4  1  0
 13  2  1  0
 14 13  2  0
 15 13  1  0
 15 16  1  0
 17 16  1  0
 18 17  1  0
 19 18  1  0
 19 15  1  0
 20 21  2  0
 19 20  1  1
 23 22  1  0
 23 25  1  0
 24 23  2  0
 25 26  1  0
 26 27  1  0
 28 27  1  0
 29 28  1  6
 29 30  1  0
 30 20  1  0
 31 32  1  0
 31 29  1  0
 33 31  2  0
M  END
$$$$
