WPR.pdb
     RDKit          3D

 33 35  0  0  1  0  0  0  0  0999 V2000
   26.0479  -20.3573  -16.5886 N   0  0  0  0  0  0  0  0  0  0  0  0
   26.7785  -19.8207  -15.4837 C   0  0  1  0  0  0  0  0  0  0  0  0
   26.2613  -18.4218  -15.2316 C   0  0  0  0  0  0  0  0  0  0  0  0
   26.3001  -17.5502  -16.4116 C   0  0  0  0  0  0  0  0  0  0  0  0
   25.1944  -17.0355  -17.0540 C   0  0  0  0  0  0  0  0  0  0  0  0
   25.5907  -16.2750  -18.1012 N   0  0  0  0  0  0  0  0  0  0  0  0
   26.9527  -16.2773  -18.1637 C   0  0  0  0  0  0  0  0  0  0  0  0
   27.8210  -15.6629  -19.0361 C   0  0  0  0  0  0  0  0  0  0  0  0
   29.1739  -15.8348  -18.8689 C   0  0  0  0  0  0  0  0  0  0  0  0
   29.6068  -16.6271  -17.8187 C   0  0  0  0  0  0  0  0  0  0  0  0
   28.7338  -17.2416  -16.9462 C   0  0  0  0  0  0  0  0  0  0  0  0
   27.3856  -17.0740  -17.1077 C   0  0  0  0  0  0  0  0  0  0  0  0
   26.7362  -20.6567  -14.2616 C   0  0  0  0  0  0  0  0  0  0  0  0
   25.7751  -21.4973  -14.2119 O   0  0  0  0  0  0  0  0  0  0  0  0
   27.6604  -20.5771  -13.1961 N   0  0  0  0  0  0  0  0  0  0  0  0
   28.8525  -19.7580  -13.1987 C   0  0  0  0  0  0  0  0  0  0  0  0
   29.6426  -20.1774  -11.9714 C   0  0  0  0  0  0  0  0  0  0  0  0
   29.0162  -21.4604  -11.5001 C   0  0  0  0  0  0  0  0  0  0  0  0
   27.5649  -21.2777  -11.9650 C   0  0  1  0  0  0  0  0  0  0  0  0
   26.8949  -20.5008  -10.8868 C   0  0  0  0  0  0  0  0  0  0  0  0
   27.2062  -19.2905  -10.8047 O   0  0  0  0  0  0  0  0  0  0  0  0
   18.9035  -22.2303  -11.0037 N   0  0  0  0  0  0  0  0  0  0  0  0
   19.8311  -22.5958  -12.0411 C   0  0  0  0  0  0  0  0  0  0  0  0
   19.4408  -23.3674  -12.9898 N   0  0  0  0  0  0  0  0  0  0  0  0
   21.1590  -22.1298  -12.0432 N   0  0  0  0  0  0  0  0  0  0  0  0
   21.6433  -21.1229  -11.0506 C   0  0  0  0  0  0  0  0  0  0  0  0
   23.0776  -20.8736  -11.2365 C   0  0  0  0  0  0  0  0  0  0  0  0
   23.8642  -19.9651  -10.4408 C   0  0  0  0  0  0  0  0  0  0  0  0
   24.8290  -20.2995   -9.4003 C   0  0  2  0  0  0  0  0  0  0  0  0
   25.9614  -21.0726   -9.9989 N   0  0  0  0  0  0  0  0  0  0  0  0
   24.3036  -21.0898   -8.2724 C   0  0  0  0  0  0  0  0  0  0  0  0
   24.8225  -22.4110   -8.1283 O   0  0  0  0  0  0  0  0  0  0  0  0
   23.4759  -20.7605   -7.4347 O   0  0  0  0  0  0  0  0  0  0  0  0
  2  3  1  0
  2  1  1  6
  4  3  1  0
  5  4  2  0
  6  5  1  0
  7  6  1  0
  7 12  2  0
  8  7  1  0
  9  8  2  0
  9 10  1  0
 10 11  2  0
 11 12  1  0
 12  4  1  0
 13  2  1  0
 14 13  2  0
 15 13  1  0
 15 16  1  0
 17 16  1  0
 18 17  1  0
 19 18  1  0
 19 15  1  0
 20 21  2  0
 19 20  1  1
 23 22  1  0
 23 25  1  0
 24 23  2  0
 25 26  1  0
 26 27  1  0
 28 27  1  0
 29 28  1  6
 29 30  1  0
 30 20  1  0
 31 32  1  0
 31 29  1  0
 33 31  2  0
M  END
$$$$
