WPR.pdb
     RDKit          3D

 33 35  0  0  1  0  0  0  0  0999 V2000
   26.7472  -19.9459  -11.9446 N   0  0  0  0  0  0  0  0  0  0  0  0
   25.9331  -21.0398  -11.5167 C   0  0  1  0  0  0  0  0  0  0  0  0
   25.8996  -21.0187  -10.0045 C   0  0  0  0  0  0  0  0  0  0  0  0
   27.2264  -21.0506   -9.3785 C   0  0  0  0  0  0  0  0  0  0  0  0
   28.3571  -21.6004   -9.9439 C   0  0  0  0  0  0  0  0  0  0  0  0
   29.4035  -21.4578   -9.0973 N   0  0  0  0  0  0  0  0  0  0  0  0
   28.9811  -20.8170   -7.9704 C   0  0  0  0  0  0  0  0  0  0  0  0
   29.6579  -20.4439   -6.8323 C   0  0  0  0  0  0  0  0  0  0  0  0
   28.9778  -19.7975   -5.8285 C   0  0  0  0  0  0  0  0  0  0  0  0
   27.6276  -19.5482   -6.0098 C   0  0  0  0  0  0  0  0  0  0  0  0
   26.9523  -19.9236   -7.1517 C   0  0  0  0  0  0  0  0  0  0  0  0
   27.6242  -20.5675   -8.1546 C   0  0  0  0  0  0  0  0  0  0  0  0
   24.5723  -21.0520  -12.1018 C   0  0  0  0  0  0  0  0  0  0  0  0
   23.8277  -20.0697  -11.7649 O   0  0  0  0  0  0  0  0  0  0  0  0
   24.0765  -22.0476  -12.9730 N   0  0  0  0  0  0  0  0  0  0  0  0
   24.8320  -23.1931  -13.4301 C   0  0  0  0  0  0  0  0  0  0  0  0
   23.9888  -23.8346  -14.5181 C   0  0  0  0  0  0  0  0  0  0  0  0
   22.9294  -22.8252  -14.8635 C   0  0  0  0  0  0  0  0  0  0  0  0
   22.7708  -22.0837  -13.5290 C   0  0  1  0  0  0  0  0  0  0  0  0
   21.8064  -22.8924  -12.7349 C   0  0  0  0  0  0  0  0  0  0  0  0
   22.1638  -24.0601  -12.4572 O   0  0  0  0  0  0  0  0  0  0  0  0
   16.9257  -24.2127   -6.1954 N   0  0  0  0  0  0  0  0  0  0  0  0
   17.2574  -25.1928   -7.1951 C   0  0  0  0  0  0  0  0  0  0  0  0
   16.4275  -26.1392   -7.4471 N   0  0  0  0  0  0  0  0  0  0  0  0
   18.4713  -25.1427   -7.9055 N   0  0  0  0  0  0  0  0  0  0  0  0
   19.2622  -23.8805   -8.0278 C   0  0  0  0  0  0  0  0  0  0  0  0
   18.6760  -23.0095   -9.0532 C   0  0  0  0  0  0  0  0  0  0  0  0
   19.3794  -22.5099  -10.2077 C   0  0  0  0  0  0  0  0  0  0  0  0
   19.6053  -23.1917  -11.4763 C   0  0  2  0  0  0  0  0  0  0  0  0
   20.5584  -22.3941  -12.3094 N   0  0  0  0  0  0  0  0  0  0  0  0
   18.4028  -23.4348  -12.2937 C   0  0  0  0  0  0  0  0  0  0  0  0
   18.0203  -22.3885  -13.1849 O   0  0  0  0  0  0  0  0  0  0  0  0
   17.6837  -24.4236  -12.3113 O   0  0  0  0  0  0  0  0  0  0  0  0
  2  3  1  0
  2  1  1  6
  4  3  1  0
  5  4  2  0
  6  5  1  0
  7  6  1  0
  7 12  2  0
  8  7  1  0
  9  8  2  0
  9 10  1  0
 10 11  2  0
 11 12  1  0
 12  4  1  0
 13  2  1  0
 14 13  2  0
 15 13  1  0
 15 16  1  0
 17 16  1  0
 18 17  1  0
 19 18  1  0
 19 15  1  0
 20 21  2  0
 19 20  1  1
 23 22  1  0
 23 25  1  0
 24 23  2  0
 25 26  1  0
 26 27  1  0
 28 27  1  0
 29 28  1  1
 29 30  1  0
 30 20  1  0
 31 32  1  0
 31 29  1  0
 33 31  2  0
M  END
$$$$
