MRH.pdb
     RDKit          3D

 30 30  0  0  1  0  0  0  0  0999 V2000
    7.6815  -11.3643   27.5766 C   0  0  0  0  0  0  0  0  0  0  0  0
    6.3936  -12.5050   28.1009 S   0  0  0  0  0  0  0  0  0  0  0  0
    5.3404  -12.9682   26.6961 C   0  0  0  0  0  0  0  0  0  0  0  0
    6.0105  -14.1685   26.0184 C   0  0  0  0  0  0  0  0  0  0  0  0
    7.1658  -13.6197   25.2503 C   0  0  2  0  0  0  0  0  0  0  0  0
    6.8805  -12.2532   24.8680 N   0  0  0  0  0  0  0  0  0  0  0  0
    7.5480  -14.4431   24.0644 C   0  0  0  0  0  0  0  0  0  0  0  0
    7.7443  -15.6818   24.1522 O   0  0  0  0  0  0  0  0  0  0  0  0
    8.7795  -15.4446   14.6960 N   0  0  0  0  0  0  0  0  0  0  0  0
    8.3278  -14.7210   15.8378 C   0  0  0  0  0  0  0  0  0  0  0  0
    8.0945  -13.4584   15.7341 N   0  0  0  0  0  0  0  0  0  0  0  0
    8.1201  -15.3285   17.0920 N   0  0  0  0  0  0  0  0  0  0  0  0
    7.5591  -14.6455   18.2376 C   0  0  0  0  0  0  0  0  0  0  0  0
    8.7005  -14.2879   19.1651 C   0  0  0  0  0  0  0  0  0  0  0  0
    8.2514  -13.6860   20.4468 C   0  0  0  0  0  0  0  0  0  0  0  0
    8.1468  -14.6273   21.6143 C   0  0  2  0  0  0  0  0  0  0  0  0
    7.7120  -13.8717   22.7744 N   0  0  0  0  0  0  0  0  0  0  0  0
    9.5134  -15.1832   21.8221 C   0  0  0  0  0  0  0  0  0  0  0  0
   10.3944  -14.4244   22.2765 O   0  0  0  0  0  0  0  0  0  0  0  0
    7.6494  -12.8979   16.4798 N   0  0  0  0  0  0  0  0  0  0  0  0
    9.8030  -16.5299   21.5135 C   0  0  2  0  0  0  0  0  0  0  0  0
   11.1385  -17.0307   21.7540 C   0  0  0  0  0  0  0  0  0  0  0  0
   11.0062  -18.4615   22.2296 C   0  0  0  0  0  0  0  0  0  0  0  0
   10.8362  -18.5541   23.6802 C   0  0  0  0  0  0  0  0  0  0  0  0
   10.8149  -17.5011   24.5528 N   0  0  0  0  0  0  0  0  0  0  0  0
   10.6367  -18.0131   25.8037 C   0  0  0  0  0  0  0  0  0  0  0  0
   10.5491  -19.3485   25.7158 N   0  0  0  0  0  0  0  0  0  0  0  0
   10.6753  -19.6583   24.3940 C   0  0  0  0  0  0  0  0  0  0  0  0
   12.0124  -16.9124   20.5760 O   0  0  0  0  0  0  0  0  0  0  0  0
   11.6599  -16.6263   19.4244 O   0  0  0  0  0  0  0  0  0  0  0  0
  1  2  1  0
  2  3  1  0
  4  3  1  0
  5  4  1  0
  5  6  1  6
  7  8  2  0
  7  5  1  0
  9 10  1  0
 10 11  2  0
 12 13  1  0
 12 10  1  0
 13 14  1  0
 14 15  1  0
 16 15  1  6
 16 17  1  0
 17  7  1  0
 18 16  1  0
 19 18  2  0
 20 18  1  0
 21 28  1  0
 21 20  1  0
 21 22  1  1
 22 23  1  0
 23 27  1  0
 24 23  2  0
 24 25  1  0
 25 26  1  0
 27 26  2  0
 28 30  1  0
 29 28  2  0
M  END
$$$$
