MRH.pdb
     RDKit          3D

 30 30  0  0  1  0  0  0  0  0999 V2000
    6.6713  -11.2660   27.8801 C   0  0  0  0  0  0  0  0  0  0  0  0
    6.0676  -12.1609   26.4416 S   0  0  0  0  0  0  0  0  0  0  0  0
    6.6965  -13.8643   26.4392 C   0  0  0  0  0  0  0  0  0  0  0  0
    6.1877  -14.5213   25.1513 C   0  0  0  0  0  0  0  0  0  0  0  0
    6.6742  -15.9314   25.1846 C   0  0  2  0  0  0  0  0  0  0  0  0
    7.3914  -16.1610   26.4207 N   0  0  0  0  0  0  0  0  0  0  0  0
    7.5023  -16.3123   24.0016 C   0  0  0  0  0  0  0  0  0  0  0  0
    7.3470  -17.4101   23.4088 O   0  0  0  0  0  0  0  0  0  0  0  0
    7.4450  -15.3617   17.6751 N   0  0  0  0  0  0  0  0  0  0  0  0
    7.8179  -13.9976   17.4982 C   0  0  0  0  0  0  0  0  0  0  0  0
    8.0736  -13.5609   16.3136 N   0  0  0  0  0  0  0  0  0  0  0  0
    7.9209  -13.0902   18.5713 N   0  0  0  0  0  0  0  0  0  0  0  0
    7.5536  -13.4063   19.9346 C   0  0  0  0  0  0  0  0  0  0  0  0
    8.1949  -14.7307   20.2892 C   0  0  0  0  0  0  0  0  0  0  0  0
    9.2246  -14.6201   21.3541 C   0  0  0  0  0  0  0  0  0  0  0  0
    9.3063  -15.7755   22.3125 C   0  0  2  0  0  0  0  0  0  0  0  0
    8.5106  -15.4565   23.4834 N   0  0  0  0  0  0  0  0  0  0  0  0
   10.7459  -15.9170   22.6691 C   0  0  0  0  0  0  0  0  0  0  0  0
   11.2699  -15.0237   23.3662 O   0  0  0  0  0  0  0  0  0  0  0  0
    8.3077  -12.5754   16.1076 N   0  0  0  0  0  0  0  0  0  0  0  0
   11.4955  -17.0299   22.2306 C   0  0  2  0  0  0  0  0  0  0  0  0
   12.8746  -17.1528   22.6493 C   0  0  0  0  0  0  0  0  0  0  0  0
   13.1333  -18.6176   22.9294 C   0  0  0  0  0  0  0  0  0  0  0  0
   12.3253  -19.1250   24.0389 C   0  0  0  0  0  0  0  0  0  0  0  0
   12.1051  -18.4851   25.2275 N   0  0  0  0  0  0  0  0  0  0  0  0
   11.3045  -19.2911   25.9811 C   0  0  0  0  0  0  0  0  0  0  0  0
   11.0318  -20.4037   25.2837 N   0  0  0  0  0  0  0  0  0  0  0  0
   11.6737  -20.2774   24.0874 C   0  0  0  0  0  0  0  0  0  0  0  0
   13.8199  -16.5964   21.6684 O   0  0  0  0  0  0  0  0  0  0  0  0
   13.5326  -16.0827   20.5795 O   0  0  0  0  0  0  0  0  0  0  0  0
  1  2  1  0
  2  3  1  0
  4  3  1  0
  5  4  1  0
  5  6  1  1
  7  8  2  0
  7  5  1  0
  9 10  1  0
 10 11  2  0
 12 13  1  0
 12 10  1  0
 13 14  1  0
 14 15  1  0
 16 15  1  6
 16 17  1  0
 17  7  1  0
 18 16  1  0
 19 18  2  0
 20 18  1  0
 21 28  1  0
 21 20  1  0
 21 22  1  1
 22 23  1  0
 23 27  1  0
 24 23  2  0
 24 25  1  0
 25 26  1  0
 27 26  2  0
 28 30  1  0
 29 28  2  0
M  END
$$$$
