MRH.pdb
     RDKit          3D

 30 30  0  0  1  0  0  0  0  0999 V2000
    7.8352  -11.7402   20.9982 C   0  0  0  0  0  0  0  0  0  0  0  0
    8.3494  -11.8494   19.2782 S   0  0  0  0  0  0  0  0  0  0  0  0
    8.3563  -13.5780   18.7224 C   0  0  0  0  0  0  0  0  0  0  0  0
    8.5571  -14.4430   19.9716 C   0  0  0  0  0  0  0  0  0  0  0  0
    8.6522  -15.8519   19.4899 C   0  0  2  0  0  0  0  0  0  0  0  0
    7.4357  -16.2005   18.7873 N   0  0  0  0  0  0  0  0  0  0  0  0
    8.9540  -16.8396   20.5687 C   0  0  0  0  0  0  0  0  0  0  0  0
    8.0541  -17.3039   21.3138 O   0  0  0  0  0  0  0  0  0  0  0  0
   15.7034  -22.8040   24.5866 N   0  0  0  0  0  0  0  0  0  0  0  0
   15.3210  -22.0197   23.4597 C   0  0  0  0  0  0  0  0  0  0  0  0
   16.0159  -22.0879   22.3772 N   0  0  0  0  0  0  0  0  0  0  0  0
   14.2031  -21.1620   23.4719 N   0  0  0  0  0  0  0  0  0  0  0  0
   13.7488  -20.4104   22.3220 C   0  0  0  0  0  0  0  0  0  0  0  0
   12.4531  -19.7262   22.7015 C   0  0  0  0  0  0  0  0  0  0  0  0
   11.9188  -18.8427   21.6336 C   0  0  0  0  0  0  0  0  0  0  0  0
   10.6317  -18.1333   21.9497 C   0  0  2  0  0  0  0  0  0  0  0  0
   10.2732  -17.3061   20.8125 N   0  0  0  0  0  0  0  0  0  0  0  0
   10.9043  -17.2967   23.1521 C   0  0  0  0  0  0  0  0  0  0  0  0
   11.6767  -16.3238   23.0291 O   0  0  0  0  0  0  0  0  0  0  0  0
   15.7880  -21.5586   21.5192 N   0  0  0  0  0  0  0  0  0  0  0  0
   10.3057  -17.5967   24.3949 C   0  0  1  0  0  0  0  0  0  0  0  0
   10.6719  -16.8133   25.5544 C   0  0  0  0  0  0  0  0  0  0  0  0
    9.4653  -15.9848   25.9400 C   0  0  0  0  0  0  0  0  0  0  0  0
    9.6866  -15.2114   27.1623 C   0  0  0  0  0  0  0  0  0  0  0  0
   10.8203  -15.2296   27.9273 N   0  0  0  0  0  0  0  0  0  0  0  0
   10.6213  -14.3740   28.9699 C   0  0  0  0  0  0  0  0  0  0  0  0
    9.3977  -13.8360   28.8602 N   0  0  0  0  0  0  0  0  0  0  0  0
    8.8402  -14.3690   27.7357 C   0  0  0  0  0  0  0  0  0  0  0  0
   11.1611  -17.6398   26.6693 O   0  0  0  0  0  0  0  0  0  0  0  0
   10.9203  -18.8394   26.8566 O   0  0  0  0  0  0  0  0  0  0  0  0
  1  2  1  0
  2  3  1  0
  4  3  1  0
  5  4  1  0
  5  6  1  1
  7  8  2  0
  7  5  1  0
  9 10  1  0
 10 11  2  0
 12 13  1  0
 12 10  1  0
 13 14  1  0
 14 15  1  0
 16 15  1  6
 16 17  1  0
 17  7  1  0
 18 16  1  0
 19 18  2  0
 20 18  1  0
 21 28  1  0
 21 20  1  0
 21 22  1  1
 22 23  1  0
 23 27  1  0
 24 23  2  0
 24 25  1  0
 25 26  1  0
 27 26  2  0
 28 30  1  0
 29 28  2  0
M  END
$$$$
