MRH.pdb
     RDKit          3D

 30 30  0  0  1  0  0  0  0  0999 V2000
    9.1323  -11.4257   19.6506 C   0  0  0  0  0  0  0  0  0  0  0  0
    7.7803  -11.9213   18.5732 S   0  0  0  0  0  0  0  0  0  0  0  0
    7.7780  -13.7219   18.3385 C   0  0  0  0  0  0  0  0  0  0  0  0
    8.9888  -14.2685   19.1029 C   0  0  0  0  0  0  0  0  0  0  0  0
    8.9329  -15.7528   18.9620 C   0  0  2  0  0  0  0  0  0  0  0  0
    7.8816  -16.1059   18.0319 N   0  0  0  0  0  0  0  0  0  0  0  0
    8.7717  -16.4765   20.2584 C   0  0  0  0  0  0  0  0  0  0  0  0
    7.6845  -16.4724   20.8898 O   0  0  0  0  0  0  0  0  0  0  0  0
   12.9102  -22.8772   24.5510 N   0  0  0  0  0  0  0  0  0  0  0  0
   12.0072  -22.2611   25.4654 C   0  0  0  0  0  0  0  0  0  0  0  0
   12.0476  -22.5883   26.7106 N   0  0  0  0  0  0  0  0  0  0  0  0
   11.0597  -21.2969   25.0681 N   0  0  0  0  0  0  0  0  0  0  0  0
   10.8852  -20.8502   23.7030 C   0  0  0  0  0  0  0  0  0  0  0  0
   11.0813  -19.3495   23.6807 C   0  0  0  0  0  0  0  0  0  0  0  0
   10.9120  -18.7533   22.3307 C   0  0  0  0  0  0  0  0  0  0  0  0
    9.7688  -17.7895   22.1760 C   0  0  2  0  0  0  0  0  0  0  0  0
    9.8374  -17.2066   20.8489 N   0  0  0  0  0  0  0  0  0  0  0  0
    9.9593  -16.7490   23.2253 C   0  0  0  0  0  0  0  0  0  0  0  0
   10.3995  -15.6344   22.8756 O   0  0  0  0  0  0  0  0  0  0  0  0
   11.4238  -22.1815   27.4274 N   0  0  0  0  0  0  0  0  0  0  0  0
    9.6507  -17.0169   24.5765 C   0  0  2  0  0  0  0  0  0  0  0  0
    9.2845  -15.9169   25.4414 C   0  0  0  0  0  0  0  0  0  0  0  0
    8.0211  -15.3012   24.8798 C   0  0  0  0  0  0  0  0  0  0  0  0
    7.5521  -14.1658   25.6750 C   0  0  0  0  0  0  0  0  0  0  0  0
    8.1762  -13.6468   26.7758 N   0  0  0  0  0  0  0  0  0  0  0  0
    7.4186  -12.6036   27.2190 C   0  0  0  0  0  0  0  0  0  0  0  0
    6.3508  -12.4739   26.4179 N   0  0  0  0  0  0  0  0  0  0  0  0
    6.4558  -13.4503   25.4720 C   0  0  0  0  0  0  0  0  0  0  0  0
    9.1303  -16.3239   26.8471 O   0  0  0  0  0  0  0  0  0  0  0  0
    8.6417  -17.3850   27.2562 O   0  0  0  0  0  0  0  0  0  0  0  0
  1  2  1  0
  2  3  1  0
  4  3  1  0
  5  4  1  0
  5  6  1  6
  7  8  2  0
  7  5  1  0
  9 10  1  0
 10 11  2  0
 12 13  1  0
 12 10  1  0
 13 14  1  0
 14 15  1  0
 16 15  1  6
 16 17  1  0
 17  7  1  0
 18 16  1  0
 19 18  2  0
 20 18  1  0
 21 28  1  0
 21 20  1  0
 21 22  1  6
 22 23  1  0
 23 27  1  0
 24 23  2  0
 24 25  1  0
 25 26  1  0
 27 26  2  0
 28 30  1  0
 29 28  2  0
M  END
$$$$
