MRH.pdb
     RDKit          3D

 30 30  0  0  1  0  0  0  0  0999 V2000
    7.5895  -11.2284   22.0732 C   0  0  0  0  0  0  0  0  0  0  0  0
    7.7132  -11.7918   20.3697 S   0  0  0  0  0  0  0  0  0  0  0  0
    8.0555  -13.5741   20.3100 C   0  0  0  0  0  0  0  0  0  0  0  0
    8.2927  -13.9293   18.8381 C   0  0  0  0  0  0  0  0  0  0  0  0
    8.6420  -15.3796   18.8123 C   0  0  2  0  0  0  0  0  0  0  0  0
    7.4324  -16.1605   18.6638 N   0  0  0  0  0  0  0  0  0  0  0  0
    9.4337  -15.8309   19.9956 C   0  0  0  0  0  0  0  0  0  0  0  0
    8.9676  -16.6422   20.8353 O   0  0  0  0  0  0  0  0  0  0  0  0
   13.2764  -14.9086   17.2251 N   0  0  0  0  0  0  0  0  0  0  0  0
   14.6204  -15.3798   17.1721 C   0  0  0  0  0  0  0  0  0  0  0  0
   15.1421  -15.6748   16.0319 N   0  0  0  0  0  0  0  0  0  0  0  0
   15.4180  -15.5398   18.3226 N   0  0  0  0  0  0  0  0  0  0  0  0
   14.9885  -15.1881   19.6588 C   0  0  0  0  0  0  0  0  0  0  0  0
   13.5989  -15.7537   19.8598 C   0  0  0  0  0  0  0  0  0  0  0  0
   12.9734  -15.3376   21.1413 C   0  0  0  0  0  0  0  0  0  0  0  0
   11.5603  -15.7995   21.3638 C   0  0  2  0  0  0  0  0  0  0  0  0
   10.7542  -15.3671   20.2372 N   0  0  0  0  0  0  0  0  0  0  0  0
   11.1056  -15.1494   22.6249 C   0  0  0  0  0  0  0  0  0  0  0  0
   10.9533  -13.9104   22.6264 O   0  0  0  0  0  0  0  0  0  0  0  0
   16.0896  -16.0736   15.9246 N   0  0  0  0  0  0  0  0  0  0  0  0
   10.8545  -15.9137   23.7849 C   0  0  1  0  0  0  0  0  0  0  0  0
   10.0363  -15.3448   24.8334 C   0  0  0  0  0  0  0  0  0  0  0  0
    8.7003  -14.9852   24.2197 C   0  0  0  0  0  0  0  0  0  0  0  0
    7.8044  -14.3328   25.1753 C   0  0  0  0  0  0  0  0  0  0  0  0
    8.1847  -13.4865   26.1802 N   0  0  0  0  0  0  0  0  0  0  0  0
    7.0538  -13.1007   26.8368 C   0  0  0  0  0  0  0  0  0  0  0  0
    5.9963  -13.6892   26.2588 N   0  0  0  0  0  0  0  0  0  0  0  0
    6.4859  -14.4452   25.2351 C   0  0  0  0  0  0  0  0  0  0  0  0
    9.8953  -16.2379   25.9943 O   0  0  0  0  0  0  0  0  0  0  0  0
    9.2164  -16.0257   27.0074 O   0  0  0  0  0  0  0  0  0  0  0  0
  1  2  1  0
  2  3  1  0
  4  3  1  0
  5  4  1  0
  5  6  1  1
  7  8  2  0
  7  5  1  0
  9 10  1  0
 10 11  2  0
 12 13  1  0
 12 10  1  0
 13 14  1  0
 14 15  1  0
 16 15  1  6
 16 17  1  0
 17  7  1  0
 18 16  1  0
 19 18  2  0
 20 18  1  0
 21 28  1  0
 21 20  1  0
 21 22  1  1
 22 23  1  0
 23 27  1  0
 24 23  2  0
 24 25  1  0
 25 26  1  0
 27 26  2  0
 28 30  1  0
 29 28  2  0
M  END
$$$$
