MRH.pdb
     RDKit          3D

 30 30  0  0  1  0  0  0  0  0999 V2000
    6.9611  -12.1250   28.6974 C   0  0  0  0  0  0  0  0  0  0  0  0
    6.9871  -11.8061   26.9276 S   0  0  0  0  0  0  0  0  0  0  0  0
    5.6279  -12.6818   26.1010 C   0  0  0  0  0  0  0  0  0  0  0  0
    6.0100  -14.1658   26.0745 C   0  0  0  0  0  0  0  0  0  0  0  0
    7.3863  -14.2298   25.5021 C   0  0  2  0  0  0  0  0  0  0  0  0
    7.8867  -12.8856   25.3076 N   0  0  0  0  0  0  0  0  0  0  0  0
    7.4799  -15.0276   24.2430 C   0  0  0  0  0  0  0  0  0  0  0  0
    7.1196  -16.2311   24.1919 O   0  0  0  0  0  0  0  0  0  0  0  0
    8.1952  -12.7160   15.4560 N   0  0  0  0  0  0  0  0  0  0  0  0
    8.3644  -14.1165   15.6589 C   0  0  0  0  0  0  0  0  0  0  0  0
    8.5092  -14.8898   14.6390 N   0  0  0  0  0  0  0  0  0  0  0  0
    8.3824  -14.7045   16.9392 N   0  0  0  0  0  0  0  0  0  0  0  0
    8.2464  -13.9598   18.1723 C   0  0  0  0  0  0  0  0  0  0  0  0
    8.3257  -14.9465   19.3174 C   0  0  0  0  0  0  0  0  0  0  0  0
    8.1524  -14.3159   20.6512 C   0  0  0  0  0  0  0  0  0  0  0  0
    8.2061  -15.2466   21.8306 C   0  0  2  0  0  0  0  0  0  0  0  0
    7.9822  -14.4713   23.0366 N   0  0  0  0  0  0  0  0  0  0  0  0
    9.5716  -15.8426   21.8262 C   0  0  0  0  0  0  0  0  0  0  0  0
   10.5126  -15.1607   22.2821 O   0  0  0  0  0  0  0  0  0  0  0  0
    8.6770  -15.9070   14.7141 N   0  0  0  0  0  0  0  0  0  0  0  0
    9.7941  -17.1416   21.3204 C   0  0  2  0  0  0  0  0  0  0  0  0
   11.1518  -17.6310   21.2232 C   0  0  0  0  0  0  0  0  0  0  0  0
   11.1269  -19.1049   21.5666 C   0  0  0  0  0  0  0  0  0  0  0  0
   10.8937  -19.3422   22.9916 C   0  0  0  0  0  0  0  0  0  0  0  0
   10.8220  -18.3813   23.9623 N   0  0  0  0  0  0  0  0  0  0  0  0
   10.5940  -19.0162   25.1471 C   0  0  0  0  0  0  0  0  0  0  0  0
   10.5251  -20.3368   24.9236 N   0  0  0  0  0  0  0  0  0  0  0  0
   10.7134  -20.5129   23.5847 C   0  0  0  0  0  0  0  0  0  0  0  0
   11.7573  -17.3744   19.9069 O   0  0  0  0  0  0  0  0  0  0  0  0
   11.2012  -16.8567   18.9297 O   0  0  0  0  0  0  0  0  0  0  0  0
  1  2  1  0
  2  3  1  0
  4  3  1  0
  5  4  1  0
  5  6  1  6
  7  8  2  0
  7  5  1  0
  9 10  1  0
 10 11  2  0
 12 13  1  0
 12 10  1  0
 13 14  1  0
 14 15  1  0
 16 15  1  6
 16 17  1  0
 17  7  1  0
 18 16  1  0
 19 18  2  0
 20 18  1  0
 21 28  1  0
 21 20  1  0
 21 22  1  1
 22 23  1  0
 23 27  1  0
 24 23  2  0
 24 25  1  0
 25 26  1  0
 27 26  2  0
 28 30  1  0
 29 28  2  0
M  END
$$$$
