MRH.pdb
     RDKit          3D

 30 30  0  0  1  0  0  0  0  0999 V2000
    7.3629  -10.7596   20.4238 C   0  0  0  0  0  0  0  0  0  0  0  0
    8.6106  -11.8821   19.7773 S   0  0  0  0  0  0  0  0  0  0  0  0
    7.8855  -13.5096   19.4273 C   0  0  0  0  0  0  0  0  0  0  0  0
    9.0193  -14.3933   18.8957 C   0  0  0  0  0  0  0  0  0  0  0  0
    8.4777  -15.7830   18.8545 C   0  0  2  0  0  0  0  0  0  0  0  0
    7.0549  -15.7345   18.5930 N   0  0  0  0  0  0  0  0  0  0  0  0
    8.7739  -16.5827   20.0805 C   0  0  0  0  0  0  0  0  0  0  0  0
    7.9206  -16.7439   20.9898 O   0  0  0  0  0  0  0  0  0  0  0  0
   15.3773  -21.4899   23.1959 N   0  0  0  0  0  0  0  0  0  0  0  0
   14.1553  -22.0844   23.6255 C   0  0  0  0  0  0  0  0  0  0  0  0
   14.1908  -23.1473   24.3522 N   0  0  0  0  0  0  0  0  0  0  0  0
   12.8922  -21.5576   23.2900 N   0  0  0  0  0  0  0  0  0  0  0  0
   12.6064  -20.8728   22.0479 C   0  0  0  0  0  0  0  0  0  0  0  0
   12.1996  -19.4548   22.3867 C   0  0  0  0  0  0  0  0  0  0  0  0
   11.6434  -18.7090   21.2287 C   0  0  0  0  0  0  0  0  0  0  0  0
   10.3755  -17.9437   21.4870 C   0  0  2  0  0  0  0  0  0  0  0  0
   10.0351  -17.2027   20.2866 N   0  0  0  0  0  0  0  0  0  0  0  0
   10.6723  -17.0196   22.6173 C   0  0  0  0  0  0  0  0  0  0  0  0
   11.3337  -15.9886   22.3763 O   0  0  0  0  0  0  0  0  0  0  0  0
   13.3446  -23.6390   24.6848 N   0  0  0  0  0  0  0  0  0  0  0  0
   10.2182  -17.3026   23.9236 C   0  0  2  0  0  0  0  0  0  0  0  0
   10.5415  -16.3815   24.9911 C   0  0  0  0  0  0  0  0  0  0  0  0
    9.2456  -16.0204   25.6847 C   0  0  0  0  0  0  0  0  0  0  0  0
    9.4538  -15.1344   26.8306 C   0  0  0  0  0  0  0  0  0  0  0  0
   10.6516  -14.6071   27.2279 N   0  0  0  0  0  0  0  0  0  0  0  0
   10.4131  -13.8407   28.3299 C   0  0  0  0  0  0  0  0  0  0  0  0
    9.1032  -13.8874   28.6138 N   0  0  0  0  0  0  0  0  0  0  0  0
    8.5321  -14.6929   27.6734 C   0  0  0  0  0  0  0  0  0  0  0  0
   11.5434  -16.9198   25.9246 O   0  0  0  0  0  0  0  0  0  0  0  0
   11.5189  -18.0310   26.4696 O   0  0  0  0  0  0  0  0  0  0  0  0
  1  2  1  0
  2  3  1  0
  4  3  1  0
  5  4  1  0
  5  6  1  1
  7  8  2  0
  7  5  1  0
  9 10  1  0
 10 11  2  0
 12 13  1  0
 12 10  1  0
 13 14  1  0
 14 15  1  0
 16 15  1  6
 16 17  1  0
 17  7  1  0
 18 16  1  0
 19 18  2  0
 20 18  1  0
 21 28  1  0
 21 20  1  0
 21 22  1  6
 22 23  1  0
 23 27  1  0
 24 23  2  0
 24 25  1  0
 25 26  1  0
 27 26  2  0
 28 30  1  0
 29 28  2  0
M  END
$$$$
