MRH.pdb
     RDKit          3D

 30 30  0  0  1  0  0  0  0  0999 V2000
    8.0081  -11.9193   28.1455 C   0  0  0  0  0  0  0  0  0  0  0  0
    6.3835  -11.8421   27.3778 S   0  0  0  0  0  0  0  0  0  0  0  0
    5.9008  -13.4721   26.7397 C   0  0  0  0  0  0  0  0  0  0  0  0
    7.1366  -14.0601   26.0496 C   0  0  0  0  0  0  0  0  0  0  0  0
    6.6847  -15.3217   25.3937 C   0  0  2  0  0  0  0  0  0  0  0  0
    6.0453  -16.1697   26.3770 N   0  0  0  0  0  0  0  0  0  0  0  0
    7.7722  -16.0523   24.6766 C   0  0  0  0  0  0  0  0  0  0  0  0
    8.4536  -16.9465   25.2394 O   0  0  0  0  0  0  0  0  0  0  0  0
    7.6150  -14.1941   16.4788 N   0  0  0  0  0  0  0  0  0  0  0  0
    8.2517  -13.6408   17.6276 C   0  0  0  0  0  0  0  0  0  0  0  0
    8.4478  -12.3692   17.6905 N   0  0  0  0  0  0  0  0  0  0  0  0
    8.6823  -14.4282   18.7139 N   0  0  0  0  0  0  0  0  0  0  0  0
    8.1343  -15.7278   19.0370 C   0  0  0  0  0  0  0  0  0  0  0  0
    8.0011  -15.8101   20.5426 C   0  0  0  0  0  0  0  0  0  0  0  0
    9.3052  -15.7669   21.2525 C   0  0  0  0  0  0  0  0  0  0  0  0
    9.2984  -16.2637   22.6713 C   0  0  2  0  0  0  0  0  0  0  0  0
    8.0965  -15.7756   23.3218 N   0  0  0  0  0  0  0  0  0  0  0  0
   10.5185  -15.6994   23.3137 C   0  0  0  0  0  0  0  0  0  0  0  0
   10.3747  -14.7716   24.1364 O   0  0  0  0  0  0  0  0  0  0  0  0
    8.9447  -11.9069   18.4701 N   0  0  0  0  0  0  0  0  0  0  0  0
   11.8005  -16.2003   23.0001 C   0  0  1  0  0  0  0  0  0  0  0  0
   12.7508  -16.4085   24.0706 C   0  0  0  0  0  0  0  0  0  0  0  0
   12.1503  -17.4258   25.0169 C   0  0  0  0  0  0  0  0  0  0  0  0
   11.6670  -16.8176   26.2570 C   0  0  0  0  0  0  0  0  0  0  0  0
   11.4949  -15.4789   26.4784 N   0  0  0  0  0  0  0  0  0  0  0  0
   11.0318  -15.3335   27.7524 C   0  0  0  0  0  0  0  0  0  0  0  0
   10.9176  -16.5470   28.3120 N   0  0  0  0  0  0  0  0  0  0  0  0
   11.3159  -17.4472   27.3685 C   0  0  0  0  0  0  0  0  0  0  0  0
   14.0785  -16.8147   23.5833 O   0  0  0  0  0  0  0  0  0  0  0  0
   14.3130  -17.6036   22.6587 O   0  0  0  0  0  0  0  0  0  0  0  0
  1  2  1  0
  2  3  1  0
  4  3  1  0
  5  4  1  0
  5  6  1  1
  7  8  2  0
  7  5  1  0
  9 10  1  0
 10 11  2  0
 12 13  1  0
 12 10  1  0
 13 14  1  0
 14 15  1  0
 16 15  1  6
 16 17  1  0
 17  7  1  0
 18 16  1  0
 19 18  2  0
 20 18  1  0
 21 28  1  0
 21 20  1  0
 21 22  1  1
 22 23  1  0
 23 27  1  0
 24 23  2  0
 24 25  1  0
 25 26  1  0
 27 26  2  0
 28 30  1  0
 29 28  2  0
M  END
$$$$
