MRH.pdb
     RDKit          3D

 30 30  0  0  1  0  0  0  0  0999 V2000
    7.0893  -10.8577   18.5163 C   0  0  0  0  0  0  0  0  0  0  0  0
    7.8659  -11.8556   19.7952 S   0  0  0  0  0  0  0  0  0  0  0  0
    7.9308  -13.5994   19.2930 C   0  0  0  0  0  0  0  0  0  0  0  0
    8.5453  -14.3739   20.4642 C   0  0  0  0  0  0  0  0  0  0  0  0
    8.4887  -15.8154   20.0836 C   0  0  2  0  0  0  0  0  0  0  0  0
    7.4407  -16.0111   19.1046 N   0  0  0  0  0  0  0  0  0  0  0  0
    8.3221  -16.7401   21.2444 C   0  0  0  0  0  0  0  0  0  0  0  0
    7.1875  -17.1090   21.6412 O   0  0  0  0  0  0  0  0  0  0  0  0
   14.1688  -17.9992   21.2686 N   0  0  0  0  0  0  0  0  0  0  0  0
   13.7562  -19.1344   20.5119 C   0  0  0  0  0  0  0  0  0  0  0  0
   14.0833  -19.2181   19.2689 N   0  0  0  0  0  0  0  0  0  0  0  0
   12.9981  -20.1850   21.0658 N   0  0  0  0  0  0  0  0  0  0  0  0
   12.4672  -20.1759   22.4118 C   0  0  0  0  0  0  0  0  0  0  0  0
   11.6047  -18.9407   22.5584 C   0  0  0  0  0  0  0  0  0  0  0  0
   10.2328  -19.2348   23.0462 C   0  0  0  0  0  0  0  0  0  0  0  0
    9.3102  -18.0540   23.1661 C   0  0  2  0  0  0  0  0  0  0  0  0
    9.4351  -17.2511   21.9638 N   0  0  0  0  0  0  0  0  0  0  0  0
    9.7643  -17.2935   24.3641 C   0  0  0  0  0  0  0  0  0  0  0  0
   10.7928  -16.5935   24.2616 O   0  0  0  0  0  0  0  0  0  0  0  0
   13.8134  -20.0089   18.6604 N   0  0  0  0  0  0  0  0  0  0  0  0
    9.0511  -17.3632   25.5804 C   0  0  1  0  0  0  0  0  0  0  0  0
    9.4980  -16.5635   26.6998 C   0  0  0  0  0  0  0  0  0  0  0  0
    8.2701  -15.9446   27.3322 C   0  0  0  0  0  0  0  0  0  0  0  0
    7.6812  -14.8959   26.4986 C   0  0  0  0  0  0  0  0  0  0  0  0
    8.1734  -14.4536   25.3016 N   0  0  0  0  0  0  0  0  0  0  0  0
    7.3355  -13.4758   24.8537 C   0  0  0  0  0  0  0  0  0  0  0  0
    6.3473  -13.3113   25.7454 N   0  0  0  0  0  0  0  0  0  0  0  0
    6.5831  -14.1998   26.7524 C   0  0  0  0  0  0  0  0  0  0  0  0
   10.2968  -17.3328   27.6670 O   0  0  0  0  0  0  0  0  0  0  0  0
   10.5402  -18.5455   27.6205 O   0  0  0  0  0  0  0  0  0  0  0  0
  1  2  1  0
  2  3  1  0
  4  3  1  0
  5  4  1  0
  5  6  1  6
  7  8  2  0
  7  5  1  0
  9 10  1  0
 10 11  2  0
 12 13  1  0
 12 10  1  0
 13 14  1  0
 14 15  1  0
 16 15  1  6
 16 17  1  0
 17  7  1  0
 18 16  1  0
 19 18  2  0
 20 18  1  0
 21 28  1  0
 21 20  1  0
 21 22  1  1
 22 23  1  0
 23 27  1  0
 24 23  2  0
 24 25  1  0
 25 26  1  0
 27 26  2  0
 28 30  1  0
 29 28  2  0
M  END
$$$$
