MRH.pdb
     RDKit          3D

 30 30  0  0  1  0  0  0  0  0999 V2000
    6.8380  -11.0223   26.6907 C   0  0  0  0  0  0  0  0  0  0  0  0
    6.1062  -12.2331   27.8011 S   0  0  0  0  0  0  0  0  0  0  0  0
    5.6654  -13.7446   26.8966 C   0  0  0  0  0  0  0  0  0  0  0  0
    6.8510  -14.0743   25.9829 C   0  0  0  0  0  0  0  0  0  0  0  0
    6.4290  -15.2467   25.1624 C   0  0  2  0  0  0  0  0  0  0  0  0
    6.0860  -16.3460   26.0393 N   0  0  0  0  0  0  0  0  0  0  0  0
    7.4373  -15.6643   24.1429 C   0  0  0  0  0  0  0  0  0  0  0  0
    8.1961  -16.6500   24.3253 O   0  0  0  0  0  0  0  0  0  0  0  0
    7.5344  -14.2123   16.3446 N   0  0  0  0  0  0  0  0  0  0  0  0
    8.6690  -13.7897   17.0964 C   0  0  0  0  0  0  0  0  0  0  0  0
    9.8511  -14.0138   16.6363 N   0  0  0  0  0  0  0  0  0  0  0  0
    8.5589  -13.1282   18.3356 N   0  0  0  0  0  0  0  0  0  0  0  0
    7.3254  -13.0127   19.0831 C   0  0  0  0  0  0  0  0  0  0  0  0
    7.3106  -14.1149   20.1204 C   0  0  0  0  0  0  0  0  0  0  0  0
    8.5928  -14.2461   20.8588 C   0  0  0  0  0  0  0  0  0  0  0  0
    8.6244  -15.2882   21.9418 C   0  0  2  0  0  0  0  0  0  0  0  0
    7.5949  -14.9701   22.9138 N   0  0  0  0  0  0  0  0  0  0  0  0
    9.9797  -15.2072   22.5553 C   0  0  0  0  0  0  0  0  0  0  0  0
   10.1027  -14.5843   23.6301 O   0  0  0  0  0  0  0  0  0  0  0  0
   10.7168  -13.7702   17.1459 N   0  0  0  0  0  0  0  0  0  0  0  0
   11.0927  -15.8177   21.9379 C   0  0  2  0  0  0  0  0  0  0  0  0
   11.9974  -16.6039   22.7477 C   0  0  0  0  0  0  0  0  0  0  0  0
   11.1881  -17.7155   23.3804 C   0  0  0  0  0  0  0  0  0  0  0  0
   11.0731  -17.5658   24.8316 C   0  0  0  0  0  0  0  0  0  0  0  0
   11.4114  -16.4530   25.5512 N   0  0  0  0  0  0  0  0  0  0  0  0
   11.1533  -16.7225   26.8624 C   0  0  0  0  0  0  0  0  0  0  0  0
   10.6673  -17.9687   26.9601 N   0  0  0  0  0  0  0  0  0  0  0  0
   10.6273  -18.4688   25.6923 C   0  0  0  0  0  0  0  0  0  0  0  0
   13.1474  -17.1149   21.9850 O   0  0  0  0  0  0  0  0  0  0  0  0
   13.1423  -17.4787   20.8019 O   0  0  0  0  0  0  0  0  0  0  0  0
  1  2  1  0
  2  3  1  0
  4  3  1  0
  5  4  1  0
  5  6  1  1
  7  8  2  0
  7  5  1  0
  9 10  1  0
 10 11  2  0
 12 13  1  0
 12 10  1  0
 13 14  1  0
 14 15  1  0
 16 15  1  6
 16 17  1  0
 17  7  1  0
 18 16  1  0
 19 18  2  0
 20 18  1  0
 21 28  1  0
 21 20  1  0
 21 22  1  1
 22 23  1  0
 23 27  1  0
 24 23  2  0
 24 25  1  0
 25 26  1  0
 27 26  2  0
 28 30  1  0
 29 28  2  0
M  END
$$$$
