MRH.pdb
     RDKit          3D

 30 30  0  0  1  0  0  0  0  0999 V2000
    8.7670  -11.4832   20.8173 C   0  0  0  0  0  0  0  0  0  0  0  0
    7.7705  -11.8771   19.3728 S   0  0  0  0  0  0  0  0  0  0  0  0
    7.8702  -13.6499   18.9926 C   0  0  0  0  0  0  0  0  0  0  0  0
    7.5505  -14.3988   20.2910 C   0  0  0  0  0  0  0  0  0  0  0  0
    7.8297  -15.8390   20.0188 C   0  0  2  0  0  0  0  0  0  0  0  0
    6.6652  -16.4453   19.4095 N   0  0  0  0  0  0  0  0  0  0  0  0
    8.2703  -16.6063   21.2219 C   0  0  0  0  0  0  0  0  0  0  0  0
    7.4456  -17.1216   22.0188 O   0  0  0  0  0  0  0  0  0  0  0  0
   11.1430  -21.7340   21.6043 N   0  0  0  0  0  0  0  0  0  0  0  0
   11.7469  -22.1275   22.8339 C   0  0  0  0  0  0  0  0  0  0  0  0
   11.4466  -23.2695   23.3484 N   0  0  0  0  0  0  0  0  0  0  0  0
   12.6705  -21.3168   23.5232 N   0  0  0  0  0  0  0  0  0  0  0  0
   13.0151  -19.9684   23.1272 C   0  0  0  0  0  0  0  0  0  0  0  0
   11.8771  -19.0612   23.5432 C   0  0  0  0  0  0  0  0  0  0  0  0
   11.2331  -18.3628   22.4012 C   0  0  0  0  0  0  0  0  0  0  0  0
   10.1090  -17.4281   22.7514 C   0  0  2  0  0  0  0  0  0  0  0  0
    9.6437  -16.7940   21.5319 N   0  0  0  0  0  0  0  0  0  0  0  0
   10.6832  -16.4226   23.6890 C   0  0  0  0  0  0  0  0  0  0  0  0
   11.1814  -15.3849   23.2060 O   0  0  0  0  0  0  0  0  0  0  0  0
   11.8288  -23.6080   24.2472 N   0  0  0  0  0  0  0  0  0  0  0  0
   10.6640  -16.6381   25.0840 C   0  0  2  0  0  0  0  0  0  0  0  0
   10.0026  -15.6707   25.9319 C   0  0  0  0  0  0  0  0  0  0  0  0
    8.6442  -15.3916   25.3253 C   0  0  0  0  0  0  0  0  0  0  0  0
    7.8803  -14.4091   26.0950 C   0  0  0  0  0  0  0  0  0  0  0  0
    8.3158  -13.7546   27.2143 N   0  0  0  0  0  0  0  0  0  0  0  0
    7.3081  -12.9320   27.6223 C   0  0  0  0  0  0  0  0  0  0  0  0
    6.2717  -13.0681   26.7820 N   0  0  0  0  0  0  0  0  0  0  0  0
    6.6496  -13.9861   25.8473 C   0  0  0  0  0  0  0  0  0  0  0  0
    9.9087  -16.1105   27.3329 O   0  0  0  0  0  0  0  0  0  0  0  0
    9.5977  -17.2410   27.7298 O   0  0  0  0  0  0  0  0  0  0  0  0
  1  2  1  0
  2  3  1  0
  4  3  1  0
  5  4  1  0
  5  6  1  1
  7  8  2  0
  7  5  1  0
  9 10  1  0
 10 11  2  0
 12 13  1  0
 12 10  1  0
 13 14  1  0
 14 15  1  0
 16 15  1  6
 16 17  1  0
 17  7  1  0
 18 16  1  0
 19 18  2  0
 20 18  1  0
 21 28  1  0
 21 20  1  0
 21 22  1  6
 22 23  1  0
 23 27  1  0
 24 23  2  0
 24 25  1  0
 25 26  1  0
 27 26  2  0
 28 30  1  0
 29 28  2  0
M  END
$$$$
