MRH.pdb
     RDKit          3D

 30 30  0  0  1  0  0  0  0  0999 V2000
    6.7828  -12.3869   28.4629 C   0  0  0  0  0  0  0  0  0  0  0  0
    5.5331  -11.8031   27.3088 S   0  0  0  0  0  0  0  0  0  0  0  0
    6.0121  -12.1884   25.6002 C   0  0  0  0  0  0  0  0  0  0  0  0
    6.4411  -13.6598   25.5828 C   0  0  0  0  0  0  0  0  0  0  0  0
    7.5859  -13.7469   24.6300 C   0  0  2  0  0  0  0  0  0  0  0  0
    7.2331  -13.0784   23.3956 N   0  0  0  0  0  0  0  0  0  0  0  0
    8.0529  -15.1421   24.3735 C   0  0  0  0  0  0  0  0  0  0  0  0
    7.9273  -16.0521   25.2319 O   0  0  0  0  0  0  0  0  0  0  0  0
    7.9180  -15.4752   16.5686 N   0  0  0  0  0  0  0  0  0  0  0  0
    8.2001  -14.3954   17.4550 C   0  0  0  0  0  0  0  0  0  0  0  0
    8.5371  -13.2508   16.9697 N   0  0  0  0  0  0  0  0  0  0  0  0
    8.1261  -14.5206   18.8565 N   0  0  0  0  0  0  0  0  0  0  0  0
    8.0346  -15.7867   19.5509 C   0  0  0  0  0  0  0  0  0  0  0  0
    9.1685  -15.8461   20.5519 C   0  0  0  0  0  0  0  0  0  0  0  0
    9.1500  -17.0719   21.3907 C   0  0  0  0  0  0  0  0  0  0  0  0
    9.1645  -16.8515   22.8777 C   0  0  2  0  0  0  0  0  0  0  0  0
    8.6654  -15.5159   23.1477 N   0  0  0  0  0  0  0  0  0  0  0  0
   10.5864  -16.9848   23.3024 C   0  0  0  0  0  0  0  0  0  0  0  0
   11.4660  -17.0004   22.4167 O   0  0  0  0  0  0  0  0  0  0  0  0
    8.7568  -12.4265   17.5533 N   0  0  0  0  0  0  0  0  0  0  0  0
   10.9283  -17.0905   24.6679 C   0  0  2  0  0  0  0  0  0  0  0  0
   11.7041  -18.2292   25.1082 C   0  0  0  0  0  0  0  0  0  0  0  0
   10.7466  -19.3880   25.2844 C   0  0  0  0  0  0  0  0  0  0  0  0
    9.8566  -19.2073   26.4319 C   0  0  0  0  0  0  0  0  0  0  0  0
   10.2295  -18.7722   27.6738 N   0  0  0  0  0  0  0  0  0  0  0  0
    9.1080  -18.7436   28.4484 C   0  0  0  0  0  0  0  0  0  0  0  0
    8.0633  -19.1494   27.7118 N   0  0  0  0  0  0  0  0  0  0  0  0
    8.5513  -19.4302   26.4700 C   0  0  0  0  0  0  0  0  0  0  0  0
   12.8106  -18.5531   24.1938 O   0  0  0  0  0  0  0  0  0  0  0  0
   12.7107  -18.8678   23.0008 O   0  0  0  0  0  0  0  0  0  0  0  0
  1  2  1  0
  2  3  1  0
  4  3  1  0
  5  4  1  0
  5  6  1  6
  7  8  2  0
  7  5  1  0
  9 10  1  0
 10 11  2  0
 12 13  1  0
 12 10  1  0
 13 14  1  0
 14 15  1  0
 16 15  1  6
 16 17  1  0
 17  7  1  0
 18 16  1  0
 19 18  2  0
 20 18  1  0
 21 28  1  0
 21 20  1  0
 21 22  1  1
 22 23  1  0
 23 27  1  0
 24 23  2  0
 24 25  1  0
 25 26  1  0
 27 26  2  0
 28 30  1  0
 29 28  2  0
M  END
$$$$
