MRH.pdb
     RDKit          3D

 30 30  0  0  1  0  0  0  0  0999 V2000
    6.8647  -10.9457   27.2649 C   0  0  0  0  0  0  0  0  0  0  0  0
    5.4597  -11.9232   26.7124 S   0  0  0  0  0  0  0  0  0  0  0  0
    5.6369  -12.3615   24.9592 C   0  0  0  0  0  0  0  0  0  0  0  0
    5.9364  -13.8637   24.9074 C   0  0  0  0  0  0  0  0  0  0  0  0
    7.4169  -13.9962   25.0362 C   0  0  2  0  0  0  0  0  0  0  0  0
    8.0550  -12.8509   24.4229 N   0  0  0  0  0  0  0  0  0  0  0  0
    7.9587  -15.2745   24.4859 C   0  0  0  0  0  0  0  0  0  0  0  0
    7.5075  -16.3933   24.8402 O   0  0  0  0  0  0  0  0  0  0  0  0
    9.9827  -19.9738   19.4861 N   0  0  0  0  0  0  0  0  0  0  0  0
    9.1924  -19.2683   18.5326 C   0  0  0  0  0  0  0  0  0  0  0  0
    8.4627  -19.9304   17.7030 N   0  0  0  0  0  0  0  0  0  0  0  0
    9.1695  -17.8617   18.4531 N   0  0  0  0  0  0  0  0  0  0  0  0
    9.9416  -16.9911   19.3130 C   0  0  0  0  0  0  0  0  0  0  0  0
    9.4746  -17.2160   20.7351 C   0  0  0  0  0  0  0  0  0  0  0  0
   10.1732  -16.3588   21.7270 C   0  0  0  0  0  0  0  0  0  0  0  0
    9.7226  -16.5032   23.1539 C   0  0  2  0  0  0  0  0  0  0  0  0
    9.0132  -15.2959   23.5346 N   0  0  0  0  0  0  0  0  0  0  0  0
   10.9614  -16.6712   23.9644 C   0  0  0  0  0  0  0  0  0  0  0  0
   11.6393  -15.6547   24.2207 O   0  0  0  0  0  0  0  0  0  0  0  0
    7.8786  -19.4846   16.9760 N   0  0  0  0  0  0  0  0  0  0  0  0
   11.3568  -17.9442   24.4290 C   0  0  2  0  0  0  0  0  0  0  0  0
   11.5433  -18.1432   25.8496 C   0  0  0  0  0  0  0  0  0  0  0  0
   10.2324  -17.8097   26.5289 C   0  0  0  0  0  0  0  0  0  0  0  0
   10.3323  -16.6271   27.3849 C   0  0  0  0  0  0  0  0  0  0  0  0
   11.4221  -15.8079   27.4951 N   0  0  0  0  0  0  0  0  0  0  0  0
   11.1068  -14.8300   28.3911 C   0  0  0  0  0  0  0  0  0  0  0  0
    9.8553  -15.0319   28.8290 N   0  0  0  0  0  0  0  0  0  0  0  0
    9.3982  -16.1479   28.1929 C   0  0  0  0  0  0  0  0  0  0  0  0
   12.0139  -19.4980   26.1785 O   0  0  0  0  0  0  0  0  0  0  0  0
   11.6749  -20.5500   25.6210 O   0  0  0  0  0  0  0  0  0  0  0  0
  1  2  1  0
  2  3  1  0
  4  3  1  0
  5  4  1  0
  5  6  1  6
  7  8  2  0
  7  5  1  0
  9 10  1  0
 10 11  2  0
 12 13  1  0
 12 10  1  0
 13 14  1  0
 14 15  1  0
 16 15  1  6
 16 17  1  0
 17  7  1  0
 18 16  1  0
 19 18  2  0
 20 18  1  0
 21 28  1  0
 21 20  1  0
 21 22  1  6
 22 23  1  0
 23 27  1  0
 24 23  2  0
 24 25  1  0
 25 26  1  0
 27 26  2  0
 28 30  1  0
 29 28  2  0
M  END
$$$$
