CLA.pdb
     RDKit          3D

 20 19  0  0  1  0  0  0  0  0999 V2000
    9.8601  -16.0975   20.6431 N   0  0  0  0  0  0  0  0  0  0  0  0
    8.8392  -16.4509   21.5885 C   0  0  1  0  0  0  0  0  0  0  0  0
    8.8539  -17.9323   21.8589 C   0  0  0  0  0  0  0  0  0  0  0  0
    7.4603  -18.3456   22.9438 S   0  0  0  0  0  0  0  0  0  0  0  0
    8.9471  -15.6315   22.7964 C   0  0  0  0  0  0  0  0  0  0  0  0
   10.0925  -15.3329   23.2201 O   0  0  0  0  0  0  0  0  0  0  0  0
    5.5634  -12.1072   26.6820 C   0  0  0  0  0  0  0  0  0  0  0  0
    6.9611  -12.5878   26.2372 C   0  0  2  0  0  0  0  0  0  0  0  0
    7.7583  -11.3333   25.9965 C   0  0  0  0  0  0  0  0  0  0  0  0
    6.8281  -13.4381   25.0077 C   0  0  0  0  0  0  0  0  0  0  0  0
    7.9624  -14.3308   24.7062 C   0  0  2  0  0  0  0  0  0  0  0  0
    7.8290  -15.1409   23.5372 N   0  0  0  0  0  0  0  0  0  0  0  0
    8.3261  -15.1973   25.8765 C   0  0  0  0  0  0  0  0  0  0  0  0
    8.6682  -14.7010   26.9727 O   0  0  0  0  0  0  0  0  0  0  0  0
    7.8037  -18.8184   26.7108 C   0  0  0  0  0  0  0  0  0  0  0  0
    8.5483  -17.5051   26.8662 C   0  0  2  0  0  0  0  0  0  0  0  0
    8.2882  -16.6142   25.7594 N   0  0  0  0  0  0  0  0  0  0  0  0
   10.0053  -17.7675   27.0226 C   0  0  0  0  0  0  0  0  0  0  0  0
   10.4461  -18.4500   27.9749 O   0  0  0  0  0  0  0  0  0  0  0  0
   10.8970  -17.2533   26.1060 O   0  0  0  0  0  0  0  0  0  0  0  0
  2  1  1  6
  2  3  1  0
  4  3  1  0
  5  2  1  0
  5  6  2  0
  8  7  1  6
  8 10  1  0
  9  8  1  0
 11 10  1  1
 11 12  1  0
 11 13  1  0
 12  5  1  0
 13 14  2  0
 16 15  1  6
 17 13  1  0
 17 16  1  0
 18 16  1  0
 19 18  2  0
 20 18  1  0
M  END
$$$$
