CLA.pdb
     RDKit          3D

 20 19  0  0  1  0  0  0  0  0999 V2000
    8.2767  -15.6118   20.9550 N   0  0  0  0  0  0  0  0  0  0  0  0
    7.5616  -15.9082   22.1640 C   0  0  1  0  0  0  0  0  0  0  0  0
    7.3557  -17.3928   22.3101 C   0  0  0  0  0  0  0  0  0  0  0  0
    6.0046  -17.9093   21.2156 S   0  0  0  0  0  0  0  0  0  0  0  0
    8.2165  -15.2890   23.3171 C   0  0  0  0  0  0  0  0  0  0  0  0
    9.4589  -15.1011   23.2739 O   0  0  0  0  0  0  0  0  0  0  0  0
    7.3391  -11.3749   24.9489 C   0  0  0  0  0  0  0  0  0  0  0  0
    6.5158  -12.4578   25.6781 C   0  0  2  0  0  0  0  0  0  0  0  0
    5.5668  -11.7051   26.5725 C   0  0  0  0  0  0  0  0  0  0  0  0
    7.4422  -13.3599   26.4399 C   0  0  0  0  0  0  0  0  0  0  0  0
    8.2077  -14.3342   25.6403 C   0  0  2  0  0  0  0  0  0  0  0  0
    7.5354  -14.8779   24.5032 N   0  0  0  0  0  0  0  0  0  0  0  0
    8.7523  -15.4517   26.4812 C   0  0  0  0  0  0  0  0  0  0  0  0
    9.3959  -15.2238   27.5294 O   0  0  0  0  0  0  0  0  0  0  0  0
    8.2793  -19.1948   26.5648 C   0  0  0  0  0  0  0  0  0  0  0  0
    9.0644  -17.9266   26.8451 C   0  0  2  0  0  0  0  0  0  0  0  0
    8.5445  -16.8053   26.0974 N   0  0  0  0  0  0  0  0  0  0  0  0
   10.5069  -18.1524   26.5543 C   0  0  0  0  0  0  0  0  0  0  0  0
   11.1051  -17.4939   25.6737 O   0  0  0  0  0  0  0  0  0  0  0  0
   11.2086  -19.1037   27.2631 O   0  0  0  0  0  0  0  0  0  0  0  0
  2  1  1  6
  2  3  1  0
  4  3  1  0
  5  2  1  0
  5  6  2  0
  8  7  1  1
  8 10  1  0
  9  8  1  0
 11 10  1  1
 11 12  1  0
 11 13  1  0
 12  5  1  0
 13 14  2  0
 16 15  1  6
 17 13  1  0
 17 16  1  0
 18 16  1  0
 19 18  2  0
 20 18  1  0
M  END
$$$$
