CLA.pdb
     RDKit          3D

 20 19  0  0  1  0  0  0  0  0999 V2000
    7.5020  -14.6574   20.2100 N   0  0  0  0  0  0  0  0  0  0  0  0
    6.9554  -15.2947   21.3745 C   0  0  1  0  0  0  0  0  0  0  0  0
    6.7641  -16.7689   21.1340 C   0  0  0  0  0  0  0  0  0  0  0  0
    6.0000  -17.5097   22.6029 S   0  0  0  0  0  0  0  0  0  0  0  0
    7.7630  -14.9916   22.5568 C   0  0  0  0  0  0  0  0  0  0  0  0
    9.0139  -14.9518   22.4366 O   0  0  0  0  0  0  0  0  0  0  0  0
    7.8022  -11.4624   25.4233 C   0  0  0  0  0  0  0  0  0  0  0  0
    6.7442  -12.5349   25.7589 C   0  0  2  0  0  0  0  0  0  0  0  0
    5.9345  -11.9587   26.8902 C   0  0  0  0  0  0  0  0  0  0  0  0
    7.4328  -13.8159   26.1292 C   0  0  0  0  0  0  0  0  0  0  0  0
    8.0353  -14.5771   25.0191 C   0  0  2  0  0  0  0  0  0  0  0  0
    7.2238  -14.7346   23.8541 N   0  0  0  0  0  0  0  0  0  0  0  0
    8.5398  -15.9193   25.4626 C   0  0  0  0  0  0  0  0  0  0  0  0
    7.7560  -16.8139   25.8503 O   0  0  0  0  0  0  0  0  0  0  0  0
   11.8123  -17.7424   25.1409 C   0  0  0  0  0  0  0  0  0  0  0  0
   10.4826  -17.4840   25.8255 C   0  0  2  0  0  0  0  0  0  0  0  0
    9.9336  -16.2017   25.4503 N   0  0  0  0  0  0  0  0  0  0  0  0
   10.6457  -17.5951   27.3011 C   0  0  0  0  0  0  0  0  0  0  0  0
   11.1096  -18.6308   27.8294 O   0  0  0  0  0  0  0  0  0  0  0  0
   10.2817  -16.5420   28.1125 O   0  0  0  0  0  0  0  0  0  0  0  0
  2  1  1  6
  2  3  1  0
  4  3  1  0
  5  2  1  0
  5  6  2  0
  8  7  1  1
  8 10  1  0
  9  8  1  0
 11 10  1  1
 11 12  1  0
 11 13  1  0
 12  5  1  0
 13 14  2  0
 16 15  1  6
 17 13  1  0
 17 16  1  0
 18 16  1  0
 19 18  2  0
 20 18  1  0
M  END
$$$$
