CLA.pdb
     RDKit          3D

 20 19  0  0  1  0  0  0  0  0999 V2000
    9.2248  -15.4692   20.8977 N   0  0  0  0  0  0  0  0  0  0  0  0
    8.3876  -16.0203   21.9256 C   0  0  1  0  0  0  0  0  0  0  0  0
    8.3419  -17.5223   21.8264 C   0  0  0  0  0  0  0  0  0  0  0  0
    7.2085  -18.1606   23.0905 S   0  0  0  0  0  0  0  0  0  0  0  0
    8.7956  -15.5301   23.2429 C   0  0  0  0  0  0  0  0  0  0  0  0
   10.0105  -15.2725   23.4389 O   0  0  0  0  0  0  0  0  0  0  0  0
    7.8899  -11.7912   25.4790 C   0  0  0  0  0  0  0  0  0  0  0  0
    6.7999  -12.8711   25.6468 C   0  0  2  0  0  0  0  0  0  0  0  0
    5.6847  -12.2004   26.4043 C   0  0  0  0  0  0  0  0  0  0  0  0
    7.3738  -14.0496   26.3776 C   0  0  0  0  0  0  0  0  0  0  0  0
    8.3307  -14.8813   25.6244 C   0  0  2  0  0  0  0  0  0  0  0  0
    7.8998  -15.3209   24.3353 N   0  0  0  0  0  0  0  0  0  0  0  0
    8.8047  -16.0607   26.4226 C   0  0  0  0  0  0  0  0  0  0  0  0
    9.2083  -15.9306   27.5995 O   0  0  0  0  0  0  0  0  0  0  0  0
    9.0170  -19.8011   25.7803 C   0  0  0  0  0  0  0  0  0  0  0  0
    9.3630  -18.5173   26.5120 C   0  0  2  0  0  0  0  0  0  0  0  0
    8.8037  -17.3622   25.8492 N   0  0  0  0  0  0  0  0  0  0  0  0
   10.8404  -18.4008   26.6539 C   0  0  0  0  0  0  0  0  0  0  0  0
   11.4923  -19.2016   27.3615 O   0  0  0  0  0  0  0  0  0  0  0  0
   11.5151  -17.3943   25.9971 O   0  0  0  0  0  0  0  0  0  0  0  0
  2  1  1  6
  2  3  1  0
  4  3  1  0
  5  2  1  0
  5  6  2  0
  8  7  1  1
  8 10  1  0
  9  8  1  0
 11 10  1  1
 11 12  1  0
 11 13  1  0
 12  5  1  0
 13 14  2  0
 16 15  1  6
 17 13  1  0
 17 16  1  0
 18 16  1  0
 19 18  2  0
 20 18  1  0
M  END
$$$$
