CLA.pdb
     RDKit          3D

 20 19  0  0  1  0  0  0  0  0999 V2000
    9.1842  -15.8323   20.3494 N   0  0  0  0  0  0  0  0  0  0  0  0
    8.1060  -15.9773   21.2860 C   0  0  1  0  0  0  0  0  0  0  0  0
    7.7748  -17.4313   21.4954 C   0  0  0  0  0  0  0  0  0  0  0  0
    9.1392  -18.2217   22.3919 S   0  0  0  0  0  0  0  0  0  0  0  0
    8.3976  -15.2561   22.5258 C   0  0  0  0  0  0  0  0  0  0  0  0
    9.5842  -14.9099   22.7552 O   0  0  0  0  0  0  0  0  0  0  0  0
    5.6404  -12.1284   27.1763 C   0  0  0  0  0  0  0  0  0  0  0  0
    6.9439  -12.5631   26.4734 C   0  0  2  0  0  0  0  0  0  0  0  0
    7.6455  -11.2833   26.1031 C   0  0  0  0  0  0  0  0  0  0  0  0
    6.6086  -13.4095   25.2803 C   0  0  0  0  0  0  0  0  0  0  0  0
    7.7221  -14.1754   24.6902 C   0  0  2  0  0  0  0  0  0  0  0  0
    7.4169  -14.9136   23.5059 N   0  0  0  0  0  0  0  0  0  0  0  0
    8.3765  -15.0829   25.6907 C   0  0  0  0  0  0  0  0  0  0  0  0
    8.8574  -14.6380   26.7564 O   0  0  0  0  0  0  0  0  0  0  0  0
    8.5143  -18.8320   26.1261 C   0  0  0  0  0  0  0  0  0  0  0  0
    9.0004  -17.4203   26.3990 C   0  0  2  0  0  0  0  0  0  0  0  0
    8.4629  -16.4806   25.4427 N   0  0  0  0  0  0  0  0  0  0  0  0
   10.4888  -17.3934   26.4106 C   0  0  0  0  0  0  0  0  0  0  0  0
   11.1357  -16.7503   25.5534 O   0  0  0  0  0  0  0  0  0  0  0  0
   11.1796  -18.0874   27.3806 O   0  0  0  0  0  0  0  0  0  0  0  0
  2  1  1  6
  2  3  1  0
  4  3  1  0
  5  2  1  0
  5  6  2  0
  8  7  1  6
  8 10  1  0
  9  8  1  0
 11 10  1  1
 11 12  1  0
 11 13  1  0
 12  5  1  0
 13 14  2  0
 16 15  1  6
 17 13  1  0
 17 16  1  0
 18 16  1  0
 19 18  2  0
 20 18  1  0
M  END
$$$$
