CLA.pdb
     RDKit          3D

 20 19  0  0  1  0  0  0  0  0999 V2000
    9.2062  -16.1995   20.5802 N   0  0  0  0  0  0  0  0  0  0  0  0
    8.1029  -16.2996   21.4932 C   0  0  1  0  0  0  0  0  0  0  0  0
    7.7461  -17.7415   21.7407 C   0  0  0  0  0  0  0  0  0  0  0  0
    7.2024  -18.4886   20.1799 S   0  0  0  0  0  0  0  0  0  0  0  0
    8.3736  -15.5424   22.7162 C   0  0  0  0  0  0  0  0  0  0  0  0
    9.5697  -15.3573   23.0566 O   0  0  0  0  0  0  0  0  0  0  0  0
    5.5713  -11.9875   27.0296 C   0  0  0  0  0  0  0  0  0  0  0  0
    6.8846  -12.5908   26.4877 C   0  0  2  0  0  0  0  0  0  0  0  0
    7.8137  -11.4215   26.2962 C   0  0  0  0  0  0  0  0  0  0  0  0
    6.6051  -13.3277   25.2105 C   0  0  0  0  0  0  0  0  0  0  0  0
    7.6542  -14.2561   24.7501 C   0  0  2  0  0  0  0  0  0  0  0  0
    7.3623  -14.9920   23.5611 N   0  0  0  0  0  0  0  0  0  0  0  0
    8.0849  -15.2035   25.8317 C   0  0  0  0  0  0  0  0  0  0  0  0
    8.6007  -14.7886   26.8932 O   0  0  0  0  0  0  0  0  0  0  0  0
    7.5584  -18.8885   26.4813 C   0  0  0  0  0  0  0  0  0  0  0  0
    8.2842  -17.5700   26.6769 C   0  0  2  0  0  0  0  0  0  0  0  0
    7.9127  -16.6056   25.6677 N   0  0  0  0  0  0  0  0  0  0  0  0
    9.7547  -17.8019   26.6926 C   0  0  0  0  0  0  0  0  0  0  0  0
   10.5028  -17.3002   25.8234 O   0  0  0  0  0  0  0  0  0  0  0  0
   10.3152  -18.5834   27.6799 O   0  0  0  0  0  0  0  0  0  0  0  0
  2  1  1  6
  2  3  1  0
  4  3  1  0
  5  2  1  0
  5  6  2  0
  8  7  1  6
  8 10  1  0
  9  8  1  0
 11 10  1  1
 11 12  1  0
 11 13  1  0
 12  5  1  0
 13 14  2  0
 16 15  1  6
 17 13  1  0
 17 16  1  0
 18 16  1  0
 19 18  2  0
 20 18  1  0
M  END
$$$$
