CLA.pdb
     RDKit          3D

 20 19  0  0  1  0  0  0  0  0999 V2000
   10.8242  -18.0434   17.2869 N   0  0  0  0  0  0  0  0  0  0  0  0
   10.1253  -18.2039   18.5306 C   0  0  1  0  0  0  0  0  0  0  0  0
   10.4913  -19.5115   19.1819 C   0  0  0  0  0  0  0  0  0  0  0  0
    9.5240  -19.7007   20.7046 S   0  0  0  0  0  0  0  0  0  0  0  0
   10.3308  -17.0395   19.3931 C   0  0  0  0  0  0  0  0  0  0  0  0
   11.4428  -16.4541   19.3583 O   0  0  0  0  0  0  0  0  0  0  0  0
    8.6563  -12.8428   19.4354 C   0  0  0  0  0  0  0  0  0  0  0  0
    7.7100  -13.9021   20.0395 C   0  0  2  0  0  0  0  0  0  0  0  0
    6.4275  -13.1711   20.3362 C   0  0  0  0  0  0  0  0  0  0  0  0
    8.3409  -14.4924   21.2666 C   0  0  0  0  0  0  0  0  0  0  0  0
    9.5390  -15.3241   21.0482 C   0  0  2  0  0  0  0  0  0  0  0  0
    9.3447  -16.5145   20.2830 N   0  0  0  0  0  0  0  0  0  0  0  0
   10.2331  -15.6641   22.3348 C   0  0  0  0  0  0  0  0  0  0  0  0
   10.4830  -14.7872   23.1913 O   0  0  0  0  0  0  0  0  0  0  0  0
   10.2516  -17.2739   25.0126 C   0  0  0  0  0  0  0  0  0  0  0  0
   11.2237  -17.4137   23.8554 C   0  0  2  0  0  0  0  0  0  0  0  0
   10.6237  -17.0042   22.6069 N   0  0  0  0  0  0  0  0  0  0  0  0
   11.7248  -18.8138   23.7848 C   0  0  0  0  0  0  0  0  0  0  0  0
   11.4061  -19.5733   22.8422 O   0  0  0  0  0  0  0  0  0  0  0  0
   12.5576  -19.2947   24.7722 O   0  0  0  0  0  0  0  0  0  0  0  0
  2  1  1  6
  2  3  1  0
  4  3  1  0
  5  2  1  0
  5  6  2  0
  8  7  1  1
  8 10  1  0
  9  8  1  0
 11 10  1  1
 11 12  1  0
 11 13  1  0
 12  5  1  0
 13 14  2  0
 16 15  1  1
 17 13  1  0
 17 16  1  0
 18 16  1  0
 19 18  2  0
 20 18  1  0
M  END
$$$$
