CLA.pdb
     RDKit          3D

 20 19  0  0  1  0  0  0  0  0999 V2000
    8.2468  -15.3645   20.5248 N   0  0  0  0  0  0  0  0  0  0  0  0
    7.6717  -15.9003   21.7261 C   0  0  1  0  0  0  0  0  0  0  0  0
    7.7099  -17.4056   21.7090 C   0  0  0  0  0  0  0  0  0  0  0  0
    6.6313  -18.0058   20.3799 S   0  0  0  0  0  0  0  0  0  0  0  0
    8.3003  -15.3094   22.9084 C   0  0  0  0  0  0  0  0  0  0  0  0
    9.4986  -14.9370   22.8297 O   0  0  0  0  0  0  0  0  0  0  0  0
    7.5242  -11.5395   25.1558 C   0  0  0  0  0  0  0  0  0  0  0  0
    6.5858  -12.6824   25.5979 C   0  0  2  0  0  0  0  0  0  0  0  0
    5.6205  -12.0556   26.5687 C   0  0  0  0  0  0  0  0  0  0  0  0
    7.3977  -13.7843   26.2134 C   0  0  0  0  0  0  0  0  0  0  0  0
    8.2756  -14.5370   25.2983 C   0  0  2  0  0  0  0  0  0  0  0  0
    7.6404  -15.1237   24.1613 N   0  0  0  0  0  0  0  0  0  0  0  0
    9.0786  -15.5816   26.0172 C   0  0  0  0  0  0  0  0  0  0  0  0
    9.7044  -15.3138   27.0668 O   0  0  0  0  0  0  0  0  0  0  0  0
    9.5435  -19.3250   25.5835 C   0  0  0  0  0  0  0  0  0  0  0  0
    9.8901  -17.9641   26.1588 C   0  0  2  0  0  0  0  0  0  0  0  0
    9.1434  -16.9098   25.5128 N   0  0  0  0  0  0  0  0  0  0  0  0
   11.3573  -17.7328   26.0568 C   0  0  0  0  0  0  0  0  0  0  0  0
   11.8224  -16.7858   25.3832 O   0  0  0  0  0  0  0  0  0  0  0  0
   12.2311  -18.5724   26.7134 O   0  0  0  0  0  0  0  0  0  0  0  0
  2  1  1  6
  2  3  1  0
  4  3  1  0
  5  2  1  0
  5  6  2  0
  8  7  1  1
  8 10  1  0
  9  8  1  0
 11 10  1  1
 11 12  1  0
 11 13  1  0
 12  5  1  0
 13 14  2  0
 16 15  1  6
 17 13  1  0
 17 16  1  0
 18 16  1  0
 19 18  2  0
 20 18  1  0
M  END
$$$$
