CLA.pdb
     RDKit          3D

 20 19  0  0  1  0  0  0  0  0999 V2000
    8.6618  -15.1566   20.7114 N   0  0  0  0  0  0  0  0  0  0  0  0
    7.9723  -15.6987   21.8480 C   0  0  1  0  0  0  0  0  0  0  0  0
    7.9038  -17.2006   21.7623 C   0  0  0  0  0  0  0  0  0  0  0  0
    6.1881  -17.6932   21.4399 S   0  0  0  0  0  0  0  0  0  0  0  0
    8.5627  -15.2070   23.0937 C   0  0  0  0  0  0  0  0  0  0  0  0
    9.8018  -14.9970   23.1301 O   0  0  0  0  0  0  0  0  0  0  0  0
    7.2529  -11.4883   25.0651 C   0  0  0  0  0  0  0  0  0  0  0  0
    6.5172  -12.7199   25.6346 C   0  0  2  0  0  0  0  0  0  0  0  0
    5.4707  -12.1667   26.5652 C   0  0  0  0  0  0  0  0  0  0  0  0
    7.5032  -13.6115   26.3312 C   0  0  0  0  0  0  0  0  0  0  0  0
    8.4080  -14.3874   25.4629 C   0  0  2  0  0  0  0  0  0  0  0  0
    7.8214  -14.9457   24.2861 N   0  0  0  0  0  0  0  0  0  0  0  0
    9.1327  -15.4625   26.2189 C   0  0  0  0  0  0  0  0  0  0  0  0
    9.6958  -15.2243   27.3103 O   0  0  0  0  0  0  0  0  0  0  0  0
    9.5617  -19.2061   25.7897 C   0  0  0  0  0  0  0  0  0  0  0  0
    9.9572  -17.8423   26.3255 C   0  0  2  0  0  0  0  0  0  0  0  0
    9.1933  -16.7863   25.7027 N   0  0  0  0  0  0  0  0  0  0  0  0
   11.4202  -17.6348   26.1446 C   0  0  0  0  0  0  0  0  0  0  0  0
   11.8642  -16.8315   25.2934 O   0  0  0  0  0  0  0  0  0  0  0  0
   12.3140  -18.3364   26.9248 O   0  0  0  0  0  0  0  0  0  0  0  0
  2  1  1  6
  2  3  1  0
  4  3  1  0
  5  2  1  0
  5  6  2  0
  8  7  1  1
  8 10  1  0
  9  8  1  0
 11 10  1  1
 11 12  1  0
 11 13  1  0
 12  5  1  0
 13 14  2  0
 16 15  1  6
 17 13  1  0
 17 16  1  0
 18 16  1  0
 19 18  2  0
 20 18  1  0
M  END
$$$$
