CLA.pdb
     RDKit          3D

 20 19  0  0  1  0  0  0  0  0999 V2000
    8.5629  -15.1317   20.5663 N   0  0  0  0  0  0  0  0  0  0  0  0
    7.6299  -15.2091   21.6546 C   0  0  1  0  0  0  0  0  0  0  0  0
    6.9604  -16.5576   21.6867 C   0  0  0  0  0  0  0  0  0  0  0  0
    8.0872  -17.7551   22.4526 S   0  0  0  0  0  0  0  0  0  0  0  0
    8.2754  -14.8428   22.9161 C   0  0  0  0  0  0  0  0  0  0  0  0
    9.5150  -14.6328   22.9185 O   0  0  0  0  0  0  0  0  0  0  0  0
    7.1232  -11.2654   25.3246 C   0  0  0  0  0  0  0  0  0  0  0  0
    6.3442  -12.5266   25.7546 C   0  0  2  0  0  0  0  0  0  0  0  0
    5.3417  -12.0507   26.7723 C   0  0  0  0  0  0  0  0  0  0  0  0
    7.3023  -13.5392   26.3103 C   0  0  0  0  0  0  0  0  0  0  0  0
    8.2047  -14.1852   25.3391 C   0  0  2  0  0  0  0  0  0  0  0  0
    7.5879  -14.7053   24.1603 N   0  0  0  0  0  0  0  0  0  0  0  0
    9.0486  -15.2515   25.9744 C   0  0  0  0  0  0  0  0  0  0  0  0
    9.5684  -15.0860   27.1001 O   0  0  0  0  0  0  0  0  0  0  0  0
    9.3286  -18.8035   26.0832 C   0  0  0  0  0  0  0  0  0  0  0  0
   10.1162  -17.5307   25.8319 C   0  0  2  0  0  0  0  0  0  0  0  0
    9.2753  -16.4833   25.3006 N   0  0  0  0  0  0  0  0  0  0  0  0
   11.2635  -17.8183   24.9280 C   0  0  0  0  0  0  0  0  0  0  0  0
   11.3459  -17.2965   23.7932 O   0  0  0  0  0  0  0  0  0  0  0  0
   12.2618  -18.6755   25.3384 O   0  0  0  0  0  0  0  0  0  0  0  0
  2  1  1  6
  2  3  1  0
  4  3  1  0
  5  2  1  0
  5  6  2  0
  8  7  1  1
  8 10  1  0
  9  8  1  0
 11 10  1  1
 11 12  1  0
 11 13  1  0
 12  5  1  0
 13 14  2  0
 16 15  1  6
 17 13  1  0
 17 16  1  0
 18 16  1  0
 19 18  2  0
 20 18  1  0
M  END
$$$$
