CLA.pdb
     RDKit          3D

 20 19  0  0  1  0  0  0  0  0999 V2000
    8.3747  -14.8918   20.1565 N   0  0  0  0  0  0  0  0  0  0  0  0
    7.7323  -15.6302   21.2068 C   0  0  1  0  0  0  0  0  0  0  0  0
    7.7146  -17.1020   20.8886 C   0  0  0  0  0  0  0  0  0  0  0  0
    6.1853  -17.8262   21.5418 S   0  0  0  0  0  0  0  0  0  0  0  0
    8.3349  -15.3159   22.5030 C   0  0  0  0  0  0  0  0  0  0  0  0
    9.5862  -15.2195   22.5769 O   0  0  0  0  0  0  0  0  0  0  0  0
    8.0336  -11.7875   25.4235 C   0  0  0  0  0  0  0  0  0  0  0  0
    6.8780  -12.8076   25.5018 C   0  0  2  0  0  0  0  0  0  0  0  0
    5.8845  -12.2146   26.4654 C   0  0  0  0  0  0  0  0  0  0  0  0
    7.4131  -14.1331   25.9592 C   0  0  0  0  0  0  0  0  0  0  0  0
    8.2090  -14.8899   24.9752 C   0  0  2  0  0  0  0  0  0  0  0  0
    7.5924  -15.1084   23.7052 N   0  0  0  0  0  0  0  0  0  0  0  0
    8.6944  -16.1984   25.5274 C   0  0  0  0  0  0  0  0  0  0  0  0
    7.8959  -17.1078   25.8441 O   0  0  0  0  0  0  0  0  0  0  0  0
   12.0724  -17.8635   25.6530 C   0  0  0  0  0  0  0  0  0  0  0  0
   10.6296  -17.7097   26.0980 C   0  0  2  0  0  0  0  0  0  0  0  0
   10.0864  -16.4310   25.7027 N   0  0  0  0  0  0  0  0  0  0  0  0
   10.5322  -17.9106   27.5699 C   0  0  0  0  0  0  0  0  0  0  0  0
   10.9057  -18.9772   28.1082 O   0  0  0  0  0  0  0  0  0  0  0  0
   10.0216  -16.9083   28.3664 O   0  0  0  0  0  0  0  0  0  0  0  0
  2  1  1  6
  2  3  1  0
  4  3  1  0
  5  2  1  0
  5  6  2  0
  8  7  1  1
  8 10  1  0
  9  8  1  0
 11 10  1  1
 11 12  1  0
 11 13  1  0
 12  5  1  0
 13 14  2  0
 16 15  1  1
 17 13  1  0
 17 16  1  0
 18 16  1  0
 19 18  2  0
 20 18  1  0
M  END
$$$$
