SQD.pdb
     RDKit          3D

 24 23  0  0  1  0  0  0  0  0999 V2000
   25.8037  -12.5926  -15.4685 O   0  0  0  0  0  0  0  0  0  0  0  0
   24.9368  -11.5529  -15.7954 C   0  0  0  0  0  0  0  0  0  0  0  0
   23.8147  -12.0779  -16.6719 C   0  0  2  0  0  0  0  0  0  0  0  0
   24.3012  -12.4269  -17.9941 N   0  0  0  0  0  0  0  0  0  0  0  0
   22.8021  -10.9829  -16.7829 C   0  0  0  0  0  0  0  0  0  0  0  0
   22.9840  -10.0505  -17.5947 O   0  0  0  0  0  0  0  0  0  0  0  0
   16.8345  -11.7568  -15.0132 N   0  0  0  0  0  0  0  0  0  0  0  0
   16.8716  -10.3631  -15.2647 C   0  0  0  0  0  0  0  0  0  0  0  0
   15.7988   -9.7213  -15.2272 O   0  0  0  0  0  0  0  0  0  0  0  0
   18.1380   -9.6708  -15.5660 C   0  0  0  0  0  0  0  0  0  0  0  0
   19.3300  -10.5582  -15.6637 C   0  0  0  0  0  0  0  0  0  0  0  0
   20.6078   -9.9164  -16.0776 C   0  0  2  0  0  0  0  0  0  0  0  0
   21.6331  -10.9591  -15.9970 N   0  0  0  0  0  0  0  0  0  0  0  0
   21.0038   -8.7264  -15.2929 C   0  0  0  0  0  0  0  0  0  0  0  0
   21.5786   -8.9257  -14.1910 O   0  0  0  0  0  0  0  0  0  0  0  0
   20.7799   -7.4046  -15.6983 N   0  0  0  0  0  0  0  0  0  0  0  0
   21.2665   -6.2997  -14.8423 C   0  0  1  0  0  0  0  0  0  0  0  0
   22.1732   -5.4155  -15.6230 C   0  0  0  0  0  0  0  0  0  0  0  0
   22.5968   -4.2465  -14.8407 C   0  0  0  0  0  0  0  0  0  0  0  0
   22.7770   -4.3218  -13.6096 O   0  0  0  0  0  0  0  0  0  0  0  0
   20.0969   -5.5360  -14.3640 C   0  0  0  0  0  0  0  0  0  0  0  0
   20.0933   -4.6596  -13.3229 O   0  0  0  0  0  0  0  0  0  0  0  0
   22.8179   -2.9959  -15.4358 O   0  0  0  0  0  0  0  0  0  0  0  0
   18.9879   -5.7082  -14.9754 O   0  0  0  0  0  0  0  0  0  0  0  0
  2  1  1  0
  3  5  1  0
  3  2  1  0
  3  4  1  6
  5  6  2  0
  7  8  1  0
  8 10  1  0
  8  9  2  0
 10 11  1  0
 12 11  1  1
 13 12  1  0
 13  5  1  0
 14 15  2  0
 14 12  1  0
 16 14  1  0
 17 16  1  0
 17 21  1  0
 17 18  1  6
 19 18  1  0
 19 23  1  0
 20 19  2  0
 21 24  2  0
 21 22  1  0
M  END
$$$$
