SQD.pdb
     RDKit          3D

 24 23  0  0  1  0  0  0  0  0999 V2000
   18.5460  -14.9694  -17.6357 O   0  0  0  0  0  0  0  0  0  0  0  0
   19.6539  -14.4036  -18.2615 C   0  0  0  0  0  0  0  0  0  0  0  0
   20.3943  -13.5105  -17.2833 C   0  0  2  0  0  0  0  0  0  0  0  0
   20.0323  -13.8204  -15.9123 N   0  0  0  0  0  0  0  0  0  0  0  0
   20.0027  -12.1022  -17.5994 C   0  0  0  0  0  0  0  0  0  0  0  0
   20.3265  -11.6004  -18.6970 O   0  0  0  0  0  0  0  0  0  0  0  0
   14.6867   -9.4358  -17.0095 N   0  0  0  0  0  0  0  0  0  0  0  0
   15.4933   -8.2748  -16.9174 C   0  0  0  0  0  0  0  0  0  0  0  0
   14.9297   -7.1596  -16.8624 O   0  0  0  0  0  0  0  0  0  0  0  0
   16.9648   -8.3627  -16.8871 C   0  0  0  0  0  0  0  0  0  0  0  0
   17.5110   -9.7478  -16.9148 C   0  0  0  0  0  0  0  0  0  0  0  0
   18.9934   -9.8813  -16.8931 C   0  0  2  0  0  0  0  0  0  0  0  0
   19.2722  -11.3055  -16.6959 N   0  0  0  0  0  0  0  0  0  0  0  0
   19.6897   -9.0625  -15.8765 C   0  0  0  0  0  0  0  0  0  0  0  0
   19.7694   -9.5322  -14.7115 O   0  0  0  0  0  0  0  0  0  0  0  0
   20.2599   -7.8085  -16.1300 N   0  0  0  0  0  0  0  0  0  0  0  0
   20.9389   -7.0931  -15.0265 C   0  0  1  0  0  0  0  0  0  0  0  0
   21.7067   -5.9393  -15.5676 C   0  0  0  0  0  0  0  0  0  0  0  0
   22.3212   -5.1460  -14.4947 C   0  0  0  0  0  0  0  0  0  0  0  0
   22.7045   -5.6774  -13.4344 O   0  0  0  0  0  0  0  0  0  0  0  0
   19.9096   -6.6214  -14.0789 C   0  0  0  0  0  0  0  0  0  0  0  0
   19.9940   -6.6799  -12.7220 O   0  0  0  0  0  0  0  0  0  0  0  0
   22.5059   -3.7603  -14.6092 O   0  0  0  0  0  0  0  0  0  0  0  0
   18.8437   -6.1135  -14.5681 O   0  0  0  0  0  0  0  0  0  0  0  0
  2  1  1  0
  3  5  1  0
  3  2  1  0
  3  4  1  1
  5  6  2  0
  7  8  1  0
  8 10  1  0
  8  9  2  0
 10 11  1  0
 12 11  1  1
 13 12  1  0
 13  5  1  0
 14 15  2  0
 14 12  1  0
 16 14  1  0
 17 16  1  0
 17 21  1  0
 17 18  1  6
 19 18  1  0
 19 23  1  0
 20 19  2  0
 21 24  2  0
 21 22  1  0
M  END
$$$$
