SQD.pdb
     RDKit          3D

 24 23  0  0  1  0  0  0  0  0999 V2000
   18.0844  -12.2104  -18.4991 O   0  0  0  0  0  0  0  0  0  0  0  0
   18.9597  -11.5162  -17.6676 C   0  0  0  0  0  0  0  0  0  0  0  0
   19.5093  -12.4520  -16.6069 C   0  0  2  0  0  0  0  0  0  0  0  0
   18.4514  -12.9490  -15.7464 N   0  0  0  0  0  0  0  0  0  0  0  0
   20.4864  -11.6623  -15.7955 C   0  0  0  0  0  0  0  0  0  0  0  0
   20.8457  -12.0839  -14.6754 O   0  0  0  0  0  0  0  0  0  0  0  0
   25.8797  -11.4741  -16.3446 N   0  0  0  0  0  0  0  0  0  0  0  0
   25.8153  -10.3685  -15.4611 C   0  0  0  0  0  0  0  0  0  0  0  0
   26.8689   -9.9859  -14.9064 O   0  0  0  0  0  0  0  0  0  0  0  0
   24.5426   -9.6750  -15.1906 C   0  0  0  0  0  0  0  0  0  0  0  0
   23.3443  -10.2948  -15.8214 C   0  0  0  0  0  0  0  0  0  0  0  0
   22.0300   -9.6644  -15.5198 C   0  0  2  0  0  0  0  0  0  0  0  0
   21.0268  -10.4430  -16.2495 N   0  0  0  0  0  0  0  0  0  0  0  0
   21.9244   -8.2266  -15.8516 C   0  0  0  0  0  0  0  0  0  0  0  0
   21.7766   -7.9224  -17.0640 O   0  0  0  0  0  0  0  0  0  0  0  0
   21.9785   -7.1937  -14.9072 N   0  0  0  0  0  0  0  0  0  0  0  0
   21.7401   -5.8023  -15.3517 C   0  0  1  0  0  0  0  0  0  0  0  0
   20.3561   -5.3872  -14.9969 C   0  0  0  0  0  0  0  0  0  0  0  0
   20.0898   -3.9967  -15.3885 C   0  0  0  0  0  0  0  0  0  0  0  0
   20.0617   -3.0801  -14.5444 O   0  0  0  0  0  0  0  0  0  0  0  0
   22.7225   -4.9278  -14.6808 C   0  0  0  0  0  0  0  0  0  0  0  0
   23.0765   -3.6770  -15.0833 O   0  0  0  0  0  0  0  0  0  0  0  0
   19.8553   -3.6335  -16.7228 O   0  0  0  0  0  0  0  0  0  0  0  0
   23.2948   -5.3781  -13.6305 O   0  0  0  0  0  0  0  0  0  0  0  0
  2  1  1  0
  3  5  1  0
  3  2  1  0
  3  4  1  1
  5  6  2  0
  7  8  1  0
  8 10  1  0
  8  9  2  0
 10 11  1  0
 12 11  1  6
 13 12  1  0
 13  5  1  0
 14 15  2  0
 14 12  1  0
 16 14  1  0
 17 16  1  0
 17 21  1  0
 17 18  1  1
 19 18  1  0
 19 23  1  0
 20 19  2  0
 21 24  2  0
 21 22  1  0
M  END
$$$$
