SQD.pdb
     RDKit          3D

 24 23  0  0  1  0  0  0  0  0999 V2000
   28.2944  -10.4934  -15.6134 O   0  0  0  0  0  0  0  0  0  0  0  0
   27.0554  -10.0384  -16.0575 C   0  0  0  0  0  0  0  0  0  0  0  0
   26.0125  -11.1240  -15.8668 C   0  0  2  0  0  0  0  0  0  0  0  0
   26.3440  -12.3106  -16.6340 N   0  0  0  0  0  0  0  0  0  0  0  0
   24.7109  -10.5644  -16.3457 C   0  0  0  0  0  0  0  0  0  0  0  0
   24.6259  -10.0939  -17.5003 O   0  0  0  0  0  0  0  0  0  0  0  0
   19.1699  -12.8266  -15.1917 N   0  0  0  0  0  0  0  0  0  0  0  0
   18.8067  -11.5172  -15.5924 C   0  0  0  0  0  0  0  0  0  0  0  0
   17.5937  -11.2560  -15.7493 O   0  0  0  0  0  0  0  0  0  0  0  0
   19.8240  -10.4754  -15.8242 C   0  0  0  0  0  0  0  0  0  0  0  0
   21.2342  -10.9342  -15.6869 C   0  0  0  0  0  0  0  0  0  0  0  0
   22.2934   -9.9142  -15.9179 C   0  0  2  0  0  0  0  0  0  0  0  0
   23.5584  -10.5457  -15.5357 N   0  0  0  0  0  0  0  0  0  0  0  0
   22.1073   -8.6326  -15.2027 C   0  0  0  0  0  0  0  0  0  0  0  0
   22.9686   -8.3222  -14.3389 O   0  0  0  0  0  0  0  0  0  0  0  0
   21.0411   -7.7525  -15.4269 N   0  0  0  0  0  0  0  0  0  0  0  0
   21.0121   -6.4618  -14.7033 C   0  0  1  0  0  0  0  0  0  0  0  0
   22.2500   -5.6896  -14.9948 C   0  0  0  0  0  0  0  0  0  0  0  0
   22.2784   -4.4149  -14.2652 C   0  0  0  0  0  0  0  0  0  0  0  0
   21.3363   -4.0711  -13.5251 O   0  0  0  0  0  0  0  0  0  0  0  0
   19.8238   -5.7079  -15.1499 C   0  0  0  0  0  0  0  0  0  0  0  0
   19.1366   -4.7975  -14.4076 O   0  0  0  0  0  0  0  0  0  0  0  0
   23.3597   -3.5271  -14.3645 O   0  0  0  0  0  0  0  0  0  0  0  0
   19.3971   -5.9243  -16.3350 O   0  0  0  0  0  0  0  0  0  0  0  0
  2  1  1  0
  3  5  1  0
  3  2  1  0
  3  4  1  6
  5  6  2  0
  7  8  1  0
  8 10  1  0
  8  9  2  0
 10 11  1  0
 12 11  1  1
 13 12  1  0
 13  5  1  0
 14 15  2  0
 14 12  1  0
 16 14  1  0
 17 16  1  0
 17 21  1  0
 17 18  1  6
 19 18  1  0
 19 23  1  0
 20 19  2  0
 21 24  2  0
 21 22  1  0
M  END
$$$$
