SQD.pdb
     RDKit          3D

 24 23  0  0  1  0  0  0  0  0999 V2000
   21.7286  -15.1610  -18.1383 O   0  0  0  0  0  0  0  0  0  0  0  0
   21.2278  -13.8652  -18.2353 C   0  0  0  0  0  0  0  0  0  0  0  0
   21.8709  -12.9869  -17.1781 C   0  0  2  0  0  0  0  0  0  0  0  0
   21.8105  -13.6115  -15.8693 N   0  0  0  0  0  0  0  0  0  0  0  0
   21.1053  -11.7023  -17.1566 C   0  0  0  0  0  0  0  0  0  0  0  0
   21.1372  -10.9452  -18.1502 O   0  0  0  0  0  0  0  0  0  0  0  0
   15.3764  -12.5122  -15.2670 N   0  0  0  0  0  0  0  0  0  0  0  0
   16.7380  -12.6098  -15.6455 C   0  0  0  0  0  0  0  0  0  0  0  0
   17.3671  -13.6489  -15.3478 O   0  0  0  0  0  0  0  0  0  0  0  0
   17.4125  -11.5193  -16.3734 C   0  0  0  0  0  0  0  0  0  0  0  0
   18.1604  -10.5602  -15.5140 C   0  0  0  0  0  0  0  0  0  0  0  0
   19.4887  -10.1115  -16.0139 C   0  0  2  0  0  0  0  0  0  0  0  0
   20.3376  -11.3046  -16.0443 N   0  0  0  0  0  0  0  0  0  0  0  0
   20.1284   -9.0296  -15.2335 C   0  0  0  0  0  0  0  0  0  0  0  0
   20.7363   -9.3576  -14.1813 O   0  0  0  0  0  0  0  0  0  0  0  0
   20.0986   -7.6759  -15.5916 N   0  0  0  0  0  0  0  0  0  0  0  0
   20.6351   -6.6718  -14.6458 C   0  0  1  0  0  0  0  0  0  0  0  0
   21.8356   -6.0157  -15.2306 C   0  0  0  0  0  0  0  0  0  0  0  0
   22.3029   -4.8992  -14.3982 C   0  0  0  0  0  0  0  0  0  0  0  0
   22.5212   -5.0466  -13.1800 O   0  0  0  0  0  0  0  0  0  0  0  0
   19.5814   -5.6704  -14.3877 C   0  0  0  0  0  0  0  0  0  0  0  0
   18.6845   -5.2089  -15.3012 O   0  0  0  0  0  0  0  0  0  0  0  0
   22.5251   -3.6201  -14.9291 O   0  0  0  0  0  0  0  0  0  0  0  0
   19.4987   -5.1900  -13.2063 O   0  0  0  0  0  0  0  0  0  0  0  0
  2  1  1  0
  3  5  1  0
  3  2  1  0
  3  4  1  1
  5  6  2  0
  7  8  1  0
  8 10  1  0
  8  9  2  0
 10 11  1  0
 12 11  1  1
 13 12  1  0
 13  5  1  0
 14 15  2  0
 14 12  1  0
 16 14  1  0
 17 16  1  0
 17 21  1  0
 17 18  1  6
 19 18  1  0
 19 23  1  0
 20 19  2  0
 21 24  2  0
 21 22  1  0
M  END
$$$$
