SQD.pdb
     RDKit          3D

 24 23  0  0  1  0  0  0  0  0999 V2000
   24.3694  -12.7126  -18.3745 O   0  0  0  0  0  0  0  0  0  0  0  0
   23.3813  -11.7411  -18.5124 C   0  0  0  0  0  0  0  0  0  0  0  0
   22.0356  -12.3189  -18.1151 C   0  0  2  0  0  0  0  0  0  0  0  0
   21.5301  -13.2201  -19.1344 N   0  0  0  0  0  0  0  0  0  0  0  0
   21.0977  -11.1650  -17.9560 C   0  0  0  0  0  0  0  0  0  0  0  0
   20.8356  -10.4392  -18.9389 O   0  0  0  0  0  0  0  0  0  0  0  0
   15.6873  -11.6082  -15.5387 N   0  0  0  0  0  0  0  0  0  0  0  0
   16.7730  -11.7586  -14.6411 C   0  0  0  0  0  0  0  0  0  0  0  0
   16.5803  -12.3740  -13.5695 O   0  0  0  0  0  0  0  0  0  0  0  0
   18.1054  -11.2072  -14.9486 C   0  0  0  0  0  0  0  0  0  0  0  0
   18.2031  -10.4931  -16.2518 C   0  0  0  0  0  0  0  0  0  0  0  0
   19.4898   -9.8020  -16.5393 C   0  0  2  0  0  0  0  0  0  0  0  0
   20.4879  -10.8578  -16.7236 N   0  0  0  0  0  0  0  0  0  0  0  0
   19.9323   -8.8319  -15.5137 C   0  0  0  0  0  0  0  0  0  0  0  0
   20.7401   -9.2425  -14.6401 O   0  0  0  0  0  0  0  0  0  0  0  0
   19.5108   -7.4975  -15.4570 N   0  0  0  0  0  0  0  0  0  0  0  0
   20.1063   -6.5997  -14.4423 C   0  0  1  0  0  0  0  0  0  0  0  0
   21.5624   -6.4374  -14.7016 C   0  0  0  0  0  0  0  0  0  0  0  0
   22.1672   -5.4495  -13.7982 C   0  0  0  0  0  0  0  0  0  0  0  0
   21.9735   -5.4930  -12.5677 O   0  0  0  0  0  0  0  0  0  0  0  0
   19.4249   -5.2925  -14.5246 C   0  0  0  0  0  0  0  0  0  0  0  0
   18.4600   -4.9560  -15.4233 O   0  0  0  0  0  0  0  0  0  0  0  0
   22.9871   -4.4149  -14.2720 O   0  0  0  0  0  0  0  0  0  0  0  0
   19.7661   -4.3937  -13.6826 O   0  0  0  0  0  0  0  0  0  0  0  0
  2  1  1  0
  3  5  1  0
  3  2  1  0
  3  4  1  6
  5  6  2  0
  7  8  1  0
  8 10  1  0
  8  9  2  0
 10 11  1  0
 12 11  1  1
 13 12  1  0
 13  5  1  0
 14 15  2  0
 14 12  1  0
 16 14  1  0
 17 16  1  0
 17 21  1  0
 17 18  1  6
 19 18  1  0
 19 23  1  0
 20 19  2  0
 21 24  2  0
 21 22  1  0
M  END
$$$$
