SQD.pdb
     RDKit          3D

 24 23  0  0  1  0  0  0  0  0999 V2000
   21.0251  -14.2249  -15.0484 O   0  0  0  0  0  0  0  0  0  0  0  0
   20.8453  -12.9090  -15.4670 C   0  0  0  0  0  0  0  0  0  0  0  0
   19.6062  -12.8130  -16.3377 C   0  0  2  0  0  0  0  0  0  0  0  0
   19.8259  -13.4302  -17.6328 N   0  0  0  0  0  0  0  0  0  0  0  0
   19.3147  -11.3573  -16.5188 C   0  0  0  0  0  0  0  0  0  0  0  0
   19.8866  -10.7192  -17.4284 O   0  0  0  0  0  0  0  0  0  0  0  0
   13.7512   -8.9024  -15.3175 N   0  0  0  0  0  0  0  0  0  0  0  0
   14.2465   -9.8858  -16.2089 C   0  0  0  0  0  0  0  0  0  0  0  0
   13.4286  -10.6436  -16.7755 O   0  0  0  0  0  0  0  0  0  0  0  0
   15.6904  -10.0259  -16.4722 C   0  0  0  0  0  0  0  0  0  0  0  0
   16.5691   -9.1852  -15.6125 C   0  0  0  0  0  0  0  0  0  0  0  0
   18.0320   -9.2614  -15.8770 C   0  0  2  0  0  0  0  0  0  0  0  0
   18.4074  -10.6650  -15.6927 N   0  0  0  0  0  0  0  0  0  0  0  0
   18.8749   -8.3769  -15.0428 C   0  0  0  0  0  0  0  0  0  0  0  0
   19.1406   -8.7644  -13.8752 O   0  0  0  0  0  0  0  0  0  0  0  0
   19.3898   -7.1464  -15.4701 N   0  0  0  0  0  0  0  0  0  0  0  0
   20.1804   -6.3313  -14.5209 C   0  0  1  0  0  0  0  0  0  0  0  0
   21.5788   -6.1971  -15.0109 C   0  0  0  0  0  0  0  0  0  0  0  0
   22.3820   -5.3388  -14.1299 C   0  0  0  0  0  0  0  0  0  0  0  0
   22.6034   -5.6541  -12.9446 O   0  0  0  0  0  0  0  0  0  0  0  0
   19.5474   -5.0017  -14.4147 C   0  0  0  0  0  0  0  0  0  0  0  0
   18.4824   -4.5694  -15.1432 O   0  0  0  0  0  0  0  0  0  0  0  0
   22.9361   -4.1299  -14.5757 O   0  0  0  0  0  0  0  0  0  0  0  0
   20.0372   -4.1795  -13.5675 O   0  0  0  0  0  0  0  0  0  0  0  0
  2  1  1  0
  3  5  1  0
  3  2  1  0
  3  4  1  6
  5  6  2  0
  7  8  1  0
  8 10  1  0
  8  9  2  0
 10 11  1  0
 12 11  1  1
 13 12  1  0
 13  5  1  0
 14 15  2  0
 14 12  1  0
 16 14  1  0
 17 16  1  0
 17 21  1  0
 17 18  1  6
 19 18  1  0
 19 23  1  0
 20 19  2  0
 21 24  2  0
 21 22  1  0
M  END
$$$$
