SQD.pdb
     RDKit          3D

 24 23  0  0  1  0  0  0  0  0999 V2000
   26.9864  -19.0177  -16.8993 O   0  0  0  0  0  0  0  0  0  0  0  0
   27.9772  -19.3408  -15.9757 C   0  0  0  0  0  0  0  0  0  0  0  0
   28.0203  -20.8443  -15.7753 C   0  0  2  0  0  0  0  0  0  0  0  0
   28.0992  -21.5409  -17.0462 N   0  0  0  0  0  0  0  0  0  0  0  0
   26.7564  -21.2249  -15.0723 C   0  0  0  0  0  0  0  0  0  0  0  0
   25.9549  -22.0114  -15.6206 O   0  0  0  0  0  0  0  0  0  0  0  0
   26.0560  -20.4945   -8.8619 N   0  0  0  0  0  0  0  0  0  0  0  0
   24.7727  -20.9581   -9.2428 C   0  0  0  0  0  0  0  0  0  0  0  0
   23.9323  -21.1917   -8.3465 O   0  0  0  0  0  0  0  0  0  0  0  0
   24.4209  -21.1662  -10.6595 C   0  0  0  0  0  0  0  0  0  0  0  0
   25.5369  -20.9486  -11.6213 C   0  0  0  0  0  0  0  0  0  0  0  0
   25.2052  -21.0708  -13.0673 C   0  0  2  0  0  0  0  0  0  0  0  0
   26.4271  -20.7251  -13.7969 N   0  0  0  0  0  0  0  0  0  0  0  0
   24.0654  -20.2483  -13.5289 C   0  0  0  0  0  0  0  0  0  0  0  0
   24.2847  -19.0289  -13.7503 O   0  0  0  0  0  0  0  0  0  0  0  0
   22.7698  -20.7401  -13.7323 N   0  0  0  0  0  0  0  0  0  0  0  0
   21.7196  -19.8162  -14.2157 C   0  0  1  0  0  0  0  0  0  0  0  0
   21.6100  -19.9042  -15.6969 C   0  0  0  0  0  0  0  0  0  0  0  0
   20.5751  -19.0016  -16.2186 C   0  0  0  0  0  0  0  0  0  0  0  0
   20.0087  -18.1710  -15.4819 O   0  0  0  0  0  0  0  0  0  0  0  0
   20.4405  -20.2000  -13.5860 C   0  0  0  0  0  0  0  0  0  0  0  0
   19.4352  -19.3473  -13.2482 O   0  0  0  0  0  0  0  0  0  0  0  0
   20.1753  -19.0293  -17.5627 O   0  0  0  0  0  0  0  0  0  0  0  0
   20.2544  -21.4387  -13.3325 O   0  0  0  0  0  0  0  0  0  0  0  0
  2  1  1  0
  3  5  1  0
  3  2  1  0
  3  4  1  6
  5  6  2  0
  7  8  1  0
  8 10  1  0
  8  9  2  0
 10 11  1  0
 12 11  1  1
 13 12  1  0
 13  5  1  0
 14 15  2  0
 14 12  1  0
 16 14  1  0
 17 16  1  0
 17 21  1  0
 17 18  1  6
 19 18  1  0
 19 23  1  0
 20 19  2  0
 21 24  2  0
 21 22  1  0
M  END
$$$$
