SQD.pdb
     RDKit          3D

 24 23  0  0  1  0  0  0  0  0999 V2000
   14.3568   -7.1748  -14.4510 O   0  0  0  0  0  0  0  0  0  0  0  0
   13.6492   -8.3160  -14.0817 C   0  0  0  0  0  0  0  0  0  0  0  0
   14.1080   -9.4963  -14.9178 C   0  0  2  0  0  0  0  0  0  0  0  0
   13.3485  -10.6915  -14.5996 N   0  0  0  0  0  0  0  0  0  0  0  0
   15.5518   -9.7196  -14.5981 C   0  0  0  0  0  0  0  0  0  0  0  0
   15.8828  -10.0862  -13.4502 O   0  0  0  0  0  0  0  0  0  0  0  0
   19.4951  -12.2633  -18.4662 N   0  0  0  0  0  0  0  0  0  0  0  0
   20.3861  -11.8476  -17.4462 C   0  0  0  0  0  0  0  0  0  0  0  0
   21.5781  -12.2213  -17.5063 O   0  0  0  0  0  0  0  0  0  0  0  0
   19.9333  -10.9946  -16.3320 C   0  0  0  0  0  0  0  0  0  0  0  0
   18.4754  -10.6907  -16.3272 C   0  0  0  0  0  0  0  0  0  0  0  0
   17.9956   -9.7379  -15.2890 C   0  0  2  0  0  0  0  0  0  0  0  0
   16.5701   -9.5304  -15.5531 N   0  0  0  0  0  0  0  0  0  0  0  0
   18.7143   -8.4461  -15.2323 C   0  0  0  0  0  0  0  0  0  0  0  0
   18.2747   -7.5080  -15.9471 O   0  0  0  0  0  0  0  0  0  0  0  0
   19.8433   -8.2064  -14.4387 N   0  0  0  0  0  0  0  0  0  0  0  0
   20.5015   -6.8827  -14.5090 C   0  0  1  0  0  0  0  0  0  0  0  0
   21.2932   -6.6443  -13.2720 C   0  0  0  0  0  0  0  0  0  0  0  0
   21.9447   -5.3278  -13.2906 C   0  0  0  0  0  0  0  0  0  0  0  0
   21.6972   -4.4952  -14.1845 O   0  0  0  0  0  0  0  0  0  0  0  0
   21.3859   -6.8683  -15.6912 C   0  0  0  0  0  0  0  0  0  0  0  0
   21.8228   -7.9648  -16.3685 O   0  0  0  0  0  0  0  0  0  0  0  0
   22.8715   -4.9447  -12.3101 O   0  0  0  0  0  0  0  0  0  0  0  0
   21.7800   -5.7311  -16.1211 O   0  0  0  0  0  0  0  0  0  0  0  0
  2  1  1  0
  3  5  1  0
  3  2  1  0
  3  4  1  1
  5  6  2  0
  7  8  1  0
  8 10  1  0
  8  9  2  0
 10 11  1  0
 12 11  1  6
 13 12  1  0
 13  5  1  0
 14 15  2  0
 14 12  1  0
 16 14  1  0
 17 16  1  0
 17 21  1  0
 17 18  1  1
 19 18  1  0
 19 23  1  0
 20 19  2  0
 21 24  2  0
 21 22  1  0
M  END
$$$$
