SQD.pdb
     RDKit          3D

 24 23  0  0  1  0  0  0  0  0999 V2000
   28.3779  -11.7815  -15.5122 O   0  0  0  0  0  0  0  0  0  0  0  0
   27.4070  -10.9068  -15.9934 C   0  0  0  0  0  0  0  0  0  0  0  0
   26.6197  -11.5763  -17.1046 C   0  0  2  0  0  0  0  0  0  0  0  0
   27.4398  -11.7681  -18.2866 N   0  0  0  0  0  0  0  0  0  0  0  0
   25.4740  -10.6719  -17.4303 C   0  0  0  0  0  0  0  0  0  0  0  0
   25.6520   -9.6945  -18.1883 O   0  0  0  0  0  0  0  0  0  0  0  0
   19.5654  -12.6088  -17.4450 N   0  0  0  0  0  0  0  0  0  0  0  0
   19.3746  -11.2051  -17.4588 C   0  0  0  0  0  0  0  0  0  0  0  0
   18.2071  -10.7622  -17.5290 O   0  0  0  0  0  0  0  0  0  0  0  0
   20.5164  -10.2745  -17.3933 C   0  0  0  0  0  0  0  0  0  0  0  0
   21.8513  -10.9261  -17.2876 C   0  0  0  0  0  0  0  0  0  0  0  0
   23.0301  -10.0218  -17.1960 C   0  0  2  0  0  0  0  0  0  0  0  0
   24.1817  -10.8801  -16.9093 N   0  0  0  0  0  0  0  0  0  0  0  0
   22.9211   -8.9358  -16.1973 C   0  0  0  0  0  0  0  0  0  0  0  0
   23.1616   -9.2280  -14.9969 O   0  0  0  0  0  0  0  0  0  0  0  0
   22.5698   -7.6151  -16.5042 N   0  0  0  0  0  0  0  0  0  0  0  0
   22.5346   -6.6112  -15.4173 C   0  0  1  0  0  0  0  0  0  0  0  0
   22.4709   -5.2415  -15.9946 C   0  0  0  0  0  0  0  0  0  0  0  0
   22.3527   -4.2170  -14.9485 C   0  0  0  0  0  0  0  0  0  0  0  0
   22.7367   -4.4344  -13.7828 O   0  0  0  0  0  0  0  0  0  0  0  0
   21.3418   -6.8706  -14.5869 C   0  0  0  0  0  0  0  0  0  0  0  0
   21.2880   -6.7929  -13.2293 O   0  0  0  0  0  0  0  0  0  0  0  0
   21.8056   -2.9518  -15.2073 O   0  0  0  0  0  0  0  0  0  0  0  0
   20.2624   -7.1977  -15.1880 O   0  0  0  0  0  0  0  0  0  0  0  0
  2  1  1  0
  3  5  1  0
  3  2  1  0
  3  4  1  6
  5  6  2  0
  7  8  1  0
  8 10  1  0
  8  9  2  0
 10 11  1  0
 12 11  1  1
 13 12  1  0
 13  5  1  0
 14 15  2  0
 14 12  1  0
 16 14  1  0
 17 16  1  0
 17 21  1  0
 17 18  1  6
 19 18  1  0
 19 23  1  0
 20 19  2  0
 21 24  2  0
 21 22  1  0
M  END
$$$$
