SQD.pdb
     RDKit          3D

 24 23  0  0  1  0  0  0  0  0999 V2000
   16.6486  -13.1302  -14.2376 O   0  0  0  0  0  0  0  0  0  0  0  0
   16.4964  -11.7526  -14.1023 C   0  0  0  0  0  0  0  0  0  0  0  0
   15.7940  -11.4409  -12.7938 C   0  0  2  0  0  0  0  0  0  0  0  0
   14.3894  -11.8018  -12.8533 N   0  0  0  0  0  0  0  0  0  0  0  0
   15.9243   -9.9677  -12.5715 C   0  0  0  0  0  0  0  0  0  0  0  0
   15.4221   -9.1702  -13.3921 O   0  0  0  0  0  0  0  0  0  0  0  0
   15.3834   -6.9096   -7.3798 N   0  0  0  0  0  0  0  0  0  0  0  0
   14.4752   -7.2917   -8.3978 C   0  0  0  0  0  0  0  0  0  0  0  0
   13.2629   -7.3946   -8.1079 O   0  0  0  0  0  0  0  0  0  0  0  0
   14.9334   -7.5661   -9.7721 C   0  0  0  0  0  0  0  0  0  0  0  0
   16.4117   -7.6358   -9.9381 C   0  0  0  0  0  0  0  0  0  0  0  0
   16.9148   -8.0133  -11.2873 C   0  0  2  0  0  0  0  0  0  0  0  0
   16.6010   -9.4337  -11.4572 N   0  0  0  0  0  0  0  0  0  0  0  0
   18.3532   -7.7598  -11.5223 C   0  0  0  0  0  0  0  0  0  0  0  0
   19.1717   -8.2984  -10.7322 O   0  0  0  0  0  0  0  0  0  0  0  0
   18.8541   -6.9645  -12.5607 N   0  0  0  0  0  0  0  0  0  0  0  0
   20.3186   -6.7990  -12.6950 C   0  0  1  0  0  0  0  0  0  0  0  0
   20.9488   -8.1074  -13.0186 C   0  0  0  0  0  0  0  0  0  0  0  0
   20.5534   -8.5851  -14.3503 C   0  0  0  0  0  0  0  0  0  0  0  0
   19.4414   -8.3011  -14.8365 O   0  0  0  0  0  0  0  0  0  0  0  0
   20.5769   -5.8273  -13.7762 C   0  0  0  0  0  0  0  0  0  0  0  0
   19.6535   -5.3590  -14.6593 O   0  0  0  0  0  0  0  0  0  0  0  0
   21.4017   -9.3792  -15.1358 O   0  0  0  0  0  0  0  0  0  0  0  0
   21.7690   -5.3835  -13.9002 O   0  0  0  0  0  0  0  0  0  0  0  0
  2  1  1  0
  3  5  1  0
  3  2  1  0
  3  4  1  6
  5  6  2  0
  7  8  1  0
  8 10  1  0
  8  9  2  0
 10 11  1  0
 12 11  1  1
 13 12  1  0
 13  5  1  0
 14 15  2  0
 14 12  1  0
 16 14  1  0
 17 16  1  0
 17 21  1  0
 17 18  1  6
 19 18  1  0
 19 23  1  0
 20 19  2  0
 21 24  2  0
 21 22  1  0
M  END
$$$$
