DGY.pdb
     RDKit          3D

 25 25  0  0  1  0  0  0  0  0999 V2000
   10.0772  -17.0051   18.0166 N   0  0  0  0  0  0  0  0  0  0  0  0
    8.6742  -16.6974   17.8101 C   0  0  1  0  0  0  0  0  0  0  0  0
    8.1027  -17.7807   16.9175 C   0  0  0  0  0  0  0  0  0  0  0  0
    8.8046  -17.8119   15.6089 C   0  0  0  0  0  0  0  0  0  0  0  0
    9.5986  -16.9001   15.2726 O   0  0  0  0  0  0  0  0  0  0  0  0
    8.0205  -16.6445   19.1212 C   0  0  0  0  0  0  0  0  0  0  0  0
    6.8020  -16.9401   19.2906 O   0  0  0  0  0  0  0  0  0  0  0  0
    8.5983  -18.8548   14.7226 O   0  0  0  0  0  0  0  0  0  0  0  0
    8.7237  -16.2495   20.3191 N   0  0  0  0  0  0  0  0  0  0  0  0
    8.1046  -16.3300   21.6034 C   0  0  0  0  0  0  0  0  0  0  0  0
    8.9595  -16.0656   22.7542 C   0  0  0  0  0  0  0  0  0  0  0  0
   10.1549  -15.6579   22.5609 O   0  0  0  0  0  0  0  0  0  0  0  0
    5.5278  -10.9498   26.0176 O   0  0  0  0  0  0  0  0  0  0  0  0
    6.2745  -12.1260   26.1048 C   0  0  0  0  0  0  0  0  0  0  0  0
    5.6960  -13.3678   25.8861 C   0  0  0  0  0  0  0  0  0  0  0  0
    6.4844  -14.4946   25.9861 C   0  0  0  0  0  0  0  0  0  0  0  0
    7.8438  -14.3876   26.3024 C   0  0  0  0  0  0  0  0  0  0  0  0
    8.6978  -15.5788   26.4215 C   0  0  0  0  0  0  0  0  0  0  0  0
    9.5227  -15.8500   25.1940 C   0  0  2  0  0  0  0  0  0  0  0  0
    8.5891  -16.2193   24.1129 N   0  0  0  0  0  0  0  0  0  0  0  0
   10.4733  -16.9566   25.3883 C   0  0  0  0  0  0  0  0  0  0  0  0
   10.2787  -18.1796   24.7661 O   0  0  0  0  0  0  0  0  0  0  0  0
    8.4065  -13.1459   26.5177 C   0  0  0  0  0  0  0  0  0  0  0  0
    7.6127  -12.0250   26.4160 C   0  0  0  0  0  0  0  0  0  0  0  0
   11.4868  -16.8318   26.1199 O   0  0  0  0  0  0  0  0  0  0  0  0
  2  1  1  1
  2  3  1  0
  3  4  1  0
  4  5  2  0
  6  2  1  0
  7  6  2  0
  8  4  1  0
  9  6  1  0
 10 11  1  0
 10  9  1  0
 11 12  2  0
 14 13  1  0
 14 24  2  0
 15 14  1  0
 16 15  2  0
 16 17  1  0
 17 23  2  0
 18 17  1  0
 19 18  1  1
 20 19  1  0
 20 11  1  0
 21 19  1  0
 22 21  1  0
 23 24  1  0
 25 21  2  0
M  END
$$$$
