DGY.pdb
     RDKit          3D

 25 25  0  0  1  0  0  0  0  0999 V2000
    7.0785  -19.4145   21.3243 N   0  0  0  0  0  0  0  0  0  0  0  0
    7.3191  -18.5919   20.1534 C   0  0  1  0  0  0  0  0  0  0  0  0
    5.9797  -18.0399   19.7083 C   0  0  0  0  0  0  0  0  0  0  0  0
    5.1065  -19.1248   19.1920 C   0  0  0  0  0  0  0  0  0  0  0  0
    3.8861  -18.9312   18.9725 O   0  0  0  0  0  0  0  0  0  0  0  0
    8.2683  -17.5377   20.5231 C   0  0  0  0  0  0  0  0  0  0  0  0
    8.8624  -16.8207   19.6664 O   0  0  0  0  0  0  0  0  0  0  0  0
    5.6214  -20.3843   18.9386 O   0  0  0  0  0  0  0  0  0  0  0  0
    8.5950  -17.2403   21.8980 N   0  0  0  0  0  0  0  0  0  0  0  0
    9.4322  -16.1350   22.2393 C   0  0  0  0  0  0  0  0  0  0  0  0
    9.6654  -15.9115   23.6608 C   0  0  0  0  0  0  0  0  0  0  0  0
   10.4827  -14.9978   24.0212 O   0  0  0  0  0  0  0  0  0  0  0  0
    5.8260  -11.1336   25.6163 O   0  0  0  0  0  0  0  0  0  0  0  0
    6.3765  -12.3850   25.8983 C   0  0  0  0  0  0  0  0  0  0  0  0
    5.8825  -13.5412   25.3120 C   0  0  0  0  0  0  0  0  0  0  0  0
    6.4674  -14.7488   25.6293 C   0  0  0  0  0  0  0  0  0  0  0  0
    7.5402  -14.8073   26.5266 C   0  0  0  0  0  0  0  0  0  0  0  0
    8.1707  -16.0871   26.8830 C   0  0  0  0  0  0  0  0  0  0  0  0
    9.4381  -16.3631   26.1226 C   0  0  2  0  0  0  0  0  0  0  0  0
    9.0585  -16.6277   24.7217 N   0  0  0  0  0  0  0  0  0  0  0  0
   10.1604  -17.5364   26.6402 C   0  0  0  0  0  0  0  0  0  0  0  0
   10.7136  -17.5282   27.9109 O   0  0  0  0  0  0  0  0  0  0  0  0
    8.0216  -13.6494   27.1028 C   0  0  0  0  0  0  0  0  0  0  0  0
    7.4324  -12.4469   26.7810 C   0  0  0  0  0  0  0  0  0  0  0  0
   10.2995  -18.5786   25.9528 O   0  0  0  0  0  0  0  0  0  0  0  0
  2  1  1  1
  2  3  1  0
  3  4  1  0
  4  5  2  0
  6  2  1  0
  7  6  2  0
  8  4  1  0
  9  6  1  0
 10 11  1  0
 10  9  1  0
 11 12  2  0
 14 13  1  0
 14 24  2  0
 15 14  1  0
 16 15  2  0
 16 17  1  0
 17 23  2  0
 18 17  1  0
 19 18  1  1
 20 19  1  0
 20 11  1  0
 21 19  1  0
 22 21  1  0
 23 24  1  0
 25 21  2  0
M  END
$$$$
