DGY.pdb
     RDKit          3D

 25 25  0  0  1  0  0  0  0  0999 V2000
    9.3187  -17.0495   16.9470 N   0  0  0  0  0  0  0  0  0  0  0  0
    9.5755  -18.4772   16.9843 C   0  0  1  0  0  0  0  0  0  0  0  0
   10.7830  -18.7402   16.1071 C   0  0  0  0  0  0  0  0  0  0  0  0
   10.5326  -18.2891   14.7144 C   0  0  0  0  0  0  0  0  0  0  0  0
    9.4116  -18.4409   14.1710 O   0  0  0  0  0  0  0  0  0  0  0  0
    9.7980  -18.8648   18.3805 C   0  0  0  0  0  0  0  0  0  0  0  0
   10.0502  -20.0550   18.7282 O   0  0  0  0  0  0  0  0  0  0  0  0
   11.5368  -17.6862   13.9769 O   0  0  0  0  0  0  0  0  0  0  0  0
    9.7452  -17.9118   19.4642 N   0  0  0  0  0  0  0  0  0  0  0  0
    9.9636  -18.3138   20.8169 C   0  0  0  0  0  0  0  0  0  0  0  0
   10.2812  -17.2540   21.7662 C   0  0  0  0  0  0  0  0  0  0  0  0
   11.4785  -16.8124   21.8282 O   0  0  0  0  0  0  0  0  0  0  0  0
    7.7077  -13.0902   17.8216 O   0  0  0  0  0  0  0  0  0  0  0  0
    7.8929  -13.4504   19.1574 C   0  0  0  0  0  0  0  0  0  0  0  0
    6.9778  -14.2524   19.8238 C   0  0  0  0  0  0  0  0  0  0  0  0
    7.2146  -14.5750   21.1432 C   0  0  0  0  0  0  0  0  0  0  0  0
    8.3575  -14.1020   21.7986 C   0  0  0  0  0  0  0  0  0  0  0  0
    8.6219  -14.4290   23.2078 C   0  0  0  0  0  0  0  0  0  0  0  0
    9.7394  -15.4176   23.3941 C   0  0  2  0  0  0  0  0  0  0  0  0
    9.3675  -16.6414   22.6587 N   0  0  0  0  0  0  0  0  0  0  0  0
    9.9502  -15.7683   24.8078 C   0  0  0  0  0  0  0  0  0  0  0  0
   10.5515  -14.8754   25.6807 O   0  0  0  0  0  0  0  0  0  0  0  0
    9.2595  -13.3048   21.1239 C   0  0  0  0  0  0  0  0  0  0  0  0
    9.0164  -12.9868   19.8061 C   0  0  0  0  0  0  0  0  0  0  0  0
    9.5948  -16.8814   25.2690 O   0  0  0  0  0  0  0  0  0  0  0  0
  2  1  1  1
  2  3  1  0
  3  4  1  0
  4  5  2  0
  6  2  1  0
  7  6  2  0
  8  4  1  0
  9  6  1  0
 10 11  1  0
 10  9  1  0
 11 12  2  0
 14 13  1  0
 14 24  2  0
 15 14  1  0
 16 15  2  0
 16 17  1  0
 17 23  2  0
 18 17  1  0
 19 18  1  1
 20 19  1  0
 20 11  1  0
 21 19  1  0
 22 21  1  0
 23 24  1  0
 25 21  2  0
M  END
$$$$
