DGY.pdb
     RDKit          3D

 25 25  0  0  1  0  0  0  0  0999 V2000
   10.4890  -16.4264   18.3669 N   0  0  0  0  0  0  0  0  0  0  0  0
    9.1120  -16.5818   17.9365 C   0  0  1  0  0  0  0  0  0  0  0  0
    9.0106  -17.9164   17.2256 C   0  0  0  0  0  0  0  0  0  0  0  0
    9.7885  -17.9014   15.9604 C   0  0  0  0  0  0  0  0  0  0  0  0
   10.8289  -18.5903   15.8261 O   0  0  0  0  0  0  0  0  0  0  0  0
    8.2521  -16.5078   19.1215 C   0  0  0  0  0  0  0  0  0  0  0  0
    6.9915  -16.5968   19.0587 O   0  0  0  0  0  0  0  0  0  0  0  0
    9.3818  -17.1218   14.8915 O   0  0  0  0  0  0  0  0  0  0  0  0
    8.7844  -16.3272   20.4517 N   0  0  0  0  0  0  0  0  0  0  0  0
    7.9252  -16.2364   21.5886 C   0  0  0  0  0  0  0  0  0  0  0  0
    8.5765  -16.1622   22.8907 C   0  0  0  0  0  0  0  0  0  0  0  0
    9.8498  -16.0714   22.9454 O   0  0  0  0  0  0  0  0  0  0  0  0
    5.8996  -10.3514   26.0679 O   0  0  0  0  0  0  0  0  0  0  0  0
    6.3970  -11.6508   26.1808 C   0  0  0  0  0  0  0  0  0  0  0  0
    7.7356  -11.8917   26.4543 C   0  0  0  0  0  0  0  0  0  0  0  0
    8.1686  -13.1969   26.5544 C   0  0  0  0  0  0  0  0  0  0  0  0
    7.2739  -14.2598   26.3833 C   0  0  0  0  0  0  0  0  0  0  0  0
    7.7196  -15.6579   26.4781 C   0  0  0  0  0  0  0  0  0  0  0  0
    8.6894  -16.0523   25.3989 C   0  0  2  0  0  0  0  0  0  0  0  0
    7.9207  -16.1810   24.1462 N   0  0  0  0  0  0  0  0  0  0  0  0
    9.3476  -17.3390   25.6770 C   0  0  0  0  0  0  0  0  0  0  0  0
   10.4393  -17.4109   26.5278 O   0  0  0  0  0  0  0  0  0  0  0  0
    5.9449  -14.0060   26.1114 C   0  0  0  0  0  0  0  0  0  0  0  0
    5.5198  -12.6997   26.0130 C   0  0  0  0  0  0  0  0  0  0  0  0
    8.9455  -18.4092   25.1564 O   0  0  0  0  0  0  0  0  0  0  0  0
  2  1  1  1
  2  3  1  0
  3  4  1  0
  4  5  2  0
  6  2  1  0
  7  6  2  0
  8  4  1  0
  9  6  1  0
 10 11  1  0
 10  9  1  0
 11 12  2  0
 14 13  1  0
 14 24  2  0
 15 14  1  0
 16 15  2  0
 16 17  1  0
 17 23  2  0
 18 17  1  0
 19 18  1  1
 20 19  1  0
 20 11  1  0
 21 19  1  0
 22 21  1  0
 23 24  1  0
 25 21  2  0
M  END
$$$$
