DGY.pdb
     RDKit          3D

 25 25  0  0  1  0  0  0  0  0999 V2000
    6.4389  -20.0009   22.5051 N   0  0  0  0  0  0  0  0  0  0  0  0
    5.8355  -19.2305   23.5766 C   0  0  1  0  0  0  0  0  0  0  0  0
    6.6697  -19.4603   24.8209 C   0  0  0  0  0  0  0  0  0  0  0  0
    6.7565  -20.9085   25.1387 C   0  0  0  0  0  0  0  0  0  0  0  0
    6.7563  -21.7765   24.2323 O   0  0  0  0  0  0  0  0  0  0  0  0
    5.8090  -17.8229   23.1680 C   0  0  0  0  0  0  0  0  0  0  0  0
    5.2995  -16.9122   23.8836 O   0  0  0  0  0  0  0  0  0  0  0  0
    6.8403  -21.3387   26.4516 O   0  0  0  0  0  0  0  0  0  0  0  0
    6.3649  -17.3724   21.9136 N   0  0  0  0  0  0  0  0  0  0  0  0
    6.4445  -15.9830   21.5937 C   0  0  0  0  0  0  0  0  0  0  0  0
    7.3420  -15.1782   22.4134 C   0  0  0  0  0  0  0  0  0  0  0  0
    7.6049  -13.9800   22.0558 O   0  0  0  0  0  0  0  0  0  0  0  0
   10.6059  -15.6818   30.3554 O   0  0  0  0  0  0  0  0  0  0  0  0
   10.0729  -15.3350   29.1128 C   0  0  0  0  0  0  0  0  0  0  0  0
    9.8672  -16.2854   28.1233 C   0  0  0  0  0  0  0  0  0  0  0  0
    9.3374  -15.8828   26.9156 C   0  0  0  0  0  0  0  0  0  0  0  0
    9.0128  -14.5397   26.6919 C   0  0  0  0  0  0  0  0  0  0  0  0
    8.4548  -14.0910   25.4075 C   0  0  0  0  0  0  0  0  0  0  0  0
    9.0483  -14.7938   24.2181 C   0  0  2  0  0  0  0  0  0  0  0  0
    7.9752  -15.6018   23.6076 N   0  0  0  0  0  0  0  0  0  0  0  0
   10.1546  -15.6907   24.5890 C   0  0  0  0  0  0  0  0  0  0  0  0
   11.4360  -15.1988   24.7808 O   0  0  0  0  0  0  0  0  0  0  0  0
    9.2228  -13.6045   27.6849 C   0  0  0  0  0  0  0  0  0  0  0  0
    9.7522  -14.0140   28.8885 C   0  0  0  0  0  0  0  0  0  0  0  0
    9.9769  -16.9246   24.7436 O   0  0  0  0  0  0  0  0  0  0  0  0
  2  1  1  6
  2  3  1  0
  3  4  1  0
  4  5  2  0
  6  2  1  0
  7  6  2  0
  8  4  1  0
  9  6  1  0
 10 11  1  0
 10  9  1  0
 11 12  2  0
 14 13  1  0
 14 24  2  0
 15 14  1  0
 16 15  2  0
 16 17  1  0
 17 23  2  0
 18 17  1  0
 19 18  1  1
 20 19  1  0
 20 11  1  0
 21 19  1  0
 22 21  1  0
 23 24  1  0
 25 21  2  0
M  END
$$$$
