DGY.pdb
     RDKit          3D

 25 25  0  0  1  0  0  0  0  0999 V2000
    6.7637  -18.8848   21.1874 N   0  0  0  0  0  0  0  0  0  0  0  0
    7.4797  -18.4840   19.9906 C   0  0  1  0  0  0  0  0  0  0  0  0
    6.4843  -18.4893   18.8477 C   0  0  0  0  0  0  0  0  0  0  0  0
    5.9125  -19.8460   18.6515 C   0  0  0  0  0  0  0  0  0  0  0  0
    6.6423  -20.8669   18.6451 O   0  0  0  0  0  0  0  0  0  0  0  0
    8.0587  -17.1581   20.2274 C   0  0  0  0  0  0  0  0  0  0  0  0
    8.9304  -16.6465   19.4663 O   0  0  0  0  0  0  0  0  0  0  0  0
    4.5512  -20.0181   18.4697 O   0  0  0  0  0  0  0  0  0  0  0  0
    7.6740  -16.3371   21.3514 N   0  0  0  0  0  0  0  0  0  0  0  0
    8.3490  -15.1126   21.6411 C   0  0  0  0  0  0  0  0  0  0  0  0
    9.0561  -15.0461   22.9141 C   0  0  0  0  0  0  0  0  0  0  0  0
    9.8794  -14.0908   23.1196 O   0  0  0  0  0  0  0  0  0  0  0  0
    5.3917  -11.3378   26.3711 O   0  0  0  0  0  0  0  0  0  0  0  0
    6.2805  -12.4141   26.3893 C   0  0  0  0  0  0  0  0  0  0  0  0
    7.6082  -12.2495   26.7565 C   0  0  0  0  0  0  0  0  0  0  0  0
    8.4388  -13.3500   26.7555 C   0  0  0  0  0  0  0  0  0  0  0  0
    7.9515  -14.6105   26.3905 C   0  0  0  0  0  0  0  0  0  0  0  0
    8.8248  -15.7936   26.3755 C   0  0  0  0  0  0  0  0  0  0  0  0
    9.7551  -15.8368   25.1950 C   0  0  2  0  0  0  0  0  0  0  0  0
    8.9202  -15.9634   23.9851 N   0  0  0  0  0  0  0  0  0  0  0  0
   10.6776  -16.9823   25.2476 C   0  0  0  0  0  0  0  0  0  0  0  0
   11.5917  -17.1132   26.2811 O   0  0  0  0  0  0  0  0  0  0  0  0
    6.6286  -14.7601   26.0271 C   0  0  0  0  0  0  0  0  0  0  0  0
    5.8049  -13.6563   26.0307 C   0  0  0  0  0  0  0  0  0  0  0  0
   10.6686  -17.8748   24.3636 O   0  0  0  0  0  0  0  0  0  0  0  0
  2  1  1  1
  2  3  1  0
  3  4  1  0
  4  5  2  0
  6  2  1  0
  7  6  2  0
  8  4  1  0
  9  6  1  0
 10 11  1  0
 10  9  1  0
 11 12  2  0
 14 13  1  0
 14 24  2  0
 15 14  1  0
 16 15  2  0
 16 17  1  0
 17 23  2  0
 18 17  1  0
 19 18  1  1
 20 19  1  0
 20 11  1  0
 21 19  1  0
 22 21  1  0
 23 24  1  0
 25 21  2  0
M  END
$$$$
