DGY.pdb
     RDKit          3D

 25 25  0  0  1  0  0  0  0  0999 V2000
    7.4915  -19.0772   21.0365 N   0  0  0  0  0  0  0  0  0  0  0  0
    7.5948  -17.9487   20.1302 C   0  0  1  0  0  0  0  0  0  0  0  0
    6.3299  -17.9243   19.2958 C   0  0  0  0  0  0  0  0  0  0  0  0
    6.2998  -19.0678   18.3485 C   0  0  0  0  0  0  0  0  0  0  0  0
    7.3359  -19.4471   17.7505 O   0  0  0  0  0  0  0  0  0  0  0  0
    7.7645  -16.7332   20.9319 C   0  0  0  0  0  0  0  0  0  0  0  0
    6.9669  -16.4080   21.8588 O   0  0  0  0  0  0  0  0  0  0  0  0
    5.1198  -19.7474   18.1005 O   0  0  0  0  0  0  0  0  0  0  0  0
    8.8593  -15.8154   20.7206 N   0  0  0  0  0  0  0  0  0  0  0  0
    8.9578  -14.5959   21.4570 C   0  0  0  0  0  0  0  0  0  0  0  0
    9.2828  -14.7166   22.8729 C   0  0  0  0  0  0  0  0  0  0  0  0
    9.7539  -13.7030   23.4919 O   0  0  0  0  0  0  0  0  0  0  0  0
    6.1888  -10.7608   26.7538 O   0  0  0  0  0  0  0  0  0  0  0  0
    6.7592  -12.0225   26.5774 C   0  0  0  0  0  0  0  0  0  0  0  0
    7.9852  -12.3471   27.1399 C   0  0  0  0  0  0  0  0  0  0  0  0
    8.4984  -13.6096   26.9310 C   0  0  0  0  0  0  0  0  0  0  0  0
    7.7953  -14.5471   26.1652 C   0  0  0  0  0  0  0  0  0  0  0  0
    8.3312  -15.8953   25.9249 C   0  0  0  0  0  0  0  0  0  0  0  0
    9.5674  -15.9051   25.0690 C   0  0  2  0  0  0  0  0  0  0  0  0
    9.1248  -15.8827   23.6617 N   0  0  0  0  0  0  0  0  0  0  0  0
   10.3887  -17.1077   25.2811 C   0  0  0  0  0  0  0  0  0  0  0  0
   10.6103  -18.0089   24.2517 O   0  0  0  0  0  0  0  0  0  0  0  0
    6.5769  -14.2109   25.6111 C   0  0  0  0  0  0  0  0  0  0  0  0
    6.0706  -12.9480   25.8242 C   0  0  0  0  0  0  0  0  0  0  0  0
   10.9138  -17.3573   26.3947 O   0  0  0  0  0  0  0  0  0  0  0  0
  2  1  1  1
  2  3  1  0
  3  4  1  0
  4  5  2  0
  6  2  1  0
  7  6  2  0
  8  4  1  0
  9  6  1  0
 10 11  1  0
 10  9  1  0
 11 12  2  0
 14 13  1  0
 14 24  2  0
 15 14  1  0
 16 15  2  0
 16 17  1  0
 17 23  2  0
 18 17  1  0
 19 18  1  1
 20 19  1  0
 20 11  1  0
 21 19  1  0
 22 21  1  0
 23 24  1  0
 25 21  2  0
M  END
$$$$
