DGY.pdb
     RDKit          3D

 25 25  0  0  1  0  0  0  0  0999 V2000
   11.1884  -19.8687   20.9446 N   0  0  0  0  0  0  0  0  0  0  0  0
   11.6674  -18.5833   20.4714 C   0  0  1  0  0  0  0  0  0  0  0  0
   11.2269  -18.4424   19.0281 C   0  0  0  0  0  0  0  0  0  0  0  0
   12.3473  -18.7468   18.1018 C   0  0  0  0  0  0  0  0  0  0  0  0
   13.4656  -19.1209   18.5311 O   0  0  0  0  0  0  0  0  0  0  0  0
   11.1067  -17.5406   21.3360 C   0  0  0  0  0  0  0  0  0  0  0  0
   11.6163  -16.3867   21.4349 O   0  0  0  0  0  0  0  0  0  0  0  0
   12.1837  -18.6241   16.7328 O   0  0  0  0  0  0  0  0  0  0  0  0
    9.9271  -17.7565   22.1406 N   0  0  0  0  0  0  0  0  0  0  0  0
    9.4025  -16.7268   22.9794 C   0  0  0  0  0  0  0  0  0  0  0  0
   10.0916  -16.5059   24.2449 C   0  0  0  0  0  0  0  0  0  0  0  0
   11.0473  -17.2861   24.5776 O   0  0  0  0  0  0  0  0  0  0  0  0
    5.2027  -12.0482   27.0334 O   0  0  0  0  0  0  0  0  0  0  0  0
    6.5263  -12.4764   26.9188 C   0  0  0  0  0  0  0  0  0  0  0  0
    7.2186  -12.3734   25.7210 C   0  0  0  0  0  0  0  0  0  0  0  0
    8.5244  -12.8131   25.6686 C   0  0  0  0  0  0  0  0  0  0  0  0
    9.1405  -13.3536   26.8035 C   0  0  0  0  0  0  0  0  0  0  0  0
   10.5294  -13.8353   26.7639 C   0  0  0  0  0  0  0  0  0  0  0  0
   10.6515  -15.2802   26.3663 C   0  0  2  0  0  0  0  0  0  0  0  0
    9.8012  -15.4796   25.1771 N   0  0  0  0  0  0  0  0  0  0  0  0
   10.1957  -16.1953   27.4249 C   0  0  0  0  0  0  0  0  0  0  0  0
    9.1100  -17.0328   27.2230 O   0  0  0  0  0  0  0  0  0  0  0  0
    8.4402  -13.4504   27.9887 C   0  0  0  0  0  0  0  0  0  0  0  0
    7.1363  -13.0091   28.0333 C   0  0  0  0  0  0  0  0  0  0  0  0
   10.7708  -16.2486   28.5405 O   0  0  0  0  0  0  0  0  0  0  0  0
  2  1  1  1
  2  3  1  0
  3  4  1  0
  4  5  2  0
  6  2  1  0
  7  6  2  0
  8  4  1  0
  9  6  1  0
 10 11  1  0
 10  9  1  0
 11 12  2  0
 14 13  1  0
 14 24  2  0
 15 14  1  0
 16 15  2  0
 16 17  1  0
 17 23  2  0
 18 17  1  0
 19 18  1  1
 20 19  1  0
 20 11  1  0
 21 19  1  0
 22 21  1  0
 23 24  1  0
 25 21  2  0
M  END
$$$$
