DGY.pdb
     RDKit          3D

 25 25  0  0  1  0  0  0  0  0999 V2000
    8.3681  -18.7315   20.9574 N   0  0  0  0  0  0  0  0  0  0  0  0
    9.4395  -18.2377   20.1125 C   0  0  1  0  0  0  0  0  0  0  0  0
    8.8038  -17.7102   18.8419 C   0  0  0  0  0  0  0  0  0  0  0  0
    8.2773  -18.8243   18.0127 C   0  0  0  0  0  0  0  0  0  0  0  0
    8.9496  -19.8656   17.8164 O   0  0  0  0  0  0  0  0  0  0  0  0
   10.1638  -17.2003   20.8530 C   0  0  0  0  0  0  0  0  0  0  0  0
   11.4094  -17.2568   21.0682 O   0  0  0  0  0  0  0  0  0  0  0  0
    7.0235  -18.7400   17.4324 O   0  0  0  0  0  0  0  0  0  0  0  0
    9.5047  -16.0341   21.3926 N   0  0  0  0  0  0  0  0  0  0  0  0
   10.2250  -15.0549   22.1417 C   0  0  0  0  0  0  0  0  0  0  0  0
   10.3053  -15.2683   23.5815 C   0  0  0  0  0  0  0  0  0  0  0  0
   11.1645  -14.6107   24.2612 O   0  0  0  0  0  0  0  0  0  0  0  0
    5.8646  -11.2146   26.0552 O   0  0  0  0  0  0  0  0  0  0  0  0
    6.4319  -12.4882   26.1245 C   0  0  0  0  0  0  0  0  0  0  0  0
    5.7263  -13.6165   25.7327 C   0  0  0  0  0  0  0  0  0  0  0  0
    6.3394  -14.8482   25.8239 C   0  0  0  0  0  0  0  0  0  0  0  0
    7.6501  -14.9582   26.3030 C   0  0  0  0  0  0  0  0  0  0  0  0
    8.3167  -16.2641   26.4150 C   0  0  0  0  0  0  0  0  0  0  0  0
    9.6838  -16.2947   25.7898 C   0  0  2  0  0  0  0  0  0  0  0  0
    9.5008  -16.1608   24.3319 N   0  0  0  0  0  0  0  0  0  0  0  0
   10.3965  -17.5543   26.0571 C   0  0  0  0  0  0  0  0  0  0  0  0
   10.7929  -17.8890   27.3423 O   0  0  0  0  0  0  0  0  0  0  0  0
    8.3405  -13.8276   26.6896 C   0  0  0  0  0  0  0  0  0  0  0  0
    7.7216  -12.6008   26.5957 C   0  0  0  0  0  0  0  0  0  0  0  0
   10.6684  -18.3641   25.1360 O   0  0  0  0  0  0  0  0  0  0  0  0
  2  1  1  1
  2  3  1  0
  3  4  1  0
  4  5  2  0
  6  2  1  0
  7  6  2  0
  8  4  1  0
  9  6  1  0
 10 11  1  0
 10  9  1  0
 11 12  2  0
 14 13  1  0
 14 24  2  0
 15 14  1  0
 16 15  2  0
 16 17  1  0
 17 23  2  0
 18 17  1  0
 19 18  1  1
 20 19  1  0
 20 11  1  0
 21 19  1  0
 22 21  1  0
 23 24  1  0
 25 21  2  0
M  END
$$$$
