DGY.pdb
     RDKit          3D

 25 25  0  0  1  0  0  0  0  0999 V2000
    8.2026  -18.6008   22.6559 N   0  0  0  0  0  0  0  0  0  0  0  0
    8.8008  -18.0276   21.4647 C   0  0  1  0  0  0  0  0  0  0  0  0
    7.6686  -17.5459   20.5798 C   0  0  0  0  0  0  0  0  0  0  0  0
    7.1541  -18.6513   19.7317 C   0  0  0  0  0  0  0  0  0  0  0  0
    6.2724  -19.4396   20.1516 O   0  0  0  0  0  0  0  0  0  0  0  0
    9.6932  -16.9410   21.8795 C   0  0  0  0  0  0  0  0  0  0  0  0
   10.2917  -16.1937   21.0523 O   0  0  0  0  0  0  0  0  0  0  0  0
    7.6380  -18.8399   18.4487 O   0  0  0  0  0  0  0  0  0  0  0  0
    9.9545  -16.6441   23.2684 N   0  0  0  0  0  0  0  0  0  0  0  0
   10.7987  -15.5570   23.6486 C   0  0  0  0  0  0  0  0  0  0  0  0
   10.9158  -15.2946   25.0777 C   0  0  0  0  0  0  0  0  0  0  0  0
   11.7183  -14.3852   25.4798 O   0  0  0  0  0  0  0  0  0  0  0  0
    5.9357  -11.7503   25.4020 O   0  0  0  0  0  0  0  0  0  0  0  0
    6.7146  -12.6964   26.0704 C   0  0  0  0  0  0  0  0  0  0  0  0
    6.5261  -14.0569   25.8749 C   0  0  0  0  0  0  0  0  0  0  0  0
    7.3263  -14.9439   26.5633 C   0  0  0  0  0  0  0  0  0  0  0  0
    8.3111  -14.4803   27.4436 C   0  0  0  0  0  0  0  0  0  0  0  0
    9.1679  -15.4118   28.1924 C   0  0  0  0  0  0  0  0  0  0  0  0
   10.4872  -15.6820   27.5236 C   0  0  2  0  0  0  0  0  0  0  0  0
   10.2069  -15.9671   26.1034 N   0  0  0  0  0  0  0  0  0  0  0  0
   11.1848  -16.8409   28.1036 C   0  0  0  0  0  0  0  0  0  0  0  0
   11.4615  -17.9619   27.3370 O   0  0  0  0  0  0  0  0  0  0  0  0
    8.4878  -13.1242   27.6289 C   0  0  0  0  0  0  0  0  0  0  0  0
    7.6848  -12.2443   26.9378 C   0  0  0  0  0  0  0  0  0  0  0  0
   11.5510  -16.8540   29.3051 O   0  0  0  0  0  0  0  0  0  0  0  0
  2  1  1  1
  2  3  1  0
  3  4  1  0
  4  5  2  0
  6  2  1  0
  7  6  2  0
  8  4  1  0
  9  6  1  0
 10 11  1  0
 10  9  1  0
 11 12  2  0
 14 13  1  0
 14 24  2  0
 15 14  1  0
 16 15  2  0
 16 17  1  0
 17 23  2  0
 18 17  1  0
 19 18  1  1
 20 19  1  0
 20 11  1  0
 21 19  1  0
 22 21  1  0
 23 24  1  0
 25 21  2  0
M  END
$$$$
