DGY.pdb
     RDKit          3D

 25 25  0  0  1  0  0  0  0  0999 V2000
    7.4268  -13.2807   19.9524 N   0  0  0  0  0  0  0  0  0  0  0  0
    7.8269  -14.6722   19.8572 C   0  0  1  0  0  0  0  0  0  0  0  0
    8.9088  -14.7580   18.7994 C   0  0  0  0  0  0  0  0  0  0  0  0
    8.4188  -14.2340   17.4989 C   0  0  0  0  0  0  0  0  0  0  0  0
    7.2685  -13.7456   17.3840 O   0  0  0  0  0  0  0  0  0  0  0  0
    8.2944  -15.1043   21.1778 C   0  0  0  0  0  0  0  0  0  0  0  0
    9.3103  -14.6031   21.7416 O   0  0  0  0  0  0  0  0  0  0  0  0
    9.2249  -14.2721   16.3743 O   0  0  0  0  0  0  0  0  0  0  0  0
    7.6261  -16.1376   21.9335 N   0  0  0  0  0  0  0  0  0  0  0  0
    8.3539  -17.0200   22.7883 C   0  0  0  0  0  0  0  0  0  0  0  0
    8.9775  -16.4203   23.9615 C   0  0  0  0  0  0  0  0  0  0  0  0
    9.8268  -15.4790   23.8022 O   0  0  0  0  0  0  0  0  0  0  0  0
    6.0213  -11.0425   25.4881 O   0  0  0  0  0  0  0  0  0  0  0  0
    6.7155  -12.1523   25.9728 C   0  0  0  0  0  0  0  0  0  0  0  0
    8.0397  -12.0578   26.3754 C   0  0  0  0  0  0  0  0  0  0  0  0
    8.6732  -13.1886   26.8457 C   0  0  0  0  0  0  0  0  0  0  0  0
    7.9926  -14.4099   26.9157 C   0  0  0  0  0  0  0  0  0  0  0  0
    8.6547  -15.6278   27.4065 C   0  0  0  0  0  0  0  0  0  0  0  0
    9.5740  -16.2583   26.3975 C   0  0  2  0  0  0  0  0  0  0  0  0
    8.7308  -16.7858   25.3077 N   0  0  0  0  0  0  0  0  0  0  0  0
   10.3536  -17.3703   26.9646 C   0  0  0  0  0  0  0  0  0  0  0  0
   10.2055  -18.6616   26.4835 O   0  0  0  0  0  0  0  0  0  0  0  0
    6.6754  -14.4899   26.5116 C   0  0  0  0  0  0  0  0  0  0  0  0
    6.0493  -13.3561   26.0432 C   0  0  0  0  0  0  0  0  0  0  0  0
   11.1746  -17.1888   27.8980 O   0  0  0  0  0  0  0  0  0  0  0  0
  2  1  1  1
  2  3  1  0
  3  4  1  0
  4  5  2  0
  6  2  1  0
  7  6  2  0
  8  4  1  0
  9  6  1  0
 10 11  1  0
 10  9  1  0
 11 12  2  0
 14 13  1  0
 14 24  2  0
 15 14  1  0
 16 15  2  0
 16 17  1  0
 17 23  2  0
 18 17  1  0
 19 18  1  1
 20 19  1  0
 20 11  1  0
 21 19  1  0
 22 21  1  0
 23 24  1  0
 25 21  2  0
M  END
$$$$
