NDA.pdb
     RDKit          3D

 22 21  0  0  1  0  0  0  0  0999 V2000
    9.2560  -13.7242   14.7209 N   0  0  0  0  0  0  0  0  0  0  0  0
    7.9013  -14.1631   14.7201 C   0  0  0  0  0  0  0  0  0  0  0  0
    7.3562  -14.3626   13.6010 O   0  0  0  0  0  0  0  0  0  0  0  0
    7.1574  -14.3782   15.9875 C   0  0  0  0  0  0  0  0  0  0  0  0
    8.1202  -14.1928   17.1301 C   0  0  2  0  0  0  0  0  0  0  0  0
    9.4632  -14.3036   16.6020 N   0  0  0  0  0  0  0  0  0  0  0  0
    7.8820  -15.1872   18.2186 C   0  0  0  0  0  0  0  0  0  0  0  0
    7.2685  -16.2441   17.9276 O   0  0  0  0  0  0  0  0  0  0  0  0
    8.3153  -14.9838   19.5413 N   0  0  0  0  0  0  0  0  0  0  0  0
    8.3411  -15.9830   20.5734 C   0  0  1  0  0  0  0  0  0  0  0  0
    9.1189  -17.1745   20.0994 C   0  0  0  0  0  0  0  0  0  0  0  0
    9.0989  -18.2390   21.1240 C   0  0  0  0  0  0  0  0  0  0  0  0
    8.1073  -18.5310   21.8346 O   0  0  0  0  0  0  0  0  0  0  0  0
    8.8951  -15.4449   21.8494 C   0  0  0  0  0  0  0  0  0  0  0  0
   10.1277  -15.2464   21.9228 O   0  0  0  0  0  0  0  0  0  0  0  0
   10.2444  -19.0194   21.3696 O   0  0  0  0  0  0  0  0  0  0  0  0
    7.4057  -13.8991   24.9437 C   0  0  0  0  0  0  0  0  0  0  0  0
    8.5227  -14.5847   24.1845 C   0  0  2  0  0  0  0  0  0  0  0  0
    8.0453  -15.1679   22.9452 N   0  0  0  0  0  0  0  0  0  0  0  0
    9.2132  -15.5664   25.0363 C   0  0  0  0  0  0  0  0  0  0  0  0
    9.2445  -16.8896   24.6492 O   0  0  0  0  0  0  0  0  0  0  0  0
    9.7623  -15.1983   26.0962 O   0  0  0  0  0  0  0  0  0  0  0  0
  1  2  1  0
  2  3  2  0
  2  4  1  0
  5  7  1  0
  5  4  1  0
  5  6  1  6
  7  8  2  0
  9 10  1  0
  9  7  1  0
 10 14  1  0
 11 12  1  0
 10 11  1  6
 12 13  2  0
 12 16  1  0
 14 19  1  0
 14 15  2  0
 18 17  1  1
 18 20  1  0
 19 18  1  0
 20 22  2  0
 20 21  1  0
M  END
$$$$
