NDA.pdb
     RDKit          3D

 22 21  0  0  1  0  0  0  0  0999 V2000
    7.1948  -13.4603   18.8268 N   0  0  0  0  0  0  0  0  0  0  0  0
    8.4204  -12.8043   18.5180 C   0  0  0  0  0  0  0  0  0  0  0  0
    8.4945  -11.5689   18.7584 O   0  0  0  0  0  0  0  0  0  0  0  0
    9.5684  -13.5448   17.9351 C   0  0  0  0  0  0  0  0  0  0  0  0
    9.1584  -14.9840   17.7689 C   0  0  2  0  0  0  0  0  0  0  0  0
    7.9263  -15.0103   17.0100 N   0  0  0  0  0  0  0  0  0  0  0  0
    8.9977  -15.6671   19.0872 C   0  0  0  0  0  0  0  0  0  0  0  0
    7.8508  -15.6986   19.5989 O   0  0  0  0  0  0  0  0  0  0  0  0
   10.0722  -16.2689   19.7669 N   0  0  0  0  0  0  0  0  0  0  0  0
    9.9776  -16.9843   21.0092 C   0  0  1  0  0  0  0  0  0  0  0  0
   11.1176  -17.9528   21.1190 C   0  0  0  0  0  0  0  0  0  0  0  0
   10.9670  -19.0349   20.1241 C   0  0  0  0  0  0  0  0  0  0  0  0
    9.8782  -19.5722   19.8092 O   0  0  0  0  0  0  0  0  0  0  0  0
    9.9364  -16.0586   22.1780 C   0  0  0  0  0  0  0  0  0  0  0  0
   10.9082  -15.2932   22.3617 O   0  0  0  0  0  0  0  0  0  0  0  0
   12.0891  -19.5451   19.4444 O   0  0  0  0  0  0  0  0  0  0  0  0
    7.3377  -14.5201   24.2607 C   0  0  0  0  0  0  0  0  0  0  0  0
    8.7165  -15.1413   24.1784 C   0  0  2  0  0  0  0  0  0  0  0  0
    8.8257  -16.0499   23.0530 N   0  0  0  0  0  0  0  0  0  0  0  0
    9.0829  -15.7808   25.4524 C   0  0  0  0  0  0  0  0  0  0  0  0
    9.4393  -17.1130   25.4591 O   0  0  0  0  0  0  0  0  0  0  0  0
    9.0690  -15.1186   26.5114 O   0  0  0  0  0  0  0  0  0  0  0  0
  1  2  1  0
  2  3  2  0
  2  4  1  0
  5  7  1  0
  5  4  1  0
  5  6  1  1
  7  8  2  0
  9 10  1  0
  9  7  1  0
 10 14  1  0
 11 12  1  0
 10 11  1  1
 12 13  2  0
 12 16  1  0
 14 19  1  0
 14 15  2  0
 18 17  1  1
 18 20  1  0
 19 18  1  0
 20 22  2  0
 20 21  1  0
M  END
$$$$
