NDA.pdb
     RDKit          3D

 22 21  0  0  1  0  0  0  0  0999 V2000
    7.6548  -12.5982   16.3858 N   0  0  0  0  0  0  0  0  0  0  0  0
    7.9761  -13.8692   16.9420 C   0  0  0  0  0  0  0  0  0  0  0  0
    8.6518  -14.6605   16.2304 O   0  0  0  0  0  0  0  0  0  0  0  0
    7.5332  -14.2499   18.3077 C   0  0  0  0  0  0  0  0  0  0  0  0
    8.7445  -14.2696   19.2017 C   0  0  2  0  0  0  0  0  0  0  0  0
    9.7971  -14.9808   18.5082 N   0  0  0  0  0  0  0  0  0  0  0  0
    8.4445  -14.8985   20.5226 C   0  0  0  0  0  0  0  0  0  0  0  0
    7.4644  -14.4604   21.1750 O   0  0  0  0  0  0  0  0  0  0  0  0
    9.2116  -15.9507   21.0547 N   0  0  0  0  0  0  0  0  0  0  0  0
    8.9956  -16.5790   22.3286 C   0  0  1  0  0  0  0  0  0  0  0  0
    9.8158  -17.8317   22.4161 C   0  0  0  0  0  0  0  0  0  0  0  0
    9.4277  -18.7730   21.3453 C   0  0  0  0  0  0  0  0  0  0  0  0
    8.2715  -19.2295   21.1770 O   0  0  0  0  0  0  0  0  0  0  0  0
    9.2951  -15.6533   23.4590 C   0  0  0  0  0  0  0  0  0  0  0  0
   10.4702  -15.2483   23.5974 O   0  0  0  0  0  0  0  0  0  0  0  0
   10.3782  -19.2298   20.4129 O   0  0  0  0  0  0  0  0  0  0  0  0
    7.2896  -13.4695   25.7218 C   0  0  0  0  0  0  0  0  0  0  0  0
    8.5062  -14.3289   25.4478 C   0  0  2  0  0  0  0  0  0  0  0  0
    8.2741  -15.2467   24.3488 N   0  0  0  0  0  0  0  0  0  0  0  0
    8.9498  -15.0188   26.6698 C   0  0  0  0  0  0  0  0  0  0  0  0
    9.0409  -16.3948   26.6708 O   0  0  0  0  0  0  0  0  0  0  0  0
    9.2389  -14.3593   27.6905 O   0  0  0  0  0  0  0  0  0  0  0  0
  1  2  1  0
  2  3  2  0
  2  4  1  0
  5  7  1  0
  5  4  1  0
  5  6  1  6
  7  8  2  0
  9 10  1  0
  9  7  1  0
 10 14  1  0
 11 12  1  0
 10 11  1  1
 12 13  2  0
 12 16  1  0
 14 19  1  0
 14 15  2  0
 18 17  1  1
 18 20  1  0
 19 18  1  0
 20 22  2  0
 20 21  1  0
M  END
$$$$
