NDA.pdb
     RDKit          3D

 22 21  0  0  1  0  0  0  0  0999 V2000
    8.3516  -12.4234   17.6729 N   0  0  0  0  0  0  0  0  0  0  0  0
    7.9501  -13.7857   17.7769 C   0  0  0  0  0  0  0  0  0  0  0  0
    8.0768  -14.5083   16.7517 O   0  0  0  0  0  0  0  0  0  0  0  0
    7.4028  -14.3361   19.0433 C   0  0  0  0  0  0  0  0  0  0  0  0
    8.4793  -14.2497   20.0924 C   0  0  2  0  0  0  0  0  0  0  0  0
    9.6105  -15.0271   19.6335 N   0  0  0  0  0  0  0  0  0  0  0  0
    7.9943  -14.7304   21.4206 C   0  0  0  0  0  0  0  0  0  0  0  0
    6.9065  -14.2731   21.8517 O   0  0  0  0  0  0  0  0  0  0  0  0
    8.7043  -15.6653   22.1956 N   0  0  0  0  0  0  0  0  0  0  0  0
    8.3966  -16.0307   23.5506 C   0  0  1  0  0  0  0  0  0  0  0  0
    9.1576  -17.2687   23.9219 C   0  0  0  0  0  0  0  0  0  0  0  0
    8.7644  -18.3925   23.0468 C   0  0  0  0  0  0  0  0  0  0  0  0
    7.5867  -18.6570   22.7057 O   0  0  0  0  0  0  0  0  0  0  0  0
    8.6763  -14.9154   24.5006 C   0  0  0  0  0  0  0  0  0  0  0  0
    9.8615  -14.5433   24.6446 O   0  0  0  0  0  0  0  0  0  0  0  0
    9.7352  -19.2677   22.5241 O   0  0  0  0  0  0  0  0  0  0  0  0
    6.6106  -12.4110   26.4106 C   0  0  0  0  0  0  0  0  0  0  0  0
    7.8499  -13.2565   26.2025 C   0  0  2  0  0  0  0  0  0  0  0  0
    7.6257  -14.2978   25.2178 N   0  0  0  0  0  0  0  0  0  0  0  0
    8.3431  -13.7919   27.4817 C   0  0  0  0  0  0  0  0  0  0  0  0
    8.4442  -15.1574   27.6459 O   0  0  0  0  0  0  0  0  0  0  0  0
    8.6646  -13.0127   28.4035 O   0  0  0  0  0  0  0  0  0  0  0  0
  1  2  1  0
  2  3  2  0
  2  4  1  0
  5  7  1  0
  5  4  1  0
  5  6  1  6
  7  8  2  0
  9 10  1  0
  9  7  1  0
 10 14  1  0
 11 12  1  0
 10 11  1  1
 12 13  2  0
 12 16  1  0
 14 19  1  0
 14 15  2  0
 18 17  1  1
 18 20  1  0
 19 18  1  0
 20 22  2  0
 20 21  1  0
M  END
$$$$
