NDA.pdb
     RDKit          3D

 22 21  0  0  1  0  0  0  0  0999 V2000
    8.3435  -17.6612   18.6998 N   0  0  0  0  0  0  0  0  0  0  0  0
    6.9304  -17.5322   18.8191 C   0  0  0  0  0  0  0  0  0  0  0  0
    6.2161  -18.3245   18.1472 O   0  0  0  0  0  0  0  0  0  0  0  0
    6.3193  -16.5046   19.7004 C   0  0  0  0  0  0  0  0  0  0  0  0
    7.4314  -15.6951   20.3128 C   0  0  2  0  0  0  0  0  0  0  0  0
    8.6859  -16.2066   19.8034 N   0  0  0  0  0  0  0  0  0  0  0  0
    7.3920  -15.7442   21.8049 C   0  0  0  0  0  0  0  0  0  0  0  0
    6.4159  -15.2085   22.3867 O   0  0  0  0  0  0  0  0  0  0  0  0
    8.3969  -16.3616   22.5714 N   0  0  0  0  0  0  0  0  0  0  0  0
    8.4805  -16.3450   24.0056 C   0  0  1  0  0  0  0  0  0  0  0  0
    9.6605  -17.1578   24.4492 C   0  0  0  0  0  0  0  0  0  0  0  0
    9.7856  -17.1168   25.9209 C   0  0  0  0  0  0  0  0  0  0  0  0
    8.8790  -17.4375   26.7263 O   0  0  0  0  0  0  0  0  0  0  0  0
    8.5476  -14.9538   24.5390 C   0  0  0  0  0  0  0  0  0  0  0  0
    9.5331  -14.2483   24.2308 O   0  0  0  0  0  0  0  0  0  0  0  0
   10.9844  -16.6962   26.5271 O   0  0  0  0  0  0  0  0  0  0  0  0
    6.2016  -12.4392   25.8497 C   0  0  0  0  0  0  0  0  0  0  0  0
    7.5534  -13.1162   25.9413 C   0  0  2  0  0  0  0  0  0  0  0  0
    7.5215  -14.4497   25.3712 N   0  0  0  0  0  0  0  0  0  0  0  0
    8.0525  -13.1106   27.3258 C   0  0  0  0  0  0  0  0  0  0  0  0
    8.2368  -11.9054   27.9703 O   0  0  0  0  0  0  0  0  0  0  0  0
    8.3042  -14.1887   27.9044 O   0  0  0  0  0  0  0  0  0  0  0  0
  1  2  1  0
  2  3  2  0
  2  4  1  0
  5  7  1  0
  5  4  1  0
  5  6  1  6
  7  8  2  0
  9 10  1  0
  9  7  1  0
 10 14  1  0
 11 12  1  0
 10 11  1  6
 12 13  2  0
 12 16  1  0
 14 19  1  0
 14 15  2  0
 18 17  1  1
 18 20  1  0
 19 18  1  0
 20 22  2  0
 20 21  1  0
M  END
$$$$
