NDA.pdb
     RDKit          3D

 22 21  0  0  1  0  0  0  0  0999 V2000
    4.2789  -19.2499   15.0239 N   0  0  0  0  0  0  0  0  0  0  0  0
    5.4321  -18.7022   15.6548 C   0  0  0  0  0  0  0  0  0  0  0  0
    6.3010  -18.1682   14.9136 O   0  0  0  0  0  0  0  0  0  0  0  0
    5.6068  -18.7569   17.1287 C   0  0  0  0  0  0  0  0  0  0  0  0
    6.8478  -17.9802   17.4799 C   0  0  2  0  0  0  0  0  0  0  0  0
    7.8743  -18.3244   16.5194 N   0  0  0  0  0  0  0  0  0  0  0  0
    7.2966  -18.2601   18.8766 C   0  0  0  0  0  0  0  0  0  0  0  0
    6.6061  -17.8015   19.8206 O   0  0  0  0  0  0  0  0  0  0  0  0
    8.4507  -19.0097   19.1678 N   0  0  0  0  0  0  0  0  0  0  0  0
    9.0204  -19.1901   20.4743 C   0  0  1  0  0  0  0  0  0  0  0  0
    9.8539  -20.4369   20.4908 C   0  0  0  0  0  0  0  0  0  0  0  0
   10.4032  -20.6671   21.8431 C   0  0  0  0  0  0  0  0  0  0  0  0
   11.5308  -21.1608   22.0840 O   0  0  0  0  0  0  0  0  0  0  0  0
    9.8132  -18.0007   20.9003 C   0  0  0  0  0  0  0  0  0  0  0  0
   10.7742  -17.6424   20.1847 O   0  0  0  0  0  0  0  0  0  0  0  0
    9.6562  -20.3292   22.9874 O   0  0  0  0  0  0  0  0  0  0  0  0
    9.4111  -15.1115   23.1878 C   0  0  0  0  0  0  0  0  0  0  0  0
   10.2804  -16.2014   22.5960 C   0  0  2  0  0  0  0  0  0  0  0  0
    9.4834  -17.2995   22.0831 N   0  0  0  0  0  0  0  0  0  0  0  0
   11.2948  -16.6496   23.5637 C   0  0  0  0  0  0  0  0  0  0  0  0
   12.2897  -15.7760   23.9495 O   0  0  0  0  0  0  0  0  0  0  0  0
   11.2491  -17.8091   24.0260 O   0  0  0  0  0  0  0  0  0  0  0  0
  1  2  1  0
  2  3  2  0
  2  4  1  0
  5  7  1  0
  5  4  1  0
  5  6  1  6
  7  8  2  0
  9 10  1  0
  9  7  1  0
 10 14  1  0
 11 12  1  0
 10 11  1  6
 12 13  2  0
 12 16  1  0
 14 19  1  0
 14 15  2  0
 18 17  1  1
 18 20  1  0
 19 18  1  0
 20 22  2  0
 20 21  1  0
M  END
$$$$
