NDA.pdb
     RDKit          3D

 22 21  0  0  1  0  0  0  0  0999 V2000
    9.0131  -12.9172   17.9746 N   0  0  0  0  0  0  0  0  0  0  0  0
    7.8662  -13.7545   18.0818 C   0  0  0  0  0  0  0  0  0  0  0  0
    7.1128  -13.8391   17.0745 O   0  0  0  0  0  0  0  0  0  0  0  0
    7.5672  -14.5003   19.3310 C   0  0  0  0  0  0  0  0  0  0  0  0
    8.5883  -14.1058   20.3648 C   0  0  2  0  0  0  0  0  0  0  0  0
    9.8636  -14.6605   19.9641 N   0  0  0  0  0  0  0  0  0  0  0  0
    8.1993  -14.5714   21.7295 C   0  0  0  0  0  0  0  0  0  0  0  0
    7.1250  -14.1386   22.2160 O   0  0  0  0  0  0  0  0  0  0  0  0
    8.9842  -15.4661   22.4792 N   0  0  0  0  0  0  0  0  0  0  0  0
    8.6663  -15.9564   23.7917 C   0  0  1  0  0  0  0  0  0  0  0  0
    9.0757  -17.3951   23.9030 C   0  0  0  0  0  0  0  0  0  0  0  0
   10.5152  -17.5418   23.6038 C   0  0  0  0  0  0  0  0  0  0  0  0
   11.4384  -17.4113   24.4430 O   0  0  0  0  0  0  0  0  0  0  0  0
    9.2977  -15.1276   24.8589 C   0  0  0  0  0  0  0  0  0  0  0  0
   10.5158  -14.8623   24.7599 O   0  0  0  0  0  0  0  0  0  0  0  0
   10.9488  -17.8504   22.3006 O   0  0  0  0  0  0  0  0  0  0  0  0
    8.0833  -12.7590   27.4389 C   0  0  0  0  0  0  0  0  0  0  0  0
    9.0857  -13.8000   26.9859 C   0  0  2  0  0  0  0  0  0  0  0  0
    8.5351  -14.6561   25.9525 N   0  0  0  0  0  0  0  0  0  0  0  0
    9.6035  -14.5661   28.1310 C   0  0  0  0  0  0  0  0  0  0  0  0
   10.2994  -13.9071   29.1226 O   0  0  0  0  0  0  0  0  0  0  0  0
    9.4110  -15.7985   28.1975 O   0  0  0  0  0  0  0  0  0  0  0  0
  1  2  1  0
  2  3  2  0
  2  4  1  0
  5  7  1  0
  5  4  1  0
  5  6  1  6
  7  8  2  0
  9 10  1  0
  9  7  1  0
 10 14  1  0
 11 12  1  0
 10 11  1  6
 12 13  2  0
 12 16  1  0
 14 19  1  0
 14 15  2  0
 18 17  1  1
 18 20  1  0
 19 18  1  0
 20 22  2  0
 20 21  1  0
M  END
$$$$
