NDA.pdb
     RDKit          3D

 22 21  0  0  1  0  0  0  0  0999 V2000
    8.4803  -13.8132   18.5738 N   0  0  0  0  0  0  0  0  0  0  0  0
    8.3845  -12.8192   19.5890 C   0  0  0  0  0  0  0  0  0  0  0  0
    8.6528  -11.6307   19.2653 O   0  0  0  0  0  0  0  0  0  0  0  0
    7.9841  -13.1669   20.9764 C   0  0  0  0  0  0  0  0  0  0  0  0
    7.7062  -14.6459   21.0242 C   0  0  2  0  0  0  0  0  0  0  0  0
    6.4875  -14.8933   20.2837 N   0  0  0  0  0  0  0  0  0  0  0  0
    7.5968  -15.1412   22.4289 C   0  0  0  0  0  0  0  0  0  0  0  0
    6.5741  -14.8263   23.0870 O   0  0  0  0  0  0  0  0  0  0  0  0
    8.5866  -15.9377   23.0327 N   0  0  0  0  0  0  0  0  0  0  0  0
    8.5492  -16.4359   24.3798 C   0  0  1  0  0  0  0  0  0  0  0  0
    8.9270  -17.8874   24.3889 C   0  0  0  0  0  0  0  0  0  0  0  0
    8.6767  -18.4727   25.7224 C   0  0  0  0  0  0  0  0  0  0  0  0
    8.0092  -17.9241   26.6318 O   0  0  0  0  0  0  0  0  0  0  0  0
    9.4256  -15.6405   25.2875 C   0  0  0  0  0  0  0  0  0  0  0  0
   10.6311  -15.5094   24.9818 O   0  0  0  0  0  0  0  0  0  0  0  0
    9.1978  -19.7359   26.0602 O   0  0  0  0  0  0  0  0  0  0  0  0
    8.9294  -13.1355   27.9919 C   0  0  0  0  0  0  0  0  0  0  0  0
    9.7138  -14.2799   27.3844 C   0  0  2  0  0  0  0  0  0  0  0  0
    8.9029  -15.0518   26.4621 N   0  0  0  0  0  0  0  0  0  0  0  0
   10.3211  -15.1167   28.4319 C   0  0  0  0  0  0  0  0  0  0  0  0
   11.2757  -14.5685   29.2625 O   0  0  0  0  0  0  0  0  0  0  0  0
    9.9712  -16.3088   28.5613 O   0  0  0  0  0  0  0  0  0  0  0  0
  1  2  1  0
  2  3  2  0
  2  4  1  0
  5  7  1  0
  5  4  1  0
  5  6  1  6
  7  8  2  0
  9 10  1  0
  9  7  1  0
 10 14  1  0
 11 12  1  0
 10 11  1  6
 12 13  2  0
 12 16  1  0
 14 19  1  0
 14 15  2  0
 18 17  1  1
 18 20  1  0
 19 18  1  0
 20 22  2  0
 20 21  1  0
M  END
$$$$
