NDA.pdb
     RDKit          3D

 22 21  0  0  1  0  0  0  0  0999 V2000
    7.3690  -15.7358   16.1036 N   0  0  0  0  0  0  0  0  0  0  0  0
    7.6258  -14.3864   16.4793 C   0  0  0  0  0  0  0  0  0  0  0  0
    8.5663  -13.7885   15.8900 O   0  0  0  0  0  0  0  0  0  0  0  0
    6.8182  -13.7077   17.5249 C   0  0  0  0  0  0  0  0  0  0  0  0
    7.7209  -13.4151   18.6939 C   0  0  2  0  0  0  0  0  0  0  0  0
    8.8151  -12.5968   18.2167 N   0  0  0  0  0  0  0  0  0  0  0  0
    8.2204  -14.6695   19.3321 C   0  0  0  0  0  0  0  0  0  0  0  0
    7.3722  -15.5024   19.7384 O   0  0  0  0  0  0  0  0  0  0  0  0
    9.5901  -14.9471   19.4920 N   0  0  0  0  0  0  0  0  0  0  0  0
   10.1365  -16.0550   20.2256 C   0  0  1  0  0  0  0  0  0  0  0  0
   11.3741  -16.5507   19.5385 C   0  0  0  0  0  0  0  0  0  0  0  0
   11.8585  -17.7872   20.1866 C   0  0  0  0  0  0  0  0  0  0  0  0
   13.0632  -18.1257   20.2739 O   0  0  0  0  0  0  0  0  0  0  0  0
   10.4112  -15.6949   21.6467 C   0  0  0  0  0  0  0  0  0  0  0  0
   11.3825  -14.9459   21.8908 O   0  0  0  0  0  0  0  0  0  0  0  0
   10.9525  -18.6941   20.7680 O   0  0  0  0  0  0  0  0  0  0  0  0
    8.5377  -15.4693   24.7812 C   0  0  0  0  0  0  0  0  0  0  0  0
    9.8200  -15.8767   24.0858 C   0  0  2  0  0  0  0  0  0  0  0  0
    9.5922  -16.1898   22.6879 N   0  0  0  0  0  0  0  0  0  0  0  0
   10.4830  -16.9762   24.8053 C   0  0  0  0  0  0  0  0  0  0  0  0
   10.9863  -16.7473   26.0686 O   0  0  0  0  0  0  0  0  0  0  0  0
   10.5851  -18.1010   24.2718 O   0  0  0  0  0  0  0  0  0  0  0  0
  1  2  1  0
  2  3  2  0
  2  4  1  0
  5  7  1  0
  5  4  1  0
  5  6  1  6
  7  8  2  0
  9 10  1  0
  9  7  1  0
 10 14  1  0
 11 12  1  0
 10 11  1  6
 12 13  2  0
 12 16  1  0
 14 19  1  0
 14 15  2  0
 18 17  1  1
 18 20  1  0
 19 18  1  0
 20 22  2  0
 20 21  1  0
M  END
$$$$
