ENE.pdb
     RDKit          3D

 27 26  0  0  1  0  0  0  0  0999 V2000
   15.3374  -10.6433   -9.8363 N   0  0  0  0  0  0  0  0  0  0  0  0
   15.8184  -10.5581  -11.1805 C   0  0  1  0  0  0  0  0  0  0  0  0
   14.7182  -10.8525  -12.1644 C   0  0  0  0  0  0  0  0  0  0  0  0
   14.0170  -12.1486  -11.9822 C   0  0  0  0  0  0  0  0  0  0  0  0
   12.9150  -12.2891  -12.9555 C   0  0  0  0  0  0  0  0  0  0  0  0
   13.1063  -12.3364  -14.1916 O   0  0  0  0  0  0  0  0  0  0  0  0
   16.2516   -9.1103  -11.4246 C   0  0  0  0  0  0  0  0  0  0  0  0
   16.3093   -8.6694  -12.5751 O   0  0  0  0  0  0  0  0  0  0  0  0
   11.6195  -12.3717  -12.4561 O   0  0  0  0  0  0  0  0  0  0  0  0
   17.6548   -4.2278  -10.2897 N   0  0  0  0  0  0  0  0  0  0  0  0
   16.9684   -4.7232   -9.1441 C   0  0  0  0  0  0  0  0  0  0  0  0
   16.7315   -3.9013   -8.2120 O   0  0  0  0  0  0  0  0  0  0  0  0
   16.5589   -6.1435   -9.0611 C   0  0  0  0  0  0  0  0  0  0  0  0
   17.0090   -6.9588  -10.2807 C   0  0  2  0  0  0  0  0  0  0  0  0
   16.5780   -8.3049  -10.3217 N   0  0  0  0  0  0  0  0  0  0  0  0
   18.4386   -6.7417  -10.5088 C   0  0  0  0  0  0  0  0  0  0  0  0
   19.3309   -7.4160   -9.9478 O   0  0  0  0  0  0  0  0  0  0  0  0
   18.9243   -5.7281  -11.4074 N   0  0  0  0  0  0  0  0  0  0  0  0
   20.2238   -5.8474  -12.0965 C   0  0  1  0  0  0  0  0  0  0  0  0
   20.3334   -7.1763  -12.7363 C   0  0  0  0  0  0  0  0  0  0  0  0
   21.5490   -7.3782  -13.5660 C   0  0  0  0  0  0  0  0  0  0  0  0
   21.5893   -8.6683  -14.3026 C   0  0  0  0  0  0  0  0  0  0  0  0
   21.5868   -8.6017  -15.5717 O   0  0  0  0  0  0  0  0  0  0  0  0
   20.4555   -4.6567  -12.8718 C   0  0  0  0  0  0  0  0  0  0  0  0
   19.4720   -4.0364  -13.4059 O   0  0  0  0  0  0  0  0  0  0  0  0
   21.6293   -9.9100  -13.7235 O   0  0  0  0  0  0  0  0  0  0  0  0
   21.7000   -4.0453  -13.1246 O   0  0  0  0  0  0  0  0  0  0  0  0
  2  1  1  1
  2  3  1  0
  3  4  1  0
  5  4  1  0
  5  9  1  0
  6  5  2  0
  7  2  1  0
  7  8  2  0
 10 11  1  0
 11 13  1  0
 12 11  2  0
 14 13  1  1
 14 15  1  0
 15  7  1  0
 16 14  1  0
 17 16  2  0
 18 16  1  0
 19 18  1  0
 19 24  1  0
 19 20  1  6
 21 22  1  0
 21 20  1  0
 22 23  2  0
 24 27  1  0
 25 24  2  0
 26 22  1  0
M  END
$$$$
