ENE.pdb
     RDKit          3D

 27 26  0  0  1  0  0  0  0  0999 V2000
   20.8984  -13.8153  -16.8032 N   0  0  0  0  0  0  0  0  0  0  0  0
   20.5264  -12.4658  -17.0966 C   0  0  1  0  0  0  0  0  0  0  0  0
   19.0770  -12.2251  -16.7706 C   0  0  0  0  0  0  0  0  0  0  0  0
   18.1029  -13.1040  -17.4659 C   0  0  0  0  0  0  0  0  0  0  0  0
   16.7185  -12.7486  -17.0938 C   0  0  0  0  0  0  0  0  0  0  0  0
   16.1341  -11.7390  -17.5476 O   0  0  0  0  0  0  0  0  0  0  0  0
   21.3419  -11.5523  -16.1779 C   0  0  0  0  0  0  0  0  0  0  0  0
   21.0375  -11.4443  -14.9875 O   0  0  0  0  0  0  0  0  0  0  0  0
   16.0551  -13.5846  -16.2018 O   0  0  0  0  0  0  0  0  0  0  0  0
   25.9301  -12.0391  -17.0909 N   0  0  0  0  0  0  0  0  0  0  0  0
   25.3714  -11.1792  -16.1024 C   0  0  0  0  0  0  0  0  0  0  0  0
   25.4422  -11.5603  -14.8981 O   0  0  0  0  0  0  0  0  0  0  0  0
   24.7349   -9.8982  -16.4841 C   0  0  0  0  0  0  0  0  0  0  0  0
   23.2435   -9.8516  -16.1261 C   0  0  2  0  0  0  0  0  0  0  0  0
   22.4317  -10.8484  -16.7150 N   0  0  0  0  0  0  0  0  0  0  0  0
   22.7563   -8.4772  -16.2542 C   0  0  0  0  0  0  0  0  0  0  0  0
   22.3041   -8.0086  -17.3227 O   0  0  0  0  0  0  0  0  0  0  0  0
   22.7597   -7.5583  -15.1468 N   0  0  0  0  0  0  0  0  0  0  0  0
   22.0658   -6.2572  -15.2045 C   0  0  1  0  0  0  0  0  0  0  0  0
   20.6388   -6.4627  -15.5345 C   0  0  0  0  0  0  0  0  0  0  0  0
   19.7893   -5.2474  -15.4435 C   0  0  0  0  0  0  0  0  0  0  0  0
   18.3344   -5.4936  -15.6200 C   0  0  0  0  0  0  0  0  0  0  0  0
   17.6874   -4.6333  -16.2955 O   0  0  0  0  0  0  0  0  0  0  0  0
   22.4299   -5.4790  -14.0493 C   0  0  0  0  0  0  0  0  0  0  0  0
   22.8758   -6.0581  -12.9991 O   0  0  0  0  0  0  0  0  0  0  0  0
   17.6458   -6.5662  -15.1159 O   0  0  0  0  0  0  0  0  0  0  0  0
   22.3633   -4.0767  -13.9235 O   0  0  0  0  0  0  0  0  0  0  0  0
  2  1  1  1
  2  3  1  0
  3  4  1  0
  5  4  1  0
  5  9  1  0
  6  5  2  0
  7  2  1  0
  7  8  2  0
 10 11  1  0
 11 13  1  0
 12 11  2  0
 14 13  1  6
 14 15  1  0
 15  7  1  0
 16 14  1  0
 17 16  2  0
 18 16  1  0
 19 18  1  0
 19 24  1  0
 19 20  1  1
 21 22  1  0
 21 20  1  0
 22 23  2  0
 24 27  1  0
 25 24  2  0
 26 22  1  0
M  END
$$$$
