ENE.pdb
     RDKit          3D

 27 26  0  0  1  0  0  0  0  0999 V2000
   18.8497  -11.1071  -15.1445 N   0  0  0  0  0  0  0  0  0  0  0  0
   18.5301   -9.8768  -15.7999 C   0  0  1  0  0  0  0  0  0  0  0  0
   17.0405   -9.6711  -15.8596 C   0  0  0  0  0  0  0  0  0  0  0  0
   16.2975  -10.5814  -16.7675 C   0  0  0  0  0  0  0  0  0  0  0  0
   14.8713  -10.2037  -16.8355 C   0  0  0  0  0  0  0  0  0  0  0  0
   14.4541   -9.2624  -17.5474 O   0  0  0  0  0  0  0  0  0  0  0  0
   19.0979   -8.7390  -14.9475 C   0  0  0  0  0  0  0  0  0  0  0  0
   19.0236   -8.7936  -13.7175 O   0  0  0  0  0  0  0  0  0  0  0  0
   13.9720  -10.9381  -16.0698 O   0  0  0  0  0  0  0  0  0  0  0  0
   21.4248   -4.2052  -13.8604 N   0  0  0  0  0  0  0  0  0  0  0  0
   22.3178   -5.1802  -14.3902 C   0  0  0  0  0  0  0  0  0  0  0  0
   23.5564   -4.9391  -14.3001 O   0  0  0  0  0  0  0  0  0  0  0  0
   21.8029   -6.4173  -15.0198 C   0  0  0  0  0  0  0  0  0  0  0  0
   20.2695   -6.4741  -15.0396 C   0  0  2  0  0  0  0  0  0  0  0  0
   19.6982   -7.6445  -15.5903 N   0  0  0  0  0  0  0  0  0  0  0  0
   19.7435   -5.2079  -15.5523 C   0  0  0  0  0  0  0  0  0  0  0  0
   19.8569   -4.8538  -16.7471 O   0  0  0  0  0  0  0  0  0  0  0  0
   19.0479   -4.2716  -14.7096 N   0  0  0  0  0  0  0  0  0  0  0  0
   18.2321   -3.1733  -15.2630 C   0  0  1  0  0  0  0  0  0  0  0  0
   16.9415   -3.0947  -14.5450 C   0  0  0  0  0  0  0  0  0  0  0  0
   16.0334   -2.0097  -14.9976 C   0  0  0  0  0  0  0  0  0  0  0  0
   14.7469   -1.9293  -14.2579 C   0  0  0  0  0  0  0  0  0  0  0  0
   14.7265   -1.1873  -13.2264 O   0  0  0  0  0  0  0  0  0  0  0  0
   19.0531   -1.9980  -15.3934 C   0  0  0  0  0  0  0  0  0  0  0  0
   20.0218   -1.7977  -14.5818 O   0  0  0  0  0  0  0  0  0  0  0  0
   13.5941   -2.5868  -14.6005 O   0  0  0  0  0  0  0  0  0  0  0  0
   18.9247   -0.9845  -16.3645 O   0  0  0  0  0  0  0  0  0  0  0  0
  2  1  1  1
  2  3  1  0
  3  4  1  0
  5  4  1  0
  5  9  1  0
  6  5  2  0
  7  2  1  0
  7  8  2  0
 10 11  1  0
 11 13  1  0
 12 11  2  0
 14 13  1  6
 14 15  1  0
 15  7  1  0
 16 14  1  0
 17 16  2  0
 18 16  1  0
 19 18  1  0
 19 24  1  0
 19 20  1  1
 21 22  1  0
 21 20  1  0
 22 23  2  0
 24 27  1  0
 25 24  2  0
 26 22  1  0
M  END
$$$$
