ENE.pdb
     RDKit          3D

 27 26  0  0  1  0  0  0  0  0999 V2000
   28.0039  -22.0956  -16.1957 N   0  0  0  0  0  0  0  0  0  0  0  0
   27.8663  -21.0418  -15.2386 C   0  0  1  0  0  0  0  0  0  0  0  0
   27.9357  -19.6957  -15.9081 C   0  0  0  0  0  0  0  0  0  0  0  0
   26.9446  -19.4583  -16.9880 C   0  0  0  0  0  0  0  0  0  0  0  0
   27.0751  -18.0894  -17.5269 C   0  0  0  0  0  0  0  0  0  0  0  0
   27.9388  -17.2810  -17.1180 O   0  0  0  0  0  0  0  0  0  0  0  0
   26.4690  -21.1564  -14.6240 C   0  0  0  0  0  0  0  0  0  0  0  0
   25.5779  -21.7603  -15.2263 O   0  0  0  0  0  0  0  0  0  0  0  0
   26.1924  -17.7040  -18.5304 O   0  0  0  0  0  0  0  0  0  0  0  0
   26.3934  -22.4544  -10.9800 N   0  0  0  0  0  0  0  0  0  0  0  0
   25.9942  -21.2407  -10.3505 C   0  0  0  0  0  0  0  0  0  0  0  0
   26.3065  -21.0907   -9.1337 O   0  0  0  0  0  0  0  0  0  0  0  0
   25.2431  -20.2088  -11.1009 C   0  0  0  0  0  0  0  0  0  0  0  0
   25.0574  -20.5741  -12.5796 C   0  0  2  0  0  0  0  0  0  0  0  0
   26.2274  -20.5651  -13.3736 N   0  0  0  0  0  0  0  0  0  0  0  0
   23.9152  -19.8364  -13.1220 C   0  0  0  0  0  0  0  0  0  0  0  0
   24.0335  -18.7726  -13.7701 O   0  0  0  0  0  0  0  0  0  0  0  0
   22.5605  -20.2895  -12.9493 N   0  0  0  0  0  0  0  0  0  0  0  0
   21.5034  -19.9982  -13.9370 C   0  0  1  0  0  0  0  0  0  0  0  0
   21.9984  -20.2819  -15.3015 C   0  0  0  0  0  0  0  0  0  0  0  0
   21.0026  -20.0878  -16.3865 C   0  0  0  0  0  0  0  0  0  0  0  0
   21.4792  -20.4707  -17.7411 C   0  0  0  0  0  0  0  0  0  0  0  0
   21.5738  -19.5373  -18.5983 O   0  0  0  0  0  0  0  0  0  0  0  0
   20.2664  -20.5812  -13.4871 C   0  0  0  0  0  0  0  0  0  0  0  0
   20.2683  -21.7176  -12.8993 O   0  0  0  0  0  0  0  0  0  0  0  0
   21.8212  -21.7395  -18.1309 O   0  0  0  0  0  0  0  0  0  0  0  0
   18.9783  -20.0225  -13.6101 O   0  0  0  0  0  0  0  0  0  0  0  0
  2  1  1  6
  2  3  1  0
  3  4  1  0
  5  4  1  0
  5  9  1  0
  6  5  2  0
  7  2  1  0
  7  8  2  0
 10 11  1  0
 11 13  1  0
 12 11  2  0
 14 13  1  1
 14 15  1  0
 15  7  1  0
 16 14  1  0
 17 16  2  0
 18 16  1  0
 19 18  1  0
 19 24  1  0
 19 20  1  6
 21 22  1  0
 21 20  1  0
 22 23  2  0
 24 27  1  0
 25 24  2  0
 26 22  1  0
M  END
$$$$
