ENE.pdb
     RDKit          3D

 27 26  0  0  1  0  0  0  0  0999 V2000
   22.8338  -17.2845  -17.4984 N   0  0  0  0  0  0  0  0  0  0  0  0
   22.8036  -18.5323  -16.8001 C   0  0  1  0  0  0  0  0  0  0  0  0
   24.0849  -18.7554  -16.0428 C   0  0  0  0  0  0  0  0  0  0  0  0
   25.3364  -18.5685  -16.8197 C   0  0  0  0  0  0  0  0  0  0  0  0
   25.3525  -19.4481  -18.0061 C   0  0  0  0  0  0  0  0  0  0  0  0
   25.0762  -20.6675  -17.9479 O   0  0  0  0  0  0  0  0  0  0  0  0
   21.6849  -18.4508  -15.7582 C   0  0  0  0  0  0  0  0  0  0  0  0
   21.5150  -19.3774  -14.9620 O   0  0  0  0  0  0  0  0  0  0  0  0
   25.6905  -18.8769  -19.2285 O   0  0  0  0  0  0  0  0  0  0  0  0
   17.9963  -16.5553  -12.8119 N   0  0  0  0  0  0  0  0  0  0  0  0
   18.4715  -15.4240  -13.5351 C   0  0  0  0  0  0  0  0  0  0  0  0
   18.0952  -14.2837  -13.1368 O   0  0  0  0  0  0  0  0  0  0  0  0
   19.3649  -15.5917  -14.7037 C   0  0  0  0  0  0  0  0  0  0  0  0
   19.6833  -17.0642  -14.9952 C   0  0  2  0  0  0  0  0  0  0  0  0
   20.8662  -17.3105  -15.7299 N   0  0  0  0  0  0  0  0  0  0  0  0
   18.4780  -17.7331  -15.4879 C   0  0  0  0  0  0  0  0  0  0  0  0
   18.3565  -18.1455  -16.6630 O   0  0  0  0  0  0  0  0  0  0  0  0
   17.3359  -17.9694  -14.6451 N   0  0  0  0  0  0  0  0  0  0  0  0
   16.5313  -19.2028  -14.7411 C   0  0  1  0  0  0  0  0  0  0  0  0
   17.4212  -20.3841  -14.7488 C   0  0  0  0  0  0  0  0  0  0  0  0
   16.7299  -21.6933  -14.8710 C   0  0  0  0  0  0  0  0  0  0  0  0
   17.6362  -22.8699  -14.9265 C   0  0  0  0  0  0  0  0  0  0  0  0
   18.2977  -23.0311  -15.9995 O   0  0  0  0  0  0  0  0  0  0  0  0
   15.4448  -19.1294  -13.7996 C   0  0  0  0  0  0  0  0  0  0  0  0
   14.2537  -19.4148  -14.1697 O   0  0  0  0  0  0  0  0  0  0  0  0
   17.8109  -23.7830  -13.9194 O   0  0  0  0  0  0  0  0  0  0  0  0
   15.5321  -18.7716  -12.4391 O   0  0  0  0  0  0  0  0  0  0  0  0
  2  1  1  1
  2  3  1  0
  3  4  1  0
  5  4  1  0
  5  9  1  0
  6  5  2  0
  7  2  1  0
  7  8  2  0
 10 11  1  0
 11 13  1  0
 12 11  2  0
 14 13  1  6
 14 15  1  0
 15  7  1  0
 16 14  1  0
 17 16  2  0
 18 16  1  0
 19 18  1  0
 19 24  1  0
 19 20  1  1
 21 22  1  0
 21 20  1  0
 22 23  2  0
 24 27  1  0
 25 24  2  0
 26 22  1  0
M  END
$$$$
