ENE.pdb
     RDKit          3D

 27 26  0  0  1  0  0  0  0  0999 V2000
   27.7734  -22.2269  -16.3848 N   0  0  0  0  0  0  0  0  0  0  0  0
   27.5621  -21.1454  -15.4731 C   0  0  1  0  0  0  0  0  0  0  0  0
   27.4272  -19.8401  -16.2100 C   0  0  0  0  0  0  0  0  0  0  0  0
   26.4073  -19.8085  -17.2887 C   0  0  0  0  0  0  0  0  0  0  0  0
   26.4237  -18.5071  -17.9869 C   0  0  0  0  0  0  0  0  0  0  0  0
   27.3255  -18.1828  -18.7921 O   0  0  0  0  0  0  0  0  0  0  0  0
   26.2268  -21.3921  -14.7663 C   0  0  0  0  0  0  0  0  0  0  0  0
   25.3308  -22.0155  -15.3408 O   0  0  0  0  0  0  0  0  0  0  0  0
   25.3841  -17.6210  -17.7248 O   0  0  0  0  0  0  0  0  0  0  0  0
   27.5479  -20.8589  -10.1983 N   0  0  0  0  0  0  0  0  0  0  0  0
   26.3646  -21.5274  -10.6246 C   0  0  0  0  0  0  0  0  0  0  0  0
   26.3621  -22.7912  -10.5669 O   0  0  0  0  0  0  0  0  0  0  0  0
   25.1962  -20.7618  -11.1152 C   0  0  0  0  0  0  0  0  0  0  0  0
   24.9257  -20.9919  -12.6080 C   0  0  2  0  0  0  0  0  0  0  0  0
   26.0471  -20.8982  -13.4643 N   0  0  0  0  0  0  0  0  0  0  0  0
   23.7501  -20.2194  -13.0130 C   0  0  0  0  0  0  0  0  0  0  0  0
   23.8153  -19.0387  -13.4221 O   0  0  0  0  0  0  0  0  0  0  0  0
   22.4216  -20.7707  -12.9720 N   0  0  0  0  0  0  0  0  0  0  0  0
   21.3226  -20.2320  -13.7965 C   0  0  1  0  0  0  0  0  0  0  0  0
   21.7664  -20.0991  -15.2011 C   0  0  0  0  0  0  0  0  0  0  0  0
   20.7485  -19.5525  -16.1348 C   0  0  0  0  0  0  0  0  0  0  0  0
   21.1826  -19.4850  -17.5546 C   0  0  0  0  0  0  0  0  0  0  0  0
   20.3200  -19.0839  -18.3971 O   0  0  0  0  0  0  0  0  0  0  0  0
   20.1118  -20.9488  -13.4917 C   0  0  0  0  0  0  0  0  0  0  0  0
   18.9733  -20.4280  -13.7557 O   0  0  0  0  0  0  0  0  0  0  0  0
   22.4287  -19.8181  -18.0183 O   0  0  0  0  0  0  0  0  0  0  0  0
   20.0148  -22.2309  -12.9143 O   0  0  0  0  0  0  0  0  0  0  0  0
  2  1  1  6
  2  3  1  0
  3  4  1  0
  5  4  1  0
  5  9  1  0
  6  5  2  0
  7  2  1  0
  7  8  2  0
 10 11  1  0
 11 13  1  0
 12 11  2  0
 14 13  1  1
 14 15  1  0
 15  7  1  0
 16 14  1  0
 17 16  2  0
 18 16  1  0
 19 18  1  0
 19 24  1  0
 19 20  1  6
 21 22  1  0
 21 20  1  0
 22 23  2  0
 24 27  1  0
 25 24  2  0
 26 22  1  0
M  END
$$$$
