ENE.pdb
     RDKit          3D

 27 26  0  0  1  0  0  0  0  0999 V2000
   16.5982  -13.1874  -12.4868 N   0  0  0  0  0  0  0  0  0  0  0  0
   16.0845  -12.0448  -13.1768 C   0  0  1  0  0  0  0  0  0  0  0  0
   15.3102  -12.4586  -14.3992 C   0  0  0  0  0  0  0  0  0  0  0  0
   14.9557  -13.8980  -14.4839 C   0  0  0  0  0  0  0  0  0  0  0  0
   13.6740  -14.0808  -15.1948 C   0  0  0  0  0  0  0  0  0  0  0  0
   12.5977  -14.3137  -14.5997 O   0  0  0  0  0  0  0  0  0  0  0  0
   15.0921  -11.3489  -12.2417 C   0  0  0  0  0  0  0  0  0  0  0  0
   13.9858  -11.8523  -12.0316 O   0  0  0  0  0  0  0  0  0  0  0  0
   13.6863  -13.9849  -16.5823 O   0  0  0  0  0  0  0  0  0  0  0  0
   13.2749   -7.7388   -8.9412 N   0  0  0  0  0  0  0  0  0  0  0  0
   13.4046   -9.1207   -8.6212 C   0  0  0  0  0  0  0  0  0  0  0  0
   12.8100   -9.5318   -7.5830 O   0  0  0  0  0  0  0  0  0  0  0  0
   14.2078  -10.0246   -9.4755 C   0  0  0  0  0  0  0  0  0  0  0  0
   14.7510   -9.3234  -10.7277 C   0  0  2  0  0  0  0  0  0  0  0  0
   15.4655  -10.1387  -11.6356 N   0  0  0  0  0  0  0  0  0  0  0  0
   15.4110   -8.0763  -10.3378 C   0  0  0  0  0  0  0  0  0  0  0  0
   16.4688   -8.0420   -9.6704 O   0  0  0  0  0  0  0  0  0  0  0  0
   14.8856   -6.7871  -10.7016 N   0  0  0  0  0  0  0  0  0  0  0  0
   15.6764   -5.5491  -10.5607 C   0  0  1  0  0  0  0  0  0  0  0  0
   15.8890   -4.9344  -11.8890 C   0  0  0  0  0  0  0  0  0  0  0  0
   16.6673   -3.6691  -11.8809 C   0  0  0  0  0  0  0  0  0  0  0  0
   16.8317   -3.0340  -13.2144 C   0  0  0  0  0  0  0  0  0  0  0  0
   16.3395   -3.6556  -14.2076 O   0  0  0  0  0  0  0  0  0  0  0  0
   15.1303   -4.7626   -9.4856 C   0  0  0  0  0  0  0  0  0  0  0  0
   13.9523   -5.0030   -9.0480 O   0  0  0  0  0  0  0  0  0  0  0  0
   17.4659   -1.8422  -13.4512 O   0  0  0  0  0  0  0  0  0  0  0  0
   15.7692   -3.7055   -8.8067 O   0  0  0  0  0  0  0  0  0  0  0  0
  2  1  1  1
  2  3  1  0
  3  4  1  0
  5  4  1  0
  5  9  1  0
  6  5  2  0
  7  2  1  0
  7  8  2  0
 10 11  1  0
 11 13  1  0
 12 11  2  0
 14 13  1  1
 14 15  1  0
 15  7  1  0
 16 14  1  0
 17 16  2  0
 18 16  1  0
 19 18  1  0
 19 24  1  0
 19 20  1  6
 21 22  1  0
 21 20  1  0
 22 23  2  0
 24 27  1  0
 25 24  2  0
 26 22  1  0
M  END
$$$$
