ENE.pdb
     RDKit          3D

 27 26  0  0  1  0  0  0  0  0999 V2000
   19.4323  -11.2014  -14.6436 N   0  0  0  0  0  0  0  0  0  0  0  0
   18.9313  -11.0830  -15.9780 C   0  0  1  0  0  0  0  0  0  0  0  0
   18.1808  -12.3233  -16.3821 C   0  0  0  0  0  0  0  0  0  0  0  0
   18.0512  -13.3703  -15.3372 C   0  0  0  0  0  0  0  0  0  0  0  0
   17.3057  -14.5361  -15.8536 C   0  0  0  0  0  0  0  0  0  0  0  0
   17.7916  -15.3352  -16.6854 O   0  0  0  0  0  0  0  0  0  0  0  0
   17.9208   -9.9331  -15.9910 C   0  0  0  0  0  0  0  0  0  0  0  0
   17.3740   -9.6046  -17.0467 O   0  0  0  0  0  0  0  0  0  0  0  0
   16.0125  -14.7356  -15.3819 O   0  0  0  0  0  0  0  0  0  0  0  0
   13.3244   -8.7326  -15.0123 N   0  0  0  0  0  0  0  0  0  0  0  0
   14.5188   -9.3222  -14.5078 C   0  0  0  0  0  0  0  0  0  0  0  0
   14.7035  -10.5504  -14.7486 O   0  0  0  0  0  0  0  0  0  0  0  0
   15.4921   -8.5192  -13.7332 C   0  0  0  0  0  0  0  0  0  0  0  0
   16.7560   -8.1886  -14.5381 C   0  0  2  0  0  0  0  0  0  0  0  0
   17.6339   -9.2686  -14.7879 N   0  0  0  0  0  0  0  0  0  0  0  0
   17.3751   -6.9787  -13.9941 C   0  0  0  0  0  0  0  0  0  0  0  0
   17.7869   -6.8916  -12.8158 O   0  0  0  0  0  0  0  0  0  0  0  0
   17.5592   -5.7916  -14.7862 N   0  0  0  0  0  0  0  0  0  0  0  0
   18.3334   -4.6342  -14.2975 C   0  0  1  0  0  0  0  0  0  0  0  0
   19.6728   -5.0768  -13.8529 C   0  0  0  0  0  0  0  0  0  0  0  0
   20.6303   -5.3838  -14.9463 C   0  0  0  0  0  0  0  0  0  0  0  0
   22.0023   -5.7280  -14.4902 C   0  0  0  0  0  0  0  0  0  0  0  0
   22.2579   -5.5437  -13.2591 O   0  0  0  0  0  0  0  0  0  0  0  0
   18.2117   -3.5548  -15.2422 C   0  0  0  0  0  0  0  0  0  0  0  0
   17.5013   -3.7008  -16.2963 O   0  0  0  0  0  0  0  0  0  0  0  0
   23.0007   -6.2242  -15.2875 O   0  0  0  0  0  0  0  0  0  0  0  0
   18.8022   -2.2788  -15.1438 O   0  0  0  0  0  0  0  0  0  0  0  0
  2  1  1  1
  2  3  1  0
  3  4  1  0
  5  4  1  0
  5  9  1  0
  6  5  2  0
  7  2  1  0
  7  8  2  0
 10 11  1  0
 11 13  1  0
 12 11  2  0
 14 13  1  1
 14 15  1  0
 15  7  1  0
 16 14  1  0
 17 16  2  0
 18 16  1  0
 19 18  1  0
 19 24  1  0
 19 20  1  6
 21 22  1  0
 21 20  1  0
 22 23  2  0
 24 27  1  0
 25 24  2  0
 26 22  1  0
M  END
$$$$
