ENE.pdb
     RDKit          3D

 27 26  0  0  1  0  0  0  0  0999 V2000
   17.7837  -23.1931  -10.4793 N   0  0  0  0  0  0  0  0  0  0  0  0
   18.7130  -23.4932  -11.5241 C   0  0  1  0  0  0  0  0  0  0  0  0
   18.0557  -24.2977  -12.6131 C   0  0  0  0  0  0  0  0  0  0  0  0
   16.7828  -23.7482  -13.1448 C   0  0  0  0  0  0  0  0  0  0  0  0
   16.2094  -24.6488  -14.1654 C   0  0  0  0  0  0  0  0  0  0  0  0
   15.1730  -24.3688  -14.8090 O   0  0  0  0  0  0  0  0  0  0  0  0
   19.1422  -22.1662  -12.1551 C   0  0  0  0  0  0  0  0  0  0  0  0
   18.3672  -21.2066  -12.1604 O   0  0  0  0  0  0  0  0  0  0  0  0
   16.8648  -25.8518  -14.4059 O   0  0  0  0  0  0  0  0  0  0  0  0
   22.2985  -18.7255  -14.4778 N   0  0  0  0  0  0  0  0  0  0  0  0
   23.1343  -19.8232  -14.1237 C   0  0  0  0  0  0  0  0  0  0  0  0
   24.3772  -19.6894  -14.3181 O   0  0  0  0  0  0  0  0  0  0  0  0
   22.5577  -21.0631  -13.5563 C   0  0  0  0  0  0  0  0  0  0  0  0
   21.0339  -20.9834  -13.3936 C   0  0  2  0  0  0  0  0  0  0  0  0
   20.4233  -22.0672  -12.7211 N   0  0  0  0  0  0  0  0  0  0  0  0
   20.4284  -20.6058  -14.6717 C   0  0  0  0  0  0  0  0  0  0  0  0
   20.3050  -21.3995  -15.6311 O   0  0  0  0  0  0  0  0  0  0  0  0
   19.9233  -19.2809  -14.9167 N   0  0  0  0  0  0  0  0  0  0  0  0
   19.0340  -18.9779  -16.0548 C   0  0  1  0  0  0  0  0  0  0  0  0
   17.8841  -18.1704  -15.5931 C   0  0  0  0  0  0  0  0  0  0  0  0
   17.7974  -16.8065  -16.1751 C   0  0  0  0  0  0  0  0  0  0  0  0
   16.8692  -15.8878  -15.4657 C   0  0  0  0  0  0  0  0  0  0  0  0
   17.2681  -14.6935  -15.2939 O   0  0  0  0  0  0  0  0  0  0  0  0
   19.8299  -18.5235  -17.1650 C   0  0  0  0  0  0  0  0  0  0  0  0
   21.0815  -18.3064  -17.0118 O   0  0  0  0  0  0  0  0  0  0  0  0
   15.6297  -16.2271  -14.9890 O   0  0  0  0  0  0  0  0  0  0  0  0
   19.3819  -18.2821  -18.4794 O   0  0  0  0  0  0  0  0  0  0  0  0
  2  1  1  1
  2  3  1  0
  3  4  1  0
  5  4  1  0
  5  9  1  0
  6  5  2  0
  7  2  1  0
  7  8  2  0
 10 11  1  0
 11 13  1  0
 12 11  2  0
 14 13  1  6
 14 15  1  0
 15  7  1  0
 16 14  1  0
 17 16  2  0
 18 16  1  0
 19 18  1  0
 19 24  1  0
 19 20  1  1
 21 22  1  0
 21 20  1  0
 22 23  2  0
 24 27  1  0
 25 24  2  0
 26 22  1  0
M  END
$$$$
