ENE.pdb
     RDKit          3D

 27 26  0  0  1  0  0  0  0  0999 V2000
   27.7245  -23.4651  -16.6922 N   0  0  0  0  0  0  0  0  0  0  0  0
   27.3094  -22.1606  -16.2780 C   0  0  1  0  0  0  0  0  0  0  0  0
   26.6462  -21.4232  -17.4100 C   0  0  0  0  0  0  0  0  0  0  0  0
   27.5529  -20.9156  -18.4707 C   0  0  0  0  0  0  0  0  0  0  0  0
   28.4945  -19.9189  -17.9218 C   0  0  0  0  0  0  0  0  0  0  0  0
   28.1153  -18.8493  -17.3936 O   0  0  0  0  0  0  0  0  0  0  0  0
   26.2497  -22.3383  -15.1876 C   0  0  0  0  0  0  0  0  0  0  0  0
   25.5600  -23.3605  -15.1586 O   0  0  0  0  0  0  0  0  0  0  0  0
   29.8539  -20.2011  -18.0049 O   0  0  0  0  0  0  0  0  0  0  0  0
   23.7940  -21.5543  -10.7218 N   0  0  0  0  0  0  0  0  0  0  0  0
   24.8100  -20.5566  -10.7563 C   0  0  0  0  0  0  0  0  0  0  0  0
   24.9759  -19.8643   -9.7105 O   0  0  0  0  0  0  0  0  0  0  0  0
   25.6271  -20.3483  -11.9732 C   0  0  0  0  0  0  0  0  0  0  0  0
   25.1922  -21.2499  -13.1363 C   0  0  2  0  0  0  0  0  0  0  0  0
   26.0826  -21.3230  -14.2323 N   0  0  0  0  0  0  0  0  0  0  0  0
   23.7945  -20.9710  -13.4701 C   0  0  0  0  0  0  0  0  0  0  0  0
   23.4512  -20.1219  -14.3226 O   0  0  0  0  0  0  0  0  0  0  0  0
   22.7041  -21.6641  -12.8366 N   0  0  0  0  0  0  0  0  0  0  0  0
   21.3030  -21.4766  -13.2604 C   0  0  1  0  0  0  0  0  0  0  0  0
   20.9785  -20.0342  -13.2999 C   0  0  0  0  0  0  0  0  0  0  0  0
   20.1547  -19.5420  -12.1660 C   0  0  0  0  0  0  0  0  0  0  0  0
   19.3226  -18.3502  -12.4758 C   0  0  0  0  0  0  0  0  0  0  0  0
   18.7700  -18.3213  -13.6198 O   0  0  0  0  0  0  0  0  0  0  0  0
   21.0461  -22.3014  -14.4121 C   0  0  0  0  0  0  0  0  0  0  0  0
   20.4299  -23.4149  -14.2802 O   0  0  0  0  0  0  0  0  0  0  0  0
   19.1082  -17.2928  -11.6305 O   0  0  0  0  0  0  0  0  0  0  0  0
   21.3991  -22.0175  -15.7468 O   0  0  0  0  0  0  0  0  0  0  0  0
  2  1  1  6
  2  3  1  0
  3  4  1  0
  5  4  1  0
  5  9  1  0
  6  5  2  0
  7  2  1  0
  7  8  2  0
 10 11  1  0
 11 13  1  0
 12 11  2  0
 14 13  1  1
 14 15  1  0
 15  7  1  0
 16 14  1  0
 17 16  2  0
 18 16  1  0
 19 18  1  0
 19 24  1  0
 19 20  1  6
 21 22  1  0
 21 20  1  0
 22 23  2  0
 24 27  1  0
 25 24  2  0
 26 22  1  0
M  END
$$$$
