ENE.pdb
     RDKit          3D

 27 26  0  0  1  0  0  0  0  0999 V2000
   26.6296  -19.6266  -14.7580 N   0  0  0  0  0  0  0  0  0  0  0  0
   25.9135  -20.6626  -15.4357 C   0  0  1  0  0  0  0  0  0  0  0  0
   26.8431  -21.7652  -15.8660 C   0  0  0  0  0  0  0  0  0  0  0  0
   28.1812  -21.3338  -16.3435 C   0  0  0  0  0  0  0  0  0  0  0  0
   28.9751  -22.4944  -16.7956 C   0  0  0  0  0  0  0  0  0  0  0  0
   29.4823  -23.3178  -16.0009 O   0  0  0  0  0  0  0  0  0  0  0  0
   24.9343  -21.2785  -14.4331 C   0  0  0  0  0  0  0  0  0  0  0  0
   24.3889  -22.3556  -14.6857 O   0  0  0  0  0  0  0  0  0  0  0  0
   29.1530  -22.6605  -18.1650 O   0  0  0  0  0  0  0  0  0  0  0  0
   26.1623  -22.0775  -11.3279 N   0  0  0  0  0  0  0  0  0  0  0  0
   25.5156  -21.1866  -10.4241 C   0  0  0  0  0  0  0  0  0  0  0  0
   26.0939  -20.9611   -9.3217 O   0  0  0  0  0  0  0  0  0  0  0  0
   24.2197  -20.5613  -10.7729 C   0  0  0  0  0  0  0  0  0  0  0  0
   23.7633  -20.9065  -12.1967 C   0  0  2  0  0  0  0  0  0  0  0  0
   24.6740  -20.5973  -13.2332 N   0  0  0  0  0  0  0  0  0  0  0  0
   22.3914  -20.4355  -12.3942 C   0  0  0  0  0  0  0  0  0  0  0  0
   22.1139  -19.2720  -12.7614 O   0  0  0  0  0  0  0  0  0  0  0  0
   21.2521  -21.2882  -12.1808 N   0  0  0  0  0  0  0  0  0  0  0  0
   19.9413  -21.0166  -12.8020 C   0  0  1  0  0  0  0  0  0  0  0  0
   20.1139  -20.7602  -14.2483 C   0  0  0  0  0  0  0  0  0  0  0  0
   18.8573  -20.5013  -14.9971 C   0  0  0  0  0  0  0  0  0  0  0  0
   18.6528  -19.0836  -15.3932 C   0  0  0  0  0  0  0  0  0  0  0  0
   19.2364  -18.6971  -16.4538 O   0  0  0  0  0  0  0  0  0  0  0  0
   18.9963  -22.0073  -12.3570 C   0  0  0  0  0  0  0  0  0  0  0  0
   17.7837  -21.6765  -12.1174 O   0  0  0  0  0  0  0  0  0  0  0  0
   17.8905  -18.1724  -14.7095 O   0  0  0  0  0  0  0  0  0  0  0  0
   19.2487  -23.3782  -12.1485 O   0  0  0  0  0  0  0  0  0  0  0  0
  2  1  1  1
  2  3  1  0
  3  4  1  0
  5  4  1  0
  5  9  1  0
  6  5  2  0
  7  2  1  0
  7  8  2  0
 10 11  1  0
 11 13  1  0
 12 11  2  0
 14 13  1  1
 14 15  1  0
 15  7  1  0
 16 14  1  0
 17 16  2  0
 18 16  1  0
 19 18  1  0
 19 24  1  0
 19 20  1  6
 21 22  1  0
 21 20  1  0
 22 23  2  0
 24 27  1  0
 25 24  2  0
 26 22  1  0
M  END
$$$$
