WDQ.pdb
     RDKit          3D

 32 33  0  0  1  0  0  0  0  0999 V2000
    6.8967  -18.3006   25.1528 N   0  0  0  0  0  0  0  0  0  0  0  0
    7.0866  -17.3818   24.0547 C   0  0  1  0  0  0  0  0  0  0  0  0
    7.9951  -16.2596   24.5016 C   0  0  0  0  0  0  0  0  0  0  0  0
    7.3586  -15.3024   25.4122 C   0  0  0  0  0  0  0  0  0  0  0  0
    6.5812  -15.6194   26.5051 C   0  0  0  0  0  0  0  0  0  0  0  0
    6.1753  -14.4645   27.1040 N   0  0  0  0  0  0  0  0  0  0  0  0
    6.6623  -13.4336   26.4370 C   0  0  0  0  0  0  0  0  0  0  0  0
    6.5613  -12.0656   26.6033 C   0  0  0  0  0  0  0  0  0  0  0  0
    7.1959  -11.2242   25.7181 C   0  0  0  0  0  0  0  0  0  0  0  0
    7.9516  -11.6962   24.6405 C   0  0  0  0  0  0  0  0  0  0  0  0
    8.0405  -13.0643   24.4913 C   0  0  0  0  0  0  0  0  0  0  0  0
    7.4059  -13.9243   25.3751 C   0  0  0  0  0  0  0  0  0  0  0  0
    7.7841  -18.0789   22.9372 C   0  0  0  0  0  0  0  0  0  0  0  0
    8.6930  -18.9086   23.1746 O   0  0  0  0  0  0  0  0  0  0  0  0
    7.4748  -17.8525   21.5552 N   0  0  0  0  0  0  0  0  0  0  0  0
    8.1692  -18.4474   20.4697 C   0  0  1  0  0  0  0  0  0  0  0  0
    7.3969  -18.7613   19.2425 C   0  0  0  0  0  0  0  0  0  0  0  0
    6.2928  -19.7414   19.4456 C   0  0  0  0  0  0  0  0  0  0  0  0
    6.2598  -20.4662   20.4438 O   0  0  0  0  0  0  0  0  0  0  0  0
    9.3704  -17.6339   20.0635 C   0  0  0  0  0  0  0  0  0  0  0  0
   10.1413  -17.9859   19.1573 O   0  0  0  0  0  0  0  0  0  0  0  0
    5.2468  -19.8622   18.4934 O   0  0  0  0  0  0  0  0  0  0  0  0
    7.5554  -12.1147   18.9233 N   0  0  0  0  0  0  0  0  0  0  0  0
    8.0296  -13.4447   19.1672 C   0  0  0  0  0  0  0  0  0  0  0  0
    7.2066  -14.3627   19.4153 O   0  0  0  0  0  0  0  0  0  0  0  0
    9.4522  -13.7703   19.1286 C   0  0  0  0  0  0  0  0  0  0  0  0
   10.1092  -14.1660   20.3849 C   0  0  0  0  0  0  0  0  0  0  0  0
   10.7251  -15.5245   20.4517 C   0  0  2  0  0  0  0  0  0  0  0  0
    9.5960  -16.4279   20.7638 N   0  0  0  0  0  0  0  0  0  0  0  0
   11.7068  -15.6652   21.5146 C   0  0  0  0  0  0  0  0  0  0  0  0
   12.9561  -15.0486   21.3797 O   0  0  0  0  0  0  0  0  0  0  0  0
   11.5276  -16.3096   22.5694 O   0  0  0  0  0  0  0  0  0  0  0  0
  2  1  1  1
  3  4  1  0
  3  2  1  0
  4 12  1  0
  4  5  2  0
  5  6  1  0
  7  8  2  0
  7  6  1  0
  9  8  1  0
 10  9  2  0
 11 10  1  0
 11 12  2  0
 12  7  1  0
 13  2  1  0
 14 13  2  0
 15 13  1  0
 16 15  1  0
 16 17  1  6
 18 19  2  0
 18 17  1  0
 20 16  1  0
 21 20  2  0
 22 18  1  0
 23 24  1  0
 24 26  1  0
 25 24  2  0
 27 26  1  0
 28 27  1  1
 28 29  1  0
 29 20  1  0
 30 28  1  0
 30 31  1  0
 32 30  2  0
M  END
$$$$
