WDQ.pdb
     RDKit          3D

 32 33  0  0  1  0  0  0  0  0999 V2000
    7.1854  -17.5165   23.5326 N   0  0  0  0  0  0  0  0  0  0  0  0
    8.1035  -16.4023   23.4889 C   0  0  1  0  0  0  0  0  0  0  0  0
    8.3523  -15.9123   24.8970 C   0  0  0  0  0  0  0  0  0  0  0  0
    7.2207  -15.1897   25.4867 C   0  0  0  0  0  0  0  0  0  0  0  0
    6.1439  -15.7597   26.1311 C   0  0  0  0  0  0  0  0  0  0  0  0
    5.3058  -14.7680   26.5450 N   0  0  0  0  0  0  0  0  0  0  0  0
    5.8065  -13.5983   26.1902 C   0  0  0  0  0  0  0  0  0  0  0  0
    5.3744  -12.2958   26.3515 C   0  0  0  0  0  0  0  0  0  0  0  0
    6.1339  -11.2609   25.8547 C   0  0  0  0  0  0  0  0  0  0  0  0
    7.3429  -11.4688   25.1838 C   0  0  0  0  0  0  0  0  0  0  0  0
    7.7572  -12.7755   25.0330 C   0  0  0  0  0  0  0  0  0  0  0  0
    7.0020  -13.8283   25.5277 C   0  0  0  0  0  0  0  0  0  0  0  0
    9.4177  -16.8607   22.9560 C   0  0  0  0  0  0  0  0  0  0  0  0
    9.7330  -18.0730   22.9994 O   0  0  0  0  0  0  0  0  0  0  0  0
   10.3838  -15.9725   22.3776 N   0  0  0  0  0  0  0  0  0  0  0  0
   11.6763  -16.3660   21.9429 C   0  0  1  0  0  0  0  0  0  0  0  0
   12.3549  -15.5180   20.9323 C   0  0  0  0  0  0  0  0  0  0  0  0
   13.6541  -16.0628   20.4460 C   0  0  0  0  0  0  0  0  0  0  0  0
   13.8906  -17.2736   20.4814 O   0  0  0  0  0  0  0  0  0  0  0  0
   12.6220  -16.5496   23.1012 C   0  0  0  0  0  0  0  0  0  0  0  0
   13.8140  -16.8585   22.9491 O   0  0  0  0  0  0  0  0  0  0  0  0
   14.6528  -15.1987   19.9252 O   0  0  0  0  0  0  0  0  0  0  0  0
   11.6624  -15.5059   29.4350 N   0  0  0  0  0  0  0  0  0  0  0  0
   11.0127  -14.8426   28.3436 C   0  0  0  0  0  0  0  0  0  0  0  0
   10.3456  -13.7984   28.5588 O   0  0  0  0  0  0  0  0  0  0  0  0
   11.1093  -15.3432   26.9756 C   0  0  0  0  0  0  0  0  0  0  0  0
   11.9151  -16.5506   26.7323 C   0  0  0  0  0  0  0  0  0  0  0  0
   12.9117  -16.5114   25.6212 C   0  0  2  0  0  0  0  0  0  0  0  0
   12.0957  -16.3532   24.3973 N   0  0  0  0  0  0  0  0  0  0  0  0
   13.6761  -17.7402   25.4834 C   0  0  0  0  0  0  0  0  0  0  0  0
   13.0064  -18.9355   25.1975 O   0  0  0  0  0  0  0  0  0  0  0  0
   14.9165  -17.8251   25.6032 O   0  0  0  0  0  0  0  0  0  0  0  0
  2  1  1  1
  3  4  1  0
  3  2  1  0
  4 12  1  0
  4  5  2  0
  5  6  1  0
  7  8  2  0
  7  6  1  0
  9  8  1  0
 10  9  2  0
 11 10  1  0
 11 12  2  0
 12  7  1  0
 13  2  1  0
 14 13  2  0
 15 13  1  0
 16 15  1  0
 16 17  1  6
 18 19  2  0
 18 17  1  0
 20 16  1  0
 21 20  2  0
 22 18  1  0
 23 24  1  0
 24 26  1  0
 25 24  2  0
 27 26  1  0
 28 27  1  1
 28 29  1  0
 29 20  1  0
 30 28  1  0
 30 31  1  0
 32 30  2  0
M  END
$$$$
