WDQ.pdb
     RDKit          3D

 32 33  0  0  1  0  0  0  0  0999 V2000
    6.4635  -16.4748   22.6340 N   0  0  0  0  0  0  0  0  0  0  0  0
    7.7895  -16.0060   22.9627 C   0  0  1  0  0  0  0  0  0  0  0  0
    7.9696  -16.0468   24.4629 C   0  0  0  0  0  0  0  0  0  0  0  0
    7.1654  -15.0580   25.1882 C   0  0  0  0  0  0  0  0  0  0  0  0
    6.0725  -15.3296   25.9827 C   0  0  0  0  0  0  0  0  0  0  0  0
    5.5968  -14.1573   26.4893 N   0  0  0  0  0  0  0  0  0  0  0  0
    6.3413  -13.1588   26.0494 C   0  0  0  0  0  0  0  0  0  0  0  0
    6.3024  -11.7916   26.2451 C   0  0  0  0  0  0  0  0  0  0  0  0
    7.2381  -10.9898   25.6317 C   0  0  0  0  0  0  0  0  0  0  0  0
    8.2438  -11.5023   24.8066 C   0  0  0  0  0  0  0  0  0  0  0  0
    8.2662  -12.8690   24.6236 C   0  0  0  0  0  0  0  0  0  0  0  0
    7.3294  -13.6891   25.2347 C   0  0  0  0  0  0  0  0  0  0  0  0
    8.8030  -16.9327   22.3838 C   0  0  0  0  0  0  0  0  0  0  0  0
    8.5415  -18.1498   22.2385 O   0  0  0  0  0  0  0  0  0  0  0  0
   10.1089  -16.5088   21.9692 N   0  0  0  0  0  0  0  0  0  0  0  0
   11.3032  -17.2362   22.2119 C   0  0  1  0  0  0  0  0  0  0  0  0
   12.5836  -16.6334   21.7667 C   0  0  0  0  0  0  0  0  0  0  0  0
   12.7905  -16.6515   20.2910 C   0  0  0  0  0  0  0  0  0  0  0  0
   12.7749  -17.7110   19.6582 O   0  0  0  0  0  0  0  0  0  0  0  0
   11.4469  -17.6029   23.6661 C   0  0  0  0  0  0  0  0  0  0  0  0
   10.4730  -17.7201   24.4258 O   0  0  0  0  0  0  0  0  0  0  0  0
   13.0077  -15.4451   19.5748 O   0  0  0  0  0  0  0  0  0  0  0  0
    9.1669  -19.3235   26.7442 N   0  0  0  0  0  0  0  0  0  0  0  0
   10.2444  -19.4693   27.6774 C   0  0  0  0  0  0  0  0  0  0  0  0
   10.0763  -20.1528   28.7196 O   0  0  0  0  0  0  0  0  0  0  0  0
   11.5458  -18.8484   27.4487 C   0  0  0  0  0  0  0  0  0  0  0  0
   11.7178  -18.0171   26.2464 C   0  0  0  0  0  0  0  0  0  0  0  0
   13.0555  -18.0189   25.5831 C   0  0  2  0  0  0  0  0  0  0  0  0
   12.7576  -17.8151   24.1484 N   0  0  0  0  0  0  0  0  0  0  0  0
   13.7643  -19.2819   25.7092 C   0  0  0  0  0  0  0  0  0  0  0  0
   13.7226  -20.1996   24.6532 O   0  0  0  0  0  0  0  0  0  0  0  0
   14.4261  -19.6309   26.7093 O   0  0  0  0  0  0  0  0  0  0  0  0
  2  1  1  1
  3  4  1  0
  3  2  1  0
  4 12  1  0
  4  5  2  0
  5  6  1  0
  7  8  2  0
  7  6  1  0
  9  8  1  0
 10  9  2  0
 11 10  1  0
 11 12  2  0
 12  7  1  0
 13  2  1  0
 14 13  2  0
 15 13  1  0
 16 15  1  0
 16 17  1  1
 18 19  2  0
 18 17  1  0
 20 16  1  0
 21 20  2  0
 22 18  1  0
 23 24  1  0
 24 26  1  0
 25 24  2  0
 27 26  1  0
 28 27  1  1
 28 29  1  0
 29 20  1  0
 30 28  1  0
 30 31  1  0
 32 30  2  0
M  END
$$$$
