WDQ.pdb
     RDKit          3D

 32 33  0  0  1  0  0  0  0  0999 V2000
    6.6521  -17.6249   23.9466 N   0  0  0  0  0  0  0  0  0  0  0  0
    7.6220  -16.6571   23.4897 C   0  0  1  0  0  0  0  0  0  0  0  0
    8.2888  -16.0227   24.6887 C   0  0  0  0  0  0  0  0  0  0  0  0
    7.4133  -15.1321   25.4574 C   0  0  0  0  0  0  0  0  0  0  0  0
    6.4041  -15.5267   26.3090 C   0  0  0  0  0  0  0  0  0  0  0  0
    5.8210  -14.4162   26.8419 N   0  0  0  0  0  0  0  0  0  0  0  0
    6.4179  -13.3391   26.3640 C   0  0  0  0  0  0  0  0  0  0  0  0
    6.2282  -11.9850   26.5632 C   0  0  0  0  0  0  0  0  0  0  0  0
    7.0285  -11.0816   25.9016 C   0  0  0  0  0  0  0  0  0  0  0  0
    8.0423  -11.4759   25.0231 C   0  0  0  0  0  0  0  0  0  0  0  0
    8.2161  -12.8314   24.8374 C   0  0  0  0  0  0  0  0  0  0  0  0
    7.4167  -13.7532   25.4968 C   0  0  0  0  0  0  0  0  0  0  0  0
    8.6935  -17.3510   22.7205 C   0  0  0  0  0  0  0  0  0  0  0  0
    8.8662  -18.5862   22.8442 O   0  0  0  0  0  0  0  0  0  0  0  0
    9.5761  -16.6728   21.8161 N   0  0  0  0  0  0  0  0  0  0  0  0
   10.4599  -17.3249   20.9173 C   0  0  1  0  0  0  0  0  0  0  0  0
   10.7882  -16.6346   19.6458 C   0  0  0  0  0  0  0  0  0  0  0  0
   11.7297  -17.3831   18.7660 C   0  0  0  0  0  0  0  0  0  0  0  0
   11.6279  -18.6039   18.6162 O   0  0  0  0  0  0  0  0  0  0  0  0
   11.7564  -17.7020   21.5856 C   0  0  0  0  0  0  0  0  0  0  0  0
   12.6295  -18.3772   21.0189 O   0  0  0  0  0  0  0  0  0  0  0  0
   12.7679  -16.7062   18.0736 O   0  0  0  0  0  0  0  0  0  0  0  0
   17.7978  -15.4769   23.8499 N   0  0  0  0  0  0  0  0  0  0  0  0
   16.5242  -15.6790   23.2251 C   0  0  0  0  0  0  0  0  0  0  0  0
   16.3664  -15.3624   22.0182 O   0  0  0  0  0  0  0  0  0  0  0  0
   15.3963  -16.2535   23.9523 C   0  0  0  0  0  0  0  0  0  0  0  0
   14.1104  -16.3866   23.2486 C   0  0  0  0  0  0  0  0  0  0  0  0
   13.2021  -17.4978   23.6602 C   0  0  2  0  0  0  0  0  0  0  0  0
   11.9512  -17.2507   22.9100 N   0  0  0  0  0  0  0  0  0  0  0  0
   12.8745  -17.4855   25.0764 C   0  0  0  0  0  0  0  0  0  0  0  0
   11.9226  -16.5761   25.5518 O   0  0  0  0  0  0  0  0  0  0  0  0
   13.3854  -18.2377   25.9327 O   0  0  0  0  0  0  0  0  0  0  0  0
  2  1  1  1
  3  4  1  0
  3  2  1  0
  4 12  1  0
  4  5  2  0
  5  6  1  0
  7  8  2  0
  7  6  1  0
  9  8  1  0
 10  9  2  0
 11 10  1  0
 11 12  2  0
 12  7  1  0
 13  2  1  0
 14 13  2  0
 15 13  1  0
 16 15  1  0
 16 17  1  6
 18 19  2  0
 18 17  1  0
 20 16  1  0
 21 20  2  0
 22 18  1  0
 23 24  1  0
 24 26  1  0
 25 24  2  0
 27 26  1  0
 28 27  1  1
 28 29  1  0
 29 20  1  0
 30 28  1  0
 30 31  1  0
 32 30  2  0
M  END
$$$$
