WDQ.pdb
     RDKit          3D

 32 33  0  0  1  0  0  0  0  0999 V2000
    6.5341  -17.7435   24.0344 N   0  0  0  0  0  0  0  0  0  0  0  0
    7.5339  -16.7791   23.6388 C   0  0  1  0  0  0  0  0  0  0  0  0
    8.1688  -16.1900   24.8776 C   0  0  0  0  0  0  0  0  0  0  0  0
    7.3181  -15.2272   25.5846 C   0  0  0  0  0  0  0  0  0  0  0  0
    6.3141  -15.5368   26.4766 C   0  0  0  0  0  0  0  0  0  0  0  0
    5.7562  -14.3783   26.9278 N   0  0  0  0  0  0  0  0  0  0  0  0
    6.3639  -13.3521   26.3600 C   0  0  0  0  0  0  0  0  0  0  0  0
    6.1988  -11.9836   26.4548 C   0  0  0  0  0  0  0  0  0  0  0  0
    7.0047  -11.1484   25.7150 C   0  0  0  0  0  0  0  0  0  0  0  0
    8.0002  -11.6274   24.8579 C   0  0  0  0  0  0  0  0  0  0  0  0
    8.1496  -12.9960   24.7769 C   0  0  0  0  0  0  0  0  0  0  0  0
    7.3443  -13.8497   25.5159 C   0  0  0  0  0  0  0  0  0  0  0  0
    8.6203  -17.4682   22.8865 C   0  0  0  0  0  0  0  0  0  0  0  0
    9.0425  -18.5869   23.2623 O   0  0  0  0  0  0  0  0  0  0  0  0
    9.2408  -16.9138   21.7185 N   0  0  0  0  0  0  0  0  0  0  0  0
   10.5616  -17.2125   21.2932 C   0  0  1  0  0  0  0  0  0  0  0  0
   11.1703  -16.3395   20.2597 C   0  0  0  0  0  0  0  0  0  0  0  0
   11.2805  -16.9674   18.9126 C   0  0  0  0  0  0  0  0  0  0  0  0
   11.6023  -18.1521   18.7862 O   0  0  0  0  0  0  0  0  0  0  0  0
   11.5177  -17.2879   22.4550 C   0  0  0  0  0  0  0  0  0  0  0  0
   11.4640  -18.1868   23.3084 O   0  0  0  0  0  0  0  0  0  0  0  0
   11.0131  -16.2155   17.7385 O   0  0  0  0  0  0  0  0  0  0  0  0
   12.5096  -18.4100   27.9979 N   0  0  0  0  0  0  0  0  0  0  0  0
   12.1590  -17.2128   27.2929 C   0  0  0  0  0  0  0  0  0  0  0  0
   11.1107  -16.5918   27.6049 O   0  0  0  0  0  0  0  0  0  0  0  0
   12.9938  -16.6835   26.2186 C   0  0  0  0  0  0  0  0  0  0  0  0
   12.4074  -16.5717   24.8732 C   0  0  0  0  0  0  0  0  0  0  0  0
   13.2627  -16.0135   23.7841 C   0  0  2  0  0  0  0  0  0  0  0  0
   12.5018  -16.2782   22.5433 N   0  0  0  0  0  0  0  0  0  0  0  0
   14.5504  -16.6766   23.6595 C   0  0  0  0  0  0  0  0  0  0  0  0
   15.6617  -16.1462   24.3249 O   0  0  0  0  0  0  0  0  0  0  0  0
   14.7582  -17.7094   22.9885 O   0  0  0  0  0  0  0  0  0  0  0  0
  2  1  1  1
  3  4  1  0
  3  2  1  0
  4 12  1  0
  4  5  2  0
  5  6  1  0
  7  8  2  0
  7  6  1  0
  9  8  1  0
 10  9  2  0
 11 10  1  0
 11 12  2  0
 12  7  1  0
 13  2  1  0
 14 13  2  0
 15 13  1  0
 16 15  1  0
 16 17  1  6
 18 19  2  0
 18 17  1  0
 20 16  1  0
 21 20  2  0
 22 18  1  0
 23 24  1  0
 24 26  1  0
 25 24  2  0
 27 26  1  0
 28 27  1  1
 28 29  1  0
 29 20  1  0
 30 28  1  0
 30 31  1  0
 32 30  2  0
M  END
$$$$
