WDQ.pdb
     RDKit          3D

 32 33  0  0  1  0  0  0  0  0999 V2000
    6.9414  -17.7983   24.0168 N   0  0  0  0  0  0  0  0  0  0  0  0
    7.7844  -16.6367   23.8544 C   0  0  1  0  0  0  0  0  0  0  0  0
    8.1206  -16.0765   25.2174 C   0  0  0  0  0  0  0  0  0  0  0  0
    7.1832  -15.0528   25.6904 C   0  0  0  0  0  0  0  0  0  0  0  0
    5.9730  -15.2867   26.3070 C   0  0  0  0  0  0  0  0  0  0  0  0
    5.3939  -14.0895   26.6041 N   0  0  0  0  0  0  0  0  0  0  0  0
    6.1853  -13.1112   26.2021 C   0  0  0  0  0  0  0  0  0  0  0  0
    6.0869  -11.7339   26.2507 C   0  0  0  0  0  0  0  0  0  0  0  0
    7.1006  -10.9609   25.7315 C   0  0  0  0  0  0  0  0  0  0  0  0
    8.2451  -11.5130   25.1480 C   0  0  0  0  0  0  0  0  0  0  0  0
    8.3248  -12.8893   25.1090 C   0  0  0  0  0  0  0  0  0  0  0  0
    7.3108  -13.6807   25.6276 C   0  0  0  0  0  0  0  0  0  0  0  0
    9.0743  -17.0415   23.2271 C   0  0  0  0  0  0  0  0  0  0  0  0
    9.4454  -18.2384   23.2526 O   0  0  0  0  0  0  0  0  0  0  0  0
    9.9546  -16.1165   22.5741 N   0  0  0  0  0  0  0  0  0  0  0  0
   11.1972  -16.4699   21.9864 C   0  0  1  0  0  0  0  0  0  0  0  0
   11.7441  -15.5783   20.9343 C   0  0  0  0  0  0  0  0  0  0  0  0
   12.9858  -16.0850   20.2844 C   0  0  0  0  0  0  0  0  0  0  0  0
   13.8913  -15.3149   19.9526 O   0  0  0  0  0  0  0  0  0  0  0  0
   12.2693  -16.6683   23.0262 C   0  0  0  0  0  0  0  0  0  0  0  0
   13.4547  -16.8858   22.7317 O   0  0  0  0  0  0  0  0  0  0  0  0
   13.1586  -17.4717   20.0340 O   0  0  0  0  0  0  0  0  0  0  0  0
    9.1765  -14.2837   27.5696 N   0  0  0  0  0  0  0  0  0  0  0  0
   10.2823  -15.1217   27.9277 C   0  0  0  0  0  0  0  0  0  0  0  0
   10.2167  -15.8279   28.9662 O   0  0  0  0  0  0  0  0  0  0  0  0
   11.4909  -15.1863   27.1113 C   0  0  0  0  0  0  0  0  0  0  0  0
   11.9991  -16.5126   26.7252 C   0  0  0  0  0  0  0  0  0  0  0  0
   12.8424  -16.6055   25.4967 C   0  0  2  0  0  0  0  0  0  0  0  0
   11.8721  -16.5959   24.3799 N   0  0  0  0  0  0  0  0  0  0  0  0
   13.6031  -17.8410   25.4068 C   0  0  0  0  0  0  0  0  0  0  0  0
   14.6421  -18.0738   26.3153 O   0  0  0  0  0  0  0  0  0  0  0  0
   13.4054  -18.7399   24.5624 O   0  0  0  0  0  0  0  0  0  0  0  0
  2  1  1  1
  3  4  1  0
  3  2  1  0
  4 12  1  0
  4  5  2  0
  5  6  1  0
  7  8  2  0
  7  6  1  0
  9  8  1  0
 10  9  2  0
 11 10  1  0
 11 12  2  0
 12  7  1  0
 13  2  1  0
 14 13  2  0
 15 13  1  0
 16 15  1  0
 16 17  1  6
 18 19  2  0
 18 17  1  0
 20 16  1  0
 21 20  2  0
 22 18  1  0
 23 24  1  0
 24 26  1  0
 25 24  2  0
 27 26  1  0
 28 27  1  1
 28 29  1  0
 29 20  1  0
 30 28  1  0
 30 31  1  0
 32 30  2  0
M  END
$$$$
