WDQ.pdb
     RDKit          3D

 32 33  0  0  1  0  0  0  0  0999 V2000
    6.9267  -17.7229   24.2815 N   0  0  0  0  0  0  0  0  0  0  0  0
    7.7444  -16.6857   23.6969 C   0  0  1  0  0  0  0  0  0  0  0  0
    8.2618  -15.7867   24.7963 C   0  0  0  0  0  0  0  0  0  0  0  0
    7.2249  -14.9760   25.4428 C   0  0  0  0  0  0  0  0  0  0  0  0
    6.1017  -15.4572   26.0802 C   0  0  0  0  0  0  0  0  0  0  0  0
    5.3833  -14.4024   26.5582 N   0  0  0  0  0  0  0  0  0  0  0  0
    6.0038  -13.2777   26.2504 C   0  0  0  0  0  0  0  0  0  0  0  0
    5.7194  -11.9457   26.4830 C   0  0  0  0  0  0  0  0  0  0  0  0
    6.5803  -10.9758   26.0218 C   0  0  0  0  0  0  0  0  0  0  0  0
    7.7494  -11.2799   25.3176 C   0  0  0  0  0  0  0  0  0  0  0  0
    8.0159  -12.6147   25.0955 C   0  0  0  0  0  0  0  0  0  0  0  0
    7.1572  -13.6027   25.5538 C   0  0  0  0  0  0  0  0  0  0  0  0
    8.9373  -17.2990   23.0474 C   0  0  0  0  0  0  0  0  0  0  0  0
    9.3570  -18.4201   23.4187 O   0  0  0  0  0  0  0  0  0  0  0  0
    9.6670  -16.6659   21.9873 N   0  0  0  0  0  0  0  0  0  0  0  0
   10.8114  -17.2213   21.3579 C   0  0  1  0  0  0  0  0  0  0  0  0
   11.1776  -16.7123   20.0133 C   0  0  0  0  0  0  0  0  0  0  0  0
   10.1492  -16.9572   18.9629 C   0  0  0  0  0  0  0  0  0  0  0  0
    9.5175  -16.0240   18.4597 O   0  0  0  0  0  0  0  0  0  0  0  0
   12.0321  -17.1254   22.2357 C   0  0  0  0  0  0  0  0  0  0  0  0
   12.7374  -16.1062   22.2917 O   0  0  0  0  0  0  0  0  0  0  0  0
    9.8733  -18.2747   18.5120 O   0  0  0  0  0  0  0  0  0  0  0  0
   17.5117  -17.3801   22.7380 N   0  0  0  0  0  0  0  0  0  0  0  0
   16.7461  -16.3699   23.4063 C   0  0  0  0  0  0  0  0  0  0  0  0
   17.3253  -15.3517   23.8638 O   0  0  0  0  0  0  0  0  0  0  0  0
   15.2997  -16.4851   23.5670 C   0  0  0  0  0  0  0  0  0  0  0  0
   14.6274  -17.6603   22.9896 C   0  0  0  0  0  0  0  0  0  0  0  0
   13.5931  -18.3485   23.8177 C   0  0  2  0  0  0  0  0  0  0  0  0
   12.3552  -18.2602   23.0125 N   0  0  0  0  0  0  0  0  0  0  0  0
   13.3372  -17.6929   25.0897 C   0  0  0  0  0  0  0  0  0  0  0  0
   12.0971  -17.0817   25.3085 O   0  0  0  0  0  0  0  0  0  0  0  0
   14.1531  -17.6240   26.0328 O   0  0  0  0  0  0  0  0  0  0  0  0
  2  1  1  1
  3  4  1  0
  3  2  1  0
  4 12  1  0
  4  5  2  0
  5  6  1  0
  7  8  2  0
  7  6  1  0
  9  8  1  0
 10  9  2  0
 11 10  1  0
 11 12  2  0
 12  7  1  0
 13  2  1  0
 14 13  2  0
 15 13  1  0
 16 15  1  0
 16 17  1  6
 18 19  2  0
 18 17  1  0
 20 16  1  0
 21 20  2  0
 22 18  1  0
 23 24  1  0
 24 26  1  0
 25 24  2  0
 27 26  1  0
 28 27  1  6
 28 29  1  0
 29 20  1  0
 30 28  1  0
 30 31  1  0
 32 30  2  0
M  END
$$$$
