WDQ.pdb
     RDKit          3D

 32 33  0  0  1  0  0  0  0  0999 V2000
    6.9123  -17.4901   23.7123 N   0  0  0  0  0  0  0  0  0  0  0  0
    7.8700  -16.4395   23.4570 C   0  0  1  0  0  0  0  0  0  0  0  0
    8.3542  -15.8820   24.7758 C   0  0  0  0  0  0  0  0  0  0  0  0
    7.3462  -15.1014   25.5005 C   0  0  0  0  0  0  0  0  0  0  0  0
    6.1993  -15.6000   26.0798 C   0  0  0  0  0  0  0  0  0  0  0  0
    5.5209  -14.5724   26.6638 N   0  0  0  0  0  0  0  0  0  0  0  0
    6.1893  -13.4483   26.4784 C   0  0  0  0  0  0  0  0  0  0  0  0
    5.9578  -12.1375   26.8491 C   0  0  0  0  0  0  0  0  0  0  0  0
    6.8612  -11.1610   26.4957 C   0  0  0  0  0  0  0  0  0  0  0  0
    8.0224  -11.4376   25.7675 C   0  0  0  0  0  0  0  0  0  0  0  0
    8.2358  -12.7515   25.4069 C   0  0  0  0  0  0  0  0  0  0  0  0
    7.3339  -13.7458   25.7555 C   0  0  0  0  0  0  0  0  0  0  0  0
    9.0627  -17.0095   22.7687 C   0  0  0  0  0  0  0  0  0  0  0  0
    9.5773  -18.0794   23.1705 O   0  0  0  0  0  0  0  0  0  0  0  0
    9.6867  -16.3898   21.6359 N   0  0  0  0  0  0  0  0  0  0  0  0
   11.0393  -16.5903   21.2554 C   0  0  1  0  0  0  0  0  0  0  0  0
   11.5760  -15.7654   20.1453 C   0  0  0  0  0  0  0  0  0  0  0  0
   12.8750  -16.2462   19.5954 C   0  0  0  0  0  0  0  0  0  0  0  0
   13.5904  -15.5078   18.9127 O   0  0  0  0  0  0  0  0  0  0  0  0
   11.9748  -16.4505   22.4281 C   0  0  0  0  0  0  0  0  0  0  0  0
   12.2179  -15.3579   22.9633 O   0  0  0  0  0  0  0  0  0  0  0  0
   13.3236  -17.5692   19.8480 O   0  0  0  0  0  0  0  0  0  0  0  0
   11.3646  -20.2174   26.9740 N   0  0  0  0  0  0  0  0  0  0  0  0
   11.4137  -18.7972   27.1579 C   0  0  0  0  0  0  0  0  0  0  0  0
   10.8461  -18.2791   28.1534 O   0  0  0  0  0  0  0  0  0  0  0  0
   12.1157  -17.9266   26.2196 C   0  0  0  0  0  0  0  0  0  0  0  0
   12.7881  -18.5461   25.0662 C   0  0  0  0  0  0  0  0  0  0  0  0
   13.4720  -17.6453   24.0914 C   0  0  2  0  0  0  0  0  0  0  0  0
   12.5802  -17.6320   22.9110 N   0  0  0  0  0  0  0  0  0  0  0  0
   14.7687  -18.1380   23.6565 C   0  0  0  0  0  0  0  0  0  0  0  0
   15.8924  -17.9117   24.4597 O   0  0  0  0  0  0  0  0  0  0  0  0
   14.9740  -18.7635   22.5950 O   0  0  0  0  0  0  0  0  0  0  0  0
  2  1  1  1
  3  4  1  0
  3  2  1  0
  4 12  1  0
  4  5  2  0
  5  6  1  0
  7  8  2  0
  7  6  1  0
  9  8  1  0
 10  9  2  0
 11 10  1  0
 11 12  2  0
 12  7  1  0
 13  2  1  0
 14 13  2  0
 15 13  1  0
 16 15  1  0
 16 17  1  6
 18 19  2  0
 18 17  1  0
 20 16  1  0
 21 20  2  0
 22 18  1  0
 23 24  1  0
 24 26  1  0
 25 24  2  0
 27 26  1  0
 28 27  1  1
 28 29  1  0
 29 20  1  0
 30 28  1  0
 30 31  1  0
 32 30  2  0
M  END
$$$$
