WDQ.pdb
     RDKit          3D

 32 33  0  0  1  0  0  0  0  0999 V2000
    9.4802  -15.8258   21.8640 N   0  0  0  0  0  0  0  0  0  0  0  0
    9.4037  -15.6943   23.3003 C   0  0  1  0  0  0  0  0  0  0  0  0
    7.9517  -15.7031   23.7200 C   0  0  0  0  0  0  0  0  0  0  0  0
    7.2950  -14.3952   23.6267 C   0  0  0  0  0  0  0  0  0  0  0  0
    6.6582  -13.8869   22.5151 C   0  0  0  0  0  0  0  0  0  0  0  0
    6.1688  -12.6514   22.8170 N   0  0  0  0  0  0  0  0  0  0  0  0
    6.4687  -12.3584   24.0696 C   0  0  0  0  0  0  0  0  0  0  0  0
    6.2236  -11.2582   24.8688 C   0  0  0  0  0  0  0  0  0  0  0  0
    6.6791  -11.2462   26.1677 C   0  0  0  0  0  0  0  0  0  0  0  0
    7.3895  -12.3131   26.7263 C   0  0  0  0  0  0  0  0  0  0  0  0
    7.6241  -13.4018   25.9129 C   0  0  0  0  0  0  0  0  0  0  0  0
    7.1717  -13.4276   24.6021 C   0  0  0  0  0  0  0  0  0  0  0  0
   10.0431  -16.8770   23.9434 C   0  0  0  0  0  0  0  0  0  0  0  0
    9.4384  -17.5213   24.8323 O   0  0  0  0  0  0  0  0  0  0  0  0
   11.3559  -17.3427   23.6021 N   0  0  0  0  0  0  0  0  0  0  0  0
   12.0529  -18.3617   24.3023 C   0  0  1  0  0  0  0  0  0  0  0  0
   13.3150  -18.8694   23.7105 C   0  0  0  0  0  0  0  0  0  0  0  0
   13.4315  -18.6599   22.2396 C   0  0  0  0  0  0  0  0  0  0  0  0
   12.5875  -19.1143   21.4624 O   0  0  0  0  0  0  0  0  0  0  0  0
   12.3387  -17.9637   25.7270 C   0  0  0  0  0  0  0  0  0  0  0  0
   13.0383  -16.9818   26.0198 O   0  0  0  0  0  0  0  0  0  0  0  0
   14.5186  -17.9263   21.6960 O   0  0  0  0  0  0  0  0  0  0  0  0
   10.6873  -15.3885   30.3027 N   0  0  0  0  0  0  0  0  0  0  0  0
   10.4261  -15.2750   28.8984 C   0  0  0  0  0  0  0  0  0  0  0  0
   10.1254  -14.1556   28.4103 O   0  0  0  0  0  0  0  0  0  0  0  0
   10.5066  -16.4291   28.0080 C   0  0  0  0  0  0  0  0  0  0  0  0
   10.7523  -17.7519   28.6049 C   0  0  0  0  0  0  0  0  0  0  0  0
   11.9792  -18.4905   28.1824 C   0  0  2  0  0  0  0  0  0  0  0  0
   11.7700  -18.7632   26.7434 N   0  0  0  0  0  0  0  0  0  0  0  0
   12.1461  -19.7699   28.8520 C   0  0  0  0  0  0  0  0  0  0  0  0
   12.4903  -19.7937   30.2085 O   0  0  0  0  0  0  0  0  0  0  0  0
   12.0065  -20.8841   28.3051 O   0  0  0  0  0  0  0  0  0  0  0  0
  2  1  1  6
  3  4  1  0
  3  2  1  0
  4 12  1  0
  4  5  2  0
  5  6  1  0
  7  8  2  0
  7  6  1  0
  9  8  1  0
 10  9  2  0
 11 10  1  0
 11 12  2  0
 12  7  1  0
 13  2  1  0
 14 13  2  0
 15 13  1  0
 16 15  1  0
 16 17  1  6
 18 19  2  0
 18 17  1  0
 20 16  1  0
 21 20  2  0
 22 18  1  0
 23 24  1  0
 24 26  1  0
 25 24  2  0
 27 26  1  0
 28 27  1  1
 28 29  1  0
 29 20  1  0
 30 28  1  0
 30 31  1  0
 32 30  2  0
M  END
$$$$
