WDQ.pdb
     RDKit          3D

 32 33  0  0  1  0  0  0  0  0999 V2000
    6.6055  -17.7631   24.3419 N   0  0  0  0  0  0  0  0  0  0  0  0
    7.5300  -16.7275   23.9432 C   0  0  1  0  0  0  0  0  0  0  0  0
    8.1050  -16.0762   25.1801 C   0  0  0  0  0  0  0  0  0  0  0  0
    7.1980  -15.1254   25.8310 C   0  0  0  0  0  0  0  0  0  0  0  0
    5.9702  -15.4249   26.3808 C   0  0  0  0  0  0  0  0  0  0  0  0
    5.4304  -14.2844   26.8955 N   0  0  0  0  0  0  0  0  0  0  0  0
    6.2635  -13.2791   26.6946 C   0  0  0  0  0  0  0  0  0  0  0  0
    6.2148  -11.9334   27.0039 C   0  0  0  0  0  0  0  0  0  0  0  0
    7.2644  -11.1159   26.6508 C   0  0  0  0  0  0  0  0  0  0  0  0
    8.3973  -11.5911   25.9831 C   0  0  0  0  0  0  0  0  0  0  0  0
    8.4272  -12.9369   25.6832 C   0  0  0  0  0  0  0  0  0  0  0  0
    7.3767  -13.7724   26.0322 C   0  0  0  0  0  0  0  0  0  0  0  0
    8.6743  -17.3375   23.2085 C   0  0  0  0  0  0  0  0  0  0  0  0
    9.2555  -18.3497   23.6651 O   0  0  0  0  0  0  0  0  0  0  0  0
    9.1759  -16.8217   21.9679 N   0  0  0  0  0  0  0  0  0  0  0  0
   10.5374  -16.8718   21.5701 C   0  0  1  0  0  0  0  0  0  0  0  0
   10.9183  -16.1768   20.3159 C   0  0  0  0  0  0  0  0  0  0  0  0
   12.3008  -16.4734   19.8451 C   0  0  0  0  0  0  0  0  0  0  0  0
   12.8337  -17.5618   20.0785 O   0  0  0  0  0  0  0  0  0  0  0  0
   11.4555  -16.3886   22.6625 C   0  0  0  0  0  0  0  0  0  0  0  0
   11.3959  -15.2396   23.1270 O   0  0  0  0  0  0  0  0  0  0  0  0
   13.0390  -15.5084   19.1107 O   0  0  0  0  0  0  0  0  0  0  0  0
    9.9403  -16.9766   27.5056 N   0  0  0  0  0  0  0  0  0  0  0  0
   11.3229  -17.0090   27.8806 C   0  0  0  0  0  0  0  0  0  0  0  0
   11.6395  -16.9352   29.0955 O   0  0  0  0  0  0  0  0  0  0  0  0
   12.3842  -17.1337   26.8859 C   0  0  0  0  0  0  0  0  0  0  0  0
   12.0045  -17.1646   25.4642 C   0  0  0  0  0  0  0  0  0  0  0  0
   13.0989  -17.1249   24.4493 C   0  0  2  0  0  0  0  0  0  0  0  0
   12.4089  -17.3081   23.1535 N   0  0  0  0  0  0  0  0  0  0  0  0
   14.0613  -18.2052   24.5909 C   0  0  0  0  0  0  0  0  0  0  0  0
   13.9691  -19.3198   23.7494 O   0  0  0  0  0  0  0  0  0  0  0  0
   14.9909  -18.2267   25.4248 O   0  0  0  0  0  0  0  0  0  0  0  0
  2  1  1  1
  3  4  1  0
  3  2  1  0
  4 12  1  0
  4  5  2  0
  5  6  1  0
  7  8  2  0
  7  6  1  0
  9  8  1  0
 10  9  2  0
 11 10  1  0
 11 12  2  0
 12  7  1  0
 13  2  1  0
 14 13  2  0
 15 13  1  0
 16 15  1  0
 16 17  1  6
 18 19  2  0
 18 17  1  0
 20 16  1  0
 21 20  2  0
 22 18  1  0
 23 24  1  0
 24 26  1  0
 25 24  2  0
 27 26  1  0
 28 27  1  1
 28 29  1  0
 29 20  1  0
 30 28  1  0
 30 31  1  0
 32 30  2  0
M  END
$$$$
