WDQ.pdb
     RDKit          3D

 32 33  0  0  1  0  0  0  0  0999 V2000
    6.9039  -17.9841   24.2143 N   0  0  0  0  0  0  0  0  0  0  0  0
    7.6648  -16.8645   23.7107 C   0  0  1  0  0  0  0  0  0  0  0  0
    8.2283  -16.0861   24.8774 C   0  0  0  0  0  0  0  0  0  0  0  0
    7.2942  -15.1137   25.4538 C   0  0  0  0  0  0  0  0  0  0  0  0
    6.1113  -15.4103   26.0957 C   0  0  0  0  0  0  0  0  0  0  0  0
    5.5261  -14.2465   26.4960 N   0  0  0  0  0  0  0  0  0  0  0  0
    6.2876  -13.2294   26.1349 C   0  0  0  0  0  0  0  0  0  0  0  0
    6.1710  -11.8606   26.2825 C   0  0  0  0  0  0  0  0  0  0  0  0
    7.1533  -11.0364   25.7822 C   0  0  0  0  0  0  0  0  0  0  0  0
    8.2833  -11.5272   25.1210 C   0  0  0  0  0  0  0  0  0  0  0  0
    8.3817  -12.8959   24.9836 C   0  0  0  0  0  0  0  0  0  0  0  0
    7.3993  -13.7385   25.4820 C   0  0  0  0  0  0  0  0  0  0  0  0
    8.8292  -17.3660   22.9273 C   0  0  0  0  0  0  0  0  0  0  0  0
    9.2345  -18.5429   23.0741 O   0  0  0  0  0  0  0  0  0  0  0  0
    9.5465  -16.5596   21.9828 N   0  0  0  0  0  0  0  0  0  0  0  0
   10.6343  -17.0210   21.1965 C   0  0  1  0  0  0  0  0  0  0  0  0
   10.7026  -16.5792   19.7819 C   0  0  0  0  0  0  0  0  0  0  0  0
   11.8325  -17.1678   19.0087 C   0  0  0  0  0  0  0  0  0  0  0  0
   11.9744  -18.3904   18.9184 O   0  0  0  0  0  0  0  0  0  0  0  0
   11.9598  -16.7100   21.8415 C   0  0  0  0  0  0  0  0  0  0  0  0
   13.0364  -17.1382   21.3979 O   0  0  0  0  0  0  0  0  0  0  0  0
   12.7740  -16.3324   18.3520 O   0  0  0  0  0  0  0  0  0  0  0  0
   11.1544  -19.9315   26.1557 N   0  0  0  0  0  0  0  0  0  0  0  0
   11.9287  -18.9108   26.7975 C   0  0  0  0  0  0  0  0  0  0  0  0
   11.9689  -18.8580   28.0534 O   0  0  0  0  0  0  0  0  0  0  0  0
   12.6852  -17.9260   26.0300 C   0  0  0  0  0  0  0  0  0  0  0  0
   12.0011  -17.2273   24.9298 C   0  0  0  0  0  0  0  0  0  0  0  0
   12.7637  -16.1794   24.1884 C   0  0  2  0  0  0  0  0  0  0  0  0
   11.9371  -15.8947   22.9950 N   0  0  0  0  0  0  0  0  0  0  0  0
   14.0658  -16.6287   23.7236 C   0  0  0  0  0  0  0  0  0  0  0  0
   14.1514  -17.7809   22.9336 O   0  0  0  0  0  0  0  0  0  0  0  0
   15.1484  -16.0595   23.9771 O   0  0  0  0  0  0  0  0  0  0  0  0
  2  1  1  1
  3  4  1  0
  3  2  1  0
  4 12  1  0
  4  5  2  0
  5  6  1  0
  7  8  2  0
  7  6  1  0
  9  8  1  0
 10  9  2  0
 11 10  1  0
 11 12  2  0
 12  7  1  0
 13  2  1  0
 14 13  2  0
 15 13  1  0
 16 15  1  0
 16 17  1  6
 18 19  2  0
 18 17  1  0
 20 16  1  0
 21 20  2  0
 22 18  1  0
 23 24  1  0
 24 26  1  0
 25 24  2  0
 27 26  1  0
 28 27  1  1
 28 29  1  0
 29 20  1  0
 30 28  1  0
 30 31  1  0
 32 30  2  0
M  END
$$$$
