WDQ.pdb
     RDKit          3D

 32 33  0  0  1  0  0  0  0  0999 V2000
    6.5500  -17.7623   24.1356 N   0  0  0  0  0  0  0  0  0  0  0  0
    7.2763  -16.6470   23.5746 C   0  0  1  0  0  0  0  0  0  0  0  0
    8.0026  -15.9225   24.6847 C   0  0  0  0  0  0  0  0  0  0  0  0
    7.1500  -15.0243   25.4699 C   0  0  0  0  0  0  0  0  0  0  0  0
    6.1333  -15.4090   26.3171 C   0  0  0  0  0  0  0  0  0  0  0  0
    5.5777  -14.2940   26.8696 N   0  0  0  0  0  0  0  0  0  0  0  0
    6.1989  -13.2235   26.4081 C   0  0  0  0  0  0  0  0  0  0  0  0
    6.0417  -11.8688   26.6301 C   0  0  0  0  0  0  0  0  0  0  0  0
    6.8620  -10.9737   25.9817 C   0  0  0  0  0  0  0  0  0  0  0  0
    7.8645  -11.3773   25.0944 C   0  0  0  0  0  0  0  0  0  0  0  0
    8.0058  -12.7333   24.8861 C   0  0  0  0  0  0  0  0  0  0  0  0
    7.1861  -13.6467   25.5320 C   0  0  0  0  0  0  0  0  0  0  0  0
    8.3195  -17.1525   22.6380 C   0  0  0  0  0  0  0  0  0  0  0  0
    8.9204  -18.2264   22.8759 O   0  0  0  0  0  0  0  0  0  0  0  0
    8.6985  -16.4639   21.4385 N   0  0  0  0  0  0  0  0  0  0  0  0
    9.9468  -16.6233   20.7821 C   0  0  1  0  0  0  0  0  0  0  0  0
   10.0760  -16.0941   19.4022 C   0  0  0  0  0  0  0  0  0  0  0  0
    9.1615  -16.7303   18.4123 C   0  0  0  0  0  0  0  0  0  0  0  0
    8.9525  -17.9465   18.4276 O   0  0  0  0  0  0  0  0  0  0  0  0
   11.0818  -16.0632   21.5993 C   0  0  0  0  0  0  0  0  0  0  0  0
   11.3593  -14.8541   21.6184 O   0  0  0  0  0  0  0  0  0  0  0  0
    8.5035  -15.9485   17.4267 O   0  0  0  0  0  0  0  0  0  0  0  0
   10.2064  -17.5988   27.0603 N   0  0  0  0  0  0  0  0  0  0  0  0
   11.5298  -17.0701   27.2098 C   0  0  0  0  0  0  0  0  0  0  0  0
   11.9905  -16.8637   28.3617 O   0  0  0  0  0  0  0  0  0  0  0  0
   12.3696  -16.7681   26.0545 C   0  0  0  0  0  0  0  0  0  0  0  0
   11.7909  -16.9352   24.7116 C   0  0  0  0  0  0  0  0  0  0  0  0
   12.6381  -16.5714   23.5371 C   0  0  2  0  0  0  0  0  0  0  0  0
   11.8377  -16.9808   22.3623 N   0  0  0  0  0  0  0  0  0  0  0  0
   13.8980  -17.2946   23.4838 C   0  0  0  0  0  0  0  0  0  0  0  0
   13.9325  -18.5695   22.9071 O   0  0  0  0  0  0  0  0  0  0  0  0
   14.9855  -16.8650   23.9228 O   0  0  0  0  0  0  0  0  0  0  0  0
  2  1  1  1
  3  4  1  0
  3  2  1  0
  4 12  1  0
  4  5  2  0
  5  6  1  0
  7  8  2  0
  7  6  1  0
  9  8  1  0
 10  9  2  0
 11 10  1  0
 11 12  2  0
 12  7  1  0
 13  2  1  0
 14 13  2  0
 15 13  1  0
 16 15  1  0
 16 17  1  6
 18 19  2  0
 18 17  1  0
 20 16  1  0
 21 20  2  0
 22 18  1  0
 23 24  1  0
 24 26  1  0
 25 24  2  0
 27 26  1  0
 28 27  1  1
 28 29  1  0
 29 20  1  0
 30 28  1  0
 30 31  1  0
 32 30  2  0
M  END
$$$$
