MPW.pdb
     RDKit          3D

 30 32  0  0  1  0  0  0  0  0999 V2000
   11.3232  -21.1724   17.7047 C   0  0  0  0  0  0  0  0  0  0  0  0
   10.2332  -19.8221   17.1596 S   0  0  0  0  0  0  0  0  0  0  0  0
   11.0119  -18.2057   17.4131 C   0  0  0  0  0  0  0  0  0  0  0  0
   10.0320  -17.1087   17.1316 C   0  0  0  0  0  0  0  0  0  0  0  0
   10.5992  -15.7229   17.3615 C   0  0  2  0  0  0  0  0  0  0  0  0
   11.9387  -15.6563   16.8896 N   0  0  0  0  0  0  0  0  0  0  0  0
   10.3181  -15.1969   18.6840 C   0  0  0  0  0  0  0  0  0  0  0  0
   11.3343  -15.1262   19.4708 O   0  0  0  0  0  0  0  0  0  0  0  0
    9.0602  -14.7523   19.2173 N   0  0  0  0  0  0  0  0  0  0  0  0
    7.9057  -14.5774   18.3900 C   0  0  0  0  0  0  0  0  0  0  0  0
    7.0749  -13.5282   19.1593 C   0  0  0  0  0  0  0  0  0  0  0  0
    7.3773  -13.8506   20.5963 C   0  0  0  0  0  0  0  0  0  0  0  0
    8.7536  -14.4134   20.5521 C   0  0  1  0  0  0  0  0  0  0  0  0
    8.9319  -15.5237   21.5256 C   0  0  0  0  0  0  0  0  0  0  0  0
    9.2362  -16.6796   21.2106 O   0  0  0  0  0  0  0  0  0  0  0  0
    8.7361  -15.2120   22.8906 N   0  0  0  0  0  0  0  0  0  0  0  0
    9.4973  -15.8094   23.9840 C   0  0  1  0  0  0  0  0  0  0  0  0
    9.4023  -14.8278   25.1194 C   0  0  0  0  0  0  0  0  0  0  0  0
    8.0330  -14.5007   25.5535 C   0  0  0  0  0  0  0  0  0  0  0  0
    6.9157  -15.2609   25.2505 C   0  0  0  0  0  0  0  0  0  0  0  0
    5.8362  -14.6586   25.7729 N   0  0  0  0  0  0  0  0  0  0  0  0
    6.1889  -13.5317   26.4102 C   0  0  0  0  0  0  0  0  0  0  0  0
    5.4344  -12.6013   27.1018 C   0  0  0  0  0  0  0  0  0  0  0  0
    6.0719  -11.5294   27.6823 C   0  0  0  0  0  0  0  0  0  0  0  0
    7.4359  -11.4226   27.5533 C   0  0  0  0  0  0  0  0  0  0  0  0
    8.1829  -12.3504   26.8634 C   0  0  0  0  0  0  0  0  0  0  0  0
    7.5671  -13.4245   26.2779 C   0  0  0  0  0  0  0  0  0  0  0  0
    9.1358  -17.1792   24.2528 C   0  0  0  0  0  0  0  0  0  0  0  0
    9.8132  -17.8952   25.0222 O   0  0  0  0  0  0  0  0  0  0  0  0
    8.0183  -17.7493   23.6628 O   0  0  0  0  0  0  0  0  0  0  0  0
  1  2  1  0
  2  3  1  0
  4  3  1  0
  4  5  1  0
  5  7  1  0
  5  6  1  1
  7  8  2  0
  9 13  1  0
  9  7  1  0
 10  9  1  0
 11 10  1  0
 11 12  1  0
 12 13  1  0
 13 14  1  1
 14 15  2  0
 16 14  1  0
 16 17  1  0
 17 28  1  0
 17 18  1  1
 19 18  1  0
 20 19  2  0
 21 20  1  0
 22 21  1  0
 22 27  2  0
 23 22  1  0
 24 23  2  0
 24 25  1  0
 25 26  2  0
 26 27  1  0
 27 19  1  0
 28 29  2  0
 28 30  1  0
M  END
$$$$
