MPW.pdb
     RDKit          3D

 30 32  0  0  1  0  0  0  0  0999 V2000
    5.9085  -13.1737   26.8242 C   0  0  0  0  0  0  0  0  0  0  0  0
    5.3997  -14.7291   27.6184 S   0  0  0  0  0  0  0  0  0  0  0  0
    5.3162  -16.0836   26.4177 C   0  0  0  0  0  0  0  0  0  0  0  0
    6.5940  -16.1669   25.6412 C   0  0  0  0  0  0  0  0  0  0  0  0
    6.4986  -17.0603   24.4215 C   0  0  2  0  0  0  0  0  0  0  0  0
    6.1508  -18.3835   24.8082 N   0  0  0  0  0  0  0  0  0  0  0  0
    7.6024  -16.8915   23.4952 C   0  0  0  0  0  0  0  0  0  0  0  0
    8.4141  -17.8880   23.4257 O   0  0  0  0  0  0  0  0  0  0  0  0
    7.8981  -15.7620   22.6578 N   0  0  0  0  0  0  0  0  0  0  0  0
    7.1257  -14.5584   22.7081 C   0  0  0  0  0  0  0  0  0  0  0  0
    7.3253  -13.9509   21.3032 C   0  0  0  0  0  0  0  0  0  0  0  0
    8.7308  -14.3591   20.9591 C   0  0  0  0  0  0  0  0  0  0  0  0
    8.9171  -15.6417   21.6893 C   0  0  1  0  0  0  0  0  0  0  0  0
   10.2968  -15.7801   22.2271 C   0  0  0  0  0  0  0  0  0  0  0  0
   11.2520  -15.0796   21.8736 O   0  0  0  0  0  0  0  0  0  0  0  0
   10.5030  -16.7822   23.2028 N   0  0  0  0  0  0  0  0  0  0  0  0
   11.7302  -16.9273   23.9806 C   0  0  1  0  0  0  0  0  0  0  0  0
   11.9677  -15.5805   24.6062 C   0  0  0  0  0  0  0  0  0  0  0  0
   11.5377  -15.4555   26.0097 C   0  0  0  0  0  0  0  0  0  0  0  0
   11.3861  -16.5242   26.8775 C   0  0  0  0  0  0  0  0  0  0  0  0
   10.9529  -16.0559   28.0582 N   0  0  0  0  0  0  0  0  0  0  0  0
   10.8111  -14.7225   28.0116 C   0  0  0  0  0  0  0  0  0  0  0  0
   10.4098  -13.8143   28.9748 C   0  0  0  0  0  0  0  0  0  0  0  0
   10.3720  -12.4777   28.6515 C   0  0  0  0  0  0  0  0  0  0  0  0
   10.7344  -12.0941   27.3827 C   0  0  0  0  0  0  0  0  0  0  0  0
   11.1324  -13.0012   26.4270 C   0  0  0  0  0  0  0  0  0  0  0  0
   11.1765  -14.3364   26.7287 C   0  0  0  0  0  0  0  0  0  0  0  0
   11.7247  -18.0769   24.8510 C   0  0  0  0  0  0  0  0  0  0  0  0
   10.6826  -18.7370   25.0556 O   0  0  0  0  0  0  0  0  0  0  0  0
   12.8824  -18.4894   25.4927 O   0  0  0  0  0  0  0  0  0  0  0  0
  1  2  1  0
  2  3  1  0
  4  3  1  0
  4  5  1  0
  5  7  1  0
  5  6  1  1
  7  8  2  0
  9 13  1  0
  9  7  1  0
 10  9  1  0
 11 10  1  0
 11 12  1  0
 12 13  1  0
 13 14  1  1
 14 15  2  0
 16 14  1  0
 16 17  1  0
 17 28  1  0
 17 18  1  1
 19 18  1  0
 20 19  2  0
 21 20  1  0
 22 21  1  0
 22 27  2  0
 23 22  1  0
 24 23  2  0
 24 25  1  0
 25 26  2  0
 26 27  1  0
 27 19  1  0
 28 29  2  0
 28 30  1  0
M  END
$$$$
