MPW.pdb
     RDKit          3D

 30 32  0  0  1  0  0  0  0  0999 V2000
    7.2714  -12.0487   25.9138 C   0  0  0  0  0  0  0  0  0  0  0  0
    6.9817  -13.4794   26.9991 S   0  0  0  0  0  0  0  0  0  0  0  0
    7.3634  -15.0350   26.1519 C   0  0  0  0  0  0  0  0  0  0  0  0
    6.2987  -15.3527   25.1477 C   0  0  0  0  0  0  0  0  0  0  0  0
    6.5188  -16.6716   24.4357 C   0  0  2  0  0  0  0  0  0  0  0  0
    6.4881  -17.7441   25.3686 N   0  0  0  0  0  0  0  0  0  0  0  0
    7.6082  -16.6354   23.4782 C   0  0  0  0  0  0  0  0  0  0  0  0
    8.5115  -17.5372   23.6446 O   0  0  0  0  0  0  0  0  0  0  0  0
    7.8011  -15.7269   22.3820 N   0  0  0  0  0  0  0  0  0  0  0  0
    6.9068  -14.6376   22.1340 C   0  0  0  0  0  0  0  0  0  0  0  0
    7.0698  -14.3837   20.6202 C   0  0  0  0  0  0  0  0  0  0  0  0
    8.5166  -14.7141   20.3796 C   0  0  0  0  0  0  0  0  0  0  0  0
    8.8209  -15.7460   21.4072 C   0  0  1  0  0  0  0  0  0  0  0  0
   10.1967  -15.5986   21.9526 C   0  0  0  0  0  0  0  0  0  0  0  0
   10.9348  -14.6346   21.7206 O   0  0  0  0  0  0  0  0  0  0  0  0
   10.6665  -16.6392   22.7863 N   0  0  0  0  0  0  0  0  0  0  0  0
   11.6923  -16.4672   23.8111 C   0  0  1  0  0  0  0  0  0  0  0  0
   11.1825  -15.3714   24.7060 C   0  0  0  0  0  0  0  0  0  0  0  0
   10.7625  -15.8032   26.0505 C   0  0  0  0  0  0  0  0  0  0  0  0
   10.4729  -17.1131   26.3944 C   0  0  0  0  0  0  0  0  0  0  0  0
   10.0942  -17.1418   27.6816 N   0  0  0  0  0  0  0  0  0  0  0  0
   10.1207  -15.9075   28.2070 C   0  0  0  0  0  0  0  0  0  0  0  0
    9.8302  -15.4524   29.4805 C   0  0  0  0  0  0  0  0  0  0  0  0
    9.9620  -14.1102   29.7517 C   0  0  0  0  0  0  0  0  0  0  0  0
   10.3776  -13.2706   28.7464 C   0  0  0  0  0  0  0  0  0  0  0  0
   10.6650  -13.7275   27.4801 C   0  0  0  0  0  0  0  0  0  0  0  0
   10.5397  -15.0600   27.1898 C   0  0  0  0  0  0  0  0  0  0  0  0
   12.0951  -17.7045   24.4325 C   0  0  0  0  0  0  0  0  0  0  0  0
   11.3551  -18.7124   24.4222 O   0  0  0  0  0  0  0  0  0  0  0  0
   13.3236  -17.8164   25.0651 O   0  0  0  0  0  0  0  0  0  0  0  0
  1  2  1  0
  2  3  1  0
  4  3  1  0
  4  5  1  0
  5  7  1  0
  5  6  1  1
  7  8  2  0
  9 13  1  0
  9  7  1  0
 10  9  1  0
 11 10  1  0
 11 12  1  0
 12 13  1  0
 13 14  1  1
 14 15  2  0
 16 14  1  0
 16 17  1  0
 17 28  1  0
 17 18  1  1
 19 18  1  0
 20 19  2  0
 21 20  1  0
 22 21  1  0
 22 27  2  0
 23 22  1  0
 24 23  2  0
 24 25  1  0
 25 26  2  0
 26 27  1  0
 27 19  1  0
 28 29  2  0
 28 30  1  0
M  END
$$$$
