MPW.pdb
     RDKit          3D

 30 32  0  0  1  0  0  0  0  0999 V2000
    8.2597  -11.8901   18.7474 C   0  0  0  0  0  0  0  0  0  0  0  0
    8.1449  -12.5377   20.4434 S   0  0  0  0  0  0  0  0  0  0  0  0
    8.3435  -14.3385   20.4741 C   0  0  0  0  0  0  0  0  0  0  0  0
    7.0137  -15.0090   20.3162 C   0  0  0  0  0  0  0  0  0  0  0  0
    7.0988  -16.5215   20.3249 C   0  0  2  0  0  0  0  0  0  0  0  0
    5.8108  -17.0867   20.1175 N   0  0  0  0  0  0  0  0  0  0  0  0
    7.9044  -17.0476   21.4108 C   0  0  0  0  0  0  0  0  0  0  0  0
    7.3894  -16.9211   22.5836 O   0  0  0  0  0  0  0  0  0  0  0  0
    9.1911  -17.6829   21.3389 N   0  0  0  0  0  0  0  0  0  0  0  0
    9.8234  -17.9748   20.0887 C   0  0  0  0  0  0  0  0  0  0  0  0
   10.7501  -19.1613   20.4296 C   0  0  0  0  0  0  0  0  0  0  0  0
   11.1630  -18.8672   21.8449 C   0  0  0  0  0  0  0  0  0  0  0  0
   10.0043  -18.1212   22.4053 C   0  0  1  0  0  0  0  0  0  0  0  0
   10.4343  -17.0429   23.3351 C   0  0  0  0  0  0  0  0  0  0  0  0
   10.9949  -16.0012   22.9765 O   0  0  0  0  0  0  0  0  0  0  0  0
   10.1737  -17.2453   24.7098 N   0  0  0  0  0  0  0  0  0  0  0  0
   10.5057  -16.2828   25.7563 C   0  0  1  0  0  0  0  0  0  0  0  0
    9.8871  -14.9848   25.3154 C   0  0  0  0  0  0  0  0  0  0  0  0
    8.4813  -14.7927   25.7120 C   0  0  0  0  0  0  0  0  0  0  0  0
    7.5274  -15.7967   25.7158 C   0  0  0  0  0  0  0  0  0  0  0  0
    6.3543  -15.2681   26.0974 N   0  0  0  0  0  0  0  0  0  0  0  0
    6.4887  -13.9568   26.3477 C   0  0  0  0  0  0  0  0  0  0  0  0
    5.5730  -13.0116   26.7736 C   0  0  0  0  0  0  0  0  0  0  0  0
    5.9975  -11.7177   26.9695 C   0  0  0  0  0  0  0  0  0  0  0  0
    7.3165  -11.4122   26.7344 C   0  0  0  0  0  0  0  0  0  0  0  0
    8.2243  -12.3558   26.3099 C   0  0  0  0  0  0  0  0  0  0  0  0
    7.8216  -13.6493   26.1086 C   0  0  0  0  0  0  0  0  0  0  0  0
   10.1992  -16.7519   27.0849 C   0  0  0  0  0  0  0  0  0  0  0  0
   10.4991  -16.0849   28.0991 O   0  0  0  0  0  0  0  0  0  0  0  0
    9.5581  -17.9655   27.2810 O   0  0  0  0  0  0  0  0  0  0  0  0
  1  2  1  0
  2  3  1  0
  4  3  1  0
  4  5  1  0
  5  7  1  0
  5  6  1  1
  7  8  2  0
  9 13  1  0
  9  7  1  0
 10  9  1  0
 11 10  1  0
 11 12  1  0
 12 13  1  0
 13 14  1  6
 14 15  2  0
 16 14  1  0
 16 17  1  0
 17 28  1  0
 17 18  1  6
 19 18  1  0
 20 19  2  0
 21 20  1  0
 22 21  1  0
 22 27  2  0
 23 22  1  0
 24 23  2  0
 24 25  1  0
 25 26  2  0
 26 27  1  0
 27 19  1  0
 28 29  2  0
 28 30  1  0
M  END
$$$$
