MPW.pdb
     RDKit          3D

 30 32  0  0  1  0  0  0  0  0999 V2000
    7.8875  -10.8725   18.4286 C   0  0  0  0  0  0  0  0  0  0  0  0
    8.8715  -12.3414   18.8560 S   0  0  0  0  0  0  0  0  0  0  0  0
    7.8169  -13.7990   19.0718 C   0  0  0  0  0  0  0  0  0  0  0  0
    8.6097  -14.9312   19.6483 C   0  0  0  0  0  0  0  0  0  0  0  0
    7.7893  -16.1841   19.8765 C   0  0  2  0  0  0  0  0  0  0  0  0
    6.4268  -15.9452   19.5484 N   0  0  0  0  0  0  0  0  0  0  0  0
    8.0790  -16.8416   21.1370 C   0  0  0  0  0  0  0  0  0  0  0  0
    7.3831  -16.4316   22.1392 O   0  0  0  0  0  0  0  0  0  0  0  0
    9.0366  -17.8797   21.4010 N   0  0  0  0  0  0  0  0  0  0  0  0
    9.7301  -18.5567   20.3481 C   0  0  0  0  0  0  0  0  0  0  0  0
   10.0845  -19.9208   20.9778 C   0  0  0  0  0  0  0  0  0  0  0  0
   10.3180  -19.5720   22.4214 C   0  0  0  0  0  0  0  0  0  0  0  0
    9.4311  -18.4000   22.6517 C   0  0  1  0  0  0  0  0  0  0  0  0
   10.0521  -17.4037   23.5648 C   0  0  0  0  0  0  0  0  0  0  0  0
   10.7601  -16.4636   23.1866 O   0  0  0  0  0  0  0  0  0  0  0  0
    9.8015  -17.5629   24.9470 N   0  0  0  0  0  0  0  0  0  0  0  0
   10.3599  -16.7008   25.9848 C   0  0  1  0  0  0  0  0  0  0  0  0
    9.9101  -15.3096   25.6326 C   0  0  0  0  0  0  0  0  0  0  0  0
    8.4963  -15.0144   25.9236 C   0  0  0  0  0  0  0  0  0  0  0  0
    7.4846  -15.9601   25.9180 C   0  0  0  0  0  0  0  0  0  0  0  0
    6.3241  -15.3438   26.1913 N   0  0  0  0  0  0  0  0  0  0  0  0
    6.5222  -14.0301   26.3788 C   0  0  0  0  0  0  0  0  0  0  0  0
    5.6408  -13.0107   26.6909 C   0  0  0  0  0  0  0  0  0  0  0  0
    6.1302  -11.7343   26.8444 C   0  0  0  0  0  0  0  0  0  0  0  0
    7.4777  -11.5191   26.6817 C   0  0  0  0  0  0  0  0  0  0  0  0
    8.3513  -12.5363   26.3703 C   0  0  0  0  0  0  0  0  0  0  0  0
    7.8839  -13.8140   26.2129 C   0  0  0  0  0  0  0  0  0  0  0  0
   10.0964  -17.1698   27.3226 C   0  0  0  0  0  0  0  0  0  0  0  0
    9.3074  -18.1150   27.5405 O   0  0  0  0  0  0  0  0  0  0  0  0
   10.7138  -16.5836   28.4169 O   0  0  0  0  0  0  0  0  0  0  0  0
  1  2  1  0
  2  3  1  0
  4  3  1  0
  4  5  1  0
  5  7  1  0
  5  6  1  1
  7  8  2  0
  9 13  1  0
  9  7  1  0
 10  9  1  0
 11 10  1  0
 11 12  1  0
 12 13  1  0
 13 14  1  6
 14 15  2  0
 16 14  1  0
 16 17  1  0
 17 28  1  0
 17 18  1  1
 19 18  1  0
 20 19  2  0
 21 20  1  0
 22 21  1  0
 22 27  2  0
 23 22  1  0
 24 23  2  0
 24 25  1  0
 25 26  2  0
 26 27  1  0
 27 19  1  0
 28 29  2  0
 28 30  1  0
M  END
$$$$
