MPW.pdb
     RDKit          3D

 30 32  0  0  1  0  0  0  0  0999 V2000
    2.8603  -20.3837   22.9297 C   0  0  0  0  0  0  0  0  0  0  0  0
    2.5295  -18.8757   21.9678 S   0  0  0  0  0  0  0  0  0  0  0  0
    3.7579  -18.6509   20.6549 C   0  0  0  0  0  0  0  0  0  0  0  0
    4.9842  -17.9871   21.2010 C   0  0  0  0  0  0  0  0  0  0  0  0
    6.0545  -17.7489   20.1557 C   0  0  2  0  0  0  0  0  0  0  0  0
    6.3277  -18.9524   19.4499 N   0  0  0  0  0  0  0  0  0  0  0  0
    7.1817  -16.9802   20.6492 C   0  0  0  0  0  0  0  0  0  0  0  0
    8.1342  -17.6766   21.1634 O   0  0  0  0  0  0  0  0  0  0  0  0
    7.3622  -15.5548   20.6361 N   0  0  0  0  0  0  0  0  0  0  0  0
    6.4309  -14.6788   19.9935 C   0  0  0  0  0  0  0  0  0  0  0  0
    7.2883  -13.4424   19.6488 C   0  0  0  0  0  0  0  0  0  0  0  0
    8.2667  -13.3856   20.7888 C   0  0  0  0  0  0  0  0  0  0  0  0
    8.4200  -14.8081   21.1965 C   0  0  1  0  0  0  0  0  0  0  0  0
    8.5621  -14.9520   22.6700 C   0  0  0  0  0  0  0  0  0  0  0  0
    7.7266  -14.5534   23.4891 O   0  0  0  0  0  0  0  0  0  0  0  0
    9.7346  -15.5884   23.1380 N   0  0  0  0  0  0  0  0  0  0  0  0
   10.1663  -15.5857   24.5328 C   0  0  1  0  0  0  0  0  0  0  0  0
    9.0778  -16.2965   25.2888 C   0  0  0  0  0  0  0  0  0  0  0  0
    7.8614  -15.5021   25.5333 C   0  0  0  0  0  0  0  0  0  0  0  0
    6.5813  -15.9127   25.2005 C   0  0  0  0  0  0  0  0  0  0  0  0
    5.7214  -14.9371   25.5319 N   0  0  0  0  0  0  0  0  0  0  0  0
    6.3756  -13.8970   26.0710 C   0  0  0  0  0  0  0  0  0  0  0  0
    5.9172  -12.6900   26.5672 C   0  0  0  0  0  0  0  0  0  0  0  0
    6.8264  -11.7981   27.0871 C   0  0  0  0  0  0  0  0  0  0  0  0
    8.1574  -12.1397   27.0940 C   0  0  0  0  0  0  0  0  0  0  0  0
    8.6095  -13.3417   26.5985 C   0  0  0  0  0  0  0  0  0  0  0  0
    7.7204  -14.2431   26.0762 C   0  0  0  0  0  0  0  0  0  0  0  0
   11.5193  -16.0498   24.7151 C   0  0  0  0  0  0  0  0  0  0  0  0
   12.0640  -16.0509   25.8406 O   0  0  0  0  0  0  0  0  0  0  0  0
   12.2638  -16.5125   23.6410 O   0  0  0  0  0  0  0  0  0  0  0  0
  1  2  1  0
  2  3  1  0
  4  3  1  0
  4  5  1  0
  5  7  1  0
  5  6  1  1
  7  8  2  0
  9 13  1  0
  9  7  1  0
 10  9  1  0
 11 10  1  0
 11 12  1  0
 12 13  1  0
 13 14  1  1
 14 15  2  0
 16 14  1  0
 16 17  1  0
 17 28  1  0
 17 18  1  1
 19 18  1  0
 20 19  2  0
 21 20  1  0
 22 21  1  0
 22 27  2  0
 23 22  1  0
 24 23  2  0
 24 25  1  0
 25 26  2  0
 26 27  1  0
 27 19  1  0
 28 29  2  0
 28 30  1  0
M  END
$$$$
