MPW.pdb
     RDKit          3D

 30 32  0  0  1  0  0  0  0  0999 V2000
    6.3617  -20.6758   20.1826 C   0  0  0  0  0  0  0  0  0  0  0  0
    7.7687  -19.5653   20.4923 S   0  0  0  0  0  0  0  0  0  0  0  0
    8.8138  -19.4025   19.0211 C   0  0  0  0  0  0  0  0  0  0  0  0
    8.4827  -18.1395   18.2877 C   0  0  0  0  0  0  0  0  0  0  0  0
    9.5968  -17.1136   18.3248 C   0  0  2  0  0  0  0  0  0  0  0  0
   10.8030  -17.6808   17.8303 N   0  0  0  0  0  0  0  0  0  0  0  0
    9.6559  -16.3711   19.5698 C   0  0  0  0  0  0  0  0  0  0  0  0
   10.7852  -16.4259   20.1851 O   0  0  0  0  0  0  0  0  0  0  0  0
    8.6212  -15.5935   20.1936 N   0  0  0  0  0  0  0  0  0  0  0  0
    7.3468  -15.3925   19.5745 C   0  0  0  0  0  0  0  0  0  0  0  0
    6.8598  -14.0637   20.1909 C   0  0  0  0  0  0  0  0  0  0  0  0
    7.4270  -14.1128   21.5823 C   0  0  0  0  0  0  0  0  0  0  0  0
    8.6687  -14.9183   21.4315 C   0  0  1  0  0  0  0  0  0  0  0  0
    8.9051  -15.8006   22.6053 C   0  0  0  0  0  0  0  0  0  0  0  0
    8.6107  -17.0006   22.6409 O   0  0  0  0  0  0  0  0  0  0  0  0
    9.5059  -15.2061   23.7386 N   0  0  0  0  0  0  0  0  0  0  0  0
    9.8626  -15.9345   24.9527 C   0  0  1  0  0  0  0  0  0  0  0  0
    9.5916  -14.9814   26.0840 C   0  0  0  0  0  0  0  0  0  0  0  0
    8.1746  -14.6316   26.2844 C   0  0  0  0  0  0  0  0  0  0  0  0
    7.1274  -15.5328   26.1890 C   0  0  0  0  0  0  0  0  0  0  0  0
    5.9773  -14.8728   26.3962 N   0  0  0  0  0  0  0  0  0  0  0  0
    6.2163  -13.5726   26.6258 C   0  0  0  0  0  0  0  0  0  0  0  0
    5.3584  -12.5226   26.8996 C   0  0  0  0  0  0  0  0  0  0  0  0
    5.8884  -11.2715   27.1144 C   0  0  0  0  0  0  0  0  0  0  0  0
    7.2516  -11.1111   27.0486 C   0  0  0  0  0  0  0  0  0  0  0  0
    8.1018  -12.1586   26.7751 C   0  0  0  0  0  0  0  0  0  0  0  0
    7.5939  -13.4118   26.5579 C   0  0  0  0  0  0  0  0  0  0  0  0
    9.2708  -17.2472   25.0285 C   0  0  0  0  0  0  0  0  0  0  0  0
    8.2066  -17.5200   24.4312 O   0  0  0  0  0  0  0  0  0  0  0  0
    9.8669  -18.2550   25.7708 O   0  0  0  0  0  0  0  0  0  0  0  0
  1  2  1  0
  2  3  1  0
  4  3  1  0
  4  5  1  0
  5  7  1  0
  5  6  1  1
  7  8  2  0
  9 13  1  0
  9  7  1  0
 10  9  1  0
 11 10  1  0
 11 12  1  0
 12 13  1  0
 13 14  1  1
 14 15  2  0
 16 14  1  0
 16 17  1  0
 17 28  1  0
 17 18  1  1
 19 18  1  0
 20 19  2  0
 21 20  1  0
 22 21  1  0
 22 27  2  0
 23 22  1  0
 24 23  2  0
 24 25  1  0
 25 26  2  0
 26 27  1  0
 27 19  1  0
 28 29  2  0
 28 30  1  0
M  END
$$$$
