MPW.pdb
     RDKit          3D

 30 32  0  0  1  0  0  0  0  0999 V2000
    7.9278  -10.9816   20.1639 C   0  0  0  0  0  0  0  0  0  0  0  0
    8.6092  -12.6560   20.3665 S   0  0  0  0  0  0  0  0  0  0  0  0
    8.0684  -13.7520   19.0288 C   0  0  0  0  0  0  0  0  0  0  0  0
    8.5711  -15.1430   19.2636 C   0  0  0  0  0  0  0  0  0  0  0  0
    7.5137  -16.0797   19.8109 C   0  0  2  0  0  0  0  0  0  0  0  0
    6.2217  -15.5084   19.6509 N   0  0  0  0  0  0  0  0  0  0  0  0
    7.8533  -16.6392   21.1057 C   0  0  0  0  0  0  0  0  0  0  0  0
    7.1480  -16.2039   22.0905 O   0  0  0  0  0  0  0  0  0  0  0  0
    8.8686  -17.6060   21.4200 N   0  0  0  0  0  0  0  0  0  0  0  0
    9.6699  -18.2206   20.4060 C   0  0  0  0  0  0  0  0  0  0  0  0
   10.0878  -19.5602   21.0489 C   0  0  0  0  0  0  0  0  0  0  0  0
   10.2114  -19.2079   22.5052 C   0  0  0  0  0  0  0  0  0  0  0  0
    9.2281  -18.1068   22.6890 C   0  0  1  0  0  0  0  0  0  0  0  0
    9.7199  -17.0754   23.6411 C   0  0  0  0  0  0  0  0  0  0  0  0
   10.2604  -16.0177   23.2989 O   0  0  0  0  0  0  0  0  0  0  0  0
    9.5462  -17.3447   25.0181 N   0  0  0  0  0  0  0  0  0  0  0  0
   10.2627  -16.6511   26.0846 C   0  0  1  0  0  0  0  0  0  0  0  0
    9.9471  -15.1930   25.8946 C   0  0  0  0  0  0  0  0  0  0  0  0
    8.5144  -14.8512   25.9284 C   0  0  0  0  0  0  0  0  0  0  0  0
    7.4891  -15.7810   25.8833 C   0  0  0  0  0  0  0  0  0  0  0  0
    6.3183  -15.1252   25.8995 N   0  0  0  0  0  0  0  0  0  0  0  0
    6.5224  -13.8002   25.9541 C   0  0  0  0  0  0  0  0  0  0  0  0
    5.6328  -12.7420   26.0021 C   0  0  0  0  0  0  0  0  0  0  0  0
    6.1289  -11.4608   26.0724 C   0  0  0  0  0  0  0  0  0  0  0  0
    7.4909  -11.2797   26.0923 C   0  0  0  0  0  0  0  0  0  0  0  0
    8.3728  -12.3355   26.0437 C   0  0  0  0  0  0  0  0  0  0  0  0
    7.8991  -13.6186   25.9730 C   0  0  0  0  0  0  0  0  0  0  0  0
   10.0369  -17.2191   27.3906 C   0  0  0  0  0  0  0  0  0  0  0  0
    9.2280  -18.1566   27.5648 O   0  0  0  0  0  0  0  0  0  0  0  0
   10.7141  -16.7406   28.5017 O   0  0  0  0  0  0  0  0  0  0  0  0
  1  2  1  0
  2  3  1  0
  4  3  1  0
  4  5  1  0
  5  7  1  0
  5  6  1  1
  7  8  2  0
  9 13  1  0
  9  7  1  0
 10  9  1  0
 11 10  1  0
 11 12  1  0
 12 13  1  0
 13 14  1  1
 14 15  2  0
 16 14  1  0
 16 17  1  0
 17 28  1  0
 17 18  1  1
 19 18  1  0
 20 19  2  0
 21 20  1  0
 22 21  1  0
 22 27  2  0
 23 22  1  0
 24 23  2  0
 24 25  1  0
 25 26  2  0
 26 27  1  0
 27 19  1  0
 28 29  2  0
 28 30  1  0
M  END
$$$$
