MPW.pdb
     RDKit          3D

 30 32  0  0  1  0  0  0  0  0999 V2000
    8.1752  -11.6927   18.8237 C   0  0  0  0  0  0  0  0  0  0  0  0
    8.0824  -12.2549   20.5512 S   0  0  0  0  0  0  0  0  0  0  0  0
    8.1966  -14.0599   20.6620 C   0  0  0  0  0  0  0  0  0  0  0  0
    6.8373  -14.6741   20.5290 C   0  0  0  0  0  0  0  0  0  0  0  0
    6.8690  -16.1843   20.4143 C   0  0  2  0  0  0  0  0  0  0  0  0
    5.5507  -16.6923   20.2555 N   0  0  0  0  0  0  0  0  0  0  0  0
    7.7278  -16.8193   21.3962 C   0  0  0  0  0  0  0  0  0  0  0  0
    7.2582  -16.8494   22.5942 O   0  0  0  0  0  0  0  0  0  0  0  0
    9.0227  -17.4097   21.1985 N   0  0  0  0  0  0  0  0  0  0  0  0
    9.6078  -17.5354   19.8986 C   0  0  0  0  0  0  0  0  0  0  0  0
   10.5712  -18.7308   20.0583 C   0  0  0  0  0  0  0  0  0  0  0  0
   11.0370  -18.5969   21.4815 C   0  0  0  0  0  0  0  0  0  0  0  0
    9.8882  -17.9516   22.1721 C   0  0  1  0  0  0  0  0  0  0  0  0
   10.3353  -16.9812   23.2067 C   0  0  0  0  0  0  0  0  0  0  0  0
   10.8943  -15.9078   22.9549 O   0  0  0  0  0  0  0  0  0  0  0  0
   10.0939  -17.3309   24.5551 N   0  0  0  0  0  0  0  0  0  0  0  0
   10.5263  -16.5318   25.6981 C   0  0  1  0  0  0  0  0  0  0  0  0
   10.0405  -15.1367   25.4162 C   0  0  0  0  0  0  0  0  0  0  0  0
    8.5901  -14.9328   25.5755 C   0  0  0  0  0  0  0  0  0  0  0  0
    7.6393  -15.9252   25.4051 C   0  0  0  0  0  0  0  0  0  0  0  0
    6.4241  -15.3876   25.5934 N   0  0  0  0  0  0  0  0  0  0  0  0
    6.5276  -14.0814   25.8821 C   0  0  0  0  0  0  0  0  0  0  0  0
    5.5628  -13.1308   26.1632 C   0  0  0  0  0  0  0  0  0  0  0  0
    5.9611  -11.8448   26.4464 C   0  0  0  0  0  0  0  0  0  0  0  0
    7.3037  -11.5522   26.4393 C   0  0  0  0  0  0  0  0  0  0  0  0
    8.2605  -12.5010   26.1582 C   0  0  0  0  0  0  0  0  0  0  0  0
    7.8846  -13.7868   25.8734 C   0  0  0  0  0  0  0  0  0  0  0  0
   10.1797  -17.1159   26.9700 C   0  0  0  0  0  0  0  0  0  0  0  0
    9.3925  -18.0840   27.0520 O   0  0  0  0  0  0  0  0  0  0  0  0
   10.7119  -16.6194   28.1500 O   0  0  0  0  0  0  0  0  0  0  0  0
  1  2  1  0
  2  3  1  0
  4  3  1  0
  4  5  1  0
  5  7  1  0
  5  6  1  1
  7  8  2  0
  9 13  1  0
  9  7  1  0
 10  9  1  0
 11 10  1  0
 11 12  1  0
 12 13  1  0
 13 14  1  1
 14 15  2  0
 16 14  1  0
 16 17  1  0
 17 28  1  0
 17 18  1  6
 19 18  1  0
 20 19  2  0
 21 20  1  0
 22 21  1  0
 22 27  2  0
 23 22  1  0
 24 23  2  0
 24 25  1  0
 25 26  2  0
 26 27  1  0
 27 19  1  0
 28 29  2  0
 28 30  1  0
M  END
$$$$
