MPW.pdb
     RDKit          3D

 30 32  0  0  1  0  0  0  0  0999 V2000
   13.8448  -14.5339   19.2918 C   0  0  0  0  0  0  0  0  0  0  0  0
   13.2422  -13.3656   18.0345 S   0  0  0  0  0  0  0  0  0  0  0  0
   11.4621  -13.5593   17.7568 C   0  0  0  0  0  0  0  0  0  0  0  0
   10.8109  -14.1552   18.9666 C   0  0  0  0  0  0  0  0  0  0  0  0
    9.3011  -14.2246   18.8634 C   0  0  2  0  0  0  0  0  0  0  0  0
    8.7721  -12.9460   18.5369 N   0  0  0  0  0  0  0  0  0  0  0  0
    8.6818  -14.9582   19.9512 C   0  0  0  0  0  0  0  0  0  0  0  0
    8.1228  -14.2291   20.8527 O   0  0  0  0  0  0  0  0  0  0  0  0
    8.6183  -16.3805   20.1442 N   0  0  0  0  0  0  0  0  0  0  0  0
    8.8011  -17.3009   19.0638 C   0  0  0  0  0  0  0  0  0  0  0  0
    8.0310  -18.5539   19.5323 C   0  0  0  0  0  0  0  0  0  0  0  0
    8.2304  -18.5312   21.0222 C   0  0  0  0  0  0  0  0  0  0  0  0
    8.3655  -17.0843   21.3406 C   0  0  1  0  0  0  0  0  0  0  0  0
    9.3610  -16.8428   22.4189 C   0  0  0  0  0  0  0  0  0  0  0  0
   10.4800  -16.3519   22.2320 O   0  0  0  0  0  0  0  0  0  0  0  0
    8.9796  -17.2053   23.7311 N   0  0  0  0  0  0  0  0  0  0  0  0
    9.5963  -16.6681   24.9407 C   0  0  1  0  0  0  0  0  0  0  0  0
    9.2835  -15.1971   24.9285 C   0  0  0  0  0  0  0  0  0  0  0  0
    8.0005  -14.8230   25.5486 C   0  0  0  0  0  0  0  0  0  0  0  0
    6.9150  -15.6744   25.6703 C   0  0  0  0  0  0  0  0  0  0  0  0
    5.9088  -15.0015   26.2498 N   0  0  0  0  0  0  0  0  0  0  0  0
    6.2800  -13.7405   26.5187 C   0  0  0  0  0  0  0  0  0  0  0  0
    5.5960  -12.6964   27.1149 C   0  0  0  0  0  0  0  0  0  0  0  0
    6.2394  -11.4922   27.2836 C   0  0  0  0  0  0  0  0  0  0  0  0
    7.5387  -11.3712   26.8530 C   0  0  0  0  0  0  0  0  0  0  0  0
    8.2155  -12.4126   26.2594 C   0  0  0  0  0  0  0  0  0  0  0  0
    7.5926  -13.6193   26.0820 C   0  0  0  0  0  0  0  0  0  0  0  0
    9.2665  -17.4117   26.1312 C   0  0  0  0  0  0  0  0  0  0  0  0
    8.2614  -18.1540   26.1808 O   0  0  0  0  0  0  0  0  0  0  0  0
   10.0585  -17.3266   27.2659 O   0  0  0  0  0  0  0  0  0  0  0  0
  1  2  1  0
  2  3  1  0
  4  3  1  0
  4  5  1  0
  5  7  1  0
  5  6  1  1
  7  8  2  0
  9 13  1  0
  9  7  1  0
 10  9  1  0
 11 10  1  0
 11 12  1  0
 12 13  1  0
 13 14  1  1
 14 15  2  0
 16 14  1  0
 16 17  1  0
 17 28  1  0
 17 18  1  1
 19 18  1  0
 20 19  2  0
 21 20  1  0
 22 21  1  0
 22 27  2  0
 23 22  1  0
 24 23  2  0
 24 25  1  0
 25 26  2  0
 26 27  1  0
 27 19  1  0
 28 29  2  0
 28 30  1  0
M  END
$$$$
