MPW.pdb
     RDKit          3D

 30 32  0  0  1  0  0  0  0  0999 V2000
    7.7427  -13.2872   28.0451 C   0  0  0  0  0  0  0  0  0  0  0  0
    7.0047  -12.9629   26.4145 S   0  0  0  0  0  0  0  0  0  0  0  0
    7.3663  -14.3039   25.2509 C   0  0  0  0  0  0  0  0  0  0  0  0
    6.5584  -15.5178   25.5920 C   0  0  0  0  0  0  0  0  0  0  0  0
    6.4796  -16.5241   24.4623 C   0  0  2  0  0  0  0  0  0  0  0  0
    5.7080  -17.6497   24.8605 N   0  0  0  0  0  0  0  0  0  0  0  0
    7.7564  -16.7694   23.8184 C   0  0  0  0  0  0  0  0  0  0  0  0
    8.5027  -17.6417   24.4005 O   0  0  0  0  0  0  0  0  0  0  0  0
    8.2842  -16.1645   22.6268 N   0  0  0  0  0  0  0  0  0  0  0  0
    7.5431  -15.1983   21.8751 C   0  0  0  0  0  0  0  0  0  0  0  0
    8.1269  -15.3333   20.4526 C   0  0  0  0  0  0  0  0  0  0  0  0
    9.5674  -15.6752   20.7134 C   0  0  0  0  0  0  0  0  0  0  0  0
    9.5305  -16.4035   22.0101 C   0  0  1  0  0  0  0  0  0  0  0  0
   10.7089  -16.0857   22.8601 C   0  0  0  0  0  0  0  0  0  0  0  0
   11.2535  -14.9768   22.9034 O   0  0  0  0  0  0  0  0  0  0  0  0
   11.2190  -17.1339   23.6599 N   0  0  0  0  0  0  0  0  0  0  0  0
   12.4559  -17.0477   24.4310 C   0  0  1  0  0  0  0  0  0  0  0  0
   12.3027  -15.8268   25.2957 C   0  0  0  0  0  0  0  0  0  0  0  0
   11.2735  -15.9259   26.3451 C   0  0  0  0  0  0  0  0  0  0  0  0
   10.3499  -16.9536   26.4377 C   0  0  0  0  0  0  0  0  0  0  0  0
    9.5474  -16.7119   27.4859 N   0  0  0  0  0  0  0  0  0  0  0  0
    9.8991  -15.5685   28.0934 C   0  0  0  0  0  0  0  0  0  0  0  0
    9.3801  -14.9300   29.2053 C   0  0  0  0  0  0  0  0  0  0  0  0
    9.9590  -13.7552   29.6263 C   0  0  0  0  0  0  0  0  0  0  0  0
   11.0322  -13.2592   28.9259 C   0  0  0  0  0  0  0  0  0  0  0  0
   11.5452  -13.8974   27.8193 C   0  0  0  0  0  0  0  0  0  0  0  0
   10.9828  -15.0678   27.3839 C   0  0  0  0  0  0  0  0  0  0  0  0
   12.8150  -18.2848   25.0789 C   0  0  0  0  0  0  0  0  0  0  0  0
   13.8781  -18.3986   25.7273 O   0  0  0  0  0  0  0  0  0  0  0  0
   11.9873  -19.3944   25.0031 O   0  0  0  0  0  0  0  0  0  0  0  0
  1  2  1  0
  2  3  1  0
  4  3  1  0
  4  5  1  0
  5  7  1  0
  5  6  1  1
  7  8  2  0
  9 13  1  0
  9  7  1  0
 10  9  1  0
 11 10  1  0
 11 12  1  0
 12 13  1  0
 13 14  1  1
 14 15  2  0
 16 14  1  0
 16 17  1  0
 17 28  1  0
 17 18  1  1
 19 18  1  0
 20 19  2  0
 21 20  1  0
 22 21  1  0
 22 27  2  0
 23 22  1  0
 24 23  2  0
 24 25  1  0
 25 26  2  0
 26 27  1  0
 27 19  1  0
 28 29  2  0
 28 30  1  0
M  END
$$$$
