MPW.pdb
     RDKit          3D

 30 32  0  0  1  0  0  0  0  0999 V2000
    7.7943  -11.2291   20.8455 C   0  0  0  0  0  0  0  0  0  0  0  0
    8.0341  -12.0313   19.2306 S   0  0  0  0  0  0  0  0  0  0  0  0
    7.5060  -13.7641   19.2726 C   0  0  0  0  0  0  0  0  0  0  0  0
    8.0194  -14.4323   20.5106 C   0  0  0  0  0  0  0  0  0  0  0  0
    7.4844  -15.8367   20.7013 C   0  0  2  0  0  0  0  0  0  0  0  0
    6.0668  -15.8408   20.5926 N   0  0  0  0  0  0  0  0  0  0  0  0
    8.0814  -16.5337   21.8250 C   0  0  0  0  0  0  0  0  0  0  0  0
    7.3563  -16.5781   22.8875 O   0  0  0  0  0  0  0  0  0  0  0  0
    9.3672  -17.1708   21.8971 N   0  0  0  0  0  0  0  0  0  0  0  0
   10.1986  -17.3325   20.7436 C   0  0  0  0  0  0  0  0  0  0  0  0
   11.0656  -18.5584   21.1016 C   0  0  0  0  0  0  0  0  0  0  0  0
   11.2380  -18.4231   22.5890 C   0  0  0  0  0  0  0  0  0  0  0  0
    9.9973  -17.7301   23.0288 C   0  0  1  0  0  0  0  0  0  0  0  0
   10.2603  -16.7630   24.1277 C   0  0  0  0  0  0  0  0  0  0  0  0
   10.7420  -15.6371   23.9597 O   0  0  0  0  0  0  0  0  0  0  0  0
    9.9296  -17.1810   25.4372 N   0  0  0  0  0  0  0  0  0  0  0  0
   10.5243  -16.6242   26.6489 C   0  0  1  0  0  0  0  0  0  0  0  0
   10.0705  -15.1911   26.6939 C   0  0  0  0  0  0  0  0  0  0  0  0
    8.6134  -14.9910   26.6092 C   0  0  0  0  0  0  0  0  0  0  0  0
    7.6865  -16.0186   26.5559 C   0  0  0  0  0  0  0  0  0  0  0  0
    6.4610  -15.4817   26.4509 N   0  0  0  0  0  0  0  0  0  0  0  0
    6.5346  -14.1421   26.4331 C   0  0  0  0  0  0  0  0  0  0  0  0
    5.5479  -13.1760   26.3524 C   0  0  0  0  0  0  0  0  0  0  0  0
    5.9143  -11.8502   26.3726 C   0  0  0  0  0  0  0  0  0  0  0  0
    7.2481  -11.5346   26.4721 C   0  0  0  0  0  0  0  0  0  0  0  0
    8.2269  -12.4992   26.5514 C   0  0  0  0  0  0  0  0  0  0  0  0
    7.8828  -13.8247   26.5324 C   0  0  0  0  0  0  0  0  0  0  0  0
   10.3005  -17.4332   27.8213 C   0  0  0  0  0  0  0  0  0  0  0  0
    9.5978  -18.4666   27.7781 O   0  0  0  0  0  0  0  0  0  0  0  0
   10.8611  -17.0886   29.0416 O   0  0  0  0  0  0  0  0  0  0  0  0
  1  2  1  0
  2  3  1  0
  4  3  1  0
  4  5  1  0
  5  7  1  0
  5  6  1  1
  7  8  2  0
  9 13  1  0
  9  7  1  0
 10  9  1  0
 11 10  1  0
 11 12  1  0
 12 13  1  0
 13 14  1  1
 14 15  2  0
 16 14  1  0
 16 17  1  0
 17 28  1  0
 17 18  1  1
 19 18  1  0
 20 19  2  0
 21 20  1  0
 22 21  1  0
 22 27  2  0
 23 22  1  0
 24 23  2  0
 24 25  1  0
 25 26  2  0
 26 27  1  0
 27 19  1  0
 28 29  2  0
 28 30  1  0
M  END
$$$$
