MPW.pdb
     RDKit          3D

 30 32  0  0  1  0  0  0  0  0999 V2000
    2.5335  -20.2123   24.0051 C   0  0  0  0  0  0  0  0  0  0  0  0
    2.0731  -18.8735   22.8629 S   0  0  0  0  0  0  0  0  0  0  0  0
    3.2045  -18.7972   21.4496 C   0  0  0  0  0  0  0  0  0  0  0  0
    4.4036  -17.9671   21.7901 C   0  0  0  0  0  0  0  0  0  0  0  0
    5.4981  -18.0354   20.7449 C   0  0  2  0  0  0  0  0  0  0  0  0
    5.5761  -19.3465   20.2009 N   0  0  0  0  0  0  0  0  0  0  0  0
    6.7333  -17.3980   21.1609 C   0  0  0  0  0  0  0  0  0  0  0  0
    7.5772  -18.1733   21.7470 O   0  0  0  0  0  0  0  0  0  0  0  0
    7.1245  -16.0246   21.0026 N   0  0  0  0  0  0  0  0  0  0  0  0
    6.3013  -15.0763   20.3164 C   0  0  0  0  0  0  0  0  0  0  0  0
    7.3142  -14.0230   19.8191 C   0  0  0  0  0  0  0  0  0  0  0  0
    8.3511  -14.0163   20.9077 C   0  0  0  0  0  0  0  0  0  0  0  0
    8.3115  -15.4031   21.4446 C   0  0  1  0  0  0  0  0  0  0  0  0
    8.5109  -15.4346   22.9182 C   0  0  0  0  0  0  0  0  0  0  0  0
    7.6683  -15.0570   23.7400 O   0  0  0  0  0  0  0  0  0  0  0  0
    9.7497  -15.9326   23.3830 N   0  0  0  0  0  0  0  0  0  0  0  0
   10.2529  -15.7383   24.7399 C   0  0  1  0  0  0  0  0  0  0  0  0
    9.2454  -16.4018   25.6379 C   0  0  0  0  0  0  0  0  0  0  0  0
    7.9835  -15.6634   25.8192 C   0  0  0  0  0  0  0  0  0  0  0  0
    6.7293  -16.1826   25.5450 C   0  0  0  0  0  0  0  0  0  0  0  0
    5.8125  -15.2337   25.7904 N   0  0  0  0  0  0  0  0  0  0  0  0
    6.4043  -14.1073   26.2164 C   0  0  0  0  0  0  0  0  0  0  0  0
    5.8749  -12.8876   26.5979 C   0  0  0  0  0  0  0  0  0  0  0  0
    6.7303  -11.8947   27.0159 C   0  0  0  0  0  0  0  0  0  0  0  0
    8.0801  -12.1516   27.0389 C   0  0  0  0  0  0  0  0  0  0  0  0
    8.6028  -13.3666   26.6577 C   0  0  0  0  0  0  0  0  0  0  0  0
    7.7681  -14.3680   26.2379 C   0  0  0  0  0  0  0  0  0  0  0  0
   11.6367  -16.1119   24.8971 C   0  0  0  0  0  0  0  0  0  0  0  0
   12.2085  -16.0497   26.0074 O   0  0  0  0  0  0  0  0  0  0  0  0
   12.3818  -16.5549   23.8151 O   0  0  0  0  0  0  0  0  0  0  0  0
  1  2  1  0
  2  3  1  0
  4  3  1  0
  4  5  1  0
  5  7  1  0
  5  6  1  1
  7  8  2  0
  9 13  1  0
  9  7  1  0
 10  9  1  0
 11 10  1  0
 11 12  1  0
 12 13  1  0
 13 14  1  1
 14 15  2  0
 16 14  1  0
 16 17  1  0
 17 28  1  0
 17 18  1  1
 19 18  1  0
 20 19  2  0
 21 20  1  0
 22 21  1  0
 22 27  2  0
 23 22  1  0
 24 23  2  0
 24 25  1  0
 25 26  2  0
 26 27  1  0
 27 19  1  0
 28 29  2  0
 28 30  1  0
M  END
$$$$
