MPW.pdb
     RDKit          3D

 30 32  0  0  1  0  0  0  0  0999 V2000
    6.9572  -12.2426   26.0566 C   0  0  0  0  0  0  0  0  0  0  0  0
    6.7134  -13.7095   27.1043 S   0  0  0  0  0  0  0  0  0  0  0  0
    7.2817  -15.2145   26.2705 C   0  0  0  0  0  0  0  0  0  0  0  0
    6.4004  -15.5221   25.0994 C   0  0  0  0  0  0  0  0  0  0  0  0
    6.6577  -16.8878   24.4963 C   0  0  2  0  0  0  0  0  0  0  0  0
    6.2936  -17.9076   25.4176 N   0  0  0  0  0  0  0  0  0  0  0  0
    7.9469  -16.9947   23.8395 C   0  0  0  0  0  0  0  0  0  0  0  0
    8.7839  -17.7917   24.4060 O   0  0  0  0  0  0  0  0  0  0  0  0
    8.3990  -16.3271   22.6502 N   0  0  0  0  0  0  0  0  0  0  0  0
    7.5649  -15.4144   21.9298 C   0  0  0  0  0  0  0  0  0  0  0  0
    8.1307  -15.4752   20.4949 C   0  0  0  0  0  0  0  0  0  0  0  0
    9.5996  -15.6985   20.7240 C   0  0  0  0  0  0  0  0  0  0  0  0
    9.6489  -16.4493   22.0074 C   0  0  1  0  0  0  0  0  0  0  0  0
   10.8124  -16.0475   22.8423 C   0  0  0  0  0  0  0  0  0  0  0  0
   11.4891  -15.0320   22.6454 O   0  0  0  0  0  0  0  0  0  0  0  0
   11.1447  -16.8964   23.9229 N   0  0  0  0  0  0  0  0  0  0  0  0
   12.1947  -16.6097   24.8961 C   0  0  1  0  0  0  0  0  0  0  0  0
   11.8909  -15.2318   25.4167 C   0  0  0  0  0  0  0  0  0  0  0  0
   10.9298  -15.1800   26.5321 C   0  0  0  0  0  0  0  0  0  0  0  0
   10.9781  -16.0059   27.6428 C   0  0  0  0  0  0  0  0  0  0  0  0
    9.9386  -15.7106   28.4386 N   0  0  0  0  0  0  0  0  0  0  0  0
    9.2030  -14.7238   27.9044 C   0  0  0  0  0  0  0  0  0  0  0  0
    8.0636  -14.0863   28.3614 C   0  0  0  0  0  0  0  0  0  0  0  0
    7.5189  -13.0762   27.6027 C   0  0  0  0  0  0  0  0  0  0  0  0
    8.1274  -12.7380   26.4179 C   0  0  0  0  0  0  0  0  0  0  0  0
    9.2607  -13.3755   25.9664 C   0  0  0  0  0  0  0  0  0  0  0  0
    9.8182  -14.3839   26.7067 C   0  0  0  0  0  0  0  0  0  0  0  0
   12.3834  -17.6627   25.8629 C   0  0  0  0  0  0  0  0  0  0  0  0
   11.5927  -18.6283   25.9405 O   0  0  0  0  0  0  0  0  0  0  0  0
   13.4547  -17.6378   26.7426 O   0  0  0  0  0  0  0  0  0  0  0  0
  1  2  1  0
  2  3  1  0
  4  3  1  0
  4  5  1  0
  5  7  1  0
  5  6  1  1
  7  8  2  0
  9 13  1  0
  9  7  1  0
 10  9  1  0
 11 10  1  0
 11 12  1  0
 12 13  1  0
 13 14  1  1
 14 15  2  0
 16 14  1  0
 16 17  1  0
 17 28  1  0
 17 18  1  1
 19 18  1  0
 20 19  2  0
 21 20  1  0
 22 21  1  0
 22 27  2  0
 23 22  1  0
 24 23  2  0
 24 25  1  0
 25 26  2  0
 26 27  1  0
 27 19  1  0
 28 29  2  0
 28 30  1  0
M  END
$$$$
