IFT.pdb
     RDKit          3D

 27 27  0  0  1  0  0  0  0  0999 V2000
    8.5342  -19.5188   18.0457 C   0  0  0  0  0  0  0  0  0  0  0  0
    8.3489  -18.0235   18.2192 C   0  0  0  0  0  0  0  0  0  0  0  0
    8.7316  -17.5826   19.6298 C   0  0  2  0  0  0  0  0  0  0  0  0
    7.9255  -18.4213   20.5823 C   0  0  0  0  0  0  0  0  0  0  0  0
    8.4226  -16.1187   19.7277 C   0  0  2  0  0  0  0  0  0  0  0  0
    9.0936  -15.4437   18.6347 N   0  0  0  0  0  0  0  0  0  0  0  0
    8.8113  -15.5473   21.0485 C   0  0  0  0  0  0  0  0  0  0  0  0
    9.9743  -15.2876   21.3637 O   0  0  0  0  0  0  0  0  0  0  0  0
    7.7641  -15.2989   21.9741 N   0  0  0  0  0  0  0  0  0  0  0  0
    7.9367  -14.8278   23.3154 C   0  0  1  0  0  0  0  0  0  0  0  0
    6.7867  -14.0022   23.8015 C   0  0  0  0  0  0  0  0  0  0  0  0
    7.0083  -13.4328   25.1409 C   0  0  0  0  0  0  0  0  0  0  0  0
    6.6312  -14.1249   26.2680 C   0  0  0  0  0  0  0  0  0  0  0  0
    6.8301  -13.6076   27.5427 C   0  0  0  0  0  0  0  0  0  0  0  0
    7.4176  -12.3724   27.7194 C   0  0  0  0  0  0  0  0  0  0  0  0
    7.7963  -11.6769   26.5953 C   0  0  0  0  0  0  0  0  0  0  0  0
    7.5927  -12.2023   25.3378 C   0  0  0  0  0  0  0  0  0  0  0  0
    8.2895  -15.8569   24.3083 C   0  0  0  0  0  0  0  0  0  0  0  0
    7.4871  -16.7189   24.7178 O   0  0  0  0  0  0  0  0  0  0  0  0
   11.1871  -18.1561   23.8829 C   0  0  0  0  0  0  0  0  0  0  0  0
   11.4036  -17.4904   25.2284 C   0  0  1  0  0  0  0  0  0  0  0  0
   12.3509  -16.4876   25.0999 O   0  0  0  0  0  0  0  0  0  0  0  0
   10.0623  -16.9374   25.7273 C   0  0  2  0  0  0  0  0  0  0  0  0
    9.6078  -15.8750   24.8284 N   0  0  0  0  0  0  0  0  0  0  0  0
   10.3100  -16.3824   27.0753 C   0  0  0  0  0  0  0  0  0  0  0  0
   10.5978  -17.2330   28.1270 O   0  0  0  0  0  0  0  0  0  0  0  0
   10.2582  -15.1573   27.2550 O   0  0  0  0  0  0  0  0  0  0  0  0
  2  1  1  0
  3  2  1  0
  3  4  1  1
  5  3  1  0
  5  6  1  6
  7  8  2  0
  7  5  1  0
  9  7  1  0
 10  9  1  0
 11 12  1  0
 10 11  1  1
 12 13  2  0
 12 17  1  0
 13 14  1  0
 14 15  2  0
 16 15  1  0
 17 16  2  0
 18 24  1  0
 18 10  1  0
 19 18  2  0
 21 20  1  6
 22 21  1  0
 23 24  1  6
 23 21  1  0
 25 23  1  0
 26 25  1  0
 27 25  2  0
M  END
$$$$
