IFT.pdb
     RDKit          3D

 27 27  0  0  1  0  0  0  0  0999 V2000
    7.8590  -18.9783   18.2242 C   0  0  0  0  0  0  0  0  0  0  0  0
    7.9390  -17.5020   18.5624 C   0  0  0  0  0  0  0  0  0  0  0  0
    8.5264  -17.2885   19.9552 C   0  0  2  0  0  0  0  0  0  0  0  0
    7.6884  -18.0931   20.9096 C   0  0  0  0  0  0  0  0  0  0  0  0
    8.4780  -15.8148   20.2275 C   0  0  2  0  0  0  0  0  0  0  0  0
    9.1396  -15.1336   19.1326 N   0  0  0  0  0  0  0  0  0  0  0  0
    9.0871  -15.4638   21.5420 C   0  0  0  0  0  0  0  0  0  0  0  0
   10.3020  -15.3713   21.7278 O   0  0  0  0  0  0  0  0  0  0  0  0
    8.1950  -15.2286   22.6209 N   0  0  0  0  0  0  0  0  0  0  0  0
    8.5794  -15.0123   23.9833 C   0  0  1  0  0  0  0  0  0  0  0  0
    7.5850  -14.2010   24.7534 C   0  0  0  0  0  0  0  0  0  0  0  0
    8.0139  -13.9169   26.1329 C   0  0  0  0  0  0  0  0  0  0  0  0
    7.5144  -14.6462   27.1864 C   0  0  0  0  0  0  0  0  0  0  0  0
    7.9044  -14.3962   28.4970 C   0  0  0  0  0  0  0  0  0  0  0  0
    8.8132  -13.3997   28.7850 C   0  0  0  0  0  0  0  0  0  0  0  0
    9.3152  -12.6679   27.7347 C   0  0  0  0  0  0  0  0  0  0  0  0
    8.9194  -12.9270   26.4405 C   0  0  0  0  0  0  0  0  0  0  0  0
    8.9527  -16.2219   24.7363 C   0  0  0  0  0  0  0  0  0  0  0  0
    8.1540  -17.1445   24.9923 O   0  0  0  0  0  0  0  0  0  0  0  0
   11.4318  -18.5763   23.6873 C   0  0  0  0  0  0  0  0  0  0  0  0
   11.9299  -18.1614   25.0584 C   0  0  1  0  0  0  0  0  0  0  0  0
   12.9597  -17.2453   24.9176 O   0  0  0  0  0  0  0  0  0  0  0  0
   10.7568  -17.5722   25.8525 C   0  0  2  0  0  0  0  0  0  0  0  0
   10.2873  -16.3510   25.1955 N   0  0  0  0  0  0  0  0  0  0  0  0
   11.2779  -17.2496   27.1981 C   0  0  0  0  0  0  0  0  0  0  0  0
   11.6719  -18.2689   28.0456 O   0  0  0  0  0  0  0  0  0  0  0  0
   11.3587  -16.0667   27.5591 O   0  0  0  0  0  0  0  0  0  0  0  0
  2  1  1  0
  3  2  1  0
  3  4  1  1
  5  3  1  0
  5  6  1  6
  7  8  2  0
  7  5  1  0
  9  7  1  0
 10  9  1  0
 11 12  1  0
 10 11  1  1
 12 13  2  0
 12 17  1  0
 13 14  1  0
 14 15  2  0
 16 15  1  0
 17 16  2  0
 18 24  1  0
 18 10  1  0
 19 18  2  0
 21 20  1  6
 22 21  1  0
 23 24  1  6
 23 21  1  0
 25 23  1  0
 26 25  1  0
 27 25  2  0
M  END
$$$$
