IFT.pdb
     RDKit          3D

 27 27  0  0  1  0  0  0  0  0999 V2000
    8.8167  -20.2214   20.6268 C   0  0  0  0  0  0  0  0  0  0  0  0
    9.2191  -18.7655   20.4898 C   0  0  0  0  0  0  0  0  0  0  0  0
    8.0606  -17.9227   19.9624 C   0  0  2  0  0  0  0  0  0  0  0  0
    7.6578  -18.5143   18.6402 C   0  0  0  0  0  0  0  0  0  0  0  0
    8.5625  -16.5144   19.8490 C   0  0  2  0  0  0  0  0  0  0  0  0
    9.6935  -16.5119   18.9428 N   0  0  0  0  0  0  0  0  0  0  0  0
    8.9189  -15.9342   21.1751 C   0  0  0  0  0  0  0  0  0  0  0  0
   10.0555  -15.9675   21.6509 O   0  0  0  0  0  0  0  0  0  0  0  0
    7.8721  -15.3157   21.9079 N   0  0  0  0  0  0  0  0  0  0  0  0
    7.9839  -14.7990   23.2387 C   0  0  1  0  0  0  0  0  0  0  0  0
    6.9666  -13.7456   23.5482 C   0  0  0  0  0  0  0  0  0  0  0  0
    7.0823  -13.2132   24.9159 C   0  0  0  0  0  0  0  0  0  0  0  0
    8.1002  -12.3503   25.2484 C   0  0  0  0  0  0  0  0  0  0  0  0
    8.2298  -11.8349   26.5328 C   0  0  0  0  0  0  0  0  0  0  0  0
    7.3332  -12.1757   27.5238 C   0  0  0  0  0  0  0  0  0  0  0  0
    6.3138  -13.0383   27.1958 C   0  0  0  0  0  0  0  0  0  0  0  0
    6.1980  -13.5413   25.9182 C   0  0  0  0  0  0  0  0  0  0  0  0
    8.0230  -15.8093   24.3098 C   0  0  0  0  0  0  0  0  0  0  0  0
    7.0355  -16.4927   24.6448 O   0  0  0  0  0  0  0  0  0  0  0  0
    9.8472  -18.7877   24.1523 C   0  0  0  0  0  0  0  0  0  0  0  0
   10.4307  -18.1275   25.3868 C   0  0  1  0  0  0  0  0  0  0  0  0
   11.6229  -17.5037   25.0566 O   0  0  0  0  0  0  0  0  0  0  0  0
    9.4076  -17.1285   25.9428 C   0  0  2  0  0  0  0  0  0  0  0  0
    9.2434  -16.0218   24.9986 N   0  0  0  0  0  0  0  0  0  0  0  0
    9.9613  -16.6229   27.2172 C   0  0  0  0  0  0  0  0  0  0  0  0
   10.0191  -17.4551   28.3202 O   0  0  0  0  0  0  0  0  0  0  0  0
   10.3707  -15.4554   27.2898 O   0  0  0  0  0  0  0  0  0  0  0  0
  2  1  1  0
  3  2  1  0
  3  4  1  6
  5  3  1  0
  5  6  1  6
  7  8  2  0
  7  5  1  0
  9  7  1  0
 10  9  1  0
 11 12  1  0
 10 11  1  1
 12 13  2  0
 12 17  1  0
 13 14  1  0
 14 15  2  0
 16 15  1  0
 17 16  2  0
 18 24  1  0
 18 10  1  0
 19 18  2  0
 21 20  1  6
 22 21  1  0
 23 24  1  6
 23 21  1  0
 25 23  1  0
 26 25  1  0
 27 25  2  0
M  END
$$$$
