IFT.pdb
     RDKit          3D

 27 27  0  0  1  0  0  0  0  0999 V2000
    9.0861  -20.5506   20.9829 C   0  0  0  0  0  0  0  0  0  0  0  0
    9.3903  -19.0790   20.7776 C   0  0  0  0  0  0  0  0  0  0  0  0
    8.1482  -18.3202   20.3173 C   0  0  2  0  0  0  0  0  0  0  0  0
    7.6660  -18.9940   19.0627 C   0  0  0  0  0  0  0  0  0  0  0  0
    8.5634  -16.8962   20.0986 C   0  0  2  0  0  0  0  0  0  0  0  0
    9.6452  -16.8865   19.1342 N   0  0  0  0  0  0  0  0  0  0  0  0
    8.9533  -16.2209   21.3691 C   0  0  0  0  0  0  0  0  0  0  0  0
   10.1145  -16.1531   21.7770 O   0  0  0  0  0  0  0  0  0  0  0  0
    7.9095  -15.6327   22.1304 N   0  0  0  0  0  0  0  0  0  0  0  0
    8.0657  -15.0096   23.4103 C   0  0  1  0  0  0  0  0  0  0  0  0
    6.9789  -14.0295   23.7240 C   0  0  0  0  0  0  0  0  0  0  0  0
    7.1441  -13.3823   25.0360 C   0  0  0  0  0  0  0  0  0  0  0  0
    6.1026  -13.3408   25.9332 C   0  0  0  0  0  0  0  0  0  0  0  0
    6.2350  -12.7354   27.1775 C   0  0  0  0  0  0  0  0  0  0  0  0
    7.4260  -12.1518   27.5553 C   0  0  0  0  0  0  0  0  0  0  0  0
    8.4701  -12.1909   26.6613 C   0  0  0  0  0  0  0  0  0  0  0  0
    8.3243  -12.7946   25.4312 C   0  0  0  0  0  0  0  0  0  0  0  0
    8.2739  -15.9292   24.5418 C   0  0  0  0  0  0  0  0  0  0  0  0
    7.3451  -16.5281   25.1191 O   0  0  0  0  0  0  0  0  0  0  0  0
   10.6962  -18.7808   24.2578 C   0  0  0  0  0  0  0  0  0  0  0  0
   11.0996  -18.0164   25.5041 C   0  0  1  0  0  0  0  0  0  0  0  0
   12.1897  -17.2105   25.2185 O   0  0  0  0  0  0  0  0  0  0  0  0
    9.9000  -17.1908   25.9869 C   0  0  2  0  0  0  0  0  0  0  0  0
    9.5958  -16.1506   25.0027 N   0  0  0  0  0  0  0  0  0  0  0  0
   10.3035  -16.5687   27.2662 C   0  0  0  0  0  0  0  0  0  0  0  0
   10.4540  -17.3531   28.3951 O   0  0  0  0  0  0  0  0  0  0  0  0
   10.5047  -15.3469   27.3195 O   0  0  0  0  0  0  0  0  0  0  0  0
  2  1  1  0
  3  2  1  0
  3  4  1  6
  5  3  1  0
  5  6  1  6
  7  8  2  0
  7  5  1  0
  9  7  1  0
 10  9  1  0
 11 12  1  0
 10 11  1  1
 12 13  2  0
 12 17  1  0
 13 14  1  0
 14 15  2  0
 16 15  1  0
 17 16  2  0
 18 24  1  0
 18 10  1  0
 19 18  2  0
 21 20  1  6
 22 21  1  0
 23 24  1  6
 23 21  1  0
 25 23  1  0
 26 25  1  0
 27 25  2  0
M  END
$$$$
