IFT.pdb
     RDKit          3D

 27 27  0  0  1  0  0  0  0  0999 V2000
    7.3395  -12.2779   18.8032 C   0  0  0  0  0  0  0  0  0  0  0  0
    7.4408  -13.6756   19.3832 C   0  0  0  0  0  0  0  0  0  0  0  0
    8.1073  -13.6536   20.7564 C   0  0  2  0  0  0  0  0  0  0  0  0
    9.4689  -13.0439   20.5703 C   0  0  0  0  0  0  0  0  0  0  0  0
    8.1582  -15.0723   21.2390 C   0  0  2  0  0  0  0  0  0  0  0  0
    6.8144  -15.6126   21.1887 N   0  0  0  0  0  0  0  0  0  0  0  0
    8.7446  -15.1827   22.6050 C   0  0  0  0  0  0  0  0  0  0  0  0
    9.9041  -14.8654   22.8773 O   0  0  0  0  0  0  0  0  0  0  0  0
    7.8983  -15.6837   23.6287 N   0  0  0  0  0  0  0  0  0  0  0  0
    8.2894  -15.9236   24.9852 C   0  0  1  0  0  0  0  0  0  0  0  0
    7.2298  -15.5563   25.9766 C   0  0  0  0  0  0  0  0  0  0  0  0
    7.0967  -14.1029   26.1699 C   0  0  0  0  0  0  0  0  0  0  0  0
    8.1691  -13.3504   26.5883 C   0  0  0  0  0  0  0  0  0  0  0  0
    8.0674  -11.9771   26.7776 C   0  0  0  0  0  0  0  0  0  0  0  0
    6.8768  -11.3195   26.5498 C   0  0  0  0  0  0  0  0  0  0  0  0
    5.8019  -12.0680   26.1313 C   0  0  0  0  0  0  0  0  0  0  0  0
    5.9175  -13.4287   25.9478 C   0  0  0  0  0  0  0  0  0  0  0  0
    8.8132  -17.2714   25.2651 C   0  0  0  0  0  0  0  0  0  0  0  0
    8.1085  -18.2059   25.6947 O   0  0  0  0  0  0  0  0  0  0  0  0
   11.4428  -19.0370   22.8634 C   0  0  0  0  0  0  0  0  0  0  0  0
   11.9537  -19.0514   24.2914 C   0  0  1  0  0  0  0  0  0  0  0  0
   12.9031  -18.0553   24.4519 O   0  0  0  0  0  0  0  0  0  0  0  0
   10.7660  -18.8558   25.2428 C   0  0  2  0  0  0  0  0  0  0  0  0
   10.1883  -17.5267   25.0351 N   0  0  0  0  0  0  0  0  0  0  0  0
   11.3039  -18.9603   26.6161 C   0  0  0  0  0  0  0  0  0  0  0  0
   11.7919  -20.1708   27.0733 O   0  0  0  0  0  0  0  0  0  0  0  0
   11.3143  -17.9618   27.3502 O   0  0  0  0  0  0  0  0  0  0  0  0
  2  1  1  0
  3  2  1  0
  3  4  1  6
  5  3  1  0
  5  6  1  1
  7  8  2  0
  7  5  1  0
  9  7  1  0
 10  9  1  0
 11 12  1  0
 10 11  1  1
 12 13  2  0
 12 17  1  0
 13 14  1  0
 14 15  2  0
 16 15  1  0
 17 16  2  0
 18 24  1  0
 18 10  1  0
 19 18  2  0
 21 20  1  6
 22 21  1  0
 23 24  1  1
 23 21  1  0
 25 23  1  0
 26 25  1  0
 27 25  2  0
M  END
$$$$
