IFT.pdb
     RDKit          3D

 27 27  0  0  1  0  0  0  0  0999 V2000
    7.0227  -12.3058   19.0891 C   0  0  0  0  0  0  0  0  0  0  0  0
    7.1398  -13.7099   19.6504 C   0  0  0  0  0  0  0  0  0  0  0  0
    8.1575  -13.7640   20.7869 C   0  0  2  0  0  0  0  0  0  0  0  0
    9.4722  -13.3089   20.2168 C   0  0  0  0  0  0  0  0  0  0  0  0
    8.1875  -15.1804   21.2780 C   0  0  2  0  0  0  0  0  0  0  0  0
    6.8516  -15.7282   21.1516 N   0  0  0  0  0  0  0  0  0  0  0  0
    8.6934  -15.2818   22.6766 C   0  0  0  0  0  0  0  0  0  0  0  0
    9.8193  -14.9190   23.0227 O   0  0  0  0  0  0  0  0  0  0  0  0
    7.8083  -15.8302   23.6416 N   0  0  0  0  0  0  0  0  0  0  0  0
    8.1233  -16.0623   25.0191 C   0  0  1  0  0  0  0  0  0  0  0  0
    7.0070  -15.6976   25.9473 C   0  0  0  0  0  0  0  0  0  0  0  0
    6.8881  -14.2469   26.1677 C   0  0  0  0  0  0  0  0  0  0  0  0
    5.8221  -13.5452   25.6552 C   0  0  0  0  0  0  0  0  0  0  0  0
    5.6885  -12.1754   25.8503 C   0  0  0  0  0  0  0  0  0  0  0  0
    6.6295  -11.4700   26.5706 C   0  0  0  0  0  0  0  0  0  0  0  0
    7.6971  -12.1676   27.0849 C   0  0  0  0  0  0  0  0  0  0  0  0
    7.8163  -13.5255   26.8834 C   0  0  0  0  0  0  0  0  0  0  0  0
    8.6384  -17.4057   25.3340 C   0  0  0  0  0  0  0  0  0  0  0  0
    7.9150  -18.4186   25.4055 O   0  0  0  0  0  0  0  0  0  0  0  0
   11.3762  -19.1811   23.5275 C   0  0  0  0  0  0  0  0  0  0  0  0
   11.8352  -19.1023   24.9709 C   0  0  1  0  0  0  0  0  0  0  0  0
   12.7629  -18.0821   25.1051 O   0  0  0  0  0  0  0  0  0  0  0  0
   10.6111  -18.8716   25.8666 C   0  0  2  0  0  0  0  0  0  0  0  0
   10.0276  -17.5627   25.5677 N   0  0  0  0  0  0  0  0  0  0  0  0
   11.0988  -18.8969   27.2623 C   0  0  0  0  0  0  0  0  0  0  0  0
   11.4884  -20.0947   27.8331 O   0  0  0  0  0  0  0  0  0  0  0  0
   11.1556  -17.8436   27.9130 O   0  0  0  0  0  0  0  0  0  0  0  0
  2  1  1  0
  3  2  1  0
  3  4  1  6
  5  3  1  0
  5  6  1  1
  7  8  2  0
  7  5  1  0
  9  7  1  0
 10  9  1  0
 11 12  1  0
 10 11  1  1
 12 13  2  0
 12 17  1  0
 13 14  1  0
 14 15  2  0
 16 15  1  0
 17 16  2  0
 18 24  1  0
 18 10  1  0
 19 18  2  0
 21 20  1  6
 22 21  1  0
 23 24  1  6
 23 21  1  0
 25 23  1  0
 26 25  1  0
 27 25  2  0
M  END
$$$$
