IFT.pdb
     RDKit          3D

 27 27  0  0  1  0  0  0  0  0999 V2000
    8.8306  -20.1413   20.5779 C   0  0  0  0  0  0  0  0  0  0  0  0
    9.4274  -18.7470   20.5783 C   0  0  0  0  0  0  0  0  0  0  0  0
    8.4356  -17.7247   20.0291 C   0  0  2  0  0  0  0  0  0  0  0  0
    8.0958  -18.1555   18.6293 C   0  0  0  0  0  0  0  0  0  0  0  0
    9.1116  -16.3875   20.0860 C   0  0  2  0  0  0  0  0  0  0  0  0
   10.3681  -16.4884   19.3708 N   0  0  0  0  0  0  0  0  0  0  0  0
    9.3118  -15.9159   21.4858 C   0  0  0  0  0  0  0  0  0  0  0  0
   10.3863  -15.9937   22.0847 O   0  0  0  0  0  0  0  0  0  0  0  0
    8.1861  -15.3506   22.1404 N   0  0  0  0  0  0  0  0  0  0  0  0
    8.1709  -14.8513   23.4824 C   0  0  1  0  0  0  0  0  0  0  0  0
    7.0531  -13.8897   23.7397 C   0  0  0  0  0  0  0  0  0  0  0  0
    7.0902  -13.3073   25.0914 C   0  0  0  0  0  0  0  0  0  0  0  0
    8.0701  -13.6716   25.9849 C   0  0  0  0  0  0  0  0  0  0  0  0
    8.1254  -13.1354   27.2661 C   0  0  0  0  0  0  0  0  0  0  0  0
    7.1907  -12.2123   27.6858 C   0  0  0  0  0  0  0  0  0  0  0  0
    6.2091  -11.8451   26.7957 C   0  0  0  0  0  0  0  0  0  0  0  0
    6.1668  -12.3851   25.5287 C   0  0  0  0  0  0  0  0  0  0  0  0
    8.2250  -15.8748   24.5402 C   0  0  0  0  0  0  0  0  0  0  0  0
    7.2207  -16.4850   24.9567 O   0  0  0  0  0  0  0  0  0  0  0  0
    9.9625  -18.9488   24.1444 C   0  0  0  0  0  0  0  0  0  0  0  0
   10.6217  -18.3401   25.3672 C   0  0  1  0  0  0  0  0  0  0  0  0
   11.8084  -17.7292   24.9958 O   0  0  0  0  0  0  0  0  0  0  0  0
    9.6493  -17.3400   26.0061 C   0  0  2  0  0  0  0  0  0  0  0  0
    9.4807  -16.1883   25.1182 N   0  0  0  0  0  0  0  0  0  0  0  0
   10.2653  -16.9067   27.2785 C   0  0  0  0  0  0  0  0  0  0  0  0
   10.3895  -17.8043   28.3232 O   0  0  0  0  0  0  0  0  0  0  0  0
   10.6672  -15.7408   27.4017 O   0  0  0  0  0  0  0  0  0  0  0  0
  2  1  1  0
  3  2  1  0
  3  4  1  6
  5  3  1  0
  5  6  1  1
  7  8  2  0
  7  5  1  0
  9  7  1  0
 10  9  1  0
 11 12  1  0
 10 11  1  1
 12 13  2  0
 12 17  1  0
 13 14  1  0
 14 15  2  0
 16 15  1  0
 17 16  2  0
 18 24  1  0
 18 10  1  0
 19 18  2  0
 21 20  1  6
 22 21  1  0
 23 24  1  6
 23 21  1  0
 25 23  1  0
 26 25  1  0
 27 25  2  0
M  END
$$$$
