IFT.pdb
     RDKit          3D

 27 27  0  0  1  0  0  0  0  0999 V2000
    7.4738  -17.0705   17.8388 C   0  0  0  0  0  0  0  0  0  0  0  0
    7.1798  -15.9062   18.7652 C   0  0  0  0  0  0  0  0  0  0  0  0
    7.8947  -16.0749   20.1035 C   0  0  2  0  0  0  0  0  0  0  0  0
    7.4316  -17.3826   20.6832 C   0  0  0  0  0  0  0  0  0  0  0  0
    7.5242  -14.8924   20.9477 C   0  0  2  0  0  0  0  0  0  0  0  0
    7.8305  -13.6910   20.1972 N   0  0  0  0  0  0  0  0  0  0  0  0
    8.2126  -14.9055   22.2698 C   0  0  0  0  0  0  0  0  0  0  0  0
    9.3726  -14.5244   22.4387 O   0  0  0  0  0  0  0  0  0  0  0  0
    7.4672  -15.3883   23.3773 N   0  0  0  0  0  0  0  0  0  0  0  0
    7.9868  -15.6131   24.6926 C   0  0  1  0  0  0  0  0  0  0  0  0
    7.0155  -15.2639   25.7765 C   0  0  0  0  0  0  0  0  0  0  0  0
    6.9503  -13.8192   26.0520 C   0  0  0  0  0  0  0  0  0  0  0  0
    8.0747  -13.1280   26.4386 C   0  0  0  0  0  0  0  0  0  0  0  0
    8.0375  -11.7640   26.7041 C   0  0  0  0  0  0  0  0  0  0  0  0
    6.8610  -11.0540   26.5872 C   0  0  0  0  0  0  0  0  0  0  0  0
    5.7343  -11.7411   26.2009 C   0  0  0  0  0  0  0  0  0  0  0  0
    5.7862  -13.0933   25.9410 C   0  0  0  0  0  0  0  0  0  0  0  0
    8.5637  -16.9479   24.9268 C   0  0  0  0  0  0  0  0  0  0  0  0
    7.8981  -18.0011   24.8788 O   0  0  0  0  0  0  0  0  0  0  0  0
   10.9960  -18.3821   22.8313 C   0  0  0  0  0  0  0  0  0  0  0  0
   11.6885  -18.4178   24.1802 C   0  0  1  0  0  0  0  0  0  0  0  0
   12.5849  -17.3651   24.2668 O   0  0  0  0  0  0  0  0  0  0  0  0
   10.6248  -18.3438   25.2835 C   0  0  2  0  0  0  0  0  0  0  0  0
    9.9466  -17.0480   25.2211 N   0  0  0  0  0  0  0  0  0  0  0  0
   11.3418  -18.4736   26.5701 C   0  0  0  0  0  0  0  0  0  0  0  0
   11.9840  -19.6577   26.8832 O   0  0  0  0  0  0  0  0  0  0  0  0
   11.3632  -17.5198   27.3612 O   0  0  0  0  0  0  0  0  0  0  0  0
  2  1  1  0
  3  2  1  0
  3  4  1  1
  5  3  1  0
  5  6  1  6
  7  8  2  0
  7  5  1  0
  9  7  1  0
 10  9  1  0
 11 12  1  0
 10 11  1  1
 12 13  2  0
 12 17  1  0
 13 14  1  0
 14 15  2  0
 16 15  1  0
 17 16  2  0
 18 24  1  0
 18 10  1  0
 19 18  2  0
 21 20  1  6
 22 21  1  0
 23 24  1  1
 23 21  1  0
 25 23  1  0
 26 25  1  0
 27 25  2  0
M  END
$$$$
