IFT.pdb
     RDKit          3D

 27 27  0  0  1  0  0  0  0  0999 V2000
    8.9363  -19.9495   18.0098 C   0  0  0  0  0  0  0  0  0  0  0  0
    8.7931  -18.4430   18.1105 C   0  0  0  0  0  0  0  0  0  0  0  0
    9.1119  -17.9540   19.5211 C   0  0  2  0  0  0  0  0  0  0  0  0
    8.2179  -18.7164   20.4592 C   0  0  0  0  0  0  0  0  0  0  0  0
    8.8591  -16.4761   19.5375 C   0  0  2  0  0  0  0  0  0  0  0  0
    9.6502  -15.8732   18.4834 N   0  0  0  0  0  0  0  0  0  0  0  0
    9.1572  -15.8677   20.8654 C   0  0  0  0  0  0  0  0  0  0  0  0
   10.2953  -15.7602   21.3264 O   0  0  0  0  0  0  0  0  0  0  0  0
    8.0505  -15.3947   21.6181 N   0  0  0  0  0  0  0  0  0  0  0  0
    8.1123  -14.8916   22.9575 C   0  0  1  0  0  0  0  0  0  0  0  0
    6.9734  -13.9818   23.2972 C   0  0  0  0  0  0  0  0  0  0  0  0
    7.0529  -13.4404   24.6640 C   0  0  0  0  0  0  0  0  0  0  0  0
    7.8353  -12.3433   24.9389 C   0  0  0  0  0  0  0  0  0  0  0  0
    7.9261  -11.8145   26.2212 C   0  0  0  0  0  0  0  0  0  0  0  0
    7.2280  -12.3786   27.2683 C   0  0  0  0  0  0  0  0  0  0  0  0
    6.4444  -13.4757   26.9980 C   0  0  0  0  0  0  0  0  0  0  0  0
    6.3641  -13.9890   25.7217 C   0  0  0  0  0  0  0  0  0  0  0  0
    8.2926  -15.9075   24.0086 C   0  0  0  0  0  0  0  0  0  0  0  0
    7.4160  -16.7387   24.3172 O   0  0  0  0  0  0  0  0  0  0  0  0
   10.6791  -18.5088   23.8596 C   0  0  0  0  0  0  0  0  0  0  0  0
   11.0482  -17.8125   25.1555 C   0  0  1  0  0  0  0  0  0  0  0  0
   12.1384  -16.9852   24.9405 O   0  0  0  0  0  0  0  0  0  0  0  0
    9.8317  -17.0225   25.6554 C   0  0  2  0  0  0  0  0  0  0  0  0
    9.5244  -15.9491   24.7086 N   0  0  0  0  0  0  0  0  0  0  0  0
   10.2118  -16.4452   26.9626 C   0  0  0  0  0  0  0  0  0  0  0  0
   10.3928  -17.2746   28.0542 O   0  0  0  0  0  0  0  0  0  0  0  0
   10.3660  -15.2204   27.0725 O   0  0  0  0  0  0  0  0  0  0  0  0
  2  1  1  0
  3  2  1  0
  3  4  1  1
  5  3  1  0
  5  6  1  6
  7  8  2  0
  7  5  1  0
  9  7  1  0
 10  9  1  0
 11 12  1  0
 10 11  1  1
 12 13  2  0
 12 17  1  0
 13 14  1  0
 14 15  2  0
 16 15  1  0
 17 16  2  0
 18 24  1  0
 18 10  1  0
 19 18  2  0
 21 20  1  6
 22 21  1  0
 23 24  1  6
 23 21  1  0
 25 23  1  0
 26 25  1  0
 27 25  2  0
M  END
$$$$
