IFT.pdb
     RDKit          3D

 27 27  0  0  1  0  0  0  0  0999 V2000
    8.6105  -20.2993   18.4115 C   0  0  0  0  0  0  0  0  0  0  0  0
    8.4106  -18.7962   18.4460 C   0  0  0  0  0  0  0  0  0  0  0  0
    8.8353  -18.2164   19.7928 C   0  0  2  0  0  0  0  0  0  0  0  0
    8.0249  -18.9202   20.8455 C   0  0  0  0  0  0  0  0  0  0  0  0
    8.5717  -16.7415   19.7349 C   0  0  2  0  0  0  0  0  0  0  0  0
    9.2915  -16.2006   18.5992 N   0  0  0  0  0  0  0  0  0  0  0  0
    8.9457  -16.0515   21.0023 C   0  0  0  0  0  0  0  0  0  0  0  0
   10.1101  -15.8905   21.3734 O   0  0  0  0  0  0  0  0  0  0  0  0
    7.8821  -15.5635   21.8059 N   0  0  0  0  0  0  0  0  0  0  0  0
    8.0259  -14.9687   23.1006 C   0  0  1  0  0  0  0  0  0  0  0  0
    6.9341  -13.9981   23.4267 C   0  0  0  0  0  0  0  0  0  0  0  0
    7.1014  -13.3593   24.7425 C   0  0  0  0  0  0  0  0  0  0  0  0
    7.9987  -12.3312   24.9136 C   0  0  0  0  0  0  0  0  0  0  0  0
    8.1739  -11.7130   26.1461 C   0  0  0  0  0  0  0  0  0  0  0  0
    7.4467  -12.1147   27.2469 C   0  0  0  0  0  0  0  0  0  0  0  0
    6.5483  -13.1423   27.0805 C   0  0  0  0  0  0  0  0  0  0  0  0
    6.3853  -13.7458   25.8525 C   0  0  0  0  0  0  0  0  0  0  0  0
    8.2265  -15.9128   24.2132 C   0  0  0  0  0  0  0  0  0  0  0  0
    7.3321  -16.6687   24.6414 O   0  0  0  0  0  0  0  0  0  0  0  0
   10.7018  -18.5210   24.0233 C   0  0  0  0  0  0  0  0  0  0  0  0
   11.0641  -17.7948   25.3046 C   0  0  1  0  0  0  0  0  0  0  0  0
   12.1365  -16.9499   25.0688 O   0  0  0  0  0  0  0  0  0  0  0  0
    9.8349  -17.0203   25.7977 C   0  0  2  0  0  0  0  0  0  0  0  0
    9.4998  -15.9714   24.8330 N   0  0  0  0  0  0  0  0  0  0  0  0
   10.2112  -16.4108   27.0913 C   0  0  0  0  0  0  0  0  0  0  0  0
   10.4287  -17.2167   28.1938 O   0  0  0  0  0  0  0  0  0  0  0  0
   10.3297  -15.1803   27.1800 O   0  0  0  0  0  0  0  0  0  0  0  0
  2  1  1  0
  3  2  1  0
  3  4  1  1
  5  3  1  0
  5  6  1  6
  7  8  2  0
  7  5  1  0
  9  7  1  0
 10  9  1  0
 11 12  1  0
 10 11  1  1
 12 13  2  0
 12 17  1  0
 13 14  1  0
 14 15  2  0
 16 15  1  0
 17 16  2  0
 18 24  1  0
 18 10  1  0
 19 18  2  0
 21 20  1  6
 22 21  1  0
 23 24  1  6
 23 21  1  0
 25 23  1  0
 26 25  1  0
 27 25  2  0
M  END
$$$$
