QVN.pdb
     RDKit          3D

 25 24  0  0  1  0  0  0  0  0999 V2000
   11.8692  -17.9195   14.1393 N   0  0  0  0  0  0  0  0  0  0  0  0
   10.7402  -17.0847   13.8958 C   0  0  0  0  0  0  0  0  0  0  0  0
   10.6108  -16.6041   12.7311 O   0  0  0  0  0  0  0  0  0  0  0  0
    9.7425  -16.7768   14.9493 C   0  0  0  0  0  0  0  0  0  0  0  0
   10.1641  -17.4911   16.2232 C   0  0  0  0  0  0  0  0  0  0  0  0
    9.0248  -17.4596   17.2461 C   0  0  2  0  0  0  0  0  0  0  0  0
    7.7957  -17.0576   16.5773 N   0  0  0  0  0  0  0  0  0  0  0  0
    9.4137  -16.4559   18.2786 C   0  0  0  0  0  0  0  0  0  0  0  0
   10.6342  -16.3404   18.5412 O   0  0  0  0  0  0  0  0  0  0  0  0
    7.5990  -12.8522   19.0873 C   0  0  0  0  0  0  0  0  0  0  0  0
    7.7100  -13.7574   20.2927 C   0  0  2  0  0  0  0  0  0  0  0  0
    7.8993  -12.9204   21.5248 C   0  0  0  0  0  0  0  0  0  0  0  0
    8.7916  -14.7651   20.0669 C   0  0  2  0  0  0  0  0  0  0  0  0
    8.4843  -15.6501   18.9566 N   0  0  0  0  0  0  0  0  0  0  0  0
    9.0835  -15.5779   21.3045 C   0  0  0  0  0  0  0  0  0  0  0  0
    8.2594  -16.4420   21.6984 O   0  0  0  0  0  0  0  0  0  0  0  0
   12.1718  -17.9080   21.8641 N   0  0  0  0  0  0  0  0  0  0  0  0
   12.8184  -16.9134   22.6651 C   0  0  0  0  0  0  0  0  0  0  0  0
   14.0726  -16.9010   22.6271 O   0  0  0  0  0  0  0  0  0  0  0  0
   12.0466  -15.9659   23.4800 C   0  0  0  0  0  0  0  0  0  0  0  0
   10.5600  -16.0701   23.3012 C   0  0  2  0  0  0  0  0  0  0  0  0
   10.2786  -15.3791   22.0311 N   0  0  0  0  0  0  0  0  0  0  0  0
    9.8338  -15.3786   24.4083 C   0  0  0  0  0  0  0  0  0  0  0  0
    9.5381  -16.0810   25.5642 O   0  0  0  0  0  0  0  0  0  0  0  0
    9.4862  -14.1870   24.3168 O   0  0  0  0  0  0  0  0  0  0  0  0
  2  3  2  0
  2  1  1  0
  4  2  1  0
  5  4  1  0
  6  5  1  0
  6  7  1  6
  8  6  1  0
  9  8  2  0
 11 10  1  6
 11 13  1  0
 12 11  1  0
 13 15  1  0
 13 14  1  6
 14  8  1  0
 15 16  2  0
 18 17  1  0
 18 19  2  0
 21 20  1  1
 20 18  1  0
 22 15  1  0
 22 21  1  0
 23 21  1  0
 23 24  1  0
 25 23  2  0
M  END
$$$$
