QVN.pdb
     RDKit          3D

 25 24  0  0  1  0  0  0  0  0999 V2000
    5.4305  -17.9481   21.7956 N   0  0  0  0  0  0  0  0  0  0  0  0
    5.8467  -17.8010   20.4407 C   0  0  0  0  0  0  0  0  0  0  0  0
    5.1676  -18.3985   19.5540 O   0  0  0  0  0  0  0  0  0  0  0  0
    7.0254  -16.9853   20.0596 C   0  0  0  0  0  0  0  0  0  0  0  0
    7.6477  -16.4308   21.3308 C   0  0  0  0  0  0  0  0  0  0  0  0
    7.3224  -14.9408   21.4696 C   0  0  2  0  0  0  0  0  0  0  0  0
    7.9044  -14.2199   20.3465 N   0  0  0  0  0  0  0  0  0  0  0  0
    7.9340  -14.4941   22.7544 C   0  0  0  0  0  0  0  0  0  0  0  0
    9.1577  -14.2213   22.7477 O   0  0  0  0  0  0  0  0  0  0  0  0
    6.4716  -12.0043   25.4623 C   0  0  0  0  0  0  0  0  0  0  0  0
    6.8248  -13.3180   26.1213 C   0  0  2  0  0  0  0  0  0  0  0  0
    7.3353  -13.0546   27.5086 C   0  0  0  0  0  0  0  0  0  0  0  0
    7.7780  -14.0758   25.2534 C   0  0  2  0  0  0  0  0  0  0  0  0
    7.2075  -14.3697   23.9501 N   0  0  0  0  0  0  0  0  0  0  0  0
    8.2537  -15.3515   25.9042 C   0  0  0  0  0  0  0  0  0  0  0  0
    7.4197  -16.2088   26.2918 O   0  0  0  0  0  0  0  0  0  0  0  0
   12.2164  -16.4349   23.8538 N   0  0  0  0  0  0  0  0  0  0  0  0
   11.5197  -17.2892   24.7668 C   0  0  0  0  0  0  0  0  0  0  0  0
   10.9246  -18.2716   24.2617 O   0  0  0  0  0  0  0  0  0  0  0  0
   11.5105  -17.0212   26.2110 C   0  0  0  0  0  0  0  0  0  0  0  0
   10.1431  -16.7884   26.7843 C   0  0  2  0  0  0  0  0  0  0  0  0
    9.6333  -15.5966   26.0848 N   0  0  0  0  0  0  0  0  0  0  0  0
   10.2134  -16.5058   28.2494 C   0  0  0  0  0  0  0  0  0  0  0  0
   10.3051  -17.5639   29.1377 O   0  0  0  0  0  0  0  0  0  0  0  0
   10.1897  -15.3427   28.6917 O   0  0  0  0  0  0  0  0  0  0  0  0
  2  3  2  0
  2  1  1  0
  4  2  1  0
  5  4  1  0
  6  5  1  0
  6  7  1  6
  8  6  1  0
  9  8  2  0
 11 10  1  6
 11 13  1  0
 12 11  1  0
 13 15  1  0
 13 14  1  6
 14  8  1  0
 15 16  2  0
 18 17  1  0
 18 19  2  0
 21 20  1  6
 20 18  1  0
 22 15  1  0
 22 21  1  0
 23 21  1  0
 23 24  1  0
 25 23  2  0
M  END
$$$$
