QVN.pdb
     RDKit          3D

 25 24  0  0  1  0  0  0  0  0999 V2000
    4.2923  -20.1069   23.6866 N   0  0  0  0  0  0  0  0  0  0  0  0
    5.4884  -20.4328   22.9840 C   0  0  0  0  0  0  0  0  0  0  0  0
    5.5236  -21.5437   22.3765 O   0  0  0  0  0  0  0  0  0  0  0  0
    6.6591  -19.5226   22.9510 C   0  0  0  0  0  0  0  0  0  0  0  0
    6.3689  -18.3455   23.8679 C   0  0  0  0  0  0  0  0  0  0  0  0
    6.3928  -17.0384   23.0702 C   0  0  2  0  0  0  0  0  0  0  0  0
    6.9673  -17.2928   21.7569 N   0  0  0  0  0  0  0  0  0  0  0  0
    7.2460  -16.0895   23.8421 C   0  0  0  0  0  0  0  0  0  0  0  0
    8.4649  -16.0415   23.5522 O   0  0  0  0  0  0  0  0  0  0  0  0
    5.8816  -12.5953   25.6385 C   0  0  0  0  0  0  0  0  0  0  0  0
    6.7028  -13.4880   26.5404 C   0  0  2  0  0  0  0  0  0  0  0  0
    7.4781  -12.6383   27.5056 C   0  0  0  0  0  0  0  0  0  0  0  0
    7.5507  -14.3981   25.7104 C   0  0  2  0  0  0  0  0  0  0  0  0
    6.7482  -15.2629   24.8628 N   0  0  0  0  0  0  0  0  0  0  0  0
    8.4882  -15.2305   26.5504 C   0  0  0  0  0  0  0  0  0  0  0  0
    8.0260  -16.0696   27.3649 O   0  0  0  0  0  0  0  0  0  0  0  0
   13.0925  -17.1291   28.4032 N   0  0  0  0  0  0  0  0  0  0  0  0
   13.3006  -16.2901   27.2624 C   0  0  0  0  0  0  0  0  0  0  0  0
   14.4851  -16.1837   26.8618 O   0  0  0  0  0  0  0  0  0  0  0  0
   12.1829  -15.5994   26.6057 C   0  0  0  0  0  0  0  0  0  0  0  0
   10.8424  -15.8760   27.2214 C   0  0  2  0  0  0  0  0  0  0  0  0
    9.8878  -15.0782   26.4328 N   0  0  0  0  0  0  0  0  0  0  0  0
   10.7998  -15.4268   28.6454 C   0  0  0  0  0  0  0  0  0  0  0  0
   10.4873  -14.1080   28.9285 O   0  0  0  0  0  0  0  0  0  0  0  0
   11.0399  -16.2083   29.5839 O   0  0  0  0  0  0  0  0  0  0  0  0
  2  3  2  0
  2  1  1  0
  4  2  1  0
  5  4  1  0
  6  5  1  0
  6  7  1  6
  8  6  1  0
  9  8  2  0
 11 10  1  6
 11 13  1  0
 12 11  1  0
 13 15  1  0
 13 14  1  1
 14  8  1  0
 15 16  2  0
 18 17  1  0
 18 19  2  0
 21 20  1  6
 20 18  1  0
 22 15  1  0
 22 21  1  0
 23 21  1  0
 23 24  1  0
 25 23  2  0
M  END
$$$$
