QVN.pdb
     RDKit          3D

 25 24  0  0  1  0  0  0  0  0999 V2000
    6.8230  -21.9339   23.2005 N   0  0  0  0  0  0  0  0  0  0  0  0
    6.0162  -20.9575   23.8534 C   0  0  0  0  0  0  0  0  0  0  0  0
    5.5913  -21.2338   25.0142 O   0  0  0  0  0  0  0  0  0  0  0  0
    5.6742  -19.6613   23.2184 C   0  0  0  0  0  0  0  0  0  0  0  0
    6.6694  -18.6199   23.7038 C   0  0  0  0  0  0  0  0  0  0  0  0
    6.2925  -17.2383   23.1610 C   0  0  2  0  0  0  0  0  0  0  0  0
    6.5236  -17.2124   21.7238 N   0  0  0  0  0  0  0  0  0  0  0  0
    7.1778  -16.2580   23.8534 C   0  0  0  0  0  0  0  0  0  0  0  0
    8.3923  -16.2555   23.5416 O   0  0  0  0  0  0  0  0  0  0  0  0
    6.0910  -12.5718   25.3397 C   0  0  0  0  0  0  0  0  0  0  0  0
    6.7666  -13.4572   26.3616 C   0  0  2  0  0  0  0  0  0  0  0  0
    7.5770  -12.6058   27.2960 C   0  0  0  0  0  0  0  0  0  0  0  0
    7.5552  -14.5192   25.6640 C   0  0  2  0  0  0  0  0  0  0  0  0
    6.7144  -15.3542   24.8235 N   0  0  0  0  0  0  0  0  0  0  0  0
    8.3324  -15.3810   26.6285 C   0  0  0  0  0  0  0  0  0  0  0  0
    7.7245  -16.1552   27.4109 O   0  0  0  0  0  0  0  0  0  0  0  0
   12.5152  -17.8394   28.7536 N   0  0  0  0  0  0  0  0  0  0  0  0
   12.9120  -16.9832   27.6774 C   0  0  0  0  0  0  0  0  0  0  0  0
   14.1276  -17.0108   27.3670 O   0  0  0  0  0  0  0  0  0  0  0  0
   11.9419  -16.1265   26.9828 C   0  0  0  0  0  0  0  0  0  0  0  0
   10.5488  -16.2013   27.5363 C   0  0  2  0  0  0  0  0  0  0  0  0
    9.7438  -15.3289   26.6642 N   0  0  0  0  0  0  0  0  0  0  0  0
   10.4956  -15.6812   28.9356 C   0  0  0  0  0  0  0  0  0  0  0  0
   10.4990  -16.5784   29.9902 O   0  0  0  0  0  0  0  0  0  0  0  0
   10.4467  -14.4613   29.1772 O   0  0  0  0  0  0  0  0  0  0  0  0
  2  3  2  0
  2  1  1  0
  4  2  1  0
  5  4  1  0
  6  5  1  0
  6  7  1  6
  8  6  1  0
  9  8  2  0
 11 10  1  6
 11 13  1  0
 12 11  1  0
 13 15  1  0
 13 14  1  1
 14  8  1  0
 15 16  2  0
 18 17  1  0
 18 19  2  0
 21 20  1  6
 20 18  1  0
 22 15  1  0
 22 21  1  0
 23 21  1  0
 23 24  1  0
 25 23  2  0
M  END
$$$$
