QVN.pdb
     RDKit          3D

 25 24  0  0  1  0  0  0  0  0999 V2000
    8.3222  -19.8079   15.4500 N   0  0  0  0  0  0  0  0  0  0  0  0
    9.6310  -19.2905   15.2258 C   0  0  0  0  0  0  0  0  0  0  0  0
   10.5710  -20.1265   15.0778 O   0  0  0  0  0  0  0  0  0  0  0  0
    9.9057  -17.8342   15.1641 C   0  0  0  0  0  0  0  0  0  0  0  0
    8.5892  -17.0965   15.3463 C   0  0  0  0  0  0  0  0  0  0  0  0
    8.8236  -15.5836   15.3058 C   0  0  2  0  0  0  0  0  0  0  0  0
    9.8364  -15.2855   14.3034 N   0  0  0  0  0  0  0  0  0  0  0  0
    9.2989  -15.1947   16.6649 C   0  0  0  0  0  0  0  0  0  0  0  0
   10.5343  -15.2280   16.8764 O   0  0  0  0  0  0  0  0  0  0  0  0
    7.2909  -12.5495   19.0054 C   0  0  0  0  0  0  0  0  0  0  0  0
    7.7554  -13.7502   19.7974 C   0  0  2  0  0  0  0  0  0  0  0  0
    8.1470  -13.3110   21.1788 C   0  0  0  0  0  0  0  0  0  0  0  0
    8.8415  -14.4561   19.0501 C   0  0  2  0  0  0  0  0  0  0  0  0
    8.4340  -14.8003   17.6989 N   0  0  0  0  0  0  0  0  0  0  0  0
    9.3219  -15.6917   19.7710 C   0  0  0  0  0  0  0  0  0  0  0  0
    9.2378  -16.8167   19.2158 O   0  0  0  0  0  0  0  0  0  0  0  0
   13.2309  -18.4852   21.2543 N   0  0  0  0  0  0  0  0  0  0  0  0
   13.2762  -17.0757   21.0092 C   0  0  0  0  0  0  0  0  0  0  0  0
   14.3980  -16.5275   21.1346 O   0  0  0  0  0  0  0  0  0  0  0  0
   12.0714  -16.3250   20.6318 C   0  0  0  0  0  0  0  0  0  0  0  0
   10.9090  -16.5208   21.5608 C   0  0  2  0  0  0  0  0  0  0  0  0
    9.8688  -15.6003   21.0704 N   0  0  0  0  0  0  0  0  0  0  0  0
   11.2705  -16.1519   22.9624 C   0  0  0  0  0  0  0  0  0  0  0  0
   11.7144  -17.1380   23.8272 O   0  0  0  0  0  0  0  0  0  0  0  0
   11.1812  -14.9803   23.3729 O   0  0  0  0  0  0  0  0  0  0  0  0
  2  3  2  0
  2  1  1  0
  4  2  1  0
  5  4  1  0
  6  5  1  0
  6  7  1  6
  8  6  1  0
  9  8  2  0
 11 10  1  6
 11 13  1  0
 12 11  1  0
 13 15  1  0
 13 14  1  6
 14  8  1  0
 15 16  2  0
 18 17  1  0
 18 19  2  0
 21 20  1  6
 20 18  1  0
 22 15  1  0
 22 21  1  0
 23 21  1  0
 23 24  1  0
 25 23  2  0
M  END
$$$$
