QVN.pdb
     RDKit          3D

 25 24  0  0  1  0  0  0  0  0999 V2000
    5.5481  -18.3577   21.1804 N   0  0  0  0  0  0  0  0  0  0  0  0
    6.4325  -17.9218   20.1516 C   0  0  0  0  0  0  0  0  0  0  0  0
    6.7563  -18.7660   19.2646 O   0  0  0  0  0  0  0  0  0  0  0  0
    6.9656  -16.5385   20.1006 C   0  0  0  0  0  0  0  0  0  0  0  0
    6.3943  -15.7678   21.2797 C   0  0  0  0  0  0  0  0  0  0  0  0
    6.9530  -14.3420   21.2971 C   0  0  2  0  0  0  0  0  0  0  0  0
    7.8782  -14.1798   20.1847 N   0  0  0  0  0  0  0  0  0  0  0  0
    7.6636  -14.1842   22.5989 C   0  0  0  0  0  0  0  0  0  0  0  0
    8.8952  -14.4188   22.6170 O   0  0  0  0  0  0  0  0  0  0  0  0
    6.5015  -11.6057   25.4745 C   0  0  0  0  0  0  0  0  0  0  0  0
    6.8226  -12.9568   26.0712 C   0  0  2  0  0  0  0  0  0  0  0  0
    7.4806  -12.7645   27.4071 C   0  0  0  0  0  0  0  0  0  0  0  0
    7.6328  -13.7555   25.1007 C   0  0  2  0  0  0  0  0  0  0  0  0
    7.0203  -13.7911   23.7839 N   0  0  0  0  0  0  0  0  0  0  0  0
    7.8845  -15.1618   25.5869 C   0  0  0  0  0  0  0  0  0  0  0  0
    6.9348  -15.9828   25.6565 O   0  0  0  0  0  0  0  0  0  0  0  0
   11.0513  -17.0779   23.2439 N   0  0  0  0  0  0  0  0  0  0  0  0
   10.2875  -17.6736   24.2977 C   0  0  0  0  0  0  0  0  0  0  0  0
    9.3347  -18.4095   23.9435 O   0  0  0  0  0  0  0  0  0  0  0  0
   10.6112  -17.4308   25.7097 C   0  0  0  0  0  0  0  0  0  0  0  0
    9.4635  -16.9058   26.5220 C   0  0  2  0  0  0  0  0  0  0  0  0
    9.1822  -15.5704   25.9676 N   0  0  0  0  0  0  0  0  0  0  0  0
    9.8386  -16.7712   27.9616 C   0  0  0  0  0  0  0  0  0  0  0  0
   10.2618  -15.5416   28.4372 O   0  0  0  0  0  0  0  0  0  0  0  0
    9.7819  -17.7374   28.7441 O   0  0  0  0  0  0  0  0  0  0  0  0
  2  3  2  0
  2  1  1  0
  4  2  1  0
  5  4  1  0
  6  5  1  0
  6  7  1  6
  8  6  1  0
  9  8  2  0
 11 10  1  6
 11 13  1  0
 12 11  1  0
 13 15  1  0
 13 14  1  6
 14  8  1  0
 15 16  2  0
 18 17  1  0
 18 19  2  0
 21 20  1  6
 20 18  1  0
 22 15  1  0
 22 21  1  0
 23 21  1  0
 23 24  1  0
 25 23  2  0
M  END
$$$$
