QVN.pdb
     RDKit          3D

 25 24  0  0  1  0  0  0  0  0999 V2000
    5.4408  -19.4228   19.1219 N   0  0  0  0  0  0  0  0  0  0  0  0
    5.8012  -19.6017   17.7548 C   0  0  0  0  0  0  0  0  0  0  0  0
    4.8731  -19.5439   16.8948 O   0  0  0  0  0  0  0  0  0  0  0  0
    7.2015  -19.8471   17.3317 C   0  0  0  0  0  0  0  0  0  0  0  0
    8.1090  -18.9487   18.1563 C   0  0  0  0  0  0  0  0  0  0  0  0
    8.2094  -17.5648   17.5083 C   0  0  2  0  0  0  0  0  0  0  0  0
    9.0697  -17.6491   16.3368 N   0  0  0  0  0  0  0  0  0  0  0  0
    8.8061  -16.6617   18.5344 C   0  0  0  0  0  0  0  0  0  0  0  0
   10.0402  -16.7523   18.7363 O   0  0  0  0  0  0  0  0  0  0  0  0
    7.3443  -12.9536   19.6300 C   0  0  0  0  0  0  0  0  0  0  0  0
    7.5853  -13.8830   20.7974 C   0  0  2  0  0  0  0  0  0  0  0  0
    8.0245  -13.0796   21.9875 C   0  0  0  0  0  0  0  0  0  0  0  0
    8.5470  -14.9556   20.3961 C   0  0  2  0  0  0  0  0  0  0  0  0
    8.0546  -15.7312   19.2707 N   0  0  0  0  0  0  0  0  0  0  0  0
    8.8885  -15.8756   21.5424 C   0  0  0  0  0  0  0  0  0  0  0  0
    8.0119  -16.6423   22.0164 O   0  0  0  0  0  0  0  0  0  0  0  0
   12.9917  -17.2925   20.7811 N   0  0  0  0  0  0  0  0  0  0  0  0
   12.3008  -17.8372   21.9101 C   0  0  0  0  0  0  0  0  0  0  0  0
   11.9701  -19.0448   21.8274 O   0  0  0  0  0  0  0  0  0  0  0  0
   12.0027  -17.0191   23.0931 C   0  0  0  0  0  0  0  0  0  0  0  0
   10.5467  -16.7000   23.2688 C   0  0  2  0  0  0  0  0  0  0  0  0
   10.1892  -15.8868   22.0937 N   0  0  0  0  0  0  0  0  0  0  0  0
   10.3156  -15.8998   24.5088 C   0  0  0  0  0  0  0  0  0  0  0  0
    9.9266  -14.5758   24.3956 O   0  0  0  0  0  0  0  0  0  0  0  0
   10.4657  -16.3933   25.6416 O   0  0  0  0  0  0  0  0  0  0  0  0
  2  3  2  0
  2  1  1  0
  4  2  1  0
  5  4  1  0
  6  5  1  0
  6  7  1  6
  8  6  1  0
  9  8  2  0
 11 10  1  6
 11 13  1  0
 12 11  1  0
 13 15  1  0
 13 14  1  6
 14  8  1  0
 15 16  2  0
 18 17  1  0
 18 19  2  0
 21 20  1  6
 20 18  1  0
 22 15  1  0
 22 21  1  0
 23 21  1  0
 23 24  1  0
 25 23  2  0
M  END
$$$$
