QVN.pdb
     RDKit          3D

 25 24  0  0  1  0  0  0  0  0999 V2000
    9.1394  -21.3849   16.6608 N   0  0  0  0  0  0  0  0  0  0  0  0
   10.1652  -20.8234   17.4749 C   0  0  0  0  0  0  0  0  0  0  0  0
   10.7402  -21.5921   18.3013 O   0  0  0  0  0  0  0  0  0  0  0  0
   10.5615  -19.3974   17.3762 C   0  0  0  0  0  0  0  0  0  0  0  0
    9.3739  -18.5464   17.7957 C   0  0  0  0  0  0  0  0  0  0  0  0
    9.5658  -17.1036   17.3196 C   0  0  2  0  0  0  0  0  0  0  0  0
   10.7357  -17.0392   16.4554 N   0  0  0  0  0  0  0  0  0  0  0  0
    9.7721  -16.2796   18.5455 C   0  0  0  0  0  0  0  0  0  0  0  0
   10.9432  -16.1746   18.9808 O   0  0  0  0  0  0  0  0  0  0  0  0
    7.4052  -13.0458   19.5320 C   0  0  0  0  0  0  0  0  0  0  0  0
    7.6513  -13.9942   20.6830 C   0  0  2  0  0  0  0  0  0  0  0  0
    7.7074  -13.2137   21.9645 C   0  0  0  0  0  0  0  0  0  0  0  0
    8.8751  -14.8092   20.4103 C   0  0  2  0  0  0  0  0  0  0  0  0
    8.7261  -15.6288   19.2201 N   0  0  0  0  0  0  0  0  0  0  0  0
    9.2585  -15.6758   21.5847 C   0  0  0  0  0  0  0  0  0  0  0  0
    8.5925  -16.7093   21.8478 O   0  0  0  0  0  0  0  0  0  0  0  0
   14.0180  -14.9540   22.2843 N   0  0  0  0  0  0  0  0  0  0  0  0
   13.1687  -15.9816   22.8054 C   0  0  0  0  0  0  0  0  0  0  0  0
   13.3183  -17.1263   22.3135 O   0  0  0  0  0  0  0  0  0  0  0  0
   12.1827  -15.6999   23.8571 C   0  0  0  0  0  0  0  0  0  0  0  0
   10.7927  -16.1672   23.5377 C   0  0  2  0  0  0  0  0  0  0  0  0
   10.3636  -15.3388   22.3978 N   0  0  0  0  0  0  0  0  0  0  0  0
    9.8683  -15.9367   24.6882 C   0  0  0  0  0  0  0  0  0  0  0  0
    9.1339  -14.7641   24.7402 O   0  0  0  0  0  0  0  0  0  0  0  0
    9.7431  -16.7719   25.6025 O   0  0  0  0  0  0  0  0  0  0  0  0
  2  3  2  0
  2  1  1  0
  4  2  1  0
  5  4  1  0
  6  5  1  0
  6  7  1  6
  8  6  1  0
  9  8  2  0
 11 10  1  6
 11 13  1  0
 12 11  1  0
 13 15  1  0
 13 14  1  6
 14  8  1  0
 15 16  2  0
 18 17  1  0
 18 19  2  0
 21 20  1  1
 20 18  1  0
 22 15  1  0
 22 21  1  0
 23 21  1  0
 23 24  1  0
 25 23  2  0
M  END
$$$$
