QVN.pdb
     RDKit          3D

 25 24  0  0  1  0  0  0  0  0999 V2000
    6.8128  -20.7649   18.1073 N   0  0  0  0  0  0  0  0  0  0  0  0
    7.3303  -20.6415   16.7853 C   0  0  0  0  0  0  0  0  0  0  0  0
    7.3227  -21.6779   16.0571 O   0  0  0  0  0  0  0  0  0  0  0  0
    7.8622  -19.3601   16.2607 C   0  0  0  0  0  0  0  0  0  0  0  0
    7.6377  -18.2881   17.3146 C   0  0  0  0  0  0  0  0  0  0  0  0
    8.0520  -16.9184   16.7690 C   0  0  2  0  0  0  0  0  0  0  0  0
    9.0166  -17.1061   15.6947 N   0  0  0  0  0  0  0  0  0  0  0  0
    8.6710  -16.1810   17.9081 C   0  0  0  0  0  0  0  0  0  0  0  0
    9.9208  -16.2099   18.0041 O   0  0  0  0  0  0  0  0  0  0  0  0
    7.0142  -12.7972   19.6498 C   0  0  0  0  0  0  0  0  0  0  0  0
    7.4603  -13.8542   20.6339 C   0  0  2  0  0  0  0  0  0  0  0  0
    7.9364  -13.1891   21.8931 C   0  0  0  0  0  0  0  0  0  0  0  0
    8.4766  -14.7431   19.9909 C   0  0  2  0  0  0  0  0  0  0  0  0
    7.9237  -15.4690   18.8606 N   0  0  0  0  0  0  0  0  0  0  0  0
    9.0910  -15.7119   20.9713 C   0  0  0  0  0  0  0  0  0  0  0  0
    8.4456  -16.7248   21.3432 O   0  0  0  0  0  0  0  0  0  0  0  0
   13.6768  -18.2555   22.9931 N   0  0  0  0  0  0  0  0  0  0  0  0
   13.3481  -16.8855   23.2457 C   0  0  0  0  0  0  0  0  0  0  0  0
   13.8193  -16.3875   24.2966 O   0  0  0  0  0  0  0  0  0  0  0  0
   12.5071  -16.1164   22.3189 C   0  0  0  0  0  0  0  0  0  0  0  0
   11.0413  -16.4225   22.4207 C   0  0  2  0  0  0  0  0  0  0  0  0
   10.3909  -15.4941   21.4801 N   0  0  0  0  0  0  0  0  0  0  0  0
   10.5305  -16.1626   23.8001 C   0  0  0  0  0  0  0  0  0  0  0  0
    9.8173  -15.0022   24.0488 O   0  0  0  0  0  0  0  0  0  0  0  0
   10.7315  -16.9626   24.7322 O   0  0  0  0  0  0  0  0  0  0  0  0
  2  3  2  0
  2  1  1  0
  4  2  1  0
  5  4  1  0
  6  5  1  0
  6  7  1  6
  8  6  1  0
  9  8  2  0
 11 10  1  6
 11 13  1  0
 12 11  1  0
 13 15  1  0
 13 14  1  6
 14  8  1  0
 15 16  2  0
 18 17  1  0
 18 19  2  0
 21 20  1  1
 20 18  1  0
 22 15  1  0
 22 21  1  0
 23 21  1  0
 23 24  1  0
 25 23  2  0
M  END
$$$$
