QVN.pdb
     RDKit          3D

 25 24  0  0  1  0  0  0  0  0999 V2000
    6.1002  -20.6040   25.7278 N   0  0  0  0  0  0  0  0  0  0  0  0
    6.5937  -20.7774   24.4023 C   0  0  0  0  0  0  0  0  0  0  0  0
    6.7275  -21.9642   23.9804 O   0  0  0  0  0  0  0  0  0  0  0  0
    6.9435  -19.6282   23.5321 C   0  0  0  0  0  0  0  0  0  0  0  0
    6.6003  -18.3488   24.2778 C   0  0  0  0  0  0  0  0  0  0  0  0
    6.5671  -17.1657   23.3059 C   0  0  2  0  0  0  0  0  0  0  0  0
    7.1513  -17.5758   22.0369 N   0  0  0  0  0  0  0  0  0  0  0  0
    7.3791  -16.0830   23.9326 C   0  0  0  0  0  0  0  0  0  0  0  0
    8.6124  -16.0810   23.7063 O   0  0  0  0  0  0  0  0  0  0  0  0
    6.0374  -12.3529   25.2232 C   0  0  0  0  0  0  0  0  0  0  0  0
    6.7085  -13.1891   26.2886 C   0  0  2  0  0  0  0  0  0  0  0  0
    7.4316  -12.2853   27.2451 C   0  0  0  0  0  0  0  0  0  0  0  0
    7.5803  -14.2193   25.6443 C   0  0  2  0  0  0  0  0  0  0  0  0
    6.8280  -15.0840   24.7517 N   0  0  0  0  0  0  0  0  0  0  0  0
    8.3254  -15.0528   26.6579 C   0  0  0  0  0  0  0  0  0  0  0  0
    7.7151  -15.9272   27.3241 O   0  0  0  0  0  0  0  0  0  0  0  0
   11.1480  -17.2938   25.6046 N   0  0  0  0  0  0  0  0  0  0  0  0
   12.1690  -16.4677   26.1737 C   0  0  0  0  0  0  0  0  0  0  0  0
   13.2962  -16.5233   25.6251 O   0  0  0  0  0  0  0  0  0  0  0  0
   11.8999  -15.6071   27.3332 C   0  0  0  0  0  0  0  0  0  0  0  0
   10.4843  -15.6678   27.8284 C   0  0  2  0  0  0  0  0  0  0  0  0
    9.7092  -14.8621   26.8694 N   0  0  0  0  0  0  0  0  0  0  0  0
   10.3625  -15.0638   29.1892 C   0  0  0  0  0  0  0  0  0  0  0  0
   10.5544  -15.8638   30.3029 O   0  0  0  0  0  0  0  0  0  0  0  0
   10.0910  -13.8594   29.3469 O   0  0  0  0  0  0  0  0  0  0  0  0
  2  3  2  0
  2  1  1  0
  4  2  1  0
  5  4  1  0
  6  5  1  0
  6  7  1  6
  8  6  1  0
  9  8  2  0
 11 10  1  6
 11 13  1  0
 12 11  1  0
 13 15  1  0
 13 14  1  1
 14  8  1  0
 15 16  2  0
 18 17  1  0
 18 19  2  0
 21 20  1  6
 20 18  1  0
 22 15  1  0
 22 21  1  0
 23 21  1  0
 23 24  1  0
 25 23  2  0
M  END
$$$$
