SAF.pdb
     RDKit          3D

 23 23  0  0  1  0  0  0  0  0999 V2000
   10.3447  -13.4051   19.5645 O   0  0  0  0  0  0  0  0  0  0  0  0
    9.6001  -14.2258   18.7514 C   0  0  0  0  0  0  0  0  0  0  0  0
    8.1190  -14.0485   18.9952 C   0  0  2  0  0  0  0  0  0  0  0  0
    7.8291  -12.6415   18.7911 N   0  0  0  0  0  0  0  0  0  0  0  0
    7.7034  -14.4756   20.3477 C   0  0  0  0  0  0  0  0  0  0  0  0
    7.6298  -13.6135   21.2605 O   0  0  0  0  0  0  0  0  0  0  0  0
    6.5514  -17.6689   22.0614 C   0  0  0  0  0  0  0  0  0  0  0  0
    6.9861  -16.2385   22.0018 C   0  0  2  0  0  0  0  0  0  0  0  0
    7.3794  -15.8063   20.6858 N   0  0  0  0  0  0  0  0  0  0  0  0
    8.0696  -16.0397   23.0051 C   0  0  0  0  0  0  0  0  0  0  0  0
    9.2897  -16.0129   22.7017 O   0  0  0  0  0  0  0  0  0  0  0  0
    7.6960  -15.8741   24.3624 N   0  0  0  0  0  0  0  0  0  0  0  0
    8.6593  -15.6253   25.4218 C   0  0  1  0  0  0  0  0  0  0  0  0
    7.8785  -15.1601   26.6289 C   0  0  0  0  0  0  0  0  0  0  0  0
    7.3232  -13.8026   26.4846 C   0  0  0  0  0  0  0  0  0  0  0  0
    8.0755  -12.7702   25.9750 C   0  0  0  0  0  0  0  0  0  0  0  0
    7.5435  -11.4841   25.8351 C   0  0  0  0  0  0  0  0  0  0  0  0
    6.2309  -11.2351   26.2158 C   0  0  0  0  0  0  0  0  0  0  0  0
    5.4838  -12.2751   26.7258 C   0  0  0  0  0  0  0  0  0  0  0  0
    6.0222  -13.5342   26.8567 C   0  0  0  0  0  0  0  0  0  0  0  0
    9.4314  -16.8425   25.7521 C   0  0  0  0  0  0  0  0  0  0  0  0
   10.6826  -16.7419   26.3888 O   0  0  0  0  0  0  0  0  0  0  0  0
    9.0315  -17.9940   25.4938 O   0  0  0  0  0  0  0  0  0  0  0  0
  2  1  1  0
  3  4  1  1
  3  2  1  0
  5  3  1  0
  5  6  2  0
  8  7  1  6
  8  9  1  0
  8 10  1  0
  9  5  1  0
 10 12  1  0
 10 11  2  0
 12 13  1  0
 13 14  1  1
 14 15  1  0
 15 20  2  0
 16 15  1  0
 16 17  2  0
 17 18  1  0
 18 19  2  0
 20 19  1  0
 21 22  1  0
 21 13  1  0
 23 21  2  0
M  END
$$$$
