SAF.pdb
     RDKit          3D

 23 23  0  0  1  0  0  0  0  0999 V2000
    6.3719  -18.4173   23.0430 O   0  0  0  0  0  0  0  0  0  0  0  0
    5.2743  -18.0064   22.3250 C   0  0  0  0  0  0  0  0  0  0  0  0
    5.6586  -17.5712   20.9295 C   0  0  2  0  0  0  0  0  0  0  0  0
    5.9002  -18.7823   20.1676 N   0  0  0  0  0  0  0  0  0  0  0  0
    6.8487  -16.6952   20.9073 C   0  0  0  0  0  0  0  0  0  0  0  0
    7.9542  -17.1820   20.5569 O   0  0  0  0  0  0  0  0  0  0  0  0
    7.6729  -13.0311   21.0435 C   0  0  0  0  0  0  0  0  0  0  0  0
    7.9835  -14.4749   21.2829 C   0  0  2  0  0  0  0  0  0  0  0  0
    6.8246  -15.3291   21.2585 N   0  0  0  0  0  0  0  0  0  0  0  0
    8.7334  -14.5827   22.5660 C   0  0  0  0  0  0  0  0  0  0  0  0
    9.8463  -14.0300   22.7592 O   0  0  0  0  0  0  0  0  0  0  0  0
    8.1555  -15.3465   23.6110 N   0  0  0  0  0  0  0  0  0  0  0  0
    8.8200  -15.5735   24.8835 C   0  0  1  0  0  0  0  0  0  0  0  0
    7.7863  -15.3641   25.9654 C   0  0  0  0  0  0  0  0  0  0  0  0
    7.4710  -13.9459   26.2131 C   0  0  0  0  0  0  0  0  0  0  0  0
    6.2150  -13.4382   25.9758 C   0  0  0  0  0  0  0  0  0  0  0  0
    5.9182  -12.0927   26.2167 C   0  0  0  0  0  0  0  0  0  0  0  0
    6.9046  -11.2450   26.7048 C   0  0  0  0  0  0  0  0  0  0  0  0
    8.1607  -11.7616   26.9398 C   0  0  0  0  0  0  0  0  0  0  0  0
    8.4361  -13.0875   26.6976 C   0  0  0  0  0  0  0  0  0  0  0  0
    9.3784  -16.9401   24.9694 C   0  0  0  0  0  0  0  0  0  0  0  0
   10.1342  -17.3319   26.0904 O   0  0  0  0  0  0  0  0  0  0  0  0
    9.2175  -17.7991   24.0813 O   0  0  0  0  0  0  0  0  0  0  0  0
  2  1  1  0
  3  4  1  6
  3  2  1  0
  5  3  1  0
  5  6  2  0
  8  7  1  1
  8  9  1  0
  8 10  1  0
  9  5  1  0
 10 12  1  0
 10 11  2  0
 12 13  1  0
 13 14  1  1
 14 15  1  0
 15 20  2  0
 16 15  1  0
 16 17  2  0
 17 18  1  0
 18 19  2  0
 20 19  1  0
 21 22  1  0
 21 13  1  0
 23 21  2  0
M  END
$$$$
