SAF.pdb
     RDKit          3D

 23 23  0  0  1  0  0  0  0  0999 V2000
    6.5212  -17.9832   22.8007 O   0  0  0  0  0  0  0  0  0  0  0  0
    5.4214  -17.9565   21.9767 C   0  0  0  0  0  0  0  0  0  0  0  0
    5.7871  -17.5031   20.5820 C   0  0  2  0  0  0  0  0  0  0  0  0
    6.0176  -18.7042   19.8010 N   0  0  0  0  0  0  0  0  0  0  0  0
    6.9774  -16.6275   20.5553 C   0  0  0  0  0  0  0  0  0  0  0  0
    8.1070  -17.1447   20.3591 O   0  0  0  0  0  0  0  0  0  0  0  0
    7.7779  -12.9338   20.5056 C   0  0  0  0  0  0  0  0  0  0  0  0
    8.0846  -14.3728   20.7771 C   0  0  2  0  0  0  0  0  0  0  0  0
    6.9279  -15.2296   20.7381 N   0  0  0  0  0  0  0  0  0  0  0  0
    8.8022  -14.4575   22.0801 C   0  0  0  0  0  0  0  0  0  0  0  0
    9.8994  -13.8830   22.2982 O   0  0  0  0  0  0  0  0  0  0  0  0
    8.2111  -15.2243   23.1155 N   0  0  0  0  0  0  0  0  0  0  0  0
    8.7531  -15.2825   24.4628 C   0  0  1  0  0  0  0  0  0  0  0  0
    7.5823  -15.1973   25.4142 C   0  0  0  0  0  0  0  0  0  0  0  0
    7.3251  -13.8341   25.9119 C   0  0  0  0  0  0  0  0  0  0  0  0
    6.0453  -13.3474   26.0415 C   0  0  0  0  0  0  0  0  0  0  0  0
    5.8049  -12.0547   26.5187 C   0  0  0  0  0  0  0  0  0  0  0  0
    6.8729  -11.2393   26.8710 C   0  0  0  0  0  0  0  0  0  0  0  0
    8.1524  -11.7347   26.7380 C   0  0  0  0  0  0  0  0  0  0  0  0
    8.3715  -13.0085   26.2670 C   0  0  0  0  0  0  0  0  0  0  0  0
    9.5066  -16.5340   24.6924 C   0  0  0  0  0  0  0  0  0  0  0  0
    9.5826  -17.5151   23.6860 O   0  0  0  0  0  0  0  0  0  0  0  0
   10.1007  -16.7859   25.7583 O   0  0  0  0  0  0  0  0  0  0  0  0
  2  1  1  0
  3  4  1  6
  3  2  1  0
  5  3  1  0
  5  6  2  0
  8  7  1  1
  8  9  1  0
  8 10  1  0
  9  5  1  0
 10 12  1  0
 10 11  2  0
 12 13  1  0
 13 14  1  1
 14 15  1  0
 15 20  2  0
 16 15  1  0
 16 17  2  0
 17 18  1  0
 18 19  2  0
 20 19  1  0
 21 22  1  0
 21 13  1  0
 23 21  2  0
M  END
$$$$
