SAF.pdb
     RDKit          3D

 23 23  0  0  1  0  0  0  0  0999 V2000
    5.2924  -19.4434   23.1243 O   0  0  0  0  0  0  0  0  0  0  0  0
    5.5460  -18.1003   22.9792 C   0  0  0  0  0  0  0  0  0  0  0  0
    5.6060  -17.7038   21.5219 C   0  0  2  0  0  0  0  0  0  0  0  0
    5.6647  -18.9358   20.7575 N   0  0  0  0  0  0  0  0  0  0  0  0
    6.7633  -16.8398   21.2080 C   0  0  0  0  0  0  0  0  0  0  0  0
    7.8352  -17.3760   20.8267 O   0  0  0  0  0  0  0  0  0  0  0  0
    7.5906  -13.1603   20.9049 C   0  0  0  0  0  0  0  0  0  0  0  0
    7.9073  -14.5926   21.1994 C   0  0  2  0  0  0  0  0  0  0  0  0
    6.7431  -15.4330   21.3098 N   0  0  0  0  0  0  0  0  0  0  0  0
    8.7517  -14.6394   22.4261 C   0  0  0  0  0  0  0  0  0  0  0  0
    9.9083  -14.1490   22.4824 O   0  0  0  0  0  0  0  0  0  0  0  0
    8.2161  -15.2687   23.5778 N   0  0  0  0  0  0  0  0  0  0  0  0
    8.9396  -15.3624   24.8349 C   0  0  1  0  0  0  0  0  0  0  0  0
    7.9198  -15.2335   25.9423 C   0  0  0  0  0  0  0  0  0  0  0  0
    7.5267  -13.8411   26.2229 C   0  0  0  0  0  0  0  0  0  0  0  0
    8.4659  -12.8631   26.4535 C   0  0  0  0  0  0  0  0  0  0  0  0
    8.0891  -11.5416   26.7147 C   0  0  0  0  0  0  0  0  0  0  0  0
    6.7427  -11.2007   26.7440 C   0  0  0  0  0  0  0  0  0  0  0  0
    5.8079  -12.1867   26.5119 C   0  0  0  0  0  0  0  0  0  0  0  0
    6.1953  -13.4817   26.2564 C   0  0  0  0  0  0  0  0  0  0  0  0
    9.6608  -16.6479   24.9530 C   0  0  0  0  0  0  0  0  0  0  0  0
    9.5528  -17.6212   23.9419 O   0  0  0  0  0  0  0  0  0  0  0  0
   10.3848  -16.9362   25.9252 O   0  0  0  0  0  0  0  0  0  0  0  0
  2  1  1  0
  3  4  1  6
  3  2  1  0
  5  3  1  0
  5  6  2  0
  8  7  1  1
  8  9  1  0
  8 10  1  0
  9  5  1  0
 10 12  1  0
 10 11  2  0
 12 13  1  0
 13 14  1  1
 14 15  1  0
 15 20  2  0
 16 15  1  0
 16 17  2  0
 17 18  1  0
 18 19  2  0
 20 19  1  0
 21 22  1  0
 21 13  1  0
 23 21  2  0
M  END
$$$$
