SAF.pdb
     RDKit          3D

 23 23  0  0  1  0  0  0  0  0999 V2000
    9.4962  -12.5526   17.3258 O   0  0  0  0  0  0  0  0  0  0  0  0
    9.2824  -13.0633   18.5839 C   0  0  0  0  0  0  0  0  0  0  0  0
    8.2920  -14.2047   18.5557 C   0  0  2  0  0  0  0  0  0  0  0  0
    6.9830  -13.6148   18.3459 N   0  0  0  0  0  0  0  0  0  0  0  0
    8.3081  -15.0110   19.7942 C   0  0  0  0  0  0  0  0  0  0  0  0
    7.5483  -14.6835   20.7415 O   0  0  0  0  0  0  0  0  0  0  0  0
    9.7741  -18.2870   20.9978 C   0  0  0  0  0  0  0  0  0  0  0  0
    9.1525  -16.9388   21.1832 C   0  0  2  0  0  0  0  0  0  0  0  0
    9.1320  -16.1400   19.9853 N   0  0  0  0  0  0  0  0  0  0  0  0
    9.8556  -16.2527   22.3034 C   0  0  0  0  0  0  0  0  0  0  0  0
   10.8771  -15.5382   22.1378 O   0  0  0  0  0  0  0  0  0  0  0  0
    9.3400  -16.4202   23.6132 N   0  0  0  0  0  0  0  0  0  0  0  0
    9.9929  -15.8797   24.7938 C   0  0  1  0  0  0  0  0  0  0  0  0
    8.9240  -15.6993   25.8464 C   0  0  0  0  0  0  0  0  0  0  0  0
    9.4187  -15.0808   27.0893 C   0  0  0  0  0  0  0  0  0  0  0  0
    9.3277  -13.7249   27.3014 C   0  0  0  0  0  0  0  0  0  0  0  0
    9.7940  -13.1421   28.4844 C   0  0  0  0  0  0  0  0  0  0  0  0
   10.3618  -13.9399   29.4697 C   0  0  0  0  0  0  0  0  0  0  0  0
   10.4495  -15.2977   29.2492 C   0  0  0  0  0  0  0  0  0  0  0  0
    9.9859  -15.8551   28.0801 C   0  0  0  0  0  0  0  0  0  0  0  0
   11.0516  -16.7839   25.2921 C   0  0  0  0  0  0  0  0  0  0  0  0
   12.3023  -16.2697   25.6828 O   0  0  0  0  0  0  0  0  0  0  0  0
   10.9032  -18.0169   25.3922 O   0  0  0  0  0  0  0  0  0  0  0  0
  2  1  1  0
  3  4  1  1
  3  2  1  0
  5  3  1  0
  5  6  2  0
  8  7  1  6
  8  9  1  0
  8 10  1  0
  9  5  1  0
 10 12  1  0
 10 11  2  0
 12 13  1  0
 13 14  1  1
 14 15  1  0
 15 20  2  0
 16 15  1  0
 16 17  2  0
 17 18  1  0
 18 19  2  0
 20 19  1  0
 21 22  1  0
 21 13  1  0
 23 21  2  0
M  END
$$$$
