SAF.pdb
     RDKit          3D

 23 23  0  0  1  0  0  0  0  0999 V2000
    6.2288  -18.8906   24.7413 O   0  0  0  0  0  0  0  0  0  0  0  0
    5.3692  -17.9417   24.2413 C   0  0  0  0  0  0  0  0  0  0  0  0
    5.3741  -17.9337   22.7299 C   0  0  2  0  0  0  0  0  0  0  0  0
    5.3733  -19.3215   22.3063 N   0  0  0  0  0  0  0  0  0  0  0  0
    6.5346  -17.2159   22.1621 C   0  0  0  0  0  0  0  0  0  0  0  0
    7.5537  -17.8751   21.8322 O   0  0  0  0  0  0  0  0  0  0  0  0
    7.2618  -13.7471   20.8333 C   0  0  0  0  0  0  0  0  0  0  0  0
    7.6351  -15.1246   21.2825 C   0  0  2  0  0  0  0  0  0  0  0  0
    6.5738  -15.8199   21.9636 N   0  0  0  0  0  0  0  0  0  0  0  0
    8.8659  -15.0241   22.1161 C   0  0  0  0  0  0  0  0  0  0  0  0
    9.9814  -14.6731   21.6537 O   0  0  0  0  0  0  0  0  0  0  0  0
    8.7630  -15.3415   23.4938 N   0  0  0  0  0  0  0  0  0  0  0  0
    9.9060  -15.3420   24.3915 C   0  0  1  0  0  0  0  0  0  0  0  0
    9.8575  -14.0476   25.1694 C   0  0  0  0  0  0  0  0  0  0  0  0
    8.4973  -13.6582   25.5820 C   0  0  0  0  0  0  0  0  0  0  0  0
    7.9099  -14.1874   26.7074 C   0  0  0  0  0  0  0  0  0  0  0  0
    6.6205  -13.8118   27.0985 C   0  0  0  0  0  0  0  0  0  0  0  0
    5.9117  -12.8871   26.3419 C   0  0  0  0  0  0  0  0  0  0  0  0
    6.5075  -12.3616   25.2155 C   0  0  0  0  0  0  0  0  0  0  0  0
    7.7766  -12.7417   24.8448 C   0  0  0  0  0  0  0  0  0  0  0  0
    9.8703  -16.4947   25.3171 C   0  0  0  0  0  0  0  0  0  0  0  0
    8.7976  -17.4054   25.2802 O   0  0  0  0  0  0  0  0  0  0  0  0
   10.7610  -16.7208   26.1586 O   0  0  0  0  0  0  0  0  0  0  0  0
  2  1  1  0
  3  4  1  6
  3  2  1  0
  5  3  1  0
  5  6  2  0
  8  7  1  1
  8  9  1  0
  8 10  1  0
  9  5  1  0
 10 12  1  0
 10 11  2  0
 12 13  1  0
 13 14  1  1
 14 15  1  0
 15 20  2  0
 16 15  1  0
 16 17  2  0
 17 18  1  0
 18 19  2  0
 20 19  1  0
 21 22  1  0
 21 13  1  0
 23 21  2  0
M  END
$$$$
