SAF.pdb
     RDKit          3D

 23 23  0  0  1  0  0  0  0  0999 V2000
    7.6402  -17.0001   14.2307 O   0  0  0  0  0  0  0  0  0  0  0  0
    8.0380  -15.6998   14.4310 C   0  0  0  0  0  0  0  0  0  0  0  0
    9.2712  -15.6275   15.3021 C   0  0  2  0  0  0  0  0  0  0  0  0
   10.3357  -16.2904   14.5723 N   0  0  0  0  0  0  0  0  0  0  0  0
    9.0777  -16.2548   16.6262 C   0  0  0  0  0  0  0  0  0  0  0  0
    8.1710  -15.8156   17.3792 O   0  0  0  0  0  0  0  0  0  0  0  0
   10.2496  -19.3230   18.4915 C   0  0  0  0  0  0  0  0  0  0  0  0
    9.6884  -17.9390   18.4008 C   0  0  2  0  0  0  0  0  0  0  0  0
    9.8550  -17.3294   17.1070 N   0  0  0  0  0  0  0  0  0  0  0  0
   10.2924  -17.1201   19.4892 C   0  0  0  0  0  0  0  0  0  0  0  0
   11.4210  -16.5741   19.3918 O   0  0  0  0  0  0  0  0  0  0  0  0
    9.5512  -16.9556   20.6862 N   0  0  0  0  0  0  0  0  0  0  0  0
   10.0102  -16.1319   21.7922 C   0  0  1  0  0  0  0  0  0  0  0  0
    8.8273  -15.3133   22.2543 C   0  0  0  0  0  0  0  0  0  0  0  0
    8.3401  -14.3582   21.2430 C   0  0  0  0  0  0  0  0  0  0  0  0
    7.0760  -14.4594   20.7109 C   0  0  0  0  0  0  0  0  0  0  0  0
    6.6154  -13.5481   19.7548 C   0  0  0  0  0  0  0  0  0  0  0  0
    7.4437  -12.5178   19.3282 C   0  0  0  0  0  0  0  0  0  0  0  0
    8.7093  -12.4235   19.8663 C   0  0  0  0  0  0  0  0  0  0  0  0
    9.1467  -13.3280   20.8059 C   0  0  0  0  0  0  0  0  0  0  0  0
   10.5265  -16.9558   22.9064 C   0  0  0  0  0  0  0  0  0  0  0  0
   10.3066  -18.3460   22.9263 O   0  0  0  0  0  0  0  0  0  0  0  0
   11.1673  -16.4820   23.8642 O   0  0  0  0  0  0  0  0  0  0  0  0
  2  1  1  0
  3  4  1  6
  3  2  1  0
  5  3  1  0
  5  6  2  0
  8  7  1  6
  8  9  1  0
  8 10  1  0
  9  5  1  0
 10 12  1  0
 10 11  2  0
 12 13  1  0
 13 14  1  1
 14 15  1  0
 15 20  2  0
 16 15  1  0
 16 17  2  0
 17 18  1  0
 18 19  2  0
 20 19  1  0
 21 22  1  0
 21 13  1  0
 23 21  2  0
M  END
$$$$
