SAF.pdb
     RDKit          3D

 23 23  0  0  1  0  0  0  0  0999 V2000
    6.9109  -18.3221   23.0673 O   0  0  0  0  0  0  0  0  0  0  0  0
    6.8329  -18.9841   21.8653 C   0  0  0  0  0  0  0  0  0  0  0  0
    6.6129  -18.0237   20.7191 C   0  0  2  0  0  0  0  0  0  0  0  0
    6.7492  -18.7951   19.4977 N   0  0  0  0  0  0  0  0  0  0  0  0
    7.5611  -16.8901   20.7283 C   0  0  0  0  0  0  0  0  0  0  0  0
    8.7301  -17.0733   20.3019 O   0  0  0  0  0  0  0  0  0  0  0  0
    7.5481  -13.1601   21.1082 C   0  0  0  0  0  0  0  0  0  0  0  0
    8.1718  -14.5082   21.2872 C   0  0  2  0  0  0  0  0  0  0  0  0
    7.2354  -15.5979   21.1909 N   0  0  0  0  0  0  0  0  0  0  0  0
    8.9064  -14.5122   22.5835 C   0  0  0  0  0  0  0  0  0  0  0  0
    9.8555  -13.7272   22.8372 O   0  0  0  0  0  0  0  0  0  0  0  0
    8.5082  -15.4492   23.5698 N   0  0  0  0  0  0  0  0  0  0  0  0
    9.0768  -15.4777   24.9071 C   0  0  1  0  0  0  0  0  0  0  0  0
    7.9218  -15.4235   25.8797 C   0  0  0  0  0  0  0  0  0  0  0  0
    7.4218  -14.0590   26.1258 C   0  0  0  0  0  0  0  0  0  0  0  0
    6.0825  -13.7591   26.0379 C   0  0  0  0  0  0  0  0  0  0  0  0
    5.6111  -12.4640   26.2769 C   0  0  0  0  0  0  0  0  0  0  0  0
    6.5055  -11.4545   26.6100 C   0  0  0  0  0  0  0  0  0  0  0  0
    7.8461  -11.7634   26.6958 C   0  0  0  0  0  0  0  0  0  0  0  0
    8.2932  -13.0425   26.4578 C   0  0  0  0  0  0  0  0  0  0  0  0
    9.8761  -16.7013   25.1324 C   0  0  0  0  0  0  0  0  0  0  0  0
    9.9640  -17.6892   24.1336 O   0  0  0  0  0  0  0  0  0  0  0  0
   10.4999  -16.9229   26.1880 O   0  0  0  0  0  0  0  0  0  0  0  0
  2  1  1  0
  3  4  1  6
  3  2  1  0
  5  3  1  0
  5  6  2  0
  8  7  1  1
  8  9  1  0
  8 10  1  0
  9  5  1  0
 10 12  1  0
 10 11  2  0
 12 13  1  0
 13 14  1  1
 14 15  1  0
 15 20  2  0
 16 15  1  0
 16 17  2  0
 17 18  1  0
 18 19  2  0
 20 19  1  0
 21 22  1  0
 21 13  1  0
 23 21  2  0
M  END
$$$$
