SAF.pdb
     RDKit          3D

 23 23  0  0  1  0  0  0  0  0999 V2000
    6.8390  -18.0793   24.2268 O   0  0  0  0  0  0  0  0  0  0  0  0
    5.5483  -18.3042   23.8112 C   0  0  0  0  0  0  0  0  0  0  0  0
    5.3401  -17.8492   22.3850 C   0  0  2  0  0  0  0  0  0  0  0  0
    5.0514  -19.0391   21.6064 N   0  0  0  0  0  0  0  0  0  0  0  0
    6.5104  -17.1357   21.8321 C   0  0  0  0  0  0  0  0  0  0  0  0
    7.4328  -17.8045   21.2993 O   0  0  0  0  0  0  0  0  0  0  0  0
    7.5451  -13.6230   20.9623 C   0  0  0  0  0  0  0  0  0  0  0  0
    7.8245  -15.0301   21.3872 C   0  0  2  0  0  0  0  0  0  0  0  0
    6.6620  -15.7336   21.8637 N   0  0  0  0  0  0  0  0  0  0  0  0
    8.9176  -15.0018   22.3993 C   0  0  0  0  0  0  0  0  0  0  0  0
   10.0959  -14.6566   22.1276 O   0  0  0  0  0  0  0  0  0  0  0  0
    8.6032  -15.3838   23.7276 N   0  0  0  0  0  0  0  0  0  0  0  0
    9.6028  -15.4847   24.7778 C   0  0  1  0  0  0  0  0  0  0  0  0
    9.6076  -14.1640   25.5117 C   0  0  0  0  0  0  0  0  0  0  0  0
    8.2621  -13.5986   25.7170 C   0  0  0  0  0  0  0  0  0  0  0  0
    7.7291  -12.6797   24.8434 C   0  0  0  0  0  0  0  0  0  0  0  0
    6.4498  -12.1490   25.0389 C   0  0  0  0  0  0  0  0  0  0  0  0
    5.6955  -12.5514   26.1338 C   0  0  0  0  0  0  0  0  0  0  0  0
    6.2371  -13.4725   27.0047 C   0  0  0  0  0  0  0  0  0  0  0  0
    7.4969  -13.9849   26.7978 C   0  0  0  0  0  0  0  0  0  0  0  0
    9.2982  -16.5875   25.7147 C   0  0  0  0  0  0  0  0  0  0  0  0
   10.1578  -16.8630   26.7948 O   0  0  0  0  0  0  0  0  0  0  0  0
    8.2929  -17.3157   25.6064 O   0  0  0  0  0  0  0  0  0  0  0  0
  2  1  1  0
  3  4  1  6
  3  2  1  0
  5  3  1  0
  5  6  2  0
  8  7  1  1
  8  9  1  0
  8 10  1  0
  9  5  1  0
 10 12  1  0
 10 11  2  0
 12 13  1  0
 13 14  1  1
 14 15  1  0
 15 20  2  0
 16 15  1  0
 16 17  2  0
 17 18  1  0
 18 19  2  0
 20 19  1  0
 21 22  1  0
 21 13  1  0
 23 21  2  0
M  END
$$$$
