SAF.pdb
     RDKit          3D

 23 23  0  0  1  0  0  0  0  0999 V2000
    6.5535  -18.4633   23.8099 O   0  0  0  0  0  0  0  0  0  0  0  0
    6.4454  -19.2594   22.6947 C   0  0  0  0  0  0  0  0  0  0  0  0
    6.2134  -18.4360   21.4487 C   0  0  2  0  0  0  0  0  0  0  0  0
    6.2842  -19.3518   20.3254 N   0  0  0  0  0  0  0  0  0  0  0  0
    7.1941  -17.3415   21.2916 C   0  0  0  0  0  0  0  0  0  0  0  0
    8.3273  -17.6060   20.8142 O   0  0  0  0  0  0  0  0  0  0  0  0
    7.2954  -13.5937   21.2931 C   0  0  0  0  0  0  0  0  0  0  0  0
    7.9027  -14.9358   21.5544 C   0  0  2  0  0  0  0  0  0  0  0  0
    6.9379  -16.0007   21.6474 N   0  0  0  0  0  0  0  0  0  0  0  0
    8.7462  -14.8341   22.7784 C   0  0  0  0  0  0  0  0  0  0  0  0
    9.7286  -14.0547   22.8723 O   0  0  0  0  0  0  0  0  0  0  0  0
    8.4166  -15.6592   23.8829 N   0  0  0  0  0  0  0  0  0  0  0  0
    9.0934  -15.5687   25.1659 C   0  0  1  0  0  0  0  0  0  0  0  0
    8.0217  -15.4314   26.2221 C   0  0  0  0  0  0  0  0  0  0  0  0
    7.4582  -14.0729   26.3172 C   0  0  0  0  0  0  0  0  0  0  0  0
    6.1047  -13.8493   26.2195 C   0  0  0  0  0  0  0  0  0  0  0  0
    5.5730  -12.5590   26.3150 C   0  0  0  0  0  0  0  0  0  0  0  0
    6.4206  -11.4762   26.5122 C   0  0  0  0  0  0  0  0  0  0  0  0
    7.7758  -11.7088   26.6089 C   0  0  0  0  0  0  0  0  0  0  0  0
    8.2824  -12.9842   26.5129 C   0  0  0  0  0  0  0  0  0  0  0  0
    9.9198  -16.7660   25.4307 C   0  0  0  0  0  0  0  0  0  0  0  0
   10.7525  -16.8208   26.5642 O   0  0  0  0  0  0  0  0  0  0  0  0
    9.9274  -17.7666   24.6882 O   0  0  0  0  0  0  0  0  0  0  0  0
  2  1  1  0
  3  4  1  6
  3  2  1  0
  5  3  1  0
  5  6  2  0
  8  7  1  1
  8  9  1  0
  8 10  1  0
  9  5  1  0
 10 12  1  0
 10 11  2  0
 12 13  1  0
 13 14  1  1
 14 15  1  0
 15 20  2  0
 16 15  1  0
 16 17  2  0
 17 18  1  0
 18 19  2  0
 20 19  1  0
 21 22  1  0
 21 13  1  0
 23 21  2  0
M  END
$$$$
