SAF.pdb
     RDKit          3D

 23 23  0  0  1  0  0  0  0  0999 V2000
   10.6073  -13.6113   19.6230 O   0  0  0  0  0  0  0  0  0  0  0  0
    9.8318  -14.3057   18.7254 C   0  0  0  0  0  0  0  0  0  0  0  0
    8.3601  -14.0430   18.9481 C   0  0  2  0  0  0  0  0  0  0  0  0
    8.1636  -12.6141   18.7893 N   0  0  0  0  0  0  0  0  0  0  0  0
    7.8907  -14.4894   20.2765 C   0  0  0  0  0  0  0  0  0  0  0  0
    7.7856  -13.6414   21.1995 O   0  0  0  0  0  0  0  0  0  0  0  0
    6.6957  -17.7140   21.9023 C   0  0  0  0  0  0  0  0  0  0  0  0
    7.1045  -16.2751   21.8740 C   0  0  2  0  0  0  0  0  0  0  0  0
    7.5480  -15.8236   20.5806 N   0  0  0  0  0  0  0  0  0  0  0  0
    8.1377  -16.0645   22.9267 C   0  0  0  0  0  0  0  0  0  0  0  0
    9.3650  -15.9603   22.6730 O   0  0  0  0  0  0  0  0  0  0  0  0
    7.7056  -15.9791   24.2740 N   0  0  0  0  0  0  0  0  0  0  0  0
    8.6178  -15.7554   25.3831 C   0  0  1  0  0  0  0  0  0  0  0  0
    7.7836  -15.2932   26.5551 C   0  0  0  0  0  0  0  0  0  0  0  0
    7.2901  -13.9111   26.4190 C   0  0  0  0  0  0  0  0  0  0  0  0
    6.0506  -13.5426   26.8875 C   0  0  0  0  0  0  0  0  0  0  0  0
    5.5875  -12.2288   26.7607 C   0  0  0  0  0  0  0  0  0  0  0  0
    6.3878  -11.2708   26.1511 C   0  0  0  0  0  0  0  0  0  0  0  0
    7.6285  -11.6483   25.6841 C   0  0  0  0  0  0  0  0  0  0  0  0
    8.0689  -12.9448   25.8168 C   0  0  0  0  0  0  0  0  0  0  0  0
    9.3563  -16.9867   25.7371 C   0  0  0  0  0  0  0  0  0  0  0  0
   10.5018  -16.9212   26.5524 O   0  0  0  0  0  0  0  0  0  0  0  0
    9.0180  -18.1203   25.3461 O   0  0  0  0  0  0  0  0  0  0  0  0
  2  1  1  0
  3  4  1  1
  3  2  1  0
  5  3  1  0
  5  6  2  0
  8  7  1  6
  8  9  1  0
  8 10  1  0
  9  5  1  0
 10 12  1  0
 10 11  2  0
 12 13  1  0
 13 14  1  1
 14 15  1  0
 15 20  2  0
 16 15  1  0
 16 17  2  0
 17 18  1  0
 18 19  2  0
 20 19  1  0
 21 22  1  0
 21 13  1  0
 23 21  2  0
M  END
$$$$
