SAF.pdb
     RDKit          3D

 23 23  0  0  1  0  0  0  0  0999 V2000
   10.3729  -13.0623   19.2578 O   0  0  0  0  0  0  0  0  0  0  0  0
    9.6591  -14.1253   18.7580 C   0  0  0  0  0  0  0  0  0  0  0  0
    8.1768  -13.9591   19.0027 C   0  0  2  0  0  0  0  0  0  0  0  0
    7.8765  -12.5540   18.7999 N   0  0  0  0  0  0  0  0  0  0  0  0
    7.7651  -14.3904   20.3550 C   0  0  0  0  0  0  0  0  0  0  0  0
    7.6850  -13.5295   21.2684 O   0  0  0  0  0  0  0  0  0  0  0  0
    6.5883  -17.5817   22.0523 C   0  0  0  0  0  0  0  0  0  0  0  0
    7.0393  -16.1560   22.0025 C   0  0  2  0  0  0  0  0  0  0  0  0
    7.4517  -15.7238   20.6923 N   0  0  0  0  0  0  0  0  0  0  0  0
    8.1137  -15.9725   23.0183 C   0  0  0  0  0  0  0  0  0  0  0  0
    9.3318  -15.8801   22.7201 O   0  0  0  0  0  0  0  0  0  0  0  0
    7.7333  -15.8999   24.3819 N   0  0  0  0  0  0  0  0  0  0  0  0
    8.6898  -15.7079   25.4592 C   0  0  1  0  0  0  0  0  0  0  0  0
    7.9083  -15.2456   26.6669 C   0  0  0  0  0  0  0  0  0  0  0  0
    7.3537  -13.8874   26.5257 C   0  0  0  0  0  0  0  0  0  0  0  0
    8.1517  -12.8176   26.1936 C   0  0  0  0  0  0  0  0  0  0  0  0
    7.6209  -11.5308   26.0558 C   0  0  0  0  0  0  0  0  0  0  0  0
    6.2626  -11.3194   26.2565 C   0  0  0  0  0  0  0  0  0  0  0  0
    5.4698  -12.3968   26.5892 C   0  0  0  0  0  0  0  0  0  0  0  0
    6.0078  -13.6561   26.7207 C   0  0  0  0  0  0  0  0  0  0  0  0
    9.4169  -16.9575   25.7703 C   0  0  0  0  0  0  0  0  0  0  0  0
   10.6256  -16.9182   26.4905 O   0  0  0  0  0  0  0  0  0  0  0  0
    9.0143  -18.0845   25.4235 O   0  0  0  0  0  0  0  0  0  0  0  0
  2  1  1  0
  3  4  1  1
  3  2  1  0
  5  3  1  0
  5  6  2  0
  8  7  1  6
  8  9  1  0
  8 10  1  0
  9  5  1  0
 10 12  1  0
 10 11  2  0
 12 13  1  0
 13 14  1  1
 14 15  1  0
 15 20  2  0
 16 15  1  0
 16 17  2  0
 17 18  1  0
 18 19  2  0
 20 19  1  0
 21 22  1  0
 21 13  1  0
 23 21  2  0
M  END
$$$$
