SAF.pdb
     RDKit          3D

 23 23  0  0  1  0  0  0  0  0999 V2000
    6.8181  -18.7223   24.1213 O   0  0  0  0  0  0  0  0  0  0  0  0
    5.6171  -18.5932   23.4654 C   0  0  0  0  0  0  0  0  0  0  0  0
    5.8188  -18.3175   21.9930 C   0  0  2  0  0  0  0  0  0  0  0  0
    6.1181  -19.5924   21.3681 N   0  0  0  0  0  0  0  0  0  0  0  0
    6.8991  -17.3431   21.7329 C   0  0  0  0  0  0  0  0  0  0  0  0
    8.0352  -17.7702   21.4029 O   0  0  0  0  0  0  0  0  0  0  0  0
    7.3288  -13.6054   21.3626 C   0  0  0  0  0  0  0  0  0  0  0  0
    7.8020  -14.9892   21.6782 C   0  0  2  0  0  0  0  0  0  0  0  0
    6.7363  -15.9454   21.8322 N   0  0  0  0  0  0  0  0  0  0  0  0
    8.6720  -14.9190   22.8857 C   0  0  0  0  0  0  0  0  0  0  0  0
    9.7320  -14.2439   22.9297 O   0  0  0  0  0  0  0  0  0  0  0  0
    8.2767  -15.6517   24.0329 N   0  0  0  0  0  0  0  0  0  0  0  0
    9.0120  -15.6140   25.2860 C   0  0  1  0  0  0  0  0  0  0  0  0
    7.9976  -15.4152   26.3880 C   0  0  0  0  0  0  0  0  0  0  0  0
    7.5199  -14.0260   26.5061 C   0  0  0  0  0  0  0  0  0  0  0  0
    8.3828  -12.9920   26.7851 C   0  0  0  0  0  0  0  0  0  0  0  0
    7.9265  -11.6740   26.8918 C   0  0  0  0  0  0  0  0  0  0  0  0
    6.5774  -11.3943   26.7143 C   0  0  0  0  0  0  0  0  0  0  0  0
    5.7192  -12.4362   26.4351 C   0  0  0  0  0  0  0  0  0  0  0  0
    6.1844  -13.7269   26.3335 C   0  0  0  0  0  0  0  0  0  0  0  0
    9.7698  -16.8640   25.5099 C   0  0  0  0  0  0  0  0  0  0  0  0
    9.7020  -17.9154   24.5765 O   0  0  0  0  0  0  0  0  0  0  0  0
   10.4910  -17.0541   26.5080 O   0  0  0  0  0  0  0  0  0  0  0  0
  2  1  1  0
  3  4  1  6
  3  2  1  0
  5  3  1  0
  5  6  2  0
  8  7  1  1
  8  9  1  0
  8 10  1  0
  9  5  1  0
 10 12  1  0
 10 11  2  0
 12 13  1  0
 13 14  1  1
 14 15  1  0
 15 20  2  0
 16 15  1  0
 16 17  2  0
 17 18  1  0
 18 19  2  0
 20 19  1  0
 21 22  1  0
 21 13  1  0
 23 21  2  0
M  END
$$$$
