AKS.pdb
     RDKit          3D

 21 20  0  0  1  0  0  0  0  0999 V2000
   19.4275  -12.6958  -15.7602 C   0  0  0  0  0  0  0  0  0  0  0  0
   19.5732  -11.3600  -16.4470 C   0  0  2  0  0  0  0  0  0  0  0  0
   20.0001  -11.4843  -17.8249 N   0  0  0  0  0  0  0  0  0  0  0  0
   20.5211  -10.4720  -15.7166 C   0  0  0  0  0  0  0  0  0  0  0  0
   20.3270  -10.2119  -14.4983 O   0  0  0  0  0  0  0  0  0  0  0  0
   21.6534   -9.8886  -16.3212 N   0  0  0  0  0  0  0  0  0  0  0  0
   22.5382   -8.9525  -15.6435 C   0  0  1  0  0  0  0  0  0  0  0  0
   23.9313   -9.2518  -16.1323 C   0  0  0  0  0  0  0  0  0  0  0  0
   24.4721  -10.5509  -15.6052 C   0  0  0  0  0  0  0  0  0  0  0  0
   25.8590  -10.8412  -16.1644 C   0  0  0  0  0  0  0  0  0  0  0  0
   26.3581  -12.2107  -15.8434 C   0  0  0  0  0  0  0  0  0  0  0  0
   27.6608  -12.3873  -16.4886 N   0  0  0  0  0  0  0  0  0  0  0  0
   22.1087   -7.5717  -15.7689 C   0  0  0  0  0  0  0  0  0  0  0  0
   21.8676   -7.0770  -16.8898 O   0  0  0  0  0  0  0  0  0  0  0  0
   19.4032   -5.7021  -13.7275 O   0  0  0  0  0  0  0  0  0  0  0  0
   20.0113   -5.1771  -14.8750 C   0  0  0  0  0  0  0  0  0  0  0  0
   21.5129   -5.3141  -14.8014 C   0  0  2  0  0  0  0  0  0  0  0  0
   21.9315   -6.6871  -14.6425 N   0  0  0  0  0  0  0  0  0  0  0  0
   21.9834   -4.4724  -13.6750 C   0  0  0  0  0  0  0  0  0  0  0  0
   22.5425   -4.9502  -12.6559 O   0  0  0  0  0  0  0  0  0  0  0  0
   21.8095   -3.0974  -13.7270 O   0  0  0  0  0  0  0  0  0  0  0  0
  2  1  1  1
  3  2  1  0
  4  5  2  0
  4  2  1  0
  6  4  1  0
  7  6  1  0
  7 13  1  0
  7  8  1  6
  9 10  1  0
  9  8  1  0
 11 12  1  0
 11 10  1  0
 13 14  2  0
 15 16  1  0
 17 16  1  1
 18 13  1  0
 18 17  1  0
 19 21  1  0
 19 17  1  0
 20 19  2  0
M  END
$$$$
