AKS.pdb
     RDKit          3D

 21 20  0  0  1  0  0  0  0  0999 V2000
   26.2262  -11.2642  -15.5088 C   0  0  0  0  0  0  0  0  0  0  0  0
   25.0971  -11.7927  -16.3592 C   0  0  2  0  0  0  0  0  0  0  0  0
   25.5456  -12.2626  -17.6532 N   0  0  0  0  0  0  0  0  0  0  0  0
   24.0325  -10.7676  -16.5500 C   0  0  0  0  0  0  0  0  0  0  0  0
   24.2283   -9.7953  -17.3283 O   0  0  0  0  0  0  0  0  0  0  0  0
   22.7848  -10.8199  -15.8953 N   0  0  0  0  0  0  0  0  0  0  0  0
   21.7878   -9.7625  -15.9725 C   0  0  1  0  0  0  0  0  0  0  0  0
   20.4766  -10.3815  -15.5637 C   0  0  0  0  0  0  0  0  0  0  0  0
   19.8766  -11.2471  -16.6354 C   0  0  0  0  0  0  0  0  0  0  0  0
   18.5551  -11.8543  -16.1818 C   0  0  0  0  0  0  0  0  0  0  0  0
   17.5971  -10.8535  -15.6265 C   0  0  0  0  0  0  0  0  0  0  0  0
   16.3298  -11.5343  -15.3528 N   0  0  0  0  0  0  0  0  0  0  0  0
   22.1723   -8.5644  -15.2491 C   0  0  0  0  0  0  0  0  0  0  0  0
   22.7306   -8.6424  -14.1349 O   0  0  0  0  0  0  0  0  0  0  0  0
   23.5284   -3.9263  -15.3742 O   0  0  0  0  0  0  0  0  0  0  0  0
   22.9654   -5.0162  -16.0503 C   0  0  0  0  0  0  0  0  0  0  0  0
   22.4751   -6.0610  -15.0771 C   0  0  2  0  0  0  0  0  0  0  0  0
   21.9472   -7.2277  -15.7446 N   0  0  0  0  0  0  0  0  0  0  0  0
   21.4515   -5.4228  -14.2149 C   0  0  0  0  0  0  0  0  0  0  0  0
   20.2294   -5.4067  -14.5076 O   0  0  0  0  0  0  0  0  0  0  0  0
   21.8363   -4.8120  -13.0307 O   0  0  0  0  0  0  0  0  0  0  0  0
  2  1  1  6
  3  2  1  0
  4  5  2  0
  4  2  1  0
  6  4  1  0
  7  6  1  0
  7 13  1  0
  7  8  1  1
  9 10  1  0
  9  8  1  0
 11 12  1  0
 11 10  1  0
 13 14  2  0
 15 16  1  0
 17 16  1  6
 18 13  1  0
 18 17  1  0
 19 21  1  0
 19 17  1  0
 20 19  2  0
M  END
$$$$
