AKS.pdb
     RDKit          3D

 21 20  0  0  1  0  0  0  0  0999 V2000
   20.2128  -13.2866  -18.8823 C   0  0  0  0  0  0  0  0  0  0  0  0
   21.0002  -12.7018  -17.7354 C   0  0  2  0  0  0  0  0  0  0  0  0
   20.8139  -13.4335  -16.4999 N   0  0  0  0  0  0  0  0  0  0  0  0
   20.6586  -11.2683  -17.5145 C   0  0  0  0  0  0  0  0  0  0  0  0
   20.9040  -10.4179  -18.4124 O   0  0  0  0  0  0  0  0  0  0  0  0
   20.0611  -10.7912  -16.3298 N   0  0  0  0  0  0  0  0  0  0  0  0
   19.6313   -9.4136  -16.1406 C   0  0  1  0  0  0  0  0  0  0  0  0
   18.2386   -9.4757  -15.5696 C   0  0  0  0  0  0  0  0  0  0  0  0
   17.6562   -8.1183  -15.2935 C   0  0  0  0  0  0  0  0  0  0  0  0
   16.2313   -8.2239  -14.7650 C   0  0  0  0  0  0  0  0  0  0  0  0
   15.5420   -6.9062  -14.6381 C   0  0  0  0  0  0  0  0  0  0  0  0
   14.2198   -7.1348  -14.0513 N   0  0  0  0  0  0  0  0  0  0  0  0
   20.5857   -8.6181  -15.3902 C   0  0  0  0  0  0  0  0  0  0  0  0
   21.1509   -9.0844  -14.3791 O   0  0  0  0  0  0  0  0  0  0  0  0
   23.7037   -4.8887  -15.2168 O   0  0  0  0  0  0  0  0  0  0  0  0
   22.8016   -5.6727  -15.9472 C   0  0  0  0  0  0  0  0  0  0  0  0
   21.9661   -6.5319  -15.0294 C   0  0  2  0  0  0  0  0  0  0  0  0
   20.9468   -7.2659  -15.7420 N   0  0  0  0  0  0  0  0  0  0  0  0
   21.3724   -5.6422  -14.0025 C   0  0  0  0  0  0  0  0  0  0  0  0
   20.2805   -5.0430  -14.1704 O   0  0  0  0  0  0  0  0  0  0  0  0
   22.0326   -5.4486  -12.7982 O   0  0  0  0  0  0  0  0  0  0  0  0
  2  1  1  6
  3  2  1  0
  4  5  2  0
  4  2  1  0
  6  4  1  0
  7  6  1  0
  7 13  1  0
  7  8  1  1
  9 10  1  0
  9  8  1  0
 11 12  1  0
 11 10  1  0
 13 14  2  0
 15 16  1  0
 17 16  1  6
 18 13  1  0
 18 17  1  0
 19 21  1  0
 19 17  1  0
 20 19  2  0
M  END
$$$$
