AKS.pdb
     RDKit          3D

 21 20  0  0  1  0  0  0  0  0999 V2000
   16.2806   -6.3642  -19.4390 C   0  0  0  0  0  0  0  0  0  0  0  0
   16.9983   -7.6808  -19.2702 C   0  0  2  0  0  0  0  0  0  0  0  0
   16.1229   -8.8205  -19.4472 N   0  0  0  0  0  0  0  0  0  0  0  0
   17.6628   -7.7729  -17.9396 C   0  0  0  0  0  0  0  0  0  0  0  0
   17.0974   -7.2928  -16.9201 O   0  0  0  0  0  0  0  0  0  0  0  0
   18.9200   -8.3809  -17.7454 N   0  0  0  0  0  0  0  0  0  0  0  0
   19.5388   -8.5564  -16.4397 C   0  0  1  0  0  0  0  0  0  0  0  0
   20.0371   -9.9772  -16.3911 C   0  0  0  0  0  0  0  0  0  0  0  0
   18.9317  -10.9817  -16.2263 C   0  0  0  0  0  0  0  0  0  0  0  0
   19.4827  -12.3966  -16.1036 C   0  0  0  0  0  0  0  0  0  0  0  0
   18.4369  -13.4563  -16.2083 C   0  0  0  0  0  0  0  0  0  0  0  0
   19.1050  -14.7590  -16.2379 N   0  0  0  0  0  0  0  0  0  0  0  0
   20.5211   -7.5326  -16.1338 C   0  0  0  0  0  0  0  0  0  0  0  0
   21.4125   -7.2365  -16.9565 O   0  0  0  0  0  0  0  0  0  0  0  0
   22.1624   -3.4962  -14.7264 O   0  0  0  0  0  0  0  0  0  0  0  0
   21.1439   -4.4199  -14.9935 C   0  0  0  0  0  0  0  0  0  0  0  0
   21.5633   -5.8156  -14.5997 C   0  0  2  0  0  0  0  0  0  0  0  0
   20.5455   -6.7974  -14.8922 N   0  0  0  0  0  0  0  0  0  0  0  0
   21.8911   -5.7921  -13.1538 C   0  0  0  0  0  0  0  0  0  0  0  0
   21.1930   -6.3778  -12.2882 O   0  0  0  0  0  0  0  0  0  0  0  0
   23.0107   -5.1008  -12.7155 O   0  0  0  0  0  0  0  0  0  0  0  0
  2  1  1  1
  3  2  1  0
  4  5  2  0
  4  2  1  0
  6  4  1  0
  7  6  1  0
  7 13  1  0
  7  8  1  6
  9 10  1  0
  9  8  1  0
 11 12  1  0
 11 10  1  0
 13 14  2  0
 15 16  1  0
 17 16  1  1
 18 13  1  0
 18 17  1  0
 19 21  1  0
 19 17  1  0
 20 19  2  0
M  END
$$$$
