AKS.pdb
     RDKit          3D

 21 20  0  0  1  0  0  0  0  0999 V2000
   16.5754  -16.1367  -14.9373 C   0  0  0  0  0  0  0  0  0  0  0  0
   16.0067  -14.8285  -15.4298 C   0  0  2  0  0  0  0  0  0  0  0  0
   15.3769  -14.9471  -16.7282 N   0  0  0  0  0  0  0  0  0  0  0  0
   17.0505  -13.7664  -15.4845 C   0  0  0  0  0  0  0  0  0  0  0  0
   17.7132  -13.4823  -14.4502 O   0  0  0  0  0  0  0  0  0  0  0  0
   17.3509  -13.0394  -16.6547 N   0  0  0  0  0  0  0  0  0  0  0  0
   18.3285  -11.9625  -16.7073 C   0  0  1  0  0  0  0  0  0  0  0  0
   19.1108  -12.1581  -17.9798 C   0  0  0  0  0  0  0  0  0  0  0  0
   20.5968  -12.1814  -17.7577 C   0  0  0  0  0  0  0  0  0  0  0  0
   21.3534  -12.2377  -19.0787 C   0  0  0  0  0  0  0  0  0  0  0  0
   22.8361  -12.2903  -18.9163 C   0  0  0  0  0  0  0  0  0  0  0  0
   23.4379  -12.4437  -20.2425 N   0  0  0  0  0  0  0  0  0  0  0  0
   17.7382  -10.6491  -16.5254 C   0  0  0  0  0  0  0  0  0  0  0  0
   16.7294  -10.3063  -17.1766 O   0  0  0  0  0  0  0  0  0  0  0  0
   18.0771   -8.3692  -13.0855 O   0  0  0  0  0  0  0  0  0  0  0  0
   17.0876   -8.1619  -14.0550 C   0  0  0  0  0  0  0  0  0  0  0  0
   17.6411   -8.3665  -15.4445 C   0  0  2  0  0  0  0  0  0  0  0  0
   18.2541   -9.6642  -15.6053 N   0  0  0  0  0  0  0  0  0  0  0  0
   18.6111   -7.2754  -15.7039 C   0  0  0  0  0  0  0  0  0  0  0  0
   19.8197   -7.4894  -15.9743 O   0  0  0  0  0  0  0  0  0  0  0  0
   18.1888   -5.9554  -15.6512 O   0  0  0  0  0  0  0  0  0  0  0  0
  2  1  1  6
  3  2  1  0
  4  5  2  0
  4  2  1  0
  6  4  1  0
  7  6  1  0
  7 13  1  0
  7  8  1  6
  9 10  1  0
  9  8  1  0
 11 12  1  0
 11 10  1  0
 13 14  2  0
 15 16  1  0
 17 16  1  1
 18 13  1  0
 18 17  1  0
 19 21  1  0
 19 17  1  0
 20 19  2  0
M  END
$$$$
