AKS.pdb
     RDKit          3D

 21 20  0  0  1  0  0  0  0  0999 V2000
   23.8135  -12.7769  -17.7252 C   0  0  0  0  0  0  0  0  0  0  0  0
   24.1898  -11.8188  -16.6217 C   0  0  2  0  0  0  0  0  0  0  0  0
   24.1170  -12.4236  -15.3082 N   0  0  0  0  0  0  0  0  0  0  0  0
   23.3389  -10.5957  -16.6480 C   0  0  0  0  0  0  0  0  0  0  0  0
   23.3849   -9.8191  -17.6401 O   0  0  0  0  0  0  0  0  0  0  0  0
   22.4610  -10.2440  -15.6023 N   0  0  0  0  0  0  0  0  0  0  0  0
   21.5543   -9.1068  -15.6575 C   0  0  1  0  0  0  0  0  0  0  0  0
   20.2360   -9.5850  -15.1071 C   0  0  0  0  0  0  0  0  0  0  0  0
   19.4952  -10.4843  -16.0559 C   0  0  0  0  0  0  0  0  0  0  0  0
   18.2231  -11.0317  -15.4211 C   0  0  0  0  0  0  0  0  0  0  0  0
   17.5079  -12.0242  -16.2761 C   0  0  0  0  0  0  0  0  0  0  0  0
   16.4038  -12.5893  -15.4975 N   0  0  0  0  0  0  0  0  0  0  0  0
   22.1008   -7.9133  -15.0383 C   0  0  0  0  0  0  0  0  0  0  0  0
   22.7579   -7.9869  -13.9791 O   0  0  0  0  0  0  0  0  0  0  0  0
   23.1850   -3.1432  -15.2387 O   0  0  0  0  0  0  0  0  0  0  0  0
   22.6963   -4.2764  -15.9013 C   0  0  0  0  0  0  0  0  0  0  0  0
   22.4830   -5.4170  -14.9357 C   0  0  2  0  0  0  0  0  0  0  0  0
   21.9334   -6.5864  -15.5807 N   0  0  0  0  0  0  0  0  0  0  0  0
   21.5926   -4.9274  -13.8559 C   0  0  0  0  0  0  0  0  0  0  0  0
   20.3474   -5.0971  -13.8714 O   0  0  0  0  0  0  0  0  0  0  0  0
   22.1352   -4.2510  -12.7734 O   0  0  0  0  0  0  0  0  0  0  0  0
  2  1  1  6
  3  2  1  0
  4  5  2  0
  4  2  1  0
  6  4  1  0
  7  6  1  0
  7 13  1  0
  7  8  1  1
  9 10  1  0
  9  8  1  0
 11 12  1  0
 11 10  1  0
 13 14  2  0
 15 16  1  0
 17 16  1  6
 18 13  1  0
 18 17  1  0
 19 21  1  0
 19 17  1  0
 20 19  2  0
M  END
$$$$
