AKS.pdb
     RDKit          3D

 21 20  0  0  1  0  0  0  0  0999 V2000
   22.6905  -11.6071  -20.5872 C   0  0  0  0  0  0  0  0  0  0  0  0
   23.3372  -11.1403  -19.3061 C   0  0  2  0  0  0  0  0  0  0  0  0
   23.5634  -12.2207  -18.3691 N   0  0  0  0  0  0  0  0  0  0  0  0
   22.5308  -10.0761  -18.6446 C   0  0  0  0  0  0  0  0  0  0  0  0
   22.3290   -8.9811  -19.2360 O   0  0  0  0  0  0  0  0  0  0  0  0
   21.9637  -10.2228  -17.3620 N   0  0  0  0  0  0  0  0  0  0  0  0
   21.0391   -9.2649  -16.7739 C   0  0  1  0  0  0  0  0  0  0  0  0
   19.8896  -10.0659  -16.2203 C   0  0  0  0  0  0  0  0  0  0  0  0
   18.8401   -9.2120  -15.5664 C   0  0  0  0  0  0  0  0  0  0  0  0
   17.6664  -10.0525  -15.0799 C   0  0  0  0  0  0  0  0  0  0  0  0
   16.5548   -9.2453  -14.4965 C   0  0  0  0  0  0  0  0  0  0  0  0
   15.5050  -10.1643  -14.0515 N   0  0  0  0  0  0  0  0  0  0  0  0
   21.6797   -8.3543  -15.8428 C   0  0  0  0  0  0  0  0  0  0  0  0
   22.3747   -8.7884  -14.9006 O   0  0  0  0  0  0  0  0  0  0  0  0
   21.4739   -4.1062  -16.2117 O   0  0  0  0  0  0  0  0  0  0  0  0
   22.6290   -4.7167  -15.7067 C   0  0  0  0  0  0  0  0  0  0  0  0
   22.3003   -6.0358  -15.0505 C   0  0  2  0  0  0  0  0  0  0  0  0
   21.5680   -6.9180  -15.9287 N   0  0  0  0  0  0  0  0  0  0  0  0
   21.5316   -5.7418  -13.8171 C   0  0  0  0  0  0  0  0  0  0  0  0
   20.3626   -6.1623  -13.6274 O   0  0  0  0  0  0  0  0  0  0  0  0
   22.1074   -4.9720  -12.8173 O   0  0  0  0  0  0  0  0  0  0  0  0
  2  1  1  6
  3  2  1  0
  4  5  2  0
  4  2  1  0
  6  4  1  0
  7  6  1  0
  7 13  1  0
  7  8  1  1
  9 10  1  0
  9  8  1  0
 11 12  1  0
 11 10  1  0
 13 14  2  0
 15 16  1  0
 17 16  1  6
 18 13  1  0
 18 17  1  0
 19 21  1  0
 19 17  1  0
 20 19  2  0
M  END
$$$$
