AKS.pdb
     RDKit          3D

 21 20  0  0  1  0  0  0  0  0999 V2000
   17.4649  -12.3672  -15.0844 C   0  0  0  0  0  0  0  0  0  0  0  0
   17.5023  -10.9971  -15.7157 C   0  0  2  0  0  0  0  0  0  0  0  0
   17.1736  -11.0229  -17.1256 N   0  0  0  0  0  0  0  0  0  0  0  0
   18.8313  -10.3484  -15.5323 C   0  0  0  0  0  0  0  0  0  0  0  0
   19.2999  -10.1923  -14.3723 O   0  0  0  0  0  0  0  0  0  0  0  0
   19.6188   -9.8857  -16.6064 N   0  0  0  0  0  0  0  0  0  0  0  0
   20.8617   -9.1476  -16.4367 C   0  0  1  0  0  0  0  0  0  0  0  0
   21.7315   -9.4999  -17.6152 C   0  0  0  0  0  0  0  0  0  0  0  0
   22.1974  -10.9284  -17.5948 C   0  0  0  0  0  0  0  0  0  0  0  0
   22.9205  -11.2937  -18.8850 C   0  0  0  0  0  0  0  0  0  0  0  0
   23.2722  -12.7408  -18.9836 C   0  0  0  0  0  0  0  0  0  0  0  0
   23.8410  -12.9852  -20.3108 N   0  0  0  0  0  0  0  0  0  0  0  0
   20.6542   -7.7295  -16.2075 C   0  0  0  0  0  0  0  0  0  0  0  0
   19.8305   -7.0858  -16.8903 O   0  0  0  0  0  0  0  0  0  0  0  0
   19.3846   -4.0624  -14.1261 O   0  0  0  0  0  0  0  0  0  0  0  0
   19.6410   -5.4070  -14.4232 C   0  0  0  0  0  0  0  0  0  0  0  0
   21.0539   -5.5902  -14.9223 C   0  0  2  0  0  0  0  0  0  0  0  0
   21.3618   -6.9730  -15.2026 N   0  0  0  0  0  0  0  0  0  0  0  0
   21.9662   -5.0313  -13.8957 C   0  0  0  0  0  0  0  0  0  0  0  0
   22.8214   -5.7281  -13.2936 O   0  0  0  0  0  0  0  0  0  0  0  0
   21.8901   -3.6852  -13.5704 O   0  0  0  0  0  0  0  0  0  0  0  0
  2  1  1  6
  3  2  1  0
  4  5  2  0
  4  2  1  0
  6  4  1  0
  7  6  1  0
  7 13  1  0
  7  8  1  6
  9 10  1  0
  9  8  1  0
 11 12  1  0
 11 10  1  0
 13 14  2  0
 15 16  1  0
 17 16  1  1
 18 13  1  0
 18 17  1  0
 19 21  1  0
 19 17  1  0
 20 19  2  0
M  END
$$$$
