AKS.pdb
     RDKit          3D

 21 20  0  0  1  0  0  0  0  0999 V2000
   14.3225  -16.7073    4.5360 C   0  0  0  0  0  0  0  0  0  0  0  0
   15.5651  -16.5298    3.6984 C   0  0  2  0  0  0  0  0  0  0  0  0
   15.8093  -17.6523    2.8170 N   0  0  0  0  0  0  0  0  0  0  0  0
   16.7675  -16.3011    4.5484 C   0  0  0  0  0  0  0  0  0  0  0  0
   17.5772  -17.2443    4.7588 O   0  0  0  0  0  0  0  0  0  0  0  0
   17.0633  -15.0601    5.1486 N   0  0  0  0  0  0  0  0  0  0  0  0
   18.1570  -14.8578    6.0874 C   0  0  1  0  0  0  0  0  0  0  0  0
   18.5308  -13.4010    5.9997 C   0  0  0  0  0  0  0  0  0  0  0  0
   19.6798  -13.0347    6.8961 C   0  0  0  0  0  0  0  0  0  0  0  0
   20.1638  -11.6160    6.6245 C   0  0  0  0  0  0  0  0  0  0  0  0
   21.2429  -11.1651    7.5517 C   0  0  0  0  0  0  0  0  0  0  0  0
   21.6199   -9.7979    7.1867 N   0  0  0  0  0  0  0  0  0  0  0  0
   17.8626  -15.3543    7.4191 C   0  0  0  0  0  0  0  0  0  0  0  0
   16.7397  -15.1736    7.9344 O   0  0  0  0  0  0  0  0  0  0  0  0
   17.8906  -18.5867   10.7490 O   0  0  0  0  0  0  0  0  0  0  0  0
   18.3803  -18.1124    9.5254 C   0  0  0  0  0  0  0  0  0  0  0  0
   18.4737  -16.6057    9.5283 C   0  0  2  0  0  0  0  0  0  0  0  0
   18.8151  -16.0747    8.2294 N   0  0  0  0  0  0  0  0  0  0  0  0
   19.4783  -16.2224   10.5493 C   0  0  0  0  0  0  0  0  0  0  0  0
   20.6462  -15.8645   10.2539 O   0  0  0  0  0  0  0  0  0  0  0  0
   19.1364  -16.2529   11.8931 O   0  0  0  0  0  0  0  0  0  0  0  0
  2  1  1  1
  3  2  1  0
  4  5  2  0
  4  2  1  0
  6  4  1  0
  7  6  1  0
  7 13  1  0
  7  8  1  1
  9 10  1  0
  9  8  1  0
 11 12  1  0
 11 10  1  0
 13 14  2  0
 15 16  1  0
 17 16  1  6
 18 13  1  0
 18 17  1  0
 19 21  1  0
 19 17  1  0
 20 19  2  0
M  END
$$$$
