AKS.pdb
     RDKit          3D

 21 20  0  0  1  0  0  0  0  0999 V2000
   19.1682  -12.5188  -15.4965 C   0  0  0  0  0  0  0  0  0  0  0  0
   18.6635  -11.1361  -15.8292 C   0  0  2  0  0  0  0  0  0  0  0  0
   17.8725  -11.1073  -17.0416 N   0  0  0  0  0  0  0  0  0  0  0  0
   19.7839  -10.1611  -15.9497 C   0  0  0  0  0  0  0  0  0  0  0  0
   20.5479   -9.9569  -14.9677 O   0  0  0  0  0  0  0  0  0  0  0  0
   20.0495   -9.4326  -17.1273 N   0  0  0  0  0  0  0  0  0  0  0  0
   21.1296   -8.4649  -17.2515 C   0  0  1  0  0  0  0  0  0  0  0  0
   21.3838   -8.2961  -18.7268 C   0  0  0  0  0  0  0  0  0  0  0  0
   22.2375   -9.3896  -19.3042 C   0  0  0  0  0  0  0  0  0  0  0  0
   22.5460   -9.1337  -20.7740 C   0  0  0  0  0  0  0  0  0  0  0  0
   23.3593  -10.2113  -21.4102 C   0  0  0  0  0  0  0  0  0  0  0  0
   23.5092   -9.8943  -22.8320 N   0  0  0  0  0  0  0  0  0  0  0  0
   20.8852   -7.2416  -16.5096 C   0  0  0  0  0  0  0  0  0  0  0  0
   19.7921   -6.6453  -16.6031 O   0  0  0  0  0  0  0  0  0  0  0  0
   20.9818   -4.4335  -12.8153 O   0  0  0  0  0  0  0  0  0  0  0  0
   21.2445   -5.6424  -13.4723 C   0  0  0  0  0  0  0  0  0  0  0  0
   21.5902   -5.4052  -14.9225 C   0  0  2  0  0  0  0  0  0  0  0  0
   21.8565   -6.6350  -15.6312 N   0  0  0  0  0  0  0  0  0  0  0  0
   22.7612   -4.4963  -14.9596 C   0  0  0  0  0  0  0  0  0  0  0  0
   22.7348   -3.3329  -14.4851 O   0  0  0  0  0  0  0  0  0  0  0  0
   23.9459   -4.9275  -15.5376 O   0  0  0  0  0  0  0  0  0  0  0  0
  2  1  1  6
  3  2  1  0
  4  5  2  0
  4  2  1  0
  6  4  1  0
  7  6  1  0
  7 13  1  0
  7  8  1  6
  9 10  1  0
  9  8  1  0
 11 12  1  0
 11 10  1  0
 13 14  2  0
 15 16  1  0
 17 16  1  1
 18 13  1  0
 18 17  1  0
 19 21  1  0
 19 17  1  0
 20 19  2  0
M  END
$$$$
