AKS.pdb
     RDKit          3D

 21 20  0  0  1  0  0  0  0  0999 V2000
   17.0574  -11.2279  -15.3514 C   0  0  0  0  0  0  0  0  0  0  0  0
   17.8184   -9.9433  -15.5704 C   0  0  2  0  0  0  0  0  0  0  0  0
   17.8868   -9.5661  -16.9667 N   0  0  0  0  0  0  0  0  0  0  0  0
   19.1987  -10.0259  -15.0150 C   0  0  0  0  0  0  0  0  0  0  0  0
   19.3695  -10.1727  -13.7745 O   0  0  0  0  0  0  0  0  0  0  0  0
   20.3579   -9.9478  -15.8141 N   0  0  0  0  0  0  0  0  0  0  0  0
   21.7104  -10.0493  -15.2862 C   0  0  1  0  0  0  0  0  0  0  0  0
   22.4764  -10.9274  -16.2411 C   0  0  0  0  0  0  0  0  0  0  0  0
   23.8942  -11.1702  -15.8066 C   0  0  0  0  0  0  0  0  0  0  0  0
   24.6693  -11.9540  -16.8581 C   0  0  0  0  0  0  0  0  0  0  0  0
   26.1120  -12.1382  -16.5231 C   0  0  0  0  0  0  0  0  0  0  0  0
   26.7128  -13.0022  -17.5415 N   0  0  0  0  0  0  0  0  0  0  0  0
   22.3075   -8.7577  -14.9999 C   0  0  0  0  0  0  0  0  0  0  0  0
   23.4757   -8.6759  -14.5668 O   0  0  0  0  0  0  0  0  0  0  0  0
   21.5966   -5.5454  -17.1013 O   0  0  0  0  0  0  0  0  0  0  0  0
   21.7171   -5.1217  -15.7716 C   0  0  0  0  0  0  0  0  0  0  0  0
   22.2429   -6.2332  -14.8958 C   0  0  2  0  0  0  0  0  0  0  0  0
   21.6196   -7.5029  -15.1873 N   0  0  0  0  0  0  0  0  0  0  0  0
   22.0203   -5.8337  -13.4853 C   0  0  0  0  0  0  0  0  0  0  0  0
   21.3013   -6.4963  -12.6958 O   0  0  0  0  0  0  0  0  0  0  0  0
   22.6211   -4.6837  -12.9953 O   0  0  0  0  0  0  0  0  0  0  0  0
  2  1  1  6
  3  2  1  0
  4  5  2  0
  4  2  1  0
  6  4  1  0
  7  6  1  0
  7 13  1  0
  7  8  1  6
  9 10  1  0
  9  8  1  0
 11 12  1  0
 11 10  1  0
 13 14  2  0
 15 16  1  0
 17 16  1  6
 18 13  1  0
 18 17  1  0
 19 21  1  0
 19 17  1  0
 20 19  2  0
M  END
$$$$
