AKS.pdb
     RDKit          3D

 21 20  0  0  1  0  0  0  0  0999 V2000
   15.9739  -11.4387  -10.7629 C   0  0  0  0  0  0  0  0  0  0  0  0
   15.0279  -10.4121  -10.1898 C   0  0  2  0  0  0  0  0  0  0  0  0
   13.6749  -10.5630  -10.6828 N   0  0  0  0  0  0  0  0  0  0  0  0
   15.4989   -9.0248  -10.4622 C   0  0  0  0  0  0  0  0  0  0  0  0
   15.4326   -8.5566  -11.6310 O   0  0  0  0  0  0  0  0  0  0  0  0
   16.0287   -8.1802   -9.4653 N   0  0  0  0  0  0  0  0  0  0  0  0
   16.4817   -6.8200   -9.7168 C   0  0  1  0  0  0  0  0  0  0  0  0
   16.0329   -5.9960   -8.5382 C   0  0  0  0  0  0  0  0  0  0  0  0
   14.5845   -5.6032   -8.6140 C   0  0  0  0  0  0  0  0  0  0  0  0
   14.1899   -4.7130   -7.4424 C   0  0  0  0  0  0  0  0  0  0  0  0
   12.7559   -4.2999   -7.4623 C   0  0  0  0  0  0  0  0  0  0  0  0
   12.5087   -3.4440   -6.3000 N   0  0  0  0  0  0  0  0  0  0  0  0
   17.8946   -6.7418  -10.0396 C   0  0  0  0  0  0  0  0  0  0  0  0
   18.7451   -7.3169   -9.3289 O   0  0  0  0  0  0  0  0  0  0  0  0
   21.3900   -7.7977  -12.4005 O   0  0  0  0  0  0  0  0  0  0  0  0
   20.0812   -7.6518  -11.9233 C   0  0  0  0  0  0  0  0  0  0  0  0
   19.7630   -6.2010  -11.6535 C   0  0  2  0  0  0  0  0  0  0  0  0
   18.4137   -6.0153  -11.1734 N   0  0  0  0  0  0  0  0  0  0  0  0
   19.9965   -5.4512  -12.9113 C   0  0  0  0  0  0  0  0  0  0  0  0
   21.1392   -5.0805  -13.2804 O   0  0  0  0  0  0  0  0  0  0  0  0
   18.9229   -5.1349  -13.7305 O   0  0  0  0  0  0  0  0  0  0  0  0
  2  1  1  6
  3  2  1  0
  4  5  2  0
  4  2  1  0
  6  4  1  0
  7  6  1  0
  7 13  1  0
  7  8  1  1
  9 10  1  0
  9  8  1  0
 11 12  1  0
 11 10  1  0
 13 14  2  0
 15 16  1  0
 17 16  1  6
 18 13  1  0
 18 17  1  0
 19 21  1  0
 19 17  1  0
 20 19  2  0
M  END
$$$$
