AKS.pdb
     RDKit          3D

 21 20  0  0  1  0  0  0  0  0999 V2000
   16.1729   -8.5068  -11.1995 C   0  0  0  0  0  0  0  0  0  0  0  0
   16.3267   -9.5324  -12.2958 C   0  0  2  0  0  0  0  0  0  0  0  0
   16.3265  -10.8905  -11.7938 N   0  0  0  0  0  0  0  0  0  0  0  0
   17.5672   -9.3011  -13.0885 C   0  0  0  0  0  0  0  0  0  0  0  0
   18.6955   -9.5010  -12.5627 O   0  0  0  0  0  0  0  0  0  0  0  0
   17.5560   -8.8603  -14.4277 N   0  0  0  0  0  0  0  0  0  0  0  0
   18.7531   -8.4757  -15.1609 C   0  0  1  0  0  0  0  0  0  0  0  0
   18.4199   -8.6127  -16.6237 C   0  0  0  0  0  0  0  0  0  0  0  0
   18.5320  -10.0260  -17.1215 C   0  0  0  0  0  0  0  0  0  0  0  0
   18.0752  -10.1409  -18.5702 C   0  0  0  0  0  0  0  0  0  0  0  0
   18.1907  -11.5214  -19.1255 C   0  0  0  0  0  0  0  0  0  0  0  0
   17.5989  -11.5283  -20.4650 N   0  0  0  0  0  0  0  0  0  0  0  0
   19.2808   -7.1869  -14.7521 C   0  0  0  0  0  0  0  0  0  0  0  0
   18.5162   -6.2251  -14.5293 O   0  0  0  0  0  0  0  0  0  0  0  0
   22.2894   -4.4461  -12.3758 O   0  0  0  0  0  0  0  0  0  0  0  0
   21.9014   -5.7184  -12.8150 C   0  0  0  0  0  0  0  0  0  0  0  0
   21.1801   -5.6364  -14.1386 C   0  0  2  0  0  0  0  0  0  0  0  0
   20.6884   -6.9219  -14.5760 N   0  0  0  0  0  0  0  0  0  0  0  0
   22.1218   -5.0545  -15.1250 C   0  0  0  0  0  0  0  0  0  0  0  0
   22.5474   -5.6948  -16.1192 O   0  0  0  0  0  0  0  0  0  0  0  0
   22.5649   -3.7502  -14.9635 O   0  0  0  0  0  0  0  0  0  0  0  0
  2  1  1  1
  3  2  1  0
  4  5  2  0
  4  2  1  0
  6  4  1  0
  7  6  1  0
  7 13  1  0
  7  8  1  6
  9 10  1  0
  9  8  1  0
 11 12  1  0
 11 10  1  0
 13 14  2  0
 15 16  1  0
 17 16  1  1
 18 13  1  0
 18 17  1  0
 19 21  1  0
 19 17  1  0
 20 19  2  0
M  END
$$$$
