AKS.pdb
     RDKit          3D

 21 20  0  0  1  0  0  0  0  0999 V2000
   18.0510  -13.5259  -14.1241 C   0  0  0  0  0  0  0  0  0  0  0  0
   16.8121  -13.1214  -13.3634 C   0  0  2  0  0  0  0  0  0  0  0  0
   15.6012  -13.6721  -13.9352 N   0  0  0  0  0  0  0  0  0  0  0  0
   16.6853  -11.6392  -13.2767 C   0  0  0  0  0  0  0  0  0  0  0  0
   16.4494  -10.9665  -14.3166 O   0  0  0  0  0  0  0  0  0  0  0  0
   16.8166  -10.9229  -12.0693 N   0  0  0  0  0  0  0  0  0  0  0  0
   16.6667   -9.4788  -11.9671 C   0  0  1  0  0  0  0  0  0  0  0  0
   15.8385   -9.2219  -10.7352 C   0  0  0  0  0  0  0  0  0  0  0  0
   14.3929   -9.5920  -10.9120 C   0  0  0  0  0  0  0  0  0  0  0  0
   13.5953   -9.3332   -9.6402 C   0  0  0  0  0  0  0  0  0  0  0  0
   12.2054   -9.8752   -9.6858 C   0  0  0  0  0  0  0  0  0  0  0  0
   11.5466   -9.5560   -8.4175 N   0  0  0  0  0  0  0  0  0  0  0  0
   17.9311   -8.7695  -12.0362 C   0  0  0  0  0  0  0  0  0  0  0  0
   18.9106   -9.1422  -11.3572 O   0  0  0  0  0  0  0  0  0  0  0  0
   21.6101   -7.5217  -14.1177 O   0  0  0  0  0  0  0  0  0  0  0  0
   20.3695   -8.0904  -13.8024 C   0  0  0  0  0  0  0  0  0  0  0  0
   19.4717   -7.0855  -13.1218 C   0  0  2  0  0  0  0  0  0  0  0  0
   18.1509   -7.6121  -12.8697 N   0  0  0  0  0  0  0  0  0  0  0  0
   19.4169   -5.8800  -13.9835 C   0  0  0  0  0  0  0  0  0  0  0  0
   18.5647   -5.7336  -14.8954 O   0  0  0  0  0  0  0  0  0  0  0  0
   20.3353   -4.8583  -13.7927 O   0  0  0  0  0  0  0  0  0  0  0  0
  2  1  1  6
  3  2  1  0
  4  5  2  0
  4  2  1  0
  6  4  1  0
  7  6  1  0
  7 13  1  0
  7  8  1  1
  9 10  1  0
  9  8  1  0
 11 12  1  0
 11 10  1  0
 13 14  2  0
 15 16  1  0
 17 16  1  6
 18 13  1  0
 18 17  1  0
 19 21  1  0
 19 17  1  0
 20 19  2  0
M  END
$$$$
