KGT.pdb
     RDKit          3D

 21 20  0  0  1  0  0  0  0  0999 V2000
    9.4463  -16.4915   19.8466 N   0  0  0  0  0  0  0  0  0  0  0  0
    9.0617  -17.6319   20.6502 C   0  0  1  0  0  0  0  0  0  0  0  0
   10.2052  -18.3375   21.3008 C   0  0  0  0  0  0  0  0  0  0  0  0
   10.4999  -19.7076   20.8248 C   0  0  0  0  0  0  0  0  0  0  0  0
   11.9131  -19.9897   20.4515 C   0  0  0  0  0  0  0  0  0  0  0  0
   12.0509  -21.4087   19.9112 C   0  0  0  0  0  0  0  0  0  0  0  0
   13.3810  -21.6908   19.4624 N   0  0  0  0  0  0  0  0  0  0  0  0
    8.1762  -17.1453   21.7372 C   0  0  0  0  0  0  0  0  0  0  0  0
    7.5575  -18.0406   22.3952 O   0  0  0  0  0  0  0  0  0  0  0  0
    8.0499  -15.7662   21.9999 N   0  0  0  0  0  0  0  0  0  0  0  0
    7.1244  -15.3246   23.0078 C   0  0  0  0  0  0  0  0  0  0  0  0
    7.8009  -14.5525   24.0873 C   0  0  0  0  0  0  0  0  0  0  0  0
    9.0537  -14.4084   24.0726 O   0  0  0  0  0  0  0  0  0  0  0  0
    6.4580  -11.0819   25.5021 C   0  0  0  0  0  0  0  0  0  0  0  0
    6.6975  -12.1038   26.5976 C   0  0  1  0  0  0  0  0  0  0  0  0
    5.4826  -12.7532   26.8101 O   0  0  0  0  0  0  0  0  0  0  0  0
    7.7656  -13.1210   26.1697 C   0  0  2  0  0  0  0  0  0  0  0  0
    7.0977  -13.9549   25.1583 N   0  0  0  0  0  0  0  0  0  0  0  0
    8.0658  -13.9313   27.3620 C   0  0  0  0  0  0  0  0  0  0  0  0
    7.6900  -15.1176   27.4186 O   0  0  0  0  0  0  0  0  0  0  0  0
    8.7609  -13.3774   28.4121 O   0  0  0  0  0  0  0  0  0  0  0  0
  2  3  1  0
  2  1  1  1
  4  3  1  0
  5  4  1  0
  6  5  1  0
  7  6  1  0
  8  2  1  0
  8  9  2  0
 10  8  1  0
 11 10  1  0
 11 12  1  0
 12 13  2  0
 15 14  1  6
 15 16  1  0
 17 15  1  0
 18 12  1  0
 17 18  1  6
 19 21  1  0
 19 17  1  0
 20 19  2  0
M  END
$$$$
