KGT.pdb
     RDKit          3D

 21 20  0  0  1  0  0  0  0  0999 V2000
    6.9615  -18.7641   23.9596 N   0  0  0  0  0  0  0  0  0  0  0  0
    7.0255  -18.7682   22.5139 C   0  0  1  0  0  0  0  0  0  0  0  0
    5.7435  -19.1379   21.8441 C   0  0  0  0  0  0  0  0  0  0  0  0
    4.9726  -20.2477   22.4481 C   0  0  0  0  0  0  0  0  0  0  0  0
    3.7136  -20.6343   21.7542 C   0  0  0  0  0  0  0  0  0  0  0  0
    3.0401  -21.7964   22.4756 C   0  0  0  0  0  0  0  0  0  0  0  0
    1.8302  -22.2071   21.8295 N   0  0  0  0  0  0  0  0  0  0  0  0
    7.3675  -17.3942   22.0693 C   0  0  0  0  0  0  0  0  0  0  0  0
    7.4604  -17.2216   20.8127 O   0  0  0  0  0  0  0  0  0  0  0  0
    7.5713  -16.3632   23.0088 N   0  0  0  0  0  0  0  0  0  0  0  0
    8.0823  -15.0958   22.5616 C   0  0  0  0  0  0  0  0  0  0  0  0
    8.1060  -14.0857   23.6563 C   0  0  0  0  0  0  0  0  0  0  0  0
    8.5374  -12.9217   23.4343 O   0  0  0  0  0  0  0  0  0  0  0  0
    6.2719  -11.9146   25.9037 C   0  0  0  0  0  0  0  0  0  0  0  0
    6.8350  -13.0344   26.7582 C   0  0  1  0  0  0  0  0  0  0  0  0
    5.8572  -14.0263   26.8112 O   0  0  0  0  0  0  0  0  0  0  0  0
    8.1202  -13.6007   26.1366 C   0  0  2  0  0  0  0  0  0  0  0  0
    7.6592  -14.3664   24.9679 N   0  0  0  0  0  0  0  0  0  0  0  0
    8.6938  -14.5173   27.1361 C   0  0  0  0  0  0  0  0  0  0  0  0
    8.6398  -15.7485   26.9545 O   0  0  0  0  0  0  0  0  0  0  0  0
    9.2886  -14.0130   28.2695 O   0  0  0  0  0  0  0  0  0  0  0  0
  2  3  1  0
  2  1  1  1
  4  3  1  0
  5  4  1  0
  6  5  1  0
  7  6  1  0
  8  2  1  0
  8  9  2  0
 10  8  1  0
 11 10  1  0
 11 12  1  0
 12 13  2  0
 15 14  1  6
 15 16  1  0
 17 15  1  0
 18 12  1  0
 17 18  1  6
 19 21  1  0
 19 17  1  0
 20 19  2  0
M  END
$$$$
