KGT.pdb
     RDKit          3D

 21 20  0  0  1  0  0  0  0  0999 V2000
    6.8847  -21.3563   22.1718 N   0  0  0  0  0  0  0  0  0  0  0  0
    6.2666  -20.3784   21.3024 C   0  0  1  0  0  0  0  0  0  0  0  0
    4.9456  -20.7984   20.7481 C   0  0  0  0  0  0  0  0  0  0  0  0
    4.1392  -21.7224   21.5768 C   0  0  0  0  0  0  0  0  0  0  0  0
    2.8758  -22.2247   20.9705 C   0  0  0  0  0  0  0  0  0  0  0  0
    2.2017  -23.2318   21.8956 C   0  0  0  0  0  0  0  0  0  0  0  0
    0.9825  -23.7420   21.3448 N   0  0  0  0  0  0  0  0  0  0  0  0
    6.0330  -19.1464   22.0962 C   0  0  0  0  0  0  0  0  0  0  0  0
    5.7035  -18.1112   21.4349 O   0  0  0  0  0  0  0  0  0  0  0  0
    6.1759  -19.1555   23.4985 N   0  0  0  0  0  0  0  0  0  0  0  0
    5.9525  -17.9413   24.2356 C   0  0  0  0  0  0  0  0  0  0  0  0
    7.1715  -17.0866   24.2864 C   0  0  0  0  0  0  0  0  0  0  0  0
    8.2446  -17.4824   23.7551 O   0  0  0  0  0  0  0  0  0  0  0  0
    7.3079  -13.1155   23.7100 C   0  0  0  0  0  0  0  0  0  0  0  0
    7.8865  -13.5483   25.0439 C   0  0  1  0  0  0  0  0  0  0  0  0
    6.8514  -13.4660   25.9736 O   0  0  0  0  0  0  0  0  0  0  0  0
    8.4080  -14.9909   24.9692 C   0  0  2  0  0  0  0  0  0  0  0  0
    7.1941  -15.8204   24.9147 N   0  0  0  0  0  0  0  0  0  0  0  0
    9.1221  -15.2383   26.2330 C   0  0  0  0  0  0  0  0  0  0  0  0
    8.6355  -16.0092   27.0819 O   0  0  0  0  0  0  0  0  0  0  0  0
   10.3259  -14.6178   26.4749 O   0  0  0  0  0  0  0  0  0  0  0  0
  2  3  1  0
  2  1  1  1
  4  3  1  0
  5  4  1  0
  6  5  1  0
  7  6  1  0
  8  2  1  0
  8  9  2  0
 10  8  1  0
 11 10  1  0
 11 12  1  0
 12 13  2  0
 15 14  1  6
 15 16  1  0
 17 15  1  0
 18 12  1  0
 17 18  1  1
 19 21  1  0
 19 17  1  0
 20 19  2  0
M  END
$$$$
