KGT.pdb
     RDKit          3D

 21 20  0  0  1  0  0  0  0  0999 V2000
    8.8760  -15.5858   19.2923 N   0  0  0  0  0  0  0  0  0  0  0  0
    8.7676  -14.2133   19.7377 C   0  0  1  0  0  0  0  0  0  0  0  0
    7.9048  -13.3542   18.8738 C   0  0  0  0  0  0  0  0  0  0  0  0
    8.2815  -13.2548   17.4459 C   0  0  0  0  0  0  0  0  0  0  0  0
    7.4911  -14.0816   16.4931 C   0  0  0  0  0  0  0  0  0  0  0  0
    8.0028  -13.8935   15.0693 C   0  0  0  0  0  0  0  0  0  0  0  0
    7.4327  -14.8405   14.1591 N   0  0  0  0  0  0  0  0  0  0  0  0
    8.1577  -14.2204   21.0907 C   0  0  0  0  0  0  0  0  0  0  0  0
    8.0597  -13.0894   21.6641 O   0  0  0  0  0  0  0  0  0  0  0  0
    7.7227  -15.4257   21.6781 N   0  0  0  0  0  0  0  0  0  0  0  0
    6.9928  -15.3809   22.9161 C   0  0  0  0  0  0  0  0  0  0  0  0
    7.7945  -14.7742   24.0153 C   0  0  0  0  0  0  0  0  0  0  0  0
    9.0507  -14.7121   23.9226 O   0  0  0  0  0  0  0  0  0  0  0  0
    6.8081  -11.4569   26.0551 C   0  0  0  0  0  0  0  0  0  0  0  0
    7.0632  -12.6550   26.9501 C   0  0  1  0  0  0  0  0  0  0  0  0
    5.8259  -13.2565   27.1740 O   0  0  0  0  0  0  0  0  0  0  0  0
    8.0127  -13.6515   26.2690 C   0  0  2  0  0  0  0  0  0  0  0  0
    7.2099  -14.2489   25.1904 N   0  0  0  0  0  0  0  0  0  0  0  0
    8.3297  -14.6761   27.2779 C   0  0  0  0  0  0  0  0  0  0  0  0
    7.8603  -15.8247   27.1670 O   0  0  0  0  0  0  0  0  0  0  0  0
    9.1439  -14.3639   28.3420 O   0  0  0  0  0  0  0  0  0  0  0  0
  2  3  1  0
  2  1  1  6
  4  3  1  0
  5  4  1  0
  6  5  1  0
  7  6  1  0
  8  2  1  0
  8  9  2  0
 10  8  1  0
 11 10  1  0
 11 12  1  0
 12 13  2  0
 15 14  1  6
 15 16  1  0
 17 15  1  0
 18 12  1  0
 17 18  1  6
 19 21  1  0
 19 17  1  0
 20 19  2  0
M  END
$$$$
