KGT.pdb
     RDKit          3D

 21 20  0  0  1  0  0  0  0  0999 V2000
    8.6401  -14.6663   26.2343 N   0  0  0  0  0  0  0  0  0  0  0  0
    7.7756  -14.6440   25.0741 C   0  0  1  0  0  0  0  0  0  0  0  0
    7.3592  -13.2759   24.6454 C   0  0  0  0  0  0  0  0  0  0  0  0
    7.3633  -12.2224   25.6851 C   0  0  0  0  0  0  0  0  0  0  0  0
    6.0630  -11.9492   26.3566 C   0  0  0  0  0  0  0  0  0  0  0  0
    6.2167  -10.8373   27.3883 C   0  0  0  0  0  0  0  0  0  0  0  0
    4.9758  -10.5135   28.0249 N   0  0  0  0  0  0  0  0  0  0  0  0
    8.5195  -15.2470   23.9402 C   0  0  0  0  0  0  0  0  0  0  0  0
    7.8298  -15.5354   22.9113 O   0  0  0  0  0  0  0  0  0  0  0  0
    9.9078  -15.4739   24.0293 N   0  0  0  0  0  0  0  0  0  0  0  0
   10.6064  -16.0116   22.8934 C   0  0  0  0  0  0  0  0  0  0  0  0
   11.2746  -17.3049   23.2099 C   0  0  0  0  0  0  0  0  0  0  0  0
   11.1575  -17.8136   24.3579 O   0  0  0  0  0  0  0  0  0  0  0  0
   12.0015  -20.1180   20.3114 C   0  0  0  0  0  0  0  0  0  0  0  0
   13.1754  -19.8384   21.2307 C   0  0  1  0  0  0  0  0  0  0  0  0
   13.9602  -18.8778   20.5949 O   0  0  0  0  0  0  0  0  0  0  0  0
   12.6907  -19.3031   22.5861 C   0  0  2  0  0  0  0  0  0  0  0  0
   12.0552  -18.0147   22.2688 N   0  0  0  0  0  0  0  0  0  0  0  0
   13.8989  -19.0746   23.3963 C   0  0  0  0  0  0  0  0  0  0  0  0
   14.3750  -17.9276   23.4935 O   0  0  0  0  0  0  0  0  0  0  0  0
   14.5005  -20.1281   24.0451 O   0  0  0  0  0  0  0  0  0  0  0  0
  2  3  1  0
  2  1  1  1
  4  3  1  0
  5  4  1  0
  6  5  1  0
  7  6  1  0
  8  2  1  0
  8  9  2  0
 10  8  1  0
 11 10  1  0
 11 12  1  0
 12 13  2  0
 15 14  1  6
 15 16  1  0
 17 15  1  0
 18 12  1  0
 17 18  1  6
 19 21  1  0
 19 17  1  0
 20 19  2  0
M  END
$$$$
