KGT.pdb
     RDKit          3D

 21 20  0  0  1  0  0  0  0  0999 V2000
    7.0029  -16.3227   19.9858 N   0  0  0  0  0  0  0  0  0  0  0  0
    8.1302  -15.6667   19.3589 C   0  0  1  0  0  0  0  0  0  0  0  0
    7.9995  -14.1828   19.2605 C   0  0  0  0  0  0  0  0  0  0  0  0
    7.3759  -13.6496   18.0286 C   0  0  0  0  0  0  0  0  0  0  0  0
    8.2284  -13.6327   16.8083 C   0  0  0  0  0  0  0  0  0  0  0  0
    7.4666  -13.0332   15.6316 C   0  0  0  0  0  0  0  0  0  0  0  0
    8.2496  -13.0128   14.4331 N   0  0  0  0  0  0  0  0  0  0  0  0
    9.3336  -15.9433   20.1822 C   0  0  0  0  0  0  0  0  0  0  0  0
   10.4235  -15.4388   19.7637 O   0  0  0  0  0  0  0  0  0  0  0  0
    9.2413  -16.7224   21.3533 N   0  0  0  0  0  0  0  0  0  0  0  0
   10.4317  -16.9931   22.1130 C   0  0  0  0  0  0  0  0  0  0  0  0
   10.3634  -16.4131   23.4834 C   0  0  0  0  0  0  0  0  0  0  0  0
   11.3840  -15.8782   23.9959 O   0  0  0  0  0  0  0  0  0  0  0  0
    7.9724  -13.8235   24.9591 C   0  0  0  0  0  0  0  0  0  0  0  0
    7.8516  -15.1203   25.7370 C   0  0  1  0  0  0  0  0  0  0  0  0
    6.8057  -15.8370   25.1581 O   0  0  0  0  0  0  0  0  0  0  0  0
    9.1525  -15.9318   25.6489 C   0  0  2  0  0  0  0  0  0  0  0  0
    9.1851  -16.4287   24.2644 N   0  0  0  0  0  0  0  0  0  0  0  0
    8.9979  -17.0630   26.5789 C   0  0  0  0  0  0  0  0  0  0  0  0
    8.7573  -18.2028   26.1376 O   0  0  0  0  0  0  0  0  0  0  0  0
    9.1193  -16.8598   27.9342 O   0  0  0  0  0  0  0  0  0  0  0  0
  2  3  1  0
  2  1  1  1
  4  3  1  0
  5  4  1  0
  6  5  1  0
  7  6  1  0
  8  2  1  0
  8  9  2  0
 10  8  1  0
 11 10  1  0
 11 12  1  0
 12 13  2  0
 15 14  1  6
 15 16  1  0
 17 15  1  0
 18 12  1  0
 17 18  1  6
 19 21  1  0
 19 17  1  0
 20 19  2  0
M  END
$$$$
