KGT.pdb
     RDKit          3D

 21 20  0  0  1  0  0  0  0  0999 V2000
    9.7858  -16.2788   19.7882 N   0  0  0  0  0  0  0  0  0  0  0  0
    8.8215  -17.1968   20.3552 C   0  0  1  0  0  0  0  0  0  0  0  0
    9.4093  -18.2087   21.2823 C   0  0  0  0  0  0  0  0  0  0  0  0
   10.6846  -17.8470   21.9406 C   0  0  0  0  0  0  0  0  0  0  0  0
   11.3296  -18.9071   22.7631 C   0  0  0  0  0  0  0  0  0  0  0  0
   12.5710  -18.3623   23.4605 C   0  0  0  0  0  0  0  0  0  0  0  0
   13.1528  -19.3169   24.3551 N   0  0  0  0  0  0  0  0  0  0  0  0
    7.8446  -16.4030   21.1414 C   0  0  0  0  0  0  0  0  0  0  0  0
    6.8506  -17.0452   21.6073 O   0  0  0  0  0  0  0  0  0  0  0  0
    8.0353  -15.0209   21.3420 N   0  0  0  0  0  0  0  0  0  0  0  0
    7.1774  -14.3186   22.2576 C   0  0  0  0  0  0  0  0  0  0  0  0
    7.8422  -14.0713   23.5676 C   0  0  0  0  0  0  0  0  0  0  0  0
    9.0496  -14.3942   23.7356 O   0  0  0  0  0  0  0  0  0  0  0  0
    6.7667  -10.9010   25.9713 C   0  0  0  0  0  0  0  0  0  0  0  0
    6.8937  -12.2387   26.6754 C   0  0  1  0  0  0  0  0  0  0  0  0
    5.6202  -12.8051   26.6890 O   0  0  0  0  0  0  0  0  0  0  0  0
    7.8668  -13.1595   25.9245 C   0  0  2  0  0  0  0  0  0  0  0  0
    7.1768  -13.4779   24.6648 N   0  0  0  0  0  0  0  0  0  0  0  0
    7.9966  -14.3779   26.7413 C   0  0  0  0  0  0  0  0  0  0  0  0
    7.4258  -15.4273   26.3882 O   0  0  0  0  0  0  0  0  0  0  0  0
    8.7482  -14.3559   27.8934 O   0  0  0  0  0  0  0  0  0  0  0  0
  2  3  1  0
  2  1  1  1
  4  3  1  0
  5  4  1  0
  6  5  1  0
  7  6  1  0
  8  2  1  0
  8  9  2  0
 10  8  1  0
 11 10  1  0
 11 12  1  0
 12 13  2  0
 15 14  1  6
 15 16  1  0
 17 15  1  0
 18 12  1  0
 17 18  1  6
 19 21  1  0
 19 17  1  0
 20 19  2  0
M  END
$$$$
