KGT.pdb
     RDKit          3D

 21 20  0  0  1  0  0  0  0  0999 V2000
    9.6113  -18.1645   20.5820 N   0  0  0  0  0  0  0  0  0  0  0  0
   10.0383  -19.2123   21.4841 C   0  0  1  0  0  0  0  0  0  0  0  0
   11.4923  -19.5403   21.3990 C   0  0  0  0  0  0  0  0  0  0  0  0
   12.4133  -18.4157   21.1207 C   0  0  0  0  0  0  0  0  0  0  0  0
   13.8657  -18.7412   21.0884 C   0  0  0  0  0  0  0  0  0  0  0  0
   14.6800  -17.5157   20.6890 C   0  0  0  0  0  0  0  0  0  0  0  0
   16.0815  -17.7983   20.6112 N   0  0  0  0  0  0  0  0  0  0  0  0
    9.7769  -18.7535   22.8711 C   0  0  0  0  0  0  0  0  0  0  0  0
    9.8969  -19.6335   23.7814 O   0  0  0  0  0  0  0  0  0  0  0  0
    9.4187  -17.4153   23.1314 N   0  0  0  0  0  0  0  0  0  0  0  0
    9.1867  -17.0010   24.4886 C   0  0  0  0  0  0  0  0  0  0  0  0
    8.7775  -15.5712   24.5737 C   0  0  0  0  0  0  0  0  0  0  0  0
    9.1142  -14.7614   23.6675 O   0  0  0  0  0  0  0  0  0  0  0  0
    5.9749  -11.9565   26.1905 C   0  0  0  0  0  0  0  0  0  0  0  0
    6.3186  -13.4208   25.9927 C   0  0  1  0  0  0  0  0  0  0  0  0
    5.6881  -13.8235   24.8167 O   0  0  0  0  0  0  0  0  0  0  0  0
    7.8370  -13.6114   25.8628 C   0  0  2  0  0  0  0  0  0  0  0  0
    8.0108  -15.0558   25.6439 N   0  0  0  0  0  0  0  0  0  0  0  0
    8.4139  -13.2333   27.1638 C   0  0  0  0  0  0  0  0  0  0  0  0
    8.5414  -12.0305   27.4618 O   0  0  0  0  0  0  0  0  0  0  0  0
    8.8114  -14.2088   28.0487 O   0  0  0  0  0  0  0  0  0  0  0  0
  2  3  1  0
  2  1  1  6
  4  3  1  0
  5  4  1  0
  6  5  1  0
  7  6  1  0
  8  2  1  0
  8  9  2  0
 10  8  1  0
 11 10  1  0
 11 12  1  0
 12 13  2  0
 15 14  1  6
 15 16  1  0
 17 15  1  0
 18 12  1  0
 17 18  1  1
 19 21  1  0
 19 17  1  0
 20 19  2  0
M  END
$$$$
