KGT.pdb
     RDKit          3D

 21 20  0  0  1  0  0  0  0  0999 V2000
    9.1347  -17.2744   20.1967 N   0  0  0  0  0  0  0  0  0  0  0  0
    7.9984  -17.8515   20.8821 C   0  0  1  0  0  0  0  0  0  0  0  0
    8.3591  -18.8151   21.9639 C   0  0  0  0  0  0  0  0  0  0  0  0
    9.4256  -18.3958   22.9006 C   0  0  0  0  0  0  0  0  0  0  0  0
    9.8110  -19.3799   23.9491 C   0  0  0  0  0  0  0  0  0  0  0  0
   10.8094  -18.7621   24.9217 C   0  0  0  0  0  0  0  0  0  0  0  0
   11.0618  -19.6078   26.0492 N   0  0  0  0  0  0  0  0  0  0  0  0
    7.2414  -16.7457   21.5198 C   0  0  0  0  0  0  0  0  0  0  0  0
    6.1383  -17.0670   22.0651 O   0  0  0  0  0  0  0  0  0  0  0  0
    7.7422  -15.4282   21.5052 N   0  0  0  0  0  0  0  0  0  0  0  0
    7.1058  -14.4254   22.3156 C   0  0  0  0  0  0  0  0  0  0  0  0
    7.8653  -14.1553   23.5684 C   0  0  0  0  0  0  0  0  0  0  0  0
    9.1095  -14.3568   23.6101 O   0  0  0  0  0  0  0  0  0  0  0  0
    6.7776  -11.2330   26.3377 C   0  0  0  0  0  0  0  0  0  0  0  0
    7.0328  -12.6290   26.8737 C   0  0  1  0  0  0  0  0  0  0  0  0
    5.8019  -13.2827   26.8871 O   0  0  0  0  0  0  0  0  0  0  0  0
    8.0172  -13.3876   25.9714 C   0  0  2  0  0  0  0  0  0  0  0  0
    7.2525  -13.6720   24.7471 N   0  0  0  0  0  0  0  0  0  0  0  0
    8.3282  -14.6478   26.6666 C   0  0  0  0  0  0  0  0  0  0  0  0
    7.7751  -15.7064   26.3128 O   0  0  0  0  0  0  0  0  0  0  0  0
    9.2293  -14.6548   27.7062 O   0  0  0  0  0  0  0  0  0  0  0  0
  2  3  1  0
  2  1  1  1
  4  3  1  0
  5  4  1  0
  6  5  1  0
  7  6  1  0
  8  2  1  0
  8  9  2  0
 10  8  1  0
 11 10  1  0
 11 12  1  0
 12 13  2  0
 15 14  1  6
 15 16  1  0
 17 15  1  0
 18 12  1  0
 17 18  1  6
 19 21  1  0
 19 17  1  0
 20 19  2  0
M  END
$$$$
