KGT.pdb
     RDKit          3D

 21 20  0  0  1  0  0  0  0  0999 V2000
    8.9918  -18.5011   24.8778 N   0  0  0  0  0  0  0  0  0  0  0  0
    7.7531  -18.1593   25.5432 C   0  0  1  0  0  0  0  0  0  0  0  0
    7.8855  -17.9476   27.0151 C   0  0  0  0  0  0  0  0  0  0  0  0
    8.9431  -18.7186   27.7062 C   0  0  0  0  0  0  0  0  0  0  0  0
    9.0120  -18.5698   29.1859 C   0  0  0  0  0  0  0  0  0  0  0  0
   10.2540  -19.2619   29.7361 C   0  0  0  0  0  0  0  0  0  0  0  0
   10.3854  -19.0940   31.1520 N   0  0  0  0  0  0  0  0  0  0  0  0
    7.2612  -16.8848   24.9634 C   0  0  0  0  0  0  0  0  0  0  0  0
    6.1053  -16.5107   25.3393 O   0  0  0  0  0  0  0  0  0  0  0  0
    8.0522  -16.1554   24.0528 N   0  0  0  0  0  0  0  0  0  0  0  0
    7.5397  -14.9308   23.5005 C   0  0  0  0  0  0  0  0  0  0  0  0
    7.2799  -15.0435   22.0380 C   0  0  0  0  0  0  0  0  0  0  0  0
    6.4939  -15.9276   21.6010 O   0  0  0  0  0  0  0  0  0  0  0  0
    7.3279  -11.8499   19.6562 C   0  0  0  0  0  0  0  0  0  0  0  0
    8.0981  -13.0006   19.0364 C   0  0  1  0  0  0  0  0  0  0  0  0
    9.4447  -12.7775   19.3188 O   0  0  0  0  0  0  0  0  0  0  0  0
    7.6533  -14.3413   19.6391 C   0  0  2  0  0  0  0  0  0  0  0  0
    7.8821  -14.1908   21.0846 N   0  0  0  0  0  0  0  0  0  0  0  0
    8.5653  -15.3617   19.0956 C   0  0  0  0  0  0  0  0  0  0  0  0
    9.4126  -15.8965   19.8358 O   0  0  0  0  0  0  0  0  0  0  0  0
    8.4806  -15.7234   17.7709 O   0  0  0  0  0  0  0  0  0  0  0  0
  2  3  1  0
  2  1  1  6
  4  3  1  0
  5  4  1  0
  6  5  1  0
  7  6  1  0
  8  2  1  0
  8  9  2  0
 10  8  1  0
 11 10  1  0
 11 12  1  0
 12 13  2  0
 15 14  1  1
 15 16  1  0
 17 15  1  0
 18 12  1  0
 17 18  1  1
 19 21  1  0
 19 17  1  0
 20 19  2  0
M  END
$$$$
