KGT.pdb
     RDKit          3D

 21 20  0  0  1  0  0  0  0  0999 V2000
    6.3892  -19.0031   25.0277 N   0  0  0  0  0  0  0  0  0  0  0  0
    7.0873  -18.9638   23.7608 C   0  0  1  0  0  0  0  0  0  0  0  0
    6.2319  -19.2804   22.5788 C   0  0  0  0  0  0  0  0  0  0  0  0
    4.7801  -19.0301   22.7215 C   0  0  0  0  0  0  0  0  0  0  0  0
    3.9288  -19.3842   21.5528 C   0  0  0  0  0  0  0  0  0  0  0  0
    2.4691  -19.0432   21.8310 C   0  0  0  0  0  0  0  0  0  0  0  0
    1.6235  -19.3259   20.7107 N   0  0  0  0  0  0  0  0  0  0  0  0
    7.6027  -17.5855   23.5674 C   0  0  0  0  0  0  0  0  0  0  0  0
    8.4094  -17.4228   22.5978 O   0  0  0  0  0  0  0  0  0  0  0  0
    7.2027  -16.5404   24.4245 N   0  0  0  0  0  0  0  0  0  0  0  0
    7.6857  -15.2081   24.1813 C   0  0  0  0  0  0  0  0  0  0  0  0
    8.8250  -14.8556   25.0740 C   0  0  0  0  0  0  0  0  0  0  0  0
    9.4152  -13.7492   24.9400 O   0  0  0  0  0  0  0  0  0  0  0  0
    8.8777  -13.1933   27.3359 C   0  0  0  0  0  0  0  0  0  0  0  0
    9.4474  -14.3955   28.0650 C   0  0  1  0  0  0  0  0  0  0  0  0
    8.3604  -15.1145   28.5592 O   0  0  0  0  0  0  0  0  0  0  0  0
   10.2645  -15.2761   27.1082 C   0  0  2  0  0  0  0  0  0  0  0  0
    9.2955  -15.7160   26.0923 N   0  0  0  0  0  0  0  0  0  0  0  0
   10.7171  -16.4342   27.8970 C   0  0  0  0  0  0  0  0  0  0  0  0
   10.1315  -17.5282   27.7882 O   0  0  0  0  0  0  0  0  0  0  0  0
   11.7863  -16.3067   28.7534 O   0  0  0  0  0  0  0  0  0  0  0  0
  2  3  1  0
  2  1  1  1
  4  3  1  0
  5  4  1  0
  6  5  1  0
  7  6  1  0
  8  2  1  0
  8  9  2  0
 10  8  1  0
 11 10  1  0
 11 12  1  0
 12 13  2  0
 15 14  1  6
 15 16  1  0
 17 15  1  0
 18 12  1  0
 17 18  1  6
 19 21  1  0
 19 17  1  0
 20 19  2  0
M  END
$$$$
