KGT.pdb
     RDKit          3D

 21 20  0  0  1  0  0  0  0  0999 V2000
    6.3713  -17.7028   19.5576 N   0  0  0  0  0  0  0  0  0  0  0  0
    5.4788  -18.4897   20.3812 C   0  0  1  0  0  0  0  0  0  0  0  0
    4.6744  -19.4956   19.6262 C   0  0  0  0  0  0  0  0  0  0  0  0
    3.2225  -19.2335   19.5076 C   0  0  0  0  0  0  0  0  0  0  0  0
    2.3294  -20.0450   20.3795 C   0  0  0  0  0  0  0  0  0  0  0  0
    0.8734  -19.6397   20.1790 C   0  0  0  0  0  0  0  0  0  0  0  0
    0.0039  -20.2502   21.1389 N   0  0  0  0  0  0  0  0  0  0  0  0
    6.3048  -19.2399   21.3597 C   0  0  0  0  0  0  0  0  0  0  0  0
    5.9561  -20.4436   21.5769 O   0  0  0  0  0  0  0  0  0  0  0  0
    7.4041  -18.6266   21.9940 N   0  0  0  0  0  0  0  0  0  0  0  0
    8.1629  -19.3720   22.9614 C   0  0  0  0  0  0  0  0  0  0  0  0
    9.2529  -18.5556   23.5652 C   0  0  0  0  0  0  0  0  0  0  0  0
   10.1741  -18.0932   22.8386 O   0  0  0  0  0  0  0  0  0  0  0  0
    7.6305  -16.0606   25.5852 C   0  0  0  0  0  0  0  0  0  0  0  0
    9.0186  -15.9017   24.9941 C   0  0  1  0  0  0  0  0  0  0  0  0
    9.5061  -14.6759   25.4442 O   0  0  0  0  0  0  0  0  0  0  0  0
    9.9432  -17.0351   25.4623 C   0  0  2  0  0  0  0  0  0  0  0  0
    9.3149  -18.2615   24.9466 N   0  0  0  0  0  0  0  0  0  0  0  0
    9.8900  -17.0308   26.9338 C   0  0  0  0  0  0  0  0  0  0  0  0
    9.2343  -17.9027   27.5352 O   0  0  0  0  0  0  0  0  0  0  0  0
   10.5645  -16.0639   27.6430 O   0  0  0  0  0  0  0  0  0  0  0  0
  2  3  1  0
  2  1  1  6
  4  3  1  0
  5  4  1  0
  6  5  1  0
  7  6  1  0
  8  2  1  0
  8  9  2  0
 10  8  1  0
 11 10  1  0
 11 12  1  0
 12 13  2  0
 15 14  1  1
 15 16  1  0
 17 15  1  0
 18 12  1  0
 17 18  1  6
 19 21  1  0
 19 17  1  0
 20 19  2  0
M  END
$$$$
