KGT.pdb
     RDKit          3D

 21 20  0  0  1  0  0  0  0  0999 V2000
    6.4636  -18.5708   24.2342 N   0  0  0  0  0  0  0  0  0  0  0  0
    6.4587  -18.6935   22.7923 C   0  0  1  0  0  0  0  0  0  0  0  0
    5.1214  -19.0085   22.2079 C   0  0  0  0  0  0  0  0  0  0  0  0
    4.5508  -20.3361   22.5283 C   0  0  0  0  0  0  0  0  0  0  0  0
    3.3756  -20.7644   21.7211 C   0  0  0  0  0  0  0  0  0  0  0  0
    2.8893  -22.1376   22.1708 C   0  0  0  0  0  0  0  0  0  0  0  0
    1.7423  -22.5744   21.4334 N   0  0  0  0  0  0  0  0  0  0  0  0
    6.8858  -17.3913   22.2229 C   0  0  0  0  0  0  0  0  0  0  0  0
    6.8934  -17.3133   20.9535 O   0  0  0  0  0  0  0  0  0  0  0  0
    7.2551  -16.3234   23.0657 N   0  0  0  0  0  0  0  0  0  0  0  0
    8.1051  -15.2838   22.5515 C   0  0  0  0  0  0  0  0  0  0  0  0
    8.2259  -14.1413   23.4998 C   0  0  0  0  0  0  0  0  0  0  0  0
    8.9419  -13.1463   23.2041 O   0  0  0  0  0  0  0  0  0  0  0  0
    6.4784  -11.6933   26.0433 C   0  0  0  0  0  0  0  0  0  0  0  0
    7.0133  -12.9301   26.7402 C   0  0  1  0  0  0  0  0  0  0  0  0
    5.9606  -13.8417   26.7991 O   0  0  0  0  0  0  0  0  0  0  0  0
    8.1849  -13.5353   25.9531 C   0  0  2  0  0  0  0  0  0  0  0  0
    7.5641  -14.1086   24.7487 N   0  0  0  0  0  0  0  0  0  0  0  0
    8.7323  -14.6151   26.7914 C   0  0  0  0  0  0  0  0  0  0  0  0
    8.5175  -15.8050   26.4918 O   0  0  0  0  0  0  0  0  0  0  0  0
    9.4802  -14.3086   27.9047 O   0  0  0  0  0  0  0  0  0  0  0  0
  2  3  1  0
  2  1  1  1
  4  3  1  0
  5  4  1  0
  6  5  1  0
  7  6  1  0
  8  2  1  0
  8  9  2  0
 10  8  1  0
 11 10  1  0
 11 12  1  0
 12 13  2  0
 15 14  1  6
 15 16  1  0
 17 15  1  0
 18 12  1  0
 17 18  1  6
 19 21  1  0
 19 17  1  0
 20 19  2  0
M  END
$$$$
