KGT.pdb
     RDKit          3D

 21 20  0  0  1  0  0  0  0  0999 V2000
    8.3150  -17.4295   19.6394 N   0  0  0  0  0  0  0  0  0  0  0  0
    8.7892  -16.2257   20.2874 C   0  0  1  0  0  0  0  0  0  0  0  0
    8.2632  -14.9611   19.6932 C   0  0  0  0  0  0  0  0  0  0  0  0
    8.4492  -14.7826   18.2358 C   0  0  0  0  0  0  0  0  0  0  0  0
    7.8661  -13.5493   17.6396 C   0  0  0  0  0  0  0  0  0  0  0  0
    8.0730  -13.5357   16.1291 C   0  0  0  0  0  0  0  0  0  0  0  0
    7.4278  -12.4208   15.5040 N   0  0  0  0  0  0  0  0  0  0  0  0
    8.3386  -16.2618   21.7010 C   0  0  0  0  0  0  0  0  0  0  0  0
    7.1007  -16.4872   21.8861 O   0  0  0  0  0  0  0  0  0  0  0  0
    9.2530  -16.0547   22.7537 N   0  0  0  0  0  0  0  0  0  0  0  0
    8.7890  -16.1291   24.1125 C   0  0  0  0  0  0  0  0  0  0  0  0
    9.8638  -15.7956   25.0886 C   0  0  0  0  0  0  0  0  0  0  0  0
   11.0580  -15.6801   24.7001 O   0  0  0  0  0  0  0  0  0  0  0  0
    9.7438  -12.8626   27.4681 C   0  0  0  0  0  0  0  0  0  0  0  0
   10.0220  -14.1132   28.2806 C   0  0  1  0  0  0  0  0  0  0  0  0
    8.7911  -14.5622   28.7562 O   0  0  0  0  0  0  0  0  0  0  0  0
   10.6713  -15.1970   27.4074 C   0  0  2  0  0  0  0  0  0  0  0  0
    9.6136  -15.5956   26.4656 N   0  0  0  0  0  0  0  0  0  0  0  0
   10.9842  -16.3201   28.3069 C   0  0  0  0  0  0  0  0  0  0  0  0
   10.2465  -17.3236   28.3292 O   0  0  0  0  0  0  0  0  0  0  0  0
   12.0909  -16.2598   29.1219 O   0  0  0  0  0  0  0  0  0  0  0  0
  2  3  1  0
  2  1  1  6
  4  3  1  0
  5  4  1  0
  6  5  1  0
  7  6  1  0
  8  2  1  0
  8  9  2  0
 10  8  1  0
 11 10  1  0
 11 12  1  0
 12 13  2  0
 15 14  1  6
 15 16  1  0
 17 15  1  0
 18 12  1  0
 17 18  1  6
 19 21  1  0
 19 17  1  0
 20 19  2  0
M  END
$$$$
