KGT.pdb
     RDKit          3D

 21 20  0  0  1  0  0  0  0  0999 V2000
    7.9994  -17.2717   21.2654 N   0  0  0  0  0  0  0  0  0  0  0  0
    8.3669  -16.1398   22.0888 C   0  0  1  0  0  0  0  0  0  0  0  0
    7.7763  -14.8420   21.6464 C   0  0  0  0  0  0  0  0  0  0  0  0
    7.8912  -14.5142   20.2076 C   0  0  0  0  0  0  0  0  0  0  0  0
    7.3645  -13.1870   19.7864 C   0  0  0  0  0  0  0  0  0  0  0  0
    7.5484  -12.9900   18.2858 C   0  0  0  0  0  0  0  0  0  0  0  0
    6.9401  -11.7806   17.8195 N   0  0  0  0  0  0  0  0  0  0  0  0
    7.8709  -16.3967   23.4637 C   0  0  0  0  0  0  0  0  0  0  0  0
    8.2418  -15.5678   24.3542 O   0  0  0  0  0  0  0  0  0  0  0  0
    7.0395  -17.5023   23.7344 N   0  0  0  0  0  0  0  0  0  0  0  0
    6.6404  -17.7663   25.0903 C   0  0  0  0  0  0  0  0  0  0  0  0
    7.5976  -18.6695   25.7883 C   0  0  0  0  0  0  0  0  0  0  0  0
    7.5500  -19.9145   25.5934 O   0  0  0  0  0  0  0  0  0  0  0  0
   11.2314  -18.0333   25.5598 C   0  0  0  0  0  0  0  0  0  0  0  0
   10.9372  -18.2531   27.0317 C   0  0  1  0  0  0  0  0  0  0  0  0
   10.7870  -16.9901   27.6017 O   0  0  0  0  0  0  0  0  0  0  0  0
    9.6465  -19.0652   27.2140 C   0  0  2  0  0  0  0  0  0  0  0  0
    8.5849  -18.1961   26.6827 N   0  0  0  0  0  0  0  0  0  0  0  0
    9.4677  -19.2369   28.6655 C   0  0  0  0  0  0  0  0  0  0  0  0
    8.5904  -18.5870   29.2654 O   0  0  0  0  0  0  0  0  0  0  0  0
   10.2696  -20.1148   29.3576 O   0  0  0  0  0  0  0  0  0  0  0  0
  2  3  1  0
  2  1  1  6
  4  3  1  0
  5  4  1  0
  6  5  1  0
  7  6  1  0
  8  2  1  0
  8  9  2  0
 10  8  1  0
 11 10  1  0
 11 12  1  0
 12 13  2  0
 15 14  1  6
 15 16  1  0
 17 15  1  0
 18 12  1  0
 17 18  1  1
 19 21  1  0
 19 17  1  0
 20 19  2  0
M  END
$$$$
