HFS.pdb
     RDKit          3D

 28 29  0  0  1  0  0  0  0  0999 V2000
    9.5177  -17.3365   19.9927 N   0  0  0  0  0  0  0  0  0  0  0  0
    8.5313  -17.6148   21.0166 C   0  0  1  0  0  0  0  0  0  0  0  0
    8.5787  -19.0423   21.4850 C   0  0  0  0  0  0  0  0  0  0  0  0
    8.1850  -19.9954   20.4138 C   0  0  0  0  0  0  0  0  0  0  0  0
    6.9614  -20.3094   19.9096 C   0  0  0  0  0  0  0  0  0  0  0  0
    7.0768  -21.2299   18.9439 N   0  0  0  0  0  0  0  0  0  0  0  0
    8.4009  -21.4911   18.8485 C   0  0  0  0  0  0  0  0  0  0  0  0
    9.0798  -20.7415   19.7418 N   0  0  0  0  0  0  0  0  0  0  0  0
    8.8358  -16.7498   22.1792 C   0  0  0  0  0  0  0  0  0  0  0  0
   10.0234  -16.5623   22.5466 O   0  0  0  0  0  0  0  0  0  0  0  0
    7.8461  -16.0832   22.9492 N   0  0  0  0  0  0  0  0  0  0  0  0
    8.0799  -15.2548   24.0869 C   0  0  1  0  0  0  0  0  0  0  0  0
    6.9946  -14.2972   24.4286 C   0  0  0  0  0  0  0  0  0  0  0  0
    7.2667  -13.5184   25.6632 C   0  0  0  0  0  0  0  0  0  0  0  0
    8.2151  -12.5197   25.6614 C   0  0  0  0  0  0  0  0  0  0  0  0
    8.4849  -11.7748   26.8169 C   0  0  0  0  0  0  0  0  0  0  0  0
    7.7877  -12.0501   27.9698 C   0  0  0  0  0  0  0  0  0  0  0  0
    6.8339  -13.0434   27.9994 C   0  0  0  0  0  0  0  0  0  0  0  0
    6.5960  -13.7550   26.8431 C   0  0  0  0  0  0  0  0  0  0  0  0
    8.3075  -16.1538   25.2531 C   0  0  0  0  0  0  0  0  0  0  0  0
    7.4407  -16.9898   25.6280 O   0  0  0  0  0  0  0  0  0  0  0  0
   11.9417  -17.4273   26.0852 O   0  0  0  0  0  0  0  0  0  0  0  0
   10.7823  -18.0147   26.5907 C   0  0  0  0  0  0  0  0  0  0  0  0
    9.8453  -16.9356   27.0734 C   0  0  2  0  0  0  0  0  0  0  0  0
    9.5357  -16.0704   25.9662 N   0  0  0  0  0  0  0  0  0  0  0  0
   10.4107  -16.1643   28.2171 C   0  0  0  0  0  0  0  0  0  0  0  0
   10.6029  -14.9462   28.1114 O   0  0  0  0  0  0  0  0  0  0  0  0
   10.7286  -16.7929   29.4099 O   0  0  0  0  0  0  0  0  0  0  0  0
  2  1  1  6
  2  9  1  0
  3  2  1  0
  4  8  1  0
  4  3  1  0
  5  4  2  0
  6  5  1  0
  6  7  1  0
  7  8  2  0
  9 10  2  0
  9 11  1  0
 11 12  1  0
 12 13  1  1
 14 13  1  0
 14 19  1  0
 15 14  2  0
 16 15  1  0
 16 17  2  0
 17 18  1  0
 18 19  2  0
 20 12  1  0
 20 21  2  0
 22 23  1  0
 24 23  1  6
 24 25  1  0
 25 20  1  0
 26 24  1  0
 27 26  2  0
 28 26  1  0
M  END
$$$$
