HFS.pdb
     RDKit          3D

 28 29  0  0  1  0  0  0  0  0999 V2000
   10.2262  -16.6906   19.3033 N   0  0  0  0  0  0  0  0  0  0  0  0
    9.1756  -17.1285   20.1995 C   0  0  1  0  0  0  0  0  0  0  0  0
    9.3107  -18.5773   20.5763 C   0  0  0  0  0  0  0  0  0  0  0  0
    9.1398  -19.4775   19.4053 C   0  0  0  0  0  0  0  0  0  0  0  0
    8.4135  -19.3246   18.2655 C   0  0  0  0  0  0  0  0  0  0  0  0
    8.5519  -20.3977   17.4764 N   0  0  0  0  0  0  0  0  0  0  0  0
    9.3820  -21.2328   18.1427 C   0  0  0  0  0  0  0  0  0  0  0  0
    9.7427  -20.6766   19.3180 N   0  0  0  0  0  0  0  0  0  0  0  0
    9.2837  -16.3290   21.4413 C   0  0  0  0  0  0  0  0  0  0  0  0
   10.4065  -16.0807   21.9495 O   0  0  0  0  0  0  0  0  0  0  0  0
    8.1670  -15.7949   22.1372 N   0  0  0  0  0  0  0  0  0  0  0  0
    8.2094  -15.0505   23.3536 C   0  0  1  0  0  0  0  0  0  0  0  0
    7.0133  -14.2176   23.6487 C   0  0  0  0  0  0  0  0  0  0  0  0
    7.0825  -13.5381   24.9671 C   0  0  0  0  0  0  0  0  0  0  0  0
    7.8961  -12.4408   25.1428 C   0  0  0  0  0  0  0  0  0  0  0  0
    7.9738  -11.7872   26.3796 C   0  0  0  0  0  0  0  0  0  0  0  0
    7.2225  -12.2539   27.4327 C   0  0  0  0  0  0  0  0  0  0  0  0
    6.4006  -13.3492   27.2844 C   0  0  0  0  0  0  0  0  0  0  0  0
    6.3503  -13.9661   26.0528 C   0  0  0  0  0  0  0  0  0  0  0  0
    8.3985  -16.0244   24.4653 C   0  0  0  0  0  0  0  0  0  0  0  0
    7.5513  -16.9258   24.7116 O   0  0  0  0  0  0  0  0  0  0  0  0
   12.0776  -17.0460   25.4554 O   0  0  0  0  0  0  0  0  0  0  0  0
   10.9620  -17.8113   25.7933 C   0  0  0  0  0  0  0  0  0  0  0  0
    9.8677  -16.9037   26.2976 C   0  0  2  0  0  0  0  0  0  0  0  0
    9.5661  -15.9390   25.2736 N   0  0  0  0  0  0  0  0  0  0  0  0
   10.2333  -16.2327   27.5778 C   0  0  0  0  0  0  0  0  0  0  0  0
   10.5085  -16.9082   28.5777 O   0  0  0  0  0  0  0  0  0  0  0  0
   10.2711  -14.8510   27.6701 O   0  0  0  0  0  0  0  0  0  0  0  0
  2  1  1  6
  2  9  1  0
  3  2  1  0
  4  8  1  0
  4  3  1  0
  5  4  2  0
  6  5  1  0
  6  7  1  0
  7  8  2  0
  9 10  2  0
  9 11  1  0
 11 12  1  0
 12 13  1  1
 14 13  1  0
 14 19  1  0
 15 14  2  0
 16 15  1  0
 16 17  2  0
 17 18  1  0
 18 19  2  0
 20 12  1  0
 20 21  2  0
 22 23  1  0
 24 23  1  6
 24 25  1  0
 25 20  1  0
 26 24  1  0
 27 26  2  0
 28 26  1  0
M  END
$$$$
