HFS.pdb
     RDKit          3D

 28 29  0  0  1  0  0  0  0  0999 V2000
   10.0888  -16.9557   19.6332 N   0  0  0  0  0  0  0  0  0  0  0  0
    8.7732  -16.8694   20.2336 C   0  0  1  0  0  0  0  0  0  0  0  0
    8.1458  -18.2202   20.4356 C   0  0  0  0  0  0  0  0  0  0  0  0
    7.4850  -18.7199   19.2009 C   0  0  0  0  0  0  0  0  0  0  0  0
    6.7431  -18.0694   18.2647 C   0  0  0  0  0  0  0  0  0  0  0  0
    6.3424  -18.9212   17.3123 N   0  0  0  0  0  0  0  0  0  0  0  0
    6.8475  -20.1252   17.6671 C   0  0  0  0  0  0  0  0  0  0  0  0
    7.5442  -20.0075   18.8167 N   0  0  0  0  0  0  0  0  0  0  0  0
    8.9289  -16.2422   21.5660 C   0  0  0  0  0  0  0  0  0  0  0  0
    9.9637  -16.4403   22.2520 O   0  0  0  0  0  0  0  0  0  0  0  0
    7.9564  -15.3942   22.1590 N   0  0  0  0  0  0  0  0  0  0  0  0
    8.0518  -14.7670   23.4368 C   0  0  1  0  0  0  0  0  0  0  0  0
    7.0808  -13.6714   23.6981 C   0  0  0  0  0  0  0  0  0  0  0  0
    7.1651  -13.1295   25.0779 C   0  0  0  0  0  0  0  0  0  0  0  0
    6.1393  -13.3403   25.9724 C   0  0  0  0  0  0  0  0  0  0  0  0
    6.2018  -12.8364   27.2782 C   0  0  0  0  0  0  0  0  0  0  0  0
    7.3091  -12.1199   27.6678 C   0  0  0  0  0  0  0  0  0  0  0  0
    8.3492  -11.8944   26.7935 C   0  0  0  0  0  0  0  0  0  0  0  0
    8.2519  -12.4057   25.5171 C   0  0  0  0  0  0  0  0  0  0  0  0
    7.8646  -15.8262   24.4679 C   0  0  0  0  0  0  0  0  0  0  0  0
    6.7829  -16.4661   24.5757 O   0  0  0  0  0  0  0  0  0  0  0  0
   10.3409  -18.3903   25.0558 O   0  0  0  0  0  0  0  0  0  0  0  0
    9.1411  -18.4767   25.7611 C   0  0  0  0  0  0  0  0  0  0  0  0
    8.8264  -17.1365   26.3777 C   0  0  2  0  0  0  0  0  0  0  0  0
    8.9332  -16.1277   25.3572 N   0  0  0  0  0  0  0  0  0  0  0  0
    9.7105  -16.8246   27.5370 C   0  0  0  0  0  0  0  0  0  0  0  0
    9.7594  -17.5926   28.5062 O   0  0  0  0  0  0  0  0  0  0  0  0
   10.4872  -15.6776   27.5496 O   0  0  0  0  0  0  0  0  0  0  0  0
  2  1  1  1
  2  9  1  0
  3  2  1  0
  4  8  1  0
  4  3  1  0
  5  4  2  0
  6  5  1  0
  6  7  1  0
  7  8  2  0
  9 10  2  0
  9 11  1  0
 11 12  1  0
 12 13  1  6
 14 13  1  0
 14 19  1  0
 15 14  2  0
 16 15  1  0
 16 17  2  0
 17 18  1  0
 18 19  2  0
 20 12  1  0
 20 21  2  0
 22 23  1  0
 24 23  1  6
 24 25  1  0
 25 20  1  0
 26 24  1  0
 27 26  2  0
 28 26  1  0
M  END
$$$$
