HFS.pdb
     RDKit          3D

 28 29  0  0  1  0  0  0  0  0999 V2000
    6.9331  -14.7604   21.4837 N   0  0  0  0  0  0  0  0  0  0  0  0
    8.3220  -15.1642   21.5642 C   0  0  1  0  0  0  0  0  0  0  0  0
    9.2353  -14.2255   20.8267 C   0  0  0  0  0  0  0  0  0  0  0  0
    8.7989  -14.0098   19.4218 C   0  0  0  0  0  0  0  0  0  0  0  0
    8.2002  -12.9405   18.8316 C   0  0  0  0  0  0  0  0  0  0  0  0
    7.9847  -13.1845   17.5326 N   0  0  0  0  0  0  0  0  0  0  0  0
    8.4606  -14.4321   17.3144 C   0  0  0  0  0  0  0  0  0  0  0  0
    8.9575  -14.9387   18.4621 N   0  0  0  0  0  0  0  0  0  0  0  0
    8.7130  -15.1425   22.9924 C   0  0  0  0  0  0  0  0  0  0  0  0
    9.4676  -14.2410   23.4379 O   0  0  0  0  0  0  0  0  0  0  0  0
    8.2829  -16.1045   23.9443 N   0  0  0  0  0  0  0  0  0  0  0  0
    8.6160  -16.1248   25.3314 C   0  0  1  0  0  0  0  0  0  0  0  0
    7.5063  -15.8151   26.2717 C   0  0  0  0  0  0  0  0  0  0  0  0
    7.2108  -14.3635   26.3726 C   0  0  0  0  0  0  0  0  0  0  0  0
    8.0892  -13.5172   27.0122 C   0  0  0  0  0  0  0  0  0  0  0  0
    7.8267  -12.1450   27.1169 C   0  0  0  0  0  0  0  0  0  0  0  0
    6.6705  -11.6401   26.5696 C   0  0  0  0  0  0  0  0  0  0  0  0
    5.7748  -12.4641   25.9245 C   0  0  0  0  0  0  0  0  0  0  0  0
    6.0672  -13.8086   25.8414 C   0  0  0  0  0  0  0  0  0  0  0  0
    9.1404  -17.4841   25.6436 C   0  0  0  0  0  0  0  0  0  0  0  0
    8.4541  -18.5237   25.4457 O   0  0  0  0  0  0  0  0  0  0  0  0
   12.5290  -18.8255   24.9355 O   0  0  0  0  0  0  0  0  0  0  0  0
   12.4005  -18.9988   26.3131 C   0  0  0  0  0  0  0  0  0  0  0  0
   10.9489  -18.8631   26.7004 C   0  0  2  0  0  0  0  0  0  0  0  0
   10.4515  -17.6175   26.1794 N   0  0  0  0  0  0  0  0  0  0  0  0
   10.7455  -18.9489   28.1749 C   0  0  0  0  0  0  0  0  0  0  0  0
   10.3422  -17.9633   28.8056 O   0  0  0  0  0  0  0  0  0  0  0  0
   11.0026  -20.1249   28.8602 O   0  0  0  0  0  0  0  0  0  0  0  0
  2  1  1  1
  2  9  1  0
  3  2  1  0
  4  8  1  0
  4  3  1  0
  5  4  2  0
  6  5  1  0
  6  7  1  0
  7  8  2  0
  9 10  2  0
  9 11  1  0
 11 12  1  0
 12 13  1  1
 14 13  1  0
 14 19  1  0
 15 14  2  0
 16 15  1  0
 16 17  2  0
 17 18  1  0
 18 19  2  0
 20 12  1  0
 20 21  2  0
 22 23  1  0
 24 23  1  1
 24 25  1  0
 25 20  1  0
 26 24  1  0
 27 26  2  0
 28 26  1  0
M  END
$$$$
