HFS.pdb
     RDKit          3D

 28 29  0  0  1  0  0  0  0  0999 V2000
   10.0530  -13.4265   20.6461 N   0  0  0  0  0  0  0  0  0  0  0  0
    8.8786  -14.1598   21.0725 C   0  0  1  0  0  0  0  0  0  0  0  0
    8.5563  -15.3078   20.1573 C   0  0  0  0  0  0  0  0  0  0  0  0
    8.1804  -14.8474   18.7944 C   0  0  0  0  0  0  0  0  0  0  0  0
    8.2774  -13.6219   18.2122 C   0  0  0  0  0  0  0  0  0  0  0  0
    7.8142  -13.6639   16.9564 N   0  0  0  0  0  0  0  0  0  0  0  0
    7.4220  -14.9433   16.7573 C   0  0  0  0  0  0  0  0  0  0  0  0
    7.6431  -15.6679   17.8740 N   0  0  0  0  0  0  0  0  0  0  0  0
    9.1625  -14.7200   22.4136 C   0  0  0  0  0  0  0  0  0  0  0  0
   10.3428  -14.9657   22.7701 O   0  0  0  0  0  0  0  0  0  0  0  0
    8.1601  -15.0158   23.3750 N   0  0  0  0  0  0  0  0  0  0  0  0
    8.3800  -15.3858   24.7352 C   0  0  1  0  0  0  0  0  0  0  0  0
    7.2631  -15.1025   25.6753 C   0  0  0  0  0  0  0  0  0  0  0  0
    7.1143  -13.6594   25.9917 C   0  0  0  0  0  0  0  0  0  0  0  0
    8.1300  -12.9772   26.6241 C   0  0  0  0  0  0  0  0  0  0  0  0
    8.0070  -11.6156   26.9302 C   0  0  0  0  0  0  0  0  0  0  0  0
    6.8500  -10.9542   26.5910 C   0  0  0  0  0  0  0  0  0  0  0  0
    5.8187  -11.6123   25.9580 C   0  0  0  0  0  0  0  0  0  0  0  0
    5.9761  -12.9517   25.6731 C   0  0  0  0  0  0  0  0  0  0  0  0
    8.6638  -16.8483   24.7586 C   0  0  0  0  0  0  0  0  0  0  0  0
    7.8123  -17.6976   24.3781 O   0  0  0  0  0  0  0  0  0  0  0  0
   12.5281  -18.1789   25.2311 O   0  0  0  0  0  0  0  0  0  0  0  0
   11.5298  -19.0123   24.7277 C   0  0  0  0  0  0  0  0  0  0  0  0
   10.2239  -18.6989   25.4147 C   0  0  2  0  0  0  0  0  0  0  0  0
    9.9295  -17.3038   25.2218 N   0  0  0  0  0  0  0  0  0  0  0  0
   10.2481  -19.0481   26.8639 C   0  0  0  0  0  0  0  0  0  0  0  0
   10.0768  -18.1694   27.7184 O   0  0  0  0  0  0  0  0  0  0  0  0
   10.4613  -20.3532   27.2767 O   0  0  0  0  0  0  0  0  0  0  0  0
  2  1  1  6
  2  9  1  0
  3  2  1  0
  4  8  1  0
  4  3  1  0
  5  4  2  0
  6  5  1  0
  6  7  1  0
  7  8  2  0
  9 10  2  0
  9 11  1  0
 11 12  1  0
 12 13  1  1
 14 13  1  0
 14 19  1  0
 15 14  2  0
 16 15  1  0
 16 17  2  0
 17 18  1  0
 18 19  2  0
 20 12  1  0
 20 21  2  0
 22 23  1  0
 24 23  1  1
 24 25  1  0
 25 20  1  0
 26 24  1  0
 27 26  2  0
 28 26  1  0
M  END
$$$$
