HFS.pdb
     RDKit          3D

 28 29  0  0  1  0  0  0  0  0999 V2000
    7.6448  -15.6765   21.1342 N   0  0  0  0  0  0  0  0  0  0  0  0
    9.0557  -15.4302   21.3520 C   0  0  1  0  0  0  0  0  0  0  0  0
    9.4854  -14.0795   20.8517 C   0  0  0  0  0  0  0  0  0  0  0  0
    8.9499  -13.7896   19.4952 C   0  0  0  0  0  0  0  0  0  0  0  0
    7.9945  -12.9122   19.0860 C   0  0  0  0  0  0  0  0  0  0  0  0
    7.8301  -12.9866   17.7590 N   0  0  0  0  0  0  0  0  0  0  0  0
    8.7030  -13.9307   17.3381 C   0  0  0  0  0  0  0  0  0  0  0  0
    9.3873  -14.4226   18.3920 N   0  0  0  0  0  0  0  0  0  0  0  0
    9.2967  -15.4662   22.8126 C   0  0  0  0  0  0  0  0  0  0  0  0
   10.4116  -15.1321   23.2879 O   0  0  0  0  0  0  0  0  0  0  0  0
    8.3224  -15.8670   23.7648 N   0  0  0  0  0  0  0  0  0  0  0  0
    8.5083  -15.9504   25.1769 C   0  0  1  0  0  0  0  0  0  0  0  0
    7.3282  -15.5984   26.0105 C   0  0  0  0  0  0  0  0  0  0  0  0
    7.1273  -14.1342   26.1543 C   0  0  0  0  0  0  0  0  0  0  0  0
    8.0826  -13.3579   26.7722 C   0  0  0  0  0  0  0  0  0  0  0  0
    7.9098  -11.9751   26.9166 C   0  0  0  0  0  0  0  0  0  0  0  0
    6.7647  -11.3884   26.4311 C   0  0  0  0  0  0  0  0  0  0  0  0
    5.7934  -12.1412   25.8089 C   0  0  0  0  0  0  0  0  0  0  0  0
    5.9986  -13.4986   25.6853 C   0  0  0  0  0  0  0  0  0  0  0  0
    8.9139  -17.3493   25.4908 C   0  0  0  0  0  0  0  0  0  0  0  0
    8.1766  -18.3342   25.2128 O   0  0  0  0  0  0  0  0  0  0  0  0
   12.7606  -18.4634   25.7001 O   0  0  0  0  0  0  0  0  0  0  0  0
   11.6940  -19.3582   25.6219 C   0  0  0  0  0  0  0  0  0  0  0  0
   10.5869  -18.8971   26.5369 C   0  0  2  0  0  0  0  0  0  0  0  0
   10.1672  -17.5851   26.1213 N   0  0  0  0  0  0  0  0  0  0  0  0
   10.9977  -18.9015   27.9701 C   0  0  0  0  0  0  0  0  0  0  0  0
   10.9427  -17.8598   28.6361 O   0  0  0  0  0  0  0  0  0  0  0  0
   11.4452  -20.0634   28.5773 O   0  0  0  0  0  0  0  0  0  0  0  0
  2  1  1  1
  2  9  1  0
  3  2  1  0
  4  8  1  0
  4  3  1  0
  5  4  2  0
  6  5  1  0
  6  7  1  0
  7  8  2  0
  9 10  2  0
  9 11  1  0
 11 12  1  0
 12 13  1  1
 14 13  1  0
 14 19  1  0
 15 14  2  0
 16 15  1  0
 16 17  2  0
 17 18  1  0
 18 19  2  0
 20 12  1  0
 20 21  2  0
 22 23  1  0
 24 23  1  6
 24 25  1  0
 25 20  1  0
 26 24  1  0
 27 26  2  0
 28 26  1  0
M  END
$$$$
