HFS.pdb
     RDKit          3D

 28 29  0  0  1  0  0  0  0  0999 V2000
   10.7060  -16.8906   19.5595 N   0  0  0  0  0  0  0  0  0  0  0  0
    9.4145  -17.0522   20.1958 C   0  0  1  0  0  0  0  0  0  0  0  0
    9.0835  -18.4940   20.4622 C   0  0  0  0  0  0  0  0  0  0  0  0
    8.8155  -19.2468   19.2083 C   0  0  0  0  0  0  0  0  0  0  0  0
    8.8434  -18.8468   17.9085 C   0  0  0  0  0  0  0  0  0  0  0  0
    8.5318  -19.8673   17.0994 N   0  0  0  0  0  0  0  0  0  0  0  0
    8.3062  -20.9218   17.9164 C   0  0  0  0  0  0  0  0  0  0  0  0
    8.4778  -20.5487   19.2018 N   0  0  0  0  0  0  0  0  0  0  0  0
    9.4675  -16.3545   21.5009 C   0  0  0  0  0  0  0  0  0  0  0  0
   10.5110  -16.3816   22.2016 O   0  0  0  0  0  0  0  0  0  0  0  0
    8.3819  -15.6224   22.0504 N   0  0  0  0  0  0  0  0  0  0  0  0
    8.3637  -14.9652   23.3166 C   0  0  1  0  0  0  0  0  0  0  0  0
    7.2832  -13.9625   23.5138 C   0  0  0  0  0  0  0  0  0  0  0  0
    7.3101  -13.3274   24.8557 C   0  0  0  0  0  0  0  0  0  0  0  0
    6.3493  -13.6382   25.7922 C   0  0  0  0  0  0  0  0  0  0  0  0
    6.3591  -13.0488   27.0632 C   0  0  0  0  0  0  0  0  0  0  0  0
    7.3476  -12.1450   27.3752 C   0  0  0  0  0  0  0  0  0  0  0  0
    8.3207  -11.8163   26.4574 C   0  0  0  0  0  0  0  0  0  0  0  0
    8.2783  -12.4166   25.2174 C   0  0  0  0  0  0  0  0  0  0  0  0
    8.2342  -16.0180   24.3629 C   0  0  0  0  0  0  0  0  0  0  0  0
    7.2421  -16.7958   24.4050 O   0  0  0  0  0  0  0  0  0  0  0  0
   11.1164  -18.1922   25.3971 O   0  0  0  0  0  0  0  0  0  0  0  0
    9.8063  -18.4349   25.8087 C   0  0  0  0  0  0  0  0  0  0  0  0
    9.2144  -17.1644   26.3664 C   0  0  2  0  0  0  0  0  0  0  0  0
    9.2560  -16.1534   25.3435 N   0  0  0  0  0  0  0  0  0  0  0  0
    9.9134  -16.7085   27.6019 C   0  0  0  0  0  0  0  0  0  0  0  0
   10.4057  -15.5742   27.6555 O   0  0  0  0  0  0  0  0  0  0  0  0
   10.0234  -17.5406   28.7039 O   0  0  0  0  0  0  0  0  0  0  0  0
  2  1  1  1
  2  9  1  0
  3  2  1  0
  4  8  1  0
  4  3  1  0
  5  4  2  0
  6  5  1  0
  6  7  1  0
  7  8  2  0
  9 10  2  0
  9 11  1  0
 11 12  1  0
 12 13  1  6
 14 13  1  0
 14 19  1  0
 15 14  2  0
 16 15  1  0
 16 17  2  0
 17 18  1  0
 18 19  2  0
 20 12  1  0
 20 21  2  0
 22 23  1  0
 24 23  1  6
 24 25  1  0
 25 20  1  0
 26 24  1  0
 27 26  2  0
 28 26  1  0
M  END
$$$$
