HFS.pdb
     RDKit          3D

 28 29  0  0  1  0  0  0  0  0999 V2000
    9.7195  -16.9397   19.6730 N   0  0  0  0  0  0  0  0  0  0  0  0
    8.6381  -17.2567   20.5834 C   0  0  1  0  0  0  0  0  0  0  0  0
    8.6123  -18.7122   20.9577 C   0  0  0  0  0  0  0  0  0  0  0  0
    8.2287  -19.5776   19.8111 C   0  0  0  0  0  0  0  0  0  0  0  0
    7.0044  -19.9387   19.3410 C   0  0  0  0  0  0  0  0  0  0  0  0
    7.1314  -20.7400   18.2756 N   0  0  0  0  0  0  0  0  0  0  0  0
    8.4633  -20.8776   18.0823 C   0  0  0  0  0  0  0  0  0  0  0  0
    9.1357  -20.1715   19.0151 N   0  0  0  0  0  0  0  0  0  0  0  0
    8.8535  -16.4772   21.8238 C   0  0  0  0  0  0  0  0  0  0  0  0
    9.9845  -16.4415   22.3715 O   0  0  0  0  0  0  0  0  0  0  0  0
    7.8359  -15.7310   22.4752 N   0  0  0  0  0  0  0  0  0  0  0  0
    7.9945  -14.9352   23.6486 C   0  0  1  0  0  0  0  0  0  0  0  0
    6.9260  -13.9329   23.9044 C   0  0  0  0  0  0  0  0  0  0  0  0
    7.0714  -13.2406   25.2098 C   0  0  0  0  0  0  0  0  0  0  0  0
    6.1938  -13.5027   26.2384 C   0  0  0  0  0  0  0  0  0  0  0  0
    6.3159  -12.8589   27.4767 C   0  0  0  0  0  0  0  0  0  0  0  0
    7.3317  -11.9507   27.6626 C   0  0  0  0  0  0  0  0  0  0  0  0
    8.2232  -11.6699   26.6509 C   0  0  0  0  0  0  0  0  0  0  0  0
    8.0713  -12.3229   25.4466 C   0  0  0  0  0  0  0  0  0  0  0  0
    8.0647  -15.8647   24.8109 C   0  0  0  0  0  0  0  0  0  0  0  0
    7.0668  -16.5397   25.1844 O   0  0  0  0  0  0  0  0  0  0  0  0
   11.4251  -17.6226   25.4281 O   0  0  0  0  0  0  0  0  0  0  0  0
   10.2781  -18.1110   26.0529 C   0  0  0  0  0  0  0  0  0  0  0  0
    9.4665  -16.9547   26.5818 C   0  0  2  0  0  0  0  0  0  0  0  0
    9.2897  -15.9979   25.5219 N   0  0  0  0  0  0  0  0  0  0  0  0
   10.0933  -16.3228   27.7779 C   0  0  0  0  0  0  0  0  0  0  0  0
   10.2436  -16.9749   28.8190 O   0  0  0  0  0  0  0  0  0  0  0  0
   10.5157  -15.0039   27.7452 O   0  0  0  0  0  0  0  0  0  0  0  0
  2  1  1  6
  2  9  1  0
  3  2  1  0
  4  8  1  0
  4  3  1  0
  5  4  2  0
  6  5  1  0
  6  7  1  0
  7  8  2  0
  9 10  2  0
  9 11  1  0
 11 12  1  0
 12 13  1  1
 14 13  1  0
 14 19  1  0
 15 14  2  0
 16 15  1  0
 16 17  2  0
 17 18  1  0
 18 19  2  0
 20 12  1  0
 20 21  2  0
 22 23  1  0
 24 23  1  6
 24 25  1  0
 25 20  1  0
 26 24  1  0
 27 26  2  0
 28 26  1  0
M  END
$$$$
