HFS.pdb
     RDKit          3D

 28 29  0  0  1  0  0  0  0  0999 V2000
    8.1928  -16.8178   19.8741 N   0  0  0  0  0  0  0  0  0  0  0  0
    9.5675  -16.5098   20.2120 C   0  0  1  0  0  0  0  0  0  0  0  0
   10.1720  -15.4942   19.2834 C   0  0  0  0  0  0  0  0  0  0  0  0
    9.1355  -14.6903   18.5832 C   0  0  0  0  0  0  0  0  0  0  0  0
    8.7852  -14.6425   17.2698 C   0  0  0  0  0  0  0  0  0  0  0  0
    7.7884  -13.7677   17.0842 N   0  0  0  0  0  0  0  0  0  0  0  0
    7.5159  -13.2634   18.3096 C   0  0  0  0  0  0  0  0  0  0  0  0
    8.3339  -13.8223   19.2258 N   0  0  0  0  0  0  0  0  0  0  0  0
    9.5754  -15.9330   21.5758 C   0  0  0  0  0  0  0  0  0  0  0  0
   10.6588  -15.7235   22.1782 O   0  0  0  0  0  0  0  0  0  0  0  0
    8.4007  -15.5809   22.2918 N   0  0  0  0  0  0  0  0  0  0  0  0
    8.3486  -15.0300   23.6069 C   0  0  1  0  0  0  0  0  0  0  0  0
    7.1483  -14.2106   23.9219 C   0  0  0  0  0  0  0  0  0  0  0  0
    7.1824  -13.6197   25.2837 C   0  0  0  0  0  0  0  0  0  0  0  0
    8.1550  -12.7049   25.6215 C   0  0  0  0  0  0  0  0  0  0  0  0
    8.2025  -12.1373   26.9015 C   0  0  0  0  0  0  0  0  0  0  0  0
    7.2590  -12.5036   27.8325 C   0  0  0  0  0  0  0  0  0  0  0  0
    6.2753  -13.4162   27.5212 C   0  0  0  0  0  0  0  0  0  0  0  0
    6.2607  -13.9533   26.2518 C   0  0  0  0  0  0  0  0  0  0  0  0
    8.4165  -16.1660   24.5686 C   0  0  0  0  0  0  0  0  0  0  0  0
    7.4961  -17.0246   24.6502 O   0  0  0  0  0  0  0  0  0  0  0  0
   10.7342  -18.4268   24.5826 O   0  0  0  0  0  0  0  0  0  0  0  0
   10.7746  -18.2704   25.9677 C   0  0  0  0  0  0  0  0  0  0  0  0
    9.6690  -17.3386   26.3976 C   0  0  2  0  0  0  0  0  0  0  0  0
    9.5495  -16.2897   25.4200 N   0  0  0  0  0  0  0  0  0  0  0  0
    9.8972  -16.7797   27.7609 C   0  0  0  0  0  0  0  0  0  0  0  0
   10.0256  -15.5590   27.9192 O   0  0  0  0  0  0  0  0  0  0  0  0
    9.9690  -17.6111   28.8666 O   0  0  0  0  0  0  0  0  0  0  0  0
  2  1  1  6
  2  9  1  0
  3  2  1  0
  4  8  1  0
  4  3  1  0
  5  4  2  0
  6  5  1  0
  6  7  1  0
  7  8  2  0
  9 10  2  0
  9 11  1  0
 11 12  1  0
 12 13  1  6
 14 13  1  0
 14 19  1  0
 15 14  2  0
 16 15  1  0
 16 17  2  0
 17 18  1  0
 18 19  2  0
 20 12  1  0
 20 21  2  0
 22 23  1  0
 24 23  1  6
 24 25  1  0
 25 20  1  0
 26 24  1  0
 27 26  2  0
 28 26  1  0
M  END
$$$$
