HFS.pdb
     RDKit          3D

 28 29  0  0  1  0  0  0  0  0999 V2000
   10.3849  -14.4908   21.0777 N   0  0  0  0  0  0  0  0  0  0  0  0
    9.0425  -14.4190   21.6177 C   0  0  1  0  0  0  0  0  0  0  0  0
    8.0262  -15.0581   20.7134 C   0  0  0  0  0  0  0  0  0  0  0  0
    8.0271  -14.4526   19.3554 C   0  0  0  0  0  0  0  0  0  0  0  0
    8.1009  -13.1525   18.9624 C   0  0  0  0  0  0  0  0  0  0  0  0
    8.0683  -13.0664   17.6264 N   0  0  0  0  0  0  0  0  0  0  0  0
    7.9723  -14.3411   17.1833 C   0  0  0  0  0  0  0  0  0  0  0  0
    7.9468  -15.1888   18.2327 N   0  0  0  0  0  0  0  0  0  0  0  0
    9.0346  -15.1617   22.8988 C   0  0  0  0  0  0  0  0  0  0  0  0
   10.0550  -15.7862   23.2854 O   0  0  0  0  0  0  0  0  0  0  0  0
    7.9129  -15.2279   23.7671 N   0  0  0  0  0  0  0  0  0  0  0  0
    7.9407  -15.5496   25.1568 C   0  0  1  0  0  0  0  0  0  0  0  0
    6.7513  -15.1313   25.9454 C   0  0  0  0  0  0  0  0  0  0  0  0
    6.7464  -13.6838   26.2763 C   0  0  0  0  0  0  0  0  0  0  0  0
    7.8738  -13.0838   26.7918 C   0  0  0  0  0  0  0  0  0  0  0  0
    7.8873  -11.7194   27.1097 C   0  0  0  0  0  0  0  0  0  0  0  0
    6.7522  -10.9714   26.9014 C   0  0  0  0  0  0  0  0  0  0  0  0
    5.6110  -11.5463   26.3871 C   0  0  0  0  0  0  0  0  0  0  0  0
    5.6357  -12.8912   26.0864 C   0  0  0  0  0  0  0  0  0  0  0  0
    8.0915  -17.0277   25.2688 C   0  0  0  0  0  0  0  0  0  0  0  0
    7.1921  -17.8200   24.8760 O   0  0  0  0  0  0  0  0  0  0  0  0
   11.6318  -18.8040   25.2178 O   0  0  0  0  0  0  0  0  0  0  0  0
   10.4464  -19.5336   25.1334 C   0  0  0  0  0  0  0  0  0  0  0  0
    9.4415  -18.9682   26.1060 C   0  0  2  0  0  0  0  0  0  0  0  0
    9.2818  -17.5645   25.8336 N   0  0  0  0  0  0  0  0  0  0  0  0
    9.8349  -19.1993   27.5254 C   0  0  0  0  0  0  0  0  0  0  0  0
    9.9765  -18.2409   28.2955 O   0  0  0  0  0  0  0  0  0  0  0  0
   10.0473  -20.4818   28.0039 O   0  0  0  0  0  0  0  0  0  0  0  0
  2  1  1  6
  2  9  1  0
  3  2  1  0
  4  8  1  0
  4  3  1  0
  5  4  2  0
  6  5  1  0
  6  7  1  0
  7  8  2  0
  9 10  2  0
  9 11  1  0
 11 12  1  0
 12 13  1  6
 14 13  1  0
 14 19  1  0
 15 14  2  0
 16 15  1  0
 16 17  2  0
 17 18  1  0
 18 19  2  0
 20 12  1  0
 20 21  2  0
 22 23  1  0
 24 23  1  6
 24 25  1  0
 25 20  1  0
 26 24  1  0
 27 26  2  0
 28 26  1  0
M  END
$$$$
