HFS.pdb
     RDKit          3D

 28 29  0  0  1  0  0  0  0  0999 V2000
    8.0405  -16.5293   19.5047 N   0  0  0  0  0  0  0  0  0  0  0  0
    9.4244  -16.2228   19.8040 C   0  0  1  0  0  0  0  0  0  0  0  0
    9.9986  -15.1947   18.8699 C   0  0  0  0  0  0  0  0  0  0  0  0
    9.4168  -15.2928   17.5050 C   0  0  0  0  0  0  0  0  0  0  0  0
    9.4580  -16.3001   16.5919 C   0  0  0  0  0  0  0  0  0  0  0  0
    8.7908  -15.9531   15.4838 N   0  0  0  0  0  0  0  0  0  0  0  0
    8.3268  -14.7037   15.7166 C   0  0  0  0  0  0  0  0  0  0  0  0
    8.7056  -14.2974   16.9463 N   0  0  0  0  0  0  0  0  0  0  0  0
    9.4730  -15.6625   21.1739 C   0  0  0  0  0  0  0  0  0  0  0  0
   10.5700  -15.3424   21.6982 O   0  0  0  0  0  0  0  0  0  0  0  0
    8.3247  -15.4476   21.9812 N   0  0  0  0  0  0  0  0  0  0  0  0
    8.3130  -14.9183   23.3061 C   0  0  1  0  0  0  0  0  0  0  0  0
    7.1770  -14.0173   23.6367 C   0  0  0  0  0  0  0  0  0  0  0  0
    7.2684  -13.4338   24.9990 C   0  0  0  0  0  0  0  0  0  0  0  0
    6.3701  -13.8022   25.9759 C   0  0  0  0  0  0  0  0  0  0  0  0
    6.4414  -13.2620   27.2665 C   0  0  0  0  0  0  0  0  0  0  0  0
    7.4275  -12.3485   27.5573 C   0  0  0  0  0  0  0  0  0  0  0  0
    8.3387  -11.9625   26.5992 C   0  0  0  0  0  0  0  0  0  0  0  0
    8.2370  -12.5156   25.3407 C   0  0  0  0  0  0  0  0  0  0  0  0
    8.2951  -16.0734   24.2470 C   0  0  0  0  0  0  0  0  0  0  0  0
    7.3037  -16.8488   24.3299 O   0  0  0  0  0  0  0  0  0  0  0  0
   11.4725  -18.1374   25.0007 O   0  0  0  0  0  0  0  0  0  0  0  0
   10.2021  -18.5524   25.3988 C   0  0  0  0  0  0  0  0  0  0  0  0
    9.4714  -17.3917   26.0267 C   0  0  2  0  0  0  0  0  0  0  0  0
    9.4260  -16.3123   25.0764 N   0  0  0  0  0  0  0  0  0  0  0  0
   10.0969  -16.9546   27.3076 C   0  0  0  0  0  0  0  0  0  0  0  0
   10.4948  -15.7901   27.4399 O   0  0  0  0  0  0  0  0  0  0  0  0
   10.2428  -17.8379   28.3647 O   0  0  0  0  0  0  0  0  0  0  0  0
  2  1  1  6
  2  9  1  0
  3  2  1  0
  4  8  1  0
  4  3  1  0
  5  4  2  0
  6  5  1  0
  6  7  1  0
  7  8  2  0
  9 10  2  0
  9 11  1  0
 11 12  1  0
 12 13  1  6
 14 13  1  0
 14 19  1  0
 15 14  2  0
 16 15  1  0
 16 17  2  0
 17 18  1  0
 18 19  2  0
 20 12  1  0
 20 21  2  0
 22 23  1  0
 24 23  1  6
 24 25  1  0
 25 20  1  0
 26 24  1  0
 27 26  2  0
 28 26  1  0
M  END
$$$$
