HFS.pdb
     RDKit          3D

 28 29  0  0  1  0  0  0  0  0999 V2000
   10.5638  -15.2841   19.3876 N   0  0  0  0  0  0  0  0  0  0  0  0
    9.2270  -14.8662   19.7581 C   0  0  1  0  0  0  0  0  0  0  0  0
    8.1648  -15.7385   19.1498 C   0  0  0  0  0  0  0  0  0  0  0  0
    8.0788  -15.5684   17.6752 C   0  0  0  0  0  0  0  0  0  0  0  0
    7.8891  -14.4539   16.9189 C   0  0  0  0  0  0  0  0  0  0  0  0
    7.8789  -14.7692   15.6174 N   0  0  0  0  0  0  0  0  0  0  0  0
    8.0663  -16.1082   15.5675 C   0  0  0  0  0  0  0  0  0  0  0  0
    8.1885  -16.5993   16.8184 N   0  0  0  0  0  0  0  0  0  0  0  0
    9.1138  -14.9801   21.2302 C   0  0  0  0  0  0  0  0  0  0  0  0
    9.8582  -15.7634   21.8728 O   0  0  0  0  0  0  0  0  0  0  0  0
    8.1872  -14.2399   22.0113 N   0  0  0  0  0  0  0  0  0  0  0  0
    8.1941  -14.1141   23.4324 C   0  0  1  0  0  0  0  0  0  0  0  0
    7.2330  -13.1334   24.0035 C   0  0  0  0  0  0  0  0  0  0  0  0
    7.3067  -13.0333   25.4831 C   0  0  0  0  0  0  0  0  0  0  0  0
    6.2119  -13.3477   26.2574 C   0  0  0  0  0  0  0  0  0  0  0  0
    6.2634  -13.2591   27.6546 C   0  0  0  0  0  0  0  0  0  0  0  0
    7.4298  -12.8506   28.2578 C   0  0  0  0  0  0  0  0  0  0  0  0
    8.5395  -12.5303   27.5074 C   0  0  0  0  0  0  0  0  0  0  0  0
    8.4509  -12.6296   26.1354 C   0  0  0  0  0  0  0  0  0  0  0  0
    7.8967  -15.4593   23.9999 C   0  0  0  0  0  0  0  0  0  0  0  0
    6.8035  -16.0482   23.7782 O   0  0  0  0  0  0  0  0  0  0  0  0
   10.5412  -18.2505   24.4365 O   0  0  0  0  0  0  0  0  0  0  0  0
    9.1788  -18.4673   24.6401 C   0  0  0  0  0  0  0  0  0  0  0  0
    8.6157  -17.3498   25.4825 C   0  0  2  0  0  0  0  0  0  0  0  0
    8.8704  -16.1011   24.8147 N   0  0  0  0  0  0  0  0  0  0  0  0
    9.1754  -17.3448   26.8643 C   0  0  0  0  0  0  0  0  0  0  0  0
    9.8302  -16.3746   27.2666 O   0  0  0  0  0  0  0  0  0  0  0  0
    8.9739  -18.4182   27.7164 O   0  0  0  0  0  0  0  0  0  0  0  0
  2  1  1  6
  2  9  1  0
  3  2  1  0
  4  8  1  0
  4  3  1  0
  5  4  2  0
  6  5  1  0
  6  7  1  0
  7  8  2  0
  9 10  2  0
  9 11  1  0
 11 12  1  0
 12 13  1  6
 14 13  1  0
 14 19  1  0
 15 14  2  0
 16 15  1  0
 16 17  2  0
 17 18  1  0
 18 19  2  0
 20 12  1  0
 20 21  2  0
 22 23  1  0
 24 23  1  6
 24 25  1  0
 25 20  1  0
 26 24  1  0
 27 26  2  0
 28 26  1  0
M  END
$$$$
