HFS.pdb
     RDKit          3D

 28 29  0  0  1  0  0  0  0  0999 V2000
    6.9180  -16.6110   19.7001 N   0  0  0  0  0  0  0  0  0  0  0  0
    8.0388  -17.1472   20.4453 C   0  0  1  0  0  0  0  0  0  0  0  0
    9.2951  -17.2126   19.6228 C   0  0  0  0  0  0  0  0  0  0  0  0
    9.1062  -17.9997   18.3755 C   0  0  0  0  0  0  0  0  0  0  0  0
    9.0388  -19.3432   18.1743 C   0  0  0  0  0  0  0  0  0  0  0  0
    8.8589  -19.6121   16.8748 N   0  0  0  0  0  0  0  0  0  0  0  0
    8.8140  -18.4085   16.2586 C   0  0  0  0  0  0  0  0  0  0  0  0
    8.9641  -17.4235   17.1685 N   0  0  0  0  0  0  0  0  0  0  0  0
    8.2948  -16.2379   21.5857 C   0  0  0  0  0  0  0  0  0  0  0  0
    9.2274  -15.3962   21.5390 O   0  0  0  0  0  0  0  0  0  0  0  0
    7.5347  -16.2410   22.7852 N   0  0  0  0  0  0  0  0  0  0  0  0
    7.8497  -15.5352   23.9844 C   0  0  1  0  0  0  0  0  0  0  0  0
    6.6892  -15.0530   24.7795 C   0  0  0  0  0  0  0  0  0  0  0  0
    7.0749  -14.1437   25.8881 C   0  0  0  0  0  0  0  0  0  0  0  0
    6.9625  -12.7790   25.7402 C   0  0  0  0  0  0  0  0  0  0  0  0
    7.3217  -11.9061   26.7755 C   0  0  0  0  0  0  0  0  0  0  0  0
    7.7941  -12.4266   27.9575 C   0  0  0  0  0  0  0  0  0  0  0  0
    7.9166  -13.7874   28.1321 C   0  0  0  0  0  0  0  0  0  0  0  0
    7.5533  -14.6147   27.0911 C   0  0  0  0  0  0  0  0  0  0  0  0
    8.6658  -16.4458   24.8357 C   0  0  0  0  0  0  0  0  0  0  0  0
    8.2543  -17.5899   25.1711 O   0  0  0  0  0  0  0  0  0  0  0  0
   12.7103  -15.7388   25.1568 O   0  0  0  0  0  0  0  0  0  0  0  0
   12.1276  -16.9988   25.2893 C   0  0  0  0  0  0  0  0  0  0  0  0
   10.8249  -16.8703   26.0389 C   0  0  2  0  0  0  0  0  0  0  0  0
    9.9459  -16.0168   25.2846 N   0  0  0  0  0  0  0  0  0  0  0  0
   11.0170  -16.3546   27.4245 C   0  0  0  0  0  0  0  0  0  0  0  0
   10.6323  -15.2169   27.7237 O   0  0  0  0  0  0  0  0  0  0  0  0
   11.6252  -17.1342   28.3947 O   0  0  0  0  0  0  0  0  0  0  0  0
  2  1  1  6
  2  9  1  0
  3  2  1  0
  4  8  1  0
  4  3  1  0
  5  4  2  0
  6  5  1  0
  6  7  1  0
  7  8  2  0
  9 10  2  0
  9 11  1  0
 11 12  1  0
 12 13  1  1
 14 13  1  0
 14 19  1  0
 15 14  2  0
 16 15  1  0
 16 17  2  0
 17 18  1  0
 18 19  2  0
 20 12  1  0
 20 21  2  0
 22 23  1  0
 24 23  1  6
 24 25  1  0
 25 20  1  0
 26 24  1  0
 27 26  2  0
 28 26  1  0
M  END
$$$$
