HFS.pdb
     RDKit          3D

 28 29  0  0  1  0  0  0  0  0999 V2000
    9.8875  -16.4601   19.1825 N   0  0  0  0  0  0  0  0  0  0  0  0
    8.7133  -16.7391   19.9838 C   0  0  1  0  0  0  0  0  0  0  0  0
    8.5180  -18.2104   20.2214 C   0  0  0  0  0  0  0  0  0  0  0  0
    8.1561  -18.9347   18.9743 C   0  0  0  0  0  0  0  0  0  0  0  0
    8.0138  -18.4888   17.6972 C   0  0  0  0  0  0  0  0  0  0  0  0
    7.6745  -19.4983   16.8854 N   0  0  0  0  0  0  0  0  0  0  0  0
    7.6054  -20.5928   17.6777 C   0  0  0  0  0  0  0  0  0  0  0  0
    7.8978  -20.2544   18.9508 N   0  0  0  0  0  0  0  0  0  0  0  0
    8.9063  -16.0925   21.3020 C   0  0  0  0  0  0  0  0  0  0  0  0
   10.0572  -15.9625   21.7911 O   0  0  0  0  0  0  0  0  0  0  0  0
    7.8445  -15.5833   22.0956 N   0  0  0  0  0  0  0  0  0  0  0  0
    7.9761  -14.9003   23.3413 C   0  0  1  0  0  0  0  0  0  0  0  0
    6.8417  -14.0173   23.7222 C   0  0  0  0  0  0  0  0  0  0  0  0
    7.0176  -13.3763   25.0499 C   0  0  0  0  0  0  0  0  0  0  0  0
    6.5411  -13.9893   26.1875 C   0  0  0  0  0  0  0  0  0  0  0  0
    6.6981  -13.3991   27.4484 C   0  0  0  0  0  0  0  0  0  0  0  0
    7.3398  -12.1867   27.5457 C   0  0  0  0  0  0  0  0  0  0  0  0
    7.8260  -11.5518   26.4241 C   0  0  0  0  0  0  0  0  0  0  0  0
    7.6528  -12.1632   25.2009 C   0  0  0  0  0  0  0  0  0  0  0  0
    8.1519  -15.9343   24.3996 C   0  0  0  0  0  0  0  0  0  0  0  0
    7.2864  -16.8281   24.6070 O   0  0  0  0  0  0  0  0  0  0  0  0
   11.6982  -17.3806   24.9706 O   0  0  0  0  0  0  0  0  0  0  0  0
   10.5106  -17.9889   25.3757 C   0  0  0  0  0  0  0  0  0  0  0  0
    9.6585  -16.9827   26.1085 C   0  0  2  0  0  0  0  0  0  0  0  0
    9.3276  -15.9167   25.2005 N   0  0  0  0  0  0  0  0  0  0  0  0
   10.3282  -16.4580   27.3328 C   0  0  0  0  0  0  0  0  0  0  0  0
   10.6421  -17.2288   28.2489 O   0  0  0  0  0  0  0  0  0  0  0  0
   10.6088  -15.1080   27.4658 O   0  0  0  0  0  0  0  0  0  0  0  0
  2  1  1  6
  2  9  1  0
  3  2  1  0
  4  8  1  0
  4  3  1  0
  5  4  2  0
  6  5  1  0
  6  7  1  0
  7  8  2  0
  9 10  2  0
  9 11  1  0
 11 12  1  0
 12 13  1  1
 14 13  1  0
 14 19  1  0
 15 14  2  0
 16 15  1  0
 16 17  2  0
 17 18  1  0
 18 19  2  0
 20 12  1  0
 20 21  2  0
 22 23  1  0
 24 23  1  6
 24 25  1  0
 25 20  1  0
 26 24  1  0
 27 26  2  0
 28 26  1  0
M  END
$$$$
