MCQ.pdb
     RDKit          3D

 24 23  0  0  1  0  0  0  0  0999 V2000
    8.5020  -11.8089   19.6884 C   0  0  0  0  0  0  0  0  0  0  0  0
    7.0552  -12.8730   19.7552 S   0  0  0  0  0  0  0  0  0  0  0  0
    7.4536  -14.4897   19.0087 C   0  0  0  0  0  0  0  0  0  0  0  0
    8.7490  -15.0241   19.5200 C   0  0  0  0  0  0  0  0  0  0  0  0
    8.6092  -16.0231   20.6130 C   0  0  2  0  0  0  0  0  0  0  0  0
    7.2310  -16.5211   20.6857 N   0  0  0  0  0  0  0  0  0  0  0  0
    9.0412  -15.5435   21.9547 C   0  0  0  0  0  0  0  0  0  0  0  0
    9.0770  -14.3281   22.2648 O   0  0  0  0  0  0  0  0  0  0  0  0
    9.4445  -16.4594   22.9769 N   0  0  0  0  0  0  0  0  0  0  0  0
    9.7267  -16.0423   24.3526 C   0  0  1  0  0  0  0  0  0  0  0  0
    8.5224  -15.3459   24.9336 C   0  0  0  0  0  0  0  0  0  0  0  0
    8.7430  -14.7795   26.6235 S   0  0  0  0  0  0  0  0  0  0  0  0
   10.2059  -17.1992   25.1467 C   0  0  0  0  0  0  0  0  0  0  0  0
    9.4243  -18.2059   25.2996 O   0  0  0  0  0  0  0  0  0  0  0  0
   14.0801  -16.5658   24.7712 N   0  0  0  0  0  0  0  0  0  0  0  0
   14.1083  -17.7911   24.0864 C   0  0  0  0  0  0  0  0  0  0  0  0
   14.4603  -17.8810   22.9024 O   0  0  0  0  0  0  0  0  0  0  0  0
   13.6946  -19.0402   24.8215 C   0  0  0  0  0  0  0  0  0  0  0  0
   13.3873  -18.7077   26.2517 C   0  0  0  0  0  0  0  0  0  0  0  0
   11.9512  -18.4619   26.4833 C   0  0  2  0  0  0  0  0  0  0  0  0
   11.4626  -17.2914   25.7540 N   0  0  0  0  0  0  0  0  0  0  0  0
   11.4995  -18.4774   27.8710 C   0  0  0  0  0  0  0  0  0  0  0  0
   10.8601  -17.5362   28.3606 O   0  0  0  0  0  0  0  0  0  0  0  0
   11.7756  -19.5540   28.6947 O   0  0  0  0  0  0  0  0  0  0  0  0
  2  1  1  0
  2  3  1  0
  4  3  1  0
  5  7  1  0
  5  4  1  0
  5  6  1  1
  7  8  2  0
  9  7  1  0
  9 10  1  0
 10 11  1  1
 11 12  1  0
 13 21  1  0
 13 10  1  0
 14 13  2  0
 16 15  1  0
 17 16  2  0
 18 16  1  0
 20 19  1  1
 19 18  1  0
 20 22  1  0
 20 21  1  0
 22 24  1  0
 23 22  2  0
M  END
$$$$
