MCQ.pdb
     RDKit          3D

 24 23  0  0  1  0  0  0  0  0999 V2000
    9.1041  -11.8953   19.0389 C   0  0  0  0  0  0  0  0  0  0  0  0
    7.3590  -12.1310   19.3982 S   0  0  0  0  0  0  0  0  0  0  0  0
    6.9536  -13.9079   19.3086 C   0  0  0  0  0  0  0  0  0  0  0  0
    6.9642  -14.5403   20.6595 C   0  0  0  0  0  0  0  0  0  0  0  0
    8.0475  -15.5401   20.8577 C   0  0  2  0  0  0  0  0  0  0  0  0
    7.5280  -16.9035   20.7030 N   0  0  0  0  0  0  0  0  0  0  0  0
    8.7740  -15.4234   22.1521 C   0  0  0  0  0  0  0  0  0  0  0  0
    9.5569  -14.4776   22.4111 O   0  0  0  0  0  0  0  0  0  0  0  0
    8.6139  -16.4003   23.1848 N   0  0  0  0  0  0  0  0  0  0  0  0
    9.3299  -16.3334   24.4611 C   0  0  1  0  0  0  0  0  0  0  0  0
    8.4306  -16.7997   25.5776 C   0  0  0  0  0  0  0  0  0  0  0  0
    9.2998  -17.2602   27.0802 S   0  0  0  0  0  0  0  0  0  0  0  0
   10.6139  -17.0684   24.3631 C   0  0  0  0  0  0  0  0  0  0  0  0
   10.5993  -18.2760   23.9279 O   0  0  0  0  0  0  0  0  0  0  0  0
   17.5571  -16.5093   22.2650 N   0  0  0  0  0  0  0  0  0  0  0  0
   16.3193  -16.0400   22.7326 C   0  0  0  0  0  0  0  0  0  0  0  0
   15.9706  -14.8576   22.6134 O   0  0  0  0  0  0  0  0  0  0  0  0
   15.3836  -17.0127   23.4034 C   0  0  0  0  0  0  0  0  0  0  0  0
   14.1081  -16.3152   23.7735 C   0  0  0  0  0  0  0  0  0  0  0  0
   13.1439  -17.2089   24.4428 C   0  0  2  0  0  0  0  0  0  0  0  0
   11.8656  -16.5485   24.7087 N   0  0  0  0  0  0  0  0  0  0  0  0
   13.6336  -17.9524   25.5992 C   0  0  0  0  0  0  0  0  0  0  0  0
   13.3873  -17.5936   26.7590 O   0  0  0  0  0  0  0  0  0  0  0  0
   14.3993  -19.0931   25.4366 O   0  0  0  0  0  0  0  0  0  0  0  0
  2  1  1  0
  2  3  1  0
  4  3  1  0
  5  7  1  0
  5  4  1  0
  5  6  1  1
  7  8  2  0
  9  7  1  0
  9 10  1  0
 10 11  1  1
 11 12  1  0
 13 21  1  0
 13 10  1  0
 14 13  2  0
 16 15  1  0
 17 16  2  0
 18 16  1  0
 20 19  1  1
 19 18  1  0
 20 22  1  0
 20 21  1  0
 22 24  1  0
 23 22  2  0
M  END
$$$$
