MCQ.pdb
     RDKit          3D

 24 23  0  0  1  0  0  0  0  0999 V2000
    7.8105  -11.3568   19.4113 C   0  0  0  0  0  0  0  0  0  0  0  0
    7.1804  -12.7502   18.4672 S   0  0  0  0  0  0  0  0  0  0  0  0
    7.4297  -14.2898   19.4142 C   0  0  0  0  0  0  0  0  0  0  0  0
    8.1973  -14.0422   20.6690 C   0  0  0  0  0  0  0  0  0  0  0  0
    8.5168  -15.2717   21.4426 C   0  0  2  0  0  0  0  0  0  0  0  0
    7.3217  -16.1077   21.6026 N   0  0  0  0  0  0  0  0  0  0  0  0
    9.1398  -15.0268   22.7726 C   0  0  0  0  0  0  0  0  0  0  0  0
   10.2969  -14.5603   22.9074 O   0  0  0  0  0  0  0  0  0  0  0  0
    8.4393  -15.3156   23.9859 N   0  0  0  0  0  0  0  0  0  0  0  0
    9.0037  -15.0536   25.3122 C   0  0  1  0  0  0  0  0  0  0  0  0
    7.9541  -14.4392   26.2030 C   0  0  0  0  0  0  0  0  0  0  0  0
    8.5344  -14.0329   27.8533 S   0  0  0  0  0  0  0  0  0  0  0  0
    9.6201  -16.2878   25.8555 C   0  0  0  0  0  0  0  0  0  0  0  0
    8.8939  -17.3406   25.9655 O   0  0  0  0  0  0  0  0  0  0  0  0
   15.2035  -16.9215   25.2564 N   0  0  0  0  0  0  0  0  0  0  0  0
   14.2354  -17.2367   24.2897 C   0  0  0  0  0  0  0  0  0  0  0  0
   14.4253  -17.0593   23.0788 O   0  0  0  0  0  0  0  0  0  0  0  0
   12.9188  -17.8117   24.7454 C   0  0  0  0  0  0  0  0  0  0  0  0
   12.8916  -17.8897   26.2433 C   0  0  0  0  0  0  0  0  0  0  0  0
   11.5517  -17.6289   26.8028 C   0  0  2  0  0  0  0  0  0  0  0  0
   10.9523  -16.4075   26.2646 N   0  0  0  0  0  0  0  0  0  0  0  0
   11.4192  -17.7174   28.2535 C   0  0  0  0  0  0  0  0  0  0  0  0
   11.7137  -18.7477   28.8750 O   0  0  0  0  0  0  0  0  0  0  0  0
   10.9531  -16.6431   28.9899 O   0  0  0  0  0  0  0  0  0  0  0  0
  2  1  1  0
  2  3  1  0
  4  3  1  0
  5  7  1  0
  5  4  1  0
  5  6  1  1
  7  8  2  0
  9  7  1  0
  9 10  1  0
 10 11  1  1
 11 12  1  0
 13 21  1  0
 13 10  1  0
 14 13  2  0
 16 15  1  0
 17 16  2  0
 18 16  1  0
 20 19  1  1
 19 18  1  0
 20 22  1  0
 20 21  1  0
 22 24  1  0
 23 22  2  0
M  END
$$$$
