MCQ.pdb
     RDKit          3D

 24 23  0  0  1  0  0  0  0  0999 V2000
    7.0091  -11.9032   26.0105 C   0  0  0  0  0  0  0  0  0  0  0  0
    5.9161  -12.9372   26.9936 S   0  0  0  0  0  0  0  0  0  0  0  0
    5.9427  -14.6418   26.3432 C   0  0  0  0  0  0  0  0  0  0  0  0
    6.5159  -14.6936   24.9671 C   0  0  0  0  0  0  0  0  0  0  0  0
    7.1260  -16.0016   24.6080 C   0  0  2  0  0  0  0  0  0  0  0  0
    7.4213  -16.7834   25.8140 N   0  0  0  0  0  0  0  0  0  0  0  0
    8.3456  -15.9083   23.7590 C   0  0  0  0  0  0  0  0  0  0  0  0
    8.3828  -15.2527   22.6897 O   0  0  0  0  0  0  0  0  0  0  0  0
    9.5586  -16.5724   24.1251 N   0  0  0  0  0  0  0  0  0  0  0  0
   10.8525  -16.2602   23.5132 C   0  0  1  0  0  0  0  0  0  0  0  0
   11.4336  -15.0225   24.1482 C   0  0  0  0  0  0  0  0  0  0  0  0
   10.9979  -14.8077   25.8772 S   0  0  0  0  0  0  0  0  0  0  0  0
   11.7392  -17.4474   23.5647 C   0  0  0  0  0  0  0  0  0  0  0  0
   11.8438  -18.0891   24.6716 O   0  0  0  0  0  0  0  0  0  0  0  0
   11.5579  -18.6795   18.6266 N   0  0  0  0  0  0  0  0  0  0  0  0
   12.7086  -19.3351   19.0925 C   0  0  0  0  0  0  0  0  0  0  0  0
   13.7522  -19.3952   18.4284 O   0  0  0  0  0  0  0  0  0  0  0  0
   12.6690  -19.9882   20.4504 C   0  0  0  0  0  0  0  0  0  0  0  0
   13.8521  -19.5459   21.2597 C   0  0  0  0  0  0  0  0  0  0  0  0
   13.4712  -19.0172   22.5832 C   0  0  2  0  0  0  0  0  0  0  0  0
   12.4851  -17.9403   22.4890 N   0  0  0  0  0  0  0  0  0  0  0  0
   14.5615  -18.6906   23.4966 C   0  0  0  0  0  0  0  0  0  0  0  0
   14.7784  -17.5284   23.8662 O   0  0  0  0  0  0  0  0  0  0  0  0
   15.3991  -19.6784   23.9830 O   0  0  0  0  0  0  0  0  0  0  0  0
  2  1  1  0
  2  3  1  0
  4  3  1  0
  5  7  1  0
  5  4  1  0
  5  6  1  1
  7  8  2  0
  9  7  1  0
  9 10  1  0
 10 11  1  1
 11 12  1  0
 13 21  1  0
 13 10  1  0
 14 13  2  0
 16 15  1  0
 17 16  2  0
 18 16  1  0
 20 19  1  6
 19 18  1  0
 20 22  1  0
 20 21  1  0
 22 24  1  0
 23 22  2  0
M  END
$$$$
