MCQ.pdb
     RDKit          3D

 24 23  0  0  1  0  0  0  0  0999 V2000
    7.3298  -11.8824   26.1190 C   0  0  0  0  0  0  0  0  0  0  0  0
    6.4881  -12.8940   27.3430 S   0  0  0  0  0  0  0  0  0  0  0  0
    6.7262  -14.6582   26.9425 C   0  0  0  0  0  0  0  0  0  0  0  0
    5.9652  -15.0495   25.7208 C   0  0  0  0  0  0  0  0  0  0  0  0
    6.1678  -16.4619   25.3008 C   0  0  2  0  0  0  0  0  0  0  0  0
    6.7439  -17.2500   26.3962 N   0  0  0  0  0  0  0  0  0  0  0  0
    6.9899  -16.6348   24.0716 C   0  0  0  0  0  0  0  0  0  0  0  0
    7.0923  -17.7306   23.4689 O   0  0  0  0  0  0  0  0  0  0  0  0
    7.7176  -15.5415   23.5044 N   0  0  0  0  0  0  0  0  0  0  0  0
    8.5907  -15.6872   22.3371 C   0  0  1  0  0  0  0  0  0  0  0  0
    8.2876  -14.6044   21.3328 C   0  0  0  0  0  0  0  0  0  0  0  0
    7.6119  -13.1029   22.0499 S   0  0  0  0  0  0  0  0  0  0  0  0
   10.0088  -15.7430   22.7664 C   0  0  0  0  0  0  0  0  0  0  0  0
   10.4584  -14.8107   23.5257 O   0  0  0  0  0  0  0  0  0  0  0  0
   12.7827  -18.6736   27.2603 N   0  0  0  0  0  0  0  0  0  0  0  0
   11.9418  -19.1913   26.2623 C   0  0  0  0  0  0  0  0  0  0  0  0
   10.8100  -19.6286   26.5101 O   0  0  0  0  0  0  0  0  0  0  0  0
   12.4375  -19.2141   24.8391 C   0  0  0  0  0  0  0  0  0  0  0  0
   11.4184  -18.5821   23.9377 C   0  0  0  0  0  0  0  0  0  0  0  0
   11.9034  -17.3354   23.3158 C   0  0  2  0  0  0  0  0  0  0  0  0
   10.9171  -16.7453   22.4103 N   0  0  0  0  0  0  0  0  0  0  0  0
   13.2397  -17.3723   22.7302 C   0  0  0  0  0  0  0  0  0  0  0  0
   13.4150  -17.4494   21.5064 O   0  0  0  0  0  0  0  0  0  0  0  0
   14.3666  -17.3243   23.5313 O   0  0  0  0  0  0  0  0  0  0  0  0
  2  1  1  0
  2  3  1  0
  4  3  1  0
  5  7  1  0
  5  4  1  0
  5  6  1  1
  7  8  2  0
  9  7  1  0
  9 10  1  0
 10 11  1  6
 11 12  1  0
 13 21  1  0
 13 10  1  0
 14 13  2  0
 16 15  1  0
 17 16  2  0
 18 16  1  0
 20 19  1  6
 19 18  1  0
 20 22  1  0
 20 21  1  0
 22 24  1  0
 23 22  2  0
M  END
$$$$
