MCQ.pdb
     RDKit          3D

 24 23  0  0  1  0  0  0  0  0999 V2000
    8.3328  -11.6413   18.8575 C   0  0  0  0  0  0  0  0  0  0  0  0
    7.3981  -13.0637   18.2801 S   0  0  0  0  0  0  0  0  0  0  0  0
    7.7145  -14.4864   19.3779 C   0  0  0  0  0  0  0  0  0  0  0  0
    8.1293  -14.0443   20.7408 C   0  0  0  0  0  0  0  0  0  0  0  0
    8.3723  -15.1576   21.6968 C   0  0  2  0  0  0  0  0  0  0  0  0
    7.2009  -16.0377   21.7748 N   0  0  0  0  0  0  0  0  0  0  0  0
    8.7694  -14.7278   23.0659 C   0  0  0  0  0  0  0  0  0  0  0  0
    9.9268  -14.3329   23.3471 O   0  0  0  0  0  0  0  0  0  0  0  0
    7.8358  -14.7431   24.1497 N   0  0  0  0  0  0  0  0  0  0  0  0
    8.1863  -14.3197   25.5077 C   0  0  1  0  0  0  0  0  0  0  0  0
    7.0906  -13.4515   26.0719 C   0  0  0  0  0  0  0  0  0  0  0  0
    7.2557  -13.1041   27.8262 S   0  0  0  0  0  0  0  0  0  0  0  0
    8.5189  -15.5016   26.3390 C   0  0  0  0  0  0  0  0  0  0  0  0
    7.6312  -16.4165   26.4897 O   0  0  0  0  0  0  0  0  0  0  0  0
   11.8802  -19.9907   25.8713 N   0  0  0  0  0  0  0  0  0  0  0  0
   12.4783  -18.7341   25.6855 C   0  0  0  0  0  0  0  0  0  0  0  0
   13.4880  -18.5773   24.9858 O   0  0  0  0  0  0  0  0  0  0  0  0
   11.8669  -17.5348   26.3635 C   0  0  0  0  0  0  0  0  0  0  0  0
   10.6725  -17.9606   27.1651 C   0  0  0  0  0  0  0  0  0  0  0  0
   10.0322  -16.8362   27.8738 C   0  0  2  0  0  0  0  0  0  0  0  0
    9.7419  -15.7112   26.9845 N   0  0  0  0  0  0  0  0  0  0  0  0
   10.6560  -16.4083   29.1219 C   0  0  0  0  0  0  0  0  0  0  0  0
   10.9341  -15.2210   29.3399 O   0  0  0  0  0  0  0  0  0  0  0  0
   10.9628  -17.3245   30.1119 O   0  0  0  0  0  0  0  0  0  0  0  0
  2  1  1  0
  2  3  1  0
  4  3  1  0
  5  7  1  0
  5  4  1  0
  5  6  1  1
  7  8  2  0
  9  7  1  0
  9 10  1  0
 10 11  1  1
 11 12  1  0
 13 21  1  0
 13 10  1  0
 14 13  2  0
 16 15  1  0
 17 16  2  0
 18 16  1  0
 20 19  1  6
 19 18  1  0
 20 22  1  0
 20 21  1  0
 22 24  1  0
 23 22  2  0
M  END
$$$$
