MCQ.pdb
     RDKit          3D

 24 23  0  0  1  0  0  0  0  0999 V2000
    8.1590  -11.6794   18.9124 C   0  0  0  0  0  0  0  0  0  0  0  0
    6.6487  -12.6412   19.0674 S   0  0  0  0  0  0  0  0  0  0  0  0
    7.0398  -14.2797   19.7688 C   0  0  0  0  0  0  0  0  0  0  0  0
    8.5125  -14.4934   19.8721 C   0  0  0  0  0  0  0  0  0  0  0  0
    8.9011  -15.7221   20.6147 C   0  0  2  0  0  0  0  0  0  0  0  0
    7.7644  -16.6438   20.7211 N   0  0  0  0  0  0  0  0  0  0  0  0
    9.4775  -15.4778   21.9656 C   0  0  0  0  0  0  0  0  0  0  0  0
   10.5864  -14.9176   22.1421 O   0  0  0  0  0  0  0  0  0  0  0  0
    8.7848  -15.8758   23.1522 N   0  0  0  0  0  0  0  0  0  0  0  0
    9.3469  -15.7107   24.4949 C   0  0  1  0  0  0  0  0  0  0  0  0
    8.2563  -15.3284   25.4630 C   0  0  0  0  0  0  0  0  0  0  0  0
    6.8102  -16.3915   25.4008 S   0  0  0  0  0  0  0  0  0  0  0  0
   10.1087  -16.9230   24.8801 C   0  0  0  0  0  0  0  0  0  0  0  0
    9.5473  -18.0697   24.7476 O   0  0  0  0  0  0  0  0  0  0  0  0
   15.2439  -16.1327   24.6180 N   0  0  0  0  0  0  0  0  0  0  0  0
   14.5904  -16.7112   23.5182 C   0  0  0  0  0  0  0  0  0  0  0  0
   14.8044  -16.3480   22.3537 O   0  0  0  0  0  0  0  0  0  0  0  0
   13.5933  -17.8136   23.7673 C   0  0  0  0  0  0  0  0  0  0  0  0
   13.5359  -18.1224   25.2342 C   0  0  0  0  0  0  0  0  0  0  0  0
   12.1581  -18.1271   25.7616 C   0  0  2  0  0  0  0  0  0  0  0  0
   11.4138  -16.9255   25.3834 N   0  0  0  0  0  0  0  0  0  0  0  0
   11.9990  -18.4544   27.1749 C   0  0  0  0  0  0  0  0  0  0  0  0
   12.5308  -19.4536   27.6782 O   0  0  0  0  0  0  0  0  0  0  0  0
   11.2388  -17.6526   28.0074 O   0  0  0  0  0  0  0  0  0  0  0  0
  2  1  1  0
  2  3  1  0
  4  3  1  0
  5  7  1  0
  5  4  1  0
  5  6  1  1
  7  8  2  0
  9  7  1  0
  9 10  1  0
 10 11  1  1
 11 12  1  0
 13 21  1  0
 13 10  1  0
 14 13  2  0
 16 15  1  0
 17 16  2  0
 18 16  1  0
 20 19  1  1
 19 18  1  0
 20 22  1  0
 20 21  1  0
 22 24  1  0
 23 22  2  0
M  END
$$$$
