MCQ.pdb
     RDKit          3D

 24 23  0  0  1  0  0  0  0  0999 V2000
    7.9063  -11.9686   19.8767 C   0  0  0  0  0  0  0  0  0  0  0  0
    8.4282  -13.3312   18.8274 S   0  0  0  0  0  0  0  0  0  0  0  0
    7.2628  -14.7230   19.0124 C   0  0  0  0  0  0  0  0  0  0  0  0
    7.3213  -15.3071   20.3837 C   0  0  0  0  0  0  0  0  0  0  0  0
    8.7002  -15.5397   20.8905 C   0  0  2  0  0  0  0  0  0  0  0  0
    9.4333  -16.4456   19.9992 N   0  0  0  0  0  0  0  0  0  0  0  0
    8.7731  -16.0440   22.2896 C   0  0  0  0  0  0  0  0  0  0  0  0
    7.9826  -15.6717   23.1901 O   0  0  0  0  0  0  0  0  0  0  0  0
    9.7650  -16.9957   22.6857 N   0  0  0  0  0  0  0  0  0  0  0  0
    9.8973  -17.4809   24.0616 C   0  0  1  0  0  0  0  0  0  0  0  0
   10.9219  -18.5854   24.1185 C   0  0  0  0  0  0  0  0  0  0  0  0
   12.6092  -18.0404   23.8335 S   0  0  0  0  0  0  0  0  0  0  0  0
   10.1698  -16.3468   24.9770 C   0  0  0  0  0  0  0  0  0  0  0  0
   10.9107  -15.3848   24.5604 O   0  0  0  0  0  0  0  0  0  0  0  0
    5.8242  -13.1677   26.4814 N   0  0  0  0  0  0  0  0  0  0  0  0
    6.7193  -12.4601   27.2996 C   0  0  0  0  0  0  0  0  0  0  0  0
    6.4361  -11.3623   27.7977 O   0  0  0  0  0  0  0  0  0  0  0  0
    8.0728  -13.0613   27.5797 C   0  0  0  0  0  0  0  0  0  0  0  0
    8.2182  -14.3527   26.8303 C   0  0  0  0  0  0  0  0  0  0  0  0
    9.5455  -14.9704   27.0124 C   0  0  2  0  0  0  0  0  0  0  0  0
    9.6773  -16.2308   26.2810 N   0  0  0  0  0  0  0  0  0  0  0  0
   10.0385  -15.0714   28.3822 C   0  0  0  0  0  0  0  0  0  0  0  0
   10.0919  -14.0866   29.1318 O   0  0  0  0  0  0  0  0  0  0  0  0
   10.4695  -16.2825   28.8933 O   0  0  0  0  0  0  0  0  0  0  0  0
  2  1  1  0
  2  3  1  0
  4  3  1  0
  5  7  1  0
  5  4  1  0
  5  6  1  6
  7  8  2  0
  9  7  1  0
  9 10  1  0
 10 11  1  6
 11 12  1  0
 13 21  1  0
 13 10  1  0
 14 13  2  0
 16 15  1  0
 17 16  2  0
 18 16  1  0
 20 19  1  1
 19 18  1  0
 20 22  1  0
 20 21  1  0
 22 24  1  0
 23 22  2  0
M  END
$$$$
