MCQ.pdb
     RDKit          3D

 24 23  0  0  1  0  0  0  0  0999 V2000
    7.8854  -12.5391   20.9707 C   0  0  0  0  0  0  0  0  0  0  0  0
    7.5305  -12.9525   19.2580 S   0  0  0  0  0  0  0  0  0  0  0  0
    6.9386  -14.6756   19.1577 C   0  0  0  0  0  0  0  0  0  0  0  0
    8.0735  -15.6399   19.0725 C   0  0  0  0  0  0  0  0  0  0  0  0
    8.2817  -16.4488   20.3032 C   0  0  2  0  0  0  0  0  0  0  0  0
    7.7674  -15.7410   21.4810 N   0  0  0  0  0  0  0  0  0  0  0  0
    9.6906  -16.8661   20.5437 C   0  0  0  0  0  0  0  0  0  0  0  0
   10.3394  -17.5728   19.7349 O   0  0  0  0  0  0  0  0  0  0  0  0
   10.3891  -16.4758   21.7296 N   0  0  0  0  0  0  0  0  0  0  0  0
   11.7486  -16.9267   22.0369 C   0  0  1  0  0  0  0  0  0  0  0  0
   12.7514  -16.0322   21.3534 C   0  0  0  0  0  0  0  0  0  0  0  0
   12.0713  -14.4774   20.7658 S   0  0  0  0  0  0  0  0  0  0  0  0
   11.9284  -17.0370   23.5045 C   0  0  0  0  0  0  0  0  0  0  0  0
   12.1445  -15.9667   24.1795 O   0  0  0  0  0  0  0  0  0  0  0  0
    6.9993  -17.7462   24.7587 N   0  0  0  0  0  0  0  0  0  0  0  0
    7.3581  -17.9606   26.0990 C   0  0  0  0  0  0  0  0  0  0  0  0
    6.5358  -17.9007   27.0232 O   0  0  0  0  0  0  0  0  0  0  0  0
    8.7965  -18.2747   26.4213 C   0  0  0  0  0  0  0  0  0  0  0  0
    9.6325  -18.1473   25.1822 C   0  0  0  0  0  0  0  0  0  0  0  0
   11.0569  -18.4466   25.4230 C   0  0  2  0  0  0  0  0  0  0  0  0
   11.8796  -18.2304   24.2325 N   0  0  0  0  0  0  0  0  0  0  0  0
   11.3577  -19.7143   26.0806 C   0  0  0  0  0  0  0  0  0  0  0  0
   11.3558  -20.7877   25.4624 O   0  0  0  0  0  0  0  0  0  0  0  0
   11.6556  -19.7596   27.4308 O   0  0  0  0  0  0  0  0  0  0  0  0
  2  1  1  0
  2  3  1  0
  4  3  1  0
  5  7  1  0
  5  4  1  0
  5  6  1  1
  7  8  2  0
  9  7  1  0
  9 10  1  0
 10 11  1  1
 11 12  1  0
 13 21  1  0
 13 10  1  0
 14 13  2  0
 16 15  1  0
 17 16  2  0
 18 16  1  0
 20 19  1  6
 19 18  1  0
 20 22  1  0
 20 21  1  0
 22 24  1  0
 23 22  2  0
M  END
$$$$
