MCQ.pdb
     RDKit          3D

 24 23  0  0  1  0  0  0  0  0999 V2000
    8.3385  -11.5817   19.0000 C   0  0  0  0  0  0  0  0  0  0  0  0
    7.5787  -13.0172   18.2305 S   0  0  0  0  0  0  0  0  0  0  0  0
    7.5708  -14.4082   19.4115 C   0  0  0  0  0  0  0  0  0  0  0  0
    8.3164  -14.0713   20.6588 C   0  0  0  0  0  0  0  0  0  0  0  0
    8.3806  -15.1782   21.6502 C   0  0  2  0  0  0  0  0  0  0  0  0
    7.1511  -15.9781   21.6131 N   0  0  0  0  0  0  0  0  0  0  0  0
    8.6573  -14.7473   23.0483 C   0  0  0  0  0  0  0  0  0  0  0  0
    9.7740  -14.3107   23.4183 O   0  0  0  0  0  0  0  0  0  0  0  0
    7.6467  -14.8097   24.0589 N   0  0  0  0  0  0  0  0  0  0  0  0
    7.8857  -14.4121   25.4485 C   0  0  1  0  0  0  0  0  0  0  0  0
    6.7461  -13.5557   25.9391 C   0  0  0  0  0  0  0  0  0  0  0  0
    6.8218  -13.1607   27.6894 S   0  0  0  0  0  0  0  0  0  0  0  0
    8.1530  -15.6093   26.2814 C   0  0  0  0  0  0  0  0  0  0  0  0
    7.1776  -16.3972   26.5562 O   0  0  0  0  0  0  0  0  0  0  0  0
   11.1182  -19.9238   24.3250 N   0  0  0  0  0  0  0  0  0  0  0  0
   11.8448  -19.3280   25.3682 C   0  0  0  0  0  0  0  0  0  0  0  0
   12.8905  -19.8202   25.8132 O   0  0  0  0  0  0  0  0  0  0  0  0
   11.3310  -18.0432   25.9656 C   0  0  0  0  0  0  0  0  0  0  0  0
   10.0690  -18.3100   26.7315 C   0  0  0  0  0  0  0  0  0  0  0  0
    9.6673  -17.1729   27.5812 C   0  0  2  0  0  0  0  0  0  0  0  0
    9.4021  -15.9630   26.8022 N   0  0  0  0  0  0  0  0  0  0  0  0
   10.4955  -16.9060   28.7528 C   0  0  0  0  0  0  0  0  0  0  0  0
   10.7781  -17.7937   29.5692 O   0  0  0  0  0  0  0  0  0  0  0  0
   10.9954  -15.6389   28.9941 O   0  0  0  0  0  0  0  0  0  0  0  0
  2  1  1  0
  2  3  1  0
  4  3  1  0
  5  7  1  0
  5  4  1  0
  5  6  1  1
  7  8  2  0
  9  7  1  0
  9 10  1  0
 10 11  1  1
 11 12  1  0
 13 21  1  0
 13 10  1  0
 14 13  2  0
 16 15  1  0
 17 16  2  0
 18 16  1  0
 20 19  1  6
 19 18  1  0
 20 22  1  0
 20 21  1  0
 22 24  1  0
 23 22  2  0
M  END
$$$$
