MCQ.pdb
     RDKit          3D

 24 23  0  0  1  0  0  0  0  0999 V2000
    8.6805  -11.8013   19.2858 C   0  0  0  0  0  0  0  0  0  0  0  0
    7.1116  -12.6673   19.1480 S   0  0  0  0  0  0  0  0  0  0  0  0
    7.1193  -14.1200   20.2522 C   0  0  0  0  0  0  0  0  0  0  0  0
    8.4186  -14.2530   20.9726 C   0  0  0  0  0  0  0  0  0  0  0  0
    8.5119  -15.4515   21.8484 C   0  0  2  0  0  0  0  0  0  0  0  0
    7.1760  -15.9795   22.1470 N   0  0  0  0  0  0  0  0  0  0  0  0
    9.2631  -15.2398   23.1165 C   0  0  0  0  0  0  0  0  0  0  0  0
   10.4999  -15.0309   23.1489 O   0  0  0  0  0  0  0  0  0  0  0  0
    8.6018  -15.2637   24.3848 N   0  0  0  0  0  0  0  0  0  0  0  0
    9.3024  -15.0391   25.6516 C   0  0  1  0  0  0  0  0  0  0  0  0
    8.6088  -13.9536   26.4347 C   0  0  0  0  0  0  0  0  0  0  0  0
    9.2716  -13.6967   28.0839 S   0  0  0  0  0  0  0  0  0  0  0  0
    9.4530  -16.3197   26.3836 C   0  0  0  0  0  0  0  0  0  0  0  0
    8.4138  -17.0521   26.5614 O   0  0  0  0  0  0  0  0  0  0  0  0
   13.3407  -20.7333   25.6212 N   0  0  0  0  0  0  0  0  0  0  0  0
   12.8238  -21.2023   26.8394 C   0  0  0  0  0  0  0  0  0  0  0  0
   13.1127  -22.3161   27.2973 O   0  0  0  0  0  0  0  0  0  0  0  0
   11.8838  -20.3157   27.6154 C   0  0  0  0  0  0  0  0  0  0  0  0
   11.6889  -19.0209   26.8834 C   0  0  0  0  0  0  0  0  0  0  0  0
   10.7994  -18.0888   27.6020 C   0  0  2  0  0  0  0  0  0  0  0  0
   10.6544  -16.8101   26.9057 N   0  0  0  0  0  0  0  0  0  0  0  0
   11.0475  -17.9162   29.0298 C   0  0  0  0  0  0  0  0  0  0  0  0
   11.3996  -16.8278   29.5051 O   0  0  0  0  0  0  0  0  0  0  0  0
   10.8984  -18.9743   29.9085 O   0  0  0  0  0  0  0  0  0  0  0  0
  2  1  1  0
  2  3  1  0
  4  3  1  0
  5  7  1  0
  5  4  1  0
  5  6  1  1
  7  8  2  0
  9  7  1  0
  9 10  1  0
 10 11  1  1
 11 12  1  0
 13 21  1  0
 13 10  1  0
 14 13  2  0
 16 15  1  0
 17 16  2  0
 18 16  1  0
 20 19  1  6
 19 18  1  0
 20 22  1  0
 20 21  1  0
 22 24  1  0
 23 22  2  0
M  END
$$$$
