MCQ.pdb
     RDKit          3D

 24 23  0  0  1  0  0  0  0  0999 V2000
    7.3304  -11.1624   26.6639 C   0  0  0  0  0  0  0  0  0  0  0  0
    6.0971  -12.1662   25.8263 S   0  0  0  0  0  0  0  0  0  0  0  0
    6.1902  -13.8822   26.4395 C   0  0  0  0  0  0  0  0  0  0  0  0
    6.5794  -14.8302   25.3557 C   0  0  0  0  0  0  0  0  0  0  0  0
    7.7882  -14.4216   24.5914 C   0  0  2  0  0  0  0  0  0  0  0  0
    7.4148  -13.6088   23.4283 N   0  0  0  0  0  0  0  0  0  0  0  0
    8.6615  -15.5470   24.1580 C   0  0  0  0  0  0  0  0  0  0  0  0
    8.9854  -16.4902   24.9195 O   0  0  0  0  0  0  0  0  0  0  0  0
    9.1848  -15.6120   22.8282 N   0  0  0  0  0  0  0  0  0  0  0  0
   10.1081  -16.6603   22.3870 C   0  0  1  0  0  0  0  0  0  0  0  0
    9.9290  -16.9122   20.9114 C   0  0  0  0  0  0  0  0  0  0  0  0
    8.2157  -16.9624   20.3753 S   0  0  0  0  0  0  0  0  0  0  0  0
   11.4947  -16.3173   22.7845 C   0  0  0  0  0  0  0  0  0  0  0  0
   12.2885  -15.8394   21.8961 O   0  0  0  0  0  0  0  0  0  0  0  0
   11.1842  -20.2049   26.0847 N   0  0  0  0  0  0  0  0  0  0  0  0
   11.7617  -19.3368   27.0249 C   0  0  0  0  0  0  0  0  0  0  0  0
   11.4910  -19.3918   28.2321 O   0  0  0  0  0  0  0  0  0  0  0  0
   12.7463  -18.3017   26.5443 C   0  0  0  0  0  0  0  0  0  0  0  0
   12.9867  -18.4758   25.0738 C   0  0  0  0  0  0  0  0  0  0  0  0
   13.2522  -17.1985   24.3850 C   0  0  2  0  0  0  0  0  0  0  0  0
   12.0227  -16.4702   24.0707 N   0  0  0  0  0  0  0  0  0  0  0  0
   14.1732  -17.2435   23.2539 C   0  0  0  0  0  0  0  0  0  0  0  0
   15.2429  -16.6188   23.2569 O   0  0  0  0  0  0  0  0  0  0  0  0
   13.8777  -17.9911   22.1280 O   0  0  0  0  0  0  0  0  0  0  0  0
  2  1  1  0
  2  3  1  0
  4  3  1  0
  5  7  1  0
  5  4  1  0
  5  6  1  6
  7  8  2  0
  9  7  1  0
  9 10  1  0
 10 11  1  6
 11 12  1  0
 13 21  1  0
 13 10  1  0
 14 13  2  0
 16 15  1  0
 17 16  2  0
 18 16  1  0
 20 19  1  6
 19 18  1  0
 20 22  1  0
 20 21  1  0
 22 24  1  0
 23 22  2  0
M  END
$$$$
