MCQ.pdb
     RDKit          3D

 24 23  0  0  1  0  0  0  0  0999 V2000
    5.4911  -19.0893   23.7859 C   0  0  0  0  0  0  0  0  0  0  0  0
    5.7476  -19.0140   22.0087 S   0  0  0  0  0  0  0  0  0  0  0  0
    6.0587  -17.2862   21.5113 C   0  0  0  0  0  0  0  0  0  0  0  0
    6.9180  -16.5774   22.5034 C   0  0  0  0  0  0  0  0  0  0  0  0
    7.1250  -15.1337   22.2115 C   0  0  2  0  0  0  0  0  0  0  0  0
    7.7365  -14.9555   20.8897 N   0  0  0  0  0  0  0  0  0  0  0  0
    7.9181  -14.3985   23.2349 C   0  0  0  0  0  0  0  0  0  0  0  0
    9.1459  -14.1712   23.1113 O   0  0  0  0  0  0  0  0  0  0  0  0
    7.3105  -13.9046   24.4321 N   0  0  0  0  0  0  0  0  0  0  0  0
    8.0856  -13.4680   25.5960 C   0  0  1  0  0  0  0  0  0  0  0  0
    7.2959  -12.4559   26.3866 C   0  0  0  0  0  0  0  0  0  0  0  0
    5.5489  -12.8423   26.5409 S   0  0  0  0  0  0  0  0  0  0  0  0
    8.5307  -14.6444   26.3811 C   0  0  0  0  0  0  0  0  0  0  0  0
    7.6581  -15.5224   26.7212 O   0  0  0  0  0  0  0  0  0  0  0  0
   13.6786  -17.6389   25.7381 N   0  0  0  0  0  0  0  0  0  0  0  0
   12.5700  -17.4851   24.8905 C   0  0  0  0  0  0  0  0  0  0  0  0
   12.6175  -17.7508   23.6818 O   0  0  0  0  0  0  0  0  0  0  0  0
   11.2769  -16.9782   25.4760 C   0  0  0  0  0  0  0  0  0  0  0  0
   11.4529  -16.7179   26.9428 C   0  0  0  0  0  0  0  0  0  0  0  0
   10.2800  -16.0596   27.5491 C   0  0  2  0  0  0  0  0  0  0  0  0
    9.8463  -14.8866   26.7897 N   0  0  0  0  0  0  0  0  0  0  0  0
   10.3447  -15.7973   28.9833 C   0  0  0  0  0  0  0  0  0  0  0  0
   10.7091  -16.6636   29.7902 O   0  0  0  0  0  0  0  0  0  0  0  0
    9.9951  -14.5603   29.4944 O   0  0  0  0  0  0  0  0  0  0  0  0
  2  1  1  0
  2  3  1  0
  4  3  1  0
  5  7  1  0
  5  4  1  0
  5  6  1  6
  7  8  2  0
  9  7  1  0
  9 10  1  0
 10 11  1  1
 11 12  1  0
 13 21  1  0
 13 10  1  0
 14 13  2  0
 16 15  1  0
 17 16  2  0
 18 16  1  0
 20 19  1  6
 19 18  1  0
 20 22  1  0
 20 21  1  0
 22 24  1  0
 23 22  2  0
M  END
$$$$
