MCQ.pdb
     RDKit          3D

 24 23  0  0  1  0  0  0  0  0999 V2000
    9.4813  -12.1000   19.6024 C   0  0  0  0  0  0  0  0  0  0  0  0
    7.7465  -12.0788   20.0717 S   0  0  0  0  0  0  0  0  0  0  0  0
    7.0386  -13.7474   19.8612 C   0  0  0  0  0  0  0  0  0  0  0  0
    8.0603  -14.8088   20.0948 C   0  0  0  0  0  0  0  0  0  0  0  0
    7.8537  -15.5920   21.3422 C   0  0  2  0  0  0  0  0  0  0  0  0
    6.4222  -15.7611   21.6160 N   0  0  0  0  0  0  0  0  0  0  0  0
    8.5329  -15.0379   22.5458 C   0  0  0  0  0  0  0  0  0  0  0  0
    9.7736  -14.8596   22.6063 O   0  0  0  0  0  0  0  0  0  0  0  0
    7.7934  -14.6738   23.7149 N   0  0  0  0  0  0  0  0  0  0  0  0
    8.3977  -14.5990   25.0473 C   0  0  1  0  0  0  0  0  0  0  0  0
    7.4784  -13.8591   25.9855 C   0  0  0  0  0  0  0  0  0  0  0  0
    5.9432  -13.3105   25.2322 S   0  0  0  0  0  0  0  0  0  0  0  0
    8.7801  -15.9550   25.5093 C   0  0  0  0  0  0  0  0  0  0  0  0
    7.9343  -16.9113   25.3755 O   0  0  0  0  0  0  0  0  0  0  0  0
   11.5530  -19.1692   22.6681 N   0  0  0  0  0  0  0  0  0  0  0  0
   12.1235  -19.8886   23.7303 C   0  0  0  0  0  0  0  0  0  0  0  0
   12.6324  -21.0071   23.5759 O   0  0  0  0  0  0  0  0  0  0  0  0
   12.1145  -19.2747   25.1068 C   0  0  0  0  0  0  0  0  0  0  0  0
   11.5177  -17.8998   25.0442 C   0  0  0  0  0  0  0  0  0  0  0  0
   10.5638  -17.6426   26.1398 C   0  0  2  0  0  0  0  0  0  0  0  0
   10.0088  -16.2898   26.0878 N   0  0  0  0  0  0  0  0  0  0  0  0
   10.9951  -18.0125   27.4841 C   0  0  0  0  0  0  0  0  0  0  0  0
   11.3361  -19.1695   27.7658 O   0  0  0  0  0  0  0  0  0  0  0  0
   11.0354  -17.0736   28.4993 O   0  0  0  0  0  0  0  0  0  0  0  0
  2  1  1  0
  2  3  1  0
  4  3  1  0
  5  7  1  0
  5  4  1  0
  5  6  1  1
  7  8  2  0
  9  7  1  0
  9 10  1  0
 10 11  1  1
 11 12  1  0
 13 21  1  0
 13 10  1  0
 14 13  2  0
 16 15  1  0
 17 16  2  0
 18 16  1  0
 20 19  1  6
 19 18  1  0
 20 22  1  0
 20 21  1  0
 22 24  1  0
 23 22  2  0
M  END
$$$$
