MCQ.pdb
     RDKit          3D

 24 23  0  0  1  0  0  0  0  0999 V2000
    8.6623  -11.9702   19.4590 C   0  0  0  0  0  0  0  0  0  0  0  0
    6.9805  -12.5017   19.8047 S   0  0  0  0  0  0  0  0  0  0  0  0
    6.8973  -14.3240   19.7631 C   0  0  0  0  0  0  0  0  0  0  0  0
    8.2573  -14.9350   19.8054 C   0  0  0  0  0  0  0  0  0  0  0  0
    8.4568  -15.9060   20.9143 C   0  0  2  0  0  0  0  0  0  0  0  0
    7.2079  -16.6166   21.2109 N   0  0  0  0  0  0  0  0  0  0  0  0
    9.0093  -15.3181   22.1657 C   0  0  0  0  0  0  0  0  0  0  0  0
   10.1038  -14.7055   22.2053 O   0  0  0  0  0  0  0  0  0  0  0  0
    8.3087  -15.4229   23.4085 N   0  0  0  0  0  0  0  0  0  0  0  0
    8.8259  -14.8694   24.6624 C   0  0  1  0  0  0  0  0  0  0  0  0
    7.7862  -13.9810   25.2970 C   0  0  0  0  0  0  0  0  0  0  0  0
    6.3245  -14.8519   25.8715 S   0  0  0  0  0  0  0  0  0  0  0  0
    9.3129  -15.9622   25.5382 C   0  0  0  0  0  0  0  0  0  0  0  0
    8.5647  -16.9908   25.7115 O   0  0  0  0  0  0  0  0  0  0  0  0
    9.0672  -14.5267   28.3286 N   0  0  0  0  0  0  0  0  0  0  0  0
   10.2802  -14.4013   29.0245 C   0  0  0  0  0  0  0  0  0  0  0  0
   10.6443  -13.3335   29.5352 O   0  0  0  0  0  0  0  0  0  0  0  0
   11.1689  -15.6120   29.1526 C   0  0  0  0  0  0  0  0  0  0  0  0
   10.5123  -16.7932   28.5016 C   0  0  0  0  0  0  0  0  0  0  0  0
   10.9857  -17.0196   27.1228 C   0  0  2  0  0  0  0  0  0  0  0  0
   10.5431  -15.9706   26.2036 N   0  0  0  0  0  0  0  0  0  0  0  0
   10.7867  -18.3568   26.5732 C   0  0  0  0  0  0  0  0  0  0  0  0
   10.1529  -18.5452   25.5257 O   0  0  0  0  0  0  0  0  0  0  0  0
   11.3028  -19.4701   27.2120 O   0  0  0  0  0  0  0  0  0  0  0  0
  2  1  1  0
  2  3  1  0
  4  3  1  0
  5  7  1  0
  5  4  1  0
  5  6  1  1
  7  8  2  0
  9  7  1  0
  9 10  1  0
 10 11  1  1
 11 12  1  0
 13 21  1  0
 13 10  1  0
 14 13  2  0
 16 15  1  0
 17 16  2  0
 18 16  1  0
 20 19  1  1
 19 18  1  0
 20 22  1  0
 20 21  1  0
 22 24  1  0
 23 22  2  0
M  END
$$$$
