KTD.pdb
     RDKit          3D

 25 24  0  0  1  0  0  0  0  0999 V2000
   28.3292  -29.4137  -16.4866 N   0  0  0  0  0  0  0  0  0  0  0  0
   27.5674  -28.3614  -17.0521 C   0  0  1  0  0  0  0  0  0  0  0  0
   26.0721  -28.5739  -17.0074 C   0  0  0  0  0  0  0  0  0  0  0  0
   25.5922  -29.9356  -17.2891 C   0  0  0  0  0  0  0  0  0  0  0  0
   25.0915  -30.7675  -16.1725 C   0  0  0  0  0  0  0  0  0  0  0  0
   24.5912  -32.1349  -16.5727 C   0  0  0  0  0  0  0  0  0  0  0  0
   24.0875  -32.9287  -15.4925 N   0  0  0  0  0  0  0  0  0  0  0  0
   27.9366  -26.9928  -16.6232 C   0  0  0  0  0  0  0  0  0  0  0  0
   28.2993  -26.8228  -15.4235 O   0  0  0  0  0  0  0  0  0  0  0  0
   30.7710  -25.1920  -17.3222 C   0  0  0  0  0  0  0  0  0  0  0  0
   29.6452  -24.3007  -17.7301 C   0  0  1  0  0  0  0  0  0  0  0  0
   29.4885  -24.4573  -19.1229 O   0  0  0  0  0  0  0  0  0  0  0  0
   28.3405  -24.5533  -17.0597 C   0  0  2  0  0  0  0  0  0  0  0  0
   27.9014  -25.8930  -17.4716 N   0  0  0  0  0  0  0  0  0  0  0  0
   27.3455  -23.5418  -17.4742 C   0  0  0  0  0  0  0  0  0  0  0  0
   26.3791  -23.8339  -18.2553 O   0  0  0  0  0  0  0  0  0  0  0  0
   27.3936  -22.2028  -17.0383 N   0  0  0  0  0  0  0  0  0  0  0  0
   26.3885  -21.2225  -17.4314 C   0  0  1  0  0  0  0  0  0  0  0  0
   26.5462  -19.9647  -16.5495 C   0  0  0  0  0  0  0  0  0  0  0  0
   27.7809  -19.2453  -16.8878 C   0  0  0  0  0  0  0  0  0  0  0  0
   27.8294  -18.0016  -16.7238 O   0  0  0  0  0  0  0  0  0  0  0  0
   26.4906  -20.8208  -18.8259 C   0  0  0  0  0  0  0  0  0  0  0  0
   27.5619  -20.9978  -19.4566 O   0  0  0  0  0  0  0  0  0  0  0  0
   28.8752  -19.9171  -17.3801 O   0  0  0  0  0  0  0  0  0  0  0  0
   25.4272  -20.2402  -19.4918 O   0  0  0  0  0  0  0  0  0  0  0  0
  2  1  1  1
  3  4  1  0
  3  2  1  0
  5  6  1  0
  5  4  1  0
  6  7  1  0
  8  2  1  0
  8  9  2  0
 11 10  1  1
 11 13  1  0
 12 11  1  0
 13 14  1  6
 14  8  1  0
 15 13  1  0
 16 15  2  0
 17 15  1  0
 18 22  1  0
 18 17  1  0
 18 19  1  1
 20 19  1  0
 21 20  2  0
 22 25  1  0
 23 22  2  0
 24 20  1  0
M  END
$$$$
