KTD.pdb
     RDKit          3D

 25 24  0  0  1  0  0  0  0  0999 V2000
   16.0402  -26.1688   -5.0003 N   0  0  0  0  0  0  0  0  0  0  0  0
   17.1368  -25.7104   -5.7715 C   0  0  1  0  0  0  0  0  0  0  0  0
   18.4702  -26.3062   -5.3840 C   0  0  0  0  0  0  0  0  0  0  0  0
   18.7750  -26.3579   -3.9458 C   0  0  0  0  0  0  0  0  0  0  0  0
   18.0107  -27.2839   -3.0811 C   0  0  0  0  0  0  0  0  0  0  0  0
   18.3928  -27.2515   -1.6205 C   0  0  0  0  0  0  0  0  0  0  0  0
   19.7904  -27.4269   -1.3624 N   0  0  0  0  0  0  0  0  0  0  0  0
   16.9428  -25.7171   -7.2397 C   0  0  0  0  0  0  0  0  0  0  0  0
   16.2282  -26.6323   -7.7413 O   0  0  0  0  0  0  0  0  0  0  0  0
   14.8150  -25.4249   -9.1730 C   0  0  0  0  0  0  0  0  0  0  0  0
   15.7681  -24.3834   -9.6580 C   0  0  1  0  0  0  0  0  0  0  0  0
   15.4913  -23.2091   -8.9278 O   0  0  0  0  0  0  0  0  0  0  0  0
   17.2136  -24.7127   -9.5250 C   0  0  2  0  0  0  0  0  0  0  0  0
   17.5073  -24.7717   -8.0872 N   0  0  0  0  0  0  0  0  0  0  0  0
   18.0394  -23.6705  -10.1708 C   0  0  0  0  0  0  0  0  0  0  0  0
   18.3310  -22.5812   -9.5727 O   0  0  0  0  0  0  0  0  0  0  0  0
   18.5575  -23.8081  -11.4739 N   0  0  0  0  0  0  0  0  0  0  0  0
   19.3466  -22.7598  -12.1095 C   0  0  1  0  0  0  0  0  0  0  0  0
   19.9442  -23.3114  -13.4221 C   0  0  0  0  0  0  0  0  0  0  0  0
   20.8300  -22.3199  -14.0460 C   0  0  0  0  0  0  0  0  0  0  0  0
   21.0001  -21.2108  -13.4832 O   0  0  0  0  0  0  0  0  0  0  0  0
   18.5741  -21.5674  -12.4226 C   0  0  0  0  0  0  0  0  0  0  0  0
   17.4095  -21.6724  -12.8803 O   0  0  0  0  0  0  0  0  0  0  0  0
   21.4683  -22.5938  -15.2330 O   0  0  0  0  0  0  0  0  0  0  0  0
   19.0895  -20.2994  -12.2286 O   0  0  0  0  0  0  0  0  0  0  0  0
  2  1  1  1
  3  4  1  0
  3  2  1  0
  5  6  1  0
  5  4  1  0
  6  7  1  0
  8  2  1  0
  8  9  2  0
 11 10  1  1
 11 13  1  0
 12 11  1  0
 13 14  1  1
 14  8  1  0
 15 13  1  0
 16 15  2  0
 17 15  1  0
 18 22  1  0
 18 17  1  0
 18 19  1  6
 20 19  1  0
 21 20  2  0
 22 25  1  0
 23 22  2  0
 24 20  1  0
M  END
$$$$
