KTD.pdb
     RDKit          3D

 25 24  0  0  1  0  0  0  0  0999 V2000
   22.1670  -13.5820  -17.6188 N   0  0  0  0  0  0  0  0  0  0  0  0
   21.3570  -12.4196  -17.6302 C   0  0  1  0  0  0  0  0  0  0  0  0
   19.8914  -12.6776  -17.8915 C   0  0  0  0  0  0  0  0  0  0  0  0
   19.5723  -13.7312  -18.8672 C   0  0  0  0  0  0  0  0  0  0  0  0
   18.1574  -13.9786  -19.2223 C   0  0  0  0  0  0  0  0  0  0  0  0
   17.9459  -14.9815  -20.3312 C   0  0  0  0  0  0  0  0  0  0  0  0
   16.5837  -15.1413  -20.7432 N   0  0  0  0  0  0  0  0  0  0  0  0
   21.5526  -11.4838  -16.4992 C   0  0  0  0  0  0  0  0  0  0  0  0
   21.0496  -11.7899  -15.3798 O   0  0  0  0  0  0  0  0  0  0  0  0
   24.5594  -10.8032  -14.8808 C   0  0  0  0  0  0  0  0  0  0  0  0
   23.9973   -9.4628  -15.2213 C   0  0  1  0  0  0  0  0  0  0  0  0
   24.6715   -9.0230  -16.3793 O   0  0  0  0  0  0  0  0  0  0  0  0
   22.5293   -9.4159  -15.4625 C   0  0  2  0  0  0  0  0  0  0  0  0
   22.2571  -10.2913  -16.6100 N   0  0  0  0  0  0  0  0  0  0  0  0
   22.1023   -8.0333  -15.7646 C   0  0  0  0  0  0  0  0  0  0  0  0
   22.0890   -7.5824  -16.9587 O   0  0  0  0  0  0  0  0  0  0  0  0
   21.6829   -7.1305  -14.7674 N   0  0  0  0  0  0  0  0  0  0  0  0
   21.3157   -5.7530  -15.0729 C   0  0  1  0  0  0  0  0  0  0  0  0
   19.8634   -5.5089  -14.6085 C   0  0  0  0  0  0  0  0  0  0  0  0
   19.4556   -4.1255  -14.8854 C   0  0  0  0  0  0  0  0  0  0  0  0
   19.1658   -3.7964  -16.0616 O   0  0  0  0  0  0  0  0  0  0  0  0
   22.1746   -4.7717  -14.4283 C   0  0  0  0  0  0  0  0  0  0  0  0
   22.8017   -5.0722  -13.3827 O   0  0  0  0  0  0  0  0  0  0  0  0
   19.3905   -3.1948  -13.8750 O   0  0  0  0  0  0  0  0  0  0  0  0
   22.3262   -3.4959  -14.9387 O   0  0  0  0  0  0  0  0  0  0  0  0
  2  1  1  1
  3  4  1  0
  3  2  1  0
  5  6  1  0
  5  4  1  0
  6  7  1  0
  8  2  1  0
  8  9  2  0
 11 10  1  6
 11 13  1  0
 12 11  1  0
 13 14  1  6
 14  8  1  0
 15 13  1  0
 16 15  2  0
 17 15  1  0
 18 22  1  0
 18 17  1  0
 18 19  1  1
 20 19  1  0
 21 20  2  0
 22 25  1  0
 23 22  2  0
 24 20  1  0
M  END
$$$$
