KTD.pdb
     RDKit          3D

 25 24  0  0  1  0  0  0  0  0999 V2000
   19.8813  -15.4937  -18.0185 N   0  0  0  0  0  0  0  0  0  0  0  0
   19.4214  -14.1543  -18.0613 C   0  0  1  0  0  0  0  0  0  0  0  0
   17.9321  -13.9947  -17.8625 C   0  0  0  0  0  0  0  0  0  0  0  0
   17.1287  -15.2266  -17.8906 C   0  0  0  0  0  0  0  0  0  0  0  0
   16.1564  -15.4766  -16.8036 C   0  0  0  0  0  0  0  0  0  0  0  0
   15.2939  -16.7018  -16.9911 C   0  0  0  0  0  0  0  0  0  0  0  0
   14.4054  -16.9815  -15.9034 N   0  0  0  0  0  0  0  0  0  0  0  0
   20.1872  -13.1813  -17.2488 C   0  0  0  0  0  0  0  0  0  0  0  0
   20.5970  -13.5489  -16.1100 O   0  0  0  0  0  0  0  0  0  0  0  0
   23.1744  -11.2134  -18.5424 C   0  0  0  0  0  0  0  0  0  0  0  0
   22.2306  -10.2997  -17.8334 C   0  0  1  0  0  0  0  0  0  0  0  0
   21.4991   -9.6203  -18.8294 O   0  0  0  0  0  0  0  0  0  0  0  0
   21.2824  -10.9507  -16.8885 C   0  0  2  0  0  0  0  0  0  0  0  0
   20.4732  -11.8903  -17.6756 N   0  0  0  0  0  0  0  0  0  0  0  0
   20.4127   -9.9376  -16.2542 C   0  0  0  0  0  0  0  0  0  0  0  0
   19.1587   -9.8904  -16.4883 O   0  0  0  0  0  0  0  0  0  0  0  0
   20.9020   -8.9684  -15.3561 N   0  0  0  0  0  0  0  0  0  0  0  0
   20.0162   -8.0661  -14.6303 C   0  0  1  0  0  0  0  0  0  0  0  0
   19.0836   -8.9020  -13.7268 C   0  0  0  0  0  0  0  0  0  0  0  0
   18.2366   -8.0277  -12.9052 C   0  0  0  0  0  0  0  0  0  0  0  0
   17.6076   -7.0912  -13.4558 O   0  0  0  0  0  0  0  0  0  0  0  0
   20.7267   -7.1094  -13.7959 C   0  0  0  0  0  0  0  0  0  0  0  0
   20.1176   -6.1292  -13.3011 O   0  0  0  0  0  0  0  0  0  0  0  0
   18.1288   -8.2241  -11.5483 O   0  0  0  0  0  0  0  0  0  0  0  0
   22.0753   -7.2470  -13.5245 O   0  0  0  0  0  0  0  0  0  0  0  0
  2  1  1  1
  3  4  1  0
  3  2  1  0
  5  6  1  0
  5  4  1  0
  6  7  1  0
  8  2  1  0
  8  9  2  0
 11 10  1  6
 11 13  1  0
 12 11  1  0
 13 14  1  6
 14  8  1  0
 15 13  1  0
 16 15  2  0
 17 15  1  0
 18 22  1  0
 18 17  1  0
 18 19  1  1
 20 19  1  0
 21 20  2  0
 22 25  1  0
 23 22  2  0
 24 20  1  0
M  END
$$$$
