KTD.pdb
     RDKit          3D

 25 24  0  0  1  0  0  0  0  0999 V2000
   23.9952  -11.0166  -17.0569 N   0  0  0  0  0  0  0  0  0  0  0  0
   23.4788  -10.8324  -18.3634 C   0  0  1  0  0  0  0  0  0  0  0  0
   23.0056  -12.0998  -19.0364 C   0  0  0  0  0  0  0  0  0  0  0  0
   23.7591  -13.3264  -18.7338 C   0  0  0  0  0  0  0  0  0  0  0  0
   23.3822  -14.5877  -19.4095 C   0  0  0  0  0  0  0  0  0  0  0  0
   24.2677  -15.7687  -19.0916 C   0  0  0  0  0  0  0  0  0  0  0  0
   23.8615  -17.0022  -19.6953 N   0  0  0  0  0  0  0  0  0  0  0  0
   22.5001   -9.7324  -18.5229 C   0  0  0  0  0  0  0  0  0  0  0  0
   22.0640   -9.4877  -19.6847 O   0  0  0  0  0  0  0  0  0  0  0  0
   19.1097   -9.4311  -17.9015 C   0  0  0  0  0  0  0  0  0  0  0  0
   19.7728   -8.3579  -17.1035 C   0  0  1  0  0  0  0  0  0  0  0  0
   19.9634   -8.8767  -15.8061 O   0  0  0  0  0  0  0  0  0  0  0  0
   21.0756   -7.8672  -17.6304 C   0  0  2  0  0  0  0  0  0  0  0  0
   22.0426   -8.9599  -17.4625 N   0  0  0  0  0  0  0  0  0  0  0  0
   21.5185   -6.6754  -16.8764 C   0  0  0  0  0  0  0  0  0  0  0  0
   22.3029   -6.7705  -15.8738 O   0  0  0  0  0  0  0  0  0  0  0  0
   21.1124   -5.3682  -17.2108 N   0  0  0  0  0  0  0  0  0  0  0  0
   21.5896   -4.1979  -16.4839 C   0  0  1  0  0  0  0  0  0  0  0  0
   21.3755   -2.9445  -17.3601 C   0  0  0  0  0  0  0  0  0  0  0  0
   21.7838   -1.7317  -16.6396 C   0  0  0  0  0  0  0  0  0  0  0  0
   22.5658   -1.8338  -15.6630 O   0  0  0  0  0  0  0  0  0  0  0  0
   20.9095   -3.9918  -15.2145 C   0  0  0  0  0  0  0  0  0  0  0  0
   21.2514   -3.0467  -14.4617 O   0  0  0  0  0  0  0  0  0  0  0  0
   21.3189   -0.4952  -17.0221 O   0  0  0  0  0  0  0  0  0  0  0  0
   19.8800   -4.8174  -14.8024 O   0  0  0  0  0  0  0  0  0  0  0  0
  2  1  1  1
  3  4  1  0
  3  2  1  0
  5  6  1  0
  5  4  1  0
  6  7  1  0
  8  2  1  0
  8  9  2  0
 11 10  1  6
 11 13  1  0
 12 11  1  0
 13 14  1  1
 14  8  1  0
 15 13  1  0
 16 15  2  0
 17 15  1  0
 18 22  1  0
 18 17  1  0
 18 19  1  6
 20 19  1  0
 21 20  2  0
 22 25  1  0
 23 22  2  0
 24 20  1  0
M  END
$$$$
