KTD.pdb
     RDKit          3D

 25 24  0  0  1  0  0  0  0  0999 V2000
   21.1243  -13.6066  -17.7189 N   0  0  0  0  0  0  0  0  0  0  0  0
   20.7154  -12.2802  -18.0030 C   0  0  1  0  0  0  0  0  0  0  0  0
   19.2195  -12.0678  -17.9919 C   0  0  0  0  0  0  0  0  0  0  0  0
   18.3930  -13.2269  -17.6215 C   0  0  0  0  0  0  0  0  0  0  0  0
   17.8804  -13.3323  -16.2374 C   0  0  0  0  0  0  0  0  0  0  0  0
   17.0089  -14.5366  -15.9720 C   0  0  0  0  0  0  0  0  0  0  0  0
   17.7192  -15.7729  -15.8389 N   0  0  0  0  0  0  0  0  0  0  0  0
   21.4231  -11.2121  -17.2602 C   0  0  0  0  0  0  0  0  0  0  0  0
   21.8963  -11.4926  -16.1212 O   0  0  0  0  0  0  0  0  0  0  0  0
   24.0599   -8.9542  -18.9434 C   0  0  0  0  0  0  0  0  0  0  0  0
   23.1278   -8.1476  -18.1014 C   0  0  1  0  0  0  0  0  0  0  0  0
   22.2092   -7.5398  -18.9820 O   0  0  0  0  0  0  0  0  0  0  0  0
   22.3799   -8.8995  -17.0570 C   0  0  2  0  0  0  0  0  0  0  0  0
   21.5889   -9.9233  -17.7522 N   0  0  0  0  0  0  0  0  0  0  0  0
   21.4881   -7.9890  -16.3081 C   0  0  0  0  0  0  0  0  0  0  0  0
   20.2198   -8.0304  -16.4461 O   0  0  0  0  0  0  0  0  0  0  0  0
   21.9712   -7.0268  -15.3991 N   0  0  0  0  0  0  0  0  0  0  0  0
   21.0900   -6.3169  -14.4798 C   0  0  1  0  0  0  0  0  0  0  0  0
   20.4442   -7.3384  -13.5185 C   0  0  0  0  0  0  0  0  0  0  0  0
   19.6646   -6.6527  -12.4799 C   0  0  0  0  0  0  0  0  0  0  0  0
   19.1105   -5.5595  -12.7518 O   0  0  0  0  0  0  0  0  0  0  0  0
   21.7770   -5.3103  -13.6855 C   0  0  0  0  0  0  0  0  0  0  0  0
   21.1180   -4.4664  -13.0295 O   0  0  0  0  0  0  0  0  0  0  0  0
   19.5388   -7.1931  -11.2216 O   0  0  0  0  0  0  0  0  0  0  0  0
   23.1570   -5.2515  -13.6278 O   0  0  0  0  0  0  0  0  0  0  0  0
  2  1  1  1
  3  4  1  0
  3  2  1  0
  5  6  1  0
  5  4  1  0
  6  7  1  0
  8  2  1  0
  8  9  2  0
 11 10  1  6
 11 13  1  0
 12 11  1  0
 13 14  1  6
 14  8  1  0
 15 13  1  0
 16 15  2  0
 17 15  1  0
 18 22  1  0
 18 17  1  0
 18 19  1  1
 20 19  1  0
 21 20  2  0
 22 25  1  0
 23 22  2  0
 24 20  1  0
M  END
$$$$
