KTD.pdb
     RDKit          3D

 25 24  0  0  1  0  0  0  0  0999 V2000
   14.7412  -12.7105  -14.7714 N   0  0  0  0  0  0  0  0  0  0  0  0
   15.0825  -11.3354  -14.7593 C   0  0  1  0  0  0  0  0  0  0  0  0
   14.3568  -10.5171  -13.7169 C   0  0  0  0  0  0  0  0  0  0  0  0
   12.9021  -10.7138  -13.6213 C   0  0  0  0  0  0  0  0  0  0  0  0
   12.1580  -10.0589  -12.5228 C   0  0  0  0  0  0  0  0  0  0  0  0
   10.7091  -10.4673  -12.4040 C   0  0  0  0  0  0  0  0  0  0  0  0
   10.0343   -9.9542  -11.2498 N   0  0  0  0  0  0  0  0  0  0  0  0
   16.5311  -11.0283  -14.7819 C   0  0  0  0  0  0  0  0  0  0  0  0
   17.2934  -11.6984  -14.0271 O   0  0  0  0  0  0  0  0  0  0  0  0
   18.7489  -11.1846  -17.7815 C   0  0  0  0  0  0  0  0  0  0  0  0
   18.8963   -9.8560  -17.1173 C   0  0  1  0  0  0  0  0  0  0  0  0
   18.0793   -8.9539  -17.8296 O   0  0  0  0  0  0  0  0  0  0  0  0
   18.5357   -9.8074  -15.6740 C   0  0  2  0  0  0  0  0  0  0  0  0
   17.0886  -10.0430  -15.5875 N   0  0  0  0  0  0  0  0  0  0  0  0
   18.8710   -8.4849  -15.1050 C   0  0  0  0  0  0  0  0  0  0  0  0
   17.9805   -7.5882  -14.9247 O   0  0  0  0  0  0  0  0  0  0  0  0
   20.1801   -8.1292  -14.7244 N   0  0  0  0  0  0  0  0  0  0  0  0
   20.4983   -6.8173  -14.1735 C   0  0  1  0  0  0  0  0  0  0  0  0
   21.9130   -6.8648  -13.5562 C   0  0  0  0  0  0  0  0  0  0  0  0
   22.2664   -5.5665  -12.9679 C   0  0  0  0  0  0  0  0  0  0  0  0
   21.9151   -5.3121  -11.7899 O   0  0  0  0  0  0  0  0  0  0  0  0
   20.4660   -5.7533  -15.1651 C   0  0  0  0  0  0  0  0  0  0  0  0
   20.8102   -5.9847  -16.3503 O   0  0  0  0  0  0  0  0  0  0  0  0
   22.9721   -4.6340  -13.6916 O   0  0  0  0  0  0  0  0  0  0  0  0
   20.0607   -4.4723  -14.8394 O   0  0  0  0  0  0  0  0  0  0  0  0
  2  1  1  1
  3  4  1  0
  3  2  1  0
  5  6  1  0
  5  4  1  0
  6  7  1  0
  8  2  1  0
  8  9  2  0
 11 10  1  6
 11 13  1  0
 12 11  1  0
 13 14  1  6
 14  8  1  0
 15 13  1  0
 16 15  2  0
 17 15  1  0
 18 22  1  0
 18 17  1  0
 18 19  1  6
 20 19  1  0
 21 20  2  0
 22 25  1  0
 23 22  2  0
 24 20  1  0
M  END
$$$$
