KTD.pdb
     RDKit          3D

 25 24  0  0  1  0  0  0  0  0999 V2000
   13.7917  -13.1058  -16.9246 N   0  0  0  0  0  0  0  0  0  0  0  0
   15.0084  -12.6485  -16.3608 C   0  0  1  0  0  0  0  0  0  0  0  0
   16.1720  -13.5987  -16.5223 C   0  0  0  0  0  0  0  0  0  0  0  0
   15.9362  -14.9991  -16.1389 C   0  0  0  0  0  0  0  0  0  0  0  0
   16.3365  -15.4527  -14.7885 C   0  0  0  0  0  0  0  0  0  0  0  0
   16.1275  -16.9246  -14.5241 C   0  0  0  0  0  0  0  0  0  0  0  0
   16.4806  -17.3525  -13.2039 N   0  0  0  0  0  0  0  0  0  0  0  0
   15.3914  -11.2565  -16.6910 C   0  0  0  0  0  0  0  0  0  0  0  0
   15.4871  -10.9393  -17.9117 O   0  0  0  0  0  0  0  0  0  0  0  0
   13.5263   -8.3137  -16.1950 C   0  0  0  0  0  0  0  0  0  0  0  0
   14.8574   -8.0553  -15.5707 C   0  0  1  0  0  0  0  0  0  0  0  0
   14.7007   -8.2577  -14.1839 O   0  0  0  0  0  0  0  0  0  0  0  0
   15.9810   -8.8977  -16.0640 C   0  0  2  0  0  0  0  0  0  0  0  0
   15.6509  -10.2889  -15.7282 N   0  0  0  0  0  0  0  0  0  0  0  0
   17.2456   -8.5023  -15.4086 C   0  0  0  0  0  0  0  0  0  0  0  0
   17.7978   -9.2354  -14.5214 O   0  0  0  0  0  0  0  0  0  0  0  0
   17.9214   -7.3050  -15.7169 N   0  0  0  0  0  0  0  0  0  0  0  0
   19.1855   -6.9434  -15.0867 C   0  0  1  0  0  0  0  0  0  0  0  0
   20.2389   -8.0200  -15.4274 C   0  0  0  0  0  0  0  0  0  0  0  0
   21.5538   -7.6479  -14.8898 C   0  0  0  0  0  0  0  0  0  0  0  0
   21.6304   -7.1830  -13.7262 O   0  0  0  0  0  0  0  0  0  0  0  0
   19.6947   -5.6507  -15.5179 C   0  0  0  0  0  0  0  0  0  0  0  0
   19.3762   -5.1901  -16.6418 O   0  0  0  0  0  0  0  0  0  0  0  0
   22.6928   -7.8020  -15.6450 O   0  0  0  0  0  0  0  0  0  0  0  0
   20.5328   -4.8987  -14.7158 O   0  0  0  0  0  0  0  0  0  0  0  0
  2  1  1  6
  3  4  1  0
  3  2  1  0
  5  6  1  0
  5  4  1  0
  6  7  1  0
  8  2  1  0
  8  9  2  0
 11 10  1  6
 11 13  1  0
 12 11  1  0
 13 14  1  1
 14  8  1  0
 15 13  1  0
 16 15  2  0
 17 15  1  0
 18 22  1  0
 18 17  1  0
 18 19  1  6
 20 19  1  0
 21 20  2  0
 22 25  1  0
 23 22  2  0
 24 20  1  0
M  END
$$$$
