KTD.pdb
     RDKit          3D

 25 24  0  0  1  0  0  0  0  0999 V2000
   29.0746  -20.8150  -15.5960 N   0  0  0  0  0  0  0  0  0  0  0  0
   28.1462  -20.1321  -14.7719 C   0  0  1  0  0  0  0  0  0  0  0  0
   27.7339  -18.7716  -15.2837 C   0  0  0  0  0  0  0  0  0  0  0  0
   27.5683  -18.6383  -16.7393 C   0  0  0  0  0  0  0  0  0  0  0  0
   26.2028  -18.6082  -17.3084 C   0  0  0  0  0  0  0  0  0  0  0  0
   26.1431  -18.4742  -18.8113 C   0  0  0  0  0  0  0  0  0  0  0  0
   24.8208  -18.3751  -19.3522 N   0  0  0  0  0  0  0  0  0  0  0  0
   26.9773  -20.9225  -14.3219 C   0  0  0  0  0  0  0  0  0  0  0  0
   26.7637  -22.0383  -14.8779 O   0  0  0  0  0  0  0  0  0  0  0  0
   26.1718  -21.4744  -10.5983 C   0  0  0  0  0  0  0  0  0  0  0  0
   24.9348  -21.1225  -11.3562 C   0  0  1  0  0  0  0  0  0  0  0  0
   24.6636  -19.7660  -11.0820 O   0  0  0  0  0  0  0  0  0  0  0  0
   24.9973  -21.3206  -12.8301 C   0  0  2  0  0  0  0  0  0  0  0  0
   26.1084  -20.4971  -13.3246 N   0  0  0  0  0  0  0  0  0  0  0  0
   23.7292  -20.8954  -13.4596 C   0  0  0  0  0  0  0  0  0  0  0  0
   23.5474  -19.6955  -13.8555 O   0  0  0  0  0  0  0  0  0  0  0  0
   22.6486  -21.7758  -13.6662 N   0  0  0  0  0  0  0  0  0  0  0  0
   21.3740  -21.3247  -14.2116 C   0  0  1  0  0  0  0  0  0  0  0  0
   20.5963  -22.5492  -14.7412 C   0  0  0  0  0  0  0  0  0  0  0  0
   19.3533  -22.1290  -15.4007 C   0  0  0  0  0  0  0  0  0  0  0  0
   19.1170  -20.9038  -15.5382 O   0  0  0  0  0  0  0  0  0  0  0  0
   20.5407  -20.6388  -13.2361 C   0  0  0  0  0  0  0  0  0  0  0  0
   20.5280  -21.0185  -12.0392 O   0  0  0  0  0  0  0  0  0  0  0  0
   18.4526  -23.0592  -15.8640 O   0  0  0  0  0  0  0  0  0  0  0  0
   19.7483  -19.5627  -13.5900 O   0  0  0  0  0  0  0  0  0  0  0  0
  2  1  1  6
  3  4  1  0
  3  2  1  0
  5  6  1  0
  5  4  1  0
  6  7  1  0
  8  2  1  0
  8  9  2  0
 11 10  1  1
 11 13  1  0
 12 11  1  0
 13 14  1  6
 14  8  1  0
 15 13  1  0
 16 15  2  0
 17 15  1  0
 18 22  1  0
 18 17  1  0
 18 19  1  1
 20 19  1  0
 21 20  2  0
 22 25  1  0
 23 22  2  0
 24 20  1  0
M  END
$$$$
