KTD.pdb
     RDKit          3D

 25 24  0  0  1  0  0  0  0  0999 V2000
   25.7695  -21.8879  -11.0230 N   0  0  0  0  0  0  0  0  0  0  0  0
   24.8146  -21.3100  -11.8957 C   0  0  1  0  0  0  0  0  0  0  0  0
   23.5343  -20.8710  -11.2242 C   0  0  0  0  0  0  0  0  0  0  0  0
   22.2833  -21.4203  -11.7692 C   0  0  0  0  0  0  0  0  0  0  0  0
   22.3480  -22.5572  -12.7141 C   0  0  0  0  0  0  0  0  0  0  0  0
   21.0094  -23.0476  -13.2117 C   0  0  0  0  0  0  0  0  0  0  0  0
   21.0693  -24.2093  -14.0469 N   0  0  0  0  0  0  0  0  0  0  0  0
   25.3278  -20.2740  -12.8212 C   0  0  0  0  0  0  0  0  0  0  0  0
   25.7926  -19.2084  -12.3229 O   0  0  0  0  0  0  0  0  0  0  0  0
   28.1829  -20.1257  -14.7932 C   0  0  0  0  0  0  0  0  0  0  0  0
   27.0528  -19.8671  -15.7337 C   0  0  1  0  0  0  0  0  0  0  0  0
   26.7915  -21.0837  -16.3974 O   0  0  0  0  0  0  0  0  0  0  0  0
   25.7945  -19.3670  -15.1157 C   0  0  2  0  0  0  0  0  0  0  0  0
   25.3208  -20.4161  -14.2034 N   0  0  0  0  0  0  0  0  0  0  0  0
   24.7800  -19.1028  -16.1579 C   0  0  0  0  0  0  0  0  0  0  0  0
   23.9348  -19.9921  -16.5105 O   0  0  0  0  0  0  0  0  0  0  0  0
   24.6759  -17.8651  -16.8231 N   0  0  0  0  0  0  0  0  0  0  0  0
   23.7737  -17.6641  -17.9507 C   0  0  1  0  0  0  0  0  0  0  0  0
   23.7112  -16.1561  -18.2771 C   0  0  0  0  0  0  0  0  0  0  0  0
   23.0539  -15.4169  -17.1916 C   0  0  0  0  0  0  0  0  0  0  0  0
   22.2841  -16.0298  -16.4120 O   0  0  0  0  0  0  0  0  0  0  0  0
   24.1843  -18.3766  -19.1507 C   0  0  0  0  0  0  0  0  0  0  0  0
   23.4125  -18.4454  -20.1388 O   0  0  0  0  0  0  0  0  0  0  0  0
   23.2719  -14.0694  -17.0243 O   0  0  0  0  0  0  0  0  0  0  0  0
   25.4193  -18.9913  -19.2407 O   0  0  0  0  0  0  0  0  0  0  0  0
  2  1  1  1
  3  4  1  0
  3  2  1  0
  5  6  1  0
  5  4  1  0
  6  7  1  0
  8  2  1  0
  8  9  2  0
 11 10  1  1
 11 13  1  0
 12 11  1  0
 13 14  1  1
 14  8  1  0
 15 13  1  0
 16 15  2  0
 17 15  1  0
 18 22  1  0
 18 17  1  0
 18 19  1  6
 20 19  1  0
 21 20  2  0
 22 25  1  0
 23 22  2  0
 24 20  1  0
M  END
$$$$
