KTD.pdb
     RDKit          3D

 25 24  0  0  1  0  0  0  0  0999 V2000
   21.8276  -15.6157  -17.2060 N   0  0  0  0  0  0  0  0  0  0  0  0
   21.3663  -15.4321  -15.8790 C   0  0  1  0  0  0  0  0  0  0  0  0
   21.6492  -16.5894  -14.9497 C   0  0  0  0  0  0  0  0  0  0  0  0
   21.2932  -17.9297  -15.4405 C   0  0  0  0  0  0  0  0  0  0  0  0
   19.8694  -18.3316  -15.4671 C   0  0  0  0  0  0  0  0  0  0  0  0
   19.6196  -19.7601  -15.8879 C   0  0  0  0  0  0  0  0  0  0  0  0
   20.3466  -20.7412  -15.1397 N   0  0  0  0  0  0  0  0  0  0  0  0
   21.7029  -14.1338  -15.2510 C   0  0  0  0  0  0  0  0  0  0  0  0
   21.3591  -13.9477  -14.0482 O   0  0  0  0  0  0  0  0  0  0  0  0
   25.1463  -12.5636  -14.9872 C   0  0  0  0  0  0  0  0  0  0  0  0
   24.1749  -11.6029  -15.5887 C   0  0  1  0  0  0  0  0  0  0  0  0
   24.3603  -11.6604  -16.9855 O   0  0  0  0  0  0  0  0  0  0  0  0
   22.7405  -11.8474  -15.2752 C   0  0  2  0  0  0  0  0  0  0  0  0
   22.3733  -13.1158  -15.9181 N   0  0  0  0  0  0  0  0  0  0  0  0
   21.9048  -10.7484  -15.8034 C   0  0  0  0  0  0  0  0  0  0  0  0
   21.3495  -10.8213  -16.9505 O   0  0  0  0  0  0  0  0  0  0  0  0
   21.6643   -9.5609  -15.0841 N   0  0  0  0  0  0  0  0  0  0  0  0
   20.7908   -8.5098  -15.5920 C   0  0  1  0  0  0  0  0  0  0  0  0
   20.2851   -7.6636  -14.4034 C   0  0  0  0  0  0  0  0  0  0  0  0
   19.3592   -8.4409  -13.5697 C   0  0  0  0  0  0  0  0  0  0  0  0
   19.0135   -9.5880  -13.9445 O   0  0  0  0  0  0  0  0  0  0  0  0
   21.4479   -7.6231  -16.5398 C   0  0  0  0  0  0  0  0  0  0  0  0
   20.7746   -6.7913  -17.1967 O   0  0  0  0  0  0  0  0  0  0  0  0
   18.8705   -7.9260  -12.3918 O   0  0  0  0  0  0  0  0  0  0  0  0
   22.8144   -7.6668  -16.7444 O   0  0  0  0  0  0  0  0  0  0  0  0
  2  1  1  6
  3  4  1  0
  3  2  1  0
  5  6  1  0
  5  4  1  0
  6  7  1  0
  8  2  1  0
  8  9  2  0
 11 10  1  1
 11 13  1  0
 12 11  1  0
 13 14  1  6
 14  8  1  0
 15 13  1  0
 16 15  2  0
 17 15  1  0
 18 22  1  0
 18 17  1  0
 18 19  1  1
 20 19  1  0
 21 20  2  0
 22 25  1  0
 23 22  2  0
 24 20  1  0
M  END
$$$$
