KTD.pdb
     RDKit          3D

 25 24  0  0  1  0  0  0  0  0999 V2000
   21.7050  -20.6314  -14.2959 N   0  0  0  0  0  0  0  0  0  0  0  0
   20.6020  -19.7472  -14.3899 C   0  0  1  0  0  0  0  0  0  0  0  0
   19.4772  -20.0408  -13.4246 C   0  0  0  0  0  0  0  0  0  0  0  0
   18.6480  -21.2196  -13.7193 C   0  0  0  0  0  0  0  0  0  0  0  0
   19.3087  -22.4860  -14.1051 C   0  0  0  0  0  0  0  0  0  0  0  0
   18.3676  -23.6236  -14.4218 C   0  0  0  0  0  0  0  0  0  0  0  0
   19.0080  -24.8269  -14.8610 N   0  0  0  0  0  0  0  0  0  0  0  0
   20.9311  -18.3035  -14.4204 C   0  0  0  0  0  0  0  0  0  0  0  0
   21.7385  -17.8588  -13.5544 O   0  0  0  0  0  0  0  0  0  0  0  0
   22.8965  -16.6494  -16.8233 C   0  0  0  0  0  0  0  0  0  0  0  0
   21.5879  -15.9332  -16.7682 C   0  0  1  0  0  0  0  0  0  0  0  0
   20.7898  -16.4672  -17.8009 O   0  0  0  0  0  0  0  0  0  0  0  0
   20.8487  -16.0285  -15.4798 C   0  0  2  0  0  0  0  0  0  0  0  0
   20.3960  -17.4196  -15.3494 N   0  0  0  0  0  0  0  0  0  0  0  0
   19.6875  -15.1138  -15.4849 C   0  0  0  0  0  0  0  0  0  0  0  0
   18.5049  -15.5341  -15.7178 O   0  0  0  0  0  0  0  0  0  0  0  0
   19.8049  -13.7324  -15.2331 N   0  0  0  0  0  0  0  0  0  0  0  0
   18.6457  -12.8487  -15.2001 C   0  0  1  0  0  0  0  0  0  0  0  0
   19.0426  -11.5308  -14.5000 C   0  0  0  0  0  0  0  0  0  0  0  0
   17.9092  -10.5973  -14.4702 C   0  0  0  0  0  0  0  0  0  0  0  0
   16.7421  -11.0534  -14.3944 O   0  0  0  0  0  0  0  0  0  0  0  0
   18.1282  -12.5284  -16.5215 C   0  0  0  0  0  0  0  0  0  0  0  0
   18.9182  -12.2743  -17.4639 O   0  0  0  0  0  0  0  0  0  0  0  0
   18.1143   -9.2385  -14.5258 O   0  0  0  0  0  0  0  0  0  0  0  0
   16.7703  -12.4945  -16.7785 O   0  0  0  0  0  0  0  0  0  0  0  0
  2  1  1  1
  3  4  1  0
  3  2  1  0
  5  6  1  0
  5  4  1  0
  6  7  1  0
  8  2  1  0
  8  9  2  0
 11 10  1  1
 11 13  1  0
 12 11  1  0
 13 14  1  6
 14  8  1  0
 15 13  1  0
 16 15  2  0
 17 15  1  0
 18 22  1  0
 18 17  1  0
 18 19  1  6
 20 19  1  0
 21 20  2  0
 22 25  1  0
 23 22  2  0
 24 20  1  0
M  END
$$$$
