KTD.pdb
     RDKit          3D

 25 24  0  0  1  0  0  0  0  0999 V2000
   17.4965  -15.4273  -17.6429 N   0  0  0  0  0  0  0  0  0  0  0  0
   18.5390  -14.4792  -17.4963 C   0  0  1  0  0  0  0  0  0  0  0  0
   19.9135  -14.9968  -17.8512 C   0  0  0  0  0  0  0  0  0  0  0  0
   20.2691  -16.3276  -17.3349 C   0  0  0  0  0  0  0  0  0  0  0  0
   20.6130  -17.4024  -18.2920 C   0  0  0  0  0  0  0  0  0  0  0  0
   21.1079  -18.6818  -17.6606 C   0  0  0  0  0  0  0  0  0  0  0  0
   21.2438  -19.7833  -18.5656 N   0  0  0  0  0  0  0  0  0  0  0  0
   18.2887  -13.1457  -18.0900 C   0  0  0  0  0  0  0  0  0  0  0  0
   17.9313  -13.0915  -19.3021 O   0  0  0  0  0  0  0  0  0  0  0  0
   16.0201  -11.6395  -19.0184 C   0  0  0  0  0  0  0  0  0  0  0  0
   16.6012  -10.6196  -18.0963 C   0  0  1  0  0  0  0  0  0  0  0  0
   16.0041  -10.8261  -16.8355 O   0  0  0  0  0  0  0  0  0  0  0  0
   18.0819  -10.6474  -17.9467 C   0  0  2  0  0  0  0  0  0  0  0  0
   18.4293  -11.9582  -17.3824 N   0  0  0  0  0  0  0  0  0  0  0  0
   18.5268   -9.5686  -17.0393 C   0  0  0  0  0  0  0  0  0  0  0  0
   18.4491   -9.6861  -15.7706 O   0  0  0  0  0  0  0  0  0  0  0  0
   19.0636   -8.3528  -17.5071 N   0  0  0  0  0  0  0  0  0  0  0  0
   19.5543   -7.3217  -16.6006 C   0  0  1  0  0  0  0  0  0  0  0  0
   20.5301   -6.4044  -17.3694 C   0  0  0  0  0  0  0  0  0  0  0  0
   21.8401   -6.3689  -16.7066 C   0  0  0  0  0  0  0  0  0  0  0  0
   21.9654   -6.8863  -15.5697 O   0  0  0  0  0  0  0  0  0  0  0  0
   18.4954   -6.4971  -16.0393 C   0  0  0  0  0  0  0  0  0  0  0  0
   18.7605   -5.6449  -15.1560 O   0  0  0  0  0  0  0  0  0  0  0  0
   22.9217   -5.7768  -17.3156 O   0  0  0  0  0  0  0  0  0  0  0  0
   17.1828   -6.6231  -16.4545 O   0  0  0  0  0  0  0  0  0  0  0  0
  2  1  1  6
  3  4  1  0
  3  2  1  0
  5  6  1  0
  5  4  1  0
  6  7  1  0
  8  2  1  0
  8  9  2  0
 11 10  1  6
 11 13  1  0
 12 11  1  0
 13 14  1  1
 14  8  1  0
 15 13  1  0
 16 15  2  0
 17 15  1  0
 18 22  1  0
 18 17  1  0
 18 19  1  6
 20 19  1  0
 21 20  2  0
 22 25  1  0
 23 22  2  0
 24 20  1  0
M  END
$$$$
