KTD.pdb
     RDKit          3D

 25 24  0  0  1  0  0  0  0  0999 V2000
   15.8545  -16.1160  -16.0360 N   0  0  0  0  0  0  0  0  0  0  0  0
   16.9553  -15.3038  -15.6672 C   0  0  1  0  0  0  0  0  0  0  0  0
   18.3081  -15.9332  -15.9054 C   0  0  0  0  0  0  0  0  0  0  0  0
   18.5300  -17.2608  -15.3121 C   0  0  0  0  0  0  0  0  0  0  0  0
   19.7923  -17.9765  -15.6014 C   0  0  0  0  0  0  0  0  0  0  0  0
   19.9389  -19.3118  -14.9116 C   0  0  0  0  0  0  0  0  0  0  0  0
   21.1539  -20.0093  -15.2079 N   0  0  0  0  0  0  0  0  0  0  0  0
   16.9141  -13.9027  -16.1452 C   0  0  0  0  0  0  0  0  0  0  0  0
   16.9280  -13.6992  -17.3935 O   0  0  0  0  0  0  0  0  0  0  0  0
   14.2407  -11.5069  -15.8197 C   0  0  0  0  0  0  0  0  0  0  0  0
   15.4767  -10.8788  -15.2666 C   0  0  1  0  0  0  0  0  0  0  0  0
   15.4232  -11.0430  -13.8669 O   0  0  0  0  0  0  0  0  0  0  0  0
   16.7655  -11.4238  -15.7740 C   0  0  2  0  0  0  0  0  0  0  0  0
   16.8632  -12.8076  -15.2915 N   0  0  0  0  0  0  0  0  0  0  0  0
   17.8985  -10.6249  -15.2610 C   0  0  0  0  0  0  0  0  0  0  0  0
   18.7148  -11.0961  -14.4001 O   0  0  0  0  0  0  0  0  0  0  0  0
   18.1537   -9.3055  -15.6846 N   0  0  0  0  0  0  0  0  0  0  0  0
   19.2090   -8.4914  -15.0935 C   0  0  1  0  0  0  0  0  0  0  0  0
   20.4681   -8.5840  -15.9827 C   0  0  0  0  0  0  0  0  0  0  0  0
   21.5369   -7.7231  -15.4601 C   0  0  0  0  0  0  0  0  0  0  0  0
   21.8963   -6.7210  -16.1252 O   0  0  0  0  0  0  0  0  0  0  0  0
   18.8461   -7.0893  -14.9565 C   0  0  0  0  0  0  0  0  0  0  0  0
   19.4653   -6.3534  -14.1492 O   0  0  0  0  0  0  0  0  0  0  0  0
   22.1436   -8.0045  -14.2584 O   0  0  0  0  0  0  0  0  0  0  0  0
   17.8235   -6.5303  -15.7000 O   0  0  0  0  0  0  0  0  0  0  0  0
  2  1  1  6
  3  4  1  0
  3  2  1  0
  5  6  1  0
  5  4  1  0
  6  7  1  0
  8  2  1  0
  8  9  2  0
 11 10  1  6
 11 13  1  0
 12 11  1  0
 13 14  1  1
 14  8  1  0
 15 13  1  0
 16 15  2  0
 17 15  1  0
 18 22  1  0
 18 17  1  0
 18 19  1  6
 20 19  1  0
 21 20  2  0
 22 25  1  0
 23 22  2  0
 24 20  1  0
M  END
$$$$
