KTD.pdb
     RDKit          3D

 25 24  0  0  1  0  0  0  0  0999 V2000
   18.6766  -12.4768  -16.1174 N   0  0  0  0  0  0  0  0  0  0  0  0
   18.7867  -11.1719  -16.6582 C   0  0  1  0  0  0  0  0  0  0  0  0
   17.5397  -10.6707  -17.3489 C   0  0  0  0  0  0  0  0  0  0  0  0
   16.6198  -11.6935  -17.8700 C   0  0  0  0  0  0  0  0  0  0  0  0
   15.9670  -11.4742  -19.1796 C   0  0  0  0  0  0  0  0  0  0  0  0
   14.9647  -12.5318  -19.5757 C   0  0  0  0  0  0  0  0  0  0  0  0
   15.5261  -13.6736  -20.2329 N   0  0  0  0  0  0  0  0  0  0  0  0
   19.3616  -10.1453  -15.7588 C   0  0  0  0  0  0  0  0  0  0  0  0
   18.7808   -9.9274  -14.6565 O   0  0  0  0  0  0  0  0  0  0  0  0
   22.3683  -10.1940  -13.9039 C   0  0  0  0  0  0  0  0  0  0  0  0
   22.4031   -8.9468  -14.7234 C   0  0  1  0  0  0  0  0  0  0  0  0
   23.1852   -9.2316  -15.8619 O   0  0  0  0  0  0  0  0  0  0  0  0
   21.0815   -8.4175  -15.1578 C   0  0  2  0  0  0  0  0  0  0  0  0
   20.5013   -9.4133  -16.0682 N   0  0  0  0  0  0  0  0  0  0  0  0
   21.2500   -7.1260  -15.8568 C   0  0  0  0  0  0  0  0  0  0  0  0
   21.3936   -7.0639  -17.1237 O   0  0  0  0  0  0  0  0  0  0  0  0
   21.2603   -5.8897  -15.1809 N   0  0  0  0  0  0  0  0  0  0  0  0
   21.3275   -4.6180  -15.8909 C   0  0  1  0  0  0  0  0  0  0  0  0
   20.8366   -3.4952  -14.9513 C   0  0  0  0  0  0  0  0  0  0  0  0
   19.3911   -3.6087  -14.7181 C   0  0  0  0  0  0  0  0  0  0  0  0
   18.6746   -4.1759  -15.5789 O   0  0  0  0  0  0  0  0  0  0  0  0
   22.6681   -4.2825  -16.3454 C   0  0  0  0  0  0  0  0  0  0  0  0
   23.6674   -4.8405  -15.8289 O   0  0  0  0  0  0  0  0  0  0  0  0
   18.8202   -3.1016  -13.5743 O   0  0  0  0  0  0  0  0  0  0  0  0
   22.8818   -3.3527  -17.3460 O   0  0  0  0  0  0  0  0  0  0  0  0
  2  1  1  1
  3  4  1  0
  3  2  1  0
  5  6  1  0
  5  4  1  0
  6  7  1  0
  8  2  1  0
  8  9  2  0
 11 10  1  6
 11 13  1  0
 12 11  1  0
 13 14  1  6
 14  8  1  0
 15 13  1  0
 16 15  2  0
 17 15  1  0
 18 22  1  0
 18 17  1  0
 18 19  1  1
 20 19  1  0
 21 20  2  0
 22 25  1  0
 23 22  2  0
 24 20  1  0
M  END
$$$$
