KTD.pdb
     RDKit          3D

 25 24  0  0  1  0  0  0  0  0999 V2000
   15.3502  -13.6708  -14.8087 N   0  0  0  0  0  0  0  0  0  0  0  0
   16.3931  -12.7284  -14.9871 C   0  0  1  0  0  0  0  0  0  0  0  0
   17.1233  -12.8414  -16.3050 C   0  0  0  0  0  0  0  0  0  0  0  0
   17.5154  -14.1953  -16.7262 C   0  0  0  0  0  0  0  0  0  0  0  0
   18.2155  -14.3726  -18.0176 C   0  0  0  0  0  0  0  0  0  0  0  0
   18.5756  -15.7998  -18.3551 C   0  0  0  0  0  0  0  0  0  0  0  0
   19.2838  -15.9636  -19.5889 N   0  0  0  0  0  0  0  0  0  0  0  0
   16.0550  -11.3218  -14.6700 C   0  0  0  0  0  0  0  0  0  0  0  0
   14.9035  -10.9017  -14.9820 O   0  0  0  0  0  0  0  0  0  0  0  0
   15.2326  -10.1129  -11.6502 C   0  0  0  0  0  0  0  0  0  0  0  0
   16.3505   -9.2305  -12.0975 C   0  0  1  0  0  0  0  0  0  0  0  0
   17.5287   -9.7430  -11.5162 O   0  0  0  0  0  0  0  0  0  0  0  0
   16.5403   -9.1177  -13.5695 C   0  0  2  0  0  0  0  0  0  0  0  0
   16.9392  -10.4466  -14.0513 N   0  0  0  0  0  0  0  0  0  0  0  0
   17.5938   -8.1275  -13.8771 C   0  0  0  0  0  0  0  0  0  0  0  0
   17.4667   -6.8960  -13.5661 O   0  0  0  0  0  0  0  0  0  0  0  0
   18.7972   -8.4717  -14.5242 N   0  0  0  0  0  0  0  0  0  0  0  0
   19.7545   -7.4656  -14.9681 C   0  0  1  0  0  0  0  0  0  0  0  0
   21.1842   -8.0102  -14.7586 C   0  0  0  0  0  0  0  0  0  0  0  0
   22.1811   -7.0627  -15.2733 C   0  0  0  0  0  0  0  0  0  0  0  0
   22.7795   -7.3254  -16.3451 O   0  0  0  0  0  0  0  0  0  0  0  0
   19.6020   -7.1042  -16.3690 C   0  0  0  0  0  0  0  0  0  0  0  0
   19.9514   -5.9663  -16.7687 O   0  0  0  0  0  0  0  0  0  0  0  0
   22.4634   -5.8998  -14.5954 O   0  0  0  0  0  0  0  0  0  0  0  0
   19.0757   -7.9890  -17.2917 O   0  0  0  0  0  0  0  0  0  0  0  0
  2  1  1  6
  3  4  1  0
  3  2  1  0
  5  6  1  0
  5  4  1  0
  6  7  1  0
  8  2  1  0
  8  9  2  0
 11 10  1  6
 11 13  1  0
 12 11  1  0
 13 14  1  1
 14  8  1  0
 15 13  1  0
 16 15  2  0
 17 15  1  0
 18 22  1  0
 18 17  1  0
 18 19  1  6
 20 19  1  0
 21 20  2  0
 22 25  1  0
 23 22  2  0
 24 20  1  0
M  END
$$$$
