ELI.pdb
     RDKit          3D

 26 25  0  0  1  0  0  0  0  0999 V2000
    8.6533  -15.1941   19.8127 N   0  0  0  0  0  0  0  0  0  0  0  0
    8.7888  -16.1585   20.8566 C   0  0  1  0  0  0  0  0  0  0  0  0
    9.7156  -17.2532   20.4520 C   0  0  0  0  0  0  0  0  0  0  0  0
    9.8617  -18.3764   21.4173 C   0  0  0  0  0  0  0  0  0  0  0  0
   10.8391  -19.4052   21.0477 C   0  0  0  0  0  0  0  0  0  0  0  0
   11.5085  -19.2684   19.9961 O   0  0  0  0  0  0  0  0  0  0  0  0
    9.1469  -15.5473   22.1629 C   0  0  0  0  0  0  0  0  0  0  0  0
   10.2047  -14.8988   22.2658 O   0  0  0  0  0  0  0  0  0  0  0  0
   11.0728  -20.5464   21.8096 O   0  0  0  0  0  0  0  0  0  0  0  0
    5.2837  -13.2139   25.3732 C   0  0  0  0  0  0  0  0  0  0  0  0
    6.5495  -13.5744   24.5769 C   0  0  1  0  0  0  0  0  0  0  0  0
    7.5018  -12.3795   24.9044 C   0  0  0  0  0  0  0  0  0  0  0  0
    7.1573  -14.7419   25.2610 C   0  0  0  0  0  0  0  0  0  0  0  0
    8.4476  -15.1952   24.5871 C   0  0  2  0  0  0  0  0  0  0  0  0
    8.3031  -15.6994   23.2662 N   0  0  0  0  0  0  0  0  0  0  0  0
    9.3751  -15.8759   25.4652 C   0  0  0  0  0  0  0  0  0  0  0  0
   10.0925  -16.8127   25.0057 O   0  0  0  0  0  0  0  0  0  0  0  0
   10.0482  -13.6442   30.2701 C   0  0  0  0  0  0  0  0  0  0  0  0
   10.8158  -14.1696   29.0722 C   0  0  0  0  0  0  0  0  0  0  0  0
   10.7828  -15.6937   29.0186 C   0  0  2  0  0  0  0  0  0  0  0  0
   11.9158  -16.3085   29.7807 C   0  0  0  0  0  0  0  0  0  0  0  0
   10.5651  -16.2225   27.6608 C   0  0  2  0  0  0  0  0  0  0  0  0
    9.5921  -15.6170   26.8290 N   0  0  0  0  0  0  0  0  0  0  0  0
   10.2076  -17.6724   27.7830 C   0  0  0  0  0  0  0  0  0  0  0  0
   11.0376  -18.5351   28.1926 O   0  0  0  0  0  0  0  0  0  0  0  0
    8.9444  -18.1557   27.4543 O   0  0  0  0  0  0  0  0  0  0  0  0
  2  3  1  0
  2  1  1  6
  4  3  1  0
  5  4  1  0
  6  5  2  0
  7  8  2  0
  7  2  1  0
  9  5  1  0
 11 10  1  1
 11 12  1  0
 14 13  1  1
 13 11  1  0
 14 15  1  0
 15  7  1  0
 16 14  1  0
 17 16  2  0
 18 19  1  0
 19 20  1  0
 20 21  1  6
 22 20  1  0
 22 23  1  1
 23 16  1  0
 24 26  1  0
 24 22  1  0
 25 24  2  0
M  END
$$$$
