ELI.pdb
     RDKit          3D

 26 25  0  0  1  0  0  0  0  0999 V2000
   12.2042  -16.6771   18.8270 N   0  0  0  0  0  0  0  0  0  0  0  0
   11.6802  -17.2566   20.0219 C   0  0  1  0  0  0  0  0  0  0  0  0
   12.6523  -18.2158   20.6182 C   0  0  0  0  0  0  0  0  0  0  0  0
   13.1266  -19.3069   19.7241 C   0  0  0  0  0  0  0  0  0  0  0  0
   13.9996  -20.3043   20.3513 C   0  0  0  0  0  0  0  0  0  0  0  0
   14.4579  -21.2436   19.6582 O   0  0  0  0  0  0  0  0  0  0  0  0
   11.1980  -16.2395   20.9921 C   0  0  0  0  0  0  0  0  0  0  0  0
   11.9901  -15.3816   21.4239 O   0  0  0  0  0  0  0  0  0  0  0  0
   14.3568  -20.2698   21.6961 O   0  0  0  0  0  0  0  0  0  0  0  0
    6.0470  -14.3439   20.6768 C   0  0  0  0  0  0  0  0  0  0  0  0
    7.5663  -14.3971   20.9111 C   0  0  1  0  0  0  0  0  0  0  0  0
    7.9031  -12.9112   21.2584 C   0  0  0  0  0  0  0  0  0  0  0  0
    7.7697  -15.1382   22.1799 C   0  0  0  0  0  0  0  0  0  0  0  0
    9.2381  -15.4669   22.4245 C   0  0  2  0  0  0  0  0  0  0  0  0
    9.8666  -16.2465   21.4159 N   0  0  0  0  0  0  0  0  0  0  0  0
    9.5633  -15.7680   23.8024 C   0  0  0  0  0  0  0  0  0  0  0  0
   10.1074  -16.8760   24.0848 O   0  0  0  0  0  0  0  0  0  0  0  0
    8.9968  -11.8201   27.8330 C   0  0  0  0  0  0  0  0  0  0  0  0
    9.6492  -12.8044   26.8813 C   0  0  0  0  0  0  0  0  0  0  0  0
    9.3931  -14.2448   27.3132 C   0  0  2  0  0  0  0  0  0  0  0  0
    9.9669  -14.5378   28.6650 C   0  0  0  0  0  0  0  0  0  0  0  0
    9.7007  -15.2299   26.2617 C   0  0  2  0  0  0  0  0  0  0  0  0
    9.3420  -14.9475   24.9213 N   0  0  0  0  0  0  0  0  0  0  0  0
    9.0441  -16.5235   26.6362 C   0  0  0  0  0  0  0  0  0  0  0  0
    7.8869  -16.8308   26.2272 O   0  0  0  0  0  0  0  0  0  0  0  0
    9.6661  -17.4621   27.4544 O   0  0  0  0  0  0  0  0  0  0  0  0
  2  3  1  0
  2  1  1  6
  4  3  1  0
  5  4  1  0
  6  5  2  0
  7  8  2  0
  7  2  1  0
  9  5  1  0
 11 10  1  1
 11 12  1  0
 14 13  1  1
 13 11  1  0
 14 15  1  0
 15  7  1  0
 16 14  1  0
 17 16  2  0
 18 19  1  0
 19 20  1  0
 20 21  1  1
 22 20  1  0
 22 23  1  6
 23 16  1  0
 24 26  1  0
 24 22  1  0
 25 24  2  0
M  END
$$$$
