ELI.pdb
     RDKit          3D

 26 25  0  0  1  0  0  0  0  0999 V2000
    8.7624  -17.4364   20.4024 N   0  0  0  0  0  0  0  0  0  0  0  0
   10.0371  -17.3919   21.0437 C   0  0  1  0  0  0  0  0  0  0  0  0
   11.1069  -17.0200   20.0752 C   0  0  0  0  0  0  0  0  0  0  0  0
   10.9967  -17.6192   18.7173 C   0  0  0  0  0  0  0  0  0  0  0  0
   12.1022  -17.3191   17.8018 C   0  0  0  0  0  0  0  0  0  0  0  0
   13.0872  -16.6654   18.2200 O   0  0  0  0  0  0  0  0  0  0  0  0
   10.0387  -16.5446   22.2646 C   0  0  0  0  0  0  0  0  0  0  0  0
   11.1233  -16.1795   22.7548 O   0  0  0  0  0  0  0  0  0  0  0  0
   12.1235  -17.7247   16.4704 O   0  0  0  0  0  0  0  0  0  0  0  0
    7.5752  -12.5686   25.0294 C   0  0  0  0  0  0  0  0  0  0  0  0
    7.1478  -13.9855   25.4488 C   0  0  1  0  0  0  0  0  0  0  0  0
    5.6155  -13.8113   25.7012 C   0  0  0  0  0  0  0  0  0  0  0  0
    7.2379  -14.8286   24.2316 C   0  0  0  0  0  0  0  0  0  0  0  0
    8.6081  -15.4807   24.0843 C   0  0  2  0  0  0  0  0  0  0  0  0
    8.8327  -16.1614   22.8570 N   0  0  0  0  0  0  0  0  0  0  0  0
    9.1112  -16.0977   25.2931 C   0  0  0  0  0  0  0  0  0  0  0  0
    9.0279  -17.3536   25.4310 O   0  0  0  0  0  0  0  0  0  0  0  0
   10.3719  -13.5681   30.2684 C   0  0  0  0  0  0  0  0  0  0  0  0
    9.9466  -14.7907   29.4782 C   0  0  0  0  0  0  0  0  0  0  0  0
   11.0282  -15.2152   28.4899 C   0  0  2  0  0  0  0  0  0  0  0  0
   11.9023  -14.0686   28.0851 C   0  0  0  0  0  0  0  0  0  0  0  0
   10.5139  -16.0463   27.3875 C   0  0  2  0  0  0  0  0  0  0  0  0
    9.7101  -15.4492   26.3862 N   0  0  0  0  0  0  0  0  0  0  0  0
    9.7204  -17.1669   27.9871 C   0  0  0  0  0  0  0  0  0  0  0  0
   10.2697  -18.1077   28.6306 O   0  0  0  0  0  0  0  0  0  0  0  0
    8.3351  -17.2399   27.8725 O   0  0  0  0  0  0  0  0  0  0  0  0
  2  3  1  0
  2  1  1  6
  4  3  1  0
  5  4  1  0
  6  5  2  0
  7  8  2  0
  7  2  1  0
  9  5  1  0
 11 10  1  6
 11 12  1  0
 14 13  1  1
 13 11  1  0
 14 15  1  0
 15  7  1  0
 16 14  1  0
 17 16  2  0
 18 19  1  0
 19 20  1  0
 20 21  1  6
 22 20  1  0
 22 23  1  6
 23 16  1  0
 24 26  1  0
 24 22  1  0
 25 24  2  0
M  END
$$$$
