ELI.pdb
     RDKit          3D

 26 25  0  0  1  0  0  0  0  0999 V2000
   10.5642  -18.6949   19.3291 N   0  0  0  0  0  0  0  0  0  0  0  0
   10.1277  -18.6644   20.6881 C   0  0  1  0  0  0  0  0  0  0  0  0
   10.7003  -19.8059   21.4561 C   0  0  0  0  0  0  0  0  0  0  0  0
   10.7637  -21.1093   20.7405 C   0  0  0  0  0  0  0  0  0  0  0  0
   11.1948  -22.2544   21.5486 C   0  0  0  0  0  0  0  0  0  0  0  0
   11.3584  -23.3692   20.9980 O   0  0  0  0  0  0  0  0  0  0  0  0
   10.3631  -17.3496   21.3395 C   0  0  0  0  0  0  0  0  0  0  0  0
   11.4924  -16.8292   21.2772 O   0  0  0  0  0  0  0  0  0  0  0  0
   11.4380  -22.1761   22.9169 O   0  0  0  0  0  0  0  0  0  0  0  0
    6.0862  -13.8989   21.5343 C   0  0  0  0  0  0  0  0  0  0  0  0
    7.4879  -14.5097   21.3661 C   0  0  1  0  0  0  0  0  0  0  0  0
    8.3043  -13.3152   20.7756 C   0  0  0  0  0  0  0  0  0  0  0  0
    8.0298  -14.6996   22.7339 C   0  0  0  0  0  0  0  0  0  0  0  0
    9.3429  -15.4743   22.7294 C   0  0  2  0  0  0  0  0  0  0  0  0
    9.3253  -16.7034   22.0160 N   0  0  0  0  0  0  0  0  0  0  0  0
   10.0635  -15.4394   23.9841 C   0  0  0  0  0  0  0  0  0  0  0  0
   11.2429  -14.9793   24.0110 O   0  0  0  0  0  0  0  0  0  0  0  0
    8.4521  -13.3750   28.8240 C   0  0  0  0  0  0  0  0  0  0  0  0
    8.5985  -14.4218   27.7364 C   0  0  0  0  0  0  0  0  0  0  0  0
   10.0587  -14.6010   27.3333 C   0  0  2  0  0  0  0  0  0  0  0  0
   10.6726  -13.3208   26.8571 C   0  0  0  0  0  0  0  0  0  0  0  0
   10.2838  -15.7758   26.4731 C   0  0  2  0  0  0  0  0  0  0  0  0
    9.5985  -15.8715   25.2376 N   0  0  0  0  0  0  0  0  0  0  0  0
    9.9444  -17.0000   27.2675 C   0  0  0  0  0  0  0  0  0  0  0  0
   10.5267  -17.2750   28.3565 O   0  0  0  0  0  0  0  0  0  0  0  0
    8.9707  -17.9055   26.8561 O   0  0  0  0  0  0  0  0  0  0  0  0
  2  3  1  0
  2  1  1  6
  4  3  1  0
  5  4  1  0
  6  5  2  0
  7  8  2  0
  7  2  1  0
  9  5  1  0
 11 10  1  1
 11 12  1  0
 14 13  1  1
 13 11  1  0
 14 15  1  0
 15  7  1  0
 16 14  1  0
 17 16  2  0
 18 19  1  0
 19 20  1  0
 20 21  1  6
 22 20  1  0
 22 23  1  6
 23 16  1  0
 24 26  1  0
 24 22  1  0
 25 24  2  0
M  END
$$$$
