ELI.pdb
     RDKit          3D

 26 25  0  0  1  0  0  0  0  0999 V2000
    8.1323  -15.6429   20.1737 N   0  0  0  0  0  0  0  0  0  0  0  0
    8.8137  -16.5009   21.0890 C   0  0  1  0  0  0  0  0  0  0  0  0
    9.9871  -17.1486   20.4376 C   0  0  0  0  0  0  0  0  0  0  0  0
    9.7091  -17.8886   19.1767 C   0  0  0  0  0  0  0  0  0  0  0  0
   10.8728  -18.5138   18.5403 C   0  0  0  0  0  0  0  0  0  0  0  0
   11.9850  -18.4750   19.1183 O   0  0  0  0  0  0  0  0  0  0  0  0
    9.1587  -15.8234   22.3659 C   0  0  0  0  0  0  0  0  0  0  0  0
   10.3065  -15.3690   22.5270 O   0  0  0  0  0  0  0  0  0  0  0  0
   10.8152  -19.1604   17.3090 O   0  0  0  0  0  0  0  0  0  0  0  0
    5.4378  -12.7750   25.2624 C   0  0  0  0  0  0  0  0  0  0  0  0
    6.6473  -13.3564   24.5107 C   0  0  1  0  0  0  0  0  0  0  0  0
    7.7487  -12.2772   24.7643 C   0  0  0  0  0  0  0  0  0  0  0  0
    7.0924  -14.5412   25.2845 C   0  0  0  0  0  0  0  0  0  0  0  0
    8.3447  -15.1775   24.6918 C   0  0  2  0  0  0  0  0  0  0  0  0
    8.2025  -15.6978   23.3769 N   0  0  0  0  0  0  0  0  0  0  0  0
    9.1297  -15.9460   25.6341 C   0  0  0  0  0  0  0  0  0  0  0  0
    9.5536  -17.0918   25.3011 O   0  0  0  0  0  0  0  0  0  0  0  0
   10.9097  -13.3188   30.1649 C   0  0  0  0  0  0  0  0  0  0  0  0
   11.0701  -14.0407   28.8409 C   0  0  0  0  0  0  0  0  0  0  0  0
   10.8886  -15.5463   29.0056 C   0  0  2  0  0  0  0  0  0  0  0  0
   12.0539  -16.1813   29.6994 C   0  0  0  0  0  0  0  0  0  0  0  0
   10.4374  -16.2152   27.7728 C   0  0  2  0  0  0  0  0  0  0  0  0
    9.4999  -15.5642   26.9346 N   0  0  0  0  0  0  0  0  0  0  0  0
    9.8494  -17.5389   28.1560 C   0  0  0  0  0  0  0  0  0  0  0  0
    8.6013  -17.7088   28.2747 O   0  0  0  0  0  0  0  0  0  0  0  0
   10.6390  -18.6581   28.4037 O   0  0  0  0  0  0  0  0  0  0  0  0
  2  3  1  0
  2  1  1  6
  4  3  1  0
  5  4  1  0
  6  5  2  0
  7  8  2  0
  7  2  1  0
  9  5  1  0
 11 10  1  1
 11 12  1  0
 14 13  1  1
 13 11  1  0
 14 15  1  0
 15  7  1  0
 16 14  1  0
 17 16  2  0
 18 19  1  0
 19 20  1  0
 20 21  1  6
 22 20  1  0
 22 23  1  1
 23 16  1  0
 24 26  1  0
 24 22  1  0
 25 24  2  0
M  END
$$$$
