ELI.pdb
     RDKit          3D

 26 25  0  0  1  0  0  0  0  0999 V2000
    9.3372  -18.8276   21.5075 N   0  0  0  0  0  0  0  0  0  0  0  0
   10.5732  -18.1366   21.3261 C   0  0  1  0  0  0  0  0  0  0  0  0
   11.0632  -18.2820   19.9263 C   0  0  0  0  0  0  0  0  0  0  0  0
   12.2843  -19.1130   19.7440 C   0  0  0  0  0  0  0  0  0  0  0  0
   12.8169  -19.1639   18.3787 C   0  0  0  0  0  0  0  0  0  0  0  0
   13.9921  -18.7835   18.1621 O   0  0  0  0  0  0  0  0  0  0  0  0
   10.5140  -16.7217   21.7768 C   0  0  0  0  0  0  0  0  0  0  0  0
   11.5727  -16.1042   21.9953 O   0  0  0  0  0  0  0  0  0  0  0  0
   12.0814  -19.6181   17.2877 O   0  0  0  0  0  0  0  0  0  0  0  0
    6.0940  -13.7659   20.1578 C   0  0  0  0  0  0  0  0  0  0  0  0
    7.5180  -14.2565   20.4701 C   0  0  1  0  0  0  0  0  0  0  0  0
    8.4012  -13.0902   19.9209 C   0  0  0  0  0  0  0  0  0  0  0  0
    7.6721  -14.1869   21.9439 C   0  0  0  0  0  0  0  0  0  0  0  0
    8.9989  -14.7745   22.4114 C   0  0  2  0  0  0  0  0  0  0  0  0
    9.2801  -16.0903   21.9537 N   0  0  0  0  0  0  0  0  0  0  0  0
    9.3481  -14.4529   23.7786 C   0  0  0  0  0  0  0  0  0  0  0  0
    9.7696  -13.2915   24.0558 O   0  0  0  0  0  0  0  0  0  0  0  0
    6.9643  -12.2922   26.9368 C   0  0  0  0  0  0  0  0  0  0  0  0
    8.1499  -12.9306   26.2392 C   0  0  0  0  0  0  0  0  0  0  0  0
    8.6584  -14.1444   27.0105 C   0  0  2  0  0  0  0  0  0  0  0  0
    9.1069  -13.7853   28.3934 C   0  0  0  0  0  0  0  0  0  0  0  0
    9.5920  -14.9776   26.2326 C   0  0  2  0  0  0  0  0  0  0  0  0
    9.2751  -15.3065   24.8923 N   0  0  0  0  0  0  0  0  0  0  0  0
    9.7873  -16.2650   26.9737 C   0  0  0  0  0  0  0  0  0  0  0  0
    9.4675  -17.3819   26.4727 O   0  0  0  0  0  0  0  0  0  0  0  0
   10.3309  -16.3092   28.2543 O   0  0  0  0  0  0  0  0  0  0  0  0
  2  3  1  0
  2  1  1  6
  4  3  1  0
  5  4  1  0
  6  5  2  0
  7  8  2  0
  7  2  1  0
  9  5  1  0
 11 10  1  1
 11 12  1  0
 14 13  1  1
 13 11  1  0
 14 15  1  0
 15  7  1  0
 16 14  1  0
 17 16  2  0
 18 19  1  0
 19 20  1  0
 20 21  1  1
 22 20  1  0
 22 23  1  6
 23 16  1  0
 24 26  1  0
 24 22  1  0
 25 24  2  0
M  END
$$$$
