ELI.pdb
     RDKit          3D

 26 25  0  0  1  0  0  0  0  0999 V2000
   12.9224  -17.8454   19.1073 N   0  0  0  0  0  0  0  0  0  0  0  0
   11.8106  -18.1597   19.9459 C   0  0  1  0  0  0  0  0  0  0  0  0
   12.0593  -19.4145   20.7105 C   0  0  0  0  0  0  0  0  0  0  0  0
   13.4772  -19.8585   20.7950 C   0  0  0  0  0  0  0  0  0  0  0  0
   13.7092  -21.0947   21.5489 C   0  0  0  0  0  0  0  0  0  0  0  0
   14.8739  -21.5508   21.6393 O   0  0  0  0  0  0  0  0  0  0  0  0
   11.4024  -17.0231   20.8118 C   0  0  0  0  0  0  0  0  0  0  0  0
   12.2764  -16.3027   21.3286 O   0  0  0  0  0  0  0  0  0  0  0  0
   12.6939  -21.8056   22.1823 O   0  0  0  0  0  0  0  0  0  0  0  0
    8.4702  -12.9108   21.7759 C   0  0  0  0  0  0  0  0  0  0  0  0
    7.6440  -14.1164   22.2556 C   0  0  1  0  0  0  0  0  0  0  0  0
    6.2170  -13.7801   21.7146 C   0  0  0  0  0  0  0  0  0  0  0  0
    8.0907  -15.2787   21.4493 C   0  0  0  0  0  0  0  0  0  0  0  0
    9.4487  -15.8039   21.9012 C   0  0  2  0  0  0  0  0  0  0  0  0
   10.0488  -16.7655   21.0437 N   0  0  0  0  0  0  0  0  0  0  0  0
    9.5647  -16.0155   23.3283 C   0  0  0  0  0  0  0  0  0  0  0  0
    9.7696  -17.1849   23.7686 O   0  0  0  0  0  0  0  0  0  0  0  0
    9.9243  -13.1966   28.9639 C   0  0  0  0  0  0  0  0  0  0  0  0
    9.9476  -14.4287   28.0800 C   0  0  0  0  0  0  0  0  0  0  0  0
    9.6220  -14.0774   26.6317 C   0  0  2  0  0  0  0  0  0  0  0  0
    8.3758  -13.2549   26.5184 C   0  0  0  0  0  0  0  0  0  0  0  0
    9.7107  -15.2313   25.7201 C   0  0  2  0  0  0  0  0  0  0  0  0
    9.4751  -15.0412   24.3368 N   0  0  0  0  0  0  0  0  0  0  0  0
    8.7442  -16.2715   26.1984 C   0  0  0  0  0  0  0  0  0  0  0  0
    7.5751  -16.3685   25.7245 O   0  0  0  0  0  0  0  0  0  0  0  0
    9.0737  -17.1908   27.1902 O   0  0  0  0  0  0  0  0  0  0  0  0
  2  3  1  0
  2  1  1  1
  4  3  1  0
  5  4  1  0
  6  5  2  0
  7  8  2  0
  7  2  1  0
  9  5  1  0
 11 10  1  6
 11 12  1  0
 14 13  1  6
 13 11  1  0
 14 15  1  0
 15  7  1  0
 16 14  1  0
 17 16  2  0
 18 19  1  0
 19 20  1  0
 20 21  1  1
 22 20  1  0
 22 23  1  6
 23 16  1  0
 24 26  1  0
 24 22  1  0
 25 24  2  0
M  END
$$$$
