ELI.pdb
     RDKit          3D

 26 25  0  0  1  0  0  0  0  0999 V2000
    9.4272  -15.4954   19.7912 N   0  0  0  0  0  0  0  0  0  0  0  0
    8.7073  -16.0773   20.8781 C   0  0  1  0  0  0  0  0  0  0  0  0
    8.8080  -17.5638   20.8472 C   0  0  0  0  0  0  0  0  0  0  0  0
    9.4034  -18.1535   19.6173 C   0  0  0  0  0  0  0  0  0  0  0  0
    9.3799  -19.6178   19.5424 C   0  0  0  0  0  0  0  0  0  0  0  0
   10.4294  -20.2628   19.7773 O   0  0  0  0  0  0  0  0  0  0  0  0
    9.0817  -15.4969   22.1938 C   0  0  0  0  0  0  0  0  0  0  0  0
   10.2296  -15.0439   22.3586 O   0  0  0  0  0  0  0  0  0  0  0  0
    8.2400  -20.3484   19.2199 O   0  0  0  0  0  0  0  0  0  0  0  0
    5.3968  -12.7284   25.5137 C   0  0  0  0  0  0  0  0  0  0  0  0
    6.5822  -13.1987   24.6536 C   0  0  1  0  0  0  0  0  0  0  0  0
    7.6938  -12.1641   25.0221 C   0  0  0  0  0  0  0  0  0  0  0  0
    7.0460  -14.4789   25.2422 C   0  0  0  0  0  0  0  0  0  0  0  0
    8.3135  -14.9948   24.5703 C   0  0  2  0  0  0  0  0  0  0  0  0
    8.1528  -15.4600   23.2370 N   0  0  0  0  0  0  0  0  0  0  0  0
    9.1888  -15.7498   25.4413 C   0  0  0  0  0  0  0  0  0  0  0  0
    9.7028  -16.8285   25.0225 O   0  0  0  0  0  0  0  0  0  0  0  0
   10.1609  -13.3244   29.7919 C   0  0  0  0  0  0  0  0  0  0  0  0
   11.0920  -14.0617   28.8488 C   0  0  0  0  0  0  0  0  0  0  0  0
   10.8434  -15.5661   28.8891 C   0  0  2  0  0  0  0  0  0  0  0  0
   11.9246  -16.2960   29.6244 C   0  0  0  0  0  0  0  0  0  0  0  0
   10.4700  -16.1284   27.5795 C   0  0  2  0  0  0  0  0  0  0  0  0
    9.5594  -15.4222   26.7564 N   0  0  0  0  0  0  0  0  0  0  0  0
    9.8963  -17.4930   27.8108 C   0  0  0  0  0  0  0  0  0  0  0  0
    8.6483  -17.6982   27.8459 O   0  0  0  0  0  0  0  0  0  0  0  0
   10.6997  -18.6136   28.0006 O   0  0  0  0  0  0  0  0  0  0  0  0
  2  3  1  0
  2  1  1  6
  4  3  1  0
  5  4  1  0
  6  5  2  0
  7  8  2  0
  7  2  1  0
  9  5  1  0
 11 10  1  1
 11 12  1  0
 14 13  1  1
 13 11  1  0
 14 15  1  0
 15  7  1  0
 16 14  1  0
 17 16  2  0
 18 19  1  0
 19 20  1  0
 20 21  1  6
 22 20  1  0
 22 23  1  1
 23 16  1  0
 24 26  1  0
 24 22  1  0
 25 24  2  0
M  END
$$$$
