ELI.pdb
     RDKit          3D

 26 25  0  0  1  0  0  0  0  0999 V2000
   10.3933  -15.8672   19.7409 N   0  0  0  0  0  0  0  0  0  0  0  0
    9.4011  -16.3541   20.6445 C   0  0  1  0  0  0  0  0  0  0  0  0
    9.3477  -17.8433   20.6233 C   0  0  0  0  0  0  0  0  0  0  0  0
   10.6029  -18.5480   21.0010 C   0  0  0  0  0  0  0  0  0  0  0  0
   10.5080  -20.0090   21.0832 C   0  0  0  0  0  0  0  0  0  0  0  0
   10.4517  -20.5596   22.2085 O   0  0  0  0  0  0  0  0  0  0  0  0
    9.5465  -15.7975   22.0147 C   0  0  0  0  0  0  0  0  0  0  0  0
   10.6853  -15.6036   22.4788 O   0  0  0  0  0  0  0  0  0  0  0  0
   10.4759  -20.8371   19.9648 O   0  0  0  0  0  0  0  0  0  0  0  0
    7.4274  -12.3040   25.5765 C   0  0  0  0  0  0  0  0  0  0  0  0
    7.0212  -13.7651   25.8340 C   0  0  1  0  0  0  0  0  0  0  0  0
    5.5249  -13.6255   26.2623 C   0  0  0  0  0  0  0  0  0  0  0  0
    6.9755  -14.4279   24.5077 C   0  0  0  0  0  0  0  0  0  0  0  0
    8.3279  -15.0066   24.1073 C   0  0  2  0  0  0  0  0  0  0  0  0
    8.4142  -15.4944   22.7752 N   0  0  0  0  0  0  0  0  0  0  0  0
    8.9815  -15.7755   25.1448 C   0  0  0  0  0  0  0  0  0  0  0  0
    9.1077  -17.0276   25.0045 O   0  0  0  0  0  0  0  0  0  0  0  0
   11.0303  -13.1051   29.5849 C   0  0  0  0  0  0  0  0  0  0  0  0
   11.2354  -13.9694   28.3557 C   0  0  0  0  0  0  0  0  0  0  0  0
   10.6636  -15.3686   28.5610 C   0  0  2  0  0  0  0  0  0  0  0  0
   11.5114  -16.1942   29.4787 C   0  0  0  0  0  0  0  0  0  0  0  0
   10.2610  -16.0219   27.3033 C   0  0  2  0  0  0  0  0  0  0  0  0
    9.5206  -15.2860   26.3465 N   0  0  0  0  0  0  0  0  0  0  0  0
    9.4560  -17.2364   27.6523 C   0  0  0  0  0  0  0  0  0  0  0  0
    8.1934  -17.2049   27.7269 O   0  0  0  0  0  0  0  0  0  0  0  0
   10.0475  -18.4687   27.9148 O   0  0  0  0  0  0  0  0  0  0  0  0
  2  3  1  0
  2  1  1  6
  4  3  1  0
  5  4  1  0
  6  5  2  0
  7  8  2  0
  7  2  1  0
  9  5  1  0
 11 10  1  6
 11 12  1  0
 14 13  1  1
 13 11  1  0
 14 15  1  0
 15  7  1  0
 16 14  1  0
 17 16  2  0
 18 19  1  0
 19 20  1  0
 20 21  1  6
 22 20  1  0
 22 23  1  6
 23 16  1  0
 24 26  1  0
 24 22  1  0
 25 24  2  0
M  END
$$$$
