DDA.pdb
     RDKit          3D

 22 21  0  0  1  0  0  0  0  0999 V2000
    7.7647  -16.3165   20.1621 N   0  0  0  0  0  0  0  0  0  0  0  0
    8.3614  -15.2665   20.9677 C   0  0  1  0  0  0  0  0  0  0  0  0
    7.7317  -13.9170   20.6992 C   0  0  0  0  0  0  0  0  0  0  0  0
    7.9093  -13.4923   19.2983 C   0  0  0  0  0  0  0  0  0  0  0  0
    8.9987  -13.7056   18.7086 O   0  0  0  0  0  0  0  0  0  0  0  0
    8.2835  -15.6478   22.3900 C   0  0  0  0  0  0  0  0  0  0  0  0
    7.2037  -15.4836   23.0268 O   0  0  0  0  0  0  0  0  0  0  0  0
    6.9189  -12.8544   18.5741 O   0  0  0  0  0  0  0  0  0  0  0  0
    9.3617  -16.2013   23.1180 N   0  0  0  0  0  0  0  0  0  0  0  0
    9.2171  -16.6505   24.5056 C   0  0  1  0  0  0  0  0  0  0  0  0
    9.8487  -18.0251   24.5864 C   0  0  0  0  0  0  0  0  0  0  0  0
    9.8145  -18.6080   25.9384 C   0  0  0  0  0  0  0  0  0  0  0  0
    9.0663  -18.1203   26.8164 O   0  0  0  0  0  0  0  0  0  0  0  0
    9.8147  -15.6647   25.4332 C   0  0  0  0  0  0  0  0  0  0  0  0
   11.0498  -15.3440   25.3365 O   0  0  0  0  0  0  0  0  0  0  0  0
   10.6249  -19.7005   26.2101 O   0  0  0  0  0  0  0  0  0  0  0  0
    8.6510  -13.2711   28.0300 C   0  0  0  0  0  0  0  0  0  0  0  0
    9.7702  -14.0849   27.3824 C   0  0  2  0  0  0  0  0  0  0  0  0
    9.1148  -15.0004   26.4737 N   0  0  0  0  0  0  0  0  0  0  0  0
   10.4853  -14.7649   28.4845 C   0  0  0  0  0  0  0  0  0  0  0  0
   10.4719  -16.1466   28.6125 O   0  0  0  0  0  0  0  0  0  0  0  0
   11.1341  -14.1314   29.3504 O   0  0  0  0  0  0  0  0  0  0  0  0
  2  1  1  6
  2  3  1  0
  3  4  1  0
  4  8  1  0
  5  4  2  0
  6  2  1  0
  7  6  2  0
  9  6  1  0
 10  9  1  0
 10 14  1  0
 10 11  1  6
 12 13  2  0
 12 11  1  0
 14 19  1  0
 15 14  2  0
 16 12  1  0
 18 17  1  1
 18 20  1  0
 19 18  1  0
 20 22  2  0
 20 21  1  0
M  END
$$$$
