DDA.pdb
     RDKit          3D

 22 21  0  0  1  0  0  0  0  0999 V2000
   11.3664  -18.0186   21.0860 N   0  0  0  0  0  0  0  0  0  0  0  0
   10.7847  -16.6973   21.2380 C   0  0  1  0  0  0  0  0  0  0  0  0
    9.9306  -16.3123   20.0498 C   0  0  0  0  0  0  0  0  0  0  0  0
   10.6948  -16.3333   18.7888 C   0  0  0  0  0  0  0  0  0  0  0  0
   11.9438  -16.4732   18.8113 O   0  0  0  0  0  0  0  0  0  0  0  0
   10.0355  -16.6441   22.5069 C   0  0  0  0  0  0  0  0  0  0  0  0
    8.8813  -16.1288   22.5346 O   0  0  0  0  0  0  0  0  0  0  0  0
   10.1007  -16.2042   17.5467 O   0  0  0  0  0  0  0  0  0  0  0  0
   10.5281  -17.1427   23.7348 N   0  0  0  0  0  0  0  0  0  0  0  0
    9.7248  -17.1297   24.9606 C   0  0  1  0  0  0  0  0  0  0  0  0
    9.5209  -18.5758   25.3630 C   0  0  0  0  0  0  0  0  0  0  0  0
    9.1999  -18.7482   26.7899 C   0  0  0  0  0  0  0  0  0  0  0  0
    8.0311  -18.5628   27.2000 O   0  0  0  0  0  0  0  0  0  0  0  0
   10.3824  -16.3086   26.0011 C   0  0  0  0  0  0  0  0  0  0  0  0
   11.6260  -16.4608   26.2623 O   0  0  0  0  0  0  0  0  0  0  0  0
   10.2164  -19.1176   27.6584 O   0  0  0  0  0  0  0  0  0  0  0  0
    9.5349  -13.3529   28.1005 C   0  0  0  0  0  0  0  0  0  0  0  0
   10.4361  -14.5461   27.7865 C   0  0  2  0  0  0  0  0  0  0  0  0
    9.7365  -15.3119   26.7779 N   0  0  0  0  0  0  0  0  0  0  0  0
   10.6177  -15.2798   29.0581 C   0  0  0  0  0  0  0  0  0  0  0  0
   11.4192  -14.7796   30.0745 O   0  0  0  0  0  0  0  0  0  0  0  0
   10.0604  -16.3811   29.2788 O   0  0  0  0  0  0  0  0  0  0  0  0
  2  1  1  6
  2  3  1  0
  3  4  1  0
  4  8  1  0
  5  4  2  0
  6  2  1  0
  7  6  2  0
  9  6  1  0
 10  9  1  0
 10 14  1  0
 10 11  1  1
 12 13  2  0
 12 11  1  0
 14 19  1  0
 15 14  2  0
 16 12  1  0
 18 17  1  1
 18 20  1  0
 19 18  1  0
 20 22  2  0
 20 21  1  0
M  END
$$$$
