DDA.pdb
     RDKit          3D

 22 21  0  0  1  0  0  0  0  0999 V2000
    6.6609  -15.8895   20.6559 N   0  0  0  0  0  0  0  0  0  0  0  0
    7.8813  -15.3038   21.1799 C   0  0  1  0  0  0  0  0  0  0  0  0
    7.9339  -13.8077   20.9595 C   0  0  0  0  0  0  0  0  0  0  0  0
    8.0913  -13.4634   19.5343 C   0  0  0  0  0  0  0  0  0  0  0  0
    8.3791  -14.3570   18.6984 O   0  0  0  0  0  0  0  0  0  0  0  0
    8.0163  -15.6652   22.6031 C   0  0  0  0  0  0  0  0  0  0  0  0
    7.0738  -15.4145   23.4077 O   0  0  0  0  0  0  0  0  0  0  0  0
    7.9363  -12.1777   19.0492 O   0  0  0  0  0  0  0  0  0  0  0  0
    9.1585  -16.2914   23.1526 N   0  0  0  0  0  0  0  0  0  0  0  0
    9.2088  -16.7365   24.5482 C   0  0  1  0  0  0  0  0  0  0  0  0
    9.9538  -18.0554   24.5581 C   0  0  0  0  0  0  0  0  0  0  0  0
   10.1539  -18.6062   25.9092 C   0  0  0  0  0  0  0  0  0  0  0  0
    9.3095  -18.3914   26.8089 O   0  0  0  0  0  0  0  0  0  0  0  0
    9.8267  -15.6967   25.4005 C   0  0  0  0  0  0  0  0  0  0  0  0
   11.0605  -15.3872   25.2603 O   0  0  0  0  0  0  0  0  0  0  0  0
   11.2910  -19.3614   26.1558 O   0  0  0  0  0  0  0  0  0  0  0  0
    8.8386  -13.0233   27.7363 C   0  0  0  0  0  0  0  0  0  0  0  0
    9.8462  -14.1000   27.3363 C   0  0  2  0  0  0  0  0  0  0  0  0
    9.1487  -14.9659   26.4105 N   0  0  0  0  0  0  0  0  0  0  0  0
   10.2492  -14.7815   28.5858 C   0  0  0  0  0  0  0  0  0  0  0  0
   11.0482  -14.1510   29.5291 O   0  0  0  0  0  0  0  0  0  0  0  0
    9.8912  -15.9531   28.8525 O   0  0  0  0  0  0  0  0  0  0  0  0
  2  1  1  1
  2  3  1  0
  3  4  1  0
  4  8  1  0
  5  4  2  0
  6  2  1  0
  7  6  2  0
  9  6  1  0
 10  9  1  0
 10 14  1  0
 10 11  1  6
 12 13  2  0
 12 11  1  0
 14 19  1  0
 15 14  2  0
 16 12  1  0
 18 17  1  1
 18 20  1  0
 19 18  1  0
 20 22  2  0
 20 21  1  0
M  END
$$$$
