DDA.pdb
     RDKit          3D

 22 21  0  0  1  0  0  0  0  0999 V2000
    9.9420  -13.1627   19.6559 N   0  0  0  0  0  0  0  0  0  0  0  0
    8.5587  -12.8170   19.9281 C   0  0  1  0  0  0  0  0  0  0  0  0
    7.6738  -13.0181   18.7172 C   0  0  0  0  0  0  0  0  0  0  0  0
    8.1515  -14.1181   17.8592 C   0  0  0  0  0  0  0  0  0  0  0  0
    8.6892  -15.1309   18.3742 O   0  0  0  0  0  0  0  0  0  0  0  0
    8.0915  -13.5850   21.0969 C   0  0  0  0  0  0  0  0  0  0  0  0
    6.8961  -13.4653   21.4911 O   0  0  0  0  0  0  0  0  0  0  0  0
    8.0396  -14.1004   16.4810 O   0  0  0  0  0  0  0  0  0  0  0  0
    8.9075  -14.4741   21.8335 N   0  0  0  0  0  0  0  0  0  0  0  0
    8.4081  -15.2054   23.0014 C   0  0  1  0  0  0  0  0  0  0  0  0
    9.1692  -16.5141   23.0538 C   0  0  0  0  0  0  0  0  0  0  0  0
    8.9252  -17.2860   24.2840 C   0  0  0  0  0  0  0  0  0  0  0  0
    7.7535  -17.5162   24.6618 O   0  0  0  0  0  0  0  0  0  0  0  0
    8.5490  -14.3847   24.2244 C   0  0  0  0  0  0  0  0  0  0  0  0
    9.7005  -13.9795   24.6086 O   0  0  0  0  0  0  0  0  0  0  0  0
   10.0167  -17.7465   25.0055 O   0  0  0  0  0  0  0  0  0  0  0  0
    6.3314  -12.4872   26.5069 C   0  0  0  0  0  0  0  0  0  0  0  0
    7.6772  -13.1561   26.2313 C   0  0  2  0  0  0  0  0  0  0  0  0
    7.4747  -13.9767   25.0570 N   0  0  0  0  0  0  0  0  0  0  0  0
    8.0121  -13.9377   27.4417 C   0  0  0  0  0  0  0  0  0  0  0  0
    8.3972  -13.3162   28.6212 O   0  0  0  0  0  0  0  0  0  0  0  0
    7.9646  -15.1904   27.4618 O   0  0  0  0  0  0  0  0  0  0  0  0
  2  1  1  6
  2  3  1  0
  3  4  1  0
  4  8  1  0
  5  4  2  0
  6  2  1  0
  7  6  2  0
  9  6  1  0
 10  9  1  0
 10 14  1  0
 10 11  1  1
 12 13  2  0
 12 11  1  0
 14 19  1  0
 15 14  2  0
 16 12  1  0
 18 17  1  1
 18 20  1  0
 19 18  1  0
 20 22  2  0
 20 21  1  0
M  END
$$$$
