DDA.pdb
     RDKit          3D

 22 21  0  0  1  0  0  0  0  0999 V2000
   12.0652  -17.3282   21.3085 N   0  0  0  0  0  0  0  0  0  0  0  0
   10.9871  -16.3568   21.2712 C   0  0  1  0  0  0  0  0  0  0  0  0
   10.0453  -16.5975   20.1116 C   0  0  0  0  0  0  0  0  0  0  0  0
   10.7702  -16.8225   18.8473 C   0  0  0  0  0  0  0  0  0  0  0  0
   12.0264  -16.7833   18.8257 O   0  0  0  0  0  0  0  0  0  0  0  0
   10.2891  -16.3621   22.5700 C   0  0  0  0  0  0  0  0  0  0  0  0
    9.2080  -15.7207   22.7055 O   0  0  0  0  0  0  0  0  0  0  0  0
   10.1304  -17.0818   17.6491 O   0  0  0  0  0  0  0  0  0  0  0  0
   10.7541  -17.0535   23.7122 N   0  0  0  0  0  0  0  0  0  0  0  0
    9.9785  -17.1189   24.9541 C   0  0  1  0  0  0  0  0  0  0  0  0
   10.1038  -18.5371   25.4716 C   0  0  0  0  0  0  0  0  0  0  0  0
   11.4978  -18.9681   25.6706 C   0  0  0  0  0  0  0  0  0  0  0  0
   12.0532  -18.8125   26.7824 O   0  0  0  0  0  0  0  0  0  0  0  0
   10.4466  -16.0918   25.9108 C   0  0  0  0  0  0  0  0  0  0  0  0
   11.6814  -15.7587   25.9571 O   0  0  0  0  0  0  0  0  0  0  0  0
   12.1722  -19.5451   24.6046 O   0  0  0  0  0  0  0  0  0  0  0  0
    9.0745  -13.3874   27.9644 C   0  0  0  0  0  0  0  0  0  0  0  0
   10.1478  -14.4615   27.7949 C   0  0  2  0  0  0  0  0  0  0  0  0
    9.6162  -15.3990   26.8295 N   0  0  0  0  0  0  0  0  0  0  0  0
   10.3607  -15.0557   29.1328 C   0  0  0  0  0  0  0  0  0  0  0  0
   10.9695  -14.3403   30.1541 O   0  0  0  0  0  0  0  0  0  0  0  0
   10.0040  -16.2258   29.4080 O   0  0  0  0  0  0  0  0  0  0  0  0
  2  1  1  1
  2  3  1  0
  3  4  1  0
  4  8  1  0
  5  4  2  0
  6  2  1  0
  7  6  2  0
  9  6  1  0
 10  9  1  0
 10 14  1  0
 10 11  1  1
 12 13  2  0
 12 11  1  0
 14 19  1  0
 15 14  2  0
 16 12  1  0
 18 17  1  1
 18 20  1  0
 19 18  1  0
 20 22  2  0
 20 21  1  0
M  END
$$$$
