DDA.pdb
     RDKit          3D

 22 21  0  0  1  0  0  0  0  0999 V2000
    8.8404  -20.1915   26.1714 N   0  0  0  0  0  0  0  0  0  0  0  0
   10.2073  -20.4383   26.5934 C   0  0  1  0  0  0  0  0  0  0  0  0
   10.6625  -21.8408   26.2539 C   0  0  0  0  0  0  0  0  0  0  0  0
    9.5562  -22.6746   25.7485 C   0  0  0  0  0  0  0  0  0  0  0  0
    8.5474  -22.8864   26.4679 O   0  0  0  0  0  0  0  0  0  0  0  0
   11.0851  -19.4077   26.0089 C   0  0  0  0  0  0  0  0  0  0  0  0
   12.3237  -19.4191   26.2626 O   0  0  0  0  0  0  0  0  0  0  0  0
    9.5636  -23.2542   24.4930 O   0  0  0  0  0  0  0  0  0  0  0  0
   10.6298  -18.3742   25.1584 N   0  0  0  0  0  0  0  0  0  0  0  0
   11.5336  -17.3570   24.6138 C   0  0  1  0  0  0  0  0  0  0  0  0
   11.2052  -17.2263   23.1407 C   0  0  0  0  0  0  0  0  0  0  0  0
   12.0760  -16.2768   22.4274 C   0  0  0  0  0  0  0  0  0  0  0  0
   13.0543  -15.7572   23.0118 O   0  0  0  0  0  0  0  0  0  0  0  0
   11.4019  -16.0910   25.3683 C   0  0  0  0  0  0  0  0  0  0  0  0
   12.1845  -15.1065   25.1315 O   0  0  0  0  0  0  0  0  0  0  0  0
   11.7865  -15.9766   21.1044 O   0  0  0  0  0  0  0  0  0  0  0  0
    8.9434  -14.1124   27.0041 C   0  0  0  0  0  0  0  0  0  0  0  0
   10.3882  -14.5976   27.1117 C   0  0  2  0  0  0  0  0  0  0  0  0
   10.4387  -15.8455   26.3811 N   0  0  0  0  0  0  0  0  0  0  0  0
   10.6718  -14.7520   28.5553 C   0  0  0  0  0  0  0  0  0  0  0  0
   10.7079  -13.6571   29.4071 O   0  0  0  0  0  0  0  0  0  0  0  0
   10.8914  -15.8709   29.0766 O   0  0  0  0  0  0  0  0  0  0  0  0
  2  1  1  6
  2  3  1  0
  3  4  1  0
  4  8  1  0
  5  4  2  0
  6  2  1  0
  7  6  2  0
  9  6  1  0
 10  9  1  0
 10 14  1  0
 10 11  1  6
 12 13  2  0
 12 11  1  0
 14 19  1  0
 15 14  2  0
 16 12  1  0
 18 17  1  1
 18 20  1  0
 19 18  1  0
 20 22  2  0
 20 21  1  0
M  END
$$$$
