DDA.pdb
     RDKit          3D

 22 21  0  0  1  0  0  0  0  0999 V2000
    9.0912  -15.7304   19.1780 N   0  0  0  0  0  0  0  0  0  0  0  0
    8.6366  -17.0788   18.8909 C   0  0  1  0  0  0  0  0  0  0  0  0
    9.0463  -17.5340   17.5072 C   0  0  0  0  0  0  0  0  0  0  0  0
    8.4511  -18.8362   17.1542 C   0  0  0  0  0  0  0  0  0  0  0  0
    7.4832  -19.2871   17.8175 O   0  0  0  0  0  0  0  0  0  0  0  0
    9.1240  -17.9861   19.9461 C   0  0  0  0  0  0  0  0  0  0  0  0
    9.4744  -19.1643   19.6500 O   0  0  0  0  0  0  0  0  0  0  0  0
    8.9087  -19.6132   16.1058 O   0  0  0  0  0  0  0  0  0  0  0  0
    9.2320  -17.6247   21.3087 N   0  0  0  0  0  0  0  0  0  0  0  0
   10.4640  -17.0651   21.8721 C   0  0  1  0  0  0  0  0  0  0  0  0
   11.3553  -16.7071   20.7007 C   0  0  0  0  0  0  0  0  0  0  0  0
   12.6350  -17.4358   20.6928 C   0  0  0  0  0  0  0  0  0  0  0  0
   13.3616  -17.4448   21.7130 O   0  0  0  0  0  0  0  0  0  0  0  0
   10.1544  -15.9204   22.7571 C   0  0  0  0  0  0  0  0  0  0  0  0
   11.0864  -15.3200   23.3964 O   0  0  0  0  0  0  0  0  0  0  0  0
   13.0100  -18.1050   19.5372 O   0  0  0  0  0  0  0  0  0  0  0  0
    7.3506  -13.6031   23.3823 C   0  0  0  0  0  0  0  0  0  0  0  0
    8.6135  -14.2966   23.8910 C   0  0  2  0  0  0  0  0  0  0  0  0
    8.8562  -15.3908   22.9761 N   0  0  0  0  0  0  0  0  0  0  0  0
    8.3204  -14.7408   25.2712 C   0  0  0  0  0  0  0  0  0  0  0  0
    8.2432  -13.8373   26.3215 O   0  0  0  0  0  0  0  0  0  0  0  0
    8.1283  -15.9462   25.5579 O   0  0  0  0  0  0  0  0  0  0  0  0
  2  1  1  1
  2  3  1  0
  3  4  1  0
  4  8  1  0
  5  4  2  0
  6  2  1  0
  7  6  2  0
  9  6  1  0
 10  9  1  0
 10 14  1  0
 10 11  1  6
 12 13  2  0
 12 11  1  0
 14 19  1  0
 15 14  2  0
 16 12  1  0
 18 17  1  6
 18 20  1  0
 19 18  1  0
 20 22  2  0
 20 21  1  0
M  END
$$$$
