DDA.pdb
     RDKit          3D

 22 21  0  0  1  0  0  0  0  0999 V2000
    8.7607  -14.5360   20.3033 N   0  0  0  0  0  0  0  0  0  0  0  0
    7.3925  -14.8223   20.6949 C   0  0  1  0  0  0  0  0  0  0  0  0
    6.7174  -15.7829   19.7404 C   0  0  0  0  0  0  0  0  0  0  0  0
    7.5595  -16.0805   18.5670 C   0  0  0  0  0  0  0  0  0  0  0  0
    8.1675  -15.1524   17.9762 O   0  0  0  0  0  0  0  0  0  0  0  0
    7.3825  -15.3143   22.0849 C   0  0  0  0  0  0  0  0  0  0  0  0
    6.2884  -15.6387   22.6292 O   0  0  0  0  0  0  0  0  0  0  0  0
    7.7242  -17.3579   18.0636 O   0  0  0  0  0  0  0  0  0  0  0  0
    8.5430  -15.4545   22.8800 N   0  0  0  0  0  0  0  0  0  0  0  0
    8.4933  -15.9810   24.2470 C   0  0  1  0  0  0  0  0  0  0  0  0
    9.7298  -16.8370   24.4292 C   0  0  0  0  0  0  0  0  0  0  0  0
   10.9824  -16.1364   24.0993 C   0  0  0  0  0  0  0  0  0  0  0  0
   11.3065  -15.9540   22.9033 O   0  0  0  0  0  0  0  0  0  0  0  0
    8.3852  -14.8747   25.2236 C   0  0  0  0  0  0  0  0  0  0  0  0
    8.7486  -15.0406   26.4394 O   0  0  0  0  0  0  0  0  0  0  0  0
   11.7852  -15.6886   25.1381 O   0  0  0  0  0  0  0  0  0  0  0  0
    7.3855  -11.2756   25.2053 C   0  0  0  0  0  0  0  0  0  0  0  0
    7.7211  -12.5666   25.9505 C   0  0  2  0  0  0  0  0  0  0  0  0
    7.8953  -13.5759   24.9287 N   0  0  0  0  0  0  0  0  0  0  0  0
    6.5810  -12.8375   26.8533 C   0  0  0  0  0  0  0  0  0  0  0  0
    6.3768  -12.0917   28.0056 O   0  0  0  0  0  0  0  0  0  0  0  0
    5.7490  -13.7470   26.6236 O   0  0  0  0  0  0  0  0  0  0  0  0
  2  1  1  6
  2  3  1  0
  3  4  1  0
  4  8  1  0
  5  4  2  0
  6  2  1  0
  7  6  2  0
  9  6  1  0
 10  9  1  0
 10 14  1  0
 10 11  1  1
 12 13  2  0
 12 11  1  0
 14 19  1  0
 15 14  2  0
 16 12  1  0
 18 17  1  6
 18 20  1  0
 19 18  1  0
 20 22  2  0
 20 21  1  0
M  END
$$$$
