DDA.pdb
     RDKit          3D

 22 21  0  0  1  0  0  0  0  0999 V2000
   10.0524  -14.2311   19.8087 N   0  0  0  0  0  0  0  0  0  0  0  0
    8.7922  -13.7429   20.3388 C   0  0  1  0  0  0  0  0  0  0  0  0
    7.6734  -13.8394   19.3246 C   0  0  0  0  0  0  0  0  0  0  0  0
    8.1522  -13.6097   17.9489 C   0  0  0  0  0  0  0  0  0  0  0  0
    9.2021  -14.1710   17.5453 O   0  0  0  0  0  0  0  0  0  0  0  0
    8.4818  -14.4666   21.5856 C   0  0  0  0  0  0  0  0  0  0  0  0
    7.3708  -14.2815   22.1601 O   0  0  0  0  0  0  0  0  0  0  0  0
    7.4950  -12.7892   17.0506 O   0  0  0  0  0  0  0  0  0  0  0  0
    9.3629  -15.3815   22.2064 N   0  0  0  0  0  0  0  0  0  0  0  0
    9.0704  -15.9841   23.5100 C   0  0  1  0  0  0  0  0  0  0  0  0
    9.7700  -17.3275   23.5357 C   0  0  0  0  0  0  0  0  0  0  0  0
    9.2680  -18.2700   22.5215 C   0  0  0  0  0  0  0  0  0  0  0  0
    9.9233  -18.4772   21.4744 O   0  0  0  0  0  0  0  0  0  0  0  0
    9.4828  -15.0765   24.6034 C   0  0  0  0  0  0  0  0  0  0  0  0
   10.7137  -14.7645   24.7624 O   0  0  0  0  0  0  0  0  0  0  0  0
    8.0625  -18.9152   22.7547 O   0  0  0  0  0  0  0  0  0  0  0  0
    7.9058  -12.7791   27.0407 C   0  0  0  0  0  0  0  0  0  0  0  0
    9.0760  -13.6796   26.6480 C   0  0  2  0  0  0  0  0  0  0  0  0
    8.6000  -14.4821   25.5422 N   0  0  0  0  0  0  0  0  0  0  0  0
    9.4124  -14.4764   27.8481 C   0  0  0  0  0  0  0  0  0  0  0  0
    9.1769  -15.8430   27.8991 O   0  0  0  0  0  0  0  0  0  0  0  0
    9.9232  -13.9605   28.8703 O   0  0  0  0  0  0  0  0  0  0  0  0
  2  1  1  6
  2  3  1  0
  3  4  1  0
  4  8  1  0
  5  4  2  0
  6  2  1  0
  7  6  2  0
  9  6  1  0
 10  9  1  0
 10 14  1  0
 10 11  1  1
 12 13  2  0
 12 11  1  0
 14 19  1  0
 15 14  2  0
 16 12  1  0
 18 17  1  1
 18 20  1  0
 19 18  1  0
 20 22  2  0
 20 21  1  0
M  END
$$$$
