DDA.pdb
     RDKit          3D

 22 21  0  0  1  0  0  0  0  0999 V2000
   12.1411  -17.8373   21.6396 N   0  0  0  0  0  0  0  0  0  0  0  0
   11.1563  -16.7789   21.7705 C   0  0  1  0  0  0  0  0  0  0  0  0
   10.1271  -16.8200   20.6621 C   0  0  0  0  0  0  0  0  0  0  0  0
   10.7444  -16.6947   19.3287 C   0  0  0  0  0  0  0  0  0  0  0  0
   10.2468  -17.2985   18.3449 O   0  0  0  0  0  0  0  0  0  0  0  0
   10.5415  -16.8562   23.1086 C   0  0  0  0  0  0  0  0  0  0  0  0
    9.4039  -16.3421   23.3086 O   0  0  0  0  0  0  0  0  0  0  0  0
   11.8713  -15.9297   19.0902 O   0  0  0  0  0  0  0  0  0  0  0  0
   11.1497  -17.4826   24.2206 N   0  0  0  0  0  0  0  0  0  0  0  0
   10.4957  -17.5531   25.5304 C   0  0  1  0  0  0  0  0  0  0  0  0
   10.9556  -18.8430   26.1780 C   0  0  0  0  0  0  0  0  0  0  0  0
   10.4064  -20.0498   25.5371 C   0  0  0  0  0  0  0  0  0  0  0  0
   11.1065  -20.7135   24.7384 O   0  0  0  0  0  0  0  0  0  0  0  0
   10.8019  -16.3442   26.3269 C   0  0  0  0  0  0  0  0  0  0  0  0
   12.0127  -16.0342   26.6019 O   0  0  0  0  0  0  0  0  0  0  0  0
    9.1062  -20.4275   25.8387 O   0  0  0  0  0  0  0  0  0  0  0  0
    8.9436  -13.5137   27.8956 C   0  0  0  0  0  0  0  0  0  0  0  0
   10.1651  -14.4281   27.8169 C   0  0  2  0  0  0  0  0  0  0  0  0
    9.8334  -15.4433   26.8408 N   0  0  0  0  0  0  0  0  0  0  0  0
   10.3716  -14.9693   29.1781 C   0  0  0  0  0  0  0  0  0  0  0  0
   10.9533  -14.2057   30.1801 O   0  0  0  0  0  0  0  0  0  0  0  0
   10.0334  -16.1353   29.4913 O   0  0  0  0  0  0  0  0  0  0  0  0
  2  1  1  6
  2  3  1  0
  3  4  1  0
  4  8  1  0
  5  4  2  0
  6  2  1  0
  7  6  2  0
  9  6  1  0
 10  9  1  0
 10 14  1  0
 10 11  1  1
 12 13  2  0
 12 11  1  0
 14 19  1  0
 15 14  2  0
 16 12  1  0
 18 17  1  1
 18 20  1  0
 19 18  1  0
 20 22  2  0
 20 21  1  0
M  END
$$$$
