DDA.pdb
     RDKit          3D

 22 21  0  0  1  0  0  0  0  0999 V2000
    9.5305  -14.9126   19.6179 N   0  0  0  0  0  0  0  0  0  0  0  0
    8.6205  -13.8908   20.1027 C   0  0  1  0  0  0  0  0  0  0  0  0
    7.5506  -13.5543   19.0869 C   0  0  0  0  0  0  0  0  0  0  0  0
    8.0711  -13.5750   17.7073 C   0  0  0  0  0  0  0  0  0  0  0  0
    9.1570  -13.0034   17.4350 O   0  0  0  0  0  0  0  0  0  0  0  0
    8.0518  -14.3250   21.3920 C   0  0  0  0  0  0  0  0  0  0  0  0
    7.1139  -13.6622   21.9207 O   0  0  0  0  0  0  0  0  0  0  0  0
    7.4156  -14.2047   16.6652 O   0  0  0  0  0  0  0  0  0  0  0  0
    8.4919  -15.4644   22.1041 N   0  0  0  0  0  0  0  0  0  0  0  0
    7.9629  -15.8103   23.4265 C   0  0  1  0  0  0  0  0  0  0  0  0
    8.2466  -17.2834   23.6373 C   0  0  0  0  0  0  0  0  0  0  0  0
    7.6020  -18.1537   22.6395 C   0  0  0  0  0  0  0  0  0  0  0  0
    6.3573  -18.1395   22.5008 O   0  0  0  0  0  0  0  0  0  0  0  0
    8.5523  -14.9355   24.4641 C   0  0  0  0  0  0  0  0  0  0  0  0
    9.8217  -14.8078   24.5651 O   0  0  0  0  0  0  0  0  0  0  0  0
    8.4022  -18.9811   21.8654 O   0  0  0  0  0  0  0  0  0  0  0  0
    7.3585  -12.3922   26.9007 C   0  0  0  0  0  0  0  0  0  0  0  0
    8.4466  -13.3396   26.3977 C   0  0  2  0  0  0  0  0  0  0  0  0
    7.8088  -14.1797   25.4074 N   0  0  0  0  0  0  0  0  0  0  0  0
    8.9285  -14.0886   27.5789 C   0  0  0  0  0  0  0  0  0  0  0  0
    8.7782  -15.4648   27.6741 O   0  0  0  0  0  0  0  0  0  0  0  0
    9.4925  -13.5215   28.5444 O   0  0  0  0  0  0  0  0  0  0  0  0
  2  1  1  6
  2  3  1  0
  3  4  1  0
  4  8  1  0
  5  4  2  0
  6  2  1  0
  7  6  2  0
  9  6  1  0
 10  9  1  0
 10 14  1  0
 10 11  1  1
 12 13  2  0
 12 11  1  0
 14 19  1  0
 15 14  2  0
 16 12  1  0
 18 17  1  1
 18 20  1  0
 19 18  1  0
 20 22  2  0
 20 21  1  0
M  END
$$$$
