DDA.pdb
     RDKit          3D

 22 21  0  0  1  0  0  0  0  0999 V2000
    8.3546  -16.1982   20.2468 N   0  0  0  0  0  0  0  0  0  0  0  0
    8.2470  -14.9172   20.9213 C   0  0  1  0  0  0  0  0  0  0  0  0
    7.3595  -13.9509   20.1675 C   0  0  0  0  0  0  0  0  0  0  0  0
    7.8714  -13.6703   18.8134 C   0  0  0  0  0  0  0  0  0  0  0  0
    8.9597  -14.1726   18.4347 O   0  0  0  0  0  0  0  0  0  0  0  0
    7.7862  -15.1386   22.3044 C   0  0  0  0  0  0  0  0  0  0  0  0
    6.9337  -14.3573   22.8158 O   0  0  0  0  0  0  0  0  0  0  0  0
    7.2050  -12.8637   17.9093 O   0  0  0  0  0  0  0  0  0  0  0  0
    8.2418  -16.1936   23.1279 N   0  0  0  0  0  0  0  0  0  0  0  0
    7.8320  -16.3222   24.5292 C   0  0  1  0  0  0  0  0  0  0  0  0
    7.7875  -17.8050   24.8357 C   0  0  0  0  0  0  0  0  0  0  0  0
    6.4587  -18.4066   24.6326 C   0  0  0  0  0  0  0  0  0  0  0  0
    5.7008  -17.9727   23.7349 O   0  0  0  0  0  0  0  0  0  0  0  0
    8.7465  -15.5594   25.4074 C   0  0  0  0  0  0  0  0  0  0  0  0
   10.0119  -15.7406   25.3455 O   0  0  0  0  0  0  0  0  0  0  0  0
    6.0732  -19.4558   25.4540 O   0  0  0  0  0  0  0  0  0  0  0  0
    8.5252  -12.7723   27.8723 C   0  0  0  0  0  0  0  0  0  0  0  0
    9.2700  -13.9638   27.2721 C   0  0  2  0  0  0  0  0  0  0  0  0
    8.3376  -14.5911   26.3608 N   0  0  0  0  0  0  0  0  0  0  0  0
    9.6546  -14.8319   28.4064 C   0  0  0  0  0  0  0  0  0  0  0  0
   10.6546  -14.4619   29.2946 O   0  0  0  0  0  0  0  0  0  0  0  0
    9.1002  -15.9360   28.6200 O   0  0  0  0  0  0  0  0  0  0  0  0
  2  1  1  6
  2  3  1  0
  3  4  1  0
  4  8  1  0
  5  4  2  0
  6  2  1  0
  7  6  2  0
  9  6  1  0
 10  9  1  0
 10 14  1  0
 10 11  1  1
 12 13  2  0
 12 11  1  0
 14 19  1  0
 15 14  2  0
 16 12  1  0
 18 17  1  1
 18 20  1  0
 19 18  1  0
 20 22  2  0
 20 21  1  0
M  END
$$$$
