DDA.pdb
     RDKit          3D

 22 21  0  0  1  0  0  0  0  0999 V2000
    6.4875  -15.9143   20.3469 N   0  0  0  0  0  0  0  0  0  0  0  0
    7.7602  -15.3873   20.8048 C   0  0  1  0  0  0  0  0  0  0  0  0
    7.8939  -13.9055   20.5292 C   0  0  0  0  0  0  0  0  0  0  0  0
    8.0898  -13.6247   19.0948 C   0  0  0  0  0  0  0  0  0  0  0  0
    8.3119  -14.5670   18.2931 O   0  0  0  0  0  0  0  0  0  0  0  0
    7.9281  -15.7084   22.2341 C   0  0  0  0  0  0  0  0  0  0  0  0
    6.9385  -15.6286   23.0170 O   0  0  0  0  0  0  0  0  0  0  0  0
    8.0420  -12.3485   18.5645 O   0  0  0  0  0  0  0  0  0  0  0  0
    9.1532  -16.1119   22.8129 N   0  0  0  0  0  0  0  0  0  0  0  0
    9.2456  -16.5743   24.2007 C   0  0  1  0  0  0  0  0  0  0  0  0
   10.3452  -17.6155   24.2406 C   0  0  0  0  0  0  0  0  0  0  0  0
   10.6030  -18.1454   25.5902 C   0  0  0  0  0  0  0  0  0  0  0  0
   11.7697  -18.1711   26.0451 O   0  0  0  0  0  0  0  0  0  0  0  0
    9.4738  -15.4315   25.1124 C   0  0  0  0  0  0  0  0  0  0  0  0
   10.5672  -14.7681   25.0652 O   0  0  0  0  0  0  0  0  0  0  0  0
    9.5301  -18.6102   26.3364 O   0  0  0  0  0  0  0  0  0  0  0  0
    7.5609  -13.2397   27.3718 C   0  0  0  0  0  0  0  0  0  0  0  0
    8.8809  -13.9315   27.0348 C   0  0  2  0  0  0  0  0  0  0  0  0
    8.5483  -14.9704   26.0843 N   0  0  0  0  0  0  0  0  0  0  0  0
    9.4174  -14.4543   28.3104 C   0  0  0  0  0  0  0  0  0  0  0  0
    9.5415  -15.8173   28.5391 O   0  0  0  0  0  0  0  0  0  0  0  0
    9.7840  -13.6976   29.2405 O   0  0  0  0  0  0  0  0  0  0  0  0
  2  1  1  1
  2  3  1  0
  3  4  1  0
  4  8  1  0
  5  4  2  0
  6  2  1  0
  7  6  2  0
  9  6  1  0
 10  9  1  0
 10 14  1  0
 10 11  1  6
 12 13  2  0
 12 11  1  0
 14 19  1  0
 15 14  2  0
 16 12  1  0
 18 17  1  1
 18 20  1  0
 19 18  1  0
 20 22  2  0
 20 21  1  0
M  END
$$$$
