DDA.pdb
     RDKit          3D

 22 21  0  0  1  0  0  0  0  0999 V2000
   11.4940  -17.5298   21.3118 N   0  0  0  0  0  0  0  0  0  0  0  0
   10.5409  -16.4377   21.2334 C   0  0  1  0  0  0  0  0  0  0  0  0
    9.6094  -16.5803   20.0494 C   0  0  0  0  0  0  0  0  0  0  0  0
   10.3447  -16.6698   18.7744 C   0  0  0  0  0  0  0  0  0  0  0  0
   11.5992  -16.5911   18.7637 O   0  0  0  0  0  0  0  0  0  0  0  0
    9.8116  -16.3424   22.5114 C   0  0  0  0  0  0  0  0  0  0  0  0
    8.9120  -15.4662   22.6583 O   0  0  0  0  0  0  0  0  0  0  0  0
    9.7168  -16.8400   17.5541 O   0  0  0  0  0  0  0  0  0  0  0  0
   10.0515  -17.1854   23.6208 N   0  0  0  0  0  0  0  0  0  0  0  0
    9.2995  -17.0603   24.8726 C   0  0  1  0  0  0  0  0  0  0  0  0
    9.1006  -18.4651   25.4034 C   0  0  0  0  0  0  0  0  0  0  0  0
    7.9111  -19.1372   24.8537 C   0  0  0  0  0  0  0  0  0  0  0  0
    6.8493  -18.4963   24.6791 O   0  0  0  0  0  0  0  0  0  0  0  0
   10.0063  -16.1626   25.8128 C   0  0  0  0  0  0  0  0  0  0  0  0
   11.2778  -16.2259   25.9435 O   0  0  0  0  0  0  0  0  0  0  0  0
    7.9975  -20.4850   24.5378 O   0  0  0  0  0  0  0  0  0  0  0  0
    9.1910  -13.1988   27.9133 C   0  0  0  0  0  0  0  0  0  0  0  0
   10.1272  -14.3476   27.5415 C   0  0  2  0  0  0  0  0  0  0  0  0
    9.3802  -15.1821   26.6255 N   0  0  0  0  0  0  0  0  0  0  0  0
   10.4745  -15.0311   28.8066 C   0  0  0  0  0  0  0  0  0  0  0  0
   11.3641  -14.4703   29.7119 O   0  0  0  0  0  0  0  0  0  0  0  0
    9.9857  -16.1421   29.1210 O   0  0  0  0  0  0  0  0  0  0  0  0
  2  1  1  1
  2  3  1  0
  3  4  1  0
  4  8  1  0
  5  4  2  0
  6  2  1  0
  7  6  2  0
  9  6  1  0
 10  9  1  0
 10 14  1  0
 10 11  1  1
 12 13  2  0
 12 11  1  0
 14 19  1  0
 15 14  2  0
 16 12  1  0
 18 17  1  1
 18 20  1  0
 19 18  1  0
 20 22  2  0
 20 21  1  0
M  END
$$$$
