DDA.pdb
     RDKit          3D

 22 21  0  0  1  0  0  0  0  0999 V2000
   -2.9908  -28.3160   29.1310 N   0  0  0  0  0  0  0  0  0  0  0  0
   -2.5434  -26.9691   28.8261 C   0  0  1  0  0  0  0  0  0  0  0  0
   -1.5203  -26.9488   27.7114 C   0  0  0  0  0  0  0  0  0  0  0  0
   -0.2777  -27.6480   28.0878 C   0  0  0  0  0  0  0  0  0  0  0  0
   -0.1470  -28.1216   29.2448 O   0  0  0  0  0  0  0  0  0  0  0  0
   -3.7168  -26.1286   28.5247 C   0  0  0  0  0  0  0  0  0  0  0  0
   -3.5548  -24.9780   28.0263 O   0  0  0  0  0  0  0  0  0  0  0  0
    0.7831  -27.8181   27.2173 O   0  0  0  0  0  0  0  0  0  0  0  0
   -5.0529  -26.5267   28.7593 N   0  0  0  0  0  0  0  0  0  0  0  0
   -6.1949  -25.6959   28.3669 C   0  0  1  0  0  0  0  0  0  0  0  0
   -7.4303  -26.5621   28.5018 C   0  0  0  0  0  0  0  0  0  0  0  0
   -7.6017  -27.5167   27.3936 C   0  0  0  0  0  0  0  0  0  0  0  0
   -7.2765  -27.1942   26.2279 O   0  0  0  0  0  0  0  0  0  0  0  0
   -6.2405  -24.4617   29.1816 C   0  0  0  0  0  0  0  0  0  0  0  0
   -6.1930  -24.5216   30.4591 O   0  0  0  0  0  0  0  0  0  0  0  0
   -8.1274  -28.7695   27.6728 O   0  0  0  0  0  0  0  0  0  0  0  0
   -5.7419  -20.8484   28.6528 C   0  0  0  0  0  0  0  0  0  0  0  0
   -6.3203  -21.9748   29.5078 C   0  0  2  0  0  0  0  0  0  0  0  0
   -6.3329  -23.1459   28.6582 N   0  0  0  0  0  0  0  0  0  0  0  0
   -7.6713  -21.5359   29.9207 C   0  0  0  0  0  0  0  0  0  0  0  0
   -7.8511  -20.4864   30.8105 O   0  0  0  0  0  0  0  0  0  0  0  0
   -8.7125  -22.0859   29.4901 O   0  0  0  0  0  0  0  0  0  0  0  0
  2  1  1  6
  2  3  1  0
  3  4  1  0
  4  8  1  0
  5  4  2  0
  6  2  1  0
  7  6  2  0
  9  6  1  0
 10  9  1  0
 10 14  1  0
 10 11  1  1
 12 13  2  0
 12 11  1  0
 14 19  1  0
 15 14  2  0
 16 12  1  0
 18 17  1  6
 18 20  1  0
 19 18  1  0
 20 22  2  0
 20 21  1  0
M  END
$$$$
