DDA.pdb
     RDKit          3D

 22 21  0  0  1  0  0  0  0  0999 V2000
   12.2736  -17.2211   21.6847 N   0  0  0  0  0  0  0  0  0  0  0  0
   11.2388  -16.2032   21.6681 C   0  0  1  0  0  0  0  0  0  0  0  0
   10.3733  -16.2928   20.4301 C   0  0  0  0  0  0  0  0  0  0  0  0
   11.0313  -17.0486   19.3483 C   0  0  0  0  0  0  0  0  0  0  0  0
   12.2834  -17.0301   19.2381 O   0  0  0  0  0  0  0  0  0  0  0  0
   10.4504  -16.2978   22.9106 C   0  0  0  0  0  0  0  0  0  0  0  0
    9.4410  -15.5540   23.0730 O   0  0  0  0  0  0  0  0  0  0  0  0
   10.3314  -17.7984   18.4208 O   0  0  0  0  0  0  0  0  0  0  0  0
   10.7493  -17.1872   23.9681 N   0  0  0  0  0  0  0  0  0  0  0  0
    9.9753  -17.2076   25.2126 C   0  0  1  0  0  0  0  0  0  0  0  0
   10.0923  -18.6092   25.7753 C   0  0  0  0  0  0  0  0  0  0  0  0
    9.4919  -19.6402   24.9120 C   0  0  0  0  0  0  0  0  0  0  0  0
    8.3095  -19.5209   24.5166 O   0  0  0  0  0  0  0  0  0  0  0  0
   10.4518  -16.1534   26.1352 C   0  0  0  0  0  0  0  0  0  0  0  0
   11.7003  -16.0181   26.3813 O   0  0  0  0  0  0  0  0  0  0  0  0
   10.2633  -20.7354   24.5522 O   0  0  0  0  0  0  0  0  0  0  0  0
    9.0517  -13.2062   27.9197 C   0  0  0  0  0  0  0  0  0  0  0  0
   10.1354  -14.2722   27.7655 C   0  0  2  0  0  0  0  0  0  0  0  0
    9.6162  -15.2243   26.8078 N   0  0  0  0  0  0  0  0  0  0  0  0
   10.3484  -14.8506   29.1103 C   0  0  0  0  0  0  0  0  0  0  0  0
    9.9769  -16.1548   29.4045 O   0  0  0  0  0  0  0  0  0  0  0  0
   10.8713  -14.1962   30.0432 O   0  0  0  0  0  0  0  0  0  0  0  0
  2  1  1  6
  2  3  1  0
  3  4  1  0
  4  8  1  0
  5  4  2  0
  6  2  1  0
  7  6  2  0
  9  6  1  0
 10  9  1  0
 10 14  1  0
 10 11  1  1
 12 13  2  0
 12 11  1  0
 14 19  1  0
 15 14  2  0
 16 12  1  0
 18 17  1  1
 18 20  1  0
 19 18  1  0
 20 22  2  0
 20 21  1  0
M  END
$$$$
