IPH.pdb
     RDKit          3D

 26 27  0  0  1  0  0  0  0  0999 V2000
    6.9968  -11.7909   27.9644 C   0  0  0  0  0  0  0  0  0  0  0  0
    6.1225  -12.4800   26.9504 C   0  0  0  0  0  0  0  0  0  0  0  0
    6.9457  -13.4601   26.1451 C   0  0  2  0  0  0  0  0  0  0  0  0
    8.1348  -12.7711   25.5060 C   0  0  0  0  0  0  0  0  0  0  0  0
    6.1289  -14.2067   25.1090 C   0  0  2  0  0  0  0  0  0  0  0  0
    5.1239  -14.9592   25.8664 N   0  0  0  0  0  0  0  0  0  0  0  0
    6.9096  -15.0911   24.2421 C   0  0  0  0  0  0  0  0  0  0  0  0
    7.0963  -16.2987   24.5789 O   0  0  0  0  0  0  0  0  0  0  0  0
    7.4606  -14.6162   23.0316 N   0  0  0  0  0  0  0  0  0  0  0  0
    7.4027  -13.3046   22.4778 C   0  0  0  0  0  0  0  0  0  0  0  0
    8.1424  -13.3456   21.1455 C   0  0  0  0  0  0  0  0  0  0  0  0
    8.2086  -14.7893   20.7821 C   0  0  0  0  0  0  0  0  0  0  0  0
    8.2109  -15.4673   22.1232 C   0  0  1  0  0  0  0  0  0  0  0  0
    9.5925  -15.7236   22.6067 C   0  0  0  0  0  0  0  0  0  0  0  0
   10.2762  -14.7696   23.0613 O   0  0  0  0  0  0  0  0  0  0  0  0
   10.1715  -17.0080   22.5739 N   0  0  0  0  0  0  0  0  0  0  0  0
   11.5483  -17.2872   23.0246 C   0  0  1  0  0  0  0  0  0  0  0  0
   11.6248  -18.6248   23.6644 C   0  0  0  0  0  0  0  0  0  0  0  0
   10.7368  -18.7342   24.8290 C   0  0  0  0  0  0  0  0  0  0  0  0
   10.9061  -17.9711   26.0033 C   0  0  0  0  0  0  0  0  0  0  0  0
    9.9368  -18.3001   26.8735 N   0  0  0  0  0  0  0  0  0  0  0  0
    9.1701  -19.2307   26.3015 C   0  0  0  0  0  0  0  0  0  0  0  0
    9.6620  -19.4750   25.0867 N   0  0  0  0  0  0  0  0  0  0  0  0
   12.4596  -17.2070   21.8605 C   0  0  0  0  0  0  0  0  0  0  0  0
   13.8440  -17.2807   22.1109 O   0  0  0  0  0  0  0  0  0  0  0  0
   12.1429  -17.0811   20.6725 O   0  0  0  0  0  0  0  0  0  0  0  0
  2  3  1  0
  2  1  1  0
  3  4  1  6
  5  6  1  1
  5  3  1  0
  7  5  1  0
  8  7  2  0
  9  7  1  0
 10  9  1  0
 11 10  1  0
 11 12  1  0
 12 13  1  0
 13  9  1  0
 14 15  2  0
 13 14  1  1
 16 14  1  0
 17 16  1  0
 17 24  1  0
 17 18  1  6
 19 18  1  0
 20 19  2  0
 21 22  1  0
 21 20  1  0
 22 23  2  0
 23 19  1  0
 24 26  2  0
 24 25  1  0
M  END
$$$$
