IPH.pdb
     RDKit          3D

 26 27  0  0  1  0  0  0  0  0999 V2000
    5.5766  -11.4133   27.4132 C   0  0  0  0  0  0  0  0  0  0  0  0
    5.1901  -12.7060   26.7447 C   0  0  0  0  0  0  0  0  0  0  0  0
    6.4160  -13.3629   26.1511 C   0  0  2  0  0  0  0  0  0  0  0  0
    7.1559  -12.4041   25.2397 C   0  0  0  0  0  0  0  0  0  0  0  0
    6.1022  -14.6612   25.4340 C   0  0  2  0  0  0  0  0  0  0  0  0
    5.3957  -15.4922   26.4139 N   0  0  0  0  0  0  0  0  0  0  0  0
    7.2729  -15.3567   24.8967 C   0  0  0  0  0  0  0  0  0  0  0  0
    7.9295  -16.1489   25.6371 O   0  0  0  0  0  0  0  0  0  0  0  0
    7.6837  -15.1564   23.5605 N   0  0  0  0  0  0  0  0  0  0  0  0
    7.1772  -14.2347   22.5990 C   0  0  0  0  0  0  0  0  0  0  0  0
    7.9625  -14.4516   21.3105 C   0  0  0  0  0  0  0  0  0  0  0  0
    8.5844  -15.7979   21.4564 C   0  0  0  0  0  0  0  0  0  0  0  0
    8.7533  -15.9238   22.9443 C   0  0  1  0  0  0  0  0  0  0  0  0
   10.0970  -15.4676   23.3851 C   0  0  0  0  0  0  0  0  0  0  0  0
   10.2343  -14.3068   23.8522 O   0  0  0  0  0  0  0  0  0  0  0  0
   11.2349  -16.2945   23.2979 N   0  0  0  0  0  0  0  0  0  0  0  0
   12.0947  -16.6129   24.4537 C   0  0  1  0  0  0  0  0  0  0  0  0
   11.2866  -17.1807   25.5623 C   0  0  0  0  0  0  0  0  0  0  0  0
   11.2055  -16.2706   26.7121 C   0  0  0  0  0  0  0  0  0  0  0  0
   11.6262  -14.9250   26.6627 C   0  0  0  0  0  0  0  0  0  0  0  0
   11.4199  -14.3655   27.8666 N   0  0  0  0  0  0  0  0  0  0  0  0
   10.8912  -15.2942   28.6659 C   0  0  0  0  0  0  0  0  0  0  0  0
   10.7715  -16.4195   27.9610 N   0  0  0  0  0  0  0  0  0  0  0  0
   13.1427  -17.5663   24.0237 C   0  0  0  0  0  0  0  0  0  0  0  0
   14.4831  -17.1400   24.1028 O   0  0  0  0  0  0  0  0  0  0  0  0
   12.9771  -18.7139   23.5958 O   0  0  0  0  0  0  0  0  0  0  0  0
  2  3  1  0
  2  1  1  0
  3  4  1  6
  5  6  1  1
  5  3  1  0
  7  5  1  0
  8  7  2  0
  9  7  1  0
 10  9  1  0
 11 10  1  0
 11 12  1  0
 12 13  1  0
 13  9  1  0
 14 15  2  0
 13 14  1  1
 16 14  1  0
 17 16  1  0
 17 24  1  0
 17 18  1  1
 19 18  1  0
 20 19  2  0
 21 22  1  0
 21 20  1  0
 22 23  2  0
 23 19  1  0
 24 26  2  0
 24 25  1  0
M  END
$$$$
