IPH.pdb
     RDKit          3D

 26 27  0  0  1  0  0  0  0  0999 V2000
    8.4893  -16.0570   14.7159 C   0  0  0  0  0  0  0  0  0  0  0  0
    7.9250  -15.0526   15.6855 C   0  0  0  0  0  0  0  0  0  0  0  0
    8.7540  -15.0388   16.9501 C   0  0  2  0  0  0  0  0  0  0  0  0
    8.8106  -16.4185   17.5751 C   0  0  0  0  0  0  0  0  0  0  0  0
    8.2824  -14.0063   17.9548 C   0  0  2  0  0  0  0  0  0  0  0  0
    8.3524  -12.7177   17.2585 N   0  0  0  0  0  0  0  0  0  0  0  0
    9.0499  -13.9765   19.2010 C   0  0  0  0  0  0  0  0  0  0  0  0
   10.2653  -13.6170   19.1837 O   0  0  0  0  0  0  0  0  0  0  0  0
    8.4538  -14.3448   20.4272 N   0  0  0  0  0  0  0  0  0  0  0  0
    7.1243  -14.7938   20.6746 C   0  0  0  0  0  0  0  0  0  0  0  0
    7.0020  -15.0328   22.1753 C   0  0  0  0  0  0  0  0  0  0  0  0
    8.1370  -14.2818   22.7821 C   0  0  0  0  0  0  0  0  0  0  0  0
    9.1703  -14.3074   21.6912 C   0  0  1  0  0  0  0  0  0  0  0  0
   10.1008  -15.4559   21.8429 C   0  0  0  0  0  0  0  0  0  0  0  0
    9.7864  -16.5753   21.3609 O   0  0  0  0  0  0  0  0  0  0  0  0
   11.3344  -15.3371   22.5139 N   0  0  0  0  0  0  0  0  0  0  0  0
   12.3015  -16.4450   22.6326 C   0  0  1  0  0  0  0  0  0  0  0  0
   13.6839  -15.9556   22.4004 C   0  0  0  0  0  0  0  0  0  0  0  0
   13.8586  -15.4074   21.0491 C   0  0  0  0  0  0  0  0  0  0  0  0
   13.2243  -15.9457   19.9098 C   0  0  0  0  0  0  0  0  0  0  0  0
   13.5841  -15.2231   18.8358 N   0  0  0  0  0  0  0  0  0  0  0  0
   14.4114  -14.2601   19.2471 C   0  0  0  0  0  0  0  0  0  0  0  0
   14.5618  -14.3866   20.5657 N   0  0  0  0  0  0  0  0  0  0  0  0
   12.1756  -17.0495   23.9782 C   0  0  0  0  0  0  0  0  0  0  0  0
   12.9680  -18.1794   24.2613 O   0  0  0  0  0  0  0  0  0  0  0  0
   11.4438  -16.6724   24.9000 O   0  0  0  0  0  0  0  0  0  0  0  0
  2  3  1  0
  2  1  1  0
  3  4  1  1
  5  6  1  6
  5  3  1  0
  7  5  1  0
  8  7  2  0
  9  7  1  0
 10  9  1  0
 11 10  1  0
 11 12  1  0
 12 13  1  0
 13  9  1  0
 14 15  2  0
 13 14  1  1
 16 14  1  0
 17 16  1  0
 17 24  1  0
 17 18  1  1
 19 18  1  0
 20 19  2  0
 21 22  1  0
 21 20  1  0
 22 23  2  0
 23 19  1  0
 24 26  2  0
 24 25  1  0
M  END
$$$$
