IPH.pdb
     RDKit          3D

 26 27  0  0  1  0  0  0  0  0999 V2000
    6.2457  -11.7746   27.3523 C   0  0  0  0  0  0  0  0  0  0  0  0
    5.5965  -12.8353   26.5032 C   0  0  0  0  0  0  0  0  0  0  0  0
    6.6582  -13.6410   25.7887 C   0  0  2  0  0  0  0  0  0  0  0  0
    7.5803  -12.7374   24.9947 C   0  0  0  0  0  0  0  0  0  0  0  0
    6.0803  -14.7337   24.9112 C   0  0  2  0  0  0  0  0  0  0  0  0
    5.2744  -15.5720   25.8043 N   0  0  0  0  0  0  0  0  0  0  0  0
    7.0788  -15.5303   24.1960 C   0  0  0  0  0  0  0  0  0  0  0  0
    7.5373  -16.5873   24.7245 O   0  0  0  0  0  0  0  0  0  0  0  0
    7.5414  -15.1361   22.9212 N   0  0  0  0  0  0  0  0  0  0  0  0
    7.1371  -14.0226   22.1294 C   0  0  0  0  0  0  0  0  0  0  0  0
    7.9381  -14.0774   20.8335 C   0  0  0  0  0  0  0  0  0  0  0  0
    8.4461  -15.4758   20.7496 C   0  0  0  0  0  0  0  0  0  0  0  0
    8.5629  -15.8717   22.1945 C   0  0  1  0  0  0  0  0  0  0  0  0
    9.9260  -15.6128   22.7265 C   0  0  0  0  0  0  0  0  0  0  0  0
   10.0890  -14.7297   23.6085 O   0  0  0  0  0  0  0  0  0  0  0  0
   11.0544  -16.3261   22.2749 N   0  0  0  0  0  0  0  0  0  0  0  0
   11.8923  -17.1594   23.1581 C   0  0  1  0  0  0  0  0  0  0  0  0
   11.0653  -18.1829   23.8457 C   0  0  0  0  0  0  0  0  0  0  0  0
   10.9002  -17.8932   25.2761 C   0  0  0  0  0  0  0  0  0  0  0  0
   11.3978  -16.7243   25.8893 C   0  0  0  0  0  0  0  0  0  0  0  0
   11.0829  -16.7564   27.1950 N   0  0  0  0  0  0  0  0  0  0  0  0
   10.4134  -17.8871   27.4283 C   0  0  0  0  0  0  0  0  0  0  0  0
   10.3151  -18.5489   26.2751 N   0  0  0  0  0  0  0  0  0  0  0  0
   12.9552  -17.7976   22.3489 C   0  0  0  0  0  0  0  0  0  0  0  0
   12.5631  -18.7746   21.4128 O   0  0  0  0  0  0  0  0  0  0  0  0
   14.1690  -17.5696   22.3983 O   0  0  0  0  0  0  0  0  0  0  0  0
  2  3  1  0
  2  1  1  0
  3  4  1  6
  5  6  1  1
  5  3  1  0
  7  5  1  0
  8  7  2  0
  9  7  1  0
 10  9  1  0
 11 10  1  0
 11 12  1  0
 12 13  1  0
 13  9  1  0
 14 15  2  0
 13 14  1  1
 16 14  1  0
 17 16  1  0
 17 24  1  0
 17 18  1  6
 19 18  1  0
 20 19  2  0
 21 22  1  0
 21 20  1  0
 22 23  2  0
 23 19  1  0
 24 26  2  0
 24 25  1  0
M  END
$$$$
