IPH.pdb
     RDKit          3D

 26 27  0  0  1  0  0  0  0  0999 V2000
    6.1828  -11.1166   27.0648 C   0  0  0  0  0  0  0  0  0  0  0  0
    5.5981  -12.3323   26.3956 C   0  0  0  0  0  0  0  0  0  0  0  0
    6.7100  -13.2315   25.9039 C   0  0  2  0  0  0  0  0  0  0  0  0
    7.6573  -12.4734   24.9956 C   0  0  0  0  0  0  0  0  0  0  0  0
    6.1985  -14.4883   25.2279 C   0  0  2  0  0  0  0  0  0  0  0  0
    5.3466  -15.1512   26.2203 N   0  0  0  0  0  0  0  0  0  0  0  0
    7.2473  -15.3884   24.7453 C   0  0  0  0  0  0  0  0  0  0  0  0
    7.6977  -16.2961   25.5069 O   0  0  0  0  0  0  0  0  0  0  0  0
    7.7674  -15.2591   23.4387 N   0  0  0  0  0  0  0  0  0  0  0  0
    7.3717  -14.3621   22.4047 C   0  0  0  0  0  0  0  0  0  0  0  0
    8.2455  -14.6602   21.1916 C   0  0  0  0  0  0  0  0  0  0  0  0
    8.8032  -16.0197   21.4391 C   0  0  0  0  0  0  0  0  0  0  0  0
    8.8517  -16.0883   22.9395 C   0  0  1  0  0  0  0  0  0  0  0  0
   10.1736  -15.6603   23.4664 C   0  0  0  0  0  0  0  0  0  0  0  0
   10.3353  -14.4689   23.8390 O   0  0  0  0  0  0  0  0  0  0  0  0
   11.2640  -16.5477   23.5647 N   0  0  0  0  0  0  0  0  0  0  0  0
   12.0188  -16.7677   24.8131 C   0  0  1  0  0  0  0  0  0  0  0  0
   11.1319  -17.3238   25.8659 C   0  0  0  0  0  0  0  0  0  0  0  0
   10.7781  -16.3214   26.8794 C   0  0  0  0  0  0  0  0  0  0  0  0
   10.8783  -14.9317   26.6586 C   0  0  0  0  0  0  0  0  0  0  0  0
   10.4810  -14.2900   27.7701 N   0  0  0  0  0  0  0  0  0  0  0  0
   10.1374  -15.2093   28.6744 C   0  0  0  0  0  0  0  0  0  0  0  0
   10.3209  -16.4105   28.1258 N   0  0  0  0  0  0  0  0  0  0  0  0
   13.1472  -17.6853   24.5359 C   0  0  0  0  0  0  0  0  0  0  0  0
   14.4350  -17.2712   24.9292 O   0  0  0  0  0  0  0  0  0  0  0  0
   13.0913  -18.7929   23.9904 O   0  0  0  0  0  0  0  0  0  0  0  0
  2  3  1  0
  2  1  1  0
  3  4  1  6
  5  6  1  1
  5  3  1  0
  7  5  1  0
  8  7  2  0
  9  7  1  0
 10  9  1  0
 11 10  1  0
 11 12  1  0
 12 13  1  0
 13  9  1  0
 14 15  2  0
 13 14  1  1
 16 14  1  0
 17 16  1  0
 17 24  1  0
 17 18  1  1
 19 18  1  0
 20 19  2  0
 21 22  1  0
 21 20  1  0
 22 23  2  0
 23 19  1  0
 24 26  2  0
 24 25  1  0
M  END
$$$$
