IPH.pdb
     RDKit          3D

 26 27  0  0  1  0  0  0  0  0999 V2000
    6.3048  -11.7137   27.6019 C   0  0  0  0  0  0  0  0  0  0  0  0
    5.7552  -12.7698   26.6798 C   0  0  0  0  0  0  0  0  0  0  0  0
    6.8800  -13.6450   26.1744 C   0  0  2  0  0  0  0  0  0  0  0  0
    7.9874  -12.8066   25.5676 C   0  0  0  0  0  0  0  0  0  0  0  0
    6.4098  -14.7093   25.2026 C   0  0  2  0  0  0  0  0  0  0  0  0
    5.3887  -15.4771   25.9222 N   0  0  0  0  0  0  0  0  0  0  0  0
    7.4708  -15.5829   24.6983 C   0  0  0  0  0  0  0  0  0  0  0  0
    7.8721  -16.5573   25.4026 O   0  0  0  0  0  0  0  0  0  0  0  0
    8.0567  -15.3542   23.4338 N   0  0  0  0  0  0  0  0  0  0  0  0
    7.7041  -14.3879   22.4477 C   0  0  0  0  0  0  0  0  0  0  0  0
    8.6438  -14.5892   21.2643 C   0  0  0  0  0  0  0  0  0  0  0  0
    9.2052  -15.9580   21.4423 C   0  0  0  0  0  0  0  0  0  0  0  0
    9.1761  -16.1351   22.9342 C   0  0  1  0  0  0  0  0  0  0  0  0
   10.4631  -15.7348   23.5600 C   0  0  0  0  0  0  0  0  0  0  0  0
   10.8196  -14.5282   23.5249 O   0  0  0  0  0  0  0  0  0  0  0  0
   11.3080  -16.6657   24.1970 N   0  0  0  0  0  0  0  0  0  0  0  0
   12.6253  -16.3113   24.7589 C   0  0  1  0  0  0  0  0  0  0  0  0
   12.7378  -16.7873   26.1607 C   0  0  0  0  0  0  0  0  0  0  0  0
   11.9658  -15.9551   27.0927 C   0  0  0  0  0  0  0  0  0  0  0  0
   11.4190  -14.7037   26.7388 C   0  0  0  0  0  0  0  0  0  0  0  0
   10.7735  -14.1999   27.8040 N   0  0  0  0  0  0  0  0  0  0  0  0
   10.8894  -15.0741   28.8057 C   0  0  0  0  0  0  0  0  0  0  0  0
   11.6015  -16.1106   28.3629 N   0  0  0  0  0  0  0  0  0  0  0  0
   13.6838  -16.9082   23.9132 C   0  0  0  0  0  0  0  0  0  0  0  0
   13.3112  -17.9515   23.0429 O   0  0  0  0  0  0  0  0  0  0  0  0
   14.8784  -16.5928   23.8797 O   0  0  0  0  0  0  0  0  0  0  0  0
  2  3  1  0
  2  1  1  0
  3  4  1  6
  5  6  1  1
  5  3  1  0
  7  5  1  0
  8  7  2  0
  9  7  1  0
 10  9  1  0
 11 10  1  0
 11 12  1  0
 12 13  1  0
 13  9  1  0
 14 15  2  0
 13 14  1  1
 16 14  1  0
 17 16  1  0
 17 24  1  0
 17 18  1  1
 19 18  1  0
 20 19  2  0
 21 22  1  0
 21 20  1  0
 22 23  2  0
 23 19  1  0
 24 26  2  0
 24 25  1  0
M  END
$$$$
