IPH.pdb
     RDKit          3D

 26 27  0  0  1  0  0  0  0  0999 V2000
    6.1456  -11.5739   27.7706 C   0  0  0  0  0  0  0  0  0  0  0  0
    5.5923  -12.5820   26.7984 C   0  0  0  0  0  0  0  0  0  0  0  0
    6.7225  -13.3820   26.1906 C   0  0  2  0  0  0  0  0  0  0  0  0
    7.7260  -12.4713   25.5116 C   0  0  0  0  0  0  0  0  0  0  0  0
    6.2392  -14.4611   25.2418 C   0  0  2  0  0  0  0  0  0  0  0  0
    5.2809  -15.2617   26.0103 N   0  0  0  0  0  0  0  0  0  0  0  0
    7.3015  -15.2996   24.6837 C   0  0  0  0  0  0  0  0  0  0  0  0
    7.7357  -16.2895   25.3457 O   0  0  0  0  0  0  0  0  0  0  0  0
    7.8525  -15.0199   23.4138 N   0  0  0  0  0  0  0  0  0  0  0  0
    7.5145  -13.9770   22.5035 C   0  0  0  0  0  0  0  0  0  0  0  0
    8.3995  -14.1483   21.2742 C   0  0  0  0  0  0  0  0  0  0  0  0
    8.8963  -15.5513   21.3455 C   0  0  0  0  0  0  0  0  0  0  0  0
    8.9119  -15.8211   22.8237 C   0  0  1  0  0  0  0  0  0  0  0  0
   10.2393  -15.5244   23.4222 C   0  0  0  0  0  0  0  0  0  0  0  0
   10.4487  -14.3939   23.9344 O   0  0  0  0  0  0  0  0  0  0  0  0
   11.2831  -16.4712   23.4368 N   0  0  0  0  0  0  0  0  0  0  0  0
   12.1032  -16.7537   24.6302 C   0  0  1  0  0  0  0  0  0  0  0  0
   11.2364  -17.0539   25.7977 C   0  0  0  0  0  0  0  0  0  0  0  0
   11.1994  -15.9455   26.7606 C   0  0  0  0  0  0  0  0  0  0  0  0
   11.7477  -14.6733   26.4945 C   0  0  0  0  0  0  0  0  0  0  0  0
   11.5508  -13.8875   27.5664 N   0  0  0  0  0  0  0  0  0  0  0  0
   10.9067  -14.6053   28.4889 C   0  0  0  0  0  0  0  0  0  0  0  0
   10.7069  -15.8256   27.9908 N   0  0  0  0  0  0  0  0  0  0  0  0
   13.0029  -17.8920   24.3355 C   0  0  0  0  0  0  0  0  0  0  0  0
   14.2904  -17.8694   24.9068 O   0  0  0  0  0  0  0  0  0  0  0  0
   12.7526  -18.8786   23.6344 O   0  0  0  0  0  0  0  0  0  0  0  0
  2  3  1  0
  2  1  1  0
  3  4  1  6
  5  6  1  1
  5  3  1  0
  7  5  1  0
  8  7  2  0
  9  7  1  0
 10  9  1  0
 11 10  1  0
 11 12  1  0
 12 13  1  0
 13  9  1  0
 14 15  2  0
 13 14  1  1
 16 14  1  0
 17 16  1  0
 17 24  1  0
 17 18  1  1
 19 18  1  0
 20 19  2  0
 21 22  1  0
 21 20  1  0
 22 23  2  0
 23 19  1  0
 24 26  2  0
 24 25  1  0
M  END
$$$$
