IPH.pdb
     RDKit          3D

 26 27  0  0  1  0  0  0  0  0999 V2000
    8.3534  -12.6940   27.3282 C   0  0  0  0  0  0  0  0  0  0  0  0
    7.5834  -13.9192   26.9118 C   0  0  0  0  0  0  0  0  0  0  0  0
    6.6368  -13.5716   25.7850 C   0  0  2  0  0  0  0  0  0  0  0  0
    5.5694  -12.6032   26.2542 C   0  0  0  0  0  0  0  0  0  0  0  0
    6.0152  -14.7931   25.1372 C   0  0  2  0  0  0  0  0  0  0  0  0
    5.4912  -15.6020   26.2422 N   0  0  0  0  0  0  0  0  0  0  0  0
    6.9319  -15.5701   24.3011 C   0  0  0  0  0  0  0  0  0  0  0  0
    7.2001  -16.7704   24.6081 O   0  0  0  0  0  0  0  0  0  0  0  0
    7.5248  -14.9994   23.1535 N   0  0  0  0  0  0  0  0  0  0  0  0
    7.3628  -13.6866   22.6236 C   0  0  0  0  0  0  0  0  0  0  0  0
    8.2124  -13.6031   21.3606 C   0  0  0  0  0  0  0  0  0  0  0  0
    8.4756  -15.0183   20.9750 C   0  0  0  0  0  0  0  0  0  0  0  0
    8.4427  -15.7320   22.2971 C   0  0  1  0  0  0  0  0  0  0  0  0
    9.7986  -15.8445   22.8944 C   0  0  0  0  0  0  0  0  0  0  0  0
    9.9452  -15.6777   24.1334 O   0  0  0  0  0  0  0  0  0  0  0  0
   10.9382  -16.1330   22.1170 N   0  0  0  0  0  0  0  0  0  0  0  0
   12.1032  -16.8768   22.6329 C   0  0  1  0  0  0  0  0  0  0  0  0
   11.6873  -18.2099   23.1372 C   0  0  0  0  0  0  0  0  0  0  0  0
   11.2144  -18.1546   24.5265 C   0  0  0  0  0  0  0  0  0  0  0  0
   12.0275  -17.7418   25.6029 C   0  0  0  0  0  0  0  0  0  0  0  0
   11.3052  -17.7999   26.7342 N   0  0  0  0  0  0  0  0  0  0  0  0
   10.0814  -18.2282   26.4186 C   0  0  0  0  0  0  0  0  0  0  0  0
   10.0474  -18.4333   25.1017 N   0  0  0  0  0  0  0  0  0  0  0  0
   13.1040  -17.0116   21.5503 C   0  0  0  0  0  0  0  0  0  0  0  0
   14.4605  -17.0865   21.9230 O   0  0  0  0  0  0  0  0  0  0  0  0
   12.8855  -17.0679   20.3351 O   0  0  0  0  0  0  0  0  0  0  0  0
  2  3  1  0
  2  1  1  0
  3  4  1  1
  5  6  1  1
  5  3  1  0
  7  5  1  0
  8  7  2  0
  9  7  1  0
 10  9  1  0
 11 10  1  0
 11 12  1  0
 12 13  1  0
 13  9  1  0
 14 15  2  0
 13 14  1  1
 16 14  1  0
 17 16  1  0
 17 24  1  0
 17 18  1  6
 19 18  1  0
 20 19  2  0
 21 22  1  0
 21 20  1  0
 22 23  2  0
 23 19  1  0
 24 26  2  0
 24 25  1  0
M  END
$$$$
