IPH.pdb
     RDKit          3D

 26 27  0  0  1  0  0  0  0  0999 V2000
    7.0052  -11.7765   27.4374 C   0  0  0  0  0  0  0  0  0  0  0  0
    6.1659  -12.7533   26.6571 C   0  0  0  0  0  0  0  0  0  0  0  0
    7.0607  -13.6793   25.8643 C   0  0  2  0  0  0  0  0  0  0  0  0
    8.0176  -12.8914   24.9920 C   0  0  0  0  0  0  0  0  0  0  0  0
    6.2854  -14.6912   25.0438 C   0  0  2  0  0  0  0  0  0  0  0  0
    5.4806  -15.4476   26.0083 N   0  0  0  0  0  0  0  0  0  0  0  0
    7.1179  -15.5831   24.2348 C   0  0  0  0  0  0  0  0  0  0  0  0
    7.5193  -16.6829   24.7208 O   0  0  0  0  0  0  0  0  0  0  0  0
    7.4826  -15.2343   22.9158 N   0  0  0  0  0  0  0  0  0  0  0  0
    7.0788  -14.1048   22.1466 C   0  0  0  0  0  0  0  0  0  0  0  0
    7.7484  -14.2268   20.7825 C   0  0  0  0  0  0  0  0  0  0  0  0
    8.1539  -15.6567   20.6751 C   0  0  0  0  0  0  0  0  0  0  0  0
    8.3806  -16.0440   22.1092 C   0  0  1  0  0  0  0  0  0  0  0  0
    9.8019  -15.8707   22.5068 C   0  0  0  0  0  0  0  0  0  0  0  0
   10.2261  -14.7236   22.8044 O   0  0  0  0  0  0  0  0  0  0  0  0
   10.7016  -16.9540   22.5627 N   0  0  0  0  0  0  0  0  0  0  0  0
   12.1046  -16.8196   22.9990 C   0  0  1  0  0  0  0  0  0  0  0  0
   12.1688  -16.3946   24.4201 C   0  0  0  0  0  0  0  0  0  0  0  0
   11.4320  -17.3060   25.3053 C   0  0  0  0  0  0  0  0  0  0  0  0
   10.6371  -18.3698   24.8293 C   0  0  0  0  0  0  0  0  0  0  0  0
   10.1028  -19.0117   25.8817 N   0  0  0  0  0  0  0  0  0  0  0  0
   10.5243  -18.4022   26.9916 C   0  0  0  0  0  0  0  0  0  0  0  0
   11.3133  -17.3910   26.6279 N   0  0  0  0  0  0  0  0  0  0  0  0
   12.7935  -18.1156   22.8048 C   0  0  0  0  0  0  0  0  0  0  0  0
   14.1718  -18.1697   23.0911 O   0  0  0  0  0  0  0  0  0  0  0  0
   12.2924  -19.1757   22.4143 O   0  0  0  0  0  0  0  0  0  0  0  0
  2  3  1  0
  2  1  1  0
  3  4  1  6
  5  6  1  1
  5  3  1  0
  7  5  1  0
  8  7  2  0
  9  7  1  0
 10  9  1  0
 11 10  1  0
 11 12  1  0
 12 13  1  0
 13  9  1  0
 14 15  2  0
 13 14  1  1
 16 14  1  0
 17 16  1  0
 17 24  1  0
 17 18  1  1
 19 18  1  0
 20 19  2  0
 21 22  1  0
 21 20  1  0
 22 23  2  0
 23 19  1  0
 24 26  2  0
 24 25  1  0
M  END
$$$$
