IPH.pdb
     RDKit          3D

 26 27  0  0  1  0  0  0  0  0999 V2000
    6.0256  -11.1818   26.8709 C   0  0  0  0  0  0  0  0  0  0  0  0
    5.5451  -12.4695   26.2558 C   0  0  0  0  0  0  0  0  0  0  0  0
    6.7264  -13.3588   25.9393 C   0  0  2  0  0  0  0  0  0  0  0  0
    7.7586  -12.6146   25.1157 C   0  0  0  0  0  0  0  0  0  0  0  0
    6.3258  -14.6560   25.2648 C   0  0  2  0  0  0  0  0  0  0  0  0
    5.3907  -15.3077   26.1872 N   0  0  0  0  0  0  0  0  0  0  0  0
    7.4451  -15.5397   24.9342 C   0  0  0  0  0  0  0  0  0  0  0  0
    7.8261  -16.4130   25.7702 O   0  0  0  0  0  0  0  0  0  0  0  0
    8.1099  -15.4323   23.6929 N   0  0  0  0  0  0  0  0  0  0  0  0
    7.9573  -14.4409   22.6808 C   0  0  0  0  0  0  0  0  0  0  0  0
    8.8984  -14.8132   21.5407 C   0  0  0  0  0  0  0  0  0  0  0  0
    9.2239  -16.2508   21.7592 C   0  0  0  0  0  0  0  0  0  0  0  0
    9.1075  -16.3925   23.2507 C   0  0  1  0  0  0  0  0  0  0  0  0
   10.4164  -16.1924   23.9252 C   0  0  0  0  0  0  0  0  0  0  0  0
   10.8074  -15.0242   24.1839 O   0  0  0  0  0  0  0  0  0  0  0  0
   11.2448  -17.2730   24.2888 N   0  0  0  0  0  0  0  0  0  0  0  0
   11.8076  -17.4421   25.6420 C   0  0  1  0  0  0  0  0  0  0  0  0
   10.7243  -17.4599   26.6572 C   0  0  0  0  0  0  0  0  0  0  0  0
   10.7146  -16.2429   27.4793 C   0  0  0  0  0  0  0  0  0  0  0  0
   11.5129  -15.1145   27.1974 C   0  0  0  0  0  0  0  0  0  0  0  0
   11.2735  -14.1752   28.1277 N   0  0  0  0  0  0  0  0  0  0  0  0
   10.3653  -14.6602   28.9767 C   0  0  0  0  0  0  0  0  0  0  0  0
   10.0457  -15.8904   28.5742 N   0  0  0  0  0  0  0  0  0  0  0  0
   12.5887  -18.6991   25.6830 C   0  0  0  0  0  0  0  0  0  0  0  0
   13.9245  -18.6218   26.1238 O   0  0  0  0  0  0  0  0  0  0  0  0
   12.1995  -19.8299   25.3707 O   0  0  0  0  0  0  0  0  0  0  0  0
  2  3  1  0
  2  1  1  0
  3  4  1  6
  5  6  1  1
  5  3  1  0
  7  5  1  0
  8  7  2  0
  9  7  1  0
 10  9  1  0
 11 10  1  0
 11 12  1  0
 12 13  1  0
 13  9  1  0
 14 15  2  0
 13 14  1  1
 16 14  1  0
 17 16  1  0
 17 24  1  0
 17 18  1  1
 19 18  1  0
 20 19  2  0
 21 22  1  0
 21 20  1  0
 22 23  2  0
 23 19  1  0
 24 26  2  0
 24 25  1  0
M  END
$$$$
