IPH.pdb
     RDKit          3D

 26 27  0  0  1  0  0  0  0  0999 V2000
    8.7377  -15.6853   15.1383 C   0  0  0  0  0  0  0  0  0  0  0  0
    8.4465  -14.5886   16.1284 C   0  0  0  0  0  0  0  0  0  0  0  0
    8.9778  -14.9735   17.4908 C   0  0  2  0  0  0  0  0  0  0  0  0
    8.3581  -16.2725   17.9661 C   0  0  0  0  0  0  0  0  0  0  0  0
    8.8032  -13.8782   18.5243 C   0  0  2  0  0  0  0  0  0  0  0  0
    9.4294  -12.6857   17.9448 N   0  0  0  0  0  0  0  0  0  0  0  0
    9.3692  -14.1872   19.8385 C   0  0  0  0  0  0  0  0  0  0  0  0
   10.6261  -14.2737   19.9783 O   0  0  0  0  0  0  0  0  0  0  0  0
    8.5319  -14.3922   20.9571 N   0  0  0  0  0  0  0  0  0  0  0  0
    7.1134  -14.2867   21.0423 C   0  0  0  0  0  0  0  0  0  0  0  0
    6.7254  -14.5897   22.4850 C   0  0  0  0  0  0  0  0  0  0  0  0
    7.9810  -14.4186   23.2692 C   0  0  0  0  0  0  0  0  0  0  0  0
    9.0459  -14.7608   22.2657 C   0  0  1  0  0  0  0  0  0  0  0  0
    9.4255  -16.1958   22.3355 C   0  0  0  0  0  0  0  0  0  0  0  0
    9.1775  -16.9500   21.3588 O   0  0  0  0  0  0  0  0  0  0  0  0
   10.0586  -16.7492   23.4666 N   0  0  0  0  0  0  0  0  0  0  0  0
   11.2848  -17.5658   23.3895 C   0  0  1  0  0  0  0  0  0  0  0  0
   12.3500  -16.8366   22.6561 C   0  0  0  0  0  0  0  0  0  0  0  0
   12.6108  -17.4186   21.3332 C   0  0  0  0  0  0  0  0  0  0  0  0
   11.9001  -18.5254   20.8231 C   0  0  0  0  0  0  0  0  0  0  0  0
   12.3711  -18.8110   19.5976 N   0  0  0  0  0  0  0  0  0  0  0  0
   13.3405  -17.9380   19.3165 C   0  0  0  0  0  0  0  0  0  0  0  0
   13.4677  -17.1187   20.3605 N   0  0  0  0  0  0  0  0  0  0  0  0
   11.7252  -17.9008   24.7627 C   0  0  0  0  0  0  0  0  0  0  0  0
   11.0308  -17.3036   25.8332 O   0  0  0  0  0  0  0  0  0  0  0  0
   12.6472  -18.6573   25.0868 O   0  0  0  0  0  0  0  0  0  0  0  0
  2  3  1  0
  2  1  1  0
  3  4  1  1
  5  6  1  6
  5  3  1  0
  7  5  1  0
  8  7  2  0
  9  7  1  0
 10  9  1  0
 11 10  1  0
 11 12  1  0
 12 13  1  0
 13  9  1  0
 14 15  2  0
 13 14  1  6
 16 14  1  0
 17 16  1  0
 17 24  1  0
 17 18  1  1
 19 18  1  0
 20 19  2  0
 21 22  1  0
 21 20  1  0
 22 23  2  0
 23 19  1  0
 24 26  2  0
 24 25  1  0
M  END
$$$$
