IPH.pdb
     RDKit          3D

 26 27  0  0  1  0  0  0  0  0999 V2000
    6.2045  -16.4443   20.2008 C   0  0  0  0  0  0  0  0  0  0  0  0
    7.5089  -15.8202   20.6208 C   0  0  0  0  0  0  0  0  0  0  0  0
    7.3204  -14.3358   20.8392 C   0  0  2  0  0  0  0  0  0  0  0  0
    6.9428  -13.6421   19.5455 C   0  0  0  0  0  0  0  0  0  0  0  0
    8.5255  -13.6746   21.4784 C   0  0  2  0  0  0  0  0  0  0  0  0
    9.6288  -13.8660   20.5318 N   0  0  0  0  0  0  0  0  0  0  0  0
    8.8701  -14.1915   22.8040 C   0  0  0  0  0  0  0  0  0  0  0  0
    9.8961  -14.9218   22.9480 O   0  0  0  0  0  0  0  0  0  0  0  0
    8.0723  -13.8879   23.9291 N   0  0  0  0  0  0  0  0  0  0  0  0
    6.8828  -13.1062   23.9958 C   0  0  0  0  0  0  0  0  0  0  0  0
    6.4415  -13.0819   25.4548 C   0  0  0  0  0  0  0  0  0  0  0  0
    7.6481  -13.4820   26.2324 C   0  0  0  0  0  0  0  0  0  0  0  0
    8.3857  -14.3650   25.2657 C   0  0  1  0  0  0  0  0  0  0  0  0
    8.0303  -15.7963   25.4482 C   0  0  0  0  0  0  0  0  0  0  0  0
    7.2198  -16.3392   24.6529 O   0  0  0  0  0  0  0  0  0  0  0  0
    8.5721  -16.5758   26.4899 N   0  0  0  0  0  0  0  0  0  0  0  0
    9.3724  -17.7933   26.2579 C   0  0  1  0  0  0  0  0  0  0  0  0
   10.5251  -17.4967   25.3703 C   0  0  0  0  0  0  0  0  0  0  0  0
   11.3171  -18.6964   25.0701 C   0  0  0  0  0  0  0  0  0  0  0  0
   10.8856  -20.0035   25.3790 C   0  0  0  0  0  0  0  0  0  0  0  0
   11.8276  -20.8734   24.9777 N   0  0  0  0  0  0  0  0  0  0  0  0
   12.8262  -20.1751   24.4334 C   0  0  0  0  0  0  0  0  0  0  0  0
   12.5037  -18.8832   24.4977 N   0  0  0  0  0  0  0  0  0  0  0  0
    9.8337  -18.3199   27.5624 C   0  0  0  0  0  0  0  0  0  0  0  0
   10.4782  -17.4221   28.4361 O   0  0  0  0  0  0  0  0  0  0  0  0
    9.7174  -19.4761   27.9836 O   0  0  0  0  0  0  0  0  0  0  0  0
  2  3  1  0
  2  1  1  0
  3  4  1  6
  5  6  1  6
  5  3  1  0
  7  5  1  0
  8  7  2  0
  9  7  1  0
 10  9  1  0
 11 10  1  0
 11 12  1  0
 12 13  1  0
 13  9  1  0
 14 15  2  0
 13 14  1  6
 16 14  1  0
 17 16  1  0
 17 24  1  0
 17 18  1  6
 19 18  1  0
 20 19  2  0
 21 22  1  0
 21 20  1  0
 22 23  2  0
 23 19  1  0
 24 26  2  0
 24 25  1  0
M  END
$$$$
