IPH.pdb
     RDKit          3D

 26 27  0  0  1  0  0  0  0  0999 V2000
    7.4781  -12.6364   25.5663 C   0  0  0  0  0  0  0  0  0  0  0  0
    7.2419  -13.9487   24.8667 C   0  0  0  0  0  0  0  0  0  0  0  0
    7.8129  -13.8940   23.4676 C   0  0  2  0  0  0  0  0  0  0  0  0
    7.1443  -12.8051   22.6524 C   0  0  0  0  0  0  0  0  0  0  0  0
    7.7474  -15.2277   22.7499 C   0  0  2  0  0  0  0  0  0  0  0  0
    6.3258  -15.5848   22.7100 N   0  0  0  0  0  0  0  0  0  0  0  0
    8.5425  -16.2900   23.3682 C   0  0  0  0  0  0  0  0  0  0  0  0
    8.0125  -17.0523   24.2312 O   0  0  0  0  0  0  0  0  0  0  0  0
    9.8973  -16.4781   23.0166 N   0  0  0  0  0  0  0  0  0  0  0  0
   10.6728  -15.7817   22.0449 C   0  0  0  0  0  0  0  0  0  0  0  0
   12.0671  -16.3981   22.0560 C   0  0  0  0  0  0  0  0  0  0  0  0
   11.9017  -17.7211   22.7214 C   0  0  0  0  0  0  0  0  0  0  0  0
   10.7390  -17.4837   23.6433 C   0  0  1  0  0  0  0  0  0  0  0  0
   11.1879  -17.0738   24.9992 C   0  0  0  0  0  0  0  0  0  0  0  0
   11.3184  -15.8504   25.2647 O   0  0  0  0  0  0  0  0  0  0  0  0
   11.4766  -18.0138   26.0088 N   0  0  0  0  0  0  0  0  0  0  0  0
   11.3791  -17.7104   27.4493 C   0  0  1  0  0  0  0  0  0  0  0  0
   10.0000  -17.2860   27.7991 C   0  0  0  0  0  0  0  0  0  0  0  0
    9.9140  -15.8442   28.0651 C   0  0  0  0  0  0  0  0  0  0  0  0
   11.0436  -15.0010   28.1220 C   0  0  0  0  0  0  0  0  0  0  0  0
   10.6323  -13.7480   28.3787 N   0  0  0  0  0  0  0  0  0  0  0  0
    9.3021  -13.7661   28.4849 C   0  0  0  0  0  0  0  0  0  0  0  0
    8.8942  -15.0211   28.2952 N   0  0  0  0  0  0  0  0  0  0  0  0
   11.7722  -18.9117   28.2202 C   0  0  0  0  0  0  0  0  0  0  0  0
   11.8138  -20.1413   27.5339 O   0  0  0  0  0  0  0  0  0  0  0  0
   12.0744  -18.9639   29.4175 O   0  0  0  0  0  0  0  0  0  0  0  0
  2  3  1  0
  2  1  1  0
  3  4  1  6
  5  6  1  1
  5  3  1  0
  7  5  1  0
  8  7  2  0
  9  7  1  0
 10  9  1  0
 11 10  1  0
 11 12  1  0
 12 13  1  0
 13  9  1  0
 14 15  2  0
 13 14  1  1
 16 14  1  0
 17 16  1  0
 17 24  1  0
 17 18  1  1
 19 18  1  0
 20 19  2  0
 21 22  1  0
 21 20  1  0
 22 23  2  0
 23 19  1  0
 24 26  2  0
 24 25  1  0
M  END
$$$$
