SPM.pdb
     RDKit          3D

 22 22  0  0  1  0  0  0  0  0999 V2000
   23.0253  -20.1479  -13.7782 O   0  0  0  0  0  0  0  0  0  0  0  0
   23.6325  -19.7033  -14.9611 C   0  0  0  0  0  0  0  0  0  0  0  0
   24.6978  -20.7230  -15.3909 C   0  0  2  0  0  0  0  0  0  0  0  0
   23.9268  -21.8596  -15.9163 N   0  0  0  0  0  0  0  0  0  0  0  0
   25.5151  -21.1756  -14.2576 C   0  0  0  0  0  0  0  0  0  0  0  0
   25.1781  -22.2559  -13.6740 O   0  0  0  0  0  0  0  0  0  0  0  0
   26.6613  -20.4920  -13.7629 N   0  0  0  0  0  0  0  0  0  0  0  0
   27.1817  -19.2837  -14.3916 C   0  0  0  0  0  0  0  0  0  0  0  0
   28.6605  -19.2858  -14.0401 C   0  0  0  0  0  0  0  0  0  0  0  0
   28.7220  -20.0466  -12.7215 C   0  0  0  0  0  0  0  0  0  0  0  0
   27.4609  -20.8480  -12.6306 C   0  0  1  0  0  0  0  0  0  0  0  0
   26.7830  -20.5371  -11.3389 C   0  0  0  0  0  0  0  0  0  0  0  0
   25.9423  -19.6329  -11.2411 O   0  0  0  0  0  0  0  0  0  0  0  0
   29.1340  -20.0232   -4.7617 C   0  0  0  0  0  0  0  0  0  0  0  0
   28.0690  -18.9829   -5.7567 S   0  0  0  0  0  0  0  0  0  0  0  0
   26.8513  -19.9181   -6.7171 C   0  0  0  0  0  0  0  0  0  0  0  0
   27.4537  -20.2720   -8.0586 C   0  0  0  0  0  0  0  0  0  0  0  0
   26.5098  -21.1209   -8.8873 C   0  0  2  0  0  0  0  0  0  0  0  0
   27.1045  -21.2948  -10.1826 N   0  0  0  0  0  0  0  0  0  0  0  0
   25.1473  -20.5897   -8.9299 C   0  0  0  0  0  0  0  0  0  0  0  0
   24.2701  -21.0502   -8.1375 O   0  0  0  0  0  0  0  0  0  0  0  0
   24.7263  -19.5943   -9.7937 O   0  0  0  0  0  0  0  0  0  0  0  0
  1  2  1  0
  3  2  1  0
  3  5  1  0
  3  4  1  1
  5  6  2  0
  7  5  1  0
  7 11  1  0
  8  7  1  0
  9  8  1  0
  9 10  1  0
 10 11  1  0
 11 12  1  1
 12 19  1  0
 12 13  2  0
 14 15  1  0
 16 15  1  0
 18 17  1  1
 17 16  1  0
 18 20  1  0
 19 18  1  0
 20 22  1  0
 21 20  2  0
M  END
$$$$
