SPM.pdb
     RDKit          3D

 22 22  0  0  1  0  0  0  0  0999 V2000
   27.3619  -38.0147   -8.2845 O   0  0  0  0  0  0  0  0  0  0  0  0
   28.7463  -38.0137   -8.5063 C   0  0  0  0  0  0  0  0  0  0  0  0
   29.1831  -36.6058   -8.9383 C   0  0  2  0  0  0  0  0  0  0  0  0
   30.6285  -36.7281   -9.1794 N   0  0  0  0  0  0  0  0  0  0  0  0
   28.9511  -35.6100   -7.8838 C   0  0  0  0  0  0  0  0  0  0  0  0
   29.7761  -35.5653   -6.9149 O   0  0  0  0  0  0  0  0  0  0  0  0
   27.8675  -34.6875   -7.8667 N   0  0  0  0  0  0  0  0  0  0  0  0
   26.8952  -34.6047   -8.9501 C   0  0  0  0  0  0  0  0  0  0  0  0
   26.3935  -33.1709   -8.8942 C   0  0  0  0  0  0  0  0  0  0  0  0
   26.5611  -32.7815   -7.4309 C   0  0  0  0  0  0  0  0  0  0  0  0
   27.5587  -33.7323   -6.8466 C   0  0  1  0  0  0  0  0  0  0  0  0
   26.9663  -34.3698   -5.6352 C   0  0  0  0  0  0  0  0  0  0  0  0
   26.2468  -35.3752   -5.7093 O   0  0  0  0  0  0  0  0  0  0  0  0
   27.8195  -34.1165    2.2772 C   0  0  0  0  0  0  0  0  0  0  0  0
   28.3572  -33.7783    0.6029 S   0  0  0  0  0  0  0  0  0  0  0  0
   27.1790  -34.3389   -0.6530 C   0  0  0  0  0  0  0  0  0  0  0  0
   27.6382  -33.8483   -2.0081 C   0  0  0  0  0  0  0  0  0  0  0  0
   26.7122  -34.3159   -3.1136 C   0  0  2  0  0  0  0  0  0  0  0  0
   27.2297  -33.8148   -4.3557 N   0  0  0  0  0  0  0  0  0  0  0  0
   25.3113  -33.9682   -2.8747 C   0  0  0  0  0  0  0  0  0  0  0  0
   24.7842  -33.0117   -3.5202 O   0  0  0  0  0  0  0  0  0  0  0  0
   24.4904  -34.6199   -1.9715 O   0  0  0  0  0  0  0  0  0  0  0  0
  1  2  1  0
  3  2  1  0
  3  5  1  0
  3  4  1  1
  5  6  2  0
  7  5  1  0
  7 11  1  0
  8  7  1  0
  9  8  1  0
  9 10  1  0
 10 11  1  0
 11 12  1  1
 12 19  1  0
 12 13  2  0
 14 15  1  0
 16 15  1  0
 18 17  1  1
 17 16  1  0
 18 20  1  0
 19 18  1  0
 20 22  1  0
 21 20  2  0
M  END
$$$$
