SPM.pdb
     RDKit          3D

 22 22  0  0  1  0  0  0  0  0999 V2000
   17.1096  -10.0957  -17.2971 O   0  0  0  0  0  0  0  0  0  0  0  0
   16.8656  -10.0897  -15.9165 C   0  0  0  0  0  0  0  0  0  0  0  0
   18.0949  -10.6536  -15.1883 C   0  0  2  0  0  0  0  0  0  0  0  0
   17.8827  -12.1087  -15.1832 N   0  0  0  0  0  0  0  0  0  0  0  0
   18.1825  -10.1728  -13.8033 C   0  0  0  0  0  0  0  0  0  0  0  0
   17.5069  -10.7869  -12.9157 O   0  0  0  0  0  0  0  0  0  0  0  0
   18.9714   -9.0665  -13.3794 N   0  0  0  0  0  0  0  0  0  0  0  0
   19.8247   -8.3193  -14.2957 C   0  0  0  0  0  0  0  0  0  0  0  0
   20.9215   -7.7532  -13.4085 C   0  0  0  0  0  0  0  0  0  0  0  0
   20.2555   -7.6175  -12.0450 C   0  0  0  0  0  0  0  0  0  0  0  0
   19.0647   -8.5244  -12.0582 C   0  0  1  0  0  0  0  0  0  0  0  0
   17.8543   -7.7378  -11.6825 C   0  0  0  0  0  0  0  0  0  0  0  0
   17.2696   -7.0074  -12.4941 O   0  0  0  0  0  0  0  0  0  0  0  0
   11.4707   -8.3509   -7.2557 C   0  0  0  0  0  0  0  0  0  0  0  0
   13.0384   -8.9270   -7.9014 S   0  0  0  0  0  0  0  0  0  0  0  0
   14.0290   -7.6103   -8.6529 C   0  0  0  0  0  0  0  0  0  0  0  0
   15.3210   -8.2040   -9.1688 C   0  0  0  0  0  0  0  0  0  0  0  0
   16.1673   -7.1659   -9.8791 C   0  0  2  0  0  0  0  0  0  0  0  0
   17.3506   -7.8230  -10.3584 N   0  0  0  0  0  0  0  0  0  0  0  0
   16.4390   -5.9865   -9.0570 C   0  0  0  0  0  0  0  0  0  0  0  0
   15.5440   -5.0979   -8.9208 O   0  0  0  0  0  0  0  0  0  0  0  0
   17.6327   -5.7561   -8.3964 O   0  0  0  0  0  0  0  0  0  0  0  0
  1  2  1  0
  3  2  1  0
  3  5  1  0
  3  4  1  1
  5  6  2  0
  7  5  1  0
  7 11  1  0
  8  7  1  0
  9  8  1  0
  9 10  1  0
 10 11  1  0
 11 12  1  6
 12 19  1  0
 12 13  2  0
 14 15  1  0
 16 15  1  0
 18 17  1  1
 17 16  1  0
 18 20  1  0
 19 18  1  0
 20 22  1  0
 21 20  2  0
M  END
$$$$
