SPM.pdb
     RDKit          3D

 22 22  0  0  1  0  0  0  0  0999 V2000
   22.1195  -18.0374  -13.9845 O   0  0  0  0  0  0  0  0  0  0  0  0
   21.9249  -18.8986  -15.0736 C   0  0  0  0  0  0  0  0  0  0  0  0
   21.4686  -20.2696  -14.5524 C   0  0  2  0  0  0  0  0  0  0  0  0
   20.1030  -20.0384  -14.0586 N   0  0  0  0  0  0  0  0  0  0  0  0
   22.3091  -20.7450  -13.4456 C   0  0  0  0  0  0  0  0  0  0  0  0
   21.9621  -20.4376  -12.2597 O   0  0  0  0  0  0  0  0  0  0  0  0
   23.4872  -21.5279  -13.6030 N   0  0  0  0  0  0  0  0  0  0  0  0
   24.0185  -21.8846  -14.9132 C   0  0  0  0  0  0  0  0  0  0  0  0
   24.7748  -23.1806  -14.6703 C   0  0  0  0  0  0  0  0  0  0  0  0
   25.2050  -23.0853  -13.2119 C   0  0  0  0  0  0  0  0  0  0  0  0
   24.3096  -22.0740  -12.5668 C   0  0  1  0  0  0  0  0  0  0  0  0
   25.1514  -21.0352  -11.9058 C   0  0  0  0  0  0  0  0  0  0  0  0
   25.4693  -19.9857  -12.4815 O   0  0  0  0  0  0  0  0  0  0  0  0
   28.4923  -19.3442   -4.8756 C   0  0  0  0  0  0  0  0  0  0  0  0
   27.3919  -20.3012   -5.9147 S   0  0  0  0  0  0  0  0  0  0  0  0
   27.5042  -19.8631   -7.6684 C   0  0  0  0  0  0  0  0  0  0  0  0
   26.4700  -20.6549   -8.4375 C   0  0  0  0  0  0  0  0  0  0  0  0
   26.6562  -20.5089   -9.9349 C   0  0  2  0  0  0  0  0  0  0  0  0
   25.6059  -21.2472  -10.5781 N   0  0  0  0  0  0  0  0  0  0  0  0
   27.9984  -20.8779  -10.3854 C   0  0  0  0  0  0  0  0  0  0  0  0
   28.3051  -22.1032  -10.5028 O   0  0  0  0  0  0  0  0  0  0  0  0
   28.9910  -19.9676  -10.7025 O   0  0  0  0  0  0  0  0  0  0  0  0
  1  2  1  0
  3  2  1  0
  3  5  1  0
  3  4  1  1
  5  6  2  0
  7  5  1  0
  7 11  1  0
  8  7  1  0
  9  8  1  0
  9 10  1  0
 10 11  1  0
 11 12  1  6
 12 19  1  0
 12 13  2  0
 14 15  1  0
 16 15  1  0
 18 17  1  1
 17 16  1  0
 18 20  1  0
 19 18  1  0
 20 22  1  0
 21 20  2  0
M  END
$$$$
