SPM.pdb
     RDKit          3D

 22 22  0  0  1  0  0  0  0  0999 V2000
   20.0828  -11.8998  -20.1251 O   0  0  0  0  0  0  0  0  0  0  0  0
   20.4254  -10.9818  -19.1223 C   0  0  0  0  0  0  0  0  0  0  0  0
   21.9495  -10.7904  -19.1182 C   0  0  2  0  0  0  0  0  0  0  0  0
   22.4833  -12.1059  -18.7348 N   0  0  0  0  0  0  0  0  0  0  0  0
   22.3756   -9.7894  -18.1315 C   0  0  0  0  0  0  0  0  0  0  0  0
   22.6250  -10.1879  -16.9482 O   0  0  0  0  0  0  0  0  0  0  0  0
   22.5314   -8.4010  -18.4033 N   0  0  0  0  0  0  0  0  0  0  0  0
   22.3375   -7.8394  -19.7349 C   0  0  0  0  0  0  0  0  0  0  0  0
   23.2097   -6.5945  -19.7469 C   0  0  0  0  0  0  0  0  0  0  0  0
   23.2584   -6.1679  -18.2852 C   0  0  0  0  0  0  0  0  0  0  0  0
   22.8871   -7.3709  -17.4755 C   0  0  1  0  0  0  0  0  0  0  0  0
   21.7592   -7.0130  -16.5676 C   0  0  0  0  0  0  0  0  0  0  0  0
   20.5783   -7.2257  -16.8744 O   0  0  0  0  0  0  0  0  0  0  0  0
   17.9619   -9.1884  -10.8355 C   0  0  0  0  0  0  0  0  0  0  0  0
   19.2913   -9.1506  -12.0347 S   0  0  0  0  0  0  0  0  0  0  0  0
   19.6835   -7.4803  -12.6144 C   0  0  0  0  0  0  0  0  0  0  0  0
   20.7808   -7.5677  -13.6518 C   0  0  0  0  0  0  0  0  0  0  0  0
   21.0828   -6.2121  -14.2597 C   0  0  2  0  0  0  0  0  0  0  0  0
   22.0381   -6.4106  -15.3131 N   0  0  0  0  0  0  0  0  0  0  0  0
   21.4949   -5.2175  -13.2689 C   0  0  0  0  0  0  0  0  0  0  0  0
   22.7293   -5.0349  -13.0403 O   0  0  0  0  0  0  0  0  0  0  0  0
   20.6172   -4.4366  -12.5380 O   0  0  0  0  0  0  0  0  0  0  0  0
  1  2  1  0
  3  2  1  0
  3  5  1  0
  3  4  1  1
  5  6  2  0
  7  5  1  0
  7 11  1  0
  8  7  1  0
  9  8  1  0
  9 10  1  0
 10 11  1  0
 11 12  1  1
 12 19  1  0
 12 13  2  0
 14 15  1  0
 16 15  1  0
 18 17  1  1
 17 16  1  0
 18 20  1  0
 19 18  1  0
 20 22  1  0
 21 20  2  0
M  END
$$$$
