SPM.pdb
     RDKit          3D

 22 22  0  0  1  0  0  0  0  0999 V2000
   29.1812  -18.7290  -13.7559 O   0  0  0  0  0  0  0  0  0  0  0  0
   28.5392  -19.0866  -14.9499 C   0  0  0  0  0  0  0  0  0  0  0  0
   27.0666  -18.6558  -14.8750 C   0  0  2  0  0  0  0  0  0  0  0  0
   27.1083  -17.1891  -14.9711 N   0  0  0  0  0  0  0  0  0  0  0  0
   26.4452  -19.0396  -13.6008 C   0  0  0  0  0  0  0  0  0  0  0  0
   26.3213  -18.1435  -12.7047 O   0  0  0  0  0  0  0  0  0  0  0  0
   25.9690  -20.3453  -13.2939 N   0  0  0  0  0  0  0  0  0  0  0  0
   26.1568  -21.4766  -14.1944 C   0  0  0  0  0  0  0  0  0  0  0  0
   25.0010  -22.4091  -13.8702 C   0  0  0  0  0  0  0  0  0  0  0  0
   24.6847  -22.1061  -12.4111 C   0  0  0  0  0  0  0  0  0  0  0  0
   25.2614  -20.7558  -12.1196 C   0  0  1  0  0  0  0  0  0  0  0  0
   26.1532  -20.8583  -10.9284 C   0  0  0  0  0  0  0  0  0  0  0  0
   27.2726  -21.3845  -10.9913 O   0  0  0  0  0  0  0  0  0  0  0  0
   29.4050  -19.1737   -4.2588 C   0  0  0  0  0  0  0  0  0  0  0  0
   28.6262  -18.7706   -5.8200 S   0  0  0  0  0  0  0  0  0  0  0  0
   27.4849  -20.0512   -6.4009 C   0  0  0  0  0  0  0  0  0  0  0  0
   27.0113  -19.6901   -7.7913 C   0  0  0  0  0  0  0  0  0  0  0  0
   26.1614  -20.7912   -8.3944 C   0  0  2  0  0  0  0  0  0  0  0  0
   25.7144  -20.3399   -9.6822 N   0  0  0  0  0  0  0  0  0  0  0  0
   25.0782  -21.2282   -7.5134 C   0  0  0  0  0  0  0  0  0  0  0  0
   23.8792  -20.9260   -7.7971 O   0  0  0  0  0  0  0  0  0  0  0  0
   25.2640  -21.9674   -6.3587 O   0  0  0  0  0  0  0  0  0  0  0  0
  1  2  1  0
  3  2  1  0
  3  5  1  0
  3  4  1  1
  5  6  2  0
  7  5  1  0
  7 11  1  0
  8  7  1  0
  9  8  1  0
  9 10  1  0
 10 11  1  0
 11 12  1  1
 12 19  1  0
 12 13  2  0
 14 15  1  0
 16 15  1  0
 18 17  1  1
 17 16  1  0
 18 20  1  0
 19 18  1  0
 20 22  1  0
 21 20  2  0
M  END
$$$$
