SPM.pdb
     RDKit          3D

 22 22  0  0  1  0  0  0  0  0999 V2000
   23.4551  -21.7899  -14.3896 O   0  0  0  0  0  0  0  0  0  0  0  0
   23.5841  -21.7303  -15.7844 C   0  0  0  0  0  0  0  0  0  0  0  0
   25.0731  -21.8097  -16.1533 C   0  0  2  0  0  0  0  0  0  0  0  0
   25.2482  -23.1711  -16.6807 N   0  0  0  0  0  0  0  0  0  0  0  0
   25.9405  -21.6296  -14.9817 C   0  0  0  0  0  0  0  0  0  0  0  0
   26.4036  -22.6728  -14.4174 O   0  0  0  0  0  0  0  0  0  0  0  0
   26.3030  -20.3688  -14.4298 N   0  0  0  0  0  0  0  0  0  0  0  0
   25.8666  -19.1061  -15.0140 C   0  0  0  0  0  0  0  0  0  0  0  0
   26.9426  -18.1130  -14.6059 C   0  0  0  0  0  0  0  0  0  0  0  0
   27.4879  -18.6800  -13.3013 C   0  0  0  0  0  0  0  0  0  0  0  0
   27.1135  -20.1291  -13.2748 C   0  0  1  0  0  0  0  0  0  0  0  0
   26.3872  -20.4174  -12.0043 C   0  0  0  0  0  0  0  0  0  0  0  0
   25.1502  -20.4314  -11.9453 O   0  0  0  0  0  0  0  0  0  0  0  0
   27.7943  -19.6739   -4.2743 C   0  0  0  0  0  0  0  0  0  0  0  0
   28.1598  -19.4162   -6.0083 S   0  0  0  0  0  0  0  0  0  0  0  0
   26.9720  -20.2178   -7.1157 C   0  0  0  0  0  0  0  0  0  0  0  0
   27.4832  -20.1185   -8.5358 C   0  0  0  0  0  0  0  0  0  0  0  0
   26.5660  -20.8315   -9.5099 C   0  0  2  0  0  0  0  0  0  0  0  0
   27.1275  -20.6848  -10.8232 N   0  0  0  0  0  0  0  0  0  0  0  0
   25.1731  -20.3950   -9.4113 C   0  0  0  0  0  0  0  0  0  0  0  0
   24.3259  -21.1316   -8.8204 O   0  0  0  0  0  0  0  0  0  0  0  0
   24.6913  -19.2056   -9.9286 O   0  0  0  0  0  0  0  0  0  0  0  0
  1  2  1  0
  3  2  1  0
  3  5  1  0
  3  4  1  1
  5  6  2  0
  7  5  1  0
  7 11  1  0
  8  7  1  0
  9  8  1  0
  9 10  1  0
 10 11  1  0
 11 12  1  1
 12 19  1  0
 12 13  2  0
 14 15  1  0
 16 15  1  0
 18 17  1  1
 17 16  1  0
 18 20  1  0
 19 18  1  0
 20 22  1  0
 21 20  2  0
M  END
$$$$
