SPM.pdb
     RDKit          3D

 22 22  0  0  1  0  0  0  0  0999 V2000
   22.8236  -20.3100  -14.7386 O   0  0  0  0  0  0  0  0  0  0  0  0
   23.0730  -21.5623  -15.3177 C   0  0  0  0  0  0  0  0  0  0  0  0
   24.5547  -21.6443  -15.7142 C   0  0  2  0  0  0  0  0  0  0  0  0
   24.6633  -22.9014  -16.4693 N   0  0  0  0  0  0  0  0  0  0  0  0
   25.4356  -21.7075  -14.5406 C   0  0  0  0  0  0  0  0  0  0  0  0
   25.5838  -22.8346  -13.9671 O   0  0  0  0  0  0  0  0  0  0  0  0
   26.1389  -20.5963  -13.9963 N   0  0  0  0  0  0  0  0  0  0  0  0
   26.0683  -19.2636  -14.5839 C   0  0  0  0  0  0  0  0  0  0  0  0
   27.3812  -18.6089  -14.1859 C   0  0  0  0  0  0  0  0  0  0  0  0
   27.7548  -19.3019  -12.8815 C   0  0  0  0  0  0  0  0  0  0  0  0
   26.9912  -20.5889  -12.8466 C   0  0  1  0  0  0  0  0  0  0  0  0
   26.2214  -20.6594  -11.5710 C   0  0  0  0  0  0  0  0  0  0  0  0
   24.9935  -20.5009  -11.5371 O   0  0  0  0  0  0  0  0  0  0  0  0
   28.0284  -18.2749   -5.4398 C   0  0  0  0  0  0  0  0  0  0  0  0
   27.8786  -20.0593   -5.4409 S   0  0  0  0  0  0  0  0  0  0  0  0
   26.6619  -20.6736   -6.6334 C   0  0  0  0  0  0  0  0  0  0  0  0
   27.2733  -20.6414   -8.0165 C   0  0  0  0  0  0  0  0  0  0  0  0
   26.2845  -21.0913   -9.0740 C   0  0  2  0  0  0  0  0  0  0  0  0
   26.9079  -20.9156  -10.3555 N   0  0  0  0  0  0  0  0  0  0  0  0
   24.9812  -20.4368   -8.9569 C   0  0  0  0  0  0  0  0  0  0  0  0
   24.0562  -20.9967   -8.2934 O   0  0  0  0  0  0  0  0  0  0  0  0
   24.6677  -19.2178   -9.5313 O   0  0  0  0  0  0  0  0  0  0  0  0
  1  2  1  0
  3  2  1  0
  3  5  1  0
  3  4  1  6
  5  6  2  0
  7  5  1  0
  7 11  1  0
  8  7  1  0
  9  8  1  0
  9 10  1  0
 10 11  1  0
 11 12  1  1
 12 19  1  0
 12 13  2  0
 14 15  1  0
 16 15  1  0
 18 17  1  1
 17 16  1  0
 18 20  1  0
 19 18  1  0
 20 22  1  0
 21 20  2  0
M  END
$$$$
