SPM.pdb
     RDKit          3D

 22 22  0  0  1  0  0  0  0  0999 V2000
   15.8368  -18.4544    5.1498 O   0  0  0  0  0  0  0  0  0  0  0  0
   16.2039  -18.4277    3.7969 C   0  0  0  0  0  0  0  0  0  0  0  0
   17.1265  -19.6206    3.5049 C   0  0  2  0  0  0  0  0  0  0  0  0
   16.2157  -20.6922    3.0754 N   0  0  0  0  0  0  0  0  0  0  0  0
   17.8567  -20.0574    4.7021 C   0  0  0  0  0  0  0  0  0  0  0  0
   17.3731  -21.0240    5.3751 O   0  0  0  0  0  0  0  0  0  0  0  0
   19.0706  -19.4769    5.1659 N   0  0  0  0  0  0  0  0  0  0  0  0
   19.7773  -18.4432    4.4187 C   0  0  0  0  0  0  0  0  0  0  0  0
   21.2283  -18.6000    4.8434 C   0  0  0  0  0  0  0  0  0  0  0  0
   21.1374  -19.1828    6.2481 C   0  0  0  0  0  0  0  0  0  0  0  0
   19.7735  -19.7868    6.3734 C   0  0  1  0  0  0  0  0  0  0  0  0
   19.1033  -19.2204    7.5795 C   0  0  0  0  0  0  0  0  0  0  0  0
   18.3402  -18.2475    7.5089 O   0  0  0  0  0  0  0  0  0  0  0  0
   17.8074  -22.7680   13.2659 C   0  0  0  0  0  0  0  0  0  0  0  0
   18.7667  -21.3098   13.6658 S   0  0  0  0  0  0  0  0  0  0  0  0
   18.5243  -19.9514   12.4929 C   0  0  0  0  0  0  0  0  0  0  0  0
   19.1338  -20.3382   11.1637 C   0  0  0  0  0  0  0  0  0  0  0  0
   18.8712  -19.2875   10.1029 C   0  0  2  0  0  0  0  0  0  0  0  0
   19.3411  -19.8075    8.8496 N   0  0  0  0  0  0  0  0  0  0  0  0
   19.4255  -17.9769   10.4431 C   0  0  0  0  0  0  0  0  0  0  0  0
   20.6370  -17.7187   10.1695 O   0  0  0  0  0  0  0  0  0  0  0  0
   18.7107  -16.9655   11.0600 O   0  0  0  0  0  0  0  0  0  0  0  0
  1  2  1  0
  3  2  1  0
  3  5  1  0
  3  4  1  1
  5  6  2  0
  7  5  1  0
  7 11  1  0
  8  7  1  0
  9  8  1  0
  9 10  1  0
 10 11  1  0
 11 12  1  1
 12 19  1  0
 12 13  2  0
 14 15  1  0
 16 15  1  0
 18 17  1  1
 17 16  1  0
 18 20  1  0
 19 18  1  0
 20 22  1  0
 21 20  2  0
M  END
$$$$
