SPM.pdb
     RDKit          3D

 22 22  0  0  1  0  0  0  0  0999 V2000
   27.8091  -16.4043  -14.9707 O   0  0  0  0  0  0  0  0  0  0  0  0
   26.6364  -16.7072  -14.2644 C   0  0  0  0  0  0  0  0  0  0  0  0
   26.0343  -18.0038  -14.8262 C   0  0  2  0  0  0  0  0  0  0  0  0
   24.7065  -17.6083  -15.3189 N   0  0  0  0  0  0  0  0  0  0  0  0
   25.8788  -19.0325  -13.7895 C   0  0  0  0  0  0  0  0  0  0  0  0
   24.8476  -18.9764  -13.0446 O   0  0  0  0  0  0  0  0  0  0  0  0
   26.8001  -20.0920  -13.5565 N   0  0  0  0  0  0  0  0  0  0  0  0
   28.0508  -20.2159  -14.2958 C   0  0  0  0  0  0  0  0  0  0  0  0
   28.3583  -21.7042  -14.2646 C   0  0  0  0  0  0  0  0  0  0  0  0
   27.6978  -22.1874  -12.9796 C   0  0  0  0  0  0  0  0  0  0  0  0
   26.6706  -21.1616  -12.6145 C   0  0  1  0  0  0  0  0  0  0  0  0
   26.9126  -20.7133  -11.2126 C   0  0  0  0  0  0  0  0  0  0  0  0
   27.8685  -19.9848  -10.9134 O   0  0  0  0  0  0  0  0  0  0  0  0
   27.9549  -19.7921   -4.8536 C   0  0  0  0  0  0  0  0  0  0  0  0
   28.1412  -19.3215   -6.5713 S   0  0  0  0  0  0  0  0  0  0  0  0
   26.5924  -18.7756   -7.3347 C   0  0  0  0  0  0  0  0  0  0  0  0
   26.5386  -19.2921   -8.7553 C   0  0  0  0  0  0  0  0  0  0  0  0
   26.1251  -20.7499   -8.8034 C   0  0  2  0  0  0  0  0  0  0  0  0
   26.0263  -21.1288  -10.1848 N   0  0  0  0  0  0  0  0  0  0  0  0
   24.9174  -21.0301   -8.0267 C   0  0  0  0  0  0  0  0  0  0  0  0
   23.7857  -21.0125   -8.5997 O   0  0  0  0  0  0  0  0  0  0  0  0
   24.9115  -21.3208   -6.6740 O   0  0  0  0  0  0  0  0  0  0  0  0
  1  2  1  0
  3  2  1  0
  3  5  1  0
  3  4  1  1
  5  6  2  0
  7  5  1  0
  7 11  1  0
  8  7  1  0
  9  8  1  0
  9 10  1  0
 10 11  1  0
 11 12  1  1
 12 19  1  0
 12 13  2  0
 14 15  1  0
 16 15  1  0
 18 17  1  6
 17 16  1  0
 18 20  1  0
 19 18  1  0
 20 22  1  0
 21 20  2  0
M  END
$$$$
