HYT.pdb
     RDKit          3D

 30 31  0  0  1  0  0  0  0  0999 V2000
    7.7700  -15.6457   18.9987 N   0  0  0  0  0  0  0  0  0  0  0  0
    9.1242  -15.1654   19.2811 C   0  0  1  0  0  0  0  0  0  0  0  0
    9.3876  -14.0124   18.3471 C   0  0  0  0  0  0  0  0  0  0  0  0
    8.7637  -14.3971   17.0394 C   0  0  0  0  0  0  0  0  0  0  0  0
    7.4347  -14.7987   16.8888 C   0  0  0  0  0  0  0  0  0  0  0  0
    7.2513  -15.0629   15.5892 N   0  0  0  0  0  0  0  0  0  0  0  0
    8.4051  -14.8411   14.9426 C   0  0  0  0  0  0  0  0  0  0  0  0
    9.3258  -14.4373   15.8152 N   0  0  0  0  0  0  0  0  0  0  0  0
    9.2231  -14.8286   20.6905 C   0  0  0  0  0  0  0  0  0  0  0  0
   10.3525  -14.5190   21.1605 O   0  0  0  0  0  0  0  0  0  0  0  0
    7.6725  -12.8180   29.1520 O   0  0  0  0  0  0  0  0  0  0  0  0
    7.5303  -13.0565   27.8088 C   0  0  0  0  0  0  0  0  0  0  0  0
    8.0376  -12.2017   26.8350 C   0  0  0  0  0  0  0  0  0  0  0  0
    7.8788  -12.4677   25.5025 C   0  0  0  0  0  0  0  0  0  0  0  0
    7.2009  -13.6071   25.0501 C   0  0  0  0  0  0  0  0  0  0  0  0
    7.0167  -13.8974   23.6053 C   0  0  0  0  0  0  0  0  0  0  0  0
    8.2150  -14.5944   23.0137 C   0  0  2  0  0  0  0  0  0  0  0  0
    8.1476  -14.8115   21.6149 N   0  0  0  0  0  0  0  0  0  0  0  0
    8.4405  -15.8781   23.7112 C   0  0  0  0  0  0  0  0  0  0  0  0
    7.5198  -16.7350   23.6572 O   0  0  0  0  0  0  0  0  0  0  0  0
    6.7110  -14.4336   26.0340 C   0  0  0  0  0  0  0  0  0  0  0  0
    6.8698  -14.1685   27.3860 C   0  0  0  0  0  0  0  0  0  0  0  0
   10.6906  -18.5564   23.0008 C   0  0  0  0  0  0  0  0  0  0  0  0
   10.9716  -18.2396   24.4453 C   0  0  1  0  0  0  0  0  0  0  0  0
   12.1385  -17.4729   24.4917 O   0  0  0  0  0  0  0  0  0  0  0  0
    9.8183  -17.4795   25.0928 C   0  0  2  0  0  0  0  0  0  0  0  0
    9.6088  -16.2154   24.4287 N   0  0  0  0  0  0  0  0  0  0  0  0
   10.0790  -17.2729   26.5583 C   0  0  0  0  0  0  0  0  0  0  0  0
   10.2503  -16.1542   27.0773 O   0  0  0  0  0  0  0  0  0  0  0  0
   10.1325  -18.3961   27.3874 O   0  0  0  0  0  0  0  0  0  0  0  0
  2  1  1  1
  2  3  1  0
  3  4  1  0
  4  5  2  0
  5  6  1  0
  7  6  1  0
  8  4  1  0
  8  7  2  0
  9  2  1  0
  9 18  1  0
 10  9  2  0
 12 22  2  0
 12 11  1  0
 13 12  1  0
 14 15  1  0
 14 13  2  0
 15 21  2  0
 17 16  1  1
 16 15  1  0
 17 18  1  0
 19 17  1  0
 20 19  2  0
 21 22  1  0
 24 23  1  6
 24 26  1  0
 25 24  1  0
 26 27  1  6
 26 28  1  0
 27 19  1  0
 28 30  1  0
 29 28  2  0
M  END
$$$$
