HYT.pdb
     RDKit          3D

 30 31  0  0  1  0  0  0  0  0999 V2000
    8.3945  -17.0908   19.1867 N   0  0  0  0  0  0  0  0  0  0  0  0
    9.7483  -16.6705   19.5544 C   0  0  1  0  0  0  0  0  0  0  0  0
   10.2842  -15.8539   18.4068 C   0  0  0  0  0  0  0  0  0  0  0  0
    9.1384  -15.0079   17.9391 C   0  0  0  0  0  0  0  0  0  0  0  0
    8.9557  -13.6677   18.2866 C   0  0  0  0  0  0  0  0  0  0  0  0
    7.8308  -13.2585   17.6870 N   0  0  0  0  0  0  0  0  0  0  0  0
    7.3210  -14.2856   16.9916 C   0  0  0  0  0  0  0  0  0  0  0  0
    8.1083  -15.3487   17.1397 N   0  0  0  0  0  0  0  0  0  0  0  0
    9.6965  -15.9614   20.8209 C   0  0  0  0  0  0  0  0  0  0  0  0
   10.7797  -15.5874   21.3493 O   0  0  0  0  0  0  0  0  0  0  0  0
    7.1903  -12.1386   28.3829 O   0  0  0  0  0  0  0  0  0  0  0  0
    7.1648  -12.6857   27.1254 C   0  0  0  0  0  0  0  0  0  0  0  0
    6.4155  -13.8156   26.8116 C   0  0  0  0  0  0  0  0  0  0  0  0
    6.4114  -14.3375   25.5470 C   0  0  0  0  0  0  0  0  0  0  0  0
    7.1567  -13.7663   24.5074 C   0  0  0  0  0  0  0  0  0  0  0  0
    7.1642  -14.3329   23.1345 C   0  0  0  0  0  0  0  0  0  0  0  0
    8.4258  -15.1074   22.8517 C   0  0  2  0  0  0  0  0  0  0  0  0
    8.5183  -15.6379   21.5409 N   0  0  0  0  0  0  0  0  0  0  0  0
    8.5790  -16.1917   23.8448 C   0  0  0  0  0  0  0  0  0  0  0  0
    7.6996  -17.0924   23.8576 O   0  0  0  0  0  0  0  0  0  0  0  0
    7.8867  -12.6512   24.8461 C   0  0  0  0  0  0  0  0  0  0  0  0
    7.8938  -12.1182   26.1265 C   0  0  0  0  0  0  0  0  0  0  0  0
   10.6968  -18.9258   23.9699 C   0  0  0  0  0  0  0  0  0  0  0  0
   10.9381  -18.2874   25.3115 C   0  0  1  0  0  0  0  0  0  0  0  0
   12.1239  -17.5539   25.2247 O   0  0  0  0  0  0  0  0  0  0  0  0
    9.7855  -17.3751   25.7197 C   0  0  2  0  0  0  0  0  0  0  0  0
    9.6362  -16.2943   24.7750 N   0  0  0  0  0  0  0  0  0  0  0  0
   10.0011  -16.8412   27.1079 C   0  0  0  0  0  0  0  0  0  0  0  0
   10.0253  -17.5575   28.1261 O   0  0  0  0  0  0  0  0  0  0  0  0
   10.1851  -15.4657   27.2686 O   0  0  0  0  0  0  0  0  0  0  0  0
  2  1  1  6
  2  3  1  0
  3  4  1  0
  4  5  2  0
  5  6  1  0
  7  6  1  0
  8  4  1  0
  8  7  2  0
  9  2  1  0
  9 18  1  0
 10  9  2  0
 12 22  2  0
 12 11  1  0
 13 12  1  0
 14 15  1  0
 14 13  2  0
 15 21  2  0
 17 16  1  6
 16 15  1  0
 17 18  1  0
 19 17  1  0
 20 19  2  0
 21 22  1  0
 24 23  1  6
 24 26  1  0
 25 24  1  0
 26 27  1  6
 26 28  1  0
 27 19  1  0
 28 30  1  0
 29 28  2  0
M  END
$$$$
