HYT.pdb
     RDKit          3D

 30 31  0  0  1  0  0  0  0  0999 V2000
    9.8889  -16.7964   18.5996 N   0  0  0  0  0  0  0  0  0  0  0  0
    8.7047  -16.9735   19.4426 C   0  0  1  0  0  0  0  0  0  0  0  0
    8.4578  -18.4562   19.5513 C   0  0  0  0  0  0  0  0  0  0  0  0
    7.9656  -18.8869   18.2024 C   0  0  0  0  0  0  0  0  0  0  0  0
    6.7417  -18.5019   17.6508 C   0  0  0  0  0  0  0  0  0  0  0  0
    6.6540  -19.0853   16.4490 N   0  0  0  0  0  0  0  0  0  0  0  0
    7.7659  -19.8063   16.2435 C   0  0  0  0  0  0  0  0  0  0  0  0
    8.5650  -19.6906   17.3018 N   0  0  0  0  0  0  0  0  0  0  0  0
    8.9253  -16.3086   20.7149 C   0  0  0  0  0  0  0  0  0  0  0  0
   10.0520  -16.4256   21.2710 O   0  0  0  0  0  0  0  0  0  0  0  0
    7.4708  -12.2356   28.4807 O   0  0  0  0  0  0  0  0  0  0  0  0
    7.3809  -12.6464   27.1751 C   0  0  0  0  0  0  0  0  0  0  0  0
    8.2241  -12.1689   26.1765 C   0  0  0  0  0  0  0  0  0  0  0  0
    8.1087  -12.5985   24.8827 C   0  0  0  0  0  0  0  0  0  0  0  0
    7.1416  -13.5356   24.4967 C   0  0  0  0  0  0  0  0  0  0  0  0
    7.0046  -13.9995   23.0925 C   0  0  0  0  0  0  0  0  0  0  0  0
    8.1058  -14.9524   22.7042 C   0  0  2  0  0  0  0  0  0  0  0  0
    7.9755  -15.5191   21.4119 N   0  0  0  0  0  0  0  0  0  0  0  0
    8.2165  -16.0257   23.7148 C   0  0  0  0  0  0  0  0  0  0  0  0
    7.2214  -16.7817   23.8666 O   0  0  0  0  0  0  0  0  0  0  0  0
    6.3231  -13.9902   25.5040 C   0  0  0  0  0  0  0  0  0  0  0  0
    6.4364  -13.5580   26.8169 C   0  0  0  0  0  0  0  0  0  0  0  0
    9.7584  -19.1235   23.7358 C   0  0  0  0  0  0  0  0  0  0  0  0
   10.3567  -18.4509   24.9421 C   0  0  1  0  0  0  0  0  0  0  0  0
   11.5943  -17.9247   24.5638 O   0  0  0  0  0  0  0  0  0  0  0  0
    9.4561  -17.3415   25.4765 C   0  0  2  0  0  0  0  0  0  0  0  0
    9.3524  -16.2677   24.5178 N   0  0  0  0  0  0  0  0  0  0  0  0
    9.9718  -16.8308   26.7924 C   0  0  0  0  0  0  0  0  0  0  0  0
    9.2620  -16.6985   27.8068 O   0  0  0  0  0  0  0  0  0  0  0  0
   11.3221  -16.4847   26.8866 O   0  0  0  0  0  0  0  0  0  0  0  0
  2  1  1  6
  2  3  1  0
  3  4  1  0
  4  5  2  0
  5  6  1  0
  7  6  1  0
  8  4  1  0
  8  7  2  0
  9  2  1  0
  9 18  1  0
 10  9  2  0
 12 22  2  0
 12 11  1  0
 13 12  1  0
 14 15  1  0
 14 13  2  0
 15 21  2  0
 17 16  1  1
 16 15  1  0
 17 18  1  0
 19 17  1  0
 20 19  2  0
 21 22  1  0
 24 23  1  6
 24 26  1  0
 25 24  1  0
 26 27  1  6
 26 28  1  0
 27 19  1  0
 28 30  1  0
 29 28  2  0
M  END
$$$$
