HYT.pdb
     RDKit          3D

 30 31  0  0  1  0  0  0  0  0999 V2000
   10.5977  -15.3778   19.0374 N   0  0  0  0  0  0  0  0  0  0  0  0
    9.2775  -14.9228   19.4787 C   0  0  1  0  0  0  0  0  0  0  0  0
    8.2560  -15.7431   18.7338 C   0  0  0  0  0  0  0  0  0  0  0  0
    8.3124  -15.2704   17.3122 C   0  0  0  0  0  0  0  0  0  0  0  0
    7.8301  -14.0356   16.8732 C   0  0  0  0  0  0  0  0  0  0  0  0
    8.0504  -13.9768   15.5539 N   0  0  0  0  0  0  0  0  0  0  0  0
    8.6437  -15.1166   15.1700 C   0  0  0  0  0  0  0  0  0  0  0  0
    8.8056  -15.9050   16.2304 N   0  0  0  0  0  0  0  0  0  0  0  0
    9.1966  -15.0353   20.9244 C   0  0  0  0  0  0  0  0  0  0  0  0
   10.0748  -15.7108   21.5285 O   0  0  0  0  0  0  0  0  0  0  0  0
    7.7217  -12.6442   29.3199 O   0  0  0  0  0  0  0  0  0  0  0  0
    7.5760  -12.8167   27.9670 C   0  0  0  0  0  0  0  0  0  0  0  0
    6.5788  -13.6140   27.4134 C   0  0  0  0  0  0  0  0  0  0  0  0
    6.4600  -13.7660   26.0589 C   0  0  0  0  0  0  0  0  0  0  0  0
    7.3305  -13.1319   25.1631 C   0  0  0  0  0  0  0  0  0  0  0  0
    7.2131  -13.2999   23.6920 C   0  0  0  0  0  0  0  0  0  0  0  0
    8.2444  -14.2562   23.1503 C   0  0  2  0  0  0  0  0  0  0  0  0
    8.2033  -14.4445   21.7463 N   0  0  0  0  0  0  0  0  0  0  0  0
    8.1246  -15.5603   23.8361 C   0  0  0  0  0  0  0  0  0  0  0  0
    7.0528  -16.2011   23.6765 O   0  0  0  0  0  0  0  0  0  0  0  0
    8.3052  -12.3505   25.7380 C   0  0  0  0  0  0  0  0  0  0  0  0
    8.4294  -12.1929   27.1103 C   0  0  0  0  0  0  0  0  0  0  0  0
    9.4332  -18.7411   23.2223 C   0  0  0  0  0  0  0  0  0  0  0  0
    9.8758  -18.4613   24.6336 C   0  0  1  0  0  0  0  0  0  0  0  0
   11.1962  -18.0081   24.5816 O   0  0  0  0  0  0  0  0  0  0  0  0
    8.9895  -17.4191   25.3086 C   0  0  2  0  0  0  0  0  0  0  0  0
    9.1205  -16.1409   24.6514 N   0  0  0  0  0  0  0  0  0  0  0  0
    9.3288  -17.3033   26.7681 C   0  0  0  0  0  0  0  0  0  0  0  0
    9.8519  -16.2942   27.2765 O   0  0  0  0  0  0  0  0  0  0  0  0
    9.0425  -18.3857   27.6036 O   0  0  0  0  0  0  0  0  0  0  0  0
  2  1  1  6
  2  3  1  0
  3  4  1  0
  4  5  2  0
  5  6  1  0
  7  6  1  0
  8  4  1  0
  8  7  2  0
  9  2  1  0
  9 18  1  0
 10  9  2  0
 12 22  2  0
 12 11  1  0
 13 12  1  0
 14 15  1  0
 14 13  2  0
 15 21  2  0
 17 16  1  1
 16 15  1  0
 17 18  1  0
 19 17  1  0
 20 19  2  0
 21 22  1  0
 24 23  1  6
 24 26  1  0
 25 24  1  0
 26 27  1  6
 26 28  1  0
 27 19  1  0
 28 30  1  0
 29 28  2  0
M  END
$$$$
