HYT.pdb
     RDKit          3D

 30 31  0  0  1  0  0  0  0  0999 V2000
    7.7774  -15.7787   19.5181 N   0  0  0  0  0  0  0  0  0  0  0  0
    9.1984  -15.6915   19.8612 C   0  0  1  0  0  0  0  0  0  0  0  0
    9.8246  -14.7108   18.9034 C   0  0  0  0  0  0  0  0  0  0  0  0
    8.9525  -14.7192   17.6841 C   0  0  0  0  0  0  0  0  0  0  0  0
    8.4348  -15.8742   17.0941 C   0  0  0  0  0  0  0  0  0  0  0  0
    7.7167  -15.4832   16.0339 N   0  0  0  0  0  0  0  0  0  0  0  0
    7.7730  -14.1459   15.9513 C   0  0  0  0  0  0  0  0  0  0  0  0
    8.5201  -13.6763   16.9481 N   0  0  0  0  0  0  0  0  0  0  0  0
    9.3261  -15.3257   21.2610 C   0  0  0  0  0  0  0  0  0  0  0  0
   10.4826  -15.2033   21.7509 O   0  0  0  0  0  0  0  0  0  0  0  0
    7.7274  -13.1263   29.6884 O   0  0  0  0  0  0  0  0  0  0  0  0
    7.5768  -13.3635   28.3459 C   0  0  0  0  0  0  0  0  0  0  0  0
    6.8874  -14.4656   27.8494 C   0  0  0  0  0  0  0  0  0  0  0  0
    6.7549  -14.6744   26.5038 C   0  0  0  0  0  0  0  0  0  0  0  0
    7.3029  -13.7959   25.5603 C   0  0  0  0  0  0  0  0  0  0  0  0
    7.1708  -14.0212   24.0982 C   0  0  0  0  0  0  0  0  0  0  0  0
    8.3289  -14.8100   23.5430 C   0  0  2  0  0  0  0  0  0  0  0  0
    8.2518  -15.0849   22.1549 N   0  0  0  0  0  0  0  0  0  0  0  0
    8.4806  -16.0720   24.2977 C   0  0  0  0  0  0  0  0  0  0  0  0
    7.5072  -16.8703   24.2910 O   0  0  0  0  0  0  0  0  0  0  0  0
    7.9778  -12.7160   26.0793 C   0  0  0  0  0  0  0  0  0  0  0  0
    8.1145  -12.4998   27.4424 C   0  0  0  0  0  0  0  0  0  0  0  0
   10.4594  -19.0243   23.8238 C   0  0  0  0  0  0  0  0  0  0  0  0
   10.8093  -18.5785   25.2184 C   0  0  1  0  0  0  0  0  0  0  0  0
   12.0362  -17.9134   25.1553 O   0  0  0  0  0  0  0  0  0  0  0  0
    9.7426  -17.6577   25.8026 C   0  0  2  0  0  0  0  0  0  0  0  0
    9.6332  -16.4496   25.0206 N   0  0  0  0  0  0  0  0  0  0  0  0
   10.0517  -17.3355   27.2376 C   0  0  0  0  0  0  0  0  0  0  0  0
   10.3600  -16.1975   27.6379 O   0  0  0  0  0  0  0  0  0  0  0  0
    9.9905  -18.3675   28.1772 O   0  0  0  0  0  0  0  0  0  0  0  0
  2  1  1  6
  2  3  1  0
  3  4  1  0
  4  5  2  0
  5  6  1  0
  7  6  1  0
  8  4  1  0
  8  7  2  0
  9  2  1  0
  9 18  1  0
 10  9  2  0
 12 22  2  0
 12 11  1  0
 13 12  1  0
 14 15  1  0
 14 13  2  0
 15 21  2  0
 17 16  1  1
 16 15  1  0
 17 18  1  0
 19 17  1  0
 20 19  2  0
 21 22  1  0
 24 23  1  6
 24 26  1  0
 25 24  1  0
 26 27  1  6
 26 28  1  0
 27 19  1  0
 28 30  1  0
 29 28  2  0
M  END
$$$$
