HYT.pdb
     RDKit          3D

 30 31  0  0  1  0  0  0  0  0999 V2000
    8.5684  -17.3393   19.5174 N   0  0  0  0  0  0  0  0  0  0  0  0
    9.9012  -16.8378   19.8588 C   0  0  1  0  0  0  0  0  0  0  0  0
   10.4156  -16.0944   18.6530 C   0  0  0  0  0  0  0  0  0  0  0  0
   10.3195  -17.0584   17.5089 C   0  0  0  0  0  0  0  0  0  0  0  0
   10.6816  -18.4052   17.5813 C   0  0  0  0  0  0  0  0  0  0  0  0
   10.4620  -18.9344   16.3713 N   0  0  0  0  0  0  0  0  0  0  0  0
    9.9837  -17.9739   15.5669 C   0  0  0  0  0  0  0  0  0  0  0  0
    9.8947  -16.8346   16.2496 N   0  0  0  0  0  0  0  0  0  0  0  0
    9.8100  -16.0327   21.0642 C   0  0  0  0  0  0  0  0  0  0  0  0
   10.8713  -15.5633   21.5597 O   0  0  0  0  0  0  0  0  0  0  0  0
    7.0066  -11.8697   28.3684 O   0  0  0  0  0  0  0  0  0  0  0  0
    7.0901  -12.4255   27.1173 C   0  0  0  0  0  0  0  0  0  0  0  0
    7.9610  -11.9526   26.1405 C   0  0  0  0  0  0  0  0  0  0  0  0
    8.0203  -12.5291   24.9012 C   0  0  0  0  0  0  0  0  0  0  0  0
    7.2124  -13.6187   24.5515 C   0  0  0  0  0  0  0  0  0  0  0  0
    7.2649  -14.2436   23.2052 C   0  0  0  0  0  0  0  0  0  0  0  0
    8.4920  -15.1009   23.0296 C   0  0  2  0  0  0  0  0  0  0  0  0
    8.6147  -15.7123   21.7571 N   0  0  0  0  0  0  0  0  0  0  0  0
    8.5367  -16.1312   24.0887 C   0  0  0  0  0  0  0  0  0  0  0  0
    7.4809  -16.7807   24.3084 O   0  0  0  0  0  0  0  0  0  0  0  0
    6.3623  -14.0650   25.5361 C   0  0  0  0  0  0  0  0  0  0  0  0
    6.2988  -13.4842   26.7939 C   0  0  0  0  0  0  0  0  0  0  0  0
    9.8508  -19.3537   24.2904 C   0  0  0  0  0  0  0  0  0  0  0  0
   10.4943  -18.6622   25.4623 C   0  0  1  0  0  0  0  0  0  0  0  0
   11.7800  -18.2780   25.0739 O   0  0  0  0  0  0  0  0  0  0  0  0
    9.6945  -17.4423   25.9087 C   0  0  2  0  0  0  0  0  0  0  0  0
    9.6723  -16.4429   24.8678 N   0  0  0  0  0  0  0  0  0  0  0  0
   10.2628  -16.8742   27.1786 C   0  0  0  0  0  0  0  0  0  0  0  0
   10.7403  -15.7278   27.2682 O   0  0  0  0  0  0  0  0  0  0  0  0
   10.2565  -17.6738   28.3242 O   0  0  0  0  0  0  0  0  0  0  0  0
  2  1  1  6
  2  3  1  0
  3  4  1  0
  4  5  2  0
  5  6  1  0
  7  6  1  0
  8  4  1  0
  8  7  2  0
  9  2  1  0
  9 18  1  0
 10  9  2  0
 12 22  2  0
 12 11  1  0
 13 12  1  0
 14 15  1  0
 14 13  2  0
 15 21  2  0
 17 16  1  6
 16 15  1  0
 17 18  1  0
 19 17  1  0
 20 19  2  0
 21 22  1  0
 24 23  1  6
 24 26  1  0
 25 24  1  0
 26 27  1  6
 26 28  1  0
 27 19  1  0
 28 30  1  0
 29 28  2  0
M  END
$$$$
