HYT.pdb
     RDKit          3D

 30 31  0  0  1  0  0  0  0  0999 V2000
    9.9962  -15.3009   19.8835 N   0  0  0  0  0  0  0  0  0  0  0  0
    9.0077  -14.7108   20.7885 C   0  0  1  0  0  0  0  0  0  0  0  0
    7.6465  -15.0650   20.2473 C   0  0  0  0  0  0  0  0  0  0  0  0
    7.5496  -14.3872   18.9137 C   0  0  0  0  0  0  0  0  0  0  0  0
    7.7929  -13.0285   18.7014 C   0  0  0  0  0  0  0  0  0  0  0  0
    7.6029  -12.7968   17.3966 N   0  0  0  0  0  0  0  0  0  0  0  0
    7.2560  -13.9495   16.8055 C   0  0  0  0  0  0  0  0  0  0  0  0
    7.2219  -14.9173   17.7189 N   0  0  0  0  0  0  0  0  0  0  0  0
    9.2576  -15.1863   22.1379 C   0  0  0  0  0  0  0  0  0  0  0  0
    9.8024  -16.3143   22.2904 O   0  0  0  0  0  0  0  0  0  0  0  0
   10.9383  -15.4117   30.8053 O   0  0  0  0  0  0  0  0  0  0  0  0
   10.4525  -15.0111   29.5868 C   0  0  0  0  0  0  0  0  0  0  0  0
    9.2600  -14.3077   29.4465 C   0  0  0  0  0  0  0  0  0  0  0  0
    8.8022  -13.9224   28.2162 C   0  0  0  0  0  0  0  0  0  0  0  0
    9.5045  -14.2139   27.0397 C   0  0  0  0  0  0  0  0  0  0  0  0
    9.0088  -13.8068   25.7002 C   0  0  0  0  0  0  0  0  0  0  0  0
    9.2539  -14.8711   24.6616 C   0  0  2  0  0  0  0  0  0  0  0  0
    8.9431  -14.4897   23.3326 N   0  0  0  0  0  0  0  0  0  0  0  0
    8.5107  -16.0979   25.0193 C   0  0  0  0  0  0  0  0  0  0  0  0
    7.2594  -16.0063   25.1232 O   0  0  0  0  0  0  0  0  0  0  0  0
   10.6789  -14.9090   27.2086 C   0  0  0  0  0  0  0  0  0  0  0  0
   11.1474  -15.3015   28.4536 C   0  0  0  0  0  0  0  0  0  0  0  0
    7.3345  -19.1586   23.6051 C   0  0  0  0  0  0  0  0  0  0  0  0
    8.2454  -19.5875   24.7240 C   0  0  1  0  0  0  0  0  0  0  0  0
    9.4916  -19.8834   24.1663 O   0  0  0  0  0  0  0  0  0  0  0  0
    8.3899  -18.5003   25.7844 C   0  0  2  0  0  0  0  0  0  0  0  0
    9.0969  -17.3617   25.2491 N   0  0  0  0  0  0  0  0  0  0  0  0
    9.0918  -19.0382   26.9996 C   0  0  0  0  0  0  0  0  0  0  0  0
   10.1938  -18.6202   27.4010 O   0  0  0  0  0  0  0  0  0  0  0  0
    8.4764  -20.0638   27.7215 O   0  0  0  0  0  0  0  0  0  0  0  0
  2  1  1  6
  2  3  1  0
  3  4  1  0
  4  5  2  0
  5  6  1  0
  7  6  1  0
  8  4  1  0
  8  7  2  0
  9  2  1  0
  9 18  1  0
 10  9  2  0
 12 22  2  0
 12 11  1  0
 13 12  1  0
 14 15  1  0
 14 13  2  0
 15 21  2  0
 17 16  1  1
 16 15  1  0
 17 18  1  0
 19 17  1  0
 20 19  2  0
 21 22  1  0
 24 23  1  6
 24 26  1  0
 25 24  1  0
 26 27  1  6
 26 28  1  0
 27 19  1  0
 28 30  1  0
 29 28  2  0
M  END
$$$$
