HYT.pdb
     RDKit          3D

 30 31  0  0  1  0  0  0  0  0999 V2000
    9.8362  -18.1121   17.5934 N   0  0  0  0  0  0  0  0  0  0  0  0
    9.3617  -18.4390   18.9396 C   0  0  1  0  0  0  0  0  0  0  0  0
    9.6940  -19.8883   19.1852 C   0  0  0  0  0  0  0  0  0  0  0  0
    8.8374  -20.6691   18.2345 C   0  0  0  0  0  0  0  0  0  0  0  0
    7.4433  -20.7251   18.2949 C   0  0  0  0  0  0  0  0  0  0  0  0
    7.0404  -21.5179   17.2941 N   0  0  0  0  0  0  0  0  0  0  0  0
    8.1227  -21.9465   16.6283 C   0  0  0  0  0  0  0  0  0  0  0  0
    9.2150  -21.4360   17.1926 N   0  0  0  0  0  0  0  0  0  0  0  0
    9.9609  -17.5182   19.8896 C   0  0  0  0  0  0  0  0  0  0  0  0
   11.1792  -17.2182   19.7549 O   0  0  0  0  0  0  0  0  0  0  0  0
    7.0710  -12.2344   17.4052 O   0  0  0  0  0  0  0  0  0  0  0  0
    7.5277  -12.8344   18.5509 C   0  0  0  0  0  0  0  0  0  0  0  0
    8.8043  -12.6132   19.0585 C   0  0  0  0  0  0  0  0  0  0  0  0
    9.2303  -13.2275   20.2043 C   0  0  0  0  0  0  0  0  0  0  0  0
    8.4096  -14.1066   20.9227 C   0  0  0  0  0  0  0  0  0  0  0  0
    8.8686  -14.7840   22.1621 C   0  0  0  0  0  0  0  0  0  0  0  0
    9.8085  -15.9243   21.8657 C   0  0  2  0  0  0  0  0  0  0  0  0
    9.2948  -16.9055   20.9815 N   0  0  0  0  0  0  0  0  0  0  0  0
   10.2353  -16.5609   23.1298 C   0  0  0  0  0  0  0  0  0  0  0  0
    9.3647  -16.7037   24.0279 O   0  0  0  0  0  0  0  0  0  0  0  0
    7.1540  -14.3057   20.3984 C   0  0  0  0  0  0  0  0  0  0  0  0
    6.7175  -13.6850   19.2374 C   0  0  0  0  0  0  0  0  0  0  0  0
   11.1967  -19.9709   23.8660 C   0  0  0  0  0  0  0  0  0  0  0  0
   12.3541  -19.1281   24.3307 C   0  0  1  0  0  0  0  0  0  0  0  0
   13.3230  -19.1472   23.3245 O   0  0  0  0  0  0  0  0  0  0  0  0
   11.9280  -17.6924   24.6216 C   0  0  2  0  0  0  0  0  0  0  0  0
   11.5413  -17.0223   23.4034 N   0  0  0  0  0  0  0  0  0  0  0  0
   13.0329  -16.9436   25.3122 C   0  0  0  0  0  0  0  0  0  0  0  0
   13.6472  -15.9909   24.7970 O   0  0  0  0  0  0  0  0  0  0  0  0
   13.3932  -17.3351   26.6040 O   0  0  0  0  0  0  0  0  0  0  0  0
  2  1  1  6
  2  3  1  0
  3  4  1  0
  4  5  2  0
  5  6  1  0
  7  6  1  0
  8  4  1  0
  8  7  2  0
  9  2  1  0
  9 18  1  0
 10  9  2  0
 12 22  2  0
 12 11  1  0
 13 12  1  0
 14 15  1  0
 14 13  2  0
 15 21  2  0
 17 16  1  1
 16 15  1  0
 17 18  1  0
 19 17  1  0
 20 19  2  0
 21 22  1  0
 24 23  1  6
 24 26  1  0
 25 24  1  0
 26 27  1  6
 26 28  1  0
 27 19  1  0
 28 30  1  0
 29 28  2  0
M  END
$$$$
