HYT.pdb
     RDKit          3D

 30 31  0  0  1  0  0  0  0  0999 V2000
    9.2743  -18.4348   19.2265 N   0  0  0  0  0  0  0  0  0  0  0  0
   10.4971  -17.6291   19.2224 C   0  0  1  0  0  0  0  0  0  0  0  0
   10.4752  -16.7996   17.9644 C   0  0  0  0  0  0  0  0  0  0  0  0
   10.3453  -17.7765   16.8348 C   0  0  0  0  0  0  0  0  0  0  0  0
   11.0278  -18.9927   16.7630 C   0  0  0  0  0  0  0  0  0  0  0  0
   10.6614  -19.5794   15.6167 N   0  0  0  0  0  0  0  0  0  0  0  0
    9.7887  -18.7781   14.9883 C   0  0  0  0  0  0  0  0  0  0  0  0
    9.5924  -17.6840   15.7208 N   0  0  0  0  0  0  0  0  0  0  0  0
   10.5579  -16.8542   20.4493 C   0  0  0  0  0  0  0  0  0  0  0  0
   11.5529  -16.1021   20.6409 O   0  0  0  0  0  0  0  0  0  0  0  0
    7.3895  -12.2334   18.0635 O   0  0  0  0  0  0  0  0  0  0  0  0
    7.6569  -12.9209   19.2198 C   0  0  0  0  0  0  0  0  0  0  0  0
    8.7116  -12.5899   20.0651 C   0  0  0  0  0  0  0  0  0  0  0  0
    8.9523  -13.2960   21.2119 C   0  0  0  0  0  0  0  0  0  0  0  0
    8.1554  -14.3830   21.5937 C   0  0  0  0  0  0  0  0  0  0  0  0
    8.4164  -15.1597   22.8325 C   0  0  0  0  0  0  0  0  0  0  0  0
    9.5873  -16.0954   22.6743 C   0  0  2  0  0  0  0  0  0  0  0  0
    9.5836  -16.8581   21.4799 N   0  0  0  0  0  0  0  0  0  0  0  0
    9.6692  -16.9947   23.8447 C   0  0  0  0  0  0  0  0  0  0  0  0
    8.6006  -17.5331   24.2360 O   0  0  0  0  0  0  0  0  0  0  0  0
    7.1209  -14.6869   20.7402 C   0  0  0  0  0  0  0  0  0  0  0  0
    6.8726  -13.9739   19.5768 C   0  0  0  0  0  0  0  0  0  0  0  0
   10.7478  -20.2641   24.2669 C   0  0  0  0  0  0  0  0  0  0  0  0
   11.5764  -19.5127   25.2741 C   0  0  1  0  0  0  0  0  0  0  0  0
   12.8255  -19.2690   24.6980 O   0  0  0  0  0  0  0  0  0  0  0  0
   10.9194  -18.1967   25.6787 C   0  0  2  0  0  0  0  0  0  0  0  0
   10.8530  -17.2967   24.5525 N   0  0  0  0  0  0  0  0  0  0  0  0
   11.6636  -17.5645   26.8210 C   0  0  0  0  0  0  0  0  0  0  0  0
   12.3197  -16.5113   26.7178 O   0  0  0  0  0  0  0  0  0  0  0  0
   11.6188  -18.1901   28.0693 O   0  0  0  0  0  0  0  0  0  0  0  0
  2  1  1  1
  2  3  1  0
  3  4  1  0
  4  5  2  0
  5  6  1  0
  7  6  1  0
  8  4  1  0
  8  7  2  0
  9  2  1  0
  9 18  1  0
 10  9  2  0
 12 22  2  0
 12 11  1  0
 13 12  1  0
 14 15  1  0
 14 13  2  0
 15 21  2  0
 17 16  1  1
 16 15  1  0
 17 18  1  0
 19 17  1  0
 20 19  2  0
 21 22  1  0
 24 23  1  6
 24 26  1  0
 25 24  1  0
 26 27  1  6
 26 28  1  0
 27 19  1  0
 28 30  1  0
 29 28  2  0
M  END
$$$$
