HYT.pdb
     RDKit          3D

 30 31  0  0  1  0  0  0  0  0999 V2000
   10.3271  -16.5522   18.8914 N   0  0  0  0  0  0  0  0  0  0  0  0
    9.0393  -16.6042   19.5867 C   0  0  1  0  0  0  0  0  0  0  0  0
    8.6020  -18.0463   19.5989 C   0  0  0  0  0  0  0  0  0  0  0  0
    7.9130  -18.2740   18.2871 C   0  0  0  0  0  0  0  0  0  0  0  0
    7.4488  -17.2540   17.4539 C   0  0  0  0  0  0  0  0  0  0  0  0
    6.8920  -17.8429   16.3883 N   0  0  0  0  0  0  0  0  0  0  0  0
    6.9955  -19.1720   16.5338 C   0  0  0  0  0  0  0  0  0  0  0  0
    7.6133  -19.4403   17.6820 N   0  0  0  0  0  0  0  0  0  0  0  0
    9.1884  -16.0127   20.9047 C   0  0  0  0  0  0  0  0  0  0  0  0
   10.2862  -16.1544   21.5105 O   0  0  0  0  0  0  0  0  0  0  0  0
    7.4985  -12.1115   28.7088 O   0  0  0  0  0  0  0  0  0  0  0  0
    7.4277  -12.5213   27.4018 C   0  0  0  0  0  0  0  0  0  0  0  0
    8.2596  -12.0141   26.4082 C   0  0  0  0  0  0  0  0  0  0  0  0
    8.1637  -12.4436   25.1128 C   0  0  0  0  0  0  0  0  0  0  0  0
    7.2288  -13.4100   24.7199 C   0  0  0  0  0  0  0  0  0  0  0  0
    7.1130  -13.8741   23.3138 C   0  0  0  0  0  0  0  0  0  0  0  0
    8.2621  -14.7655   22.9185 C   0  0  2  0  0  0  0  0  0  0  0  0
    8.1969  -15.2708   21.5961 N   0  0  0  0  0  0  0  0  0  0  0  0
    8.3797  -15.8835   23.8785 C   0  0  0  0  0  0  0  0  0  0  0  0
    7.4008  -16.6694   23.9735 O   0  0  0  0  0  0  0  0  0  0  0  0
    6.4209  -13.8935   25.7222 C   0  0  0  0  0  0  0  0  0  0  0  0
    6.5145  -13.4616   27.0368 C   0  0  0  0  0  0  0  0  0  0  0  0
   10.1227  -18.9191   23.8484 C   0  0  0  0  0  0  0  0  0  0  0  0
   10.5885  -18.2798   25.1291 C   0  0  1  0  0  0  0  0  0  0  0  0
   11.8310  -17.6913   24.8815 O   0  0  0  0  0  0  0  0  0  0  0  0
    9.6011  -17.2302   25.6296 C   0  0  2  0  0  0  0  0  0  0  0  0
    9.5055  -16.1372   24.6920 N   0  0  0  0  0  0  0  0  0  0  0  0
   10.0050  -16.7309   26.9883 C   0  0  0  0  0  0  0  0  0  0  0  0
   10.3200  -15.5494   27.2232 O   0  0  0  0  0  0  0  0  0  0  0  0
   10.0292  -17.6399   28.0489 O   0  0  0  0  0  0  0  0  0  0  0  0
  2  1  1  1
  2  3  1  0
  3  4  1  0
  4  5  2  0
  5  6  1  0
  7  6  1  0
  8  4  1  0
  8  7  2  0
  9  2  1  0
  9 18  1  0
 10  9  2  0
 12 22  2  0
 12 11  1  0
 13 12  1  0
 14 15  1  0
 14 13  2  0
 15 21  2  0
 17 16  1  1
 16 15  1  0
 17 18  1  0
 19 17  1  0
 20 19  2  0
 21 22  1  0
 24 23  1  6
 24 26  1  0
 25 24  1  0
 26 27  1  6
 26 28  1  0
 27 19  1  0
 28 30  1  0
 29 28  2  0
M  END
$$$$
