HYT.pdb
     RDKit          3D

 30 31  0  0  1  0  0  0  0  0999 V2000
    9.6200  -14.3263   19.1576 N   0  0  0  0  0  0  0  0  0  0  0  0
    8.4571  -14.6492   19.9870 C   0  0  1  0  0  0  0  0  0  0  0  0
    7.9111  -15.9629   19.4897 C   0  0  0  0  0  0  0  0  0  0  0  0
    7.4324  -15.7024   18.0932 C   0  0  0  0  0  0  0  0  0  0  0  0
    6.9369  -14.4755   17.6466 C   0  0  0  0  0  0  0  0  0  0  0  0
    6.6081  -14.6325   16.3583 N   0  0  0  0  0  0  0  0  0  0  0  0
    6.8801  -15.8960   16.0004 C   0  0  0  0  0  0  0  0  0  0  0  0
    7.3799  -16.5499   17.0467 N   0  0  0  0  0  0  0  0  0  0  0  0
    8.8585  -14.6578   21.3828 C   0  0  0  0  0  0  0  0  0  0  0  0
   10.0352  -15.0105   21.6715 O   0  0  0  0  0  0  0  0  0  0  0  0
    9.0368  -13.8155   30.2138 O   0  0  0  0  0  0  0  0  0  0  0  0
    8.6531  -13.7551   28.8984 C   0  0  0  0  0  0  0  0  0  0  0  0
    8.9707  -12.6827   28.0705 C   0  0  0  0  0  0  0  0  0  0  0  0
    8.5727  -12.6522   26.7620 C   0  0  0  0  0  0  0  0  0  0  0  0
    7.8286  -13.6919   26.1895 C   0  0  0  0  0  0  0  0  0  0  0  0
    7.3852  -13.6613   24.7724 C   0  0  0  0  0  0  0  0  0  0  0  0
    8.3706  -14.3443   23.8591 C   0  0  2  0  0  0  0  0  0  0  0  0
    8.0380  -14.2982   22.4823 N   0  0  0  0  0  0  0  0  0  0  0  0
    8.5555  -15.7479   24.2848 C   0  0  0  0  0  0  0  0  0  0  0  0
    7.5484  -16.5021   24.2433 O   0  0  0  0  0  0  0  0  0  0  0  0
    7.5298  -14.7383   27.0304 C   0  0  0  0  0  0  0  0  0  0  0  0
    7.9313  -14.7739   28.3575 C   0  0  0  0  0  0  0  0  0  0  0  0
   10.3036  -18.4839   22.8060 C   0  0  0  0  0  0  0  0  0  0  0  0
   10.8638  -18.4237   24.2019 C   0  0  1  0  0  0  0  0  0  0  0  0
   12.1018  -17.7801   24.1343 O   0  0  0  0  0  0  0  0  0  0  0  0
    9.9347  -17.6756   25.1528 C   0  0  2  0  0  0  0  0  0  0  0  0
    9.7741  -16.3051   24.7299 N   0  0  0  0  0  0  0  0  0  0  0  0
   10.4572  -17.7395   26.5604 C   0  0  0  0  0  0  0  0  0  0  0  0
   10.9216  -16.7574   27.1689 O   0  0  0  0  0  0  0  0  0  0  0  0
   10.4212  -18.9671   27.2264 O   0  0  0  0  0  0  0  0  0  0  0  0
  2  1  1  6
  2  3  1  0
  3  4  1  0
  4  5  2  0
  5  6  1  0
  7  6  1  0
  8  4  1  0
  8  7  2  0
  9  2  1  0
  9 18  1  0
 10  9  2  0
 12 22  2  0
 12 11  1  0
 13 12  1  0
 14 15  1  0
 14 13  2  0
 15 21  2  0
 17 16  1  1
 16 15  1  0
 17 18  1  0
 19 17  1  0
 20 19  2  0
 21 22  1  0
 24 23  1  6
 24 26  1  0
 25 24  1  0
 26 27  1  6
 26 28  1  0
 27 19  1  0
 28 30  1  0
 29 28  2  0
M  END
$$$$
