HYT.pdb
     RDKit          3D

 30 31  0  0  1  0  0  0  0  0999 V2000
   10.6250  -16.6016   19.6311 N   0  0  0  0  0  0  0  0  0  0  0  0
    9.4977  -16.5540   20.5647 C   0  0  1  0  0  0  0  0  0  0  0  0
    8.7141  -17.8273   20.3761 C   0  0  0  0  0  0  0  0  0  0  0  0
    8.0375  -17.6957   19.0448 C   0  0  0  0  0  0  0  0  0  0  0  0
    8.2278  -16.6263   18.1671 C   0  0  0  0  0  0  0  0  0  0  0  0
    7.4579  -16.8577   17.0966 N   0  0  0  0  0  0  0  0  0  0  0  0
    6.8088  -18.0166   17.2814 C   0  0  0  0  0  0  0  0  0  0  0  0
    7.1554  -18.5298   18.4598 N   0  0  0  0  0  0  0  0  0  0  0  0
   10.0058  -16.3576   21.9111 C   0  0  0  0  0  0  0  0  0  0  0  0
   11.1735  -16.7527   22.1804 O   0  0  0  0  0  0  0  0  0  0  0  0
   10.4689  -14.7478   30.6369 O   0  0  0  0  0  0  0  0  0  0  0  0
   10.1012  -14.7215   29.3158 C   0  0  0  0  0  0  0  0  0  0  0  0
   10.6163  -13.7995   28.4097 C   0  0  0  0  0  0  0  0  0  0  0  0
   10.2289  -13.7992   27.0976 C   0  0  0  0  0  0  0  0  0  0  0  0
    9.2987  -14.7207   26.5996 C   0  0  0  0  0  0  0  0  0  0  0  0
    8.8666  -14.7203   25.1786 C   0  0  0  0  0  0  0  0  0  0  0  0
    9.7133  -15.6359   24.3323 C   0  0  2  0  0  0  0  0  0  0  0  0
    9.3016  -15.7485   22.9809 N   0  0  0  0  0  0  0  0  0  0  0  0
    9.7726  -16.9763   24.9529 C   0  0  0  0  0  0  0  0  0  0  0  0
    8.6858  -17.5949   25.0978 O   0  0  0  0  0  0  0  0  0  0  0  0
    8.8071  -15.6197   27.5168 C   0  0  0  0  0  0  0  0  0  0  0  0
    9.1970  -15.6242   28.8478 C   0  0  0  0  0  0  0  0  0  0  0  0
   11.0426  -20.1627   23.8418 C   0  0  0  0  0  0  0  0  0  0  0  0
   11.7517  -19.9070   25.1447 C   0  0  1  0  0  0  0  0  0  0  0  0
   13.0220  -19.4089   24.8452 O   0  0  0  0  0  0  0  0  0  0  0  0
   10.9910  -18.9137   26.0176 C   0  0  2  0  0  0  0  0  0  0  0  0
   10.9536  -17.6141   25.3911 N   0  0  0  0  0  0  0  0  0  0  0  0
   11.6122  -18.8275   27.3833 C   0  0  0  0  0  0  0  0  0  0  0  0
   12.1405  -17.7951   27.8367 O   0  0  0  0  0  0  0  0  0  0  0  0
   11.5977  -19.9667   28.1919 O   0  0  0  0  0  0  0  0  0  0  0  0
  2  1  1  6
  2  3  1  0
  3  4  1  0
  4  5  2  0
  5  6  1  0
  7  6  1  0
  8  4  1  0
  8  7  2  0
  9  2  1  0
  9 18  1  0
 10  9  2  0
 12 22  2  0
 12 11  1  0
 13 12  1  0
 14 15  1  0
 14 13  2  0
 15 21  2  0
 17 16  1  1
 16 15  1  0
 17 18  1  0
 19 17  1  0
 20 19  2  0
 21 22  1  0
 24 23  1  6
 24 26  1  0
 25 24  1  0
 26 27  1  6
 26 28  1  0
 27 19  1  0
 28 30  1  0
 29 28  2  0
M  END
$$$$
