HYT.pdb
     RDKit          3D

 30 31  0  0  1  0  0  0  0  0999 V2000
   11.0020  -18.5225   20.8433 N   0  0  0  0  0  0  0  0  0  0  0  0
    9.9840  -18.4287   21.8918 C   0  0  1  0  0  0  0  0  0  0  0  0
   10.1915  -19.6016   22.8150 C   0  0  0  0  0  0  0  0  0  0  0  0
    9.6030  -20.7853   22.1080 C   0  0  0  0  0  0  0  0  0  0  0  0
    9.1480  -20.7679   20.7879 C   0  0  0  0  0  0  0  0  0  0  0  0
    8.6917  -21.9968   20.5157 N   0  0  0  0  0  0  0  0  0  0  0  0
    8.8478  -22.7604   21.6070 C   0  0  0  0  0  0  0  0  0  0  0  0
    9.3995  -22.0328   22.5756 N   0  0  0  0  0  0  0  0  0  0  0  0
   10.0880  -17.1323   22.5383 C   0  0  0  0  0  0  0  0  0  0  0  0
   11.2285  -16.6054   22.6570 O   0  0  0  0  0  0  0  0  0  0  0  0
    7.6160  -13.0079   17.7694 O   0  0  0  0  0  0  0  0  0  0  0  0
    7.6934  -13.2720   19.1131 C   0  0  0  0  0  0  0  0  0  0  0  0
    8.3957  -12.4615   19.9998 C   0  0  0  0  0  0  0  0  0  0  0  0
    8.4541  -12.7524   21.3354 C   0  0  0  0  0  0  0  0  0  0  0  0
    7.8148  -13.8747   21.8778 C   0  0  0  0  0  0  0  0  0  0  0  0
    7.8817  -14.2016   23.3251 C   0  0  0  0  0  0  0  0  0  0  0  0
    9.0556  -15.0900   23.6480 C   0  0  2  0  0  0  0  0  0  0  0  0
    9.0063  -16.3794   23.0621 N   0  0  0  0  0  0  0  0  0  0  0  0
    9.2026  -15.2094   25.1141 C   0  0  0  0  0  0  0  0  0  0  0  0
    8.2057  -15.6210   25.7635 O   0  0  0  0  0  0  0  0  0  0  0  0
    7.1284  -14.6567   20.9788 C   0  0  0  0  0  0  0  0  0  0  0  0
    7.0659  -14.3658   19.6242 C   0  0  0  0  0  0  0  0  0  0  0  0
    9.1787  -12.8787   27.2132 C   0  0  0  0  0  0  0  0  0  0  0  0
    9.4471  -14.1531   27.9680 C   0  0  1  0  0  0  0  0  0  0  0  0
    8.2410  -14.8514   28.0629 O   0  0  0  0  0  0  0  0  0  0  0  0
   10.4977  -15.0127   27.2718 C   0  0  2  0  0  0  0  0  0  0  0  0
   10.3747  -14.9005   25.8382 N   0  0  0  0  0  0  0  0  0  0  0  0
   10.3777  -16.4467   27.7048 C   0  0  0  0  0  0  0  0  0  0  0  0
   10.0815  -17.3777   26.9328 O   0  0  0  0  0  0  0  0  0  0  0  0
   10.6112  -16.7562   29.0470 O   0  0  0  0  0  0  0  0  0  0  0  0
  2  1  1  6
  2  3  1  0
  3  4  1  0
  4  5  2  0
  5  6  1  0
  7  6  1  0
  8  4  1  0
  8  7  2  0
  9  2  1  0
  9 18  1  0
 10  9  2  0
 12 22  2  0
 12 11  1  0
 13 12  1  0
 14 15  1  0
 14 13  2  0
 15 21  2  0
 17 16  1  1
 16 15  1  0
 17 18  1  0
 19 17  1  0
 20 19  2  0
 21 22  1  0
 24 23  1  6
 24 26  1  0
 25 24  1  0
 26 27  1  6
 26 28  1  0
 27 19  1  0
 28 30  1  0
 29 28  2  0
M  END
$$$$
