ANN.pdb
     RDKit          3D

 22 21  0  0  1  0  0  0  0  0999 V2000
   13.1306  -13.0903  -14.9422 C   0  0  0  0  0  0  0  0  0  0  0  0
   14.2387  -12.5317  -14.0759 C   0  0  2  0  0  0  0  0  0  0  0  0
   13.7423  -12.2890  -12.7430 N   0  0  0  0  0  0  0  0  0  0  0  0
   14.6990  -11.2693  -14.7288 C   0  0  0  0  0  0  0  0  0  0  0  0
   15.2205  -11.3521  -15.8659 O   0  0  0  0  0  0  0  0  0  0  0  0
   15.1888   -6.1928  -15.9655 N   0  0  0  0  0  0  0  0  0  0  0  0
   14.0589   -6.4598  -15.1456 C   0  0  0  0  0  0  0  0  0  0  0  0
   13.2049   -5.5436  -15.0258 O   0  0  0  0  0  0  0  0  0  0  0  0
   13.8657   -7.7421  -14.4514 C   0  0  0  0  0  0  0  0  0  0  0  0
   14.9203   -8.7514  -14.7584 C   0  0  2  0  0  0  0  0  0  0  0  0
   14.5747  -10.0011  -14.1298 N   0  0  0  0  0  0  0  0  0  0  0  0
   16.2418   -8.3316  -14.1843 C   0  0  0  0  0  0  0  0  0  0  0  0
   16.3736   -8.1571  -12.9378 O   0  0  0  0  0  0  0  0  0  0  0  0
   21.3587   -7.2586  -13.6704 N   0  0  0  0  0  0  0  0  0  0  0  0
   21.1002   -8.3687  -14.4985 C   0  0  0  0  0  0  0  0  0  0  0  0
   22.0748   -9.0461  -14.8995 O   0  0  0  0  0  0  0  0  0  0  0  0
   19.7495   -8.7425  -14.8932 C   0  0  0  0  0  0  0  0  0  0  0  0
   18.6917   -7.7526  -14.4742 C   0  0  2  0  0  0  0  0  0  0  0  0
   17.3843   -8.1137  -14.9880 N   0  0  0  0  0  0  0  0  0  0  0  0
   19.0480   -6.3609  -14.8135 C   0  0  0  0  0  0  0  0  0  0  0  0
   18.7085   -5.8775  -15.9176 O   0  0  0  0  0  0  0  0  0  0  0  0
   19.7553   -5.5535  -13.9456 O   0  0  0  0  0  0  0  0  0  0  0  0
  2  1  1  6
  2  4  1  0
  2  3  1  0
  4 11  1  0
  5  4  2  0
  7  6  1  0
  7  8  2  0
  9  7  1  0
 10  9  1  1
 10 12  1  0
 11 10  1  0
 12 19  1  0
 12 13  2  0
 15 14  1  0
 15 17  1  0
 16 15  2  0
 18 17  1  6
 18 20  1  0
 19 18  1  0
 20 22  1  0
 21 20  2  0
M  END
$$$$
