ANN.pdb
     RDKit          3D

 22 21  0  0  1  0  0  0  0  0999 V2000
   17.3877  -13.6326  -16.0184 C   0  0  0  0  0  0  0  0  0  0  0  0
   17.5188  -12.2831  -15.3462 C   0  0  2  0  0  0  0  0  0  0  0  0
   16.2841  -11.5483  -15.4795 N   0  0  0  0  0  0  0  0  0  0  0  0
   18.6525  -11.5779  -16.0164 C   0  0  0  0  0  0  0  0  0  0  0  0
   19.7909  -12.0990  -15.9488 O   0  0  0  0  0  0  0  0  0  0  0  0
   18.5830  -10.9693  -20.4662 N   0  0  0  0  0  0  0  0  0  0  0  0
   19.5678  -10.3922  -19.6193 C   0  0  0  0  0  0  0  0  0  0  0  0
   20.7301  -10.8704  -19.6785 O   0  0  0  0  0  0  0  0  0  0  0  0
   19.2740   -9.2822  -18.7000 C   0  0  0  0  0  0  0  0  0  0  0  0
   19.5818   -9.5917  -17.2736 C   0  0  2  0  0  0  0  0  0  0  0  0
   18.5018  -10.3647  -16.7148 N   0  0  0  0  0  0  0  0  0  0  0  0
   19.6736   -8.3316  -16.4636 C   0  0  0  0  0  0  0  0  0  0  0  0
   18.6269   -7.7801  -16.0141 O   0  0  0  0  0  0  0  0  0  0  0  0
   22.0686   -5.4217  -12.2407 N   0  0  0  0  0  0  0  0  0  0  0  0
   22.4637   -5.4546  -13.5927 C   0  0  0  0  0  0  0  0  0  0  0  0
   23.0106   -4.4350  -14.0731 O   0  0  0  0  0  0  0  0  0  0  0  0
   22.2559   -6.6261  -14.4319 C   0  0  0  0  0  0  0  0  0  0  0  0
   21.0502   -6.5298  -15.3325 C   0  0  2  0  0  0  0  0  0  0  0  0
   20.9070   -7.7078  -16.1664 N   0  0  0  0  0  0  0  0  0  0  0  0
   21.0339   -5.2884  -16.1311 C   0  0  0  0  0  0  0  0  0  0  0  0
   21.4841   -5.2879  -17.2996 O   0  0  0  0  0  0  0  0  0  0  0  0
   20.5325   -4.1030  -15.6322 O   0  0  0  0  0  0  0  0  0  0  0  0
  2  1  1  6
  2  4  1  0
  2  3  1  0
  4 11  1  0
  5  4  2  0
  7  6  1  0
  7  8  2  0
  9  7  1  0
 10  9  1  6
 10 12  1  0
 11 10  1  0
 12 19  1  0
 12 13  2  0
 15 14  1  0
 15 17  1  0
 16 15  2  0
 18 17  1  6
 18 20  1  0
 19 18  1  0
 20 22  1  0
 21 20  2  0
M  END
$$$$
