ANN.pdb
     RDKit          3D

 22 21  0  0  1  0  0  0  0  0999 V2000
   15.8131  -11.8813  -16.3688 C   0  0  0  0  0  0  0  0  0  0  0  0
   17.2615  -12.2770  -16.5586 C   0  0  2  0  0  0  0  0  0  0  0  0
   17.4673  -13.6229  -16.0811 N   0  0  0  0  0  0  0  0  0  0  0  0
   18.0801  -11.2908  -15.7909 C   0  0  0  0  0  0  0  0  0  0  0  0
   17.8226  -11.1343  -14.5739 O   0  0  0  0  0  0  0  0  0  0  0  0
   21.7498   -8.7297  -13.6504 N   0  0  0  0  0  0  0  0  0  0  0  0
   22.2349   -9.4840  -14.7531 C   0  0  0  0  0  0  0  0  0  0  0  0
   23.4580   -9.7792  -14.7552 O   0  0  0  0  0  0  0  0  0  0  0  0
   21.3709   -9.9165  -15.8621 C   0  0  0  0  0  0  0  0  0  0  0  0
   19.9322   -9.5752  -15.6655 C   0  0  2  0  0  0  0  0  0  0  0  0
   19.1191  -10.5356  -16.3675 N   0  0  0  0  0  0  0  0  0  0  0  0
   19.6186   -8.2317  -16.2563 C   0  0  0  0  0  0  0  0  0  0  0  0
   19.6155   -8.0675  -17.5111 O   0  0  0  0  0  0  0  0  0  0  0  0
   15.6082   -4.7132  -14.7838 N   0  0  0  0  0  0  0  0  0  0  0  0
   16.6863   -5.4005  -15.3757 C   0  0  0  0  0  0  0  0  0  0  0  0
   16.4280   -6.3685  -16.1279 O   0  0  0  0  0  0  0  0  0  0  0  0
   18.0714   -5.0190  -15.1390 C   0  0  0  0  0  0  0  0  0  0  0  0
   19.0683   -5.7734  -15.9822 C   0  0  2  0  0  0  0  0  0  0  0  0
   19.3166   -7.1034  -15.4597 N   0  0  0  0  0  0  0  0  0  0  0  0
   20.3228   -5.0233  -16.1883 C   0  0  0  0  0  0  0  0  0  0  0  0
   20.3007   -3.9067  -16.7547 O   0  0  0  0  0  0  0  0  0  0  0  0
   21.5453   -5.5124  -15.7738 O   0  0  0  0  0  0  0  0  0  0  0  0
  2  1  1  1
  2  4  1  0
  2  3  1  0
  4 11  1  0
  5  4  2  0
  7  6  1  0
  7  8  2  0
  9  7  1  0
 10  9  1  6
 10 12  1  0
 11 10  1  0
 12 19  1  0
 12 13  2  0
 15 14  1  0
 15 17  1  0
 16 15  2  0
 18 17  1  1
 18 20  1  0
 19 18  1  0
 20 22  1  0
 21 20  2  0
M  END
$$$$
