ANN.pdb
     RDKit          3D

 22 21  0  0  1  0  0  0  0  0999 V2000
   24.3799  -14.5490  -19.9821 C   0  0  0  0  0  0  0  0  0  0  0  0
   25.3914  -14.0780  -18.9597 C   0  0  2  0  0  0  0  0  0  0  0  0
   26.0406  -15.2154  -18.3539 N   0  0  0  0  0  0  0  0  0  0  0  0
   24.6391  -13.2734  -17.9505 C   0  0  0  0  0  0  0  0  0  0  0  0
   23.4206  -13.5218  -17.7910 O   0  0  0  0  0  0  0  0  0  0  0  0
   27.7052  -10.4057  -15.7804 N   0  0  0  0  0  0  0  0  0  0  0  0
   26.9299  -11.5145  -15.3447 C   0  0  0  0  0  0  0  0  0  0  0  0
   27.5040  -12.6328  -15.2906 O   0  0  0  0  0  0  0  0  0  0  0  0
   25.5136  -11.3945  -14.9664 C   0  0  0  0  0  0  0  0  0  0  0  0
   24.5749  -11.5343  -16.1172 C   0  0  2  0  0  0  0  0  0  0  0  0
   25.2316  -12.2572  -17.1767 N   0  0  0  0  0  0  0  0  0  0  0  0
   24.2123  -10.1888  -16.6745 C   0  0  0  0  0  0  0  0  0  0  0  0
   25.0883   -9.4708  -17.2389 O   0  0  0  0  0  0  0  0  0  0  0  0
   19.5901   -6.6550  -18.2705 N   0  0  0  0  0  0  0  0  0  0  0  0
   20.6092   -6.7714  -17.3047 C   0  0  0  0  0  0  0  0  0  0  0  0
   21.1344   -5.7201  -16.8707 O   0  0  0  0  0  0  0  0  0  0  0  0
   21.0596   -8.0631  -16.8060 C   0  0  0  0  0  0  0  0  0  0  0  0
   22.5245   -8.3344  -17.0401 C   0  0  2  0  0  0  0  0  0  0  0  0
   22.9017   -9.6639  -16.5999 N   0  0  0  0  0  0  0  0  0  0  0  0
   23.3962   -7.2964  -16.4556 C   0  0  0  0  0  0  0  0  0  0  0  0
   23.4836   -7.1773  -15.2122 O   0  0  0  0  0  0  0  0  0  0  0  0
   24.1344   -6.4331  -17.2401 O   0  0  0  0  0  0  0  0  0  0  0  0
  2  1  1  6
  2  4  1  0
  2  3  1  0
  4 11  1  0
  5  4  2  0
  7  6  1  0
  7  8  2  0
  9  7  1  0
 10  9  1  1
 10 12  1  0
 11 10  1  0
 12 19  1  0
 12 13  2  0
 15 14  1  0
 15 17  1  0
 16 15  2  0
 18 17  1  1
 18 20  1  0
 19 18  1  0
 20 22  1  0
 21 20  2  0
M  END
$$$$
