ANN.pdb
     RDKit          3D

 22 21  0  0  1  0  0  0  0  0999 V2000
   16.1723  -10.6468  -14.5216 C   0  0  0  0  0  0  0  0  0  0  0  0
   16.8756  -11.4397  -15.6018 C   0  0  2  0  0  0  0  0  0  0  0  0
   17.0911  -12.7939  -15.1526 N   0  0  0  0  0  0  0  0  0  0  0  0
   18.1669  -10.7402  -15.8761 C   0  0  0  0  0  0  0  0  0  0  0  0
   19.0652  -10.8015  -15.0038 O   0  0  0  0  0  0  0  0  0  0  0  0
   22.0270   -9.3474  -19.9673 N   0  0  0  0  0  0  0  0  0  0  0  0
   20.9789   -8.6039  -19.3600 C   0  0  0  0  0  0  0  0  0  0  0  0
   21.1527   -7.3646  -19.2296 O   0  0  0  0  0  0  0  0  0  0  0  0
   19.7310   -9.2259  -18.8916 C   0  0  0  0  0  0  0  0  0  0  0  0
   19.6820   -9.4256  -17.4142 C   0  0  2  0  0  0  0  0  0  0  0  0
   18.4185  -10.0212  -17.0602 N   0  0  0  0  0  0  0  0  0  0  0  0
   19.7537   -8.1094  -16.6967 C   0  0  0  0  0  0  0  0  0  0  0  0
   18.7039   -7.4337  -16.4893 O   0  0  0  0  0  0  0  0  0  0  0  0
   20.6968   -4.3071  -13.1844 N   0  0  0  0  0  0  0  0  0  0  0  0
   21.7258   -5.2529  -13.3622 C   0  0  0  0  0  0  0  0  0  0  0  0
   22.8503   -5.0017  -12.8705 O   0  0  0  0  0  0  0  0  0  0  0  0
   21.5175   -6.4960  -14.0912 C   0  0  0  0  0  0  0  0  0  0  0  0
   21.0881   -6.3026  -15.5238 C   0  0  2  0  0  0  0  0  0  0  0  0
   20.9709   -7.5668  -16.2250 N   0  0  0  0  0  0  0  0  0  0  0  0
   21.9489   -5.3502  -16.2525 C   0  0  0  0  0  0  0  0  0  0  0  0
   22.8927   -5.7713  -16.9595 O   0  0  0  0  0  0  0  0  0  0  0  0
   21.7522   -3.9855  -16.1850 O   0  0  0  0  0  0  0  0  0  0  0  0
  2  1  1  1
  2  4  1  0
  2  3  1  0
  4 11  1  0
  5  4  2  0
  7  6  1  0
  7  8  2  0
  9  7  1  0
 10  9  1  6
 10 12  1  0
 11 10  1  0
 12 19  1  0
 12 13  2  0
 15 14  1  0
 15 17  1  0
 16 15  2  0
 18 17  1  1
 18 20  1  0
 19 18  1  0
 20 22  1  0
 21 20  2  0
M  END
$$$$
