ANN.pdb
     RDKit          3D

 22 21  0  0  1  0  0  0  0  0999 V2000
   28.3714  -21.9072  -15.4435 C   0  0  0  0  0  0  0  0  0  0  0  0
   27.2422  -20.9156  -15.6220 C   0  0  2  0  0  0  0  0  0  0  0  0
   27.7162  -19.5803  -15.3496 N   0  0  0  0  0  0  0  0  0  0  0  0
   26.1621  -21.3193  -14.6722 C   0  0  0  0  0  0  0  0  0  0  0  0
   25.6629  -22.4621  -14.8014 O   0  0  0  0  0  0  0  0  0  0  0  0
   26.0265  -22.2753  -10.7508 N   0  0  0  0  0  0  0  0  0  0  0  0
   25.6129  -20.9444  -10.4718 C   0  0  0  0  0  0  0  0  0  0  0  0
   25.9207  -20.4692   -9.3482 O   0  0  0  0  0  0  0  0  0  0  0  0
   24.8549  -20.1294  -11.4335 C   0  0  0  0  0  0  0  0  0  0  0  0
   24.6161  -20.8134  -12.7374 C   0  0  2  0  0  0  0  0  0  0  0  0
   25.6834  -20.4815  -13.6468 N   0  0  0  0  0  0  0  0  0  0  0  0
   23.3450  -20.3260  -13.3690 C   0  0  0  0  0  0  0  0  0  0  0  0
   23.2112  -19.1077  -13.6842 O   0  0  0  0  0  0  0  0  0  0  0  0
   20.0166  -19.6309  -17.4734 N   0  0  0  0  0  0  0  0  0  0  0  0
   20.0130  -20.7567  -16.6262 C   0  0  0  0  0  0  0  0  0  0  0  0
   18.9669  -21.4428  -16.5602 O   0  0  0  0  0  0  0  0  0  0  0  0
   21.1771  -21.1367  -15.8385 C   0  0  0  0  0  0  0  0  0  0  0  0
   21.0663  -20.7924  -14.3745 C   0  0  2  0  0  0  0  0  0  0  0  0
   22.2538  -21.1833  -13.6392 N   0  0  0  0  0  0  0  0  0  0  0  0
   19.8380  -21.3277  -13.7551 C   0  0  0  0  0  0  0  0  0  0  0  0
   19.8086  -22.5078  -13.3375 O   0  0  0  0  0  0  0  0  0  0  0  0
   18.6961  -20.5649  -13.6146 O   0  0  0  0  0  0  0  0  0  0  0  0
  2  1  1  1
  2  4  1  0
  2  3  1  0
  4 11  1  0
  5  4  2  0
  7  6  1  0
  7  8  2  0
  9  7  1  0
 10  9  1  1
 10 12  1  0
 11 10  1  0
 12 19  1  0
 12 13  2  0
 15 14  1  0
 15 17  1  0
 16 15  2  0
 18 17  1  6
 18 20  1  0
 19 18  1  0
 20 22  1  0
 21 20  2  0
M  END
$$$$
