ANN.pdb
     RDKit          3D

 22 21  0  0  1  0  0  0  0  0999 V2000
   24.5789  -21.8296  -15.0836 C   0  0  0  0  0  0  0  0  0  0  0  0
   23.8925  -22.4850  -13.9048 C   0  0  2  0  0  0  0  0  0  0  0  0
   23.4698  -23.8171  -14.2638 N   0  0  0  0  0  0  0  0  0  0  0  0
   22.7298  -21.6174  -13.5482 C   0  0  0  0  0  0  0  0  0  0  0  0
   22.9662  -20.4513  -13.1529 O   0  0  0  0  0  0  0  0  0  0  0  0
   21.5828  -19.3857  -15.9124 N   0  0  0  0  0  0  0  0  0  0  0  0
   20.9957  -20.5450  -16.4882 C   0  0  0  0  0  0  0  0  0  0  0  0
   21.1082  -20.6897  -17.7330 O   0  0  0  0  0  0  0  0  0  0  0  0
   20.2791  -21.5525  -15.6914 C   0  0  0  0  0  0  0  0  0  0  0  0
   20.3162  -21.2889  -14.2237 C   0  0  2  0  0  0  0  0  0  0  0  0
   21.3916  -22.0464  -13.6353 N   0  0  0  0  0  0  0  0  0  0  0  0
   19.0504  -21.7566  -13.5669 C   0  0  0  0  0  0  0  0  0  0  0  0
   17.9429  -21.2124  -13.8477 O   0  0  0  0  0  0  0  0  0  0  0  0
   19.7472  -24.3459   -9.1988 N   0  0  0  0  0  0  0  0  0  0  0  0
   19.1500  -24.6337  -10.4419 C   0  0  0  0  0  0  0  0  0  0  0  0
   19.7422  -25.4242  -11.2127 O   0  0  0  0  0  0  0  0  0  0  0  0
   17.8813  -24.0449  -10.8463 C   0  0  0  0  0  0  0  0  0  0  0  0
   17.8499  -23.5801  -12.2806 C   0  0  2  0  0  0  0  0  0  0  0  0
   19.0288  -22.8068  -12.6207 N   0  0  0  0  0  0  0  0  0  0  0  0
   16.6065  -22.8598  -12.6186 C   0  0  0  0  0  0  0  0  0  0  0  0
   16.6371  -21.6297  -12.8509 O   0  0  0  0  0  0  0  0  0  0  0  0
   15.3856  -23.4999  -12.6903 O   0  0  0  0  0  0  0  0  0  0  0  0
  2  1  1  6
  2  4  1  0
  2  3  1  0
  4 11  1  0
  5  4  2  0
  7  6  1  0
  7  8  2  0
  9  7  1  0
 10  9  1  6
 10 12  1  0
 11 10  1  0
 12 19  1  0
 12 13  2  0
 15 14  1  0
 15 17  1  0
 16 15  2  0
 18 17  1  1
 18 20  1  0
 19 18  1  0
 20 22  1  0
 21 20  2  0
M  END
$$$$
