ANN.pdb
     RDKit          3D

 22 21  0  0  1  0  0  0  0  0999 V2000
   20.3302  -17.2411  -13.0985 C   0  0  0  0  0  0  0  0  0  0  0  0
   20.1389  -18.3877  -14.0675 C   0  0  2  0  0  0  0  0  0  0  0  0
   18.7379  -18.7196  -14.1623 N   0  0  0  0  0  0  0  0  0  0  0  0
   20.9401  -19.5333  -13.5406 C   0  0  0  0  0  0  0  0  0  0  0  0
   20.4544  -20.2075  -12.6018 O   0  0  0  0  0  0  0  0  0  0  0  0
   24.7179  -23.2101  -13.0872 N   0  0  0  0  0  0  0  0  0  0  0  0
   24.4415  -22.8379  -14.4309 C   0  0  0  0  0  0  0  0  0  0  0  0
   24.9347  -23.5544  -15.3400 O   0  0  0  0  0  0  0  0  0  0  0  0
   23.6182  -21.6698  -14.7788 C   0  0  0  0  0  0  0  0  0  0  0  0
   22.9925  -21.0078  -13.5976 C   0  0  2  0  0  0  0  0  0  0  0  0
   22.2055  -19.8873  -14.0465 N   0  0  0  0  0  0  0  0  0  0  0  0
   24.0428  -20.4558  -12.6787 C   0  0  0  0  0  0  0  0  0  0  0  0
   24.6808  -19.4079  -12.9895 O   0  0  0  0  0  0  0  0  0  0  0  0
   27.1547  -19.5959   -8.5568 N   0  0  0  0  0  0  0  0  0  0  0  0
   25.9748  -20.2474   -8.1465 C   0  0  0  0  0  0  0  0  0  0  0  0
   25.7949  -20.4261   -6.9196 O   0  0  0  0  0  0  0  0  0  0  0  0
   24.9749  -20.7104   -9.0982 C   0  0  0  0  0  0  0  0  0  0  0  0
   25.3967  -20.5860  -10.5407 C   0  0  2  0  0  0  0  0  0  0  0  0
   24.3679  -21.0638  -11.4445 N   0  0  0  0  0  0  0  0  0  0  0  0
   26.7007  -21.2234  -10.8096 C   0  0  0  0  0  0  0  0  0  0  0  0
   27.7592  -20.5678  -10.6760 O   0  0  0  0  0  0  0  0  0  0  0  0
   26.8034  -22.5401  -11.2110 O   0  0  0  0  0  0  0  0  0  0  0  0
  2  1  1  1
  2  4  1  0
  2  3  1  0
  4 11  1  0
  5  4  2  0
  7  6  1  0
  7  8  2  0
  9  7  1  0
 10  9  1  6
 10 12  1  0
 11 10  1  0
 12 19  1  0
 12 13  2  0
 15 14  1  0
 15 17  1  0
 16 15  2  0
 18 17  1  1
 18 20  1  0
 19 18  1  0
 20 22  1  0
 21 20  2  0
M  END
$$$$
