ANN.pdb
     RDKit          3D

 22 21  0  0  1  0  0  0  0  0999 V2000
   40.0117  -25.6482  -16.3394 C   0  0  0  0  0  0  0  0  0  0  0  0
   38.8892  -25.7727  -17.3468 C   0  0  2  0  0  0  0  0  0  0  0  0
   38.4063  -24.4611  -17.7054 N   0  0  0  0  0  0  0  0  0  0  0  0
   37.8212  -26.5933  -16.7004 C   0  0  0  0  0  0  0  0  0  0  0  0
   38.1204  -27.7478  -16.3138 O   0  0  0  0  0  0  0  0  0  0  0  0
   36.0453  -26.4130  -13.1193 N   0  0  0  0  0  0  0  0  0  0  0  0
   34.9694  -25.7111  -13.7275 C   0  0  0  0  0  0  0  0  0  0  0  0
   34.3534  -24.8744  -13.0179 O   0  0  0  0  0  0  0  0  0  0  0  0
   34.5664  -25.9301  -15.1251 C   0  0  0  0  0  0  0  0  0  0  0  0
   35.4540  -26.8768  -15.8604 C   0  0  2  0  0  0  0  0  0  0  0  0
   36.5048  -26.1326  -16.5073 N   0  0  0  0  0  0  0  0  0  0  0  0
   34.6956  -27.5831  -16.9459 C   0  0  0  0  0  0  0  0  0  0  0  0
   34.5129  -27.0264  -18.0677 O   0  0  0  0  0  0  0  0  0  0  0  0
   35.7439  -30.9743  -20.5580 N   0  0  0  0  0  0  0  0  0  0  0  0
   35.8459  -31.2277  -19.1758 C   0  0  0  0  0  0  0  0  0  0  0  0
   36.0814  -32.4013  -18.8063 O   0  0  0  0  0  0  0  0  0  0  0  0
   35.6873  -30.1755  -18.1819 C   0  0  0  0  0  0  0  0  0  0  0  0
   34.2595  -29.9445  -17.7553 C   0  0  2  0  0  0  0  0  0  0  0  0
   34.1569  -28.8792  -16.7763 N   0  0  0  0  0  0  0  0  0  0  0  0
   33.5969  -31.1794  -17.2918 C   0  0  0  0  0  0  0  0  0  0  0  0
   33.7136  -31.5450  -16.0999 O   0  0  0  0  0  0  0  0  0  0  0  0
   32.8380  -31.9647  -18.1363 O   0  0  0  0  0  0  0  0  0  0  0  0
  2  1  1  1
  2  4  1  0
  2  3  1  0
  4 11  1  0
  5  4  2  0
  7  6  1  0
  7  8  2  0
  9  7  1  0
 10  9  1  6
 10 12  1  0
 11 10  1  0
 12 19  1  0
 12 13  2  0
 15 14  1  0
 15 17  1  0
 16 15  2  0
 18 17  1  1
 18 20  1  0
 19 18  1  0
 20 22  1  0
 21 20  2  0
M  END
$$$$
