ANN.pdb
     RDKit          3D

 22 21  0  0  1  0  0  0  0  0999 V2000
   18.0519  -13.1670  -16.5684 C   0  0  0  0  0  0  0  0  0  0  0  0
   18.1730  -12.0844  -15.5179 C   0  0  2  0  0  0  0  0  0  0  0  0
   16.9591  -12.0192  -14.7406 N   0  0  0  0  0  0  0  0  0  0  0  0
   18.4276  -10.8054  -16.2468 C   0  0  0  0  0  0  0  0  0  0  0  0
   19.5068  -10.6919  -16.8749 O   0  0  0  0  0  0  0  0  0  0  0  0
   16.4708   -6.3854  -19.4595 N   0  0  0  0  0  0  0  0  0  0  0  0
   16.5607   -6.6185  -18.0603 C   0  0  0  0  0  0  0  0  0  0  0  0
   16.7333   -5.6163  -17.3194 O   0  0  0  0  0  0  0  0  0  0  0  0
   16.4610   -7.9622  -17.4702 C   0  0  0  0  0  0  0  0  0  0  0  0
   17.7468   -8.4609  -16.9018 C   0  0  2  0  0  0  0  0  0  0  0  0
   17.5180   -9.7308  -16.2603 N   0  0  0  0  0  0  0  0  0  0  0  0
   18.2570   -7.5288  -15.8420 C   0  0  0  0  0  0  0  0  0  0  0  0
   17.7846   -7.5711  -14.6687 O   0  0  0  0  0  0  0  0  0  0  0  0
   21.2854   -3.9803  -13.3721 N   0  0  0  0  0  0  0  0  0  0  0  0
   21.8787   -5.1951  -13.7683 C   0  0  0  0  0  0  0  0  0  0  0  0
   23.0059   -5.4815  -13.3025 O   0  0  0  0  0  0  0  0  0  0  0  0
   21.2242   -6.1120  -14.6909 C   0  0  0  0  0  0  0  0  0  0  0  0
   19.8316   -5.6918  -15.0889 C   0  0  2  0  0  0  0  0  0  0  0  0
   19.2702   -6.5753  -16.0929 N   0  0  0  0  0  0  0  0  0  0  0  0
   19.7604   -4.2769  -15.5034 C   0  0  0  0  0  0  0  0  0  0  0  0
   19.6758   -3.3736  -14.6403 O   0  0  0  0  0  0  0  0  0  0  0  0
   19.7836   -3.9005  -16.8313 O   0  0  0  0  0  0  0  0  0  0  0  0
  2  1  1  6
  2  4  1  0
  2  3  1  0
  4 11  1  0
  5  4  2  0
  7  6  1  0
  7  8  2  0
  9  7  1  0
 10  9  1  1
 10 12  1  0
 11 10  1  0
 12 19  1  0
 12 13  2  0
 15 14  1  0
 15 17  1  0
 16 15  2  0
 18 17  1  6
 18 20  1  0
 19 18  1  0
 20 22  1  0
 21 20  2  0
M  END
$$$$
