ANN.pdb
     RDKit          3D

 22 21  0  0  1  0  0  0  0  0999 V2000
   15.4226   -9.9920  -15.4938 C   0  0  0  0  0  0  0  0  0  0  0  0
   16.9271   -9.8411  -15.5554 C   0  0  2  0  0  0  0  0  0  0  0  0
   17.5153  -11.0312  -16.1207 N   0  0  0  0  0  0  0  0  0  0  0  0
   17.3932   -9.6103  -14.1549 C   0  0  0  0  0  0  0  0  0  0  0  0
   17.1582  -10.5000  -13.3033 O   0  0  0  0  0  0  0  0  0  0  0  0
   21.6647   -7.5703  -14.0619 N   0  0  0  0  0  0  0  0  0  0  0  0
   20.9398   -7.9684  -12.9060 C   0  0  0  0  0  0  0  0  0  0  0  0
   21.3845   -8.9504  -12.2572 O   0  0  0  0  0  0  0  0  0  0  0  0
   19.7169   -7.2836  -12.4596 C   0  0  0  0  0  0  0  0  0  0  0  0
   18.5204   -8.1728  -12.4077 C   0  0  2  0  0  0  0  0  0  0  0  0
   18.0789   -8.4487  -13.7514 N   0  0  0  0  0  0  0  0  0  0  0  0
   17.3798   -7.4899  -11.7113 C   0  0  0  0  0  0  0  0  0  0  0  0
   16.7922   -6.5087  -12.2532 O   0  0  0  0  0  0  0  0  0  0  0  0
   13.4808   -6.4246   -8.3699 N   0  0  0  0  0  0  0  0  0  0  0  0
   13.8174   -7.7914   -8.3109 C   0  0  0  0  0  0  0  0  0  0  0  0
   13.0749   -8.5545   -7.6507 O   0  0  0  0  0  0  0  0  0  0  0  0
   14.9881   -8.3305   -8.9883 C   0  0  0  0  0  0  0  0  0  0  0  0
   15.7824   -7.3019   -9.7533 C   0  0  2  0  0  0  0  0  0  0  0  0
   16.9117   -7.8978  -10.4412 N   0  0  0  0  0  0  0  0  0  0  0  0
   16.1937   -6.1600   -8.9131 C   0  0  0  0  0  0  0  0  0  0  0  0
   17.3084   -6.1698   -8.3428 O   0  0  0  0  0  0  0  0  0  0  0  0
   15.3827   -5.0587   -8.7261 O   0  0  0  0  0  0  0  0  0  0  0  0
  2  1  1  1
  2  4  1  0
  2  3  1  0
  4 11  1  0
  5  4  2  0
  7  6  1  0
  7  8  2  0
  9  7  1  0
 10  9  1  6
 10 12  1  0
 11 10  1  0
 12 19  1  0
 12 13  2  0
 15 14  1  0
 15 17  1  0
 16 15  2  0
 18 17  1  1
 18 20  1  0
 19 18  1  0
 20 22  1  0
 21 20  2  0
M  END
$$$$
