ANN.pdb
     RDKit          3D

 22 21  0  0  1  0  0  0  0  0999 V2000
   15.5940  -11.4140  -15.5782 C   0  0  0  0  0  0  0  0  0  0  0  0
   16.8527  -10.7129  -16.0412 C   0  0  2  0  0  0  0  0  0  0  0  0
   17.7038  -11.6460  -16.7391 N   0  0  0  0  0  0  0  0  0  0  0  0
   17.5178  -10.1722  -14.8177 C   0  0  0  0  0  0  0  0  0  0  0  0
   17.6072  -10.9225  -13.8172 O   0  0  0  0  0  0  0  0  0  0  0  0
   21.1983   -9.4327  -14.4607 N   0  0  0  0  0  0  0  0  0  0  0  0
   21.0111   -8.0249  -14.5192 C   0  0  0  0  0  0  0  0  0  0  0  0
   21.9566   -7.3371  -14.9838 O   0  0  0  0  0  0  0  0  0  0  0  0
   19.7767   -7.3675  -14.0633 C   0  0  0  0  0  0  0  0  0  0  0  0
   18.7306   -8.3220  -13.5947 C   0  0  2  0  0  0  0  0  0  0  0  0
   18.0446   -8.8689  -14.7378 N   0  0  0  0  0  0  0  0  0  0  0  0
   17.6959   -7.6144  -12.7695 C   0  0  0  0  0  0  0  0  0  0  0  0
   16.7398   -7.0010  -13.3275 O   0  0  0  0  0  0  0  0  0  0  0  0
   14.5480   -7.3690   -7.9760 N   0  0  0  0  0  0  0  0  0  0  0  0
   15.8498   -6.8736   -8.1875 C   0  0  0  0  0  0  0  0  0  0  0  0
   16.1995   -5.8459   -7.5621 O   0  0  0  0  0  0  0  0  0  0  0  0
   16.7844   -7.5167   -9.1002 C   0  0  0  0  0  0  0  0  0  0  0  0
   16.7106   -7.0036  -10.5163 C   0  0  2  0  0  0  0  0  0  0  0  0
   17.7338   -7.5959  -11.3564 N   0  0  0  0  0  0  0  0  0  0  0  0
   16.7281   -5.5294  -10.5893 C   0  0  0  0  0  0  0  0  0  0  0  0
   15.6759   -4.8789  -10.3953 O   0  0  0  0  0  0  0  0  0  0  0  0
   17.8810   -4.8235  -10.8687 O   0  0  0  0  0  0  0  0  0  0  0  0
  2  1  1  1
  2  4  1  0
  2  3  1  0
  4 11  1  0
  5  4  2  0
  7  6  1  0
  7  8  2  0
  9  7  1  0
 10  9  1  6
 10 12  1  0
 11 10  1  0
 12 19  1  0
 12 13  2  0
 15 14  1  0
 15 17  1  0
 16 15  2  0
 18 17  1  1
 18 20  1  0
 19 18  1  0
 20 22  1  0
 21 20  2  0
M  END
$$$$
