ANN.pdb
     RDKit          3D

 22 21  0  0  1  0  0  0  0  0999 V2000
   16.6811  -12.3733  -12.3156 C   0  0  0  0  0  0  0  0  0  0  0  0
   15.6374  -11.8154  -11.3725 C   0  0  2  0  0  0  0  0  0  0  0  0
   14.3229  -12.2356  -11.7939 N   0  0  0  0  0  0  0  0  0  0  0  0
   15.7764  -10.3284  -11.4093 C   0  0  0  0  0  0  0  0  0  0  0  0
   15.3567   -9.7239  -12.4243 O   0  0  0  0  0  0  0  0  0  0  0  0
   15.1963   -5.3409   -8.7974 N   0  0  0  0  0  0  0  0  0  0  0  0
   16.3189   -6.2125   -8.7824 C   0  0  0  0  0  0  0  0  0  0  0  0
   17.4525   -5.6889   -8.6281 O   0  0  0  0  0  0  0  0  0  0  0  0
   16.1960   -7.6699   -8.9389 C   0  0  0  0  0  0  0  0  0  0  0  0
   16.4499   -8.1439  -10.3303 C   0  0  2  0  0  0  0  0  0  0  0  0
   16.3527   -9.5812  -10.3642 N   0  0  0  0  0  0  0  0  0  0  0  0
   17.8436   -7.7962  -10.7648 C   0  0  0  0  0  0  0  0  0  0  0  0
   18.8100   -8.5693  -10.4999 O   0  0  0  0  0  0  0  0  0  0  0  0
   21.8095   -5.8923  -13.5364 N   0  0  0  0  0  0  0  0  0  0  0  0
   21.1886   -7.1548  -13.6096 C   0  0  0  0  0  0  0  0  0  0  0  0
   21.7306   -8.0398  -14.3114 O   0  0  0  0  0  0  0  0  0  0  0  0
   19.9522   -7.4520  -12.9002 C   0  0  0  0  0  0  0  0  0  0  0  0
   19.4385   -6.3114  -12.0581 C   0  0  2  0  0  0  0  0  0  0  0  0
   18.1441   -6.6127  -11.4773 N   0  0  0  0  0  0  0  0  0  0  0  0
   19.4265   -5.0270  -12.7856 C   0  0  0  0  0  0  0  0  0  0  0  0
   20.4212   -4.2680  -12.7355 O   0  0  0  0  0  0  0  0  0  0  0  0
   18.3408   -4.6195  -13.5344 O   0  0  0  0  0  0  0  0  0  0  0  0
  2  1  1  6
  2  4  1  0
  2  3  1  0
  4 11  1  0
  5  4  2  0
  7  6  1  0
  7  8  2  0
  9  7  1  0
 10  9  1  1
 10 12  1  0
 11 10  1  0
 12 19  1  0
 12 13  2  0
 15 14  1  0
 15 17  1  0
 16 15  2  0
 18 17  1  6
 18 20  1  0
 19 18  1  0
 20 22  1  0
 21 20  2  0
M  END
$$$$
