ANN.pdb
     RDKit          3D

 22 21  0  0  1  0  0  0  0  0999 V2000
   17.1155  -11.9572  -17.8364 C   0  0  0  0  0  0  0  0  0  0  0  0
   17.8577  -11.6107  -16.5639 C   0  0  2  0  0  0  0  0  0  0  0  0
   17.0429  -11.9362  -15.4184 N   0  0  0  0  0  0  0  0  0  0  0  0
   18.1579  -10.1486  -16.6265 C   0  0  0  0  0  0  0  0  0  0  0  0
   18.8319   -9.7281  -17.5965 O   0  0  0  0  0  0  0  0  0  0  0  0
   14.2884   -7.4981  -15.5043 N   0  0  0  0  0  0  0  0  0  0  0  0
   15.5740   -7.1001  -15.9616 C   0  0  0  0  0  0  0  0  0  0  0  0
   15.6692   -6.7278  -17.1597 O   0  0  0  0  0  0  0  0  0  0  0  0
   16.7640   -7.1118  -15.0972 C   0  0  0  0  0  0  0  0  0  0  0  0
   17.9364   -7.8050  -15.7055 C   0  0  2  0  0  0  0  0  0  0  0  0
   17.7218   -9.2290  -15.6536 N   0  0  0  0  0  0  0  0  0  0  0  0
   19.1846   -7.5287  -14.9195 C   0  0  0  0  0  0  0  0  0  0  0  0
   19.2940   -7.9343  -13.7256 O   0  0  0  0  0  0  0  0  0  0  0  0
   22.0425   -9.3361  -14.7713 N   0  0  0  0  0  0  0  0  0  0  0  0
   22.8837   -8.4895  -15.5201 C   0  0  0  0  0  0  0  0  0  0  0  0
   23.7990   -9.0139  -16.1960 O   0  0  0  0  0  0  0  0  0  0  0  0
   22.7177   -7.0430  -15.5282 C   0  0  0  0  0  0  0  0  0  0  0  0
   21.5194   -6.5585  -14.7514 C   0  0  2  0  0  0  0  0  0  0  0  0
   20.2800   -6.8164  -15.4592 N   0  0  0  0  0  0  0  0  0  0  0  0
   21.6359   -5.1429  -14.3495 C   0  0  0  0  0  0  0  0  0  0  0  0
   21.0922   -4.2485  -15.0369 O   0  0  0  0  0  0  0  0  0  0  0  0
   22.3344   -4.7563  -13.2234 O   0  0  0  0  0  0  0  0  0  0  0  0
  2  1  1  6
  2  4  1  0
  2  3  1  0
  4 11  1  0
  5  4  2  0
  7  6  1  0
  7  8  2  0
  9  7  1  0
 10  9  1  1
 10 12  1  0
 11 10  1  0
 12 19  1  0
 12 13  2  0
 15 14  1  0
 15 17  1  0
 16 15  2  0
 18 17  1  6
 18 20  1  0
 19 18  1  0
 20 22  1  0
 21 20  2  0
M  END
$$$$
