TEV.pdb
     RDKit          3D

 24 23  0  0  1  0  0  0  0  0999 V2000
    8.4600  -12.9095   18.1955 C   0  0  0  0  0  0  0  0  0  0  0  0
    8.4486  -13.3890   19.6360 C   0  0  1  0  0  0  0  0  0  0  0  0
    7.5647  -12.6818   20.4142 O   0  0  0  0  0  0  0  0  0  0  0  0
    8.1295  -14.8669   19.7403 C   0  0  2  0  0  0  0  0  0  0  0  0
    6.8438  -15.1611   19.1176 N   0  0  0  0  0  0  0  0  0  0  0  0
    8.0590  -15.3465   21.1430 C   0  0  0  0  0  0  0  0  0  0  0  0
    6.9478  -15.5138   21.7132 O   0  0  0  0  0  0  0  0  0  0  0  0
    9.2082  -15.6453   21.9266 N   0  0  0  0  0  0  0  0  0  0  0  0
    9.1055  -16.2174   23.2682 C   0  0  1  0  0  0  0  0  0  0  0  0
   10.2107  -17.2244   23.4115 C   0  0  0  0  0  0  0  0  0  0  0  0
   10.2933  -17.8743   24.7488 C   0  0  0  0  0  0  0  0  0  0  0  0
   11.4093  -18.8223   24.8134 C   0  0  0  0  0  0  0  0  0  0  0  0
   12.2906  -18.7562   25.6878 O   0  0  0  0  0  0  0  0  0  0  0  0
    9.3196  -15.1624   24.2995 C   0  0  0  0  0  0  0  0  0  0  0  0
   10.2326  -14.3222   24.1172 O   0  0  0  0  0  0  0  0  0  0  0  0
   11.4812  -19.8289   23.8615 O   0  0  0  0  0  0  0  0  0  0  0  0
    7.2673  -12.4201   25.2030 C   0  0  0  0  0  0  0  0  0  0  0  0
    7.5391  -13.0913   26.5153 C   0  0  1  0  0  0  0  0  0  0  0  0
    6.3155  -13.8123   26.9936 C   0  0  0  0  0  0  0  0  0  0  0  0
    8.7516  -14.0008   26.3975 C   0  0  2  0  0  0  0  0  0  0  0  0
    8.5308  -15.0808   25.4689 N   0  0  0  0  0  0  0  0  0  0  0  0
    9.1066  -14.4843   27.7434 C   0  0  0  0  0  0  0  0  0  0  0  0
    9.5668  -13.5957   28.6938 O   0  0  0  0  0  0  0  0  0  0  0  0
    9.0011  -15.6944   28.0515 O   0  0  0  0  0  0  0  0  0  0  0  0
  2  1  1  6
  2  4  1  0
  2  3  1  0
  4  5  1  1
  6  8  1  0
  6  4  1  0
  7  6  2  0
  9  8  1  0
 10 11  1  0
  9 10  1  6
 12 11  1  0
 13 12  2  0
 14  9  1  0
 14 21  1  0
 15 14  2  0
 16 12  1  0
 18 20  1  0
 18 17  1  6
 19 18  1  0
 20 21  1  6
 20 22  1  0
 22 24  2  0
 22 23  1  0
M  END
$$$$
