TEV.pdb
     RDKit          3D

 24 23  0  0  1  0  0  0  0  0999 V2000
    8.2553  -15.9524   18.4665 C   0  0  0  0  0  0  0  0  0  0  0  0
    8.0724  -15.8085   19.9669 C   0  0  1  0  0  0  0  0  0  0  0  0
    7.4593  -14.6271   20.3067 O   0  0  0  0  0  0  0  0  0  0  0  0
    7.2874  -16.9628   20.5568 C   0  0  2  0  0  0  0  0  0  0  0  0
    5.9561  -17.0355   19.9653 N   0  0  0  0  0  0  0  0  0  0  0  0
    7.1105  -16.8518   22.0261 C   0  0  0  0  0  0  0  0  0  0  0  0
    6.0546  -16.3678   22.5147 O   0  0  0  0  0  0  0  0  0  0  0  0
    8.0918  -17.2722   22.9665 N   0  0  0  0  0  0  0  0  0  0  0  0
    7.9297  -17.0614   24.4042 C   0  0  1  0  0  0  0  0  0  0  0  0
    8.7797  -18.0823   25.1052 C   0  0  0  0  0  0  0  0  0  0  0  0
    8.6953  -18.0501   26.5916 C   0  0  0  0  0  0  0  0  0  0  0  0
    9.6132  -19.0178   27.1993 C   0  0  0  0  0  0  0  0  0  0  0  0
    9.4004  -20.2425   27.1786 O   0  0  0  0  0  0  0  0  0  0  0  0
    8.4337  -15.7126   24.7904 C   0  0  0  0  0  0  0  0  0  0  0  0
    9.4821  -15.2869   24.2500 O   0  0  0  0  0  0  0  0  0  0  0  0
   10.7606  -18.5454   27.8196 O   0  0  0  0  0  0  0  0  0  0  0  0
    6.9727  -12.2698   24.6162 C   0  0  0  0  0  0  0  0  0  0  0  0
    7.3668  -12.5000   26.0439 C   0  0  1  0  0  0  0  0  0  0  0  0
    6.1494  -12.7139   26.8912 C   0  0  0  0  0  0  0  0  0  0  0  0
    8.3584  -13.6486   26.1352 C   0  0  2  0  0  0  0  0  0  0  0  0
    7.7708  -14.9044   25.7411 N   0  0  0  0  0  0  0  0  0  0  0  0
    8.9016  -13.6906   27.5043 C   0  0  0  0  0  0  0  0  0  0  0  0
    8.7184  -14.8157   28.2822 O   0  0  0  0  0  0  0  0  0  0  0  0
    9.5323  -12.7211   27.9866 O   0  0  0  0  0  0  0  0  0  0  0  0
  2  1  1  6
  2  4  1  0
  2  3  1  0
  4  5  1  6
  6  8  1  0
  6  4  1  0
  7  6  2  0
  9  8  1  0
 10 11  1  0
  9 10  1  1
 12 11  1  0
 13 12  2  0
 14  9  1  0
 14 21  1  0
 15 14  2  0
 16 12  1  0
 18 20  1  0
 18 17  1  6
 19 18  1  0
 20 21  1  1
 20 22  1  0
 22 24  2  0
 22 23  1  0
M  END
$$$$
