TEV.pdb
     RDKit          3D

 24 23  0  0  1  0  0  0  0  0999 V2000
    6.3456  -13.5188   19.0817 C   0  0  0  0  0  0  0  0  0  0  0  0
    7.6918  -14.2014   18.9174 C   0  0  1  0  0  0  0  0  0  0  0  0
    8.2368  -13.9878   17.6747 O   0  0  0  0  0  0  0  0  0  0  0  0
    8.6837  -13.7639   19.9764 C   0  0  2  0  0  0  0  0  0  0  0  0
   10.0518  -14.0007   19.5294 N   0  0  0  0  0  0  0  0  0  0  0  0
    8.5110  -14.4819   21.2636 C   0  0  0  0  0  0  0  0  0  0  0  0
    7.4345  -14.3940   21.9127 O   0  0  0  0  0  0  0  0  0  0  0  0
    9.5191  -15.3007   21.8444 N   0  0  0  0  0  0  0  0  0  0  0  0
    9.2887  -16.0632   23.0705 C   0  0  1  0  0  0  0  0  0  0  0  0
   10.3853  -17.0843   23.1755 C   0  0  0  0  0  0  0  0  0  0  0  0
   10.3575  -18.1401   22.1257 C   0  0  0  0  0  0  0  0  0  0  0  0
   11.5187  -19.0281   22.2311 C   0  0  0  0  0  0  0  0  0  0  0  0
   12.2609  -19.2729   21.2642 O   0  0  0  0  0  0  0  0  0  0  0  0
    9.3865  -15.1718   24.2614 C   0  0  0  0  0  0  0  0  0  0  0  0
   10.3615  -14.3876   24.3450 O   0  0  0  0  0  0  0  0  0  0  0  0
   11.7963  -19.6153   23.4569 O   0  0  0  0  0  0  0  0  0  0  0  0
    7.5130  -12.3447   27.5922 C   0  0  0  0  0  0  0  0  0  0  0  0
    7.3355  -13.3176   26.4660 C   0  0  1  0  0  0  0  0  0  0  0  0
    7.0739  -12.5868   25.1841 C   0  0  0  0  0  0  0  0  0  0  0  0
    8.5363  -14.2462   26.3814 C   0  0  2  0  0  0  0  0  0  0  0  0
    8.4207  -15.1837   25.2927 N   0  0  0  0  0  0  0  0  0  0  0  0
    8.7014  -14.9177   27.6825 C   0  0  0  0  0  0  0  0  0  0  0  0
    9.1996  -14.2147   28.7605 O   0  0  0  0  0  0  0  0  0  0  0  0
    8.3983  -16.1237   27.8381 O   0  0  0  0  0  0  0  0  0  0  0  0
  2  1  1  6
  2  4  1  0
  2  3  1  0
  4  5  1  6
  6  8  1  0
  6  4  1  0
  7  6  2  0
  9  8  1  0
 10 11  1  0
  9 10  1  1
 12 11  1  0
 13 12  2  0
 14  9  1  0
 14 21  1  0
 15 14  2  0
 16 12  1  0
 18 20  1  0
 18 17  1  1
 19 18  1  0
 20 21  1  6
 20 22  1  0
 22 24  2  0
 22 23  1  0
M  END
$$$$
