TEV.pdb
     RDKit          3D

 24 23  0  0  1  0  0  0  0  0999 V2000
    9.2752  -13.2938   18.1086 C   0  0  0  0  0  0  0  0  0  0  0  0
    9.1408  -14.0372   19.4256 C   0  0  1  0  0  0  0  0  0  0  0  0
    9.8666  -13.4492   20.4329 O   0  0  0  0  0  0  0  0  0  0  0  0
    7.6951  -14.1616   19.8629 C   0  0  2  0  0  0  0  0  0  0  0  0
    7.0692  -12.8471   19.9513 N   0  0  0  0  0  0  0  0  0  0  0  0
    7.5450  -14.8105   21.1891 C   0  0  0  0  0  0  0  0  0  0  0  0
    6.7410  -14.3528   22.0447 O   0  0  0  0  0  0  0  0  0  0  0  0
    8.2765  -15.9656   21.5825 N   0  0  0  0  0  0  0  0  0  0  0  0
    8.1369  -16.5571   22.9123 C   0  0  1  0  0  0  0  0  0  0  0  0
    8.9297  -17.8329   22.9204 C   0  0  0  0  0  0  0  0  0  0  0  0
    8.8608  -18.6023   24.1934 C   0  0  0  0  0  0  0  0  0  0  0  0
    9.7140  -19.7931   24.1441 C   0  0  0  0  0  0  0  0  0  0  0  0
    9.9664  -20.4748   25.1527 O   0  0  0  0  0  0  0  0  0  0  0  0
    8.7225  -15.6553   23.9449 C   0  0  0  0  0  0  0  0  0  0  0  0
    9.8494  -15.1492   23.7295 O   0  0  0  0  0  0  0  0  0  0  0  0
   10.2582  -20.1698   22.9250 O   0  0  0  0  0  0  0  0  0  0  0  0
    8.1920  -12.3498   27.4135 C   0  0  0  0  0  0  0  0  0  0  0  0
    7.5622  -13.3720   26.5162 C   0  0  1  0  0  0  0  0  0  0  0  0
    6.8477  -12.6996   25.3834 C   0  0  0  0  0  0  0  0  0  0  0  0
    8.6071  -14.3706   26.0449 C   0  0  2  0  0  0  0  0  0  0  0  0
    8.0511  -15.3557   25.1515 N   0  0  0  0  0  0  0  0  0  0  0  0
    9.2380  -14.9816   27.2281 C   0  0  0  0  0  0  0  0  0  0  0  0
   10.0664  -14.2258   28.0326 O   0  0  0  0  0  0  0  0  0  0  0  0
    9.0406  -16.1825   27.5265 O   0  0  0  0  0  0  0  0  0  0  0  0
  2  1  1  6
  2  4  1  0
  2  3  1  0
  4  5  1  1
  6  8  1  0
  6  4  1  0
  7  6  2  0
  9  8  1  0
 10 11  1  0
  9 10  1  6
 12 11  1  0
 13 12  2  0
 14  9  1  0
 14 21  1  0
 15 14  2  0
 16 12  1  0
 18 20  1  0
 18 17  1  6
 19 18  1  0
 20 21  1  6
 20 22  1  0
 22 24  2  0
 22 23  1  0
M  END
$$$$
