TEV.pdb
     RDKit          3D

 24 23  0  0  1  0  0  0  0  0999 V2000
    8.9697  -12.2716   20.3774 C   0  0  0  0  0  0  0  0  0  0  0  0
    8.0515  -12.9418   19.3708 C   0  0  1  0  0  0  0  0  0  0  0  0
    8.2965  -12.5270   18.0844 O   0  0  0  0  0  0  0  0  0  0  0  0
    8.1479  -14.4530   19.4320 C   0  0  2  0  0  0  0  0  0  0  0  0
    7.1889  -15.0671   18.5206 N   0  0  0  0  0  0  0  0  0  0  0  0
    7.8776  -14.9961   20.7864 C   0  0  0  0  0  0  0  0  0  0  0  0
    6.7014  -15.0582   21.2344 O   0  0  0  0  0  0  0  0  0  0  0  0
    8.8973  -15.4744   21.6556 N   0  0  0  0  0  0  0  0  0  0  0  0
    8.5979  -16.0083   22.9834 C   0  0  1  0  0  0  0  0  0  0  0  0
    9.5143  -17.1759   23.2136 C   0  0  0  0  0  0  0  0  0  0  0  0
    9.4039  -17.7996   24.5613 C   0  0  0  0  0  0  0  0  0  0  0  0
   10.3809  -18.8788   24.7316 C   0  0  0  0  0  0  0  0  0  0  0  0
   11.5399  -18.6721   25.1309 O   0  0  0  0  0  0  0  0  0  0  0  0
    8.8935  -14.9892   24.0306 C   0  0  0  0  0  0  0  0  0  0  0  0
    9.9893  -14.3813   23.9833 O   0  0  0  0  0  0  0  0  0  0  0  0
    9.9940  -20.1775   24.4348 O   0  0  0  0  0  0  0  0  0  0  0  0
    7.0201  -11.8529   25.1819 C   0  0  0  0  0  0  0  0  0  0  0  0
    7.2384  -12.7422   26.3685 C   0  0  1  0  0  0  0  0  0  0  0  0
    5.9549  -13.4083   26.7619 C   0  0  0  0  0  0  0  0  0  0  0  0
    8.3542  -13.7341   26.0819 C   0  0  2  0  0  0  0  0  0  0  0  0
    7.9829  -14.6896   25.0686 N   0  0  0  0  0  0  0  0  0  0  0  0
    8.7406  -14.3826   27.3473 C   0  0  0  0  0  0  0  0  0  0  0  0
    9.3192  -13.6361   28.3536 O   0  0  0  0  0  0  0  0  0  0  0  0
    8.5562  -15.6076   27.5363 O   0  0  0  0  0  0  0  0  0  0  0  0
  2  1  1  1
  2  4  1  0
  2  3  1  0
  4  5  1  6
  6  8  1  0
  6  4  1  0
  7  6  2  0
  9  8  1  0
 10 11  1  0
  9 10  1  1
 12 11  1  0
 13 12  2  0
 14  9  1  0
 14 21  1  0
 15 14  2  0
 16 12  1  0
 18 20  1  0
 18 17  1  6
 19 18  1  0
 20 21  1  6
 20 22  1  0
 22 24  2  0
 22 23  1  0
M  END
$$$$
