TEV.pdb
     RDKit          3D

 24 23  0  0  1  0  0  0  0  0999 V2000
    8.4852  -12.5777   20.9964 C   0  0  0  0  0  0  0  0  0  0  0  0
    7.6930  -13.4005   19.9962 C   0  0  1  0  0  0  0  0  0  0  0  0
    7.7529  -12.8782   18.7271 O   0  0  0  0  0  0  0  0  0  0  0  0
    8.1497  -14.8452   19.9605 C   0  0  2  0  0  0  0  0  0  0  0  0
    7.3439  -15.6166   19.0208 N   0  0  0  0  0  0  0  0  0  0  0  0
    8.0500  -15.5167   21.2802 C   0  0  0  0  0  0  0  0  0  0  0  0
    6.9339  -15.8852   21.7346 O   0  0  0  0  0  0  0  0  0  0  0  0
    9.1753  -15.7877   22.1074 N   0  0  0  0  0  0  0  0  0  0  0  0
    9.0410  -16.4258   23.4161 C   0  0  1  0  0  0  0  0  0  0  0  0
   10.0042  -17.5777   23.4536 C   0  0  0  0  0  0  0  0  0  0  0  0
   11.4189  -17.2181   23.1591 C   0  0  0  0  0  0  0  0  0  0  0  0
   12.2728  -18.4083   23.1095 C   0  0  0  0  0  0  0  0  0  0  0  0
   11.8226  -19.5584   23.2517 O   0  0  0  0  0  0  0  0  0  0  0  0
    9.4301  -15.4767   24.4979 C   0  0  0  0  0  0  0  0  0  0  0  0
   10.3668  -14.6717   24.2810 O   0  0  0  0  0  0  0  0  0  0  0  0
   13.6333  -18.2408   22.8960 O   0  0  0  0  0  0  0  0  0  0  0  0
    8.3679  -12.5587   28.1191 C   0  0  0  0  0  0  0  0  0  0  0  0
    7.9586  -13.5632   27.0847 C   0  0  1  0  0  0  0  0  0  0  0  0
    7.3602  -12.8722   25.8972 C   0  0  0  0  0  0  0  0  0  0  0  0
    9.1384  -14.4495   26.7191 C   0  0  2  0  0  0  0  0  0  0  0  0
    8.7802  -15.4569   25.7523 N   0  0  0  0  0  0  0  0  0  0  0  0
    9.6876  -15.0318   27.9562 C   0  0  0  0  0  0  0  0  0  0  0  0
    9.6578  -16.3986   28.1446 O   0  0  0  0  0  0  0  0  0  0  0  0
   10.1864  -14.3111   28.8518 O   0  0  0  0  0  0  0  0  0  0  0  0
  2  1  1  1
  2  4  1  0
  2  3  1  0
  4  5  1  6
  6  8  1  0
  6  4  1  0
  7  6  2  0
  9  8  1  0
 10 11  1  0
  9 10  1  6
 12 11  1  0
 13 12  2  0
 14  9  1  0
 14 21  1  0
 15 14  2  0
 16 12  1  0
 18 20  1  0
 18 17  1  1
 19 18  1  0
 20 21  1  6
 20 22  1  0
 22 24  2  0
 22 23  1  0
M  END
$$$$
