TEV.pdb
     RDKit          3D

 24 23  0  0  1  0  0  0  0  0999 V2000
    8.8345  -12.5163   20.3906 C   0  0  0  0  0  0  0  0  0  0  0  0
    8.0316  -13.3263   19.3883 C   0  0  1  0  0  0  0  0  0  0  0  0
    8.2626  -12.9305   18.0933 O   0  0  0  0  0  0  0  0  0  0  0  0
    8.3048  -14.8121   19.5096 C   0  0  2  0  0  0  0  0  0  0  0  0
    7.4431  -15.5690   18.6085 N   0  0  0  0  0  0  0  0  0  0  0  0
    8.0744  -15.3332   20.8799 C   0  0  0  0  0  0  0  0  0  0  0  0
    6.9110  -15.3956   21.3599 O   0  0  0  0  0  0  0  0  0  0  0  0
    9.1202  -15.7892   21.7299 N   0  0  0  0  0  0  0  0  0  0  0  0
    8.8638  -16.2688   23.0871 C   0  0  1  0  0  0  0  0  0  0  0  0
    9.9531  -17.2444   23.4305 C   0  0  0  0  0  0  0  0  0  0  0  0
    9.9374  -17.7269   24.8392 C   0  0  0  0  0  0  0  0  0  0  0  0
   11.0593  -18.6315   25.1060 C   0  0  0  0  0  0  0  0  0  0  0  0
   11.8814  -18.9507   24.2297 O   0  0  0  0  0  0  0  0  0  0  0  0
    8.9448  -15.1414   24.0592 C   0  0  0  0  0  0  0  0  0  0  0  0
    9.8311  -14.2698   23.8941 O   0  0  0  0  0  0  0  0  0  0  0  0
   11.2055  -19.1485   26.3849 O   0  0  0  0  0  0  0  0  0  0  0  0
    6.9428  -12.1592   27.3209 C   0  0  0  0  0  0  0  0  0  0  0  0
    6.8026  -13.2654   26.3193 C   0  0  1  0  0  0  0  0  0  0  0  0
    6.1151  -12.7651   25.0852 C   0  0  0  0  0  0  0  0  0  0  0  0
    8.1603  -13.8843   26.0285 C   0  0  2  0  0  0  0  0  0  0  0  0
    8.0594  -15.0259   25.1542 N   0  0  0  0  0  0  0  0  0  0  0  0
    8.8074  -14.2168   27.3099 C   0  0  0  0  0  0  0  0  0  0  0  0
    9.2877  -13.2077   28.1195 O   0  0  0  0  0  0  0  0  0  0  0  0
    8.9349  -15.4047   27.6882 O   0  0  0  0  0  0  0  0  0  0  0  0
  2  1  1  1
  2  4  1  0
  2  3  1  0
  4  5  1  6
  6  8  1  0
  6  4  1  0
  7  6  2  0
  9  8  1  0
 10 11  1  0
  9 10  1  1
 12 11  1  0
 13 12  2  0
 14  9  1  0
 14 21  1  0
 15 14  2  0
 16 12  1  0
 18 20  1  0
 18 17  1  1
 19 18  1  0
 20 21  1  6
 20 22  1  0
 22 24  2  0
 22 23  1  0
M  END
$$$$
