TEV.pdb
     RDKit          3D

 24 23  0  0  1  0  0  0  0  0999 V2000
    8.5834  -12.5911   20.4693 C   0  0  0  0  0  0  0  0  0  0  0  0
    7.6802  -13.4686   19.6211 C   0  0  1  0  0  0  0  0  0  0  0  0
    7.6126  -13.0413   18.3173 O   0  0  0  0  0  0  0  0  0  0  0  0
    8.1129  -14.9208   19.6458 C   0  0  2  0  0  0  0  0  0  0  0  0
    7.2176  -15.7384   18.8350 N   0  0  0  0  0  0  0  0  0  0  0  0
    8.1206  -15.4996   21.0123 C   0  0  0  0  0  0  0  0  0  0  0  0
    7.0424  -15.7831   21.5997 O   0  0  0  0  0  0  0  0  0  0  0  0
    9.3123  -15.7706   21.7407 N   0  0  0  0  0  0  0  0  0  0  0  0
    9.2856  -16.3009   23.1030 C   0  0  1  0  0  0  0  0  0  0  0  0
   10.5554  -17.0772   23.3063 C   0  0  0  0  0  0  0  0  0  0  0  0
   10.7419  -17.6199   24.6804 C   0  0  0  0  0  0  0  0  0  0  0  0
   10.9610  -19.0689   24.6567 C   0  0  0  0  0  0  0  0  0  0  0  0
   10.8359  -19.7788   25.6696 O   0  0  0  0  0  0  0  0  0  0  0  0
    9.2746  -15.1864   24.0930 C   0  0  0  0  0  0  0  0  0  0  0  0
   10.0765  -14.2354   23.9343 O   0  0  0  0  0  0  0  0  0  0  0  0
   11.3215  -19.6663   23.4578 O   0  0  0  0  0  0  0  0  0  0  0  0
    7.1726  -12.2291   27.2070 C   0  0  0  0  0  0  0  0  0  0  0  0
    7.0890  -13.3589   26.2257 C   0  0  1  0  0  0  0  0  0  0  0  0
    6.5827  -12.8639   24.9050 C   0  0  0  0  0  0  0  0  0  0  0  0
    8.4339  -14.0593   26.1171 C   0  0  2  0  0  0  0  0  0  0  0  0
    8.3944  -15.1690   25.1981 N   0  0  0  0  0  0  0  0  0  0  0  0
    8.8602  -14.4665   27.4676 C   0  0  0  0  0  0  0  0  0  0  0  0
    9.2202  -13.5079   28.3929 O   0  0  0  0  0  0  0  0  0  0  0  0
    8.9054  -15.6733   27.8020 O   0  0  0  0  0  0  0  0  0  0  0  0
  2  1  1  1
  2  4  1  0
  2  3  1  0
  4  5  1  6
  6  8  1  0
  6  4  1  0
  7  6  2  0
  9  8  1  0
 10 11  1  0
  9 10  1  1
 12 11  1  0
 13 12  2  0
 14  9  1  0
 14 21  1  0
 15 14  2  0
 16 12  1  0
 18 20  1  0
 18 17  1  1
 19 18  1  0
 20 21  1  6
 20 22  1  0
 22 24  2  0
 22 23  1  0
M  END
$$$$
