TEV.pdb
     RDKit          3D

 24 23  0  0  1  0  0  0  0  0999 V2000
    8.2833  -12.2406   20.2018 C   0  0  0  0  0  0  0  0  0  0  0  0
    7.8223  -13.2298   19.1462 C   0  0  1  0  0  0  0  0  0  0  0  0
    8.0855  -12.7923   17.8710 O   0  0  0  0  0  0  0  0  0  0  0  0
    8.4441  -14.5983   19.3398 C   0  0  2  0  0  0  0  0  0  0  0  0
    7.9480  -15.5353   18.3382 N   0  0  0  0  0  0  0  0  0  0  0  0
    8.1529  -15.1834   20.6722 C   0  0  0  0  0  0  0  0  0  0  0  0
    7.0237  -15.6820   20.9257 O   0  0  0  0  0  0  0  0  0  0  0  0
    9.1002  -15.2246   21.7328 N   0  0  0  0  0  0  0  0  0  0  0  0
    8.7900  -15.8290   23.0275 C   0  0  1  0  0  0  0  0  0  0  0  0
    9.7310  -16.9839   23.2196 C   0  0  0  0  0  0  0  0  0  0  0  0
    9.5733  -18.0881   22.2330 C   0  0  0  0  0  0  0  0  0  0  0  0
   10.4917  -19.1941   22.5186 C   0  0  0  0  0  0  0  0  0  0  0  0
   10.6155  -19.6812   23.6557 O   0  0  0  0  0  0  0  0  0  0  0  0
    9.0406  -14.8548   24.1278 C   0  0  0  0  0  0  0  0  0  0  0  0
   10.1535  -14.2791   24.1770 O   0  0  0  0  0  0  0  0  0  0  0  0
   11.2490  -19.7136   21.4789 O   0  0  0  0  0  0  0  0  0  0  0  0
    7.0466  -11.7705   25.2681 C   0  0  0  0  0  0  0  0  0  0  0  0
    7.2562  -12.6691   26.4493 C   0  0  1  0  0  0  0  0  0  0  0  0
    5.9755  -13.3571   26.8127 C   0  0  0  0  0  0  0  0  0  0  0  0
    8.3909  -13.6422   26.1726 C   0  0  2  0  0  0  0  0  0  0  0  0
    8.0689  -14.5624   25.1110 N   0  0  0  0  0  0  0  0  0  0  0  0
    8.7309  -14.3341   27.4284 C   0  0  0  0  0  0  0  0  0  0  0  0
    9.2686  -13.6223   28.4814 O   0  0  0  0  0  0  0  0  0  0  0  0
    8.5432  -15.5653   27.5672 O   0  0  0  0  0  0  0  0  0  0  0  0
  2  1  1  1
  2  4  1  0
  2  3  1  0
  4  5  1  6
  6  8  1  0
  6  4  1  0
  7  6  2  0
  9  8  1  0
 10 11  1  0
  9 10  1  1
 12 11  1  0
 13 12  2  0
 14  9  1  0
 14 21  1  0
 15 14  2  0
 16 12  1  0
 18 20  1  0
 18 17  1  6
 19 18  1  0
 20 21  1  6
 20 22  1  0
 22 24  2  0
 22 23  1  0
M  END
$$$$
