TEV.pdb
     RDKit          3D

 24 23  0  0  1  0  0  0  0  0999 V2000
    8.6377  -12.4217   20.2429 C   0  0  0  0  0  0  0  0  0  0  0  0
    7.8094  -13.3011   19.3231 C   0  0  1  0  0  0  0  0  0  0  0  0
    7.9124  -12.9220   18.0069 O   0  0  0  0  0  0  0  0  0  0  0  0
    8.1820  -14.7647   19.4489 C   0  0  2  0  0  0  0  0  0  0  0  0
    7.2790  -15.5953   18.6602 N   0  0  0  0  0  0  0  0  0  0  0  0
    8.1255  -15.2585   20.8472 C   0  0  0  0  0  0  0  0  0  0  0  0
    7.0357  -15.2850   21.4792 O   0  0  0  0  0  0  0  0  0  0  0  0
    9.2653  -15.7263   21.5586 N   0  0  0  0  0  0  0  0  0  0  0  0
    9.1688  -16.2528   22.9193 C   0  0  1  0  0  0  0  0  0  0  0  0
   10.3961  -17.0828   23.1663 C   0  0  0  0  0  0  0  0  0  0  0  0
   10.4880  -17.6696   24.5319 C   0  0  0  0  0  0  0  0  0  0  0  0
   11.6904  -18.4950   24.6782 C   0  0  0  0  0  0  0  0  0  0  0  0
   12.8361  -18.0124   24.6651 O   0  0  0  0  0  0  0  0  0  0  0  0
    9.1719  -15.1372   23.9082 C   0  0  0  0  0  0  0  0  0  0  0  0
    9.9722  -14.1869   23.7377 O   0  0  0  0  0  0  0  0  0  0  0  0
   11.5400  -19.8649   24.8366 O   0  0  0  0  0  0  0  0  0  0  0  0
    7.0978  -12.2695   27.1678 C   0  0  0  0  0  0  0  0  0  0  0  0
    7.0023  -13.3672   26.1517 C   0  0  1  0  0  0  0  0  0  0  0  0
    6.4065  -12.8469   24.8788 C   0  0  0  0  0  0  0  0  0  0  0  0
    8.3641  -14.0107   25.9459 C   0  0  2  0  0  0  0  0  0  0  0  0
    8.3066  -15.1180   25.0250 N   0  0  0  0  0  0  0  0  0  0  0  0
    8.8994  -14.4045   27.2611 C   0  0  0  0  0  0  0  0  0  0  0  0
    9.2985  -13.4353   28.1589 O   0  0  0  0  0  0  0  0  0  0  0  0
    9.0034  -15.6093   27.5897 O   0  0  0  0  0  0  0  0  0  0  0  0
  2  1  1  1
  2  4  1  0
  2  3  1  0
  4  5  1  6
  6  8  1  0
  6  4  1  0
  7  6  2  0
  9  8  1  0
 10 11  1  0
  9 10  1  1
 12 11  1  0
 13 12  2  0
 14  9  1  0
 14 21  1  0
 15 14  2  0
 16 12  1  0
 18 20  1  0
 18 17  1  1
 19 18  1  0
 20 21  1  6
 20 22  1  0
 22 24  2  0
 22 23  1  0
M  END
$$$$
