TEV.pdb
     RDKit          3D

 24 23  0  0  1  0  0  0  0  0999 V2000
    8.2052  -12.7655   18.5712 C   0  0  0  0  0  0  0  0  0  0  0  0
    8.3674  -13.4192   19.9320 C   0  0  1  0  0  0  0  0  0  0  0  0
    7.8537  -12.6478   20.9458 O   0  0  0  0  0  0  0  0  0  0  0  0
    7.7300  -14.7933   19.9818 C   0  0  2  0  0  0  0  0  0  0  0  0
    6.3272  -14.7244   19.5885 N   0  0  0  0  0  0  0  0  0  0  0  0
    7.7787  -15.4055   21.3328 C   0  0  0  0  0  0  0  0  0  0  0  0
    6.7664  -15.3955   22.0831 O   0  0  0  0  0  0  0  0  0  0  0  0
    8.9389  -16.0324   21.8666 N   0  0  0  0  0  0  0  0  0  0  0  0
    8.9682  -16.5883   23.2186 C   0  0  1  0  0  0  0  0  0  0  0  0
   10.1486  -17.5140   23.2966 C   0  0  0  0  0  0  0  0  0  0  0  0
   10.3792  -18.1195   24.6374 C   0  0  0  0  0  0  0  0  0  0  0  0
   11.5107  -19.0508   24.6149 C   0  0  0  0  0  0  0  0  0  0  0  0
   12.6279  -18.7320   24.1722 O   0  0  0  0  0  0  0  0  0  0  0  0
    9.1777  -15.5044   24.2204 C   0  0  0  0  0  0  0  0  0  0  0  0
    9.9497  -14.5600   23.9294 O   0  0  0  0  0  0  0  0  0  0  0  0
   11.3240  -20.3345   25.1064 O   0  0  0  0  0  0  0  0  0  0  0  0
    7.7388  -12.5984   27.7287 C   0  0  0  0  0  0  0  0  0  0  0  0
    7.4745  -13.6692   26.7139 C   0  0  1  0  0  0  0  0  0  0  0  0
    6.8200  -13.0841   25.4993 C   0  0  0  0  0  0  0  0  0  0  0  0
    8.7599  -14.4137   26.3906 C   0  0  2  0  0  0  0  0  0  0  0  0
    8.5375  -15.5087   25.4800 N   0  0  0  0  0  0  0  0  0  0  0  0
    9.3765  -14.8539   27.6544 C   0  0  0  0  0  0  0  0  0  0  0  0
    9.9527  -13.9258   28.4979 O   0  0  0  0  0  0  0  0  0  0  0  0
    9.3922  -16.0619   27.9875 O   0  0  0  0  0  0  0  0  0  0  0  0
  2  1  1  6
  2  4  1  0
  2  3  1  0
  4  5  1  1
  6  8  1  0
  6  4  1  0
  7  6  2  0
  9  8  1  0
 10 11  1  0
  9 10  1  6
 12 11  1  0
 13 12  2  0
 14  9  1  0
 14 21  1  0
 15 14  2  0
 16 12  1  0
 18 20  1  0
 18 17  1  1
 19 18  1  0
 20 21  1  6
 20 22  1  0
 22 24  2  0
 22 23  1  0
M  END
$$$$
