TEV.pdb
     RDKit          3D

 24 23  0  0  1  0  0  0  0  0999 V2000
    8.5448  -12.3894   19.9767 C   0  0  0  0  0  0  0  0  0  0  0  0
    8.0673  -13.4054   18.9545 C   0  0  1  0  0  0  0  0  0  0  0  0
    8.5067  -13.1150   17.6858 O   0  0  0  0  0  0  0  0  0  0  0  0
    8.4891  -14.8157   19.3153 C   0  0  2  0  0  0  0  0  0  0  0  0
    7.9952  -15.7690   18.3280 N   0  0  0  0  0  0  0  0  0  0  0  0
    7.9809  -15.2510   20.6399 C   0  0  0  0  0  0  0  0  0  0  0  0
    6.7705  -15.5651   20.7959 O   0  0  0  0  0  0  0  0  0  0  0  0
    8.7992  -15.3444   21.7999 N   0  0  0  0  0  0  0  0  0  0  0  0
    8.2723  -15.7947   23.0873 C   0  0  1  0  0  0  0  0  0  0  0  0
    8.8983  -17.1270   23.3862 C   0  0  0  0  0  0  0  0  0  0  0  0
   10.2851  -17.2946   22.8700 C   0  0  0  0  0  0  0  0  0  0  0  0
   10.7997  -18.6382   23.1496 C   0  0  0  0  0  0  0  0  0  0  0  0
   10.8757  -19.0965   24.3028 O   0  0  0  0  0  0  0  0  0  0  0  0
    8.6758  -14.8533   24.1705 C   0  0  0  0  0  0  0  0  0  0  0  0
    9.8404  -14.3883   24.1578 O   0  0  0  0  0  0  0  0  0  0  0  0
   11.2167  -19.4241   22.0853 O   0  0  0  0  0  0  0  0  0  0  0  0
    7.1858  -11.5565   25.3835 C   0  0  0  0  0  0  0  0  0  0  0  0
    7.2848  -12.4839   26.5568 C   0  0  1  0  0  0  0  0  0  0  0  0
    5.9254  -12.9854   26.9391 C   0  0  0  0  0  0  0  0  0  0  0  0
    8.2649  -13.6064   26.2563 C   0  0  2  0  0  0  0  0  0  0  0  0
    7.7922  -14.4716   25.2048 N   0  0  0  0  0  0  0  0  0  0  0  0
    8.5340  -14.3400   27.5056 C   0  0  0  0  0  0  0  0  0  0  0  0
    9.1929  -13.7122   28.5430 O   0  0  0  0  0  0  0  0  0  0  0  0
    8.1767  -15.5321   27.6528 O   0  0  0  0  0  0  0  0  0  0  0  0
  2  1  1  1
  2  4  1  0
  2  3  1  0
  4  5  1  6
  6  8  1  0
  6  4  1  0
  7  6  2  0
  9  8  1  0
 10 11  1  0
  9 10  1  1
 12 11  1  0
 13 12  2  0
 14  9  1  0
 14 21  1  0
 15 14  2  0
 16 12  1  0
 18 20  1  0
 18 17  1  6
 19 18  1  0
 20 21  1  6
 20 22  1  0
 22 24  2  0
 22 23  1  0
M  END
$$$$
