TEV.pdb
     RDKit          3D

 24 23  0  0  1  0  0  0  0  0999 V2000
    8.8866  -12.1624   18.4498 C   0  0  0  0  0  0  0  0  0  0  0  0
    8.7173  -12.9118   19.7593 C   0  0  1  0  0  0  0  0  0  0  0  0
    7.6583  -12.4409   20.4967 O   0  0  0  0  0  0  0  0  0  0  0  0
    8.5481  -14.4023   19.5433 C   0  0  2  0  0  0  0  0  0  0  0  0
    7.3788  -14.6726   18.7144 N   0  0  0  0  0  0  0  0  0  0  0  0
    8.3728  -15.1548   20.8102 C   0  0  0  0  0  0  0  0  0  0  0  0
    7.2353  -15.5638   21.1664 O   0  0  0  0  0  0  0  0  0  0  0  0
    9.4456  -15.4628   21.6925 N   0  0  0  0  0  0  0  0  0  0  0  0
    9.2345  -16.1731   22.9529 C   0  0  1  0  0  0  0  0  0  0  0  0
   10.3763  -17.1343   23.1219 C   0  0  0  0  0  0  0  0  0  0  0  0
   10.2847  -18.3648   22.2881 C   0  0  0  0  0  0  0  0  0  0  0  0
   11.4547  -19.2268   22.4787 C   0  0  0  0  0  0  0  0  0  0  0  0
   12.1361  -19.6461   21.5271 O   0  0  0  0  0  0  0  0  0  0  0  0
    9.2740  -15.2196   24.0982 C   0  0  0  0  0  0  0  0  0  0  0  0
   10.2421  -14.4274   24.1858 O   0  0  0  0  0  0  0  0  0  0  0  0
   11.8113  -19.5860   23.7703 O   0  0  0  0  0  0  0  0  0  0  0  0
    7.0516  -12.3937   27.3042 C   0  0  0  0  0  0  0  0  0  0  0  0
    6.9705  -13.4309   26.2252 C   0  0  1  0  0  0  0  0  0  0  0  0
    6.5234  -12.8077   24.9377 C   0  0  0  0  0  0  0  0  0  0  0  0
    8.2985  -14.1598   26.0980 C   0  0  2  0  0  0  0  0  0  0  0  0
    8.2606  -15.1817   25.0821 N   0  0  0  0  0  0  0  0  0  0  0  0
    8.6654  -14.6984   27.4195 C   0  0  0  0  0  0  0  0  0  0  0  0
    9.0791  -13.8424   28.4199 O   0  0  0  0  0  0  0  0  0  0  0  0
    8.6116  -15.9267   27.6620 O   0  0  0  0  0  0  0  0  0  0  0  0
  2  1  1  6
  2  4  1  0
  2  3  1  0
  4  5  1  6
  6  8  1  0
  6  4  1  0
  7  6  2  0
  9  8  1  0
 10 11  1  0
  9 10  1  1
 12 11  1  0
 13 12  2  0
 14  9  1  0
 14 21  1  0
 15 14  2  0
 16 12  1  0
 18 20  1  0
 18 17  1  1
 19 18  1  0
 20 21  1  6
 20 22  1  0
 22 24  2  0
 22 23  1  0
M  END
$$$$
