CIA.pdb
     RDKit          3D

 20 19  0  0  1  0  0  0  0  0999 V2000
   24.0259  -15.1572  -16.7953 N   0  0  0  0  0  0  0  0  0  0  0  0
   24.0445  -13.8588  -16.1945 C   0  0  1  0  0  0  0  0  0  0  0  0
   25.2372  -13.0840  -16.7046 C   0  0  0  0  0  0  0  0  0  0  0  0
   26.7122  -13.7911  -15.9097 S   0  0  0  0  0  0  0  0  0  0  0  0
   22.7722  -13.1155  -16.4078 C   0  0  0  0  0  0  0  0  0  0  0  0
   22.2502  -13.1769  -17.5491 O   0  0  0  0  0  0  0  0  0  0  0  0
   18.3228  -14.1184  -14.3446 C   0  0  0  0  0  0  0  0  0  0  0  0
   19.4408  -13.5925  -15.2542 C   0  0  0  0  0  0  0  0  0  0  0  0
   19.8077  -12.2207  -14.8208 C   0  0  2  0  0  0  0  0  0  0  0  0
   18.5567  -11.3670  -14.8094 C   0  0  0  0  0  0  0  0  0  0  0  0
   20.9203  -11.5815  -15.6036 C   0  0  2  0  0  0  0  0  0  0  0  0
   22.1471  -12.3580  -15.3843 N   0  0  0  0  0  0  0  0  0  0  0  0
   21.1231  -10.1569  -15.3606 C   0  0  0  0  0  0  0  0  0  0  0  0
   21.4000   -9.7211  -14.2167 O   0  0  0  0  0  0  0  0  0  0  0  0
   21.1641   -6.9274  -17.4175 C   0  0  0  0  0  0  0  0  0  0  0  0
   21.1910   -7.7592  -16.1280 C   0  0  2  0  0  0  0  0  0  0  0  0
   21.0244   -9.1527  -16.3915 N   0  0  0  0  0  0  0  0  0  0  0  0
   20.1575   -7.1927  -15.2402 C   0  0  0  0  0  0  0  0  0  0  0  0
   20.3860   -6.0792  -14.7141 O   0  0  0  0  0  0  0  0  0  0  0  0
   18.9553   -7.8032  -14.9480 O   0  0  0  0  0  0  0  0  0  0  0  0
  2  1  1  6
  2  3  1  0
  4  3  1  0
  5  2  1  0
  5  6  2  0
  7  8  1  0
  8  9  1  0
  9 11  1  0
  9 10  1  6
 11 12  1  1
 11 13  1  0
 12  5  1  0
 13 14  2  0
 16 15  1  6
 17 13  1  0
 17 16  1  0
 18 20  1  0
 18 16  1  0
 19 18  2  0
M  END
$$$$
