CIA.pdb
     RDKit          3D

 20 19  0  0  1  0  0  0  0  0999 V2000
   17.0722  -11.5639  -17.0370 N   0  0  0  0  0  0  0  0  0  0  0  0
   17.8026  -10.3860  -17.3924 C   0  0  1  0  0  0  0  0  0  0  0  0
   16.8357   -9.2861  -17.7645 C   0  0  0  0  0  0  0  0  0  0  0  0
   16.1124   -9.7331  -19.3723 S   0  0  0  0  0  0  0  0  0  0  0  0
   18.7419   -9.9547  -16.3208 C   0  0  0  0  0  0  0  0  0  0  0  0
   18.3214   -9.9815  -15.1371 O   0  0  0  0  0  0  0  0  0  0  0  0
   24.2511  -10.9351  -14.5674 C   0  0  0  0  0  0  0  0  0  0  0  0
   23.1516   -9.8717  -14.4488 C   0  0  0  0  0  0  0  0  0  0  0  0
   22.1502  -10.0939  -15.5221 C   0  0  2  0  0  0  0  0  0  0  0  0
   22.8714  -10.1421  -16.8531 C   0  0  0  0  0  0  0  0  0  0  0  0
   21.0044   -9.1213  -15.5358 C   0  0  2  0  0  0  0  0  0  0  0  0
   20.0663   -9.5247  -16.5910 N   0  0  0  0  0  0  0  0  0  0  0  0
   21.3748   -7.7137  -15.6410 C   0  0  0  0  0  0  0  0  0  0  0  0
   22.0156   -7.2778  -16.6281 O   0  0  0  0  0  0  0  0  0  0  0  0
   20.2821   -4.3972  -14.7638 C   0  0  0  0  0  0  0  0  0  0  0  0
   21.4704   -5.3679  -14.7297 C   0  0  2  0  0  0  0  0  0  0  0  0
   21.0429   -6.7276  -14.6419 N   0  0  0  0  0  0  0  0  0  0  0  0
   22.3312   -4.9402  -13.6102 C   0  0  0  0  0  0  0  0  0  0  0  0
   22.9461   -3.8554  -13.7279 O   0  0  0  0  0  0  0  0  0  0  0  0
   22.5071   -5.6513  -12.4412 O   0  0  0  0  0  0  0  0  0  0  0  0
  2  1  1  1
  2  3  1  0
  4  3  1  0
  5  2  1  0
  5  6  2  0
  7  8  1  0
  8  9  1  0
  9 11  1  0
  9 10  1  6
 11 12  1  6
 11 13  1  0
 12  5  1  0
 13 14  2  0
 16 15  1  1
 17 13  1  0
 17 16  1  0
 18 20  1  0
 18 16  1  0
 19 18  2  0
M  END
$$$$
