CIA.pdb
     RDKit          3D

 20 19  0  0  1  0  0  0  0  0999 V2000
   22.8289  -20.4940  -14.2458 N   0  0  0  0  0  0  0  0  0  0  0  0
   22.1600  -19.9702  -13.0946 C   0  0  1  0  0  0  0  0  0  0  0  0
   20.7445  -19.5908  -13.4627 C   0  0  0  0  0  0  0  0  0  0  0  0
   20.8493  -18.1587  -14.5789 S   0  0  0  0  0  0  0  0  0  0  0  0
   22.1962  -20.9094  -11.9398 C   0  0  0  0  0  0  0  0  0  0  0  0
   22.0619  -22.1343  -12.1855 O   0  0  0  0  0  0  0  0  0  0  0  0
   25.7875  -20.1215   -8.0810 C   0  0  0  0  0  0  0  0  0  0  0  0
   24.8606  -20.7887   -9.1054 C   0  0  0  0  0  0  0  0  0  0  0  0
   23.5024  -20.9089   -8.5181 C   0  0  2  0  0  0  0  0  0  0  0  0
   23.5894  -21.7637   -7.2708 C   0  0  0  0  0  0  0  0  0  0  0  0
   22.4402  -21.3961   -9.4634 C   0  0  2  0  0  0  0  0  0  0  0  0
   22.3736  -20.4717  -10.6023 N   0  0  0  0  0  0  0  0  0  0  0  0
   21.1277  -21.6289   -8.8695 C   0  0  0  0  0  0  0  0  0  0  0  0
   20.3956  -20.6764   -8.5063 O   0  0  0  0  0  0  0  0  0  0  0  0
   18.5893  -24.3873   -8.6331 C   0  0  0  0  0  0  0  0  0  0  0  0
   19.2947  -23.1524   -8.0561 C   0  0  2  0  0  0  0  0  0  0  0  0
   20.5742  -22.9436   -8.6548 N   0  0  0  0  0  0  0  0  0  0  0  0
   19.3446  -23.3414   -6.5936 C   0  0  0  0  0  0  0  0  0  0  0  0
   20.4656  -23.5269   -6.0666 O   0  0  0  0  0  0  0  0  0  0  0  0
   18.2425  -23.3283   -5.7639 O   0  0  0  0  0  0  0  0  0  0  0  0
  2  1  1  6
  2  3  1  0
  4  3  1  0
  5  2  1  0
  5  6  2  0
  7  8  1  0
  8  9  1  0
  9 11  1  0
  9 10  1  1
 11 12  1  6
 11 13  1  0
 12  5  1  0
 13 14  2  0
 16 15  1  6
 17 13  1  0
 17 16  1  0
 18 20  1  0
 18 16  1  0
 19 18  2  0
M  END
$$$$
