CIA.pdb
     RDKit          3D

 20 19  0  0  1  0  0  0  0  0999 V2000
   14.2551   -8.2382   -8.8419 N   0  0  0  0  0  0  0  0  0  0  0  0
   14.9566   -7.1344   -9.4221 C   0  0  1  0  0  0  0  0  0  0  0  0
   15.6757   -6.3672   -8.3370 C   0  0  0  0  0  0  0  0  0  0  0  0
   14.4006   -5.5873   -7.3008 S   0  0  0  0  0  0  0  0  0  0  0  0
   15.8857   -7.5578  -10.5058 C   0  0  0  0  0  0  0  0  0  0  0  0
   16.4049   -8.6981  -10.4106 O   0  0  0  0  0  0  0  0  0  0  0  0
   14.2853   -7.5617  -15.4170 C   0  0  0  0  0  0  0  0  0  0  0  0
   15.0372   -7.9064  -14.1249 C   0  0  0  0  0  0  0  0  0  0  0  0
   16.2237   -7.0217  -14.0086 C   0  0  2  0  0  0  0  0  0  0  0  0
   17.0803   -7.1975  -15.2452 C   0  0  0  0  0  0  0  0  0  0  0  0
   17.0187   -7.1848  -12.7434 C   0  0  2  0  0  0  0  0  0  0  0  0
   16.1944   -6.7308  -11.6161 N   0  0  0  0  0  0  0  0  0  0  0  0
   18.3376   -6.5605  -12.7438 C   0  0  0  0  0  0  0  0  0  0  0  0
   18.4710   -5.3127  -12.7667 O   0  0  0  0  0  0  0  0  0  0  0  0
   21.9891   -7.7096  -12.5908 C   0  0  0  0  0  0  0  0  0  0  0  0
   20.8491   -6.6820  -12.6018 C   0  0  2  0  0  0  0  0  0  0  0  0
   19.5710   -7.3082  -12.7185 N   0  0  0  0  0  0  0  0  0  0  0  0
   21.1493   -5.7323  -13.6904 C   0  0  0  0  0  0  0  0  0  0  0  0
   20.7432   -6.0155  -14.8409 O   0  0  0  0  0  0  0  0  0  0  0  0
   21.8466   -4.5527  -13.5309 O   0  0  0  0  0  0  0  0  0  0  0  0
  2  1  1  1
  2  3  1  0
  4  3  1  0
  5  2  1  0
  5  6  2  0
  7  8  1  0
  8  9  1  0
  9 11  1  0
  9 10  1  6
 11 12  1  1
 11 13  1  0
 12  5  1  0
 13 14  2  0
 16 15  1  6
 17 13  1  0
 17 16  1  0
 18 20  1  0
 18 16  1  0
 19 18  2  0
M  END
$$$$
