CIA.pdb
     RDKit          3D

 20 19  0  0  1  0  0  0  0  0999 V2000
   23.0316  -12.8267  -20.1318 N   0  0  0  0  0  0  0  0  0  0  0  0
   21.9276  -12.9961  -19.2377 C   0  0  1  0  0  0  0  0  0  0  0  0
   21.7669  -14.4617  -18.9067 C   0  0  0  0  0  0  0  0  0  0  0  0
   22.1714  -15.3963  -20.4136 S   0  0  0  0  0  0  0  0  0  0  0  0
   22.0582  -12.1649  -18.0094 C   0  0  0  0  0  0  0  0  0  0  0  0
   21.1743  -12.2947  -17.1259 O   0  0  0  0  0  0  0  0  0  0  0  0
   26.8190  -11.5236  -15.6698 C   0  0  0  0  0  0  0  0  0  0  0  0
   25.3342  -11.7217  -16.0010 C   0  0  0  0  0  0  0  0  0  0  0  0
   24.7064  -10.3924  -16.2087 C   0  0  2  0  0  0  0  0  0  0  0  0
   24.9379   -9.5504  -14.9712 C   0  0  0  0  0  0  0  0  0  0  0  0
   23.2570  -10.4271  -16.6049 C   0  0  2  0  0  0  0  0  0  0  0  0
   23.1260  -11.2523  -17.8125 N   0  0  0  0  0  0  0  0  0  0  0  0
   22.6151   -9.1256  -16.7587 C   0  0  0  0  0  0  0  0  0  0  0  0
   23.0289   -8.2868  -17.5955 O   0  0  0  0  0  0  0  0  0  0  0  0
   19.4334   -7.4601  -16.5289 C   0  0  0  0  0  0  0  0  0  0  0  0
   20.9045   -7.4006  -16.0953 C   0  0  2  0  0  0  0  0  0  0  0  0
   21.4770   -8.7036  -15.9793 N   0  0  0  0  0  0  0  0  0  0  0  0
   20.9430   -6.6190  -14.8444 C   0  0  0  0  0  0  0  0  0  0  0  0
   21.1923   -7.2313  -13.7806 O   0  0  0  0  0  0  0  0  0  0  0  0
   20.7237   -5.2594  -14.7630 O   0  0  0  0  0  0  0  0  0  0  0  0
  2  1  1  6
  2  3  1  0
  4  3  1  0
  5  2  1  0
  5  6  2  0
  7  8  1  0
  8  9  1  0
  9 11  1  0
  9 10  1  1
 11 12  1  6
 11 13  1  0
 12  5  1  0
 13 14  2  0
 16 15  1  1
 17 13  1  0
 17 16  1  0
 18 20  1  0
 18 16  1  0
 19 18  2  0
M  END
$$$$
