CIA.pdb
     RDKit          3D

 20 19  0  0  1  0  0  0  0  0999 V2000
   16.5591  -13.9846  -15.5508 N   0  0  0  0  0  0  0  0  0  0  0  0
   17.0466  -12.7605  -14.9930 C   0  0  1  0  0  0  0  0  0  0  0  0
   18.1885  -12.2417  -15.8357 C   0  0  0  0  0  0  0  0  0  0  0  0
   19.6392  -13.2728  -15.4611 S   0  0  0  0  0  0  0  0  0  0  0  0
   15.9729  -11.7416  -14.8325 C   0  0  0  0  0  0  0  0  0  0  0  0
   15.1264  -11.6423  -15.7557 O   0  0  0  0  0  0  0  0  0  0  0  0
   12.5695  -11.8969  -11.1164 C   0  0  0  0  0  0  0  0  0  0  0  0
   13.2767  -11.5942  -12.4438 C   0  0  0  0  0  0  0  0  0  0  0  0
   13.9918  -10.2987  -12.3229 C   0  0  2  0  0  0  0  0  0  0  0  0
   12.9899   -9.2274  -11.9454 C   0  0  0  0  0  0  0  0  0  0  0  0
   14.8107   -9.9087  -13.5214 C   0  0  2  0  0  0  0  0  0  0  0  0
   15.8802  -10.8998  -13.6947 N   0  0  0  0  0  0  0  0  0  0  0  0
   15.3253   -8.5431  -13.5148 C   0  0  0  0  0  0  0  0  0  0  0  0
   16.1222   -8.1484  -12.6292 O   0  0  0  0  0  0  0  0  0  0  0  0
   15.1549   -5.4789  -15.7998 C   0  0  0  0  0  0  0  0  0  0  0  0
   15.5533   -6.2520  -14.5353 C   0  0  2  0  0  0  0  0  0  0  0  0
   14.9692   -7.5547  -14.5033 N   0  0  0  0  0  0  0  0  0  0  0  0
   15.1797   -5.4029  -13.3878 C   0  0  0  0  0  0  0  0  0  0  0  0
   14.0578   -5.5902  -12.8636 O   0  0  0  0  0  0  0  0  0  0  0  0
   15.9797   -4.4157  -12.8505 O   0  0  0  0  0  0  0  0  0  0  0  0
  2  1  1  6
  2  3  1  0
  4  3  1  0
  5  2  1  0
  5  6  2  0
  7  8  1  0
  8  9  1  0
  9 11  1  0
  9 10  1  6
 11 12  1  1
 11 13  1  0
 12  5  1  0
 13 14  2  0
 16 15  1  6
 17 13  1  0
 17 16  1  0
 18 20  1  0
 18 16  1  0
 19 18  2  0
M  END
$$$$
