CIA.pdb
     RDKit          3D

 20 19  0  0  1  0  0  0  0  0999 V2000
   16.7958  -11.7508  -16.2959 N   0  0  0  0  0  0  0  0  0  0  0  0
   17.5155  -10.6174  -16.7905 C   0  0  1  0  0  0  0  0  0  0  0  0
   16.5405   -9.5273  -17.1701 C   0  0  0  0  0  0  0  0  0  0  0  0
   15.7356  -10.0463  -18.7163 S   0  0  0  0  0  0  0  0  0  0  0  0
   18.5396  -10.1294  -15.8263 C   0  0  0  0  0  0  0  0  0  0  0  0
   18.2070  -10.0546  -14.6170 O   0  0  0  0  0  0  0  0  0  0  0  0
   22.1615  -12.3286  -16.4966 C   0  0  0  0  0  0  0  0  0  0  0  0
   21.9860  -11.5421  -15.1911 C   0  0  0  0  0  0  0  0  0  0  0  0
   22.1172  -10.0922  -15.4821 C   0  0  2  0  0  0  0  0  0  0  0  0
   23.2853   -9.5442  -14.6889 C   0  0  0  0  0  0  0  0  0  0  0  0
   20.8662   -9.2850  -15.2753 C   0  0  2  0  0  0  0  0  0  0  0  0
   19.8488   -9.7554  -16.2240 N   0  0  0  0  0  0  0  0  0  0  0  0
   21.0358   -7.8366  -15.3277 C   0  0  0  0  0  0  0  0  0  0  0  0
   21.5208   -7.2706  -16.3375 O   0  0  0  0  0  0  0  0  0  0  0  0
   19.7158   -4.7589  -13.7007 C   0  0  0  0  0  0  0  0  0  0  0  0
   20.8930   -5.5442  -14.2947 C   0  0  2  0  0  0  0  0  0  0  0  0
   20.6687   -6.9537  -14.2476 N   0  0  0  0  0  0  0  0  0  0  0  0
   22.0999   -5.1079  -13.5667 C   0  0  0  0  0  0  0  0  0  0  0  0
   22.4560   -5.7794  -12.5711 O   0  0  0  0  0  0  0  0  0  0  0  0
   22.8654   -4.0112  -13.9050 O   0  0  0  0  0  0  0  0  0  0  0  0
  2  1  1  1
  2  3  1  0
  4  3  1  0
  5  2  1  0
  5  6  2  0
  7  8  1  0
  8  9  1  0
  9 11  1  0
  9 10  1  1
 11 12  1  6
 11 13  1  0
 12  5  1  0
 13 14  2  0
 16 15  1  1
 17 13  1  0
 17 16  1  0
 18 20  1  0
 18 16  1  0
 19 18  2  0
M  END
$$$$
