CIA.pdb
     RDKit          3D

 20 19  0  0  1  0  0  0  0  0999 V2000
   27.7839  -23.1361  -15.8869 N   0  0  0  0  0  0  0  0  0  0  0  0
   27.2520  -21.8703  -15.4847 C   0  0  1  0  0  0  0  0  0  0  0  0
   26.9100  -21.0546  -16.7098 C   0  0  0  0  0  0  0  0  0  0  0  0
   28.4740  -20.6976  -17.5665 S   0  0  0  0  0  0  0  0  0  0  0  0
   26.0845  -22.0087  -14.5712 C   0  0  0  0  0  0  0  0  0  0  0  0
   25.3736  -23.0376  -14.6922 O   0  0  0  0  0  0  0  0  0  0  0  0
   26.5077  -20.5375   -9.4160 C   0  0  0  0  0  0  0  0  0  0  0  0
   26.1368  -21.3008  -10.6941 C   0  0  0  0  0  0  0  0  0  0  0  0
   24.9904  -20.6188  -11.3457 C   0  0  2  0  0  0  0  0  0  0  0  0
   23.8227  -20.6088  -10.3812 C   0  0  0  0  0  0  0  0  0  0  0  0
   24.6057  -21.1648  -12.6922 C   0  0  2  0  0  0  0  0  0  0  0  0
   25.7592  -21.0357  -13.5917 N   0  0  0  0  0  0  0  0  0  0  0  0
   23.3911  -20.6042  -13.2752 C   0  0  0  0  0  0  0  0  0  0  0  0
   23.2956  -19.3805  -13.5374 O   0  0  0  0  0  0  0  0  0  0  0  0
   20.3308  -21.7449  -15.1128 C   0  0  0  0  0  0  0  0  0  0  0  0
   21.0232  -20.8161  -14.1060 C   0  0  2  0  0  0  0  0  0  0  0  0
   22.2247  -21.3916  -13.5920 N   0  0  0  0  0  0  0  0  0  0  0  0
   20.0226  -20.4992  -13.0689 C   0  0  0  0  0  0  0  0  0  0  0  0
   20.1162  -21.0886  -11.9677 O   0  0  0  0  0  0  0  0  0  0  0  0
   18.9897  -19.5983  -13.2261 O   0  0  0  0  0  0  0  0  0  0  0  0
  2  1  1  6
  2  3  1  0
  4  3  1  0
  5  2  1  0
  5  6  2  0
  7  8  1  0
  8  9  1  0
  9 11  1  0
  9 10  1  1
 11 12  1  6
 11 13  1  0
 12  5  1  0
 13 14  2  0
 16 15  1  6
 17 13  1  0
 17 16  1  0
 18 20  1  0
 18 16  1  0
 19 18  2  0
M  END
$$$$
