CIA.pdb
     RDKit          3D

 20 19  0  0  1  0  0  0  0  0999 V2000
   17.4596  -12.6375  -16.3113 N   0  0  0  0  0  0  0  0  0  0  0  0
   18.0827  -11.5318  -16.9716 C   0  0  1  0  0  0  0  0  0  0  0  0
   17.0664  -10.8225  -17.8360 C   0  0  0  0  0  0  0  0  0  0  0  0
   16.6147  -11.9665  -19.1759 S   0  0  0  0  0  0  0  0  0  0  0  0
   18.7420  -10.5981  -16.0175 C   0  0  0  0  0  0  0  0  0  0  0  0
   18.1827  -10.4143  -14.9075 O   0  0  0  0  0  0  0  0  0  0  0  0
   23.7405  -11.0050  -14.6184 C   0  0  0  0  0  0  0  0  0  0  0  0
   22.2409  -10.6820  -14.5891 C   0  0  0  0  0  0  0  0  0  0  0  0
   22.0225   -9.3558  -15.2196 C   0  0  2  0  0  0  0  0  0  0  0  0
   22.7989   -8.3160  -14.4385 C   0  0  0  0  0  0  0  0  0  0  0  0
   20.5823   -8.9661  -15.4014 C   0  0  2  0  0  0  0  0  0  0  0  0
   19.9544   -9.9260  -16.3182 N   0  0  0  0  0  0  0  0  0  0  0  0
   20.3509   -7.5850  -15.8119 C   0  0  0  0  0  0  0  0  0  0  0  0
   20.4423   -7.2355  -17.0138 O   0  0  0  0  0  0  0  0  0  0  0  0
   20.6553   -4.7151  -16.4113 C   0  0  0  0  0  0  0  0  0  0  0  0
   19.6919   -5.2043  -15.3214 C   0  0  2  0  0  0  0  0  0  0  0  0
   20.0054   -6.5294  -14.8913 N   0  0  0  0  0  0  0  0  0  0  0  0
   18.3294   -5.0622  -15.8696 C   0  0  0  0  0  0  0  0  0  0  0  0
   17.6203   -6.0919  -15.9459 O   0  0  0  0  0  0  0  0  0  0  0  0
   17.7800   -3.8740  -16.3049 O   0  0  0  0  0  0  0  0  0  0  0  0
  2  1  1  1
  2  3  1  0
  4  3  1  0
  5  2  1  0
  5  6  2  0
  7  8  1  0
  8  9  1  0
  9 11  1  0
  9 10  1  1
 11 12  1  6
 11 13  1  0
 12  5  1  0
 13 14  2  0
 16 15  1  6
 17 13  1  0
 17 16  1  0
 18 20  1  0
 18 16  1  0
 19 18  2  0
M  END
$$$$
