CIA.pdb
     RDKit          3D

 20 19  0  0  1  0  0  0  0  0999 V2000
   27.5064  -10.6779  -17.8281 N   0  0  0  0  0  0  0  0  0  0  0  0
   26.8800   -9.4533  -17.4344 C   0  0  1  0  0  0  0  0  0  0  0  0
   27.2691   -8.3554  -18.3968 C   0  0  0  0  0  0  0  0  0  0  0  0
   29.0198   -7.9713  -18.0881 S   0  0  0  0  0  0  0  0  0  0  0  0
   25.4015   -9.5837  -17.3157 C   0  0  0  0  0  0  0  0  0  0  0  0
   24.8208  -10.3472  -18.1272 O   0  0  0  0  0  0  0  0  0  0  0  0
   22.7467  -11.7382  -13.6862 C   0  0  0  0  0  0  0  0  0  0  0  0
   23.1251  -11.1333  -15.0444 C   0  0  0  0  0  0  0  0  0  0  0  0
   22.7805   -9.6892  -15.0402 C   0  0  2  0  0  0  0  0  0  0  0  0
   21.3029   -9.5461  -14.7404 C   0  0  0  0  0  0  0  0  0  0  0  0
   23.1813   -8.9349  -16.2770 C   0  0  2  0  0  0  0  0  0  0  0  0
   24.6477   -8.8875  -16.3364 N   0  0  0  0  0  0  0  0  0  0  0  0
   22.5839   -7.6121  -16.4288 C   0  0  0  0  0  0  0  0  0  0  0  0
   22.7368   -6.7213  -15.5581 O   0  0  0  0  0  0  0  0  0  0  0  0
   20.4809   -5.7557  -19.0362 C   0  0  0  0  0  0  0  0  0  0  0  0
   21.1861   -5.9357  -17.6850 C   0  0  2  0  0  0  0  0  0  0  0  0
   21.7856   -7.2263  -17.5667 N   0  0  0  0  0  0  0  0  0  0  0  0
   20.1809   -5.6476  -16.6440 C   0  0  0  0  0  0  0  0  0  0  0  0
   19.4338   -6.5842  -16.2786 O   0  0  0  0  0  0  0  0  0  0  0  0
   20.0050   -4.4181  -16.0436 O   0  0  0  0  0  0  0  0  0  0  0  0
  2  1  1  6
  2  3  1  0
  4  3  1  0
  5  2  1  0
  5  6  2  0
  7  8  1  0
  8  9  1  0
  9 11  1  0
  9 10  1  6
 11 12  1  1
 11 13  1  0
 12  5  1  0
 13 14  2  0
 16 15  1  6
 17 13  1  0
 17 16  1  0
 18 20  1  0
 18 16  1  0
 19 18  2  0
M  END
$$$$
