CIA.pdb
     RDKit          3D

 20 19  0  0  1  0  0  0  0  0999 V2000
   15.1693  -11.9095  -14.0479 N   0  0  0  0  0  0  0  0  0  0  0  0
   15.5527  -10.7069  -13.3741 C   0  0  1  0  0  0  0  0  0  0  0  0
   16.5173   -9.9296  -14.2393 C   0  0  0  0  0  0  0  0  0  0  0  0
   18.0484  -10.9060  -14.3408 S   0  0  0  0  0  0  0  0  0  0  0  0
   14.3803   -9.8800  -12.9760 C   0  0  0  0  0  0  0  0  0  0  0  0
   13.3326   -9.9937  -13.6601 O   0  0  0  0  0  0  0  0  0  0  0  0
   11.7915  -10.0888   -8.4632 C   0  0  0  0  0  0  0  0  0  0  0  0
   12.0947   -9.8292   -9.9446 C   0  0  0  0  0  0  0  0  0  0  0  0
   12.8758   -8.5721  -10.0623 C   0  0  2  0  0  0  0  0  0  0  0  0
   12.1235   -7.4676   -9.3496 C   0  0  0  0  0  0  0  0  0  0  0  0
   13.2522   -8.1848  -11.4650 C   0  0  2  0  0  0  0  0  0  0  0  0
   14.4112   -8.9888  -11.8729 N   0  0  0  0  0  0  0  0  0  0  0  0
   13.4691   -6.7590  -11.6876 C   0  0  0  0  0  0  0  0  0  0  0  0
   12.5231   -5.9362  -11.6290 O   0  0  0  0  0  0  0  0  0  0  0  0
   15.0260   -3.9076  -11.1203 C   0  0  0  0  0  0  0  0  0  0  0  0
   14.9304   -4.8185  -12.3518 C   0  0  2  0  0  0  0  0  0  0  0  0
   14.7597   -6.1885  -11.9869 N   0  0  0  0  0  0  0  0  0  0  0  0
   16.1388   -4.5627  -13.1590 C   0  0  0  0  0  0  0  0  0  0  0  0
   16.3517   -3.3871  -13.5351 O   0  0  0  0  0  0  0  0  0  0  0  0
   17.0521   -5.5279  -13.5297 O   0  0  0  0  0  0  0  0  0  0  0  0
  2  1  1  6
  2  3  1  0
  4  3  1  0
  5  2  1  0
  5  6  2  0
  7  8  1  0
  8  9  1  0
  9 11  1  0
  9 10  1  6
 11 12  1  1
 11 13  1  0
 12  5  1  0
 13 14  2  0
 16 15  1  1
 17 13  1  0
 17 16  1  0
 18 20  1  0
 18 16  1  0
 19 18  2  0
M  END
$$$$
