CIA.pdb
     RDKit          3D

 20 19  0  0  1  0  0  0  0  0999 V2000
   16.5808  -11.2507  -12.9637 N   0  0  0  0  0  0  0  0  0  0  0  0
   17.1384  -10.1908  -12.1810 C   0  0  1  0  0  0  0  0  0  0  0  0
   18.2153   -9.4895  -12.9757 C   0  0  0  0  0  0  0  0  0  0  0  0
   19.6435  -10.6134  -13.0462 S   0  0  0  0  0  0  0  0  0  0  0  0
   16.1029   -9.2375  -11.6953 C   0  0  0  0  0  0  0  0  0  0  0  0
   15.2626   -8.8203  -12.5311 O   0  0  0  0  0  0  0  0  0  0  0  0
   12.4477  -10.1640   -8.4406 C   0  0  0  0  0  0  0  0  0  0  0  0
   13.2760   -9.4993   -9.5478 C   0  0  0  0  0  0  0  0  0  0  0  0
   14.1134   -8.4311   -8.9460 C   0  0  2  0  0  0  0  0  0  0  0  0
   13.2024   -7.4210   -8.2799 C   0  0  0  0  0  0  0  0  0  0  0  0
   15.0872   -7.7789   -9.8869 C   0  0  2  0  0  0  0  0  0  0  0  0
   16.0391   -8.7973  -10.3484 N   0  0  0  0  0  0  0  0  0  0  0  0
   15.7620   -6.5921   -9.3713 C   0  0  0  0  0  0  0  0  0  0  0  0
   16.5886   -6.6665   -8.4299 O   0  0  0  0  0  0  0  0  0  0  0  0
   16.8393   -3.2638  -10.4695 C   0  0  0  0  0  0  0  0  0  0  0  0
   16.1998   -4.1121   -9.3617 C   0  0  2  0  0  0  0  0  0  0  0  0
   15.5406   -5.2639   -9.8888 N   0  0  0  0  0  0  0  0  0  0  0  0
   15.3110   -3.2118   -8.6024 C   0  0  0  0  0  0  0  0  0  0  0  0
   14.0753   -3.3406   -8.7613 O   0  0  0  0  0  0  0  0  0  0  0  0
   15.7449   -2.2364   -7.7285 O   0  0  0  0  0  0  0  0  0  0  0  0
  2  1  1  6
  2  3  1  0
  4  3  1  0
  5  2  1  0
  5  6  2  0
  7  8  1  0
  8  9  1  0
  9 11  1  0
  9 10  1  6
 11 12  1  1
 11 13  1  0
 12  5  1  0
 13 14  2  0
 16 15  1  6
 17 13  1  0
 17 16  1  0
 18 20  1  0
 18 16  1  0
 19 18  2  0
M  END
$$$$
