CIA.pdb
     RDKit          3D

 20 19  0  0  1  0  0  0  0  0999 V2000
   27.9983  -11.0044  -18.0868 N   0  0  0  0  0  0  0  0  0  0  0  0
   27.3661   -9.8918  -17.4468 C   0  0  1  0  0  0  0  0  0  0  0  0
   27.8120   -8.6089  -18.1091 C   0  0  0  0  0  0  0  0  0  0  0  0
   29.5396   -8.3264  -17.6155 S   0  0  0  0  0  0  0  0  0  0  0  0
   25.8825  -10.0150  -17.4273 C   0  0  0  0  0  0  0  0  0  0  0  0
   25.3216  -10.4226  -18.4751 O   0  0  0  0  0  0  0  0  0  0  0  0
   23.3731  -13.1646  -14.4063 C   0  0  0  0  0  0  0  0  0  0  0  0
   23.7854  -12.2232  -15.5454 C   0  0  0  0  0  0  0  0  0  0  0  0
   23.2638  -10.8633  -15.2578 C   0  0  2  0  0  0  0  0  0  0  0  0
   21.7649  -10.9527  -15.0604 C   0  0  0  0  0  0  0  0  0  0  0  0
   23.6390   -9.8110  -16.2633 C   0  0  2  0  0  0  0  0  0  0  0  0
   25.1025   -9.6932  -16.2871 N   0  0  0  0  0  0  0  0  0  0  0  0
   22.9880   -8.5162  -16.0922 C   0  0  0  0  0  0  0  0  0  0  0  0
   23.1222   -7.8508  -15.0366 O   0  0  0  0  0  0  0  0  0  0  0  0
   20.8546   -6.1422  -18.2049 C   0  0  0  0  0  0  0  0  0  0  0  0
   21.5411   -6.6292  -16.9215 C   0  0  2  0  0  0  0  0  0  0  0  0
   22.1545   -7.9064  -17.0993 N   0  0  0  0  0  0  0  0  0  0  0  0
   20.5164   -6.6025  -15.8601 C   0  0  0  0  0  0  0  0  0  0  0  0
   19.8261   -7.6334  -15.6888 O   0  0  0  0  0  0  0  0  0  0  0  0
   20.2642   -5.5209  -15.0416 O   0  0  0  0  0  0  0  0  0  0  0  0
  2  1  1  6
  2  3  1  0
  4  3  1  0
  5  2  1  0
  5  6  2  0
  7  8  1  0
  8  9  1  0
  9 11  1  0
  9 10  1  6
 11 12  1  1
 11 13  1  0
 12  5  1  0
 13 14  2  0
 16 15  1  6
 17 13  1  0
 17 16  1  0
 18 20  1  0
 18 16  1  0
 19 18  2  0
M  END
$$$$
