CIA.pdb
     RDKit          3D

 20 19  0  0  1  0  0  0  0  0999 V2000
   15.8731  -11.4714  -14.5023 N   0  0  0  0  0  0  0  0  0  0  0  0
   16.4764  -10.6765  -13.4769 C   0  0  1  0  0  0  0  0  0  0  0  0
   17.7098   -9.9974  -14.0253 C   0  0  0  0  0  0  0  0  0  0  0  0
   18.9535  -11.2947  -14.3042 S   0  0  0  0  0  0  0  0  0  0  0  0
   15.5253   -9.6965  -12.8839 C   0  0  0  0  0  0  0  0  0  0  0  0
   14.7640   -9.0799  -13.6706 O   0  0  0  0  0  0  0  0  0  0  0  0
   11.4935   -9.6045   -8.6913 C   0  0  0  0  0  0  0  0  0  0  0  0
   12.4227   -8.6145   -9.4056 C   0  0  0  0  0  0  0  0  0  0  0  0
   13.5396   -9.3680  -10.0293 C   0  0  2  0  0  0  0  0  0  0  0  0
   14.2893  -10.1088   -8.9416 C   0  0  0  0  0  0  0  0  0  0  0  0
   14.4589   -8.5481  -10.8906 C   0  0  2  0  0  0  0  0  0  0  0  0
   15.4555   -9.4447  -11.4897 N   0  0  0  0  0  0  0  0  0  0  0  0
   15.0782   -7.4005  -10.2355 C   0  0  0  0  0  0  0  0  0  0  0  0
   16.2499   -7.4557   -9.7889 O   0  0  0  0  0  0  0  0  0  0  0  0
   15.7714   -5.4022   -8.1435 C   0  0  0  0  0  0  0  0  0  0  0  0
   15.0454   -5.0119   -9.4382 C   0  0  2  0  0  0  0  0  0  0  0  0
   14.4108   -6.1351  -10.0504 N   0  0  0  0  0  0  0  0  0  0  0  0
   16.0453   -4.3502  -10.2982 C   0  0  0  0  0  0  0  0  0  0  0  0
   16.9286   -5.0660  -10.8238 O   0  0  0  0  0  0  0  0  0  0  0  0
   16.0766   -2.9970  -10.5648 O   0  0  0  0  0  0  0  0  0  0  0  0
  2  1  1  6
  2  3  1  0
  4  3  1  0
  5  2  1  0
  5  6  2  0
  7  8  1  0
  8  9  1  0
  9 11  1  0
  9 10  1  1
 11 12  1  1
 11 13  1  0
 12  5  1  0
 13 14  2  0
 16 15  1  1
 17 13  1  0
 17 16  1  0
 18 20  1  0
 18 16  1  0
 19 18  2  0
M  END
$$$$
