DHR.pdb
     RDKit          3D

 30 30  0  0  1  0  0  0  0  0999 V2000
   27.2573  -16.8964  -20.1112 N   0  0  0  0  0  0  0  0  0  0  0  0
   26.3293  -16.0737  -20.8571 C   0  0  1  0  0  0  0  0  0  0  0  0
   25.3807  -17.0115  -21.5823 C   0  0  0  0  0  0  0  0  0  0  0  0
   25.9131  -17.3881  -22.9173 C   0  0  0  0  0  0  0  0  0  0  0  0
   27.0414  -16.9360  -23.2279 O   0  0  0  0  0  0  0  0  0  0  0  0
   25.5314  -15.2413  -19.9523 C   0  0  0  0  0  0  0  0  0  0  0  0
   24.9320  -15.8225  -18.9842 O   0  0  0  0  0  0  0  0  0  0  0  0
   25.2480  -18.1877  -23.8083 O   0  0  0  0  0  0  0  0  0  0  0  0
   25.3910  -13.8300  -20.0952 N   0  0  0  0  0  0  0  0  0  0  0  0
   24.5898  -13.1035  -19.1704 C   0  0  1  0  0  0  0  0  0  0  0  0
   25.3639  -12.0523  -18.4057 C   0  0  0  0  0  0  0  0  0  0  0  0
   26.3012  -12.6453  -17.4344 C   0  0  0  0  0  0  0  0  0  0  0  0
   26.5167  -13.9649  -17.1003 C   0  0  0  0  0  0  0  0  0  0  0  0
   27.4888  -14.0311  -16.1444 N   0  0  0  0  0  0  0  0  0  0  0  0
   27.8698  -12.7826  -15.8890 C   0  0  0  0  0  0  0  0  0  0  0  0
   27.1515  -11.9362  -16.6701 N   0  0  0  0  0  0  0  0  0  0  0  0
   23.4368  -12.4168  -19.8059 C   0  0  0  0  0  0  0  0  0  0  0  0
   23.6145  -11.8446  -20.9157 O   0  0  0  0  0  0  0  0  0  0  0  0
   14.6143  -12.4136  -17.9231 N   0  0  0  0  0  0  0  0  0  0  0  0
   14.7471  -11.7734  -19.1878 C   0  0  0  0  0  0  0  0  0  0  0  0
   13.7066  -11.3659  -19.8209 N   0  0  0  0  0  0  0  0  0  0  0  0
   16.0214  -11.5711  -19.7757 N   0  0  0  0  0  0  0  0  0  0  0  0
   17.2055  -12.0592  -19.0746 C   0  0  0  0  0  0  0  0  0  0  0  0
   18.4643  -11.6881  -19.7641 C   0  0  0  0  0  0  0  0  0  0  0  0
   19.7732  -12.1211  -19.2814 C   0  0  0  0  0  0  0  0  0  0  0  0
   20.9969  -11.7154  -19.9917 C   0  0  2  0  0  0  0  0  0  0  0  0
   22.1553  -12.3665  -19.2423 N   0  0  0  0  0  0  0  0  0  0  0  0
   21.3420  -10.2988  -20.0397 C   0  0  0  0  0  0  0  0  0  0  0  0
   21.1952   -9.5139  -20.9906 O   0  0  0  0  0  0  0  0  0  0  0  0
   21.9145   -9.7084  -18.8844 O   0  0  0  0  0  0  0  0  0  0  0  0
  2  1  1  1
  2  3  1  0
  4  3  1  0
  4  5  2  0
  6  2  1  0
  6  7  2  0
  8  4  1  0
  9  6  1  0
 10  9  1  0
 11 12  1  0
 10 11  1  6
 12 13  2  0
 12 16  1  0
 13 14  1  0
 14 15  1  0
 16 15  2  0
 17 10  1  0
 18 17  2  0
 19 20  1  0
 20 21  2  0
 22 20  1  0
 23 22  1  0
 24 23  1  0
 25 24  1  0
 26 25  1  1
 26 27  1  0
 27 17  1  0
 28 26  1  0
 29 28  2  0
 30 28  1  0
M  END
$$$$
