DHR.pdb
     RDKit          3D

 30 30  0  0  1  0  0  0  0  0999 V2000
   20.3778  -14.7232  -16.3987 N   0  0  0  0  0  0  0  0  0  0  0  0
   19.6336  -13.5592  -16.8298 C   0  0  1  0  0  0  0  0  0  0  0  0
   18.2198  -13.7075  -16.2968 C   0  0  0  0  0  0  0  0  0  0  0  0
   17.4339  -14.6657  -17.1164 C   0  0  0  0  0  0  0  0  0  0  0  0
   17.9659  -15.0786  -18.1748 O   0  0  0  0  0  0  0  0  0  0  0  0
   20.2033  -12.3374  -16.2546 C   0  0  0  0  0  0  0  0  0  0  0  0
   20.2400  -12.2421  -14.9803 O   0  0  0  0  0  0  0  0  0  0  0  0
   16.1832  -15.1122  -16.7817 O   0  0  0  0  0  0  0  0  0  0  0  0
   20.7137  -11.2601  -17.0361 N   0  0  0  0  0  0  0  0  0  0  0  0
   21.3088  -10.1403  -16.3906 C   0  0  1  0  0  0  0  0  0  0  0  0
   22.7940  -10.0190  -16.6519 C   0  0  0  0  0  0  0  0  0  0  0  0
   23.5619  -11.1116  -16.0274 C   0  0  0  0  0  0  0  0  0  0  0  0
   24.1570  -11.1822  -14.7863 C   0  0  0  0  0  0  0  0  0  0  0  0
   24.7593  -12.3992  -14.6476 N   0  0  0  0  0  0  0  0  0  0  0  0
   24.5446  -13.0709  -15.7754 C   0  0  0  0  0  0  0  0  0  0  0  0
   23.8174  -12.2933  -16.6176 N   0  0  0  0  0  0  0  0  0  0  0  0
   20.6931   -8.8452  -16.7763 C   0  0  0  0  0  0  0  0  0  0  0  0
   20.4796   -8.6211  -17.9990 O   0  0  0  0  0  0  0  0  0  0  0  0
   13.8435   -6.4140  -17.6492 N   0  0  0  0  0  0  0  0  0  0  0  0
   14.2645   -7.2013  -16.5403 C   0  0  0  0  0  0  0  0  0  0  0  0
   13.5928   -8.2379  -16.1885 N   0  0  0  0  0  0  0  0  0  0  0  0
   15.4269   -6.8635  -15.8019 N   0  0  0  0  0  0  0  0  0  0  0  0
   15.9626   -5.5098  -15.9129 C   0  0  0  0  0  0  0  0  0  0  0  0
   17.3974   -5.4979  -16.2849 C   0  0  0  0  0  0  0  0  0  0  0  0
   18.3133   -6.5649  -15.8892 C   0  0  0  0  0  0  0  0  0  0  0  0
   19.7181   -6.5371  -16.3278 C   0  0  2  0  0  0  0  0  0  0  0  0
   20.3331   -7.8514  -15.8571 N   0  0  0  0  0  0  0  0  0  0  0  0
   20.5997   -5.5068  -15.7897 C   0  0  0  0  0  0  0  0  0  0  0  0
   21.2714   -5.5520  -14.7463 O   0  0  0  0  0  0  0  0  0  0  0  0
   20.7346   -4.2948  -16.5135 O   0  0  0  0  0  0  0  0  0  0  0  0
  2  1  1  1
  2  3  1  0
  4  3  1  0
  4  5  2  0
  6  2  1  0
  6  7  2  0
  8  4  1  0
  9  6  1  0
 10  9  1  0
 11 12  1  0
 10 11  1  6
 12 13  2  0
 12 16  1  0
 13 14  1  0
 14 15  1  0
 16 15  2  0
 17 10  1  0
 18 17  2  0
 19 20  1  0
 20 21  2  0
 22 20  1  0
 23 22  1  0
 24 23  1  0
 25 24  1  0
 26 25  1  1
 26 27  1  0
 27 17  1  0
 28 26  1  0
 29 28  2  0
 30 28  1  0
M  END
$$$$
