DHR.pdb
     RDKit          3D

 30 30  0  0  1  0  0  0  0  0999 V2000
   28.2351  -20.3118  -16.4796 N   0  0  0  0  0  0  0  0  0  0  0  0
   27.7622  -19.4180  -15.4443 C   0  0  1  0  0  0  0  0  0  0  0  0
   26.8584  -18.3966  -16.1115 C   0  0  0  0  0  0  0  0  0  0  0  0
   27.6490  -17.3951  -16.8728 C   0  0  0  0  0  0  0  0  0  0  0  0
   28.6897  -16.9571  -16.3259 O   0  0  0  0  0  0  0  0  0  0  0  0
   26.9617  -20.1466  -14.4562 C   0  0  0  0  0  0  0  0  0  0  0  0
   26.1921  -21.0740  -14.8828 O   0  0  0  0  0  0  0  0  0  0  0  0
   27.3062  -16.9350  -18.1163 O   0  0  0  0  0  0  0  0  0  0  0  0
   26.9970  -19.8766  -13.0571 N   0  0  0  0  0  0  0  0  0  0  0  0
   26.2538  -20.6954  -12.1615 C   0  0  1  0  0  0  0  0  0  0  0  0
   26.6893  -20.5529  -10.7197 C   0  0  0  0  0  0  0  0  0  0  0  0
   28.1058  -20.9130  -10.5261 C   0  0  0  0  0  0  0  0  0  0  0  0
   29.0406  -21.3597  -11.4348 C   0  0  0  0  0  0  0  0  0  0  0  0
   30.2272  -21.5643  -10.7918 N   0  0  0  0  0  0  0  0  0  0  0  0
   30.0362  -21.2525   -9.5130 C   0  0  0  0  0  0  0  0  0  0  0  0
   28.7487  -20.8560   -9.3456 N   0  0  0  0  0  0  0  0  0  0  0  0
   24.7928  -20.4327  -12.2015 C   0  0  0  0  0  0  0  0  0  0  0  0
   24.3973  -19.2352  -12.2221 O   0  0  0  0  0  0  0  0  0  0  0  0
   18.3629  -25.2360  -16.0087 N   0  0  0  0  0  0  0  0  0  0  0  0
   17.7087  -24.0651  -15.5312 C   0  0  0  0  0  0  0  0  0  0  0  0
   16.4637  -23.8709  -15.7794 N   0  0  0  0  0  0  0  0  0  0  0  0
   18.4096  -23.0916  -14.7755 N   0  0  0  0  0  0  0  0  0  0  0  0
   19.8356  -23.2851  -14.5282 C   0  0  0  0  0  0  0  0  0  0  0  0
   20.4085  -22.2267  -13.6627 C   0  0  0  0  0  0  0  0  0  0  0  0
   21.8202  -22.2069  -13.2878 C   0  0  0  0  0  0  0  0  0  0  0  0
   22.3533  -21.1102  -12.4635 C   0  0  2  0  0  0  0  0  0  0  0  0
   23.8218  -21.4422  -12.2178 N   0  0  0  0  0  0  0  0  0  0  0  0
   21.7972  -20.9014  -11.1310 C   0  0  0  0  0  0  0  0  0  0  0  0
   22.2478  -21.3094  -10.0482 O   0  0  0  0  0  0  0  0  0  0  0  0
   20.6016  -20.1478  -11.0137 O   0  0  0  0  0  0  0  0  0  0  0  0
  2  1  1  6
  2  3  1  0
  4  3  1  0
  4  5  2  0
  6  2  1  0
  6  7  2  0
  8  4  1  0
  9  6  1  0
 10  9  1  0
 11 12  1  0
 10 11  1  1
 12 13  2  0
 12 16  1  0
 13 14  1  0
 14 15  1  0
 16 15  2  0
 17 10  1  0
 18 17  2  0
 19 20  1  0
 20 21  2  0
 22 20  1  0
 23 22  1  0
 24 23  1  0
 25 24  1  0
 26 25  1  1
 26 27  1  0
 27 17  1  0
 28 26  1  0
 29 28  2  0
 30 28  1  0
M  END
$$$$
