DHR.pdb
     RDKit          3D

 30 30  0  0  1  0  0  0  0  0999 V2000
   26.3985  -10.4782  -17.9212 N   0  0  0  0  0  0  0  0  0  0  0  0
   25.8019  -10.6419  -16.6129 C   0  0  1  0  0  0  0  0  0  0  0  0
   26.9380  -10.7397  -15.6104 C   0  0  0  0  0  0  0  0  0  0  0  0
   27.8245  -11.8929  -15.9134 C   0  0  0  0  0  0  0  0  0  0  0  0
   27.4546  -12.6704  -16.8258 O   0  0  0  0  0  0  0  0  0  0  0  0
   24.9940   -9.4707  -16.2613 C   0  0  0  0  0  0  0  0  0  0  0  0
   24.4677   -9.4402  -15.0966 O   0  0  0  0  0  0  0  0  0  0  0  0
   29.0016  -12.1450  -15.2603 O   0  0  0  0  0  0  0  0  0  0  0  0
   24.7673   -8.3741  -17.1433 N   0  0  0  0  0  0  0  0  0  0  0  0
   23.9629   -7.2804  -16.7170 C   0  0  1  0  0  0  0  0  0  0  0  0
   23.9424   -6.1331  -17.7031 C   0  0  0  0  0  0  0  0  0  0  0  0
   23.2430   -4.9503  -17.1690 C   0  0  0  0  0  0  0  0  0  0  0  0
   23.7250   -3.8931  -16.4278 C   0  0  0  0  0  0  0  0  0  0  0  0
   22.7014   -3.0305  -16.1608 N   0  0  0  0  0  0  0  0  0  0  0  0
   21.6077   -3.5381  -16.7223 C   0  0  0  0  0  0  0  0  0  0  0  0
   21.9308   -4.7048  -17.3365 N   0  0  0  0  0  0  0  0  0  0  0  0
   22.5498   -7.6566  -16.4594 C   0  0  0  0  0  0  0  0  0  0  0  0
   22.0034   -8.5002  -17.2214 O   0  0  0  0  0  0  0  0  0  0  0  0
   16.8225  -12.7671  -16.5805 N   0  0  0  0  0  0  0  0  0  0  0  0
   16.3652  -12.0497  -15.4390 C   0  0  0  0  0  0  0  0  0  0  0  0
   15.1537  -12.1803  -15.0334 N   0  0  0  0  0  0  0  0  0  0  0  0
   17.2290  -11.1797  -14.7267 N   0  0  0  0  0  0  0  0  0  0  0  0
   18.3730  -10.5981  -15.4233 C   0  0  0  0  0  0  0  0  0  0  0  0
   19.1957   -9.7379  -14.5397 C   0  0  0  0  0  0  0  0  0  0  0  0
   20.3747   -9.0250  -15.0253 C   0  0  0  0  0  0  0  0  0  0  0  0
   20.3361   -7.5648  -15.2062 C   0  0  2  0  0  0  0  0  0  0  0  0
   21.7826   -7.1270  -15.4138 N   0  0  0  0  0  0  0  0  0  0  0  0
   19.8567   -6.7350  -14.1062 C   0  0  0  0  0  0  0  0  0  0  0  0
   20.5230   -5.9826  -13.3770 O   0  0  0  0  0  0  0  0  0  0  0  0
   18.4721   -6.7607  -13.8009 O   0  0  0  0  0  0  0  0  0  0  0  0
  2  1  1  6
  2  3  1  0
  4  3  1  0
  4  5  2  0
  6  2  1  0
  6  7  2  0
  8  4  1  0
  9  6  1  0
 10  9  1  0
 11 12  1  0
 10 11  1  6
 12 13  2  0
 12 16  1  0
 13 14  1  0
 14 15  1  0
 16 15  2  0
 17 10  1  0
 18 17  2  0
 19 20  1  0
 20 21  2  0
 22 20  1  0
 23 22  1  0
 24 23  1  0
 25 24  1  0
 26 25  1  1
 26 27  1  0
 27 17  1  0
 28 26  1  0
 29 28  2  0
 30 28  1  0
M  END
$$$$
