DHR.pdb
     RDKit          3D

 30 30  0  0  1  0  0  0  0  0999 V2000
   16.2964  -18.9273    3.2471 N   0  0  0  0  0  0  0  0  0  0  0  0
   15.7707  -18.1539    4.3517 C   0  0  1  0  0  0  0  0  0  0  0  0
   14.9427  -19.0971    5.2061 C   0  0  0  0  0  0  0  0  0  0  0  0
   13.7427  -19.5745    4.4715 C   0  0  0  0  0  0  0  0  0  0  0  0
   13.4355  -18.9586    3.4226 O   0  0  0  0  0  0  0  0  0  0  0  0
   16.8587  -17.6336    5.1846 C   0  0  0  0  0  0  0  0  0  0  0  0
   17.9797  -18.2471    5.1484 O   0  0  0  0  0  0  0  0  0  0  0  0
   12.9704  -20.6317    4.8732 O   0  0  0  0  0  0  0  0  0  0  0  0
   16.7320  -16.4893    6.0250 N   0  0  0  0  0  0  0  0  0  0  0  0
   17.8273  -16.0875    6.8397 C   0  0  1  0  0  0  0  0  0  0  0  0
   17.8652  -14.5973    7.0981 C   0  0  0  0  0  0  0  0  0  0  0  0
   18.3846  -13.8432    5.9427 C   0  0  0  0  0  0  0  0  0  0  0  0
   18.8520  -14.2925    4.7265 C   0  0  0  0  0  0  0  0  0  0  0  0
   19.2292  -13.2216    3.9690 N   0  0  0  0  0  0  0  0  0  0  0  0
   19.0023  -12.1310    4.6958 C   0  0  0  0  0  0  0  0  0  0  0  0
   18.4890  -12.5027    5.8962 N   0  0  0  0  0  0  0  0  0  0  0  0
   17.8505  -16.7584    8.1641 C   0  0  0  0  0  0  0  0  0  0  0  0
   16.7588  -17.1513    8.6587 O   0  0  0  0  0  0  0  0  0  0  0  0
   22.9600  -23.0903   11.3027 N   0  0  0  0  0  0  0  0  0  0  0  0
   22.1604  -22.7247   12.4225 C   0  0  0  0  0  0  0  0  0  0  0  0
   22.2295  -23.3956   13.5155 N   0  0  0  0  0  0  0  0  0  0  0  0
   21.2746  -21.6194   12.3598 N   0  0  0  0  0  0  0  0  0  0  0  0
   21.2177  -20.8318   11.1317 C   0  0  0  0  0  0  0  0  0  0  0  0
   20.1782  -19.7763   11.1842 C   0  0  0  0  0  0  0  0  0  0  0  0
   19.9695  -18.8337   10.0879 C   0  0  0  0  0  0  0  0  0  0  0  0
   18.9792  -17.7525   10.2177 C   0  0  2  0  0  0  0  0  0  0  0  0
   19.0203  -16.9823    8.9016 N   0  0  0  0  0  0  0  0  0  0  0  0
   19.1828  -16.7356   11.2437 C   0  0  0  0  0  0  0  0  0  0  0  0
   19.9406  -15.7529   11.1983 O   0  0  0  0  0  0  0  0  0  0  0  0
   18.4470  -16.8443   12.4511 O   0  0  0  0  0  0  0  0  0  0  0  0
  2  1  1  6
  2  3  1  0
  4  3  1  0
  4  5  2  0
  6  2  1  0
  6  7  2  0
  8  4  1  0
  9  6  1  0
 10  9  1  0
 11 12  1  0
 10 11  1  1
 12 13  2  0
 12 16  1  0
 13 14  1  0
 14 15  1  0
 16 15  2  0
 17 10  1  0
 18 17  2  0
 19 20  1  0
 20 21  2  0
 22 20  1  0
 23 22  1  0
 24 23  1  0
 25 24  1  0
 26 25  1  6
 26 27  1  0
 27 17  1  0
 28 26  1  0
 29 28  2  0
 30 28  1  0
M  END
$$$$
