DHR.pdb
     RDKit          3D

 30 30  0  0  1  0  0  0  0  0999 V2000
   24.2677  -20.0761  -18.6791 N   0  0  0  0  0  0  0  0  0  0  0  0
   24.7059  -19.2438  -17.5792 C   0  0  1  0  0  0  0  0  0  0  0  0
   23.5168  -18.4020  -17.1517 C   0  0  0  0  0  0  0  0  0  0  0  0
   23.3996  -17.1760  -17.9827 C   0  0  0  0  0  0  0  0  0  0  0  0
   24.3046  -16.9726  -18.8274 O   0  0  0  0  0  0  0  0  0  0  0  0
   25.1070  -20.0664  -16.4344 C   0  0  0  0  0  0  0  0  0  0  0  0
   24.3842  -21.0820  -16.1507 O   0  0  0  0  0  0  0  0  0  0  0  0
   22.3741  -16.2746  -17.8756 O   0  0  0  0  0  0  0  0  0  0  0  0
   26.2510  -19.7944  -15.6287 N   0  0  0  0  0  0  0  0  0  0  0  0
   26.5029  -20.5837  -14.4718 C   0  0  1  0  0  0  0  0  0  0  0  0
   27.9517  -20.9970  -14.3338 C   0  0  0  0  0  0  0  0  0  0  0  0
   28.4000  -21.8434  -15.4545 C   0  0  0  0  0  0  0  0  0  0  0  0
   27.7125  -22.2846  -16.5644 C   0  0  0  0  0  0  0  0  0  0  0  0
   28.5443  -23.0481  -17.3315 N   0  0  0  0  0  0  0  0  0  0  0  0
   29.7220  -23.0818  -16.7142 C   0  0  0  0  0  0  0  0  0  0  0  0
   29.6402  -22.3514  -15.5729 N   0  0  0  0  0  0  0  0  0  0  0  0
   26.1220  -19.9074  -13.2058 C   0  0  0  0  0  0  0  0  0  0  0  0
   25.7628  -18.6993  -13.2536 O   0  0  0  0  0  0  0  0  0  0  0  0
   20.4529  -21.6499   -9.0504 N   0  0  0  0  0  0  0  0  0  0  0  0
   19.7684  -20.4623   -9.4350 C   0  0  0  0  0  0  0  0  0  0  0  0
   18.7986  -20.0130   -8.7229 N   0  0  0  0  0  0  0  0  0  0  0  0
   20.1372  -19.7510  -10.6048 N   0  0  0  0  0  0  0  0  0  0  0  0
   21.2138  -20.2777  -11.4388 C   0  0  0  0  0  0  0  0  0  0  0  0
   22.5541  -20.0288  -10.8565 C   0  0  0  0  0  0  0  0  0  0  0  0
   23.7835  -20.4472  -11.5252 C   0  0  0  0  0  0  0  0  0  0  0  0
   25.0911  -20.1985  -10.8968 C   0  0  2  0  0  0  0  0  0  0  0  0
   26.1382  -20.5355  -11.9538 N   0  0  0  0  0  0  0  0  0  0  0  0
   25.4732  -20.9951   -9.7359 C   0  0  0  0  0  0  0  0  0  0  0  0
   25.8512  -22.1777   -9.7182 O   0  0  0  0  0  0  0  0  0  0  0  0
   25.4218  -20.3842   -8.4571 O   0  0  0  0  0  0  0  0  0  0  0  0
  2  1  1  6
  2  3  1  0
  4  3  1  0
  4  5  2  0
  6  2  1  0
  6  7  2  0
  8  4  1  0
  9  6  1  0
 10  9  1  0
 11 12  1  0
 10 11  1  1
 12 13  2  0
 12 16  1  0
 13 14  1  0
 14 15  1  0
 16 15  2  0
 17 10  1  0
 18 17  2  0
 19 20  1  0
 20 21  2  0
 22 20  1  0
 23 22  1  0
 24 23  1  0
 25 24  1  0
 26 25  1  6
 26 27  1  0
 27 17  1  0
 28 26  1  0
 29 28  2  0
 30 28  1  0
M  END
$$$$
