DHR.pdb
     RDKit          3D

 30 30  0  0  1  0  0  0  0  0999 V2000
   21.0838  -15.6873  -15.5478 N   0  0  0  0  0  0  0  0  0  0  0  0
   21.2250  -17.0470  -16.0230 C   0  0  1  0  0  0  0  0  0  0  0  0
   20.4840  -17.1398  -17.3449 C   0  0  0  0  0  0  0  0  0  0  0  0
   19.0548  -16.7653  -17.1875 C   0  0  0  0  0  0  0  0  0  0  0  0
   18.4947  -17.0968  -16.1150 O   0  0  0  0  0  0  0  0  0  0  0  0
   22.6335  -17.3640  -16.2759 C   0  0  0  0  0  0  0  0  0  0  0  0
   22.9232  -17.9430  -17.3783 O   0  0  0  0  0  0  0  0  0  0  0  0
   18.3323  -16.0900  -18.1349 O   0  0  0  0  0  0  0  0  0  0  0  0
   23.6869  -17.0626  -15.3641 N   0  0  0  0  0  0  0  0  0  0  0  0
   25.0274  -17.4050  -15.6967 C   0  0  1  0  0  0  0  0  0  0  0  0
   26.0514  -16.4721  -15.0882 C   0  0  0  0  0  0  0  0  0  0  0  0
   26.2788  -15.2750  -15.9180 C   0  0  0  0  0  0  0  0  0  0  0  0
   25.7671  -14.9403  -17.1531 C   0  0  0  0  0  0  0  0  0  0  0  0
   26.2645  -13.7262  -17.5293 N   0  0  0  0  0  0  0  0  0  0  0  0
   27.0671  -13.3142  -16.5519 C   0  0  0  0  0  0  0  0  0  0  0  0
   27.0796  -14.2514  -15.5700 N   0  0  0  0  0  0  0  0  0  0  0  0
   25.3994  -18.7834  -15.2886 C   0  0  0  0  0  0  0  0  0  0  0  0
   24.8142  -19.2954  -14.2955 O   0  0  0  0  0  0  0  0  0  0  0  0
   22.9086  -21.2906  -19.2797 N   0  0  0  0  0  0  0  0  0  0  0  0
   23.0851  -22.6855  -19.5034 C   0  0  0  0  0  0  0  0  0  0  0  0
   22.9226  -23.1798  -20.6776 N   0  0  0  0  0  0  0  0  0  0  0  0
   23.4419  -23.5575  -18.4438 N   0  0  0  0  0  0  0  0  0  0  0  0
   23.6092  -23.0042  -17.1029 C   0  0  0  0  0  0  0  0  0  0  0  0
   24.9245  -22.3445  -16.9231 C   0  0  0  0  0  0  0  0  0  0  0  0
   25.2984  -21.6798  -15.6773 C   0  0  0  0  0  0  0  0  0  0  0  0
   26.6035  -21.0100  -15.5567 C   0  0  2  0  0  0  0  0  0  0  0  0
   26.3679  -19.5537  -15.9452 N   0  0  0  0  0  0  0  0  0  0  0  0
   27.6970  -21.4464  -16.4181 C   0  0  0  0  0  0  0  0  0  0  0  0
   28.0592  -20.9478  -17.4961 O   0  0  0  0  0  0  0  0  0  0  0  0
   28.4630  -22.5689  -16.0127 O   0  0  0  0  0  0  0  0  0  0  0  0
  2  1  1  6
  2  3  1  0
  4  3  1  0
  4  5  2  0
  6  2  1  0
  6  7  2  0
  8  4  1  0
  9  6  1  0
 10  9  1  0
 11 12  1  0
 10 11  1  1
 12 13  2  0
 12 16  1  0
 13 14  1  0
 14 15  1  0
 16 15  2  0
 17 10  1  0
 18 17  2  0
 19 20  1  0
 20 21  2  0
 22 20  1  0
 23 22  1  0
 24 23  1  0
 25 24  1  0
 26 25  1  6
 26 27  1  0
 27 17  1  0
 28 26  1  0
 29 28  2  0
 30 28  1  0
M  END
$$$$
