DHR.pdb
     RDKit          3D

 30 30  0  0  1  0  0  0  0  0999 V2000
   22.7870  -11.3358  -14.9351 N   0  0  0  0  0  0  0  0  0  0  0  0
   22.3148  -12.1381  -16.0431 C   0  0  1  0  0  0  0  0  0  0  0  0
   22.3134  -11.2483  -17.2733 C   0  0  0  0  0  0  0  0  0  0  0  0
   21.3716  -10.1104  -17.1126 C   0  0  0  0  0  0  0  0  0  0  0  0
   21.7228   -9.1861  -16.3405 O   0  0  0  0  0  0  0  0  0  0  0  0
   23.2275  -13.2558  -16.2999 C   0  0  0  0  0  0  0  0  0  0  0  0
   23.1099  -13.8751  -17.4121 O   0  0  0  0  0  0  0  0  0  0  0  0
   20.1637  -10.0212  -17.7519 O   0  0  0  0  0  0  0  0  0  0  0  0
   24.2302  -13.6835  -15.3815 N   0  0  0  0  0  0  0  0  0  0  0  0
   25.0741  -14.7787  -15.7180 C   0  0  1  0  0  0  0  0  0  0  0  0
   26.4512  -14.6848  -15.0985 C   0  0  0  0  0  0  0  0  0  0  0  0
   27.3461  -13.7938  -15.8591 C   0  0  0  0  0  0  0  0  0  0  0  0
   27.1213  -13.0939  -17.0248 C   0  0  0  0  0  0  0  0  0  0  0  0
   28.2492  -12.3993  -17.3542 N   0  0  0  0  0  0  0  0  0  0  0  0
   29.1552  -12.6602  -16.4160 C   0  0  0  0  0  0  0  0  0  0  0  0
   28.6120  -13.5071  -15.5048 N   0  0  0  0  0  0  0  0  0  0  0  0
   24.5108  -16.0956  -15.3261 C   0  0  0  0  0  0  0  0  0  0  0  0
   24.1522  -16.2642  -14.1287 O   0  0  0  0  0  0  0  0  0  0  0  0
   20.4712  -21.1269  -11.9555 N   0  0  0  0  0  0  0  0  0  0  0  0
   19.8575  -19.8438  -12.0183 C   0  0  0  0  0  0  0  0  0  0  0  0
   19.0639  -19.4580  -11.0852 N   0  0  0  0  0  0  0  0  0  0  0  0
   20.1051  -18.9662  -13.1041 N   0  0  0  0  0  0  0  0  0  0  0  0
   20.9315  -19.4343  -14.2131 C   0  0  0  0  0  0  0  0  0  0  0  0
   20.9100  -18.5038  -15.3668 C   0  0  0  0  0  0  0  0  0  0  0  0
   22.0654  -17.6871  -15.7301 C   0  0  0  0  0  0  0  0  0  0  0  0
   23.3894  -18.3081  -15.8975 C   0  0  2  0  0  0  0  0  0  0  0  0
   24.3531  -17.1684  -16.2129 N   0  0  0  0  0  0  0  0  0  0  0  0
   23.5831  -19.2627  -16.9835 C   0  0  0  0  0  0  0  0  0  0  0  0
   23.7403  -19.0173  -18.1905 O   0  0  0  0  0  0  0  0  0  0  0  0
   23.6015  -20.6447  -16.6662 O   0  0  0  0  0  0  0  0  0  0  0  0
  2  1  1  1
  2  3  1  0
  4  3  1  0
  4  5  2  0
  6  2  1  0
  6  7  2  0
  8  4  1  0
  9  6  1  0
 10  9  1  0
 11 12  1  0
 10 11  1  1
 12 13  2  0
 12 16  1  0
 13 14  1  0
 14 15  1  0
 16 15  2  0
 17 10  1  0
 18 17  2  0
 19 20  1  0
 20 21  2  0
 22 20  1  0
 23 22  1  0
 24 23  1  0
 25 24  1  0
 26 25  1  6
 26 27  1  0
 27 17  1  0
 28 26  1  0
 29 28  2  0
 30 28  1  0
M  END
$$$$
