DHR.pdb
     RDKit          3D

 30 30  0  0  1  0  0  0  0  0999 V2000
   24.0394  -17.7014  -18.1688 N   0  0  0  0  0  0  0  0  0  0  0  0
   23.3202  -18.8657  -18.6396 C   0  0  1  0  0  0  0  0  0  0  0  0
   24.1389  -19.4748  -19.7639 C   0  0  0  0  0  0  0  0  0  0  0  0
   24.2974  -18.5204  -20.8915 C   0  0  0  0  0  0  0  0  0  0  0  0
   24.8697  -18.9483  -21.9227 O   0  0  0  0  0  0  0  0  0  0  0  0
   23.2038  -19.8680  -17.5766 C   0  0  0  0  0  0  0  0  0  0  0  0
   22.4315  -20.8656  -17.7831 O   0  0  0  0  0  0  0  0  0  0  0  0
   23.8593  -17.2232  -20.8630 O   0  0  0  0  0  0  0  0  0  0  0  0
   23.9012  -19.7880  -16.3360 N   0  0  0  0  0  0  0  0  0  0  0  0
   23.7422  -20.8203  -15.3695 C   0  0  1  0  0  0  0  0  0  0  0  0
   24.9758  -21.0409  -14.5219 C   0  0  0  0  0  0  0  0  0  0  0  0
   26.1248  -21.5078  -15.3190 C   0  0  0  0  0  0  0  0  0  0  0  0
   26.2027  -21.8407  -16.6540 C   0  0  0  0  0  0  0  0  0  0  0  0
   27.4808  -22.2203  -16.9465 N   0  0  0  0  0  0  0  0  0  0  0  0
   28.1825  -22.1261  -15.8204 C   0  0  0  0  0  0  0  0  0  0  0  0
   27.3636  -21.6936  -14.8280 N   0  0  0  0  0  0  0  0  0  0  0  0
   22.6117  -20.5817  -14.4368 C   0  0  0  0  0  0  0  0  0  0  0  0
   22.3280  -19.3924  -14.1271 O   0  0  0  0  0  0  0  0  0  0  0  0
   17.0440  -25.7121   -9.8212 N   0  0  0  0  0  0  0  0  0  0  0  0
   16.2181  -24.6057  -10.1688 C   0  0  0  0  0  0  0  0  0  0  0  0
   15.0194  -24.5233   -9.7152 N   0  0  0  0  0  0  0  0  0  0  0  0
   16.6943  -23.5749  -11.0180 N   0  0  0  0  0  0  0  0  0  0  0  0
   17.9082  -23.8080  -11.7953 C   0  0  0  0  0  0  0  0  0  0  0  0
   18.7345  -22.5852  -11.9342 C   0  0  0  0  0  0  0  0  0  0  0  0
   19.9289  -22.5438  -12.7743 C   0  0  0  0  0  0  0  0  0  0  0  0
   20.6697  -21.2839  -12.9486 C   0  0  2  0  0  0  0  0  0  0  0  0
   21.8368  -21.6055  -13.8767 N   0  0  0  0  0  0  0  0  0  0  0  0
   21.2898  -20.6685  -11.7803 C   0  0  0  0  0  0  0  0  0  0  0  0
   22.4149  -20.8993  -11.3083 O   0  0  0  0  0  0  0  0  0  0  0  0
   20.5550  -19.6844  -11.0712 O   0  0  0  0  0  0  0  0  0  0  0  0
  2  1  1  1
  2  3  1  0
  4  3  1  0
  4  5  2  0
  6  2  1  0
  6  7  2  0
  8  4  1  0
  9  6  1  0
 10  9  1  0
 11 12  1  0
 10 11  1  1
 12 13  2  0
 12 16  1  0
 13 14  1  0
 14 15  1  0
 16 15  2  0
 17 10  1  0
 18 17  2  0
 19 20  1  0
 20 21  2  0
 22 20  1  0
 23 22  1  0
 24 23  1  0
 25 24  1  0
 26 25  1  1
 26 27  1  0
 27 17  1  0
 28 26  1  0
 29 28  2  0
 30 28  1  0
M  END
$$$$
