DHR.pdb
     RDKit          3D

 30 30  0  0  1  0  0  0  0  0999 V2000
   19.8749  -21.3119  -11.7037 N   0  0  0  0  0  0  0  0  0  0  0  0
   20.4966  -21.8049  -12.9140 C   0  0  1  0  0  0  0  0  0  0  0  0
   19.5219  -21.5583  -14.0518 C   0  0  0  0  0  0  0  0  0  0  0  0
   18.2988  -22.3883  -13.9013 C   0  0  0  0  0  0  0  0  0  0  0  0
   17.1981  -21.7865  -13.9122 O   0  0  0  0  0  0  0  0  0  0  0  0
   21.7243  -21.0598  -13.2068 C   0  0  0  0  0  0  0  0  0  0  0  0
   21.6560  -19.7833  -13.2179 O   0  0  0  0  0  0  0  0  0  0  0  0
   18.3118  -23.7499  -13.7541 O   0  0  0  0  0  0  0  0  0  0  0  0
   22.9790  -21.6800  -13.4772 N   0  0  0  0  0  0  0  0  0  0  0  0
   24.1355  -20.8752  -13.6763 C   0  0  1  0  0  0  0  0  0  0  0  0
   25.3281  -21.3310  -12.8646 C   0  0  0  0  0  0  0  0  0  0  0  0
   25.1077  -21.1792  -11.4148 C   0  0  0  0  0  0  0  0  0  0  0  0
   24.0396  -20.6404  -10.7306 C   0  0  0  0  0  0  0  0  0  0  0  0
   24.2830  -20.7167   -9.3897 N   0  0  0  0  0  0  0  0  0  0  0  0
   25.4744  -21.2893   -9.2419 C   0  0  0  0  0  0  0  0  0  0  0  0
   25.9803  -21.5726  -10.4693 N   0  0  0  0  0  0  0  0  0  0  0  0
   24.5724  -20.8164  -15.0942 C   0  0  0  0  0  0  0  0  0  0  0  0
   24.0870  -21.6485  -15.9083 O   0  0  0  0  0  0  0  0  0  0  0  0
   21.5958  -14.3816  -18.9606 N   0  0  0  0  0  0  0  0  0  0  0  0
   21.8746  -15.2710  -20.0368 C   0  0  0  0  0  0  0  0  0  0  0  0
   21.5705  -14.9467  -21.2416 N   0  0  0  0  0  0  0  0  0  0  0  0
   22.4902  -16.5275  -19.8073 N   0  0  0  0  0  0  0  0  0  0  0  0
   22.9162  -16.8655  -18.4522 C   0  0  0  0  0  0  0  0  0  0  0  0
   23.6016  -18.1783  -18.3855 C   0  0  0  0  0  0  0  0  0  0  0  0
   24.0458  -18.7615  -17.1220 C   0  0  0  0  0  0  0  0  0  0  0  0
   25.3892  -19.3522  -17.0095 C   0  0  2  0  0  0  0  0  0  0  0  0
   25.4976  -19.8858  -15.5845 N   0  0  0  0  0  0  0  0  0  0  0  0
   26.5514  -18.4841  -17.1648 C   0  0  0  0  0  0  0  0  0  0  0  0
   26.9161  -17.5631  -16.4161 O   0  0  0  0  0  0  0  0  0  0  0  0
   27.3910  -18.6825  -18.2904 O   0  0  0  0  0  0  0  0  0  0  0  0
  2  1  1  1
  2  3  1  0
  4  3  1  0
  4  5  2  0
  6  2  1  0
  6  7  2  0
  8  4  1  0
  9  6  1  0
 10  9  1  0
 11 12  1  0
 10 11  1  1
 12 13  2  0
 12 16  1  0
 13 14  1  0
 14 15  1  0
 16 15  2  0
 17 10  1  0
 18 17  2  0
 19 20  1  0
 20 21  2  0
 22 20  1  0
 23 22  1  0
 24 23  1  0
 25 24  1  0
 26 25  1  1
 26 27  1  0
 27 17  1  0
 28 26  1  0
 29 28  2  0
 30 28  1  0
M  END
$$$$
