DHR.pdb
     RDKit          3D

 30 30  0  0  1  0  0  0  0  0999 V2000
   25.9843  -23.5107  -15.8696 N   0  0  0  0  0  0  0  0  0  0  0  0
   25.8142  -22.0946  -15.6242 C   0  0  1  0  0  0  0  0  0  0  0  0
   26.3296  -21.3616  -16.8498 C   0  0  0  0  0  0  0  0  0  0  0  0
   27.8072  -21.4709  -16.9598 C   0  0  0  0  0  0  0  0  0  0  0  0
   28.3916  -22.1699  -16.0974 O   0  0  0  0  0  0  0  0  0  0  0  0
   24.3953  -21.7624  -15.4674 C   0  0  0  0  0  0  0  0  0  0  0  0
   23.5505  -22.4218  -16.1644 O   0  0  0  0  0  0  0  0  0  0  0  0
   28.5489  -20.8594  -17.9353 O   0  0  0  0  0  0  0  0  0  0  0  0
   23.9138  -20.7512  -14.5857 N   0  0  0  0  0  0  0  0  0  0  0  0
   22.5199  -20.4705  -14.5283 C   0  0  1  0  0  0  0  0  0  0  0  0
   22.1700  -19.3785  -13.5413 C   0  0  0  0  0  0  0  0  0  0  0  0
   20.7200  -19.1174  -13.4884 C   0  0  0  0  0  0  0  0  0  0  0  0
   19.6915  -19.6660  -14.2236 C   0  0  0  0  0  0  0  0  0  0  0  0
   18.5100  -19.1128  -13.8220 N   0  0  0  0  0  0  0  0  0  0  0  0
   18.7956  -18.2403  -12.8595 C   0  0  0  0  0  0  0  0  0  0  0  0
   20.1372  -18.2389  -12.6525 N   0  0  0  0  0  0  0  0  0  0  0  0
   21.9473  -20.0709  -15.8387 C   0  0  0  0  0  0  0  0  0  0  0  0
   22.7115  -19.5471  -16.6945 O   0  0  0  0  0  0  0  0  0  0  0  0
   22.2546  -22.2749  -22.9055 N   0  0  0  0  0  0  0  0  0  0  0  0
   22.4932  -22.9936  -21.6998 C   0  0  0  0  0  0  0  0  0  0  0  0
   23.4573  -23.8391  -21.6287 N   0  0  0  0  0  0  0  0  0  0  0  0
   21.6788  -22.7957  -20.5562 N   0  0  0  0  0  0  0  0  0  0  0  0
   20.4992  -21.9429  -20.6712 C   0  0  0  0  0  0  0  0  0  0  0  0
   20.6540  -20.6617  -19.9418 C   0  0  0  0  0  0  0  0  0  0  0  0
   20.9804  -20.6103  -18.5189 C   0  0  0  0  0  0  0  0  0  0  0  0
   20.1007  -19.8933  -17.5816 C   0  0  2  0  0  0  0  0  0  0  0  0
   20.6003  -20.2422  -16.1831 N   0  0  0  0  0  0  0  0  0  0  0  0
   18.6811  -20.2287  -17.5575 C   0  0  0  0  0  0  0  0  0  0  0  0
   18.0797  -20.9242  -16.7229 O   0  0  0  0  0  0  0  0  0  0  0  0
   17.8541  -19.7196  -18.5909 O   0  0  0  0  0  0  0  0  0  0  0  0
  2  1  1  6
  2  3  1  0
  4  3  1  0
  4  5  2  0
  6  2  1  0
  6  7  2  0
  8  4  1  0
  9  6  1  0
 10  9  1  0
 11 12  1  0
 10 11  1  1
 12 13  2  0
 12 16  1  0
 13 14  1  0
 14 15  1  0
 16 15  2  0
 17 10  1  0
 18 17  2  0
 19 20  1  0
 20 21  2  0
 22 20  1  0
 23 22  1  0
 24 23  1  0
 25 24  1  0
 26 25  1  6
 26 27  1  0
 27 17  1  0
 28 26  1  0
 29 28  2  0
 30 28  1  0
M  END
$$$$
