DHR.pdb
     RDKit          3D

 30 30  0  0  1  0  0  0  0  0999 V2000
   25.6145  -21.5746  -13.8283 N   0  0  0  0  0  0  0  0  0  0  0  0
   24.4707  -21.8427  -14.6733 C   0  0  1  0  0  0  0  0  0  0  0  0
   24.3374  -23.3512  -14.7831 C   0  0  0  0  0  0  0  0  0  0  0  0
   25.5577  -23.9570  -15.3760 C   0  0  0  0  0  0  0  0  0  0  0  0
   25.5444  -25.1977  -15.5610 O   0  0  0  0  0  0  0  0  0  0  0  0
   23.2422  -21.3280  -14.0617 C   0  0  0  0  0  0  0  0  0  0  0  0
   22.1359  -21.8682  -14.4059 O   0  0  0  0  0  0  0  0  0  0  0  0
   26.6739  -23.2439  -15.7238 O   0  0  0  0  0  0  0  0  0  0  0  0
   23.2183  -20.2657  -13.1115 N   0  0  0  0  0  0  0  0  0  0  0  0
   21.9708  -19.7584  -12.6517 C   0  0  1  0  0  0  0  0  0  0  0  0
   22.0570  -19.1021  -11.2913 C   0  0  0  0  0  0  0  0  0  0  0  0
   22.4279  -20.0585  -10.2324 C   0  0  0  0  0  0  0  0  0  0  0  0
   23.6713  -20.4469   -9.7824 C   0  0  0  0  0  0  0  0  0  0  0  0
   23.5188  -21.3606   -8.7800 N   0  0  0  0  0  0  0  0  0  0  0  0
   22.2116  -21.5374   -8.6095 C   0  0  0  0  0  0  0  0  0  0  0  0
   21.5437  -20.7486   -9.4894 N   0  0  0  0  0  0  0  0  0  0  0  0
   21.3650  -18.7656  -13.5749 C   0  0  0  0  0  0  0  0  0  0  0  0
   22.1013  -17.8584  -14.0500 O   0  0  0  0  0  0  0  0  0  0  0  0
   22.3996  -20.7299  -20.3593 N   0  0  0  0  0  0  0  0  0  0  0  0
   21.4999  -21.5776  -19.6530 C   0  0  0  0  0  0  0  0  0  0  0  0
   21.3130  -22.7887  -20.0373 N   0  0  0  0  0  0  0  0  0  0  0  0
   20.7931  -21.1100  -18.5163 N   0  0  0  0  0  0  0  0  0  0  0  0
   21.0041  -19.7349  -18.0728 C   0  0  0  0  0  0  0  0  0  0  0  0
   20.2068  -19.4001  -16.8688 C   0  0  0  0  0  0  0  0  0  0  0  0
   20.2734  -18.0876  -16.2310 C   0  0  0  0  0  0  0  0  0  0  0  0
   19.4929  -17.8142  -15.0134 C   0  0  2  0  0  0  0  0  0  0  0  0
   20.0159  -18.7769  -13.9519 N   0  0  0  0  0  0  0  0  0  0  0  0
   18.0525  -18.0440  -15.0384 C   0  0  0  0  0  0  0  0  0  0  0  0
   17.4304  -19.0125  -14.5727 O   0  0  0  0  0  0  0  0  0  0  0  0
   17.2286  -17.0699  -15.6576 O   0  0  0  0  0  0  0  0  0  0  0  0
  2  1  1  1
  2  3  1  0
  4  3  1  0
  4  5  2  0
  6  2  1  0
  6  7  2  0
  8  4  1  0
  9  6  1  0
 10  9  1  0
 11 12  1  0
 10 11  1  1
 12 13  2  0
 12 16  1  0
 13 14  1  0
 14 15  1  0
 16 15  2  0
 17 10  1  0
 18 17  2  0
 19 20  1  0
 20 21  2  0
 22 20  1  0
 23 22  1  0
 24 23  1  0
 25 24  1  0
 26 25  1  6
 26 27  1  0
 27 17  1  0
 28 26  1  0
 29 28  2  0
 30 28  1  0
M  END
$$$$
