DHR.pdb
     RDKit          3D

 30 30  0  0  1  0  0  0  0  0999 V2000
   23.9685  -20.0921  -17.6035 N   0  0  0  0  0  0  0  0  0  0  0  0
   23.8771  -18.8643  -16.8429 C   0  0  1  0  0  0  0  0  0  0  0  0
   22.7302  -18.0589  -17.4268 C   0  0  0  0  0  0  0  0  0  0  0  0
   23.0087  -17.6682  -18.8330 C   0  0  0  0  0  0  0  0  0  0  0  0
   22.5799  -16.5505  -19.2083 O   0  0  0  0  0  0  0  0  0  0  0  0
   23.5583  -19.1458  -15.4403 C   0  0  0  0  0  0  0  0  0  0  0  0
   23.2731  -18.1542  -14.6856 O   0  0  0  0  0  0  0  0  0  0  0  0
   23.6960  -18.4506  -19.7224 O   0  0  0  0  0  0  0  0  0  0  0  0
   23.5500  -20.4565  -14.8801 N   0  0  0  0  0  0  0  0  0  0  0  0
   23.2683  -20.6305  -13.4962 C   0  0  1  0  0  0  0  0  0  0  0  0
   22.1709  -21.6378  -13.2313 C   0  0  0  0  0  0  0  0  0  0  0  0
   20.8394  -21.1225  -13.5989 C   0  0  0  0  0  0  0  0  0  0  0  0
   20.4727  -19.8996  -14.1180 C   0  0  0  0  0  0  0  0  0  0  0  0
   19.1198  -19.8775  -14.2976 N   0  0  0  0  0  0  0  0  0  0  0  0
   18.6546  -21.0585  -13.8999 C   0  0  0  0  0  0  0  0  0  0  0  0
   19.6952  -21.8192  -13.4742 N   0  0  0  0  0  0  0  0  0  0  0  0
   24.4503  -21.0586  -12.7060 C   0  0  0  0  0  0  0  0  0  0  0  0
   25.3606  -21.7083  -13.2893 O   0  0  0  0  0  0  0  0  0  0  0  0
   31.7261  -23.0111  -11.7482 N   0  0  0  0  0  0  0  0  0  0  0  0
   31.7226  -22.1277  -10.6316 C   0  0  0  0  0  0  0  0  0  0  0  0
   32.7334  -22.0777   -9.8410 N   0  0  0  0  0  0  0  0  0  0  0  0
   30.6117  -21.2875  -10.3664 N   0  0  0  0  0  0  0  0  0  0  0  0
   29.3892  -21.4707  -11.1435 C   0  0  0  0  0  0  0  0  0  0  0  0
   28.3412  -20.4836  -10.7905 C   0  0  0  0  0  0  0  0  0  0  0  0
   26.9978  -20.5363  -11.3619 C   0  0  0  0  0  0  0  0  0  0  0  0
   25.8991  -21.1715  -10.6162 C   0  0  2  0  0  0  0  0  0  0  0  0
   24.6156  -20.7821  -11.3427 N   0  0  0  0  0  0  0  0  0  0  0  0
   25.6709  -20.7741   -9.2312 C   0  0  0  0  0  0  0  0  0  0  0  0
   24.8268  -19.9713   -8.8013 O   0  0  0  0  0  0  0  0  0  0  0  0
   26.4877  -21.3499   -8.2250 O   0  0  0  0  0  0  0  0  0  0  0  0
  2  1  1  6
  2  3  1  0
  4  3  1  0
  4  5  2  0
  6  2  1  0
  6  7  2  0
  8  4  1  0
  9  6  1  0
 10  9  1  0
 11 12  1  0
 10 11  1  6
 12 13  2  0
 12 16  1  0
 13 14  1  0
 14 15  1  0
 16 15  2  0
 17 10  1  0
 18 17  2  0
 19 20  1  0
 20 21  2  0
 22 20  1  0
 23 22  1  0
 24 23  1  0
 25 24  1  0
 26 25  1  6
 26 27  1  0
 27 17  1  0
 28 26  1  0
 29 28  2  0
 30 28  1  0
M  END
$$$$
