DHR.pdb
     RDKit          3D

 30 30  0  0  1  0  0  0  0  0999 V2000
   33.8722  -34.1162   -0.5055 N   0  0  0  0  0  0  0  0  0  0  0  0
   33.1098  -34.0178    0.7207 C   0  0  1  0  0  0  0  0  0  0  0  0
   33.0431  -32.5469    1.0910 C   0  0  0  0  0  0  0  0  0  0  0  0
   34.3978  -31.9973    1.3561 C   0  0  0  0  0  0  0  0  0  0  0  0
   35.3619  -32.7956    1.2722 O   0  0  0  0  0  0  0  0  0  0  0  0
   31.7376  -34.4910    0.5173 C   0  0  0  0  0  0  0  0  0  0  0  0
   30.8384  -34.0689    1.3221 O   0  0  0  0  0  0  0  0  0  0  0  0
   34.6426  -30.6896    1.6810 O   0  0  0  0  0  0  0  0  0  0  0  0
   31.3580  -35.3894   -0.5222 N   0  0  0  0  0  0  0  0  0  0  0  0
   29.9914  -35.7563   -0.6735 C   0  0  1  0  0  0  0  0  0  0  0  0
   29.6574  -36.2593   -2.0607 C   0  0  0  0  0  0  0  0  0  0  0  0
   29.3733  -35.1593   -3.0001 C   0  0  0  0  0  0  0  0  0  0  0  0
   28.5471  -34.0648   -2.8622 C   0  0  0  0  0  0  0  0  0  0  0  0
   28.6054  -33.3142   -4.0008 N   0  0  0  0  0  0  0  0  0  0  0  0
   29.4477  -33.9264   -4.8284 C   0  0  0  0  0  0  0  0  0  0  0  0
   29.9175  -35.0483   -4.2256 N   0  0  0  0  0  0  0  0  0  0  0  0
   29.5556  -36.8038    0.2846 C   0  0  0  0  0  0  0  0  0  0  0  0
   30.4079  -37.6406    0.6898 O   0  0  0  0  0  0  0  0  0  0  0  0
   22.2025  -37.8332    5.3663 N   0  0  0  0  0  0  0  0  0  0  0  0
   22.9684  -39.0182    5.5563 C   0  0  0  0  0  0  0  0  0  0  0  0
   22.5683  -39.9250    6.3731 N   0  0  0  0  0  0  0  0  0  0  0  0
   24.1826  -39.2257    4.8541 N   0  0  0  0  0  0  0  0  0  0  0  0
   24.6892  -38.1600    3.9941 C   0  0  0  0  0  0  0  0  0  0  0  0
   25.9367  -38.5446    3.2919 C   0  0  0  0  0  0  0  0  0  0  0  0
   26.6402  -37.6294    2.3967 C   0  0  0  0  0  0  0  0  0  0  0  0
   27.8487  -38.0728    1.6829 C   0  0  2  0  0  0  0  0  0  0  0  0
   28.2459  -36.9184    0.7682 N   0  0  0  0  0  0  0  0  0  0  0  0
   27.7545  -39.2271    0.7959 C   0  0  0  0  0  0  0  0  0  0  0  0
   27.9536  -40.4197    1.0787 O   0  0  0  0  0  0  0  0  0  0  0  0
   27.3949  -39.0051   -0.5578 O   0  0  0  0  0  0  0  0  0  0  0  0
  2  1  1  6
  2  3  1  0
  4  3  1  0
  4  5  2  0
  6  2  1  0
  6  7  2  0
  8  4  1  0
  9  6  1  0
 10  9  1  0
 11 12  1  0
 10 11  1  6
 12 13  2  0
 12 16  1  0
 13 14  1  0
 14 15  1  0
 16 15  2  0
 17 10  1  0
 18 17  2  0
 19 20  1  0
 20 21  2  0
 22 20  1  0
 23 22  1  0
 24 23  1  0
 25 24  1  0
 26 25  1  6
 26 27  1  0
 27 17  1  0
 28 26  1  0
 29 28  2  0
 30 28  1  0
M  END
$$$$
