DHR.pdb
     RDKit          3D

 30 30  0  0  1  0  0  0  0  0999 V2000
   31.1153  -12.6100  -20.1670 N   0  0  0  0  0  0  0  0  0  0  0  0
   31.6104  -12.8387  -18.8265 C   0  0  1  0  0  0  0  0  0  0  0  0
   32.9761  -13.4891  -18.9571 C   0  0  0  0  0  0  0  0  0  0  0  0
   32.8669  -14.8607  -19.5178 C   0  0  0  0  0  0  0  0  0  0  0  0
   31.7166  -15.2640  -19.8145 O   0  0  0  0  0  0  0  0  0  0  0  0
   31.7851  -11.5694  -18.1148 C   0  0  0  0  0  0  0  0  0  0  0  0
   31.2980  -11.4774  -16.9364 O   0  0  0  0  0  0  0  0  0  0  0  0
   33.9369  -15.6905  -19.7230 O   0  0  0  0  0  0  0  0  0  0  0  0
   32.4641  -10.4429  -18.6642 N   0  0  0  0  0  0  0  0  0  0  0  0
   32.6596   -9.2798  -17.8681 C   0  0  1  0  0  0  0  0  0  0  0  0
   34.0965   -8.8067  -17.8435 C   0  0  0  0  0  0  0  0  0  0  0  0
   34.8833   -9.4657  -16.7851 C   0  0  0  0  0  0  0  0  0  0  0  0
   34.4992  -10.3913  -15.8390 C   0  0  0  0  0  0  0  0  0  0  0  0
   35.5773  -10.7158  -15.0673 N   0  0  0  0  0  0  0  0  0  0  0  0
   36.6085  -10.0092  -15.5218 C   0  0  0  0  0  0  0  0  0  0  0  0
   36.1926   -9.2477  -16.5657 N   0  0  0  0  0  0  0  0  0  0  0  0
   31.8304   -8.1265  -18.3006 C   0  0  0  0  0  0  0  0  0  0  0  0
   31.5236   -8.0298  -19.5202 O   0  0  0  0  0  0  0  0  0  0  0  0
   29.2717   -1.2166  -16.5973 N   0  0  0  0  0  0  0  0  0  0  0  0
   29.4475   -0.7454  -17.9292 C   0  0  0  0  0  0  0  0  0  0  0  0
   29.3067    0.5022  -18.1997 N   0  0  0  0  0  0  0  0  0  0  0  0
   29.7799   -1.6345  -18.9824 N   0  0  0  0  0  0  0  0  0  0  0  0
   29.8712   -3.0632  -18.6950 C   0  0  0  0  0  0  0  0  0  0  0  0
   31.2351   -3.4711  -18.2814 C   0  0  0  0  0  0  0  0  0  0  0  0
   31.6304   -4.8735  -18.1772 C   0  0  0  0  0  0  0  0  0  0  0  0
   30.6145   -5.9162  -17.9603 C   0  0  2  0  0  0  0  0  0  0  0  0
   31.3656   -7.1331  -17.4291 N   0  0  0  0  0  0  0  0  0  0  0  0
   29.8698   -6.4186  -19.1098 C   0  0  0  0  0  0  0  0  0  0  0  0
   28.6714   -6.2338  -19.3772 O   0  0  0  0  0  0  0  0  0  0  0  0
   30.5587   -7.2161  -20.0587 O   0  0  0  0  0  0  0  0  0  0  0  0
  2  1  1  6
  2  3  1  0
  4  3  1  0
  4  5  2  0
  6  2  1  0
  6  7  2  0
  8  4  1  0
  9  6  1  0
 10  9  1  0
 11 12  1  0
 10 11  1  6
 12 13  2  0
 12 16  1  0
 13 14  1  0
 14 15  1  0
 16 15  2  0
 17 10  1  0
 18 17  2  0
 19 20  1  0
 20 21  2  0
 22 20  1  0
 23 22  1  0
 24 23  1  0
 25 24  1  0
 26 25  1  6
 26 27  1  0
 27 17  1  0
 28 26  1  0
 29 28  2  0
 30 28  1  0
M  END
$$$$
