DHR.pdb
     RDKit          3D

 30 30  0  0  1  0  0  0  0  0999 V2000
   16.9990  -11.9348  -15.1922 N   0  0  0  0  0  0  0  0  0  0  0  0
   16.4190  -10.6242  -14.9911 C   0  0  1  0  0  0  0  0  0  0  0  0
   14.9847  -10.8326  -14.5388 C   0  0  0  0  0  0  0  0  0  0  0  0
   14.0238  -10.4550  -15.6072 C   0  0  0  0  0  0  0  0  0  0  0  0
   14.5089  -10.0627  -16.6957 O   0  0  0  0  0  0  0  0  0  0  0  0
   17.1237   -9.9032  -13.9273 C   0  0  0  0  0  0  0  0  0  0  0  0
   17.2437  -10.4840  -12.7948 O   0  0  0  0  0  0  0  0  0  0  0  0
   12.6627  -10.5122  -15.4670 O   0  0  0  0  0  0  0  0  0  0  0  0
   17.6770   -8.5995  -14.0894 N   0  0  0  0  0  0  0  0  0  0  0  0
   18.3963   -8.0001  -13.0179 C   0  0  1  0  0  0  0  0  0  0  0  0
   19.6830   -7.3373  -13.4583 C   0  0  0  0  0  0  0  0  0  0  0  0
   20.6488   -8.3046  -14.0105 C   0  0  0  0  0  0  0  0  0  0  0  0
   20.5749   -9.6776  -14.1055 C   0  0  0  0  0  0  0  0  0  0  0  0
   21.7139  -10.1472  -14.6931 N   0  0  0  0  0  0  0  0  0  0  0  0
   22.4793   -9.0920  -14.9578 C   0  0  0  0  0  0  0  0  0  0  0  0
   21.8371   -7.9696  -14.5452 N   0  0  0  0  0  0  0  0  0  0  0  0
   17.6102   -6.9766  -12.2835 C   0  0  0  0  0  0  0  0  0  0  0  0
   16.7018   -6.3577  -12.9021 O   0  0  0  0  0  0  0  0  0  0  0  0
   11.4693   -7.9527   -7.4982 N   0  0  0  0  0  0  0  0  0  0  0  0
   12.3049   -8.9816   -8.0181 C   0  0  0  0  0  0  0  0  0  0  0  0
   11.9173  -10.2057   -7.9948 N   0  0  0  0  0  0  0  0  0  0  0  0
   13.5762   -8.6830   -8.5705 N   0  0  0  0  0  0  0  0  0  0  0  0
   13.8189   -7.3415   -9.0935 C   0  0  0  0  0  0  0  0  0  0  0  0
   15.1342   -7.2265   -9.7675 C   0  0  0  0  0  0  0  0  0  0  0  0
   15.5898   -5.9802  -10.3783 C   0  0  0  0  0  0  0  0  0  0  0  0
   16.9966   -5.5653  -10.2559 C   0  0  2  0  0  0  0  0  0  0  0  0
   17.8188   -6.6555  -10.9360 N   0  0  0  0  0  0  0  0  0  0  0  0
   17.5783   -5.4455   -8.9234 C   0  0  0  0  0  0  0  0  0  0  0  0
   17.2386   -4.6713   -8.0140 O   0  0  0  0  0  0  0  0  0  0  0  0
   18.6616   -6.2961   -8.5856 O   0  0  0  0  0  0  0  0  0  0  0  0
  2  1  1  1
  2  3  1  0
  4  3  1  0
  4  5  2  0
  6  2  1  0
  6  7  2  0
  8  4  1  0
  9  6  1  0
 10  9  1  0
 11 12  1  0
 10 11  1  6
 12 13  2  0
 12 16  1  0
 13 14  1  0
 14 15  1  0
 16 15  2  0
 17 10  1  0
 18 17  2  0
 19 20  1  0
 20 21  2  0
 22 20  1  0
 23 22  1  0
 24 23  1  0
 25 24  1  0
 26 25  1  1
 26 27  1  0
 27 17  1  0
 28 26  1  0
 29 28  2  0
 30 28  1  0
M  END
$$$$
