HME.pdb
     RDKit          3D

 28 28  0  0  1  0  0  0  0  0999 V2000
   27.9157  -20.9141  -16.0388 N   0  0  0  0  0  0  0  0  0  0  0  0
   27.3163  -19.8845  -15.2156 C   0  0  1  0  0  0  0  0  0  0  0  0
   26.4461  -19.0333  -16.1170 C   0  0  0  0  0  0  0  0  0  0  0  0
   27.3293  -18.2068  -16.9797 C   0  0  0  0  0  0  0  0  0  0  0  0
   28.3939  -17.4026  -16.6100 C   0  0  0  0  0  0  0  0  0  0  0  0
   28.9193  -16.8295  -17.7102 N   0  0  0  0  0  0  0  0  0  0  0  0
   28.2140  -17.2518  -18.7601 C   0  0  0  0  0  0  0  0  0  0  0  0
   27.2585  -18.0791  -18.3239 N   0  0  0  0  0  0  0  0  0  0  0  0
   26.5377  -20.5306  -14.1421 C   0  0  0  0  0  0  0  0  0  0  0  0
   25.6810  -21.3987  -14.4639 O   0  0  0  0  0  0  0  0  0  0  0  0
   24.8830  -20.8400   -6.4306 C   0  0  0  0  0  0  0  0  0  0  0  0
   26.0472  -20.2748   -7.7069 S   0  0  0  0  0  0  0  0  0  0  0  0
   25.3572  -20.8249   -9.3099 C   0  0  0  0  0  0  0  0  0  0  0  0
   26.2286  -20.3689  -10.4446 C   0  0  0  0  0  0  0  0  0  0  0  0
   25.7762  -20.7848  -11.8077 C   0  0  2  0  0  0  0  0  0  0  0  0
   26.7160  -20.2128  -12.7627 N   0  0  0  0  0  0  0  0  0  0  0  0
   24.4021  -20.3035  -12.0738 C   0  0  0  0  0  0  0  0  0  0  0  0
   24.1321  -19.0994  -12.2772 O   0  0  0  0  0  0  0  0  0  0  0  0
   23.2775  -21.1895  -12.1176 N   0  0  0  0  0  0  0  0  0  0  0  0
   21.9311  -20.8103  -12.3765 C   0  0  1  0  0  0  0  0  0  0  0  0
   21.2855  -21.3713  -13.5728 C   0  0  0  0  0  0  0  0  0  0  0  0
   21.8435  -21.0248  -14.9018 C   0  0  0  0  0  0  0  0  0  0  0  0
   21.1459  -21.5862  -16.0662 C   0  0  0  0  0  0  0  0  0  0  0  0
   20.1947  -22.3827  -15.8678 O   0  0  0  0  0  0  0  0  0  0  0  0
   21.0976  -20.9865  -11.1623 C   0  0  0  0  0  0  0  0  0  0  0  0
   21.5327  -21.5452  -10.1135 O   0  0  0  0  0  0  0  0  0  0  0  0
   21.4648  -21.2971  -17.3884 O   0  0  0  0  0  0  0  0  0  0  0  0
   19.7817  -20.5444  -11.1086 O   0  0  0  0  0  0  0  0  0  0  0  0
  2  1  1  6
  3  4  1  0
  3  2  1  0
  4  5  2  0
  4  8  1  0
  5  6  1  0
  6  7  1  0
  8  7  2  0
  9  2  1  0
  9 10  2  0
 11 12  1  0
 13 12  1  0
 14 13  1  0
 15 16  1  0
 15 14  1  1
 16  9  1  0
 17 15  1  0
 18 17  2  0
 19 17  1  0
 20 19  1  0
 20 21  1  6
 22 21  1  0
 22 23  1  0
 23 27  1  0
 23 24  2  0
 25 20  1  0
 25 28  1  0
 26 25  2  0
M  END
$$$$
