HME.pdb
     RDKit          3D

 28 28  0  0  1  0  0  0  0  0999 V2000
   27.5422  -21.6913  -15.8621 N   0  0  0  0  0  0  0  0  0  0  0  0
   27.2103  -20.5455  -15.0413 C   0  0  1  0  0  0  0  0  0  0  0  0
   26.5096  -19.5390  -15.9303 C   0  0  0  0  0  0  0  0  0  0  0  0
   27.5265  -18.8872  -16.7953 C   0  0  0  0  0  0  0  0  0  0  0  0
   28.4755  -17.9393  -16.4521 C   0  0  0  0  0  0  0  0  0  0  0  0
   29.1957  -17.6176  -17.5442 N   0  0  0  0  0  0  0  0  0  0  0  0
   28.7250  -18.3374  -18.5632 C   0  0  0  0  0  0  0  0  0  0  0  0
   27.7226  -19.1006  -18.1160 N   0  0  0  0  0  0  0  0  0  0  0  0
   26.3528  -20.9937  -13.9278 C   0  0  0  0  0  0  0  0  0  0  0  0
   25.3814  -21.7545  -14.1896 O   0  0  0  0  0  0  0  0  0  0  0  0
   24.9082  -21.0016   -6.1863 C   0  0  0  0  0  0  0  0  0  0  0  0
   26.0682  -20.5196   -7.5001 S   0  0  0  0  0  0  0  0  0  0  0  0
   25.2031  -20.8217   -9.0839 C   0  0  0  0  0  0  0  0  0  0  0  0
   26.1414  -20.6382  -10.2418 C   0  0  0  0  0  0  0  0  0  0  0  0
   25.5730  -20.9647  -11.5857 C   0  0  2  0  0  0  0  0  0  0  0  0
   26.5792  -20.6016  -12.5748 N   0  0  0  0  0  0  0  0  0  0  0  0
   24.3167  -20.2180  -11.8192 C   0  0  0  0  0  0  0  0  0  0  0  0
   24.2957  -19.0229  -12.1872 O   0  0  0  0  0  0  0  0  0  0  0  0
   23.0277  -20.8163  -11.6391 N   0  0  0  0  0  0  0  0  0  0  0  0
   21.7802  -20.2144  -11.9632 C   0  0  1  0  0  0  0  0  0  0  0  0
   21.2599  -20.4199  -13.3233 C   0  0  0  0  0  0  0  0  0  0  0  0
   20.8073  -21.7786  -13.7060 C   0  0  0  0  0  0  0  0  0  0  0  0
   20.9046  -22.1186  -15.1317 C   0  0  0  0  0  0  0  0  0  0  0  0
   21.2552  -21.2218  -15.9387 O   0  0  0  0  0  0  0  0  0  0  0  0
   20.7656  -20.5288  -10.9279 C   0  0  0  0  0  0  0  0  0  0  0  0
   20.9585  -21.3971  -10.0277 O   0  0  0  0  0  0  0  0  0  0  0  0
   20.6338  -23.3759  -15.6603 O   0  0  0  0  0  0  0  0  0  0  0  0
   19.5367  -19.8822  -10.8888 O   0  0  0  0  0  0  0  0  0  0  0  0
  2  1  1  6
  3  4  1  0
  3  2  1  0
  4  5  2  0
  4  8  1  0
  5  6  1  0
  6  7  1  0
  8  7  2  0
  9  2  1  0
  9 10  2  0
 11 12  1  0
 13 12  1  0
 14 13  1  0
 15 16  1  0
 15 14  1  1
 16  9  1  0
 17 15  1  0
 18 17  2  0
 19 17  1  0
 20 19  1  0
 20 21  1  6
 22 21  1  0
 22 23  1  0
 23 27  1  0
 23 24  2  0
 25 20  1  0
 25 28  1  0
 26 25  2  0
M  END
$$$$
