HME.pdb
     RDKit          3D

 28 28  0  0  1  0  0  0  0  0999 V2000
   15.4541  -18.8587    2.8449 N   0  0  0  0  0  0  0  0  0  0  0  0
   15.0869  -17.6174    3.4939 C   0  0  1  0  0  0  0  0  0  0  0  0
   13.8611  -17.8938    4.3397 C   0  0  0  0  0  0  0  0  0  0  0  0
   12.6781  -17.9668    3.4439 C   0  0  0  0  0  0  0  0  0  0  0  0
   12.5344  -17.4743    2.1579 C   0  0  0  0  0  0  0  0  0  0  0  0
   11.2958  -17.7583    1.7105 N   0  0  0  0  0  0  0  0  0  0  0  0
   10.6584  -18.4155    2.6799 C   0  0  0  0  0  0  0  0  0  0  0  0
   11.4864  -18.5419    3.7219 N   0  0  0  0  0  0  0  0  0  0  0  0
   16.2275  -17.1524    4.3056 C   0  0  0  0  0  0  0  0  0  0  0  0
   16.9806  -18.0176    4.8302 O   0  0  0  0  0  0  0  0  0  0  0  0
   20.9564  -11.1890    6.2446 C   0  0  0  0  0  0  0  0  0  0  0  0
   19.3697  -11.6620    5.4945 S   0  0  0  0  0  0  0  0  0  0  0  0
   19.1420  -13.4412    5.8560 C   0  0  0  0  0  0  0  0  0  0  0  0
   17.9614  -13.9860    5.1048 C   0  0  0  0  0  0  0  0  0  0  0  0
   17.6610  -15.4312    5.3433 C   0  0  2  0  0  0  0  0  0  0  0  0
   16.5090  -15.7700    4.5182 N   0  0  0  0  0  0  0  0  0  0  0  0
   17.3704  -15.6774    6.7735 C   0  0  0  0  0  0  0  0  0  0  0  0
   16.2427  -15.4871    7.2796 O   0  0  0  0  0  0  0  0  0  0  0  0
   18.3676  -16.1547    7.6844 N   0  0  0  0  0  0  0  0  0  0  0  0
   18.1723  -16.4104    9.0702 C   0  0  1  0  0  0  0  0  0  0  0  0
   18.4200  -17.7783    9.5498 C   0  0  0  0  0  0  0  0  0  0  0  0
   18.1322  -18.0890   10.9705 C   0  0  0  0  0  0  0  0  0  0  0  0
   18.4431  -19.4547   11.4131 C   0  0  0  0  0  0  0  0  0  0  0  0
   18.3558  -19.7218   12.6377 O   0  0  0  0  0  0  0  0  0  0  0  0
   18.8798  -15.3980    9.8914 C   0  0  0  0  0  0  0  0  0  0  0  0
   19.9924  -14.9014    9.5496 O   0  0  0  0  0  0  0  0  0  0  0  0
   18.8317  -20.4865   10.5658 O   0  0  0  0  0  0  0  0  0  0  0  0
   18.3559  -14.9349   11.0919 O   0  0  0  0  0  0  0  0  0  0  0  0
  2  1  1  1
  3  4  1  0
  3  2  1  0
  4  5  2  0
  4  8  1  0
  5  6  1  0
  6  7  1  0
  8  7  2  0
  9  2  1  0
  9 10  2  0
 11 12  1  0
 13 12  1  0
 14 13  1  0
 15 16  1  0
 15 14  1  1
 16  9  1  0
 17 15  1  0
 18 17  2  0
 19 17  1  0
 20 19  1  0
 20 21  1  1
 22 21  1  0
 22 23  1  0
 23 27  1  0
 23 24  2  0
 25 20  1  0
 25 28  1  0
 26 25  2  0
M  END
$$$$
