HME.pdb
     RDKit          3D

 28 28  0  0  1  0  0  0  0  0999 V2000
   28.0984  -20.2470  -17.3800 N   0  0  0  0  0  0  0  0  0  0  0  0
   27.7049  -19.3863  -16.2840 C   0  0  1  0  0  0  0  0  0  0  0  0
   26.8978  -18.2464  -16.8703 C   0  0  0  0  0  0  0  0  0  0  0  0
   27.8100  -17.3845  -17.6656 C   0  0  0  0  0  0  0  0  0  0  0  0
   27.7100  -17.0140  -18.9959 C   0  0  0  0  0  0  0  0  0  0  0  0
   28.7530  -16.2234  -19.3153 N   0  0  0  0  0  0  0  0  0  0  0  0
   29.5047  -16.0874  -18.2223 C   0  0  0  0  0  0  0  0  0  0  0  0
   28.9404  -16.7837  -17.2302 N   0  0  0  0  0  0  0  0  0  0  0  0
   26.9231  -20.1793  -15.3166 C   0  0  0  0  0  0  0  0  0  0  0  0
   26.1906  -21.1069  -15.7570 O   0  0  0  0  0  0  0  0  0  0  0  0
   24.0995  -21.4414   -8.3750 C   0  0  0  0  0  0  0  0  0  0  0  0
   24.7674  -20.4255   -9.7263 S   0  0  0  0  0  0  0  0  0  0  0  0
   25.9248  -21.4995  -10.6511 C   0  0  0  0  0  0  0  0  0  0  0  0
   26.6721  -20.7053  -11.6834 C   0  0  0  0  0  0  0  0  0  0  0  0
   26.0898  -20.7349  -13.0603 C   0  0  2  0  0  0  0  0  0  0  0  0
   26.9640  -19.9383  -13.9110 N   0  0  0  0  0  0  0  0  0  0  0  0
   24.7160  -20.1842  -13.0607 C   0  0  0  0  0  0  0  0  0  0  0  0
   24.4705  -18.9723  -13.2484 O   0  0  0  0  0  0  0  0  0  0  0  0
   23.5633  -21.0067  -12.8450 N   0  0  0  0  0  0  0  0  0  0  0  0
   22.2214  -20.6550  -13.1602 C   0  0  1  0  0  0  0  0  0  0  0  0
   21.9958  -19.8575  -14.3750 C   0  0  0  0  0  0  0  0  0  0  0  0
   20.5995  -19.5474  -14.7642 C   0  0  0  0  0  0  0  0  0  0  0  0
   20.0393  -18.2972  -14.2341 C   0  0  0  0  0  0  0  0  0  0  0  0
   20.0208  -17.2858  -14.9793 O   0  0  0  0  0  0  0  0  0  0  0  0
   21.3443  -21.8501  -13.1104 C   0  0  0  0  0  0  0  0  0  0  0  0
   20.1238  -21.7852  -12.7823 O   0  0  0  0  0  0  0  0  0  0  0  0
   19.5213  -18.1492  -12.9522 O   0  0  0  0  0  0  0  0  0  0  0  0
   21.8181  -23.1180  -13.4236 O   0  0  0  0  0  0  0  0  0  0  0  0
  2  1  1  6
  3  4  1  0
  3  2  1  0
  4  5  2  0
  4  8  1  0
  5  6  1  0
  6  7  1  0
  8  7  2  0
  9  2  1  0
  9 10  2  0
 11 12  1  0
 13 12  1  0
 14 13  1  0
 15 16  1  0
 15 14  1  1
 16  9  1  0
 17 15  1  0
 18 17  2  0
 19 17  1  0
 20 19  1  0
 20 21  1  6
 22 21  1  0
 22 23  1  0
 23 27  1  0
 23 24  2  0
 25 20  1  0
 25 28  1  0
 26 25  2  0
M  END
$$$$
