HME.pdb
     RDKit          3D

 28 28  0  0  1  0  0  0  0  0999 V2000
   27.2479  -20.9725  -15.9564 N   0  0  0  0  0  0  0  0  0  0  0  0
   26.8924  -20.0435  -14.9041 C   0  0  1  0  0  0  0  0  0  0  0  0
   26.0685  -18.9393  -15.5338 C   0  0  0  0  0  0  0  0  0  0  0  0
   26.9716  -18.0832  -16.3456 C   0  0  0  0  0  0  0  0  0  0  0  0
   28.3325  -18.2198  -16.5600 C   0  0  0  0  0  0  0  0  0  0  0  0
   28.7573  -17.2229  -17.3605 N   0  0  0  0  0  0  0  0  0  0  0  0
   27.7006  -16.4645  -17.6543 C   0  0  0  0  0  0  0  0  0  0  0  0
   26.6270  -16.9790  -17.0459 N   0  0  0  0  0  0  0  0  0  0  0  0
   26.1413  -20.7715  -13.8640 C   0  0  0  0  0  0  0  0  0  0  0  0
   25.2324  -21.5666  -14.2285 O   0  0  0  0  0  0  0  0  0  0  0  0
   26.7788  -19.2693   -7.7480 C   0  0  0  0  0  0  0  0  0  0  0  0
   25.6894  -20.6871   -7.4210 S   0  0  0  0  0  0  0  0  0  0  0  0
   24.9751  -21.1678   -9.0356 C   0  0  0  0  0  0  0  0  0  0  0  0
   25.8826  -20.7554  -10.1587 C   0  0  0  0  0  0  0  0  0  0  0  0
   25.3955  -21.0893  -11.5322 C   0  0  2  0  0  0  0  0  0  0  0  0
   26.4023  -20.6114  -12.4706 N   0  0  0  0  0  0  0  0  0  0  0  0
   24.0883  -20.4468  -11.7957 C   0  0  0  0  0  0  0  0  0  0  0  0
   23.9675  -19.2238  -12.0273 O   0  0  0  0  0  0  0  0  0  0  0  0
   22.8617  -21.1865  -11.8043 N   0  0  0  0  0  0  0  0  0  0  0  0
   21.5681  -20.6465  -12.0466 C   0  0  1  0  0  0  0  0  0  0  0  0
   21.1873  -20.3972  -13.4450 C   0  0  0  0  0  0  0  0  0  0  0  0
   20.6374  -19.0666  -13.7984 C   0  0  0  0  0  0  0  0  0  0  0  0
   20.1970  -18.8937  -15.1890 C   0  0  0  0  0  0  0  0  0  0  0  0
   20.4304  -19.8155  -16.0102 O   0  0  0  0  0  0  0  0  0  0  0  0
   20.5346  -21.4242  -11.3206 C   0  0  0  0  0  0  0  0  0  0  0  0
   19.3553  -20.9974  -11.1520 O   0  0  0  0  0  0  0  0  0  0  0  0
   19.5324  -17.7707  -15.6693 O   0  0  0  0  0  0  0  0  0  0  0  0
   20.8064  -22.6749  -10.7805 O   0  0  0  0  0  0  0  0  0  0  0  0
  2  1  1  6
  3  4  1  0
  3  2  1  0
  4  5  2  0
  4  8  1  0
  5  6  1  0
  6  7  1  0
  8  7  2  0
  9  2  1  0
  9 10  2  0
 11 12  1  0
 13 12  1  0
 14 13  1  0
 15 16  1  0
 15 14  1  1
 16  9  1  0
 17 15  1  0
 18 17  2  0
 19 17  1  0
 20 19  1  0
 20 21  1  6
 22 21  1  0
 22 23  1  0
 23 27  1  0
 23 24  2  0
 25 20  1  0
 25 28  1  0
 26 25  2  0
M  END
$$$$
