HME.pdb
     RDKit          3D

 28 28  0  0  1  0  0  0  0  0999 V2000
   16.9029  -11.1155  -10.2859 N   0  0  0  0  0  0  0  0  0  0  0  0
   16.4415  -10.4314  -11.4758 C   0  0  1  0  0  0  0  0  0  0  0  0
   15.0504   -9.9066  -11.1860 C   0  0  0  0  0  0  0  0  0  0  0  0
   14.1312  -11.0649  -11.0422 C   0  0  0  0  0  0  0  0  0  0  0  0
   13.6528  -11.9173  -12.0227 C   0  0  0  0  0  0  0  0  0  0  0  0
   12.8423  -12.8328  -11.4571 N   0  0  0  0  0  0  0  0  0  0  0  0
   12.7988  -12.5785  -10.1488 C   0  0  0  0  0  0  0  0  0  0  0  0
   13.5720  -11.5172   -9.8972 N   0  0  0  0  0  0  0  0  0  0  0  0
   17.3884   -9.3462  -11.7949 C   0  0  0  0  0  0  0  0  0  0  0  0
   17.8467   -8.6538  -10.8454 O   0  0  0  0  0  0  0  0  0  0  0  0
   22.9944  -10.1887  -12.2289 C   0  0  0  0  0  0  0  0  0  0  0  0
   21.9242   -8.8088  -12.7334 S   0  0  0  0  0  0  0  0  0  0  0  0
   20.7108   -9.5057  -13.9125 C   0  0  0  0  0  0  0  0  0  0  0  0
   19.7411   -8.4496  -14.3588 C   0  0  0  0  0  0  0  0  0  0  0  0
   18.7754   -7.9842  -13.3165 C   0  0  2  0  0  0  0  0  0  0  0  0
   17.8026   -9.0522  -13.1281 N   0  0  0  0  0  0  0  0  0  0  0  0
   18.1051   -6.7354  -13.7429 C   0  0  0  0  0  0  0  0  0  0  0  0
   17.3444   -6.6775  -14.7339 O   0  0  0  0  0  0  0  0  0  0  0  0
   18.2817   -5.4970  -13.0449 N   0  0  0  0  0  0  0  0  0  0  0  0
   17.7524   -4.2375  -13.4415 C   0  0  1  0  0  0  0  0  0  0  0  0
   17.3646   -3.2987  -12.3781 C   0  0  0  0  0  0  0  0  0  0  0  0
   16.3184   -3.7185  -11.4153 C   0  0  0  0  0  0  0  0  0  0  0  0
   16.0011   -2.7655  -10.3435 C   0  0  0  0  0  0  0  0  0  0  0  0
   16.2734   -3.0839   -9.1590 O   0  0  0  0  0  0  0  0  0  0  0  0
   18.6298   -3.5988  -14.4525 C   0  0  0  0  0  0  0  0  0  0  0  0
   18.2322   -2.6610  -15.2034 O   0  0  0  0  0  0  0  0  0  0  0  0
   15.4142   -1.5213  -10.5462 O   0  0  0  0  0  0  0  0  0  0  0  0
   19.9481   -3.9982  -14.6329 O   0  0  0  0  0  0  0  0  0  0  0  0
  2  1  1  1
  3  4  1  0
  3  2  1  0
  4  5  2  0
  4  8  1  0
  5  6  1  0
  6  7  1  0
  8  7  2  0
  9  2  1  0
  9 10  2  0
 11 12  1  0
 13 12  1  0
 14 13  1  0
 15 16  1  0
 15 14  1  6
 16  9  1  0
 17 15  1  0
 18 17  2  0
 19 17  1  0
 20 19  1  0
 20 21  1  1
 22 21  1  0
 22 23  1  0
 23 27  1  0
 23 24  2  0
 25 20  1  0
 25 28  1  0
 26 25  2  0
M  END
$$$$
