HME.pdb
     RDKit          3D

 28 28  0  0  1  0  0  0  0  0999 V2000
   28.1753  -21.1727  -15.6129 N   0  0  0  0  0  0  0  0  0  0  0  0
   27.5570  -20.1613  -14.7813 C   0  0  1  0  0  0  0  0  0  0  0  0
   26.9083  -19.1504  -15.7041 C   0  0  0  0  0  0  0  0  0  0  0  0
   27.9787  -18.4397  -16.4501 C   0  0  0  0  0  0  0  0  0  0  0  0
   28.2606  -18.4771  -17.8051 C   0  0  0  0  0  0  0  0  0  0  0  0
   29.3184  -17.6827  -18.0597 N   0  0  0  0  0  0  0  0  0  0  0  0
   29.7081  -17.1478  -16.9021 C   0  0  0  0  0  0  0  0  0  0  0  0
   28.9051  -17.6009  -15.9340 N   0  0  0  0  0  0  0  0  0  0  0  0
   26.5748  -20.8134  -13.8947 C   0  0  0  0  0  0  0  0  0  0  0  0
   25.9236  -21.7960  -14.3435 O   0  0  0  0  0  0  0  0  0  0  0  0
   28.3580  -21.2536   -7.3071 C   0  0  0  0  0  0  0  0  0  0  0  0
   26.7671  -20.6610   -7.9565 S   0  0  0  0  0  0  0  0  0  0  0  0
   26.7073  -21.1733   -9.7121 C   0  0  0  0  0  0  0  0  0  0  0  0
   25.4583  -20.6609  -10.3697 C   0  0  0  0  0  0  0  0  0  0  0  0
   25.2838  -21.0473  -11.8035 C   0  0  2  0  0  0  0  0  0  0  0  0
   26.3350  -20.3773  -12.5575 N   0  0  0  0  0  0  0  0  0  0  0  0
   23.9480  -20.6436  -12.2966 C   0  0  0  0  0  0  0  0  0  0  0  0
   23.6489  -19.4564  -12.5519 O   0  0  0  0  0  0  0  0  0  0  0  0
   22.8970  -21.5914  -12.5180 N   0  0  0  0  0  0  0  0  0  0  0  0
   21.6011  -21.2915  -13.0224 C   0  0  1  0  0  0  0  0  0  0  0  0
   20.7705  -22.4181  -13.4736 C   0  0  0  0  0  0  0  0  0  0  0  0
   19.4059  -22.1299  -13.9758 C   0  0  0  0  0  0  0  0  0  0  0  0
   18.6508  -23.2755  -14.5004 C   0  0  0  0  0  0  0  0  0  0  0  0
   17.4685  -23.0891  -14.8825 O   0  0  0  0  0  0  0  0  0  0  0  0
   20.8701  -20.4038  -12.0856 C   0  0  0  0  0  0  0  0  0  0  0  0
   20.9478  -20.5291  -10.8288 O   0  0  0  0  0  0  0  0  0  0  0  0
   19.1547  -24.5671  -14.6066 O   0  0  0  0  0  0  0  0  0  0  0  0
   20.0523  -19.3767  -12.5399 O   0  0  0  0  0  0  0  0  0  0  0  0
  2  1  1  6
  3  4  1  0
  3  2  1  0
  4  5  2  0
  4  8  1  0
  5  6  1  0
  6  7  1  0
  8  7  2  0
  9  2  1  0
  9 10  2  0
 11 12  1  0
 13 12  1  0
 14 13  1  0
 15 16  1  0
 15 14  1  1
 16  9  1  0
 17 15  1  0
 18 17  2  0
 19 17  1  0
 20 19  1  0
 20 21  1  1
 22 21  1  0
 22 23  1  0
 23 27  1  0
 23 24  2  0
 25 20  1  0
 25 28  1  0
 26 25  2  0
M  END
$$$$
