HME.pdb
     RDKit          3D

 28 28  0  0  1  0  0  0  0  0999 V2000
   16.5463  -11.0024  -13.4515 N   0  0  0  0  0  0  0  0  0  0  0  0
   17.6603  -10.2540  -13.9953 C   0  0  1  0  0  0  0  0  0  0  0  0
   17.2634   -9.7948  -15.3830 C   0  0  0  0  0  0  0  0  0  0  0  0
   17.2057  -10.9829  -16.2732 C   0  0  0  0  0  0  0  0  0  0  0  0
   18.2512  -11.6871  -16.8458 C   0  0  0  0  0  0  0  0  0  0  0  0
   17.7529  -12.6970  -17.5852 N   0  0  0  0  0  0  0  0  0  0  0  0
   16.4236  -12.6462  -17.4923 C   0  0  0  0  0  0  0  0  0  0  0  0
   16.0926  -11.6177  -16.7050 N   0  0  0  0  0  0  0  0  0  0  0  0
   17.9517   -9.1200  -13.0980 C   0  0  0  0  0  0  0  0  0  0  0  0
   16.9826   -8.5230  -12.5545 O   0  0  0  0  0  0  0  0  0  0  0  0
   22.2939   -6.6102   -7.3110 C   0  0  0  0  0  0  0  0  0  0  0  0
   22.1316   -7.7732   -8.6984 S   0  0  0  0  0  0  0  0  0  0  0  0
   20.8448   -7.0808   -9.7998 C   0  0  0  0  0  0  0  0  0  0  0  0
   20.5661   -8.0169  -10.9404 C   0  0  0  0  0  0  0  0  0  0  0  0
   19.4496   -7.6082  -11.8471 C   0  0  2  0  0  0  0  0  0  0  0  0
   19.2795   -8.6760  -12.8235 N   0  0  0  0  0  0  0  0  0  0  0  0
   19.7633   -6.3283  -12.5212 C   0  0  0  0  0  0  0  0  0  0  0  0
   20.5455   -6.2472  -13.4937 O   0  0  0  0  0  0  0  0  0  0  0  0
   19.1883   -5.0844  -12.1042 N   0  0  0  0  0  0  0  0  0  0  0  0
   18.7742   -4.0308  -12.9656 C   0  0  1  0  0  0  0  0  0  0  0  0
   17.7526   -4.3420  -13.9767 C   0  0  0  0  0  0  0  0  0  0  0  0
   17.2409   -3.2381  -14.8234 C   0  0  0  0  0  0  0  0  0  0  0  0
   17.2409   -3.4768  -16.2728 C   0  0  0  0  0  0  0  0  0  0  0  0
   17.5738   -4.6132  -16.6926 O   0  0  0  0  0  0  0  0  0  0  0  0
   18.4265   -2.8218  -12.1798 C   0  0  0  0  0  0  0  0  0  0  0  0
   18.6134   -1.6490  -12.6171 O   0  0  0  0  0  0  0  0  0  0  0  0
   16.8949   -2.5256  -17.2262 O   0  0  0  0  0  0  0  0  0  0  0  0
   17.8719   -2.9105  -10.9092 O   0  0  0  0  0  0  0  0  0  0  0  0
  2  1  1  1
  3  4  1  0
  3  2  1  0
  4  5  2  0
  4  8  1  0
  5  6  1  0
  6  7  1  0
  8  7  2  0
  9  2  1  0
  9 10  2  0
 11 12  1  0
 13 12  1  0
 14 13  1  0
 15 16  1  0
 15 14  1  1
 16  9  1  0
 17 15  1  0
 18 17  2  0
 19 17  1  0
 20 19  1  0
 20 21  1  1
 22 21  1  0
 22 23  1  0
 23 27  1  0
 23 24  2  0
 25 20  1  0
 25 28  1  0
 26 25  2  0
M  END
$$$$
