HME.pdb
     RDKit          3D

 28 28  0  0  1  0  0  0  0  0999 V2000
   19.4107  -13.5737  -17.7996 N   0  0  0  0  0  0  0  0  0  0  0  0
   19.3439  -12.1671  -18.1372 C   0  0  1  0  0  0  0  0  0  0  0  0
   17.9460  -11.6875  -17.8056 C   0  0  0  0  0  0  0  0  0  0  0  0
   17.4985  -12.3659  -16.5620 C   0  0  0  0  0  0  0  0  0  0  0  0
   18.1954  -13.2561  -15.7627 C   0  0  0  0  0  0  0  0  0  0  0  0
   17.4141  -13.6311  -14.7313 N   0  0  0  0  0  0  0  0  0  0  0  0
   16.2461  -13.0009  -14.8611 C   0  0  0  0  0  0  0  0  0  0  0  0
   16.2943  -12.2405  -15.9597 N   0  0  0  0  0  0  0  0  0  0  0  0
   20.3750  -11.4461  -17.3670 C   0  0  0  0  0  0  0  0  0  0  0  0
   20.6754  -11.8770  -16.2202 O   0  0  0  0  0  0  0  0  0  0  0  0
   26.4184  -10.1429  -14.7836 C   0  0  0  0  0  0  0  0  0  0  0  0
   24.8470  -10.6519  -15.5423 S   0  0  0  0  0  0  0  0  0  0  0  0
   24.6485   -9.6281  -17.0459 C   0  0  0  0  0  0  0  0  0  0  0  0
   23.3968  -10.0089  -17.7828 C   0  0  0  0  0  0  0  0  0  0  0  0
   22.1174   -9.7239  -17.0634 C   0  0  2  0  0  0  0  0  0  0  0  0
   21.0407  -10.2876  -17.8670 N   0  0  0  0  0  0  0  0  0  0  0  0
   21.9292   -8.2667  -16.8854 C   0  0  0  0  0  0  0  0  0  0  0  0
   21.7936   -7.4773  -17.8460 O   0  0  0  0  0  0  0  0  0  0  0  0
   21.8886   -7.6542  -15.5911 N   0  0  0  0  0  0  0  0  0  0  0  0
   21.6936   -6.2688  -15.3337 C   0  0  1  0  0  0  0  0  0  0  0  0
   20.3567   -5.7121  -15.5896 C   0  0  0  0  0  0  0  0  0  0  0  0
   20.1163   -4.2841  -15.2725 C   0  0  0  0  0  0  0  0  0  0  0  0
   20.4399   -3.3195  -16.3321 C   0  0  0  0  0  0  0  0  0  0  0  0
   20.0081   -3.5366  -17.4918 O   0  0  0  0  0  0  0  0  0  0  0  0
   22.1926   -5.9148  -13.9825 C   0  0  0  0  0  0  0  0  0  0  0  0
   22.2686   -4.7184  -13.5771 O   0  0  0  0  0  0  0  0  0  0  0  0
   21.1982   -2.1694  -16.1434 O   0  0  0  0  0  0  0  0  0  0  0  0
   22.6079   -6.8853  -13.0794 O   0  0  0  0  0  0  0  0  0  0  0  0
  2  1  1  1
  3  4  1  0
  3  2  1  0
  4  5  2  0
  4  8  1  0
  5  6  1  0
  6  7  1  0
  8  7  2  0
  9  2  1  0
  9 10  2  0
 11 12  1  0
 13 12  1  0
 14 13  1  0
 15 16  1  0
 15 14  1  6
 16  9  1  0
 17 15  1  0
 18 17  2  0
 19 17  1  0
 20 19  1  0
 20 21  1  1
 22 21  1  0
 22 23  1  0
 23 27  1  0
 23 24  2  0
 25 20  1  0
 25 28  1  0
 26 25  2  0
M  END
$$$$
