HME.pdb
     RDKit          3D

 28 28  0  0  1  0  0  0  0  0999 V2000
   27.9022  -21.7021  -15.7111 N   0  0  0  0  0  0  0  0  0  0  0  0
   27.4732  -20.5723  -14.9133 C   0  0  1  0  0  0  0  0  0  0  0  0
   26.8479  -19.5640  -15.8550 C   0  0  0  0  0  0  0  0  0  0  0  0
   27.9226  -18.9758  -16.6954 C   0  0  0  0  0  0  0  0  0  0  0  0
   28.3207  -19.3390  -17.9707 C   0  0  0  0  0  0  0  0  0  0  0  0
   29.3350  -18.5432  -18.3618 N   0  0  0  0  0  0  0  0  0  0  0  0
   29.5844  -17.6907  -17.3672 C   0  0  0  0  0  0  0  0  0  0  0  0
   28.7375  -17.9485  -16.3654 N   0  0  0  0  0  0  0  0  0  0  0  0
   26.5172  -21.0476  -13.8953 C   0  0  0  0  0  0  0  0  0  0  0  0
   25.6106  -21.8481  -14.2537 O   0  0  0  0  0  0  0  0  0  0  0  0
   26.4784  -19.1710   -7.8110 C   0  0  0  0  0  0  0  0  0  0  0  0
   27.4939  -20.6607   -8.0424 S   0  0  0  0  0  0  0  0  0  0  0  0
   27.1371  -21.2671   -9.7315 C   0  0  0  0  0  0  0  0  0  0  0  0
   25.8781  -20.6436  -10.2617 C   0  0  0  0  0  0  0  0  0  0  0  0
   25.4951  -21.0517  -11.6482 C   0  0  2  0  0  0  0  0  0  0  0  0
   26.5790  -20.6388  -12.5298 N   0  0  0  0  0  0  0  0  0  0  0  0
   24.2219  -20.4128  -12.0502 C   0  0  0  0  0  0  0  0  0  0  0  0
   24.1510  -19.2265  -12.4397 O   0  0  0  0  0  0  0  0  0  0  0  0
   22.9731  -21.1139  -12.0213 N   0  0  0  0  0  0  0  0  0  0  0  0
   21.7618  -20.6778  -12.6266 C   0  0  1  0  0  0  0  0  0  0  0  0
   21.6044  -20.9049  -14.0711 C   0  0  0  0  0  0  0  0  0  0  0  0
   21.4335  -19.7267  -14.9543 C   0  0  0  0  0  0  0  0  0  0  0  0
   21.5694  -19.9703  -16.3966 C   0  0  0  0  0  0  0  0  0  0  0  0
   21.8410  -21.1340  -16.7844 O   0  0  0  0  0  0  0  0  0  0  0  0
   20.5906  -21.1647  -11.8578 C   0  0  0  0  0  0  0  0  0  0  0  0
   19.4073  -20.7973  -12.1150 O   0  0  0  0  0  0  0  0  0  0  0  0
   21.4173  -18.9953  -17.3763 O   0  0  0  0  0  0  0  0  0  0  0  0
   20.7288  -22.0585  -10.8033 O   0  0  0  0  0  0  0  0  0  0  0  0
  2  1  1  6
  3  4  1  0
  3  2  1  0
  4  5  2  0
  4  8  1  0
  5  6  1  0
  6  7  1  0
  8  7  2  0
  9  2  1  0
  9 10  2  0
 11 12  1  0
 13 12  1  0
 14 13  1  0
 15 16  1  0
 15 14  1  1
 16  9  1  0
 17 15  1  0
 18 17  2  0
 19 17  1  0
 20 19  1  0
 20 21  1  6
 22 21  1  0
 22 23  1  0
 23 27  1  0
 23 24  2  0
 25 20  1  0
 25 28  1  0
 26 25  2  0
M  END
$$$$
