HME.pdb
     RDKit          3D

 28 28  0  0  1  0  0  0  0  0999 V2000
   24.2780  -19.6489  -17.1114 N   0  0  0  0  0  0  0  0  0  0  0  0
   23.0180  -19.0043  -16.8050 C   0  0  1  0  0  0  0  0  0  0  0  0
   22.2231  -18.9283  -18.0922 C   0  0  0  0  0  0  0  0  0  0  0  0
   22.8899  -17.9598  -19.0003 C   0  0  0  0  0  0  0  0  0  0  0  0
   22.6720  -16.5982  -19.1243 C   0  0  0  0  0  0  0  0  0  0  0  0
   23.4934  -16.1022  -20.0700 N   0  0  0  0  0  0  0  0  0  0  0  0
   24.2207  -17.1149  -20.5429 C   0  0  0  0  0  0  0  0  0  0  0  0
   23.8601  -18.2315  -19.9021 N   0  0  0  0  0  0  0  0  0  0  0  0
   22.3229  -19.7921  -15.7696 C   0  0  0  0  0  0  0  0  0  0  0  0
   22.2761  -21.0456  -15.9025 O   0  0  0  0  0  0  0  0  0  0  0  0
   20.4937  -20.2747   -8.2131 C   0  0  0  0  0  0  0  0  0  0  0  0
   21.0697  -19.2120   -9.5706 S   0  0  0  0  0  0  0  0  0  0  0  0
   20.7662  -20.1442  -11.1156 C   0  0  0  0  0  0  0  0  0  0  0  0
   21.3205  -19.4026  -12.2978 C   0  0  0  0  0  0  0  0  0  0  0  0
   21.1447  -20.0795  -13.6193 C   0  0  2  0  0  0  0  0  0  0  0  0
   21.7056  -19.1938  -14.6310 N   0  0  0  0  0  0  0  0  0  0  0  0
   19.7129  -20.3405  -13.8885 C   0  0  0  0  0  0  0  0  0  0  0  0
   18.9399  -19.4728  -14.3506 O   0  0  0  0  0  0  0  0  0  0  0  0
   19.1083  -21.6145  -13.6372 N   0  0  0  0  0  0  0  0  0  0  0  0
   17.7312  -21.9282  -13.8071 C   0  0  1  0  0  0  0  0  0  0  0  0
   17.3345  -23.3381  -13.6751 C   0  0  0  0  0  0  0  0  0  0  0  0
   15.9420  -23.7128  -14.0189 C   0  0  0  0  0  0  0  0  0  0  0  0
   15.6362  -25.1495  -14.0176 C   0  0  0  0  0  0  0  0  0  0  0  0
   16.5227  -25.9502  -13.6282 O   0  0  0  0  0  0  0  0  0  0  0  0
   16.8872  -21.0345  -12.9771 C   0  0  0  0  0  0  0  0  0  0  0  0
   17.1898  -20.7233  -11.7884 O   0  0  0  0  0  0  0  0  0  0  0  0
   14.4224  -25.6953  -14.4206 O   0  0  0  0  0  0  0  0  0  0  0  0
   15.7072  -20.4849  -13.4626 O   0  0  0  0  0  0  0  0  0  0  0  0
  2  1  1  6
  3  4  1  0
  3  2  1  0
  4  5  2  0
  4  8  1  0
  5  6  1  0
  6  7  1  0
  8  7  2  0
  9  2  1  0
  9 10  2  0
 11 12  1  0
 13 12  1  0
 14 13  1  0
 15 16  1  0
 15 14  1  1
 16  9  1  0
 17 15  1  0
 18 17  2  0
 19 17  1  0
 20 19  1  0
 20 21  1  1
 22 21  1  0
 22 23  1  0
 23 27  1  0
 23 24  2  0
 25 20  1  0
 25 28  1  0
 26 25  2  0
M  END
$$$$
