FTD.pdb
     RDKit          3D

 27 27  0  0  1  0  0  0  0  0999 V2000
    5.7169  -16.8944   25.7193 N   0  0  0  0  0  0  0  0  0  0  0  0
    6.6302  -15.9068   25.1754 C   0  0  1  0  0  0  0  0  0  0  0  0
    7.3120  -15.2226   26.3200 C   0  0  0  0  0  0  0  0  0  0  0  0
    6.8277  -13.8047   26.3802 C   0  0  0  0  0  0  0  0  0  0  0  0
    5.6061  -13.4842   26.9450 C   0  0  0  0  0  0  0  0  0  0  0  0
    5.1663  -12.1744   26.9969 C   0  0  0  0  0  0  0  0  0  0  0  0
    5.9331  -11.1487   26.4869 C   0  0  0  0  0  0  0  0  0  0  0  0
    7.1510  -11.4838   25.9258 C   0  0  0  0  0  0  0  0  0  0  0  0
    7.6031  -12.7880   25.8671 C   0  0  0  0  0  0  0  0  0  0  0  0
    7.6423  -16.5403   24.2830 C   0  0  0  0  0  0  0  0  0  0  0  0
    8.0619  -17.7096   24.4337 O   0  0  0  0  0  0  0  0  0  0  0  0
    7.3469  -15.4021   20.6449 C   0  0  0  0  0  0  0  0  0  0  0  0
    8.8029  -15.5201   20.9456 C   0  0  1  0  0  0  0  0  0  0  0  0
    9.4609  -14.3282   21.0703 O   0  0  0  0  0  0  0  0  0  0  0  0
    9.0681  -16.3444   22.2084 C   0  0  2  0  0  0  0  0  0  0  0  0
    8.1648  -15.7856   23.2008 N   0  0  0  0  0  0  0  0  0  0  0  0
   10.4635  -16.3277   22.6298 C   0  0  0  0  0  0  0  0  0  0  0  0
   10.9205  -15.4258   23.3790 O   0  0  0  0  0  0  0  0  0  0  0  0
   11.3578  -17.3370   22.2057 N   0  0  0  0  0  0  0  0  0  0  0  0
   12.7713  -17.3431   22.5979 C   0  0  1  0  0  0  0  0  0  0  0  0
   13.3221  -18.7299   22.5652 C   0  0  0  0  0  0  0  0  0  0  0  0
   12.7329  -19.6079   23.5848 C   0  0  0  0  0  0  0  0  0  0  0  0
   12.6122  -19.3022   24.7814 O   0  0  0  0  0  0  0  0  0  0  0  0
   13.5248  -16.5026   21.6306 C   0  0  0  0  0  0  0  0  0  0  0  0
   14.7293  -16.1919   21.7666 O   0  0  0  0  0  0  0  0  0  0  0  0
   12.2811  -20.8600   23.1896 O   0  0  0  0  0  0  0  0  0  0  0  0
   12.8742  -16.0214   20.4998 O   0  0  0  0  0  0  0  0  0  0  0  0
  2 10  1  0
  2  1  1  1
  3  2  1  0
  4  9  2  0
  4  3  1  0
  5  4  1  0
  6  7  1  0
  6  5  2  0
  7  8  2  0
  8  9  1  0
 10 11  2  0
 13 12  1  1
 13 14  1  0
 15 13  1  0
 16 10  1  0
 15 16  1  1
 17 18  2  0
 17 15  1  0
 19 17  1  0
 20 19  1  0
 20 21  1  6
 22 26  1  0
 22 21  1  0
 23 22  2  0
 24 20  1  0
 24 27  1  0
 25 24  2  0
M  END
$$$$
