FTD.pdb
     RDKit          3D

 27 27  0  0  1  0  0  0  0  0999 V2000
    5.6137  -17.0656   25.4982 N   0  0  0  0  0  0  0  0  0  0  0  0
    6.6492  -16.1420   25.0740 C   0  0  1  0  0  0  0  0  0  0  0  0
    7.2928  -15.5693   26.2991 C   0  0  0  0  0  0  0  0  0  0  0  0
    7.0280  -14.0936   26.3270 C   0  0  0  0  0  0  0  0  0  0  0  0
    8.0120  -13.1789   25.9967 C   0  0  0  0  0  0  0  0  0  0  0  0
    7.7604  -11.8196   26.0248 C   0  0  0  0  0  0  0  0  0  0  0  0
    6.5204  -11.3358   26.3830 C   0  0  0  0  0  0  0  0  0  0  0  0
    5.5472  -12.2611   26.7104 C   0  0  0  0  0  0  0  0  0  0  0  0
    5.7845  -13.6220   26.6868 C   0  0  0  0  0  0  0  0  0  0  0  0
    7.6716  -16.8259   24.2321 C   0  0  0  0  0  0  0  0  0  0  0  0
    8.1423  -17.9550   24.4965 O   0  0  0  0  0  0  0  0  0  0  0  0
   10.1700  -16.2820   19.9526 C   0  0  0  0  0  0  0  0  0  0  0  0
    9.1211  -15.8892   20.9373 C   0  0  1  0  0  0  0  0  0  0  0  0
    7.8388  -15.9621   20.4687 O   0  0  0  0  0  0  0  0  0  0  0  0
    9.2031  -16.7086   22.2282 C   0  0  2  0  0  0  0  0  0  0  0  0
    8.1439  -16.1704   23.0656 N   0  0  0  0  0  0  0  0  0  0  0  0
   10.5147  -16.6621   22.8626 C   0  0  0  0  0  0  0  0  0  0  0  0
   11.0427  -15.5766   23.2180 O   0  0  0  0  0  0  0  0  0  0  0  0
   11.2432  -17.8497   23.1023 N   0  0  0  0  0  0  0  0  0  0  0  0
   12.5629  -17.8404   23.7428 C   0  0  1  0  0  0  0  0  0  0  0  0
   12.8142  -19.1293   24.4522 C   0  0  0  0  0  0  0  0  0  0  0  0
   12.1060  -19.2280   25.7354 C   0  0  0  0  0  0  0  0  0  0  0  0
   11.4706  -18.2965   26.2535 O   0  0  0  0  0  0  0  0  0  0  0  0
   13.5914  -17.6652   22.6838 C   0  0  0  0  0  0  0  0  0  0  0  0
   14.7447  -17.2291   22.8967 O   0  0  0  0  0  0  0  0  0  0  0  0
   12.1474  -20.4380   26.4154 O   0  0  0  0  0  0  0  0  0  0  0  0
   13.2766  -17.9987   21.3710 O   0  0  0  0  0  0  0  0  0  0  0  0
  2 10  1  0
  2  1  1  1
  3  2  1  0
  4  9  2  0
  4  3  1  0
  5  4  1  0
  6  7  1  0
  6  5  2  0
  7  8  2  0
  8  9  1  0
 10 11  2  0
 13 12  1  6
 13 14  1  0
 15 13  1  0
 16 10  1  0
 15 16  1  1
 17 18  2  0
 17 15  1  0
 19 17  1  0
 20 19  1  0
 20 21  1  6
 22 26  1  0
 22 21  1  0
 23 22  2  0
 24 20  1  0
 24 27  1  0
 25 24  2  0
M  END
$$$$
