FTD.pdb
     RDKit          3D

 27 27  0  0  1  0  0  0  0  0999 V2000
    6.3474  -16.5718   25.8064 N   0  0  0  0  0  0  0  0  0  0  0  0
    6.8467  -15.6288   24.8232 C   0  0  1  0  0  0  0  0  0  0  0  0
    7.7557  -14.6650   25.5218 C   0  0  0  0  0  0  0  0  0  0  0  0
    6.9212  -13.5611   26.0994 C   0  0  0  0  0  0  0  0  0  0  0  0
    7.5003  -12.4799   26.7394 C   0  0  0  0  0  0  0  0  0  0  0  0
    6.7242  -11.4658   27.2695 C   0  0  0  0  0  0  0  0  0  0  0  0
    5.3495  -11.5026   27.1757 C   0  0  0  0  0  0  0  0  0  0  0  0
    4.7850  -12.5887   26.5337 C   0  0  0  0  0  0  0  0  0  0  0  0
    5.5479  -13.6092   25.9993 C   0  0  0  0  0  0  0  0  0  0  0  0
    7.5838  -16.3261   23.7312 C   0  0  0  0  0  0  0  0  0  0  0  0
    7.2242  -17.4212   23.2437 O   0  0  0  0  0  0  0  0  0  0  0  0
    6.9465  -16.2621   21.2107 C   0  0  0  0  0  0  0  0  0  0  0  0
    8.2927  -15.7025   20.8966 C   0  0  1  0  0  0  0  0  0  0  0  0
    8.3306  -14.3427   20.7601 O   0  0  0  0  0  0  0  0  0  0  0  0
    9.3438  -16.1060   21.9343 C   0  0  2  0  0  0  0  0  0  0  0  0
    8.7581  -15.7246   23.2088 N   0  0  0  0  0  0  0  0  0  0  0  0
   10.6506  -15.5036   21.7010 C   0  0  0  0  0  0  0  0  0  0  0  0
   10.8485  -14.2693   21.8454 O   0  0  0  0  0  0  0  0  0  0  0  0
   11.7503  -16.2970   21.3013 N   0  0  0  0  0  0  0  0  0  0  0  0
   12.9873  -16.3692   22.0864 C   0  0  1  0  0  0  0  0  0  0  0  0
   12.7095  -16.8716   23.4641 C   0  0  0  0  0  0  0  0  0  0  0  0
   13.9172  -16.9747   24.2940 C   0  0  0  0  0  0  0  0  0  0  0  0
   15.0571  -16.6764   23.9047 O   0  0  0  0  0  0  0  0  0  0  0  0
   13.9134  -17.3133   21.4072 C   0  0  0  0  0  0  0  0  0  0  0  0
   13.6180  -18.4946   21.1194 O   0  0  0  0  0  0  0  0  0  0  0  0
   13.7797  -17.4345   25.5969 O   0  0  0  0  0  0  0  0  0  0  0  0
   15.1890  -16.8810   21.0614 O   0  0  0  0  0  0  0  0  0  0  0  0
  2 10  1  0
  2  1  1  1
  3  2  1  0
  4  9  2  0
  4  3  1  0
  5  4  1  0
  6  7  1  0
  6  5  2  0
  7  8  2  0
  8  9  1  0
 10 11  2  0
 13 12  1  1
 13 14  1  0
 15 13  1  0
 16 10  1  0
 15 16  1  1
 17 18  2  0
 17 15  1  0
 19 17  1  0
 20 19  1  0
 20 21  1  1
 22 26  1  0
 22 21  1  0
 23 22  2  0
 24 20  1  0
 24 27  1  0
 25 24  2  0
M  END
$$$$
