FTD.pdb
     RDKit          3D

 27 27  0  0  1  0  0  0  0  0999 V2000
    5.7616  -16.3415   24.5397 N   0  0  0  0  0  0  0  0  0  0  0  0
    7.0553  -15.7087   24.3631 C   0  0  1  0  0  0  0  0  0  0  0  0
    7.5591  -15.2945   25.7113 C   0  0  0  0  0  0  0  0  0  0  0  0
    7.0404  -13.9192   26.0084 C   0  0  0  0  0  0  0  0  0  0  0  0
    7.8193  -12.7950   25.7998 C   0  0  0  0  0  0  0  0  0  0  0  0
    7.3340  -11.5302   26.0762 C   0  0  0  0  0  0  0  0  0  0  0  0
    6.0587  -11.3523   26.5681 C   0  0  0  0  0  0  0  0  0  0  0  0
    5.2922  -12.4843   26.7715 C   0  0  0  0  0  0  0  0  0  0  0  0
    5.7639  -13.7542   26.4998 C   0  0  0  0  0  0  0  0  0  0  0  0
    8.0271  -16.6365   23.7176 C   0  0  0  0  0  0  0  0  0  0  0  0
    7.7022  -17.7301   23.2033 O   0  0  0  0  0  0  0  0  0  0  0  0
    8.4314  -17.0946   21.1891 C   0  0  0  0  0  0  0  0  0  0  0  0
    9.8218  -16.5902   21.3806 C   0  0  1  0  0  0  0  0  0  0  0  0
    9.9851  -15.2542   21.1409 O   0  0  0  0  0  0  0  0  0  0  0  0
   10.3587  -16.8911   22.7826 C   0  0  2  0  0  0  0  0  0  0  0  0
    9.3974  -16.2697   23.6786 N   0  0  0  0  0  0  0  0  0  0  0  0
   11.7235  -16.4246   22.9938 C   0  0  0  0  0  0  0  0  0  0  0  0
   12.0126  -15.2000   23.0063 O   0  0  0  0  0  0  0  0  0  0  0  0
   12.7780  -17.3446   23.1945 N   0  0  0  0  0  0  0  0  0  0  0  0
   13.9628  -17.0123   23.9929 C   0  0  1  0  0  0  0  0  0  0  0  0
   14.4689  -18.2176   24.7132 C   0  0  0  0  0  0  0  0  0  0  0  0
   13.5010  -18.7629   25.6743 C   0  0  0  0  0  0  0  0  0  0  0  0
   12.9086  -18.0837   26.5273 O   0  0  0  0  0  0  0  0  0  0  0  0
   15.0212  -16.5226   23.0710 C   0  0  0  0  0  0  0  0  0  0  0  0
   14.9207  -16.5356   21.8238 O   0  0  0  0  0  0  0  0  0  0  0  0
   13.2283  -20.1237   25.6293 O   0  0  0  0  0  0  0  0  0  0  0  0
   16.2019  -16.0154   23.6024 O   0  0  0  0  0  0  0  0  0  0  0  0
  2 10  1  0
  2  1  1  1
  3  2  1  0
  4  9  2  0
  4  3  1  0
  5  4  1  0
  6  7  1  0
  6  5  2  0
  7  8  2  0
  8  9  1  0
 10 11  2  0
 13 12  1  1
 13 14  1  0
 15 13  1  0
 16 10  1  0
 15 16  1  1
 17 18  2  0
 17 15  1  0
 19 17  1  0
 20 19  1  0
 20 21  1  6
 22 26  1  0
 22 21  1  0
 23 22  2  0
 24 20  1  0
 24 27  1  0
 25 24  2  0
M  END
$$$$
