FTD.pdb
     RDKit          3D

 27 27  0  0  1  0  0  0  0  0999 V2000
    5.9598  -15.7207   22.2220 N   0  0  0  0  0  0  0  0  0  0  0  0
    7.2908  -15.1430   22.2240 C   0  0  1  0  0  0  0  0  0  0  0  0
    7.1708  -13.6955   21.8589 C   0  0  0  0  0  0  0  0  0  0  0  0
    7.2764  -13.5731   20.3681 C   0  0  0  0  0  0  0  0  0  0  0  0
    7.1445  -12.3502   19.7347 C   0  0  0  0  0  0  0  0  0  0  0  0
    7.2431  -12.2452   18.3596 C   0  0  0  0  0  0  0  0  0  0  0  0
    7.4759  -13.3571   17.5788 C   0  0  0  0  0  0  0  0  0  0  0  0
    7.6055  -14.5719   18.2252 C   0  0  0  0  0  0  0  0  0  0  0  0
    7.5093  -14.6917   19.5983 C   0  0  0  0  0  0  0  0  0  0  0  0
    7.9377  -15.2808   23.5599 C   0  0  0  0  0  0  0  0  0  0  0  0
    7.6077  -14.6064   24.5610 O   0  0  0  0  0  0  0  0  0  0  0  0
    7.3473  -16.0634   26.0152 C   0  0  0  0  0  0  0  0  0  0  0  0
    8.4408  -17.0643   25.8519 C   0  0  1  0  0  0  0  0  0  0  0  0
    8.0468  -18.2630   25.3255 O   0  0  0  0  0  0  0  0  0  0  0  0
    9.5947  -16.5273   25.0007 C   0  0  2  0  0  0  0  0  0  0  0  0
    8.9856  -16.2250   23.7160 N   0  0  0  0  0  0  0  0  0  0  0  0
   10.7189  -17.4496   24.8989 C   0  0  0  0  0  0  0  0  0  0  0  0
   10.5985  -18.5890   24.3787 O   0  0  0  0  0  0  0  0  0  0  0  0
   11.9956  -17.0882   25.3868 N   0  0  0  0  0  0  0  0  0  0  0  0
   13.1617  -17.9675   25.2493 C   0  0  1  0  0  0  0  0  0  0  0  0
   14.4114  -17.1663   25.0939 C   0  0  0  0  0  0  0  0  0  0  0  0
   14.3223  -16.1614   24.0261 C   0  0  0  0  0  0  0  0  0  0  0  0
   13.8592  -16.3848   22.8967 O   0  0  0  0  0  0  0  0  0  0  0  0
   13.2687  -18.7924   26.4814 C   0  0  0  0  0  0  0  0  0  0  0  0
   14.0052  -19.7986   26.5856 O   0  0  0  0  0  0  0  0  0  0  0  0
   14.7841  -14.8793   24.2925 O   0  0  0  0  0  0  0  0  0  0  0  0
   12.5153  -18.4452   27.5974 O   0  0  0  0  0  0  0  0  0  0  0  0
  2 10  1  0
  2  1  1  1
  3  2  1  0
  4  9  2  0
  4  3  1  0
  5  4  1  0
  6  7  1  0
  6  5  2  0
  7  8  2  0
  8  9  1  0
 10 11  2  0
 13 12  1  6
 13 14  1  0
 15 13  1  0
 16 10  1  0
 15 16  1  6
 17 18  2  0
 17 15  1  0
 19 17  1  0
 20 19  1  0
 20 21  1  1
 22 26  1  0
 22 21  1  0
 23 22  2  0
 24 20  1  0
 24 27  1  0
 25 24  2  0
M  END
$$$$
