FTD.pdb
     RDKit          3D

 27 27  0  0  1  0  0  0  0  0999 V2000
    5.7461  -16.7423   24.9500 N   0  0  0  0  0  0  0  0  0  0  0  0
    6.9721  -15.9844   24.7835 C   0  0  1  0  0  0  0  0  0  0  0  0
    7.3241  -15.3721   26.1042 C   0  0  0  0  0  0  0  0  0  0  0  0
    7.0000  -13.9090   26.0491 C   0  0  0  0  0  0  0  0  0  0  0  0
    5.7476  -13.4351   26.3971 C   0  0  0  0  0  0  0  0  0  0  0  0
    5.4563  -12.0846   26.3437 C   0  0  0  0  0  0  0  0  0  0  0  0
    6.4061  -11.1701   25.9419 C   0  0  0  0  0  0  0  0  0  0  0  0
    7.6526  -11.6579   25.5973 C   0  0  0  0  0  0  0  0  0  0  0  0
    7.9578  -13.0045   25.6458 C   0  0  0  0  0  0  0  0  0  0  0  0
    8.0859  -16.8553   24.3113 C   0  0  0  0  0  0  0  0  0  0  0  0
    8.2722  -18.0230   24.7211 O   0  0  0  0  0  0  0  0  0  0  0  0
    8.9990  -16.6423   20.5945 C   0  0  0  0  0  0  0  0  0  0  0  0
   10.2673  -16.5852   21.3770 C   0  0  1  0  0  0  0  0  0  0  0  0
   10.8380  -15.3452   21.4541 O   0  0  0  0  0  0  0  0  0  0  0  0
   10.0928  -17.1179   22.8019 C   0  0  2  0  0  0  0  0  0  0  0  0
    8.9897  -16.3426   23.3449 N   0  0  0  0  0  0  0  0  0  0  0  0
   11.3052  -17.0307   23.6066 C   0  0  0  0  0  0  0  0  0  0  0  0
   11.7084  -15.9386   24.0843 O   0  0  0  0  0  0  0  0  0  0  0  0
   12.0751  -18.1846   23.8796 N   0  0  0  0  0  0  0  0  0  0  0  0
   13.3050  -18.1320   24.6773 C   0  0  1  0  0  0  0  0  0  0  0  0
   13.4851  -19.3941   25.4532 C   0  0  0  0  0  0  0  0  0  0  0  0
   12.4805  -19.5685   26.5107 C   0  0  0  0  0  0  0  0  0  0  0  0
   12.2697  -18.7437   27.4136 O   0  0  0  0  0  0  0  0  0  0  0  0
   14.4541  -17.9698   23.7481 C   0  0  0  0  0  0  0  0  0  0  0  0
   15.6231  -17.7238   24.1204 O   0  0  0  0  0  0  0  0  0  0  0  0
   11.7161  -20.7276   26.5038 O   0  0  0  0  0  0  0  0  0  0  0  0
   14.2422  -18.0944   22.3795 O   0  0  0  0  0  0  0  0  0  0  0  0
  2 10  1  0
  2  1  1  1
  3  2  1  0
  4  9  2  0
  4  3  1  0
  5  4  1  0
  6  7  1  0
  6  5  2  0
  7  8  2  0
  8  9  1  0
 10 11  2  0
 13 12  1  1
 13 14  1  0
 15 13  1  0
 16 10  1  0
 15 16  1  1
 17 18  2  0
 17 15  1  0
 19 17  1  0
 20 19  1  0
 20 21  1  6
 22 26  1  0
 22 21  1  0
 23 22  2  0
 24 20  1  0
 24 27  1  0
 25 24  2  0
M  END
$$$$
