FTD.pdb
     RDKit          3D

 27 27  0  0  1  0  0  0  0  0999 V2000
    6.3119  -16.0958   25.9648 N   0  0  0  0  0  0  0  0  0  0  0  0
    7.1223  -15.3584   25.0137 C   0  0  1  0  0  0  0  0  0  0  0  0
    8.0604  -14.4804   25.7832 C   0  0  0  0  0  0  0  0  0  0  0  0
    7.3000  -13.2796   26.2612 C   0  0  0  0  0  0  0  0  0  0  0  0
    6.9229  -13.1461   27.5856 C   0  0  0  0  0  0  0  0  0  0  0  0
    6.2220  -12.0359   28.0189 C   0  0  0  0  0  0  0  0  0  0  0  0
    5.8780  -11.0286   27.1430 C   0  0  0  0  0  0  0  0  0  0  0  0
    6.2613  -11.1755   25.8232 C   0  0  0  0  0  0  0  0  0  0  0  0
    6.9620  -12.2793   25.3762 C   0  0  0  0  0  0  0  0  0  0  0  0
    7.8932  -16.2801   24.1316 C   0  0  0  0  0  0  0  0  0  0  0  0
    8.2756  -17.4178   24.4858 O   0  0  0  0  0  0  0  0  0  0  0  0
    7.3432  -15.9727   20.2669 C   0  0  0  0  0  0  0  0  0  0  0  0
    8.8070  -16.0494   20.5417 C   0  0  1  0  0  0  0  0  0  0  0  0
    9.4801  -14.8683   20.3964 O   0  0  0  0  0  0  0  0  0  0  0  0
    9.1054  -16.5981   21.9397 C   0  0  2  0  0  0  0  0  0  0  0  0
    8.2165  -15.8545   22.8170 N   0  0  0  0  0  0  0  0  0  0  0  0
   10.5087  -16.4881   22.3189 C   0  0  0  0  0  0  0  0  0  0  0  0
   11.0024  -15.4068   22.7320 O   0  0  0  0  0  0  0  0  0  0  0  0
   11.3693  -17.6064   22.2342 N   0  0  0  0  0  0  0  0  0  0  0  0
   12.7411  -17.5771   22.7527 C   0  0  1  0  0  0  0  0  0  0  0  0
   12.9612  -18.6868   23.7262 C   0  0  0  0  0  0  0  0  0  0  0  0
   12.6867  -20.0137   23.1588 C   0  0  0  0  0  0  0  0  0  0  0  0
   12.2616  -20.2048   22.0087 O   0  0  0  0  0  0  0  0  0  0  0  0
   13.6737  -17.7489   21.6078 C   0  0  0  0  0  0  0  0  0  0  0  0
   14.9187  -17.6698   21.7041 O   0  0  0  0  0  0  0  0  0  0  0  0
   12.9158  -21.1274   23.9557 O   0  0  0  0  0  0  0  0  0  0  0  0
   13.1553  -18.0139   20.3450 O   0  0  0  0  0  0  0  0  0  0  0  0
  2 10  1  0
  2  1  1  1
  3  2  1  0
  4  9  2  0
  4  3  1  0
  5  4  1  0
  6  7  1  0
  6  5  2  0
  7  8  2  0
  8  9  1  0
 10 11  2  0
 13 12  1  1
 13 14  1  0
 15 13  1  0
 16 10  1  0
 15 16  1  1
 17 18  2  0
 17 15  1  0
 19 17  1  0
 20 19  1  0
 20 21  1  1
 22 26  1  0
 22 21  1  0
 23 22  2  0
 24 20  1  0
 24 27  1  0
 25 24  2  0
M  END
$$$$
