FTD.pdb
     RDKit          3D

 27 27  0  0  1  0  0  0  0  0999 V2000
    7.5846  -16.1742   26.4276 N   0  0  0  0  0  0  0  0  0  0  0  0
    6.5716  -16.4524   25.4267 C   0  0  1  0  0  0  0  0  0  0  0  0
    5.5351  -15.3738   25.5008 C   0  0  0  0  0  0  0  0  0  0  0  0
    6.2062  -14.1005   25.9217 C   0  0  0  0  0  0  0  0  0  0  0  0
    5.4874  -13.0568   26.4767 C   0  0  0  0  0  0  0  0  0  0  0  0
    6.1133  -11.8858   26.8623 C   0  0  0  0  0  0  0  0  0  0  0  0
    7.4731  -11.7240   26.7049 C   0  0  0  0  0  0  0  0  0  0  0  0
    8.1782  -12.7749   26.1492 C   0  0  0  0  0  0  0  0  0  0  0  0
    7.5661  -13.9506   25.7592 C   0  0  0  0  0  0  0  0  0  0  0  0
    7.1621  -16.5002   24.0589 C   0  0  0  0  0  0  0  0  0  0  0  0
    6.4796  -16.5874   23.0136 O   0  0  0  0  0  0  0  0  0  0  0  0
    7.1877  -15.3797   21.7438 C   0  0  0  0  0  0  0  0  0  0  0  0
    8.6733  -15.3131   21.8559 C   0  0  1  0  0  0  0  0  0  0  0  0
    9.1550  -14.1621   22.4147 O   0  0  0  0  0  0  0  0  0  0  0  0
    9.2485  -16.4979   22.6369 C   0  0  2  0  0  0  0  0  0  0  0  0
    8.5735  -16.4445   23.9232 N   0  0  0  0  0  0  0  0  0  0  0  0
   10.7014  -16.4677   22.7505 C   0  0  0  0  0  0  0  0  0  0  0  0
   11.2938  -15.6265   23.4751 O   0  0  0  0  0  0  0  0  0  0  0  0
   11.5004  -17.3942   22.0422 N   0  0  0  0  0  0  0  0  0  0  0  0
   12.9406  -17.5297   22.2854 C   0  0  1  0  0  0  0  0  0  0  0  0
   13.4205  -18.8817   21.8738 C   0  0  0  0  0  0  0  0  0  0  0  0
   12.7823  -19.9722   22.6230 C   0  0  0  0  0  0  0  0  0  0  0  0
   12.8368  -20.0944   23.8567 O   0  0  0  0  0  0  0  0  0  0  0  0
   13.6465  -16.5013   21.4767 C   0  0  0  0  0  0  0  0  0  0  0  0
   13.1027  -15.8331   20.5693 O   0  0  0  0  0  0  0  0  0  0  0  0
   12.0721  -20.9291   21.9103 O   0  0  0  0  0  0  0  0  0  0  0  0
   14.9913  -16.2491   21.7248 O   0  0  0  0  0  0  0  0  0  0  0  0
  2 10  1  0
  2  1  1  1
  3  2  1  0
  4  9  2  0
  4  3  1  0
  5  4  1  0
  6  7  1  0
  6  5  2  0
  7  8  2  0
  8  9  1  0
 10 11  2  0
 13 12  1  1
 13 14  1  0
 15 13  1  0
 16 10  1  0
 15 16  1  1
 17 18  2  0
 17 15  1  0
 19 17  1  0
 20 19  1  0
 20 21  1  6
 22 26  1  0
 22 21  1  0
 23 22  2  0
 24 20  1  0
 24 27  1  0
 25 24  2  0
M  END
$$$$
