FTD.pdb
     RDKit          3D

 27 27  0  0  1  0  0  0  0  0999 V2000
    5.7068  -17.4758   26.1512 N   0  0  0  0  0  0  0  0  0  0  0  0
    6.4831  -16.3779   25.6059 C   0  0  1  0  0  0  0  0  0  0  0  0
    7.3451  -15.8284   26.7004 C   0  0  0  0  0  0  0  0  0  0  0  0
    7.3606  -14.3333   26.5853 C   0  0  0  0  0  0  0  0  0  0  0  0
    6.2276  -13.5798   26.8353 C   0  0  0  0  0  0  0  0  0  0  0  0
    6.2497  -12.2016   26.7271 C   0  0  0  0  0  0  0  0  0  0  0  0
    7.4025  -11.5375   26.3665 C   0  0  0  0  0  0  0  0  0  0  0  0
    8.5265  -12.3031   26.1198 C   0  0  0  0  0  0  0  0  0  0  0  0
    8.5190  -13.6808   26.2240 C   0  0  0  0  0  0  0  0  0  0  0  0
    7.3308  -16.8293   24.4659 C   0  0  0  0  0  0  0  0  0  0  0  0
    7.8492  -17.9662   24.3972 O   0  0  0  0  0  0  0  0  0  0  0  0
    7.8613  -13.9640   21.3995 C   0  0  0  0  0  0  0  0  0  0  0  0
    7.7881  -15.4235   21.1017 C   0  0  1  0  0  0  0  0  0  0  0  0
    8.3890  -15.8010   19.9332 O   0  0  0  0  0  0  0  0  0  0  0  0
    8.3710  -16.2750   22.2331 C   0  0  2  0  0  0  0  0  0  0  0  0
    7.5694  -15.9290   23.3953 N   0  0  0  0  0  0  0  0  0  0  0  0
    9.7990  -16.0669   22.4393 C   0  0  0  0  0  0  0  0  0  0  0  0
   10.2388  -15.1014   23.1159 O   0  0  0  0  0  0  0  0  0  0  0  0
   10.7462  -16.9547   21.8796 N   0  0  0  0  0  0  0  0  0  0  0  0
   12.1851  -16.8216   22.1314 C   0  0  1  0  0  0  0  0  0  0  0  0
   12.8061  -18.1588   22.3637 C   0  0  0  0  0  0  0  0  0  0  0  0
   13.0231  -18.4537   23.7864 C   0  0  0  0  0  0  0  0  0  0  0  0
   12.7872  -17.6556   24.7068 O   0  0  0  0  0  0  0  0  0  0  0  0
   12.8105  -16.2019   20.9335 C   0  0  0  0  0  0  0  0  0  0  0  0
   12.2296  -16.0688   19.8333 O   0  0  0  0  0  0  0  0  0  0  0  0
   13.5235  -19.7032   24.1277 O   0  0  0  0  0  0  0  0  0  0  0  0
   14.1176  -15.7348   21.0161 O   0  0  0  0  0  0  0  0  0  0  0  0
  2 10  1  0
  2  1  1  1
  3  2  1  0
  4  9  2  0
  4  3  1  0
  5  4  1  0
  6  7  1  0
  6  5  2  0
  7  8  2  0
  8  9  1  0
 10 11  2  0
 13 12  1  1
 13 14  1  0
 15 13  1  0
 16 10  1  0
 15 16  1  1
 17 18  2  0
 17 15  1  0
 19 17  1  0
 20 19  1  0
 20 21  1  6
 22 26  1  0
 22 21  1  0
 23 22  2  0
 24 20  1  0
 24 27  1  0
 25 24  2  0
M  END
$$$$
