FTD.pdb
     RDKit          3D

 27 27  0  0  1  0  0  0  0  0999 V2000
    5.3822  -17.6478   24.8377 N   0  0  0  0  0  0  0  0  0  0  0  0
    6.2845  -16.5420   24.5768 C   0  0  1  0  0  0  0  0  0  0  0  0
    6.9320  -16.1540   25.8703 C   0  0  0  0  0  0  0  0  0  0  0  0
    6.8238  -14.6666   26.0265 C   0  0  0  0  0  0  0  0  0  0  0  0
    6.7101  -14.0797   27.2741 C   0  0  0  0  0  0  0  0  0  0  0  0
    6.6108  -12.7074   27.4101 C   0  0  0  0  0  0  0  0  0  0  0  0
    6.6222  -11.8831   26.3054 C   0  0  0  0  0  0  0  0  0  0  0  0
    6.7364  -12.4833   25.0656 C   0  0  0  0  0  0  0  0  0  0  0  0
    6.8364  -13.8530   24.9146 C   0  0  0  0  0  0  0  0  0  0  0  0
    7.3247  -16.9175   23.5773 C   0  0  0  0  0  0  0  0  0  0  0  0
    7.2521  -17.9352   22.8526 O   0  0  0  0  0  0  0  0  0  0  0  0
    7.3055  -16.8082   21.0223 C   0  0  0  0  0  0  0  0  0  0  0  0
    8.4833  -15.8951   21.0803 C   0  0  1  0  0  0  0  0  0  0  0  0
    8.1768  -14.5628   21.0701 O   0  0  0  0  0  0  0  0  0  0  0  0
    9.3694  -16.1702   22.2983 C   0  0  2  0  0  0  0  0  0  0  0  0
    8.4631  -16.0829   23.4314 N   0  0  0  0  0  0  0  0  0  0  0  0
   10.5076  -15.2656   22.4040 C   0  0  0  0  0  0  0  0  0  0  0  0
   10.3757  -14.0735   22.7848 O   0  0  0  0  0  0  0  0  0  0  0  0
   11.8114  -15.7047   22.0788 N   0  0  0  0  0  0  0  0  0  0  0  0
   12.8223  -15.9779   23.1060 C   0  0  1  0  0  0  0  0  0  0  0  0
   12.3374  -17.0182   24.0601 C   0  0  0  0  0  0  0  0  0  0  0  0
   13.3366  -17.3800   25.0744 C   0  0  0  0  0  0  0  0  0  0  0  0
   13.8648  -16.5695   25.8516 O   0  0  0  0  0  0  0  0  0  0  0  0
   14.0477  -16.4786   22.4295 C   0  0  0  0  0  0  0  0  0  0  0  0
   14.0717  -17.4822   21.6826 O   0  0  0  0  0  0  0  0  0  0  0  0
   13.7171  -18.7117   25.1736 O   0  0  0  0  0  0  0  0  0  0  0  0
   15.2508  -15.8086   22.6229 O   0  0  0  0  0  0  0  0  0  0  0  0
  2 10  1  0
  2  1  1  1
  3  2  1  0
  4  9  2  0
  4  3  1  0
  5  4  1  0
  6  7  1  0
  6  5  2  0
  7  8  2  0
  8  9  1  0
 10 11  2  0
 13 12  1  1
 13 14  1  0
 15 13  1  0
 16 10  1  0
 15 16  1  1
 17 18  2  0
 17 15  1  0
 19 17  1  0
 20 19  1  0
 20 21  1  1
 22 26  1  0
 22 21  1  0
 23 22  2  0
 24 20  1  0
 24 27  1  0
 25 24  2  0
M  END
$$$$
