FTD.pdb
     RDKit          3D

 27 27  0  0  1  0  0  0  0  0999 V2000
    5.8752  -16.8148   25.6954 N   0  0  0  0  0  0  0  0  0  0  0  0
    6.5877  -15.8464   24.8831 C   0  0  1  0  0  0  0  0  0  0  0  0
    7.6727  -15.2438   25.7213 C   0  0  0  0  0  0  0  0  0  0  0  0
    7.1803  -13.9354   26.2639 C   0  0  0  0  0  0  0  0  0  0  0  0
    8.0595  -12.9511   26.6788 C   0  0  0  0  0  0  0  0  0  0  0  0
    7.5979  -11.7472   27.1780 C   0  0  0  0  0  0  0  0  0  0  0  0
    6.2469  -11.4924   27.2769 C   0  0  0  0  0  0  0  0  0  0  0  0
    5.3805  -12.4847   26.8587 C   0  0  0  0  0  0  0  0  0  0  0  0
    5.8274  -13.6924   26.3578 C   0  0  0  0  0  0  0  0  0  0  0  0
    7.1741  -16.4851   23.6706 C   0  0  0  0  0  0  0  0  0  0  0  0
    6.6064  -17.3945   23.0249 O   0  0  0  0  0  0  0  0  0  0  0  0
    6.5365  -16.5809   21.2825 C   0  0  0  0  0  0  0  0  0  0  0  0
    7.8351  -15.9330   20.9391 C   0  0  1  0  0  0  0  0  0  0  0  0
    7.8005  -14.5670   20.8961 O   0  0  0  0  0  0  0  0  0  0  0  0
    8.9598  -16.3507   21.8906 C   0  0  2  0  0  0  0  0  0  0  0  0
    8.4442  -16.0459   23.2151 N   0  0  0  0  0  0  0  0  0  0  0  0
   10.2321  -15.6984   21.6069 C   0  0  0  0  0  0  0  0  0  0  0  0
   10.4108  -14.4707   21.8175 O   0  0  0  0  0  0  0  0  0  0  0  0
   11.3188  -16.4336   21.0804 N   0  0  0  0  0  0  0  0  0  0  0  0
   12.6710  -16.3376   21.6408 C   0  0  1  0  0  0  0  0  0  0  0  0
   12.6648  -16.6744   23.0949 C   0  0  0  0  0  0  0  0  0  0  0  0
   13.9748  -16.4914   23.7340 C   0  0  0  0  0  0  0  0  0  0  0  0
   14.9940  -16.1117   23.1367 O   0  0  0  0  0  0  0  0  0  0  0  0
   13.5398  -17.3089   20.9253 C   0  0  0  0  0  0  0  0  0  0  0  0
   14.5747  -16.9894   20.2986 O   0  0  0  0  0  0  0  0  0  0  0  0
   14.0844  -16.7590   25.0921 O   0  0  0  0  0  0  0  0  0  0  0  0
   13.2031  -18.6580   20.9390 O   0  0  0  0  0  0  0  0  0  0  0  0
  2 10  1  0
  2  1  1  1
  3  2  1  0
  4  9  2  0
  4  3  1  0
  5  4  1  0
  6  7  1  0
  6  5  2  0
  7  8  2  0
  8  9  1  0
 10 11  2  0
 13 12  1  1
 13 14  1  0
 15 13  1  0
 16 10  1  0
 15 16  1  1
 17 18  2  0
 17 15  1  0
 19 17  1  0
 20 19  1  0
 20 21  1  1
 22 26  1  0
 22 21  1  0
 23 22  2  0
 24 20  1  0
 24 27  1  0
 25 24  2  0
M  END
$$$$
