FTD.pdb
     RDKit          3D

 27 27  0  0  1  0  0  0  0  0999 V2000
    6.2518  -16.6477   25.5648 N   0  0  0  0  0  0  0  0  0  0  0  0
    7.3697  -15.9598   24.9461 C   0  0  1  0  0  0  0  0  0  0  0  0
    8.0498  -15.1376   25.9969 C   0  0  0  0  0  0  0  0  0  0  0  0
    7.3577  -13.8099   26.0807 C   0  0  0  0  0  0  0  0  0  0  0  0
    7.0804  -13.0694   24.9454 C   0  0  0  0  0  0  0  0  0  0  0  0
    6.4419  -11.8460   25.0306 C   0  0  0  0  0  0  0  0  0  0  0  0
    6.0627  -11.3280   26.2504 C   0  0  0  0  0  0  0  0  0  0  0  0
    6.3462  -12.0787   27.3757 C   0  0  0  0  0  0  0  0  0  0  0  0
    6.9835  -13.3026   27.3057 C   0  0  0  0  0  0  0  0  0  0  0  0
    8.3352  -16.9259   24.3492 C   0  0  0  0  0  0  0  0  0  0  0  0
    8.0512  -18.1169   24.0903 O   0  0  0  0  0  0  0  0  0  0  0  0
    8.4889  -17.7196   21.8029 C   0  0  0  0  0  0  0  0  0  0  0  0
    9.8438  -17.0966   21.7855 C   0  0  1  0  0  0  0  0  0  0  0  0
    9.8692  -15.7909   21.3811 O   0  0  0  0  0  0  0  0  0  0  0  0
   10.5398  -17.1867   23.1464 C   0  0  2  0  0  0  0  0  0  0  0  0
    9.6503  -16.4817   24.0544 N   0  0  0  0  0  0  0  0  0  0  0  0
   11.8955  -16.6512   23.1413 C   0  0  0  0  0  0  0  0  0  0  0  0
   12.1223  -15.4180   23.0340 O   0  0  0  0  0  0  0  0  0  0  0  0
   13.0118  -17.5106   23.2591 N   0  0  0  0  0  0  0  0  0  0  0  0
   14.3233  -17.0303   23.7072 C   0  0  1  0  0  0  0  0  0  0  0  0
   15.1414  -18.1559   24.2470 C   0  0  0  0  0  0  0  0  0  0  0  0
   14.6505  -18.6575   25.5375 C   0  0  0  0  0  0  0  0  0  0  0  0
   14.5540  -17.9649   26.5626 O   0  0  0  0  0  0  0  0  0  0  0  0
   15.0265  -16.4419   22.5370 C   0  0  0  0  0  0  0  0  0  0  0  0
   14.6245  -16.5461   21.3567 O   0  0  0  0  0  0  0  0  0  0  0  0
   14.2691  -19.9901   25.6204 O   0  0  0  0  0  0  0  0  0  0  0  0
   16.2029  -15.7290   22.7410 O   0  0  0  0  0  0  0  0  0  0  0  0
  2 10  1  0
  2  1  1  1
  3  2  1  0
  4  9  2  0
  4  3  1  0
  5  4  1  0
  6  7  1  0
  6  5  2  0
  7  8  2  0
  8  9  1  0
 10 11  2  0
 13 12  1  1
 13 14  1  0
 15 13  1  0
 16 10  1  0
 15 16  1  1
 17 18  2  0
 17 15  1  0
 19 17  1  0
 20 19  1  0
 20 21  1  6
 22 26  1  0
 22 21  1  0
 23 22  2  0
 24 20  1  0
 24 27  1  0
 25 24  2  0
M  END
$$$$
