FTD.pdb
     RDKit          3D

 27 27  0  0  1  0  0  0  0  0999 V2000
    5.8124  -16.4713   25.0751 N   0  0  0  0  0  0  0  0  0  0  0  0
    7.0660  -15.7851   24.8243 C   0  0  1  0  0  0  0  0  0  0  0  0
    7.5321  -15.1810   26.1130 C   0  0  0  0  0  0  0  0  0  0  0  0
    6.9779  -13.7911   26.2120 C   0  0  0  0  0  0  0  0  0  0  0  0
    7.6300  -12.7132   25.6402 C   0  0  0  0  0  0  0  0  0  0  0  0
    7.1128  -11.4345   25.7358 C   0  0  0  0  0  0  0  0  0  0  0  0
    5.9310  -11.1963   26.4042 C   0  0  0  0  0  0  0  0  0  0  0  0
    5.2907  -12.2824   26.9703 C   0  0  0  0  0  0  0  0  0  0  0  0
    5.7958  -13.5655   26.8828 C   0  0  0  0  0  0  0  0  0  0  0  0
    8.0985  -16.7216   24.2963 C   0  0  0  0  0  0  0  0  0  0  0  0
    8.2054  -17.9126   24.6652 O   0  0  0  0  0  0  0  0  0  0  0  0
    8.9393  -16.5980   20.5569 C   0  0  0  0  0  0  0  0  0  0  0  0
   10.2209  -16.5549   21.3184 C   0  0  1  0  0  0  0  0  0  0  0  0
   10.8105  -15.3230   21.3791 O   0  0  0  0  0  0  0  0  0  0  0  0
   10.0619  -17.0771   22.7490 C   0  0  2  0  0  0  0  0  0  0  0  0
    9.0150  -16.2474   23.3222 N   0  0  0  0  0  0  0  0  0  0  0  0
   11.3001  -17.0498   23.5177 C   0  0  0  0  0  0  0  0  0  0  0  0
   11.6845  -16.0148   24.1215 O   0  0  0  0  0  0  0  0  0  0  0  0
   12.1176  -18.1994   23.6109 N   0  0  0  0  0  0  0  0  0  0  0  0
   13.3813  -18.2006   24.3558 C   0  0  1  0  0  0  0  0  0  0  0  0
   13.7215  -19.5793   24.8155 C   0  0  0  0  0  0  0  0  0  0  0  0
   12.8442  -20.0607   25.8909 C   0  0  0  0  0  0  0  0  0  0  0  0
   11.9945  -19.3599   26.4627 O   0  0  0  0  0  0  0  0  0  0  0  0
   14.4551  -17.7168   23.4487 C   0  0  0  0  0  0  0  0  0  0  0  0
   14.4037  -17.7980   22.2011 O   0  0  0  0  0  0  0  0  0  0  0  0
   12.9700  -21.3826   26.2968 O   0  0  0  0  0  0  0  0  0  0  0  0
   15.5939  -17.1357   23.9956 O   0  0  0  0  0  0  0  0  0  0  0  0
  2 10  1  0
  2  1  1  1
  3  2  1  0
  4  9  2  0
  4  3  1  0
  5  4  1  0
  6  7  1  0
  6  5  2  0
  7  8  2  0
  8  9  1  0
 10 11  2  0
 13 12  1  1
 13 14  1  0
 15 13  1  0
 16 10  1  0
 15 16  1  1
 17 18  2  0
 17 15  1  0
 19 17  1  0
 20 19  1  0
 20 21  1  6
 22 26  1  0
 22 21  1  0
 23 22  2  0
 24 20  1  0
 24 27  1  0
 25 24  2  0
M  END
$$$$
