FTD.pdb
     RDKit          3D

 27 27  0  0  1  0  0  0  0  0999 V2000
    8.0763  -13.6277   20.6448 N   0  0  0  0  0  0  0  0  0  0  0  0
    8.0896  -13.6554   22.0954 C   0  0  1  0  0  0  0  0  0  0  0  0
    6.9667  -12.7955   22.5879 C   0  0  0  0  0  0  0  0  0  0  0  0
    6.9924  -12.7962   24.0873 C   0  0  0  0  0  0  0  0  0  0  0  0
    7.9892  -12.1440   24.7909 C   0  0  0  0  0  0  0  0  0  0  0  0
    8.0062  -12.1491   26.1734 C   0  0  0  0  0  0  0  0  0  0  0  0
    7.0294  -12.8049   26.8917 C   0  0  0  0  0  0  0  0  0  0  0  0
    6.0401  -13.4520   26.1756 C   0  0  0  0  0  0  0  0  0  0  0  0
    6.0105  -13.4552   24.7942 C   0  0  0  0  0  0  0  0  0  0  0  0
    7.9326  -15.0452   22.6108 C   0  0  0  0  0  0  0  0  0  0  0  0
    7.0613  -15.8422   22.1964 O   0  0  0  0  0  0  0  0  0  0  0  0
    8.1224  -17.7260   21.8264 C   0  0  0  0  0  0  0  0  0  0  0  0
    9.2403  -17.6716   22.8121 C   0  0  1  0  0  0  0  0  0  0  0  0
   10.4108  -17.1611   22.3239 O   0  0  0  0  0  0  0  0  0  0  0  0
    8.8651  -16.8828   24.0697 C   0  0  2  0  0  0  0  0  0  0  0  0
    8.8134  -15.4995   23.6264 N   0  0  0  0  0  0  0  0  0  0  0  0
    9.7828  -17.0941   25.1825 C   0  0  0  0  0  0  0  0  0  0  0  0
   10.7619  -16.3313   25.3901 O   0  0  0  0  0  0  0  0  0  0  0  0
    9.5989  -18.1751   26.0747 N   0  0  0  0  0  0  0  0  0  0  0  0
   10.4838  -18.3990   27.2231 C   0  0  1  0  0  0  0  0  0  0  0  0
    9.8360  -19.3007   28.2205 C   0  0  0  0  0  0  0  0  0  0  0  0
   10.7169  -19.6428   29.3452 C   0  0  0  0  0  0  0  0  0  0  0  0
   11.3551  -18.8102   30.0080 O   0  0  0  0  0  0  0  0  0  0  0  0
   11.7299  -19.0424   26.7301 C   0  0  0  0  0  0  0  0  0  0  0  0
   11.7753  -19.8103   25.7432 O   0  0  0  0  0  0  0  0  0  0  0  0
   10.8469  -20.9809   29.6923 O   0  0  0  0  0  0  0  0  0  0  0  0
   12.9288  -18.7915   27.3884 O   0  0  0  0  0  0  0  0  0  0  0  0
  2 10  1  0
  2  1  1  6
  3  2  1  0
  4  9  2  0
  4  3  1  0
  5  4  1  0
  6  7  1  0
  6  5  2  0
  7  8  2  0
  8  9  1  0
 10 11  2  0
 13 12  1  6
 13 14  1  0
 15 13  1  0
 16 10  1  0
 15 16  1  6
 17 18  2  0
 17 15  1  0
 19 17  1  0
 20 19  1  0
 20 21  1  1
 22 26  1  0
 22 21  1  0
 23 22  2  0
 24 20  1  0
 24 27  1  0
 25 24  2  0
M  END
$$$$
