FTD.pdb
     RDKit          3D

 27 27  0  0  1  0  0  0  0  0999 V2000
    6.1974  -16.7063   26.1012 N   0  0  0  0  0  0  0  0  0  0  0  0
    6.9392  -15.7906   25.2547 C   0  0  1  0  0  0  0  0  0  0  0  0
    7.7915  -14.9294   26.1351 C   0  0  0  0  0  0  0  0  0  0  0  0
    7.0749  -13.6325   26.3654 C   0  0  0  0  0  0  0  0  0  0  0  0
    5.7595  -13.4569   25.9741 C   0  0  0  0  0  0  0  0  0  0  0  0
    5.1054  -12.2581   26.1900 C   0  0  0  0  0  0  0  0  0  0  0  0
    5.7454  -11.2018   26.8020 C   0  0  0  0  0  0  0  0  0  0  0  0
    7.0591  -11.3915   27.1875 C   0  0  0  0  0  0  0  0  0  0  0  0
    7.7252  -12.5838   26.9783 C   0  0  0  0  0  0  0  0  0  0  0  0
    7.7930  -16.5272   24.2798 C   0  0  0  0  0  0  0  0  0  0  0  0
    8.0606  -17.7457   24.3774 O   0  0  0  0  0  0  0  0  0  0  0  0
    7.4040  -15.7066   20.6282 C   0  0  0  0  0  0  0  0  0  0  0  0
    8.8733  -15.7318   20.8823 C   0  0  1  0  0  0  0  0  0  0  0  0
    9.4766  -14.5050   20.8801 O   0  0  0  0  0  0  0  0  0  0  0  0
    9.2209  -16.4304   22.1997 C   0  0  2  0  0  0  0  0  0  0  0  0
    8.3369  -15.8179   23.1776 N   0  0  0  0  0  0  0  0  0  0  0  0
   10.6303  -16.3269   22.5572 C   0  0  0  0  0  0  0  0  0  0  0  0
   11.0785  -15.3539   23.2174 O   0  0  0  0  0  0  0  0  0  0  0  0
   11.5490  -17.3290   22.1694 N   0  0  0  0  0  0  0  0  0  0  0  0
   12.9641  -17.2815   22.5526 C   0  0  1  0  0  0  0  0  0  0  0  0
   13.4900  -18.6561   22.8012 C   0  0  0  0  0  0  0  0  0  0  0  0
   13.1610  -19.1654   24.1392 C   0  0  0  0  0  0  0  0  0  0  0  0
   12.5821  -18.5021   25.0137 O   0  0  0  0  0  0  0  0  0  0  0  0
   13.7275  -16.6690   21.4336 C   0  0  0  0  0  0  0  0  0  0  0  0
   14.9443  -16.3835   21.4931 O   0  0  0  0  0  0  0  0  0  0  0  0
   13.5184  -20.4707   24.4497 O   0  0  0  0  0  0  0  0  0  0  0  0
   13.0721  -16.3872   20.2400 O   0  0  0  0  0  0  0  0  0  0  0  0
  2 10  1  0
  2  1  1  1
  3  2  1  0
  4  9  2  0
  4  3  1  0
  5  4  1  0
  6  7  1  0
  6  5  2  0
  7  8  2  0
  8  9  1  0
 10 11  2  0
 13 12  1  1
 13 14  1  0
 15 13  1  0
 16 10  1  0
 15 16  1  1
 17 18  2  0
 17 15  1  0
 19 17  1  0
 20 19  1  0
 20 21  1  6
 22 26  1  0
 22 21  1  0
 23 22  2  0
 24 20  1  0
 24 27  1  0
 25 24  2  0
M  END
$$$$
