IFF.pdb
     RDKit          3D

 31 32  0  0  1  0  0  0  0  0999 V2000
   35.0666  -28.7568    2.1500 C   0  0  0  0  0  0  0  0  0  0  0  0
   36.2489  -28.9707    3.0918 C   0  0  0  0  0  0  0  0  0  0  0  0
   37.4721  -28.4402    2.4061 C   0  0  2  0  0  0  0  0  0  0  0  0
   37.7492  -29.1489    1.0981 C   0  0  0  0  0  0  0  0  0  0  0  0
   38.6684  -28.3479    3.2856 C   0  0  2  0  0  0  0  0  0  0  0  0
   38.9950  -29.7185    3.7234 N   0  0  0  0  0  0  0  0  0  0  0  0
   38.5174  -27.4616    4.4642 C   0  0  0  0  0  0  0  0  0  0  0  0
   38.1135  -27.9125    5.5629 O   0  0  0  0  0  0  0  0  0  0  0  0
   38.8327  -26.0821    4.3551 N   0  0  0  0  0  0  0  0  0  0  0  0
   38.7184  -25.1489    5.5032 C   0  0  1  0  0  0  0  0  0  0  0  0
   39.9870  -24.3844    5.6520 C   0  0  0  0  0  0  0  0  0  0  0  0
   40.0880  -23.4397    6.7540 C   0  0  0  0  0  0  0  0  0  0  0  0
   40.1199  -23.8481    8.0756 C   0  0  0  0  0  0  0  0  0  0  0  0
   40.2543  -22.9516    9.1156 C   0  0  0  0  0  0  0  0  0  0  0  0
   40.3626  -21.6037    8.8726 C   0  0  0  0  0  0  0  0  0  0  0  0
   40.3329  -21.1817    7.5735 C   0  0  0  0  0  0  0  0  0  0  0  0
   40.1975  -22.0850    6.5275 C   0  0  0  0  0  0  0  0  0  0  0  0
   37.4799  -24.3786    5.4085 C   0  0  0  0  0  0  0  0  0  0  0  0
   37.2026  -23.8248    4.2789 O   0  0  0  0  0  0  0  0  0  0  0  0
   36.5257  -24.1659    6.4256 N   0  0  0  0  0  0  0  0  0  0  0  0
   35.4964  -23.1141    6.3025 C   0  0  1  0  0  0  0  0  0  0  0  0
   34.2523  -23.7853    5.7709 C   0  0  0  0  0  0  0  0  0  0  0  0
   33.0805  -22.9301    5.6492 C   0  0  0  0  0  0  0  0  0  0  0  0
   32.8822  -22.1619    4.5230 C   0  0  0  0  0  0  0  0  0  0  0  0
   31.7570  -21.3702    4.4266 C   0  0  0  0  0  0  0  0  0  0  0  0
   30.8172  -21.3257    5.4342 C   0  0  0  0  0  0  0  0  0  0  0  0
   31.0260  -22.0934    6.5475 C   0  0  0  0  0  0  0  0  0  0  0  0
   32.1407  -22.8850    6.6558 C   0  0  0  0  0  0  0  0  0  0  0  0
   35.1976  -22.4590    7.5680 C   0  0  0  0  0  0  0  0  0  0  0  0
   35.4684  -22.9790    8.6726 O   0  0  0  0  0  0  0  0  0  0  0  0
   34.5961  -21.2198    7.5860 O   0  0  0  0  0  0  0  0  0  0  0  0
  1  2  1  0
  3  5  1  0
  3  2  1  0
  3  4  1  6
  5  6  1  1
  7  9  1  0
  7  5  1  0
  8  7  2  0
 10  9  1  0
 11 12  1  0
 10 11  1  6
 12 17  1  0
 13 12  2  0
 13 14  1  0
 14 15  2  0
 15 16  1  0
 17 16  2  0
 18 10  1  0
 18 20  1  0
 19 18  2  0
 21 20  1  0
 21 29  1  0
 21 22  1  1
 23 22  1  0
 23 24  2  0
 25 24  1  0
 26 25  2  0
 27 28  2  0
 27 26  1  0
 28 23  1  0
 29 30  2  0
 29 31  1  0
M  END
$$$$
