IFF.pdb
     RDKit          3D

 31 32  0  0  1  0  0  0  0  0999 V2000
   14.6847   -9.9718  -18.0190 C   0  0  0  0  0  0  0  0  0  0  0  0
   16.1979   -9.8329  -17.8727 C   0  0  0  0  0  0  0  0  0  0  0  0
   16.4877   -9.5691  -16.4256 C   0  0  2  0  0  0  0  0  0  0  0  0
   15.7266   -8.3727  -15.8970 C   0  0  0  0  0  0  0  0  0  0  0  0
   17.9376   -9.5322  -16.0943 C   0  0  2  0  0  0  0  0  0  0  0  0
   18.5411  -10.7636  -16.6387 N   0  0  0  0  0  0  0  0  0  0  0  0
   18.2515   -9.4090  -14.6508 C   0  0  0  0  0  0  0  0  0  0  0  0
   17.6128  -10.0653  -13.7934 O   0  0  0  0  0  0  0  0  0  0  0  0
   19.2882   -8.5379  -14.2256 N   0  0  0  0  0  0  0  0  0  0  0  0
   19.5649   -8.2745  -12.7918 C   0  0  1  0  0  0  0  0  0  0  0  0
   21.0334   -8.1500  -12.5825 C   0  0  0  0  0  0  0  0  0  0  0  0
   21.5065   -7.8338  -11.2433 C   0  0  0  0  0  0  0  0  0  0  0  0
   21.9049   -8.8134  -10.3510 C   0  0  0  0  0  0  0  0  0  0  0  0
   22.3889   -8.5069   -9.0959 C   0  0  0  0  0  0  0  0  0  0  0  0
   22.4938   -7.2010   -8.6822 C   0  0  0  0  0  0  0  0  0  0  0  0
   22.1050   -6.2200   -9.5500 C   0  0  0  0  0  0  0  0  0  0  0  0
   21.6179   -6.5297  -10.8130 C   0  0  0  0  0  0  0  0  0  0  0  0
   18.7246   -7.1815  -12.3062 C   0  0  0  0  0  0  0  0  0  0  0  0
   18.6811   -6.1013  -13.0067 O   0  0  0  0  0  0  0  0  0  0  0  0
   17.9327   -7.1660  -11.1388 N   0  0  0  0  0  0  0  0  0  0  0  0
   17.2345   -5.9398  -10.7031 C   0  0  1  0  0  0  0  0  0  0  0  0
   15.7639   -6.1621  -10.9654 C   0  0  0  0  0  0  0  0  0  0  0  0
   15.1083   -7.1240  -10.0913 C   0  0  0  0  0  0  0  0  0  0  0  0
   14.4552   -6.7098   -8.9512 C   0  0  0  0  0  0  0  0  0  0  0  0
   13.8305   -7.6397   -8.1468 C   0  0  0  0  0  0  0  0  0  0  0  0
   13.8414   -8.9835   -8.4542 C   0  0  0  0  0  0  0  0  0  0  0  0
   14.4936   -9.3819   -9.5892 C   0  0  0  0  0  0  0  0  0  0  0  0
   15.1187   -8.4672  -10.3977 C   0  0  0  0  0  0  0  0  0  0  0  0
   17.4410   -5.6370   -9.2940 C   0  0  0  0  0  0  0  0  0  0  0  0
   16.9761   -4.6095   -8.7538 O   0  0  0  0  0  0  0  0  0  0  0  0
   18.1690   -6.4929   -8.4970 O   0  0  0  0  0  0  0  0  0  0  0  0
  1  2  1  0
  3  5  1  0
  3  2  1  0
  3  4  1  6
  5  6  1  1
  7  9  1  0
  7  5  1  0
  8  7  2  0
 10  9  1  0
 11 12  1  0
 10 11  1  6
 12 17  1  0
 13 12  2  0
 13 14  1  0
 14 15  2  0
 15 16  1  0
 17 16  2  0
 18 10  1  0
 18 20  1  0
 19 18  2  0
 21 20  1  0
 21 29  1  0
 21 22  1  1
 23 22  1  0
 23 24  2  0
 25 24  1  0
 26 25  2  0
 27 28  2  0
 27 26  1  0
 28 23  1  0
 29 30  2  0
 29 31  1  0
M  END
$$$$
