IFF.pdb
     RDKit          3D

 31 32  0  0  1  0  0  0  0  0999 V2000
   28.4208  -22.9221  -19.9945 C   0  0  0  0  0  0  0  0  0  0  0  0
   27.9340  -21.7314  -19.1724 C   0  0  0  0  0  0  0  0  0  0  0  0
   27.2004  -22.2754  -17.9834 C   0  0  2  0  0  0  0  0  0  0  0  0
   26.2250  -23.3686  -18.3622 C   0  0  0  0  0  0  0  0  0  0  0  0
   26.5977  -21.2305  -17.1126 C   0  0  2  0  0  0  0  0  0  0  0  0
   27.5630  -20.1175  -17.0345 N   0  0  0  0  0  0  0  0  0  0  0  0
   26.2318  -21.6810  -15.7485 C   0  0  0  0  0  0  0  0  0  0  0  0
   25.5866  -22.7420  -15.5709 O   0  0  0  0  0  0  0  0  0  0  0  0
   26.6136  -20.9055  -14.6228 N   0  0  0  0  0  0  0  0  0  0  0  0
   26.0932  -21.1759  -13.2597 C   0  0  1  0  0  0  0  0  0  0  0  0
   27.0425  -20.6364  -12.2480 C   0  0  0  0  0  0  0  0  0  0  0  0
   26.6034  -20.5832  -10.8617 C   0  0  0  0  0  0  0  0  0  0  0  0
   27.2359  -21.2970   -9.8593 C   0  0  0  0  0  0  0  0  0  0  0  0
   26.8402  -21.2138   -8.5403 C   0  0  0  0  0  0  0  0  0  0  0  0
   25.7902  -20.4086   -8.1705 C   0  0  0  0  0  0  0  0  0  0  0  0
   25.1533  -19.6962   -9.1470 C   0  0  0  0  0  0  0  0  0  0  0  0
   25.5524  -19.7808  -10.4744 C   0  0  0  0  0  0  0  0  0  0  0  0
   24.6969  -20.7561  -13.1581 C   0  0  0  0  0  0  0  0  0  0  0  0
   24.3196  -19.7498  -13.8684 O   0  0  0  0  0  0  0  0  0  0  0  0
   23.6862  -21.3347  -12.3619 N   0  0  0  0  0  0  0  0  0  0  0  0
   22.2787  -20.9029  -12.4776 C   0  0  1  0  0  0  0  0  0  0  0  0
   21.7845  -21.3908  -13.8187 C   0  0  0  0  0  0  0  0  0  0  0  0
   20.3625  -21.2055  -14.0694 C   0  0  0  0  0  0  0  0  0  0  0  0
   19.4400  -22.1170  -13.6047 C   0  0  0  0  0  0  0  0  0  0  0  0
   18.0974  -21.9115  -13.8442 C   0  0  0  0  0  0  0  0  0  0  0  0
   17.6489  -20.8101  -14.5415 C   0  0  0  0  0  0  0  0  0  0  0  0
   18.5753  -19.9123  -14.9976 C   0  0  0  0  0  0  0  0  0  0  0  0
   19.9134  -20.1050  -14.7662 C   0  0  0  0  0  0  0  0  0  0  0  0
   21.4312  -21.4345  -11.4196 C   0  0  0  0  0  0  0  0  0  0  0  0
   21.6485  -22.5408  -10.8787 O   0  0  0  0  0  0  0  0  0  0  0  0
   20.3426  -20.7182  -10.9730 O   0  0  0  0  0  0  0  0  0  0  0  0
  1  2  1  0
  3  5  1  0
  3  2  1  0
  3  4  1  6
  5  6  1  1
  7  9  1  0
  7  5  1  0
  8  7  2  0
 10  9  1  0
 11 12  1  0
 10 11  1  1
 12 17  1  0
 13 12  2  0
 13 14  1  0
 14 15  2  0
 15 16  1  0
 17 16  2  0
 18 10  1  0
 18 20  1  0
 19 18  2  0
 21 20  1  0
 21 29  1  0
 21 22  1  6
 23 22  1  0
 23 24  2  0
 25 24  1  0
 26 25  2  0
 27 28  2  0
 27 26  1  0
 28 23  1  0
 29 30  2  0
 29 31  1  0
M  END
$$$$
