IFF.pdb
     RDKit          3D

 31 32  0  0  1  0  0  0  0  0999 V2000
   27.4698  -20.6689  -18.7621 C   0  0  0  0  0  0  0  0  0  0  0  0
   27.7872  -21.4820  -17.5096 C   0  0  0  0  0  0  0  0  0  0  0  0
   26.5912  -21.4062  -16.6088 C   0  0  2  0  0  0  0  0  0  0  0  0
   26.0959  -19.9874  -16.4312 C   0  0  0  0  0  0  0  0  0  0  0  0
   26.7546  -22.1335  -15.3213 C   0  0  2  0  0  0  0  0  0  0  0  0
   27.1136  -23.5265  -15.6495 N   0  0  0  0  0  0  0  0  0  0  0  0
   25.5701  -22.1117  -14.4302 C   0  0  0  0  0  0  0  0  0  0  0  0
   24.5789  -22.8465  -14.6567 O   0  0  0  0  0  0  0  0  0  0  0  0
   25.5505  -21.2496  -13.3030 N   0  0  0  0  0  0  0  0  0  0  0  0
   24.3860  -21.1678  -12.3869 C   0  0  1  0  0  0  0  0  0  0  0  0
   24.8215  -20.6134  -11.0759 C   0  0  0  0  0  0  0  0  0  0  0  0
   23.8037  -20.3812  -10.0623 C   0  0  0  0  0  0  0  0  0  0  0  0
   23.7420  -21.1217   -8.8952 C   0  0  0  0  0  0  0  0  0  0  0  0
   22.7989  -20.8728   -7.9195 C   0  0  0  0  0  0  0  0  0  0  0  0
   21.8754  -19.8674   -8.0743 C   0  0  0  0  0  0  0  0  0  0  0  0
   21.9209  -19.1255   -9.2207 C   0  0  0  0  0  0  0  0  0  0  0  0
   22.8706  -19.3771  -10.2021 C   0  0  0  0  0  0  0  0  0  0  0  0
   23.2633  -20.5095  -13.0523 C   0  0  0  0  0  0  0  0  0  0  0  0
   23.5233  -19.5039  -13.8141 O   0  0  0  0  0  0  0  0  0  0  0  0
   21.8976  -20.8517  -12.9639 N   0  0  0  0  0  0  0  0  0  0  0  0
   20.8716  -20.1113  -13.7255 C   0  0  1  0  0  0  0  0  0  0  0  0
   21.2060  -20.2876  -15.1877 C   0  0  0  0  0  0  0  0  0  0  0  0
   20.2551  -19.7062  -16.1241 C   0  0  0  0  0  0  0  0  0  0  0  0
   19.7276  -20.4577  -17.1511 C   0  0  0  0  0  0  0  0  0  0  0  0
   18.8182  -19.8871  -18.0168 C   0  0  0  0  0  0  0  0  0  0  0  0
   18.4188  -18.5745  -17.8821 C   0  0  0  0  0  0  0  0  0  0  0  0
   18.9502  -17.8389  -16.8579 C   0  0  0  0  0  0  0  0  0  0  0  0
   19.8554  -18.3945  -15.9901 C   0  0  0  0  0  0  0  0  0  0  0  0
   19.5194  -20.5874  -13.4709 C   0  0  0  0  0  0  0  0  0  0  0  0
   19.2570  -21.7968  -13.2917 O   0  0  0  0  0  0  0  0  0  0  0  0
   18.4670  -19.7001  -13.4173 O   0  0  0  0  0  0  0  0  0  0  0  0
  1  2  1  0
  3  5  1  0
  3  2  1  0
  3  4  1  1
  5  6  1  6
  7  9  1  0
  7  5  1  0
  8  7  2  0
 10  9  1  0
 11 12  1  0
 10 11  1  1
 12 17  1  0
 13 12  2  0
 13 14  1  0
 14 15  2  0
 15 16  1  0
 17 16  2  0
 18 10  1  0
 18 20  1  0
 19 18  2  0
 21 20  1  0
 21 29  1  0
 21 22  1  6
 23 22  1  0
 23 24  2  0
 25 24  1  0
 26 25  2  0
 27 28  2  0
 27 26  1  0
 28 23  1  0
 29 30  2  0
 29 31  1  0
M  END
$$$$
