IFF.pdb
     RDKit          3D

 31 32  0  0  1  0  0  0  0  0999 V2000
   28.4743  -20.6842  -16.2878 C   0  0  0  0  0  0  0  0  0  0  0  0
   27.6415  -19.9384  -15.2483 C   0  0  0  0  0  0  0  0  0  0  0  0
   27.7209  -20.7137  -13.9675 C   0  0  2  0  0  0  0  0  0  0  0  0
   27.4350  -22.1859  -14.1696 C   0  0  0  0  0  0  0  0  0  0  0  0
   26.9450  -20.1161  -12.8477 C   0  0  2  0  0  0  0  0  0  0  0  0
   27.3586  -18.7043  -12.7348 N   0  0  0  0  0  0  0  0  0  0  0  0
   27.1003  -20.7961  -11.5396 C   0  0  0  0  0  0  0  0  0  0  0  0
   26.6838  -21.9669  -11.3678 O   0  0  0  0  0  0  0  0  0  0  0  0
   27.7282  -20.1189  -10.4620 N   0  0  0  0  0  0  0  0  0  0  0  0
   27.5184  -20.5133   -9.0470 C   0  0  1  0  0  0  0  0  0  0  0  0
   28.7019  -20.1131   -8.2376 C   0  0  0  0  0  0  0  0  0  0  0  0
   28.5434  -20.0305   -6.7935 C   0  0  0  0  0  0  0  0  0  0  0  0
   28.1819  -18.8565   -6.1568 C   0  0  0  0  0  0  0  0  0  0  0  0
   27.9954  -18.7921   -4.7913 C   0  0  0  0  0  0  0  0  0  0  0  0
   28.1643  -19.9060   -4.0051 C   0  0  0  0  0  0  0  0  0  0  0  0
   28.5215  -21.0745   -4.6165 C   0  0  0  0  0  0  0  0  0  0  0  0
   28.7090  -21.1381   -5.9910 C   0  0  0  0  0  0  0  0  0  0  0  0
   26.2075  -20.0619   -8.5843 C   0  0  0  0  0  0  0  0  0  0  0  0
   25.8982  -18.8255   -8.7716 O   0  0  0  0  0  0  0  0  0  0  0  0
   25.2137  -20.8339   -7.9467 N   0  0  0  0  0  0  0  0  0  0  0  0
   23.7780  -20.5646   -8.1636 C   0  0  1  0  0  0  0  0  0  0  0  0
   23.5261  -20.7232   -9.6442 C   0  0  0  0  0  0  0  0  0  0  0  0
   22.1609  -20.4674  -10.0800 C   0  0  0  0  0  0  0  0  0  0  0  0
   21.7770  -20.7174  -11.3792 C   0  0  0  0  0  0  0  0  0  0  0  0
   20.4741  -20.4792  -11.7636 C   0  0  0  0  0  0  0  0  0  0  0  0
   19.5371  -19.9936  -10.8765 C   0  0  0  0  0  0  0  0  0  0  0  0
   19.9312  -19.7494   -9.5892 C   0  0  0  0  0  0  0  0  0  0  0  0
   21.2239  -19.9821   -9.1942 C   0  0  0  0  0  0  0  0  0  0  0  0
   22.9107  -21.4667   -7.4192 C   0  0  0  0  0  0  0  0  0  0  0  0
   23.2696  -22.6163   -7.0827 O   0  0  0  0  0  0  0  0  0  0  0  0
   21.6425  -21.0710   -7.0547 O   0  0  0  0  0  0  0  0  0  0  0  0
  1  2  1  0
  3  5  1  0
  3  2  1  0
  3  4  1  6
  5  6  1  1
  7  9  1  0
  7  5  1  0
  8  7  2  0
 10  9  1  0
 11 12  1  0
 10 11  1  1
 12 17  1  0
 13 12  2  0
 13 14  1  0
 14 15  2  0
 15 16  1  0
 17 16  2  0
 18 10  1  0
 18 20  1  0
 19 18  2  0
 21 20  1  0
 21 29  1  0
 21 22  1  6
 23 22  1  0
 23 24  2  0
 25 24  1  0
 26 25  2  0
 27 28  2  0
 27 26  1  0
 28 23  1  0
 29 30  2  0
 29 31  1  0
M  END
$$$$
