IFF.pdb
     RDKit          3D

 31 32  0  0  1  0  0  0  0  0999 V2000
   29.1425  -16.4396  -16.2050 C   0  0  0  0  0  0  0  0  0  0  0  0
   28.6176  -17.8730  -16.2224 C   0  0  0  0  0  0  0  0  0  0  0  0
   27.8025  -18.0688  -14.9794 C   0  0  2  0  0  0  0  0  0  0  0  0
   28.5785  -17.7299  -13.7253 C   0  0  0  0  0  0  0  0  0  0  0  0
   27.1179  -19.3876  -14.9046 C   0  0  2  0  0  0  0  0  0  0  0  0
   26.3846  -19.5711  -16.1716 N   0  0  0  0  0  0  0  0  0  0  0  0
   26.1957  -19.5548  -13.7561 C   0  0  0  0  0  0  0  0  0  0  0  0
   25.2109  -18.7929  -13.6033 O   0  0  0  0  0  0  0  0  0  0  0  0
   26.4241  -20.5897  -12.8121 N   0  0  0  0  0  0  0  0  0  0  0  0
   25.4626  -20.8983  -11.7249 C   0  0  1  0  0  0  0  0  0  0  0  0
   24.6059  -22.0467  -12.1286 C   0  0  0  0  0  0  0  0  0  0  0  0
   23.6682  -21.8456  -13.2231 C   0  0  0  0  0  0  0  0  0  0  0  0
   23.9320  -22.2799  -14.5100 C   0  0  0  0  0  0  0  0  0  0  0  0
   23.0238  -22.1214  -15.5364 C   0  0  0  0  0  0  0  0  0  0  0  0
   21.8094  -21.5187  -15.3141 C   0  0  0  0  0  0  0  0  0  0  0  0
   21.5314  -21.0833  -14.0492 C   0  0  0  0  0  0  0  0  0  0  0  0
   22.4463  -21.2433  -13.0169 C   0  0  0  0  0  0  0  0  0  0  0  0
   26.1611  -21.0018  -10.4451 C   0  0  0  0  0  0  0  0  0  0  0  0
   27.4440  -21.1158  -10.4693 O   0  0  0  0  0  0  0  0  0  0  0  0
   25.5892  -20.9871   -9.1556 N   0  0  0  0  0  0  0  0  0  0  0  0
   26.4227  -21.1404   -7.9462 C   0  0  1  0  0  0  0  0  0  0  0  0
   27.4524  -20.0363   -7.9868 C   0  0  0  0  0  0  0  0  0  0  0  0
   28.2110  -19.8395   -6.7600 C   0  0  0  0  0  0  0  0  0  0  0  0
   27.9346  -18.7815   -5.9221 C   0  0  0  0  0  0  0  0  0  0  0  0
   28.6590  -18.6249   -4.7590 C   0  0  0  0  0  0  0  0  0  0  0  0
   29.6605  -19.5050   -4.4084 C   0  0  0  0  0  0  0  0  0  0  0  0
   29.9251  -20.5516   -5.2491 C   0  0  0  0  0  0  0  0  0  0  0  0
   29.2120  -20.7186   -6.4087 C   0  0  0  0  0  0  0  0  0  0  0  0
   25.6564  -21.0511   -6.7114 C   0  0  0  0  0  0  0  0  0  0  0  0
   25.9270  -21.7396   -5.7032 O   0  0  0  0  0  0  0  0  0  0  0  0
   24.5887  -20.1860   -6.6151 O   0  0  0  0  0  0  0  0  0  0  0  0
  1  2  1  0
  3  5  1  0
  3  2  1  0
  3  4  1  1
  5  6  1  6
  7  9  1  0
  7  5  1  0
  8  7  2  0
 10  9  1  0
 11 12  1  0
 10 11  1  6
 12 17  1  0
 13 12  2  0
 13 14  1  0
 14 15  2  0
 15 16  1  0
 17 16  2  0
 18 10  1  0
 18 20  1  0
 19 18  2  0
 21 20  1  0
 21 29  1  0
 21 22  1  1
 23 22  1  0
 23 24  2  0
 25 24  1  0
 26 25  2  0
 27 28  2  0
 27 26  1  0
 28 23  1  0
 29 30  2  0
 29 31  1  0
M  END
$$$$
