IFF.pdb
     RDKit          3D

 31 32  0  0  1  0  0  0  0  0999 V2000
   14.6255  -24.0042    3.6973 C   0  0  0  0  0  0  0  0  0  0  0  0
   14.4538  -22.7486    2.8461 C   0  0  0  0  0  0  0  0  0  0  0  0
   15.5959  -21.8305    3.1629 C   0  0  2  0  0  0  0  0  0  0  0  0
   15.7438  -21.5910    4.6497 C   0  0  0  0  0  0  0  0  0  0  0  0
   15.6040  -20.5749    2.3651 C   0  0  2  0  0  0  0  0  0  0  0  0
   15.6677  -20.9620    0.9428 N   0  0  0  0  0  0  0  0  0  0  0  0
   16.7030  -19.6325    2.6838 C   0  0  0  0  0  0  0  0  0  0  0  0
   17.8627  -19.8216    2.2444 O   0  0  0  0  0  0  0  0  0  0  0  0
   16.4465  -18.4980    3.4971 N   0  0  0  0  0  0  0  0  0  0  0  0
   17.5134  -17.5424    3.8850 C   0  0  1  0  0  0  0  0  0  0  0  0
   17.0715  -16.1532    3.5839 C   0  0  0  0  0  0  0  0  0  0  0  0
   17.9780  -15.0634    3.9125 C   0  0  0  0  0  0  0  0  0  0  0  0
   19.0529  -14.7295    3.1078 C   0  0  0  0  0  0  0  0  0  0  0  0
   19.8872  -13.6712    3.4032 C   0  0  0  0  0  0  0  0  0  0  0  0
   19.6776  -12.9013    4.5216 C   0  0  0  0  0  0  0  0  0  0  0  0
   18.6208  -13.2163    5.3284 C   0  0  0  0  0  0  0  0  0  0  0  0
   17.7817  -14.2818    5.0301 C   0  0  0  0  0  0  0  0  0  0  0  0
   17.9712  -17.8191    5.2453 C   0  0  0  0  0  0  0  0  0  0  0  0
   17.1309  -18.3497    6.0649 O   0  0  0  0  0  0  0  0  0  0  0  0
   19.2527  -17.5747    5.7821 N   0  0  0  0  0  0  0  0  0  0  0  0
   19.5788  -17.9293    7.1781 C   0  0  1  0  0  0  0  0  0  0  0  0
   20.9043  -18.6522    7.1433 C   0  0  0  0  0  0  0  0  0  0  0  0
   20.8523  -20.0388    6.7030 C   0  0  0  0  0  0  0  0  0  0  0  0
   20.4398  -21.0356    7.5597 C   0  0  0  0  0  0  0  0  0  0  0  0
   20.3866  -22.3397    7.1140 C   0  0  0  0  0  0  0  0  0  0  0  0
   20.7376  -22.6765    5.8241 C   0  0  0  0  0  0  0  0  0  0  0  0
   21.1455  -21.6772    4.9831 C   0  0  0  0  0  0  0  0  0  0  0  0
   21.2029  -20.3763    5.4140 C   0  0  0  0  0  0  0  0  0  0  0  0
   19.6756  -16.7692    8.0526 C   0  0  0  0  0  0  0  0  0  0  0  0
   19.6980  -15.5986    7.6134 O   0  0  0  0  0  0  0  0  0  0  0  0
   19.7455  -16.9306    9.4188 O   0  0  0  0  0  0  0  0  0  0  0  0
  1  2  1  0
  3  5  1  0
  3  2  1  0
  3  4  1  1
  5  6  1  6
  7  9  1  0
  7  5  1  0
  8  7  2  0
 10  9  1  0
 11 12  1  0
 10 11  1  1
 12 17  1  0
 13 12  2  0
 13 14  1  0
 14 15  2  0
 15 16  1  0
 17 16  2  0
 18 10  1  0
 18 20  1  0
 19 18  2  0
 21 20  1  0
 21 29  1  0
 21 22  1  6
 23 22  1  0
 23 24  2  0
 25 24  1  0
 26 25  2  0
 27 28  2  0
 27 26  1  0
 28 23  1  0
 29 30  2  0
 29 31  1  0
M  END
$$$$
