IFF.pdb
     RDKit          3D

 31 32  0  0  1  0  0  0  0  0999 V2000
   28.1622  -18.5902  -18.5105 C   0  0  0  0  0  0  0  0  0  0  0  0
   29.2390  -19.4530  -17.8573 C   0  0  0  0  0  0  0  0  0  0  0  0
   28.5629  -20.3239  -16.8413 C   0  0  2  0  0  0  0  0  0  0  0  0
   27.7930  -21.4591  -17.4804 C   0  0  0  0  0  0  0  0  0  0  0  0
   27.7677  -19.5735  -15.8324 C   0  0  2  0  0  0  0  0  0  0  0  0
   28.6419  -18.5190  -15.2841 N   0  0  0  0  0  0  0  0  0  0  0  0
   27.2114  -20.3946  -14.7306 C   0  0  0  0  0  0  0  0  0  0  0  0
   26.4369  -21.3526  -14.9677 O   0  0  0  0  0  0  0  0  0  0  0  0
   27.5556  -20.0982  -13.3860 N   0  0  0  0  0  0  0  0  0  0  0  0
   26.7604  -20.5942  -12.2357 C   0  0  1  0  0  0  0  0  0  0  0  0
   27.5341  -20.4076  -10.9778 C   0  0  0  0  0  0  0  0  0  0  0  0
   26.8078  -20.4542   -9.7177 C   0  0  0  0  0  0  0  0  0  0  0  0
   26.9266  -19.4623   -8.7604 C   0  0  0  0  0  0  0  0  0  0  0  0
   26.2070  -19.4911   -7.5836 C   0  0  0  0  0  0  0  0  0  0  0  0
   25.3354  -20.5192   -7.3173 C   0  0  0  0  0  0  0  0  0  0  0  0
   25.2050  -21.5078   -8.2512 C   0  0  0  0  0  0  0  0  0  0  0  0
   25.9299  -21.4779   -9.4353 C   0  0  0  0  0  0  0  0  0  0  0  0
   25.4083  -20.0405  -12.2782 C   0  0  0  0  0  0  0  0  0  0  0  0
   25.2769  -18.8031  -12.6113 O   0  0  0  0  0  0  0  0  0  0  0  0
   24.2002  -20.7125  -11.9970 N   0  0  0  0  0  0  0  0  0  0  0  0
   22.9003  -20.1681  -12.4381 C   0  0  1  0  0  0  0  0  0  0  0  0
   22.9650  -20.0570  -13.9429 C   0  0  0  0  0  0  0  0  0  0  0  0
   21.7559  -19.5676  -14.5892 C   0  0  0  0  0  0  0  0  0  0  0  0
   20.7023  -19.0875  -13.8426 C   0  0  0  0  0  0  0  0  0  0  0  0
   19.5731  -18.6172  -14.4796 C   0  0  0  0  0  0  0  0  0  0  0  0
   19.4682  -18.6140  -15.8542 C   0  0  0  0  0  0  0  0  0  0  0  0
   20.5216  -19.0935  -16.5841 C   0  0  0  0  0  0  0  0  0  0  0  0
   21.6502  -19.5640  -15.9629 C   0  0  0  0  0  0  0  0  0  0  0  0
   21.7727  -21.0065  -12.0563 C   0  0  0  0  0  0  0  0  0  0  0  0
   21.7428  -22.2353  -12.2864 O   0  0  0  0  0  0  0  0  0  0  0  0
   20.6831  -20.4592  -11.4153 O   0  0  0  0  0  0  0  0  0  0  0  0
  1  2  1  0
  3  5  1  0
  3  2  1  0
  3  4  1  6
  5  6  1  1
  7  9  1  0
  7  5  1  0
  8  7  2  0
 10  9  1  0
 11 12  1  0
 10 11  1  1
 12 17  1  0
 13 12  2  0
 13 14  1  0
 14 15  2  0
 15 16  1  0
 17 16  2  0
 18 10  1  0
 18 20  1  0
 19 18  2  0
 21 20  1  0
 21 29  1  0
 21 22  1  6
 23 22  1  0
 23 24  2  0
 25 24  1  0
 26 25  2  0
 27 28  2  0
 27 26  1  0
 28 23  1  0
 29 30  2  0
 29 31  1  0
M  END
$$$$
