IFF.pdb
     RDKit          3D

 31 32  0  0  1  0  0  0  0  0999 V2000
   25.3800  -21.8405  -16.8066 C   0  0  0  0  0  0  0  0  0  0  0  0
   26.7118  -22.5692  -16.6464 C   0  0  0  0  0  0  0  0  0  0  0  0
   26.5027  -23.9892  -17.0798 C   0  0  2  0  0  0  0  0  0  0  0  0
   25.2688  -24.6036  -16.4555 C   0  0  0  0  0  0  0  0  0  0  0  0
   27.7115  -24.8468  -16.9509 C   0  0  2  0  0  0  0  0  0  0  0  0
   28.8173  -24.1477  -17.6331 N   0  0  0  0  0  0  0  0  0  0  0  0
   27.5704  -26.2203  -17.4905 C   0  0  0  0  0  0  0  0  0  0  0  0
   27.2694  -26.4132  -18.6930 O   0  0  0  0  0  0  0  0  0  0  0  0
   27.7775  -27.3376  -16.6402 N   0  0  0  0  0  0  0  0  0  0  0  0
   27.5739  -28.7335  -17.1005 C   0  0  1  0  0  0  0  0  0  0  0  0
   28.5579  -29.6274  -16.4309 C   0  0  0  0  0  0  0  0  0  0  0  0
   28.5077  -31.0485  -16.7395 C   0  0  0  0  0  0  0  0  0  0  0  0
   29.0220  -31.5671  -17.9147 C   0  0  0  0  0  0  0  0  0  0  0  0
   29.0067  -32.9198  -18.1861 C   0  0  0  0  0  0  0  0  0  0  0  0
   28.4732  -33.8114  -17.2872 C   0  0  0  0  0  0  0  0  0  0  0  0
   27.9604  -33.3174  -16.1211 C   0  0  0  0  0  0  0  0  0  0  0  0
   27.9763  -31.9558  -15.8490 C   0  0  0  0  0  0  0  0  0  0  0  0
   26.1621  -29.0987  -17.0013 C   0  0  0  0  0  0  0  0  0  0  0  0
   25.7891  -30.2057  -17.5442 O   0  0  0  0  0  0  0  0  0  0  0  0
   25.1340  -28.3722  -16.3645 N   0  0  0  0  0  0  0  0  0  0  0  0
   23.7591  -28.9045  -16.2800 C   0  0  1  0  0  0  0  0  0  0  0  0
   23.1757  -28.3943  -14.9838 C   0  0  0  0  0  0  0  0  0  0  0  0
   22.4173  -27.1556  -15.0809 C   0  0  0  0  0  0  0  0  0  0  0  0
   21.8733  -26.5720  -13.9577 C   0  0  0  0  0  0  0  0  0  0  0  0
   21.1704  -25.3913  -14.0748 C   0  0  0  0  0  0  0  0  0  0  0  0
   20.9952  -24.7733  -15.2946 C   0  0  0  0  0  0  0  0  0  0  0  0
   21.5405  -25.3631  -16.4024 C   0  0  0  0  0  0  0  0  0  0  0  0
   22.2418  -26.5373  -16.2995 C   0  0  0  0  0  0  0  0  0  0  0  0
   22.9181  -28.4888  -17.3935 C   0  0  0  0  0  0  0  0  0  0  0  0
   21.7599  -28.9297  -17.5600 O   0  0  0  0  0  0  0  0  0  0  0  0
   23.3832  -27.5767  -18.3152 O   0  0  0  0  0  0  0  0  0  0  0  0
  1  2  1  0
  3  5  1  0
  3  2  1  0
  3  4  1  1
  5  6  1  6
  7  9  1  0
  7  5  1  0
  8  7  2  0
 10  9  1  0
 11 12  1  0
 10 11  1  1
 12 17  1  0
 13 12  2  0
 13 14  1  0
 14 15  2  0
 15 16  1  0
 17 16  2  0
 18 10  1  0
 18 20  1  0
 19 18  2  0
 21 20  1  0
 21 29  1  0
 21 22  1  1
 23 22  1  0
 23 24  2  0
 25 24  1  0
 26 25  2  0
 27 28  2  0
 27 26  1  0
 28 23  1  0
 29 30  2  0
 29 31  1  0
M  END
$$$$
