IFF.pdb
     RDKit          3D

 31 32  0  0  1  0  0  0  0  0999 V2000
   23.7333  -20.9281  -22.4370 C   0  0  0  0  0  0  0  0  0  0  0  0
   25.1867  -20.9502  -21.9705 C   0  0  0  0  0  0  0  0  0  0  0  0
   25.1852  -21.2847  -20.5090 C   0  0  2  0  0  0  0  0  0  0  0  0
   24.1625  -20.4794  -19.7374 C   0  0  0  0  0  0  0  0  0  0  0  0
   26.5343  -21.2702  -19.8821 C   0  0  2  0  0  0  0  0  0  0  0  0
   27.3245  -22.3391  -20.5223 N   0  0  0  0  0  0  0  0  0  0  0  0
   26.5472  -21.4426  -18.4098 C   0  0  0  0  0  0  0  0  0  0  0  0
   26.3705  -22.5710  -17.8910 O   0  0  0  0  0  0  0  0  0  0  0  0
   26.7620  -20.3194  -17.5693 N   0  0  0  0  0  0  0  0  0  0  0  0
   26.8009  -20.4312  -16.0902 C   0  0  1  0  0  0  0  0  0  0  0  0
   27.8390  -19.5122  -15.5483 C   0  0  0  0  0  0  0  0  0  0  0  0
   28.0620  -19.5082  -14.1104 C   0  0  0  0  0  0  0  0  0  0  0  0
   28.7629  -20.5144  -13.4695 C   0  0  0  0  0  0  0  0  0  0  0  0
   29.0050  -20.4871  -12.1116 C   0  0  0  0  0  0  0  0  0  0  0  0
   28.5528  -19.4461  -11.3374 C   0  0  0  0  0  0  0  0  0  0  0  0
   27.8585  -18.4433  -11.9530 C   0  0  0  0  0  0  0  0  0  0  0  0
   27.6153  -18.4719  -13.3199 C   0  0  0  0  0  0  0  0  0  0  0  0
   25.4524  -20.3177  -15.5379 C   0  0  0  0  0  0  0  0  0  0  0  0
   24.8475  -19.1869  -15.6594 O   0  0  0  0  0  0  0  0  0  0  0  0
   24.7126  -21.3202  -14.8763 N   0  0  0  0  0  0  0  0  0  0  0  0
   23.5952  -20.9777  -13.9735 C   0  0  1  0  0  0  0  0  0  0  0  0
   24.1763  -20.1299  -12.8670 C   0  0  0  0  0  0  0  0  0  0  0  0
   24.9674  -20.8458  -11.8766 C   0  0  0  0  0  0  0  0  0  0  0  0
   25.2705  -22.1790  -12.0461 C   0  0  0  0  0  0  0  0  0  0  0  0
   26.0329  -22.8310  -11.0997 C   0  0  0  0  0  0  0  0  0  0  0  0
   26.5043  -22.1805   -9.9793 C   0  0  0  0  0  0  0  0  0  0  0  0
   26.1963  -20.8565   -9.8229 C   0  0  0  0  0  0  0  0  0  0  0  0
   25.4389  -20.1965  -10.7566 C   0  0  0  0  0  0  0  0  0  0  0  0
   22.5269  -20.2477  -14.6412 C   0  0  0  0  0  0  0  0  0  0  0  0
   21.3224  -20.5602  -14.5178 O   0  0  0  0  0  0  0  0  0  0  0  0
   22.8179  -19.1672  -15.4445 O   0  0  0  0  0  0  0  0  0  0  0  0
  1  2  1  0
  3  5  1  0
  3  2  1  0
  3  4  1  1
  5  6  1  6
  7  9  1  0
  7  5  1  0
  8  7  2  0
 10  9  1  0
 11 12  1  0
 10 11  1  1
 12 17  1  0
 13 12  2  0
 13 14  1  0
 14 15  2  0
 15 16  1  0
 17 16  2  0
 18 10  1  0
 18 20  1  0
 19 18  2  0
 21 20  1  0
 21 29  1  0
 21 22  1  1
 23 22  1  0
 23 24  2  0
 25 24  1  0
 26 25  2  0
 27 28  2  0
 27 26  1  0
 28 23  1  0
 29 30  2  0
 29 31  1  0
M  END
$$$$
