IFF.pdb
     RDKit          3D

 31 32  0  0  1  0  0  0  0  0999 V2000
   21.1129  -21.5645  -14.6997 C   0  0  0  0  0  0  0  0  0  0  0  0
   22.1508  -20.4812  -14.4178 C   0  0  0  0  0  0  0  0  0  0  0  0
   23.0170  -20.9690  -13.2955 C   0  0  2  0  0  0  0  0  0  0  0  0
   22.2409  -21.1499  -12.0091 C   0  0  0  0  0  0  0  0  0  0  0  0
   24.2724  -20.1912  -13.1162 C   0  0  2  0  0  0  0  0  0  0  0  0
   25.0199  -20.2703  -14.3858 N   0  0  0  0  0  0  0  0  0  0  0  0
   25.1328  -20.6332  -11.9928 C   0  0  0  0  0  0  0  0  0  0  0  0
   25.7855  -21.7023  -12.0621 O   0  0  0  0  0  0  0  0  0  0  0  0
   25.2242  -19.8404  -10.8192 N   0  0  0  0  0  0  0  0  0  0  0  0
   26.0882  -20.2165   -9.6729 C   0  0  1  0  0  0  0  0  0  0  0  0
   26.9380  -19.0566   -9.2881 C   0  0  0  0  0  0  0  0  0  0  0  0
   27.9237  -19.2534   -8.2358 C   0  0  0  0  0  0  0  0  0  0  0  0
   28.9780  -20.1395   -8.3686 C   0  0  0  0  0  0  0  0  0  0  0  0
   29.9318  -20.2949   -7.3839 C   0  0  0  0  0  0  0  0  0  0  0  0
   29.8676  -19.5655   -6.2214 C   0  0  0  0  0  0  0  0  0  0  0  0
   28.8333  -18.6854   -6.0725 C   0  0  0  0  0  0  0  0  0  0  0  0
   27.8737  -18.5300   -7.0643 C   0  0  0  0  0  0  0  0  0  0  0  0
   25.2893  -20.8397   -8.6194 C   0  0  0  0  0  0  0  0  0  0  0  0
   24.0745  -20.4379   -8.4705 O   0  0  0  0  0  0  0  0  0  0  0  0
   25.6938  -21.8549   -7.7274 N   0  0  0  0  0  0  0  0  0  0  0  0
   24.8542  -22.2419   -6.5758 C   0  0  1  0  0  0  0  0  0  0  0  0
   25.7757  -22.8770   -5.5616 C   0  0  0  0  0  0  0  0  0  0  0  0
   26.7021  -21.9698   -4.8999 C   0  0  0  0  0  0  0  0  0  0  0  0
   26.2443  -21.0091   -4.0250 C   0  0  0  0  0  0  0  0  0  0  0  0
   27.1438  -20.1705   -3.4007 C   0  0  0  0  0  0  0  0  0  0  0  0
   28.4998  -20.2675   -3.6296 C   0  0  0  0  0  0  0  0  0  0  0  0
   28.9416  -21.2258   -4.5007 C   0  0  0  0  0  0  0  0  0  0  0  0
   28.0574  -22.0660   -5.1280 C   0  0  0  0  0  0  0  0  0  0  0  0
   24.1624  -21.1128   -5.9704 C   0  0  0  0  0  0  0  0  0  0  0  0
   24.4400  -19.9267   -6.2530 O   0  0  0  0  0  0  0  0  0  0  0  0
   23.1592  -21.3225   -5.0500 O   0  0  0  0  0  0  0  0  0  0  0  0
  1  2  1  0
  3  5  1  0
  3  2  1  0
  3  4  1  1
  5  6  1  6
  7  9  1  0
  7  5  1  0
  8  7  2  0
 10  9  1  0
 11 12  1  0
 10 11  1  1
 12 17  1  0
 13 12  2  0
 13 14  1  0
 14 15  2  0
 15 16  1  0
 17 16  2  0
 18 10  1  0
 18 20  1  0
 19 18  2  0
 21 20  1  0
 21 29  1  0
 21 22  1  1
 23 22  1  0
 23 24  2  0
 25 24  1  0
 26 25  2  0
 27 28  2  0
 27 26  1  0
 28 23  1  0
 29 30  2  0
 29 31  1  0
M  END
$$$$
