IFF.pdb
     RDKit          3D

 31 32  0  0  1  0  0  0  0  0999 V2000
   23.3862  -16.9978  -19.1399 C   0  0  0  0  0  0  0  0  0  0  0  0
   24.3151  -16.9699  -17.9288 C   0  0  0  0  0  0  0  0  0  0  0  0
   24.2376  -18.3151  -17.2712 C   0  0  2  0  0  0  0  0  0  0  0  0
   22.8097  -18.7563  -17.0343 C   0  0  0  0  0  0  0  0  0  0  0  0
   25.0990  -18.4514  -16.0659 C   0  0  2  0  0  0  0  0  0  0  0  0
   26.4840  -18.1627  -16.4844 N   0  0  0  0  0  0  0  0  0  0  0  0
   25.0372  -19.7708  -15.3930 C   0  0  0  0  0  0  0  0  0  0  0  0
   25.4602  -20.8057  -15.9621 O   0  0  0  0  0  0  0  0  0  0  0  0
   24.4931  -19.8720  -14.0861 N   0  0  0  0  0  0  0  0  0  0  0  0
   24.3726  -21.1688  -13.3750 C   0  0  1  0  0  0  0  0  0  0  0  0
   25.2405  -21.1564  -12.1658 C   0  0  0  0  0  0  0  0  0  0  0  0
   26.6444  -20.8144  -12.3381 C   0  0  0  0  0  0  0  0  0  0  0  0
   27.1193  -19.5287  -12.1487 C   0  0  0  0  0  0  0  0  0  0  0  0
   28.4571  -19.2166  -12.2757 C   0  0  0  0  0  0  0  0  0  0  0  0
   29.3773  -20.1842  -12.5990 C   0  0  0  0  0  0  0  0  0  0  0  0
   28.9267  -21.4598  -12.7900 C   0  0  0  0  0  0  0  0  0  0  0  0
   27.5798  -21.7727  -12.6620 C   0  0  0  0  0  0  0  0  0  0  0  0
   22.9649  -21.5133  -13.1850 C   0  0  0  0  0  0  0  0  0  0  0  0
   22.5944  -21.8987  -12.0130 O   0  0  0  0  0  0  0  0  0  0  0  0
   21.9366  -21.4701  -14.1498 N   0  0  0  0  0  0  0  0  0  0  0  0
   20.6077  -22.0548  -13.8797 C   0  0  1  0  0  0  0  0  0  0  0  0
   19.6618  -20.8980  -13.6599 C   0  0  0  0  0  0  0  0  0  0  0  0
   19.9818  -20.0298  -12.5361 C   0  0  0  0  0  0  0  0  0  0  0  0
   20.6463  -18.8390  -12.7320 C   0  0  0  0  0  0  0  0  0  0  0  0
   20.9259  -18.0280  -11.6521 C   0  0  0  0  0  0  0  0  0  0  0  0
   20.5558  -18.3785  -10.3712 C   0  0  0  0  0  0  0  0  0  0  0  0
   19.8964  -19.5637  -10.1902 C   0  0  0  0  0  0  0  0  0  0  0  0
   19.6124  -20.3793  -11.2556 C   0  0  0  0  0  0  0  0  0  0  0  0
   20.1194  -22.8872  -14.9699 C   0  0  0  0  0  0  0  0  0  0  0  0
   19.0885  -23.5877  -14.8688 O   0  0  0  0  0  0  0  0  0  0  0  0
   20.7925  -22.9271  -16.1712 O   0  0  0  0  0  0  0  0  0  0  0  0
  1  2  1  0
  3  5  1  0
  3  2  1  0
  3  4  1  1
  5  6  1  6
  7  9  1  0
  7  5  1  0
  8  7  2  0
 10  9  1  0
 11 12  1  0
 10 11  1  1
 12 17  1  0
 13 12  2  0
 13 14  1  0
 14 15  2  0
 15 16  1  0
 17 16  2  0
 18 10  1  0
 18 20  1  0
 19 18  2  0
 21 20  1  0
 21 29  1  0
 21 22  1  6
 23 22  1  0
 23 24  2  0
 25 24  1  0
 26 25  2  0
 27 28  2  0
 27 26  1  0
 28 23  1  0
 29 30  2  0
 29 31  1  0
M  END
$$$$
