IFF.pdb
     RDKit          3D

 31 32  0  0  1  0  0  0  0  0999 V2000
   23.8613  -19.8853  -16.3385 C   0  0  0  0  0  0  0  0  0  0  0  0
   23.1171  -21.0018  -15.6105 C   0  0  0  0  0  0  0  0  0  0  0  0
   23.8841  -21.3132  -14.3605 C   0  0  2  0  0  0  0  0  0  0  0  0
   23.7055  -20.2504  -13.2982 C   0  0  0  0  0  0  0  0  0  0  0  0
   25.3090  -21.6701  -14.5963 C   0  0  2  0  0  0  0  0  0  0  0  0
   25.3239  -22.8141  -15.5279 N   0  0  0  0  0  0  0  0  0  0  0  0
   26.0867  -21.9983  -13.3777 C   0  0  0  0  0  0  0  0  0  0  0  0
   25.8332  -23.0289  -12.7088 O   0  0  0  0  0  0  0  0  0  0  0  0
   27.1343  -21.1388  -12.9559 N   0  0  0  0  0  0  0  0  0  0  0  0
   27.8664  -21.3461  -11.6820 C   0  0  1  0  0  0  0  0  0  0  0  0
   29.2956  -20.9709  -11.8619 C   0  0  0  0  0  0  0  0  0  0  0  0
   30.1815  -21.0915  -10.7139 C   0  0  0  0  0  0  0  0  0  0  0  0
   30.0817  -20.2581   -9.6140 C   0  0  0  0  0  0  0  0  0  0  0  0
   30.8987  -20.4005   -8.5114 C   0  0  0  0  0  0  0  0  0  0  0  0
   31.8528  -21.3880   -8.4660 C   0  0  0  0  0  0  0  0  0  0  0  0
   31.9661  -22.2206   -9.5433 C   0  0  0  0  0  0  0  0  0  0  0  0
   31.1433  -22.0762  -10.6526 C   0  0  0  0  0  0  0  0  0  0  0  0
   27.1445  -20.7210  -10.5754 C   0  0  0  0  0  0  0  0  0  0  0  0
   26.2422  -19.8483  -10.8645 O   0  0  0  0  0  0  0  0  0  0  0  0
   27.3157  -20.9656   -9.1966 N   0  0  0  0  0  0  0  0  0  0  0  0
   26.1554  -21.1374   -8.2993 C   0  0  1  0  0  0  0  0  0  0  0  0
   26.7013  -21.5958   -6.9679 C   0  0  0  0  0  0  0  0  0  0  0  0
   27.4919  -20.6129   -6.2412 C   0  0  0  0  0  0  0  0  0  0  0  0
   28.0774  -20.9310   -5.0354 C   0  0  0  0  0  0  0  0  0  0  0  0
   28.8326  -19.9859   -4.3732 C   0  0  0  0  0  0  0  0  0  0  0  0
   29.0197  -18.7210   -4.8885 C   0  0  0  0  0  0  0  0  0  0  0  0
   28.4329  -18.4177   -6.0868 C   0  0  0  0  0  0  0  0  0  0  0  0
   27.6794  -19.3485   -6.7554 C   0  0  0  0  0  0  0  0  0  0  0  0
   25.3884  -19.9129   -8.1196 C   0  0  0  0  0  0  0  0  0  0  0  0
   24.4086  -19.8430   -7.3457 O   0  0  0  0  0  0  0  0  0  0  0  0
   25.7278  -18.7705   -8.8104 O   0  0  0  0  0  0  0  0  0  0  0  0
  1  2  1  0
  3  5  1  0
  3  2  1  0
  3  4  1  1
  5  6  1  6
  7  9  1  0
  7  5  1  0
  8  7  2  0
 10  9  1  0
 11 12  1  0
 10 11  1  6
 12 17  1  0
 13 12  2  0
 13 14  1  0
 14 15  2  0
 15 16  1  0
 17 16  2  0
 18 10  1  0
 18 20  1  0
 19 18  2  0
 21 20  1  0
 21 29  1  0
 21 22  1  1
 23 22  1  0
 23 24  2  0
 25 24  1  0
 26 25  2  0
 27 28  2  0
 27 26  1  0
 28 23  1  0
 29 30  2  0
 29 31  1  0
M  END
$$$$
