VNE.pdb
     RDKit          3D

 25 24  0  0  1  0  0  0  0  0999 V2000
   17.7144  -14.9667  -18.1066 C   0  0  0  0  0  0  0  0  0  0  0  0
   19.2325  -14.8039  -18.2449 C   0  0  2  0  0  0  0  0  0  0  0  0
   19.8179  -16.1902  -18.1256 C   0  0  0  0  0  0  0  0  0  0  0  0
   19.7158  -14.0003  -17.0431 C   0  0  2  0  0  0  0  0  0  0  0  0
   19.3420  -14.7153  -15.8381 N   0  0  0  0  0  0  0  0  0  0  0  0
   19.0810  -12.6639  -17.0107 C   0  0  0  0  0  0  0  0  0  0  0  0
   19.3484  -11.8412  -17.9184 O   0  0  0  0  0  0  0  0  0  0  0  0
   15.6546  -10.9806  -18.2319 N   0  0  0  0  0  0  0  0  0  0  0  0
   15.1938  -11.1722  -16.8649 C   0  0  0  0  0  0  0  0  0  0  0  0
   13.9748  -11.3809  -16.7797 O   0  0  0  0  0  0  0  0  0  0  0  0
   16.1235  -11.1123  -15.7525 C   0  0  0  0  0  0  0  0  0  0  0  0
   17.5777  -10.8653  -16.0399 C   0  0  2  0  0  0  0  0  0  0  0  0
   18.1763  -12.2325  -16.0136 N   0  0  0  0  0  0  0  0  0  0  0  0
   18.2967  -10.0190  -15.0941 C   0  0  0  0  0  0  0  0  0  0  0  0
   18.4665  -10.4301  -13.8671 O   0  0  0  0  0  0  0  0  0  0  0  0
   18.8671   -8.7610  -15.3331 N   0  0  0  0  0  0  0  0  0  0  0  0
   19.6387   -8.0230  -14.3145 C   0  0  1  0  0  0  0  0  0  0  0  0
   20.6294   -7.1281  -14.9533 C   0  0  0  0  0  0  0  0  0  0  0  0
   21.4557   -6.3922  -13.9408 C   0  0  0  0  0  0  0  0  0  0  0  0
   22.4142   -5.4470  -14.6341 C   0  0  0  0  0  0  0  0  0  0  0  0
   22.5914   -4.3013  -14.1882 O   0  0  0  0  0  0  0  0  0  0  0  0
   18.6829   -7.2768  -13.4833 C   0  0  0  0  0  0  0  0  0  0  0  0
   17.6190   -6.7964  -13.9211 O   0  0  0  0  0  0  0  0  0  0  0  0
   23.0796   -5.8823  -15.7604 O   0  0  0  0  0  0  0  0  0  0  0  0
   18.9570   -7.0812  -12.1252 O   0  0  0  0  0  0  0  0  0  0  0  0
  2  1  1  1
  3  2  1  0
  4  2  1  0
  4  6  1  0
  4  5  1  1
  6  7  2  0
  9  8  1  0
 10  9  2  0
 12 11  1  1
 11  9  1  0
 12 14  1  0
 13  6  1  0
 13 12  1  0
 14 15  2  0
 16 17  1  0
 16 14  1  0
 17 22  1  0
 17 18  1  6
 19 18  1  0
 20 19  1  0
 21 20  2  0
 22 23  2  0
 22 25  1  0
 24 20  1  0
M  END
$$$$
