VNE.pdb
     RDKit          3D

 25 24  0  0  1  0  0  0  0  0999 V2000
   12.9857   -7.0084   -7.0319 C   0  0  0  0  0  0  0  0  0  0  0  0
   14.1452   -7.5730   -7.8608 C   0  0  2  0  0  0  0  0  0  0  0  0
   14.9193   -6.3812   -8.3699 C   0  0  0  0  0  0  0  0  0  0  0  0
   13.5404   -8.2745   -9.0715 C   0  0  2  0  0  0  0  0  0  0  0  0
   12.9184   -9.5044   -8.6205 N   0  0  0  0  0  0  0  0  0  0  0  0
   14.5855   -8.6142  -10.0626 C   0  0  0  0  0  0  0  0  0  0  0  0
   15.4362   -9.4890   -9.7739 O   0  0  0  0  0  0  0  0  0  0  0  0
   15.7644  -11.3366  -12.5880 N   0  0  0  0  0  0  0  0  0  0  0  0
   14.9653  -10.5257  -13.4945 C   0  0  0  0  0  0  0  0  0  0  0  0
   14.2944  -11.1947  -14.2939 O   0  0  0  0  0  0  0  0  0  0  0  0
   14.9960   -9.0770  -13.4178 C   0  0  0  0  0  0  0  0  0  0  0  0
   15.7655   -8.4296  -12.3011 C   0  0  2  0  0  0  0  0  0  0  0  0
   14.7026   -8.0159  -11.3381 N   0  0  0  0  0  0  0  0  0  0  0  0
   16.5649   -7.2604  -12.6498 C   0  0  0  0  0  0  0  0  0  0  0  0
   15.9787   -6.1035  -12.7952 O   0  0  0  0  0  0  0  0  0  0  0  0
   17.9504   -7.2009  -12.8552 N   0  0  0  0  0  0  0  0  0  0  0  0
   18.6490   -5.9668  -13.2631 C   0  0  1  0  0  0  0  0  0  0  0  0
   20.1057   -6.0876  -13.0316 C   0  0  0  0  0  0  0  0  0  0  0  0
   20.8570   -4.8977  -13.5504 C   0  0  0  0  0  0  0  0  0  0  0  0
   22.3488   -5.1247  -13.4252 C   0  0  0  0  0  0  0  0  0  0  0  0
   22.7794   -6.1007  -12.7890 O   0  0  0  0  0  0  0  0  0  0  0  0
   18.3381   -5.7243  -14.6794 C   0  0  0  0  0  0  0  0  0  0  0  0
   18.1389   -6.6361  -15.5060 O   0  0  0  0  0  0  0  0  0  0  0  0
   23.2101   -4.2325  -14.0275 O   0  0  0  0  0  0  0  0  0  0  0  0
   18.2550   -4.4095  -15.1511 O   0  0  0  0  0  0  0  0  0  0  0  0
  2  1  1  1
  3  2  1  0
  4  2  1  0
  4  6  1  0
  4  5  1  1
  6  7  2  0
  9  8  1  0
 10  9  2  0
 12 11  1  6
 11  9  1  0
 12 14  1  0
 13  6  1  0
 13 12  1  0
 14 15  2  0
 16 17  1  0
 16 14  1  0
 17 22  1  0
 17 18  1  6
 19 18  1  0
 20 19  1  0
 21 20  2  0
 22 23  2  0
 22 25  1  0
 24 20  1  0
M  END
$$$$
