VNE.pdb
     RDKit          3D

 25 24  0  0  1  0  0  0  0  0999 V2000
   30.0646  -24.6456  -20.6518 C   0  0  0  0  0  0  0  0  0  0  0  0
   30.6723  -25.8560  -19.9335 C   0  0  2  0  0  0  0  0  0  0  0  0
   29.5414  -26.8337  -19.7242 C   0  0  0  0  0  0  0  0  0  0  0  0
   31.1296  -25.3866  -18.5572 C   0  0  2  0  0  0  0  0  0  0  0  0
   31.5942  -26.5420  -17.8141 N   0  0  0  0  0  0  0  0  0  0  0  0
   30.0113  -24.7684  -17.8108 C   0  0  0  0  0  0  0  0  0  0  0  0
   29.2668  -25.4990  -17.1150 O   0  0  0  0  0  0  0  0  0  0  0  0
   27.0533  -21.0666  -15.2417 N   0  0  0  0  0  0  0  0  0  0  0  0
   28.4520  -20.7554  -15.4956 C   0  0  0  0  0  0  0  0  0  0  0  0
   28.8494  -19.7453  -14.8967 O   0  0  0  0  0  0  0  0  0  0  0  0
   29.2501  -21.5880  -16.3761 C   0  0  0  0  0  0  0  0  0  0  0  0
   28.6235  -22.8177  -16.9706 C   0  0  2  0  0  0  0  0  0  0  0  0
   29.7098  -23.3872  -17.8212 N   0  0  0  0  0  0  0  0  0  0  0  0
   27.4381  -22.6139  -17.7957 C   0  0  0  0  0  0  0  0  0  0  0  0
   27.5799  -22.2902  -19.0520 O   0  0  0  0  0  0  0  0  0  0  0  0
   26.0956  -22.7295  -17.4090 N   0  0  0  0  0  0  0  0  0  0  0  0
   24.9705  -22.4611  -18.3253 C   0  0  1  0  0  0  0  0  0  0  0  0
   23.7196  -23.0614  -17.8102 C   0  0  0  0  0  0  0  0  0  0  0  0
   22.5793  -22.8920  -18.7695 C   0  0  0  0  0  0  0  0  0  0  0  0
   21.2854  -23.3520  -18.1317 C   0  0  0  0  0  0  0  0  0  0  0  0
   20.1983  -22.9106  -18.5394 O   0  0  0  0  0  0  0  0  0  0  0  0
   24.8559  -21.0034  -18.4777 C   0  0  0  0  0  0  0  0  0  0  0  0
   25.0767  -20.1956  -17.5541 O   0  0  0  0  0  0  0  0  0  0  0  0
   21.3402  -24.2631  -17.0985 O   0  0  0  0  0  0  0  0  0  0  0  0
   24.4809  -20.4674  -19.7147 O   0  0  0  0  0  0  0  0  0  0  0  0
  2  1  1  6
  3  2  1  0
  4  2  1  0
  4  6  1  0
  4  5  1  1
  6  7  2  0
  9  8  1  0
 10  9  2  0
 12 11  1  6
 11  9  1  0
 12 14  1  0
 13  6  1  0
 13 12  1  0
 14 15  2  0
 16 17  1  0
 16 14  1  0
 17 22  1  0
 17 18  1  1
 19 18  1  0
 20 19  1  0
 21 20  2  0
 22 23  2  0
 22 25  1  0
 24 20  1  0
M  END
$$$$
