VNE.pdb
     RDKit          3D

 25 24  0  0  1  0  0  0  0  0999 V2000
   17.2947  -12.0112  -18.2045 C   0  0  0  0  0  0  0  0  0  0  0  0
   16.9281  -12.4923  -16.7959 C   0  0  2  0  0  0  0  0  0  0  0  0
   15.5064  -12.0459  -16.5545 C   0  0  0  0  0  0  0  0  0  0  0  0
   17.8156  -11.7390  -15.8118 C   0  0  2  0  0  0  0  0  0  0  0  0
   17.2891  -11.9439  -14.4762 N   0  0  0  0  0  0  0  0  0  0  0  0
   17.8108  -10.2874  -16.0995 C   0  0  0  0  0  0  0  0  0  0  0  0
   18.3932   -9.8692  -17.1281 O   0  0  0  0  0  0  0  0  0  0  0  0
   16.6568   -5.0178  -15.8842 N   0  0  0  0  0  0  0  0  0  0  0  0
   15.6077   -5.9392  -15.4743 C   0  0  0  0  0  0  0  0  0  0  0  0
   14.5136   -5.3882  -15.2842 O   0  0  0  0  0  0  0  0  0  0  0  0
   15.8815   -7.3558  -15.3208 C   0  0  0  0  0  0  0  0  0  0  0  0
   17.2684   -7.8580  -15.6087 C   0  0  2  0  0  0  0  0  0  0  0  0
   17.1869   -9.3133  -15.2868 N   0  0  0  0  0  0  0  0  0  0  0  0
   18.3525   -7.2650  -14.8338 C   0  0  0  0  0  0  0  0  0  0  0  0
   18.3224   -7.3361  -13.5310 O   0  0  0  0  0  0  0  0  0  0  0  0
   19.4868   -6.5990  -15.3189 N   0  0  0  0  0  0  0  0  0  0  0  0
   20.6766   -6.3312  -14.4883 C   0  0  1  0  0  0  0  0  0  0  0  0
   21.7301   -7.3397  -14.7402 C   0  0  0  0  0  0  0  0  0  0  0  0
   22.2688   -7.2515  -16.1372 C   0  0  0  0  0  0  0  0  0  0  0  0
   23.2701   -8.3603  -16.3835 C   0  0  0  0  0  0  0  0  0  0  0  0
   23.6138   -9.1076  -15.4528 O   0  0  0  0  0  0  0  0  0  0  0  0
   21.1382   -4.9694  -14.7942 C   0  0  0  0  0  0  0  0  0  0  0  0
   22.0214   -4.3793  -14.1415 O   0  0  0  0  0  0  0  0  0  0  0  0
   23.7868   -8.5203  -17.6516 O   0  0  0  0  0  0  0  0  0  0  0  0
   20.5731   -4.2759  -15.8702 O   0  0  0  0  0  0  0  0  0  0  0  0
  2  1  1  6
  3  2  1  0
  4  2  1  0
  4  6  1  0
  4  5  1  1
  6  7  2  0
  9  8  1  0
 10  9  2  0
 12 11  1  1
 11  9  1  0
 12 14  1  0
 13  6  1  0
 13 12  1  0
 14 15  2  0
 16 17  1  0
 16 14  1  0
 17 22  1  0
 17 18  1  6
 19 18  1  0
 20 19  1  0
 21 20  2  0
 22 23  2  0
 22 25  1  0
 24 20  1  0
M  END
$$$$
