VNE.pdb
     RDKit          3D

 25 24  0  0  1  0  0  0  0  0999 V2000
   21.1513  -15.6757  -17.8664 C   0  0  0  0  0  0  0  0  0  0  0  0
   19.6901  -15.3542  -18.2009 C   0  0  2  0  0  0  0  0  0  0  0  0
   19.3691  -16.1162  -19.4639 C   0  0  0  0  0  0  0  0  0  0  0  0
   19.6152  -13.8685  -18.5336 C   0  0  2  0  0  0  0  0  0  0  0  0
   20.3243  -13.6451  -19.7786 N   0  0  0  0  0  0  0  0  0  0  0  0
   20.2581  -13.0568  -17.4763 C   0  0  0  0  0  0  0  0  0  0  0  0
   19.8379  -13.1489  -16.2986 O   0  0  0  0  0  0  0  0  0  0  0  0
   23.7663  -10.3155  -14.5775 N   0  0  0  0  0  0  0  0  0  0  0  0
   24.2918  -11.0503  -15.7184 C   0  0  0  0  0  0  0  0  0  0  0  0
   25.5286  -11.1347  -15.7238 O   0  0  0  0  0  0  0  0  0  0  0  0
   23.3997  -11.6058  -16.7188 C   0  0  0  0  0  0  0  0  0  0  0  0
   21.9228  -11.3632  -16.5831 C   0  0  2  0  0  0  0  0  0  0  0  0
   21.3332  -12.1653  -17.6954 N   0  0  0  0  0  0  0  0  0  0  0  0
   21.4727   -9.9816  -16.7098 C   0  0  0  0  0  0  0  0  0  0  0  0
   21.5720   -9.3785  -17.8629 O   0  0  0  0  0  0  0  0  0  0  0  0
   20.9122   -9.1691  -15.7143 N   0  0  0  0  0  0  0  0  0  0  0  0
   20.4686   -7.7841  -15.9643 C   0  0  1  0  0  0  0  0  0  0  0  0
   19.1623   -7.5270  -15.3180 C   0  0  0  0  0  0  0  0  0  0  0  0
   18.0163   -8.0060  -16.1586 C   0  0  0  0  0  0  0  0  0  0  0  0
   16.9306   -8.5907  -15.2800 C   0  0  0  0  0  0  0  0  0  0  0  0
   16.7676   -9.8210  -15.2263 O   0  0  0  0  0  0  0  0  0  0  0  0
   21.5149   -6.8819  -15.4620 C   0  0  0  0  0  0  0  0  0  0  0  0
   22.5245   -7.2750  -14.8451 O   0  0  0  0  0  0  0  0  0  0  0  0
   16.1349   -7.7356  -14.5478 O   0  0  0  0  0  0  0  0  0  0  0  0
   21.3965   -5.5038  -15.6742 O   0  0  0  0  0  0  0  0  0  0  0  0
  2  1  1  6
  3  2  1  0
  4  2  1  0
  4  6  1  0
  4  5  1  6
  6  7  2  0
  9  8  1  0
 10  9  2  0
 12 11  1  6
 11  9  1  0
 12 14  1  0
 13  6  1  0
 13 12  1  0
 14 15  2  0
 16 17  1  0
 16 14  1  0
 17 22  1  0
 17 18  1  1
 19 18  1  0
 20 19  1  0
 21 20  2  0
 22 23  2  0
 22 25  1  0
 24 20  1  0
M  END
$$$$
