VNE.pdb
     RDKit          3D

 25 24  0  0  1  0  0  0  0  0999 V2000
   11.8245  -23.2348   -5.0499 C   0  0  0  0  0  0  0  0  0  0  0  0
   12.1419  -21.7814   -5.4203 C   0  0  2  0  0  0  0  0  0  0  0  0
   12.6475  -21.8093   -6.8424 C   0  0  0  0  0  0  0  0  0  0  0  0
   13.2967  -21.3275   -4.5348 C   0  0  2  0  0  0  0  0  0  0  0  0
   14.4725  -22.0980   -4.8908 N   0  0  0  0  0  0  0  0  0  0  0  0
   12.9941  -21.5679   -3.1064 C   0  0  0  0  0  0  0  0  0  0  0  0
   11.9197  -21.1306   -2.6302 O   0  0  0  0  0  0  0  0  0  0  0  0
   11.7670  -25.4377   -1.9664 N   0  0  0  0  0  0  0  0  0  0  0  0
   11.8832  -24.3214   -1.0401 C   0  0  0  0  0  0  0  0  0  0  0  0
   10.7895  -23.8524   -0.6928 O   0  0  0  0  0  0  0  0  0  0  0  0
   13.1846  -23.8507   -0.6039 C   0  0  0  0  0  0  0  0  0  0  0  0
   13.5163  -22.3939   -0.7650 C   0  0  2  0  0  0  0  0  0  0  0  0
   13.8408  -22.2677   -2.2165 N   0  0  0  0  0  0  0  0  0  0  0  0
   14.6415  -21.8894    0.0140 C   0  0  0  0  0  0  0  0  0  0  0  0
   15.8578  -22.2049   -0.3388 O   0  0  0  0  0  0  0  0  0  0  0  0
   14.5974  -21.0633    1.1458 N   0  0  0  0  0  0  0  0  0  0  0  0
   15.8092  -20.6011    1.8497 C   0  0  1  0  0  0  0  0  0  0  0  0
   15.6447  -19.2063    2.3167 C   0  0  0  0  0  0  0  0  0  0  0  0
   14.5504  -19.0807    3.3347 C   0  0  0  0  0  0  0  0  0  0  0  0
   14.4180  -17.6417    3.7866 C   0  0  0  0  0  0  0  0  0  0  0  0
   15.0469  -17.2401    4.7797 O   0  0  0  0  0  0  0  0  0  0  0  0
   16.0586  -21.5259    2.9649 C   0  0  0  0  0  0  0  0  0  0  0  0
   17.0821  -21.4865    3.6756 O   0  0  0  0  0  0  0  0  0  0  0  0
   13.5921  -16.7953    3.0781 O   0  0  0  0  0  0  0  0  0  0  0  0
   15.1131  -22.5123    3.2666 O   0  0  0  0  0  0  0  0  0  0  0  0
  2  1  1  1
  3  2  1  0
  4  2  1  0
  4  6  1  0
  4  5  1  6
  6  7  2  0
  9  8  1  0
 10  9  2  0
 12 11  1  1
 11  9  1  0
 12 14  1  0
 13  6  1  0
 13 12  1  0
 14 15  2  0
 16 17  1  0
 16 14  1  0
 17 22  1  0
 17 18  1  1
 19 18  1  0
 20 19  1  0
 21 20  2  0
 22 23  2  0
 22 25  1  0
 24 20  1  0
M  END
$$$$
