VNE.pdb
     RDKit          3D

 25 24  0  0  1  0  0  0  0  0999 V2000
   17.1992  -14.8593  -17.7987 C   0  0  0  0  0  0  0  0  0  0  0  0
   18.3188  -14.8261  -16.7520 C   0  0  2  0  0  0  0  0  0  0  0  0
   18.1307  -16.0539  -15.8941 C   0  0  0  0  0  0  0  0  0  0  0  0
   18.0778  -13.6096  -15.8656 C   0  0  2  0  0  0  0  0  0  0  0  0
   16.7124  -13.6642  -15.3803 N   0  0  0  0  0  0  0  0  0  0  0  0
   18.2531  -12.3549  -16.6305 C   0  0  0  0  0  0  0  0  0  0  0  0
   18.5779  -12.4200  -17.8398 O   0  0  0  0  0  0  0  0  0  0  0  0
   15.5838   -8.4025  -19.1661 N   0  0  0  0  0  0  0  0  0  0  0  0
   16.9165   -8.9373  -18.9303 C   0  0  0  0  0  0  0  0  0  0  0  0
   17.7941   -8.3969  -19.6191 O   0  0  0  0  0  0  0  0  0  0  0  0
   17.1301  -10.0015  -17.9672 C   0  0  0  0  0  0  0  0  0  0  0  0
   18.2126   -9.8368  -16.9380 C   0  0  2  0  0  0  0  0  0  0  0  0
   18.0794  -11.0593  -16.0920 N   0  0  0  0  0  0  0  0  0  0  0  0
   18.1261   -8.6600  -16.0806 C   0  0  0  0  0  0  0  0  0  0  0  0
   17.2736   -8.6483  -15.0925 O   0  0  0  0  0  0  0  0  0  0  0  0
   18.8755   -7.4786  -16.1701 N   0  0  0  0  0  0  0  0  0  0  0  0
   19.1269   -6.5980  -15.0130 C   0  0  1  0  0  0  0  0  0  0  0  0
   20.5621   -6.2483  -14.9219 C   0  0  0  0  0  0  0  0  0  0  0  0
   20.8580   -5.4009  -13.7203 C   0  0  0  0  0  0  0  0  0  0  0  0
   22.3524   -5.2095  -13.5695 C   0  0  0  0  0  0  0  0  0  0  0  0
   22.7963   -4.2125  -12.9763 O   0  0  0  0  0  0  0  0  0  0  0  0
   18.2815   -5.4052  -15.1668 C   0  0  0  0  0  0  0  0  0  0  0  0
   17.9781   -4.6504  -14.2221 O   0  0  0  0  0  0  0  0  0  0  0  0
   23.2013   -6.1575  -14.0999 O   0  0  0  0  0  0  0  0  0  0  0  0
   17.7776   -5.0761  -16.4301 O   0  0  0  0  0  0  0  0  0  0  0  0
  2  1  1  6
  3  2  1  0
  4  2  1  0
  4  6  1  0
  4  5  1  6
  6  7  2  0
  9  8  1  0
 10  9  2  0
 12 11  1  6
 11  9  1  0
 12 14  1  0
 13  6  1  0
 13 12  1  0
 14 15  2  0
 16 17  1  0
 16 14  1  0
 17 22  1  0
 17 18  1  6
 19 18  1  0
 20 19  1  0
 21 20  2  0
 22 23  2  0
 22 25  1  0
 24 20  1  0
M  END
$$$$
