VNE.pdb
     RDKit          3D

 25 24  0  0  1  0  0  0  0  0999 V2000
   27.7040  -20.9419  -15.4878 C   0  0  0  0  0  0  0  0  0  0  0  0
   27.5980  -22.3803  -16.0073 C   0  0  2  0  0  0  0  0  0  0  0  0
   28.6343  -22.5127  -17.0969 C   0  0  0  0  0  0  0  0  0  0  0  0
   26.2286  -22.5290  -16.6604 C   0  0  2  0  0  0  0  0  0  0  0  0
   26.0686  -21.4615  -17.6288 N   0  0  0  0  0  0  0  0  0  0  0  0
   25.1483  -22.4155  -15.6555 C   0  0  0  0  0  0  0  0  0  0  0  0
   25.0273  -23.3131  -14.7884 O   0  0  0  0  0  0  0  0  0  0  0  0
   21.4346  -20.8997  -12.2631 N   0  0  0  0  0  0  0  0  0  0  0  0
   22.6189  -20.0815  -12.4768 C   0  0  0  0  0  0  0  0  0  0  0  0
   22.8079  -19.2440  -11.5826 O   0  0  0  0  0  0  0  0  0  0  0  0
   23.4563  -20.2778  -13.6454 C   0  0  0  0  0  0  0  0  0  0  0  0
   23.0862  -21.3552  -14.6256 C   0  0  2  0  0  0  0  0  0  0  0  0
   24.2209  -21.3501  -15.5954 N   0  0  0  0  0  0  0  0  0  0  0  0
   21.8394  -21.1710  -15.3598 C   0  0  0  0  0  0  0  0  0  0  0  0
   21.8553  -20.5382  -16.5010 O   0  0  0  0  0  0  0  0  0  0  0  0
   20.5583  -21.6078  -14.9946 N   0  0  0  0  0  0  0  0  0  0  0  0
   19.3442  -21.2610  -15.7581 C   0  0  1  0  0  0  0  0  0  0  0  0
   18.1345  -21.4183  -14.9200 C   0  0  0  0  0  0  0  0  0  0  0  0
   16.8782  -21.1379  -15.6897 C   0  0  0  0  0  0  0  0  0  0  0  0
   15.6670  -21.3185  -14.7992 C   0  0  0  0  0  0  0  0  0  0  0  0
   15.7751  -21.9106  -13.7126 O   0  0  0  0  0  0  0  0  0  0  0  0
   19.4992  -19.8815  -16.2421 C   0  0  0  0  0  0  0  0  0  0  0  0
   19.8850  -18.9393  -15.5227 O   0  0  0  0  0  0  0  0  0  0  0  0
   14.4532  -20.8160  -15.2173 O   0  0  0  0  0  0  0  0  0  0  0  0
   19.2051  -19.5827  -17.5771 O   0  0  0  0  0  0  0  0  0  0  0  0
  2  1  1  6
  3  2  1  0
  4  2  1  0
  4  6  1  0
  4  5  1  6
  6  7  2  0
  9  8  1  0
 10  9  2  0
 12 11  1  1
 11  9  1  0
 12 14  1  0
 13  6  1  0
 13 12  1  0
 14 15  2  0
 16 17  1  0
 16 14  1  0
 17 22  1  0
 17 18  1  1
 19 18  1  0
 20 19  1  0
 21 20  2  0
 22 23  2  0
 22 25  1  0
 24 20  1  0
M  END
$$$$
