VNE.pdb
     RDKit          3D

 25 24  0  0  1  0  0  0  0  0999 V2000
   12.6608  -10.9652   -9.5584 C   0  0  0  0  0  0  0  0  0  0  0  0
   12.4834  -10.0042   -8.3772 C   0  0  2  0  0  0  0  0  0  0  0  0
   11.0431  -10.1307   -7.9432 C   0  0  0  0  0  0  0  0  0  0  0  0
   12.6766   -8.5886   -8.9086 C   0  0  2  0  0  0  0  0  0  0  0  0
   11.7722   -8.3951  -10.0256 N   0  0  0  0  0  0  0  0  0  0  0  0
   14.0622   -8.3881   -9.3877 C   0  0  0  0  0  0  0  0  0  0  0  0
   14.9951   -8.3462   -8.5510 O   0  0  0  0  0  0  0  0  0  0  0  0
   17.0592  -10.4266  -10.3407 N   0  0  0  0  0  0  0  0  0  0  0  0
   16.7379  -10.2048  -11.7426 C   0  0  0  0  0  0  0  0  0  0  0  0
   17.0191  -11.1673  -12.4716 O   0  0  0  0  0  0  0  0  0  0  0  0
   16.1463   -8.9542  -12.1802 C   0  0  0  0  0  0  0  0  0  0  0  0
   15.8238   -7.9090  -11.1497 C   0  0  2  0  0  0  0  0  0  0  0  0
   14.4246   -8.2364  -10.7458 N   0  0  0  0  0  0  0  0  0  0  0  0
   15.8730   -6.5193  -11.5902 C   0  0  0  0  0  0  0  0  0  0  0  0
   15.1603   -6.1474  -12.6184 O   0  0  0  0  0  0  0  0  0  0  0  0
   16.6135   -5.4692  -11.0297 N   0  0  0  0  0  0  0  0  0  0  0  0
   16.5966   -4.0968  -11.5714 C   0  0  1  0  0  0  0  0  0  0  0  0
   16.6069   -3.1006  -10.4769 C   0  0  0  0  0  0  0  0  0  0  0  0
   15.3239   -3.1070   -9.7002 C   0  0  0  0  0  0  0  0  0  0  0  0
   15.3576   -2.0424   -8.6240 C   0  0  0  0  0  0  0  0  0  0  0  0
   16.3729   -1.3435   -8.4705 O   0  0  0  0  0  0  0  0  0  0  0  0
   17.7620   -3.9506  -12.4555 C   0  0  0  0  0  0  0  0  0  0  0  0
   18.6553   -4.8133  -12.5647 O   0  0  0  0  0  0  0  0  0  0  0  0
   14.2470   -1.8677   -7.8262 O   0  0  0  0  0  0  0  0  0  0  0  0
   17.9004   -2.7914  -13.2270 O   0  0  0  0  0  0  0  0  0  0  0  0
  2  1  1  6
  3  2  1  0
  4  2  1  0
  4  6  1  0
  4  5  1  6
  6  7  2  0
  9  8  1  0
 10  9  2  0
 12 11  1  6
 11  9  1  0
 12 14  1  0
 13  6  1  0
 13 12  1  0
 14 15  2  0
 16 17  1  0
 16 14  1  0
 17 22  1  0
 17 18  1  1
 19 18  1  0
 20 19  1  0
 21 20  2  0
 22 23  2  0
 22 25  1  0
 24 20  1  0
M  END
$$$$
