VNE.pdb
     RDKit          3D

 25 24  0  0  1  0  0  0  0  0999 V2000
   16.9105  -12.9893  -16.2885 C   0  0  0  0  0  0  0  0  0  0  0  0
   18.2485  -12.7150  -16.9847 C   0  0  2  0  0  0  0  0  0  0  0  0
   19.1233  -13.9128  -16.7042 C   0  0  0  0  0  0  0  0  0  0  0  0
   18.8842  -11.5145  -16.2929 C   0  0  2  0  0  0  0  0  0  0  0  0
   19.0993  -11.8541  -14.8996 N   0  0  0  0  0  0  0  0  0  0  0  0
   17.9927  -10.3350  -16.3553 C   0  0  0  0  0  0  0  0  0  0  0  0
   17.6708   -9.8743  -17.4761 O   0  0  0  0  0  0  0  0  0  0  0  0
   13.3455   -8.6457  -16.4239 N   0  0  0  0  0  0  0  0  0  0  0  0
   14.3367   -9.4617  -15.7387 C   0  0  0  0  0  0  0  0  0  0  0  0
   14.2633  -10.6669  -16.0196 O   0  0  0  0  0  0  0  0  0  0  0  0
   15.2912   -8.8604  -14.8261 C   0  0  0  0  0  0  0  0  0  0  0  0
   16.6321   -8.4397  -15.3585 C   0  0  2  0  0  0  0  0  0  0  0  0
   17.4638   -9.6719  -15.2243 N   0  0  0  0  0  0  0  0  0  0  0  0
   17.2980   -7.3447  -14.6619 C   0  0  0  0  0  0  0  0  0  0  0  0
   17.8534   -7.5669  -13.5020 O   0  0  0  0  0  0  0  0  0  0  0  0
   17.4380   -6.0172  -15.0898 N   0  0  0  0  0  0  0  0  0  0  0  0
   18.3766   -5.0666  -14.4629 C   0  0  1  0  0  0  0  0  0  0  0  0
   19.7629   -5.5812  -14.5234 C   0  0  0  0  0  0  0  0  0  0  0  0
   20.7400   -4.6374  -13.8877 C   0  0  0  0  0  0  0  0  0  0  0  0
   22.1291   -5.2400  -13.8921 C   0  0  0  0  0  0  0  0  0  0  0  0
   22.4355   -6.1056  -13.0556 O   0  0  0  0  0  0  0  0  0  0  0  0
   18.2399   -3.7787  -15.1585 C   0  0  0  0  0  0  0  0  0  0  0  0
   17.6517   -3.6451  -16.2496 O   0  0  0  0  0  0  0  0  0  0  0  0
   23.0373   -4.8108  -14.8363 O   0  0  0  0  0  0  0  0  0  0  0  0
   18.7895   -2.6255  -14.5874 O   0  0  0  0  0  0  0  0  0  0  0  0
  2  1  1  1
  3  2  1  0
  4  2  1  0
  4  6  1  0
  4  5  1  1
  6  7  2  0
  9  8  1  0
 10  9  2  0
 12 11  1  1
 11  9  1  0
 12 14  1  0
 13  6  1  0
 13 12  1  0
 14 15  2  0
 16 17  1  0
 16 14  1  0
 17 22  1  0
 17 18  1  6
 19 18  1  0
 20 19  1  0
 21 20  2  0
 22 23  2  0
 22 25  1  0
 24 20  1  0
M  END
$$$$
