VNE.pdb
     RDKit          3D

 25 24  0  0  1  0  0  0  0  0999 V2000
   12.2901  -11.6510  -12.4245 C   0  0  0  0  0  0  0  0  0  0  0  0
   13.0309  -12.3049  -11.2524 C   0  0  2  0  0  0  0  0  0  0  0  0
   12.4672  -11.6833   -9.9976 C   0  0  0  0  0  0  0  0  0  0  0  0
   14.4942  -11.8889  -11.3494 C   0  0  2  0  0  0  0  0  0  0  0  0
   15.1917  -12.4062  -10.1879 N   0  0  0  0  0  0  0  0  0  0  0  0
   14.6256  -10.4150  -11.3565 C   0  0  0  0  0  0  0  0  0  0  0  0
   14.2096   -9.7720  -12.3493 O   0  0  0  0  0  0  0  0  0  0  0  0
   15.7304   -5.9422   -7.4730 N   0  0  0  0  0  0  0  0  0  0  0  0
   14.9066   -6.3606   -8.5973 C   0  0  0  0  0  0  0  0  0  0  0  0
   14.3271   -5.4209   -9.1611 O   0  0  0  0  0  0  0  0  0  0  0  0
   14.8151   -7.7597   -8.9708 C   0  0  0  0  0  0  0  0  0  0  0  0
   15.2396   -8.1667  -10.3537 C   0  0  2  0  0  0  0  0  0  0  0  0
   15.1966   -9.6581  -10.3078 N   0  0  0  0  0  0  0  0  0  0  0  0
   16.5703   -7.7475  -10.7792 C   0  0  0  0  0  0  0  0  0  0  0  0
   17.6118   -8.1232  -10.0884 O   0  0  0  0  0  0  0  0  0  0  0  0
   16.9056   -6.9605  -11.8898 N   0  0  0  0  0  0  0  0  0  0  0  0
   18.2976   -6.6179  -12.2397 C   0  0  1  0  0  0  0  0  0  0  0  0
   18.9099   -7.6856  -13.0616 C   0  0  0  0  0  0  0  0  0  0  0  0
   20.3087   -7.3403  -13.4785 C   0  0  0  0  0  0  0  0  0  0  0  0
   20.9455   -8.5116  -14.1963 C   0  0  0  0  0  0  0  0  0  0  0  0
   21.6959   -8.3147  -15.1664 O   0  0  0  0  0  0  0  0  0  0  0  0
   18.2769   -5.3282  -12.9449 C   0  0  0  0  0  0  0  0  0  0  0  0
   17.2426   -4.8212  -13.4217 O   0  0  0  0  0  0  0  0  0  0  0  0
   20.6767   -9.7891  -13.7533 O   0  0  0  0  0  0  0  0  0  0  0  0
   19.4676   -4.6102  -13.1031 O   0  0  0  0  0  0  0  0  0  0  0  0
  2  1  1  6
  3  2  1  0
  4  2  1  0
  4  6  1  0
  4  5  1  1
  6  7  2  0
  9  8  1  0
 10  9  2  0
 12 11  1  1
 11  9  1  0
 12 14  1  0
 13  6  1  0
 13 12  1  0
 14 15  2  0
 16 17  1  0
 16 14  1  0
 17 22  1  0
 17 18  1  6
 19 18  1  0
 20 19  1  0
 21 20  2  0
 22 23  2  0
 22 25  1  0
 24 20  1  0
M  END
$$$$
