VNE.pdb
     RDKit          3D

 25 24  0  0  1  0  0  0  0  0999 V2000
   16.8242  -12.2919  -15.1608 C   0  0  0  0  0  0  0  0  0  0  0  0
   15.3665  -12.1269  -14.7158 C   0  0  2  0  0  0  0  0  0  0  0  0
   14.5416  -12.9806  -15.6482 C   0  0  0  0  0  0  0  0  0  0  0  0
   14.9764  -10.6741  -14.9632 C   0  0  2  0  0  0  0  0  0  0  0  0
   15.2336  -10.3654  -16.3566 N   0  0  0  0  0  0  0  0  0  0  0  0
   15.7829   -9.7599  -14.1244 C   0  0  0  0  0  0  0  0  0  0  0  0
   15.6415   -9.7933  -12.8789 O   0  0  0  0  0  0  0  0  0  0  0  0
   20.8041   -7.2787  -13.0487 N   0  0  0  0  0  0  0  0  0  0  0  0
   19.8004   -6.8269  -14.0006 C   0  0  0  0  0  0  0  0  0  0  0  0
   19.8994   -5.6253  -14.2891 O   0  0  0  0  0  0  0  0  0  0  0  0
   18.8065   -7.7454  -14.5240 C   0  0  0  0  0  0  0  0  0  0  0  0
   17.5621   -7.9969  -13.7200 C   0  0  2  0  0  0  0  0  0  0  0  0
   16.7212   -8.8305  -14.6289 N   0  0  0  0  0  0  0  0  0  0  0  0
   16.7962   -6.8231  -13.3159 C   0  0  0  0  0  0  0  0  0  0  0  0
   16.0068   -6.2447  -14.1794 O   0  0  0  0  0  0  0  0  0  0  0  0
   16.7839   -6.1994  -12.0605 N   0  0  0  0  0  0  0  0  0  0  0  0
   15.8801   -5.0811  -11.7288 C   0  0  1  0  0  0  0  0  0  0  0  0
   15.4929   -5.1253  -10.3010 C   0  0  0  0  0  0  0  0  0  0  0  0
   14.5614   -4.0075   -9.9373 C   0  0  0  0  0  0  0  0  0  0  0  0
   14.2366   -4.0562   -8.4592 C   0  0  0  0  0  0  0  0  0  0  0  0
   14.7179   -4.9509   -7.7445 O   0  0  0  0  0  0  0  0  0  0  0  0
   16.5730   -3.8301  -12.0695 C   0  0  0  0  0  0  0  0  0  0  0  0
   16.0048   -2.7217  -12.1237 O   0  0  0  0  0  0  0  0  0  0  0  0
   13.4028   -3.0947   -7.9294 O   0  0  0  0  0  0  0  0  0  0  0  0
   17.9432   -3.8563  -12.3522 O   0  0  0  0  0  0  0  0  0  0  0  0
  2  1  1  6
  3  2  1  0
  4  2  1  0
  4  6  1  0
  4  5  1  6
  6  7  2  0
  9  8  1  0
 10  9  2  0
 12 11  1  6
 11  9  1  0
 12 14  1  0
 13  6  1  0
 13 12  1  0
 14 15  2  0
 16 17  1  0
 16 14  1  0
 17 22  1  0
 17 18  1  1
 19 18  1  0
 20 19  1  0
 21 20  2  0
 22 23  2  0
 22 25  1  0
 24 20  1  0
M  END
$$$$
