VNE.pdb
     RDKit          3D

 25 24  0  0  1  0  0  0  0  0999 V2000
   24.3770  -20.7095  -18.1464 C   0  0  0  0  0  0  0  0  0  0  0  0
   25.3135  -21.8709  -17.7938 C   0  0  2  0  0  0  0  0  0  0  0  0
   24.5168  -23.1351  -18.0082 C   0  0  0  0  0  0  0  0  0  0  0  0
   25.6199  -21.7727  -16.3037 C   0  0  2  0  0  0  0  0  0  0  0  0
   26.4656  -22.8927  -15.9388 N   0  0  0  0  0  0  0  0  0  0  0  0
   24.3777  -21.8432  -15.5026 C   0  0  0  0  0  0  0  0  0  0  0  0
   23.7694  -22.9364  -15.4183 O   0  0  0  0  0  0  0  0  0  0  0  0
   20.5654  -20.8325  -11.8898 N   0  0  0  0  0  0  0  0  0  0  0  0
   21.7194  -19.9481  -11.8274 C   0  0  0  0  0  0  0  0  0  0  0  0
   21.7164  -19.2021  -10.8373 O   0  0  0  0  0  0  0  0  0  0  0  0
   22.7404  -19.9855  -12.8578 C   0  0  0  0  0  0  0  0  0  0  0  0
   22.5360  -20.8854  -14.0438 C   0  0  2  0  0  0  0  0  0  0  0  0
   23.8103  -20.7495  -14.8093 N   0  0  0  0  0  0  0  0  0  0  0  0
   21.4207  -20.5612  -14.9261 C   0  0  0  0  0  0  0  0  0  0  0  0
   21.5451  -19.5859  -15.7843 O   0  0  0  0  0  0  0  0  0  0  0  0
   20.1686  -21.1886  -14.9892 N   0  0  0  0  0  0  0  0  0  0  0  0
   19.1150  -20.7837  -15.9397 C   0  0  1  0  0  0  0  0  0  0  0  0
   18.2526  -21.9348  -16.2886 C   0  0  0  0  0  0  0  0  0  0  0  0
   17.1869  -21.5590  -17.2747 C   0  0  0  0  0  0  0  0  0  0  0  0
   16.2835  -22.7433  -17.5465 C   0  0  0  0  0  0  0  0  0  0  0  0
   15.1231  -22.7565  -17.1038 O   0  0  0  0  0  0  0  0  0  0  0  0
   18.3482  -19.6935  -15.3195 C   0  0  0  0  0  0  0  0  0  0  0  0
   17.9233  -18.7057  -15.9503 O   0  0  0  0  0  0  0  0  0  0  0  0
   16.7730  -23.7965  -18.2894 O   0  0  0  0  0  0  0  0  0  0  0  0
   18.0660  -19.7422  -13.9498 O   0  0  0  0  0  0  0  0  0  0  0  0
  2  1  1  1
  3  2  1  0
  4  2  1  0
  4  6  1  0
  4  5  1  1
  6  7  2  0
  9  8  1  0
 10  9  2  0
 12 11  1  1
 11  9  1  0
 12 14  1  0
 13  6  1  0
 13 12  1  0
 14 15  2  0
 16 17  1  0
 16 14  1  0
 17 22  1  0
 17 18  1  1
 19 18  1  0
 20 19  1  0
 21 20  2  0
 22 23  2  0
 22 25  1  0
 24 20  1  0
M  END
$$$$
