VNE.pdb
     RDKit          3D

 25 24  0  0  1  0  0  0  0  0999 V2000
   15.3995  -10.2282  -17.6587 C   0  0  0  0  0  0  0  0  0  0  0  0
   16.4915   -9.8236  -16.6617 C   0  0  2  0  0  0  0  0  0  0  0  0
   17.2238   -8.6610  -17.2870 C   0  0  0  0  0  0  0  0  0  0  0  0
   17.4751  -10.9843  -16.5676 C   0  0  2  0  0  0  0  0  0  0  0  0
   16.8581  -12.0409  -15.7892 N   0  0  0  0  0  0  0  0  0  0  0  0
   18.7212  -10.5676  -15.8868 C   0  0  0  0  0  0  0  0  0  0  0  0
   18.6952  -10.3447  -14.6533 O   0  0  0  0  0  0  0  0  0  0  0  0
   23.9230   -9.5091  -14.9050 N   0  0  0  0  0  0  0  0  0  0  0  0
   23.6236  -10.5976  -15.8234 C   0  0  0  0  0  0  0  0  0  0  0  0
   24.6154  -11.2792  -16.1208 O   0  0  0  0  0  0  0  0  0  0  0  0
   22.2723  -10.8104  -16.3074 C   0  0  0  0  0  0  0  0  0  0  0  0
   21.1735   -9.9236  -15.7932 C   0  0  2  0  0  0  0  0  0  0  0  0
   19.9669  -10.3972  -16.5334 N   0  0  0  0  0  0  0  0  0  0  0  0
   21.3305   -8.4909  -16.0175 C   0  0  0  0  0  0  0  0  0  0  0  0
   21.4144   -8.0390  -17.2389 O   0  0  0  0  0  0  0  0  0  0  0  0
   21.4012   -7.4761  -15.0530 N   0  0  0  0  0  0  0  0  0  0  0  0
   21.5950   -6.0542  -15.3968 C   0  0  1  0  0  0  0  0  0  0  0  0
   20.3195   -5.4403  -15.8287 C   0  0  0  0  0  0  0  0  0  0  0  0
   19.3254   -5.3648  -14.7082 C   0  0  0  0  0  0  0  0  0  0  0  0
   18.0821   -4.6278  -15.1598 C   0  0  0  0  0  0  0  0  0  0  0  0
   17.1230   -5.2573  -15.6360 O   0  0  0  0  0  0  0  0  0  0  0  0
   22.1544   -5.3808  -14.2158 C   0  0  0  0  0  0  0  0  0  0  0  0
   22.2724   -5.9294  -13.1025 O   0  0  0  0  0  0  0  0  0  0  0  0
   18.0388   -3.2559  -15.0316 O   0  0  0  0  0  0  0  0  0  0  0  0
   22.5854   -4.0536  -14.3191 O   0  0  0  0  0  0  0  0  0  0  0  0
  2  1  1  6
  3  2  1  0
  4  2  1  0
  4  6  1  0
  4  5  1  1
  6  7  2  0
  9  8  1  0
 10  9  2  0
 12 11  1  6
 11  9  1  0
 12 14  1  0
 13  6  1  0
 13 12  1  0
 14 15  2  0
 16 17  1  0
 16 14  1  0
 17 22  1  0
 17 18  1  1
 19 18  1  0
 20 19  1  0
 21 20  2  0
 22 23  2  0
 22 25  1  0
 24 20  1  0
M  END
$$$$
