TTN.pdb
     RDKit          3D

 23 22  0  0  1  0  0  0  0  0999 V2000
   12.1954  -15.3893  -11.8797 C   0  0  0  0  0  0  0  0  0  0  0  0
   13.3863  -14.5795  -11.4126 C   0  0  1  0  0  0  0  0  0  0  0  0
   14.3628  -14.5590  -12.4098 O   0  0  0  0  0  0  0  0  0  0  0  0
   12.9494  -13.1735  -11.1310 C   0  0  2  0  0  0  0  0  0  0  0  0
   12.3395  -12.5937  -12.2899 N   0  0  0  0  0  0  0  0  0  0  0  0
   14.1085  -12.3695  -10.6693 C   0  0  0  0  0  0  0  0  0  0  0  0
   14.7245  -12.7035   -9.6097 O   0  0  0  0  0  0  0  0  0  0  0  0
   17.3639  -11.8193  -12.4408 C   0  0  0  0  0  0  0  0  0  0  0  0
   16.7529  -10.4843  -12.1347 C   0  0  1  0  0  0  0  0  0  0  0  0
   15.9737  -10.0572  -13.2302 O   0  0  0  0  0  0  0  0  0  0  0  0
   15.8136  -10.5292  -10.9249 C   0  0  2  0  0  0  0  0  0  0  0  0
   14.5732  -11.2236  -11.3641 N   0  0  0  0  0  0  0  0  0  0  0  0
   15.3896   -9.1613  -10.5471 C   0  0  0  0  0  0  0  0  0  0  0  0
   14.2850   -8.6992  -10.9938 O   0  0  0  0  0  0  0  0  0  0  0  0
   15.0180   -4.3448   -8.5560 N   0  0  0  0  0  0  0  0  0  0  0  0
   14.9828   -5.4159   -7.6493 C   0  0  0  0  0  0  0  0  0  0  0  0
   14.6111   -5.1859   -6.4625 O   0  0  0  0  0  0  0  0  0  0  0  0
   15.3488   -6.7865   -7.9999 C   0  0  0  0  0  0  0  0  0  0  0  0
   15.6860   -6.9657   -9.4584 C   0  0  2  0  0  0  0  0  0  0  0  0
   16.1555   -8.3359   -9.7030 N   0  0  0  0  0  0  0  0  0  0  0  0
   16.7019   -6.0213   -9.9497 C   0  0  0  0  0  0  0  0  0  0  0  0
   16.4378   -4.7122  -10.2642 O   0  0  0  0  0  0  0  0  0  0  0  0
   17.9002   -6.3988  -10.1050 O   0  0  0  0  0  0  0  0  0  0  0  0
  2  1  1  6
  2  3  1  0
  4  6  1  0
  4  2  1  0
  4  5  1  6
  6  7  2  0
  6 12  1  0
  9  8  1  6
  9 11  1  0
 10  9  1  0
 11 13  1  0
 11 12  1  6
 13 20  1  0
 13 14  2  0
 15 16  1  0
 16 17  2  0
 19 18  1  1
 18 16  1  0
 19 21  1  0
 20 19  1  0
 21 22  1  0
 23 21  2  0
M  END
$$$$
