TTN.pdb
     RDKit          3D

 23 22  0  0  1  0  0  0  0  0999 V2000
   17.9309  -14.7677  -17.0690 C   0  0  0  0  0  0  0  0  0  0  0  0
   18.8526  -14.0028  -16.1430 C   0  0  1  0  0  0  0  0  0  0  0  0
   20.0421  -14.7123  -15.9699 O   0  0  0  0  0  0  0  0  0  0  0  0
   19.1665  -12.6679  -16.7484 C   0  0  2  0  0  0  0  0  0  0  0  0
   19.7839  -12.8287  -18.0305 N   0  0  0  0  0  0  0  0  0  0  0  0
   20.0287  -11.8874  -15.8261 C   0  0  0  0  0  0  0  0  0  0  0  0
   19.6533  -11.6905  -14.6285 O   0  0  0  0  0  0  0  0  0  0  0  0
   24.0054  -12.2029  -15.0322 C   0  0  0  0  0  0  0  0  0  0  0  0
   23.5659  -10.8724  -15.5669 C   0  0  1  0  0  0  0  0  0  0  0  0
   23.6828  -10.8644  -16.9727 O   0  0  0  0  0  0  0  0  0  0  0  0
   22.0981  -10.5659  -15.2514 C   0  0  2  0  0  0  0  0  0  0  0  0
   21.2753  -11.3383  -16.2210 N   0  0  0  0  0  0  0  0  0  0  0  0
   21.7965   -9.1413  -15.5221 C   0  0  0  0  0  0  0  0  0  0  0  0
   21.3323   -8.8024  -16.6635 O   0  0  0  0  0  0  0  0  0  0  0  0
   20.0730   -3.9674  -14.4080 N   0  0  0  0  0  0  0  0  0  0  0  0
   21.3194   -4.4736  -14.0072 C   0  0  0  0  0  0  0  0  0  0  0  0
   22.2860   -3.6663  -13.8904 O   0  0  0  0  0  0  0  0  0  0  0  0
   21.5645   -5.8839  -13.7131 C   0  0  0  0  0  0  0  0  0  0  0  0
   21.6897   -6.7434  -14.9454 C   0  0  2  0  0  0  0  0  0  0  0  0
   21.9960   -8.1288  -14.5652 N   0  0  0  0  0  0  0  0  0  0  0  0
   22.7144   -6.2734  -15.8913 C   0  0  0  0  0  0  0  0  0  0  0  0
   24.0045   -6.7398  -15.9120 O   0  0  0  0  0  0  0  0  0  0  0  0
   22.4297   -5.3889  -16.7510 O   0  0  0  0  0  0  0  0  0  0  0  0
  2  1  1  6
  2  3  1  0
  4  6  1  0
  4  2  1  0
  4  5  1  6
  6  7  2  0
  6 12  1  0
  9  8  1  6
  9 11  1  0
 10  9  1  0
 11 13  1  0
 11 12  1  6
 13 20  1  0
 13 14  2  0
 15 16  1  0
 16 17  2  0
 19 18  1  1
 18 16  1  0
 19 21  1  0
 20 19  1  0
 21 22  1  0
 23 21  2  0
M  END
$$$$
