TTN.pdb
     RDKit          3D

 23 22  0  0  1  0  0  0  0  0999 V2000
   24.6333  -11.0618  -15.0945 C   0  0  0  0  0  0  0  0  0  0  0  0
   24.6086  -11.6497  -16.4895 C   0  0  1  0  0  0  0  0  0  0  0  0
   25.4197  -12.7847  -16.5372 O   0  0  0  0  0  0  0  0  0  0  0  0
   23.2040  -12.0410  -16.8372 C   0  0  2  0  0  0  0  0  0  0  0  0
   23.1703  -12.7409  -18.0861 N   0  0  0  0  0  0  0  0  0  0  0  0
   22.3390  -10.8351  -16.8686 C   0  0  0  0  0  0  0  0  0  0  0  0
   22.5280   -9.9476  -17.7577 O   0  0  0  0  0  0  0  0  0  0  0  0
   18.0816   -8.6692  -15.4428 C   0  0  0  0  0  0  0  0  0  0  0  0
   19.0546   -9.8104  -15.4507 C   0  0  1  0  0  0  0  0  0  0  0  0
   18.5415  -10.8655  -16.2337 O   0  0  0  0  0  0  0  0  0  0  0  0
   20.4051   -9.4295  -16.0664 C   0  0  2  0  0  0  0  0  0  0  0  0
   21.2913  -10.6177  -15.9376 N   0  0  0  0  0  0  0  0  0  0  0  0
   21.0548   -8.3624  -15.2708 C   0  0  0  0  0  0  0  0  0  0  0  0
   21.6464   -8.6636  -14.1788 O   0  0  0  0  0  0  0  0  0  0  0  0
   22.3163   -3.2455  -14.9340 N   0  0  0  0  0  0  0  0  0  0  0  0
   23.2395   -4.1537  -15.4759 C   0  0  0  0  0  0  0  0  0  0  0  0
   24.3090   -3.6976  -15.9738 O   0  0  0  0  0  0  0  0  0  0  0  0
   23.0368   -5.6008  -15.4948 C   0  0  0  0  0  0  0  0  0  0  0  0
   21.7593   -6.0389  -14.8248 C   0  0  2  0  0  0  0  0  0  0  0  0
   21.0549   -7.0127  -15.6694 N   0  0  0  0  0  0  0  0  0  0  0  0
   20.8438   -4.9288  -14.5162 C   0  0  0  0  0  0  0  0  0  0  0  0
   20.9683   -4.1214  -13.4139 O   0  0  0  0  0  0  0  0  0  0  0  0
   19.8730   -4.6710  -15.2866 O   0  0  0  0  0  0  0  0  0  0  0  0
  2  1  1  1
  2  3  1  0
  4  6  1  0
  4  2  1  0
  4  5  1  6
  6  7  2  0
  6 12  1  0
  9  8  1  6
  9 11  1  0
 10  9  1  0
 11 13  1  0
 11 12  1  1
 13 20  1  0
 13 14  2  0
 15 16  1  0
 16 17  2  0
 19 18  1  6
 18 16  1  0
 19 21  1  0
 20 19  1  0
 21 22  1  0
 23 21  2  0
M  END
$$$$
