TTN.pdb
     RDKit          3D

 23 22  0  0  1  0  0  0  0  0999 V2000
   19.1749  -13.9477  -15.9087 C   0  0  0  0  0  0  0  0  0  0  0  0
   18.5004  -12.9574  -16.8341 C   0  0  1  0  0  0  0  0  0  0  0  0
   17.3810  -13.5485  -17.4222 O   0  0  0  0  0  0  0  0  0  0  0  0
   18.0603  -11.7619  -16.0441 C   0  0  2  0  0  0  0  0  0  0  0  0
   17.1160  -10.9850  -16.7896 N   0  0  0  0  0  0  0  0  0  0  0  0
   19.2424  -10.9519  -15.6568 C   0  0  0  0  0  0  0  0  0  0  0  0
   20.1795  -11.4864  -14.9860 O   0  0  0  0  0  0  0  0  0  0  0  0
   20.1664   -7.4503  -17.7224 C   0  0  0  0  0  0  0  0  0  0  0  0
   21.1774   -8.2818  -16.9905 C   0  0  1  0  0  0  0  0  0  0  0  0
   22.2912   -7.4851  -16.6523 O   0  0  0  0  0  0  0  0  0  0  0  0
   20.6334   -8.8486  -15.6749 C   0  0  2  0  0  0  0  0  0  0  0  0
   19.3823   -9.5838  -16.0036 N   0  0  0  0  0  0  0  0  0  0  0  0
   20.2220   -7.7515  -14.7689 C   0  0  0  0  0  0  0  0  0  0  0  0
   19.0891   -7.1856  -14.9401 O   0  0  0  0  0  0  0  0  0  0  0  0
   19.4827   -4.3014  -11.0244 N   0  0  0  0  0  0  0  0  0  0  0  0
   19.6108   -5.6471  -10.6459 C   0  0  0  0  0  0  0  0  0  0  0  0
   19.2978   -5.9708   -9.4639 O   0  0  0  0  0  0  0  0  0  0  0  0
   20.0833   -6.6996  -11.5427 C   0  0  0  0  0  0  0  0  0  0  0  0
   20.5387   -6.1872  -12.8856 C   0  0  2  0  0  0  0  0  0  0  0  0
   21.0306   -7.2994  -13.7095 N   0  0  0  0  0  0  0  0  0  0  0  0
   21.5884   -5.1595  -12.8002 C   0  0  0  0  0  0  0  0  0  0  0  0
   21.4296   -3.9586  -12.1562 O   0  0  0  0  0  0  0  0  0  0  0  0
   22.7172   -5.3559  -13.3387 O   0  0  0  0  0  0  0  0  0  0  0  0
  2  1  1  1
  2  3  1  0
  4  6  1  0
  4  2  1  0
  4  5  1  6
  6  7  2  0
  6 12  1  0
  9  8  1  1
  9 11  1  0
 10  9  1  0
 11 13  1  0
 11 12  1  6
 13 20  1  0
 13 14  2  0
 15 16  1  0
 16 17  2  0
 19 18  1  1
 18 16  1  0
 19 21  1  0
 20 19  1  0
 21 22  1  0
 23 21  2  0
M  END
$$$$
