TTN.pdb
     RDKit          3D

 23 22  0  0  1  0  0  0  0  0999 V2000
   22.3102  -21.9920   -9.8258 C   0  0  0  0  0  0  0  0  0  0  0  0
   22.9706  -21.0150  -10.7753 C   0  0  1  0  0  0  0  0  0  0  0  0
   22.5487  -19.7167  -10.4845 O   0  0  0  0  0  0  0  0  0  0  0  0
   24.4583  -21.0916  -10.6089 C   0  0  2  0  0  0  0  0  0  0  0  0
   24.8464  -20.6102   -9.3172 N   0  0  0  0  0  0  0  0  0  0  0  0
   25.1257  -20.3297  -11.6940 C   0  0  0  0  0  0  0  0  0  0  0  0
   25.7809  -19.2780  -11.4139 O   0  0  0  0  0  0  0  0  0  0  0  0
   27.9385  -21.3881  -13.7739 C   0  0  0  0  0  0  0  0  0  0  0  0
   26.8263  -21.0065  -14.7047 C   0  0  1  0  0  0  0  0  0  0  0  0
   26.0607  -22.1480  -15.0218 O   0  0  0  0  0  0  0  0  0  0  0  0
   25.8588  -19.9936  -14.0833 C   0  0  2  0  0  0  0  0  0  0  0  0
   25.0680  -20.7230  -13.0555 N   0  0  0  0  0  0  0  0  0  0  0  0
   24.8734  -19.5340  -15.0890 C   0  0  0  0  0  0  0  0  0  0  0  0
   23.7411  -20.1204  -15.1742 O   0  0  0  0  0  0  0  0  0  0  0  0
   23.7076  -15.6840  -19.5703 N   0  0  0  0  0  0  0  0  0  0  0  0
   23.2860  -16.2049  -18.3368 C   0  0  0  0  0  0  0  0  0  0  0  0
   22.0441  -16.3188  -18.1261 O   0  0  0  0  0  0  0  0  0  0  0  0
   24.2025  -16.6275  -17.2800 C   0  0  0  0  0  0  0  0  0  0  0  0
   24.0823  -18.0884  -16.9270 C   0  0  2  0  0  0  0  0  0  0  0  0
   25.1278  -18.4626  -15.9654 N   0  0  0  0  0  0  0  0  0  0  0  0
   24.1649  -18.9855  -18.0906 C   0  0  0  0  0  0  0  0  0  0  0  0
   25.3394  -19.5109  -18.5668 O   0  0  0  0  0  0  0  0  0  0  0  0
   23.1149  -19.3157  -18.7160 O   0  0  0  0  0  0  0  0  0  0  0  0
  2  1  1  1
  2  3  1  0
  4  6  1  0
  4  2  1  0
  4  5  1  1
  6  7  2  0
  6 12  1  0
  9  8  1  1
  9 11  1  0
 10  9  1  0
 11 13  1  0
 11 12  1  1
 13 20  1  0
 13 14  2  0
 15 16  1  0
 16 17  2  0
 19 18  1  6
 18 16  1  0
 19 21  1  0
 20 19  1  0
 21 22  1  0
 23 21  2  0
M  END
$$$$
