TTN.pdb
     RDKit          3D

 23 22  0  0  1  0  0  0  0  0999 V2000
   23.2172  -13.9994  -15.4079 C   0  0  0  0  0  0  0  0  0  0  0  0
   22.5324  -15.0240  -16.2875 C   0  0  1  0  0  0  0  0  0  0  0  0
   22.9210  -16.3088  -15.9050 O   0  0  0  0  0  0  0  0  0  0  0  0
   21.0470  -14.8982  -16.1300 C   0  0  2  0  0  0  0  0  0  0  0  0
   20.3768  -15.9750  -16.7948 N   0  0  0  0  0  0  0  0  0  0  0  0
   20.5965  -13.5804  -16.6435 C   0  0  0  0  0  0  0  0  0  0  0  0
   20.7691  -13.2893  -17.8680 O   0  0  0  0  0  0  0  0  0  0  0  0
   17.3828  -12.2279  -17.3539 C   0  0  0  0  0  0  0  0  0  0  0  0
   17.9964  -11.2998  -16.3484 C   0  0  1  0  0  0  0  0  0  0  0  0
   17.6330  -11.7037  -15.0467 O   0  0  0  0  0  0  0  0  0  0  0  0
   19.5280  -11.3098  -16.3945 C   0  0  2  0  0  0  0  0  0  0  0  0
   19.9710  -12.6092  -15.8207 N   0  0  0  0  0  0  0  0  0  0  0  0
   20.0803  -10.2705  -15.4952 C   0  0  0  0  0  0  0  0  0  0  0  0
   20.2781  -10.5453  -14.2629 O   0  0  0  0  0  0  0  0  0  0  0  0
   23.4564   -9.1306  -15.7019 N   0  0  0  0  0  0  0  0  0  0  0  0
   23.2039   -7.7727  -15.9527 C   0  0  0  0  0  0  0  0  0  0  0  0
   24.1147   -7.0827  -16.4950 O   0  0  0  0  0  0  0  0  0  0  0  0
   21.9439   -7.1089  -15.6252 C   0  0  0  0  0  0  0  0  0  0  0  0
   20.9383   -8.0175  -14.9646 C   0  0  2  0  0  0  0  0  0  0  0  0
   20.4065   -8.9765  -15.9420 N   0  0  0  0  0  0  0  0  0  0  0  0
   19.8135   -7.3004  -14.3433 C   0  0  0  0  0  0  0  0  0  0  0  0
   19.8260   -6.8331  -13.0534 O   0  0  0  0  0  0  0  0  0  0  0  0
   18.7554   -7.0817  -15.0029 O   0  0  0  0  0  0  0  0  0  0  0  0
  2  1  1  1
  2  3  1  0
  4  6  1  0
  4  2  1  0
  4  5  1  6
  6  7  2  0
  6 12  1  0
  9  8  1  6
  9 11  1  0
 10  9  1  0
 11 13  1  0
 11 12  1  1
 13 20  1  0
 13 14  2  0
 15 16  1  0
 16 17  2  0
 19 18  1  6
 18 16  1  0
 19 21  1  0
 20 19  1  0
 21 22  1  0
 23 21  2  0
M  END
$$$$
