TTN.pdb
     RDKit          3D

 23 22  0  0  1  0  0  0  0  0999 V2000
   21.1679  -11.2773  -16.5531 C   0  0  0  0  0  0  0  0  0  0  0  0
   19.9470  -11.9375  -17.1578 C   0  0  1  0  0  0  0  0  0  0  0  0
   20.2515  -13.2507  -17.5196 O   0  0  0  0  0  0  0  0  0  0  0  0
   18.8416  -11.9559  -16.1455 C   0  0  2  0  0  0  0  0  0  0  0  0
   17.7926  -12.8379  -16.5609 N   0  0  0  0  0  0  0  0  0  0  0  0
   18.3359  -10.5775  -15.9277 C   0  0  0  0  0  0  0  0  0  0  0  0
   17.7995   -9.9442  -16.8895 O   0  0  0  0  0  0  0  0  0  0  0  0
   15.6984   -9.3306  -13.5838 C   0  0  0  0  0  0  0  0  0  0  0  0
   16.9493   -8.5472  -13.3177 C   0  0  1  0  0  0  0  0  0  0  0  0
   17.6594   -9.1360  -12.2506 O   0  0  0  0  0  0  0  0  0  0  0  0
   17.9020   -8.5323  -14.5177 C   0  0  2  0  0  0  0  0  0  0  0  0
   18.4229   -9.9171  -14.6755 N   0  0  0  0  0  0  0  0  0  0  0  0
   19.0878   -7.6935  -14.2274 C   0  0  0  0  0  0  0  0  0  0  0  0
   20.2034   -8.2541  -13.9547 O   0  0  0  0  0  0  0  0  0  0  0  0
   22.7461   -4.0882  -14.2276 N   0  0  0  0  0  0  0  0  0  0  0  0
   22.4549   -5.0512  -15.2066 C   0  0  0  0  0  0  0  0  0  0  0  0
   23.2754   -5.2094  -16.1560 O   0  0  0  0  0  0  0  0  0  0  0  0
   21.2559   -5.8863  -15.1902 C   0  0  0  0  0  0  0  0  0  0  0  0
   20.3031   -5.5505  -14.0710 C   0  0  2  0  0  0  0  0  0  0  0  0
   19.0437   -6.2869  -14.2426 N   0  0  0  0  0  0  0  0  0  0  0  0
   20.0019   -4.1142  -13.9633 C   0  0  0  0  0  0  0  0  0  0  0  0
   20.8262   -3.2059  -13.3485 O   0  0  0  0  0  0  0  0  0  0  0  0
   18.9309   -3.6496  -14.4529 O   0  0  0  0  0  0  0  0  0  0  0  0
  2  1  1  1
  2  3  1  0
  4  6  1  0
  4  2  1  0
  4  5  1  6
  6  7  2  0
  6 12  1  0
  9  8  1  6
  9 11  1  0
 10  9  1  0
 11 13  1  0
 11 12  1  1
 13 20  1  0
 13 14  2  0
 15 16  1  0
 16 17  2  0
 19 18  1  6
 18 16  1  0
 19 21  1  0
 20 19  1  0
 21 22  1  0
 23 21  2  0
M  END
$$$$
