TTN.pdb
     RDKit          3D

 23 22  0  0  1  0  0  0  0  0999 V2000
   16.9911  -13.2568  -17.3009 C   0  0  0  0  0  0  0  0  0  0  0  0
   17.8923  -12.5550  -16.3072 C   0  0  1  0  0  0  0  0  0  0  0  0
   19.0822  -13.2701  -16.1630 O   0  0  0  0  0  0  0  0  0  0  0  0
   18.2097  -11.1797  -16.8120 C   0  0  2  0  0  0  0  0  0  0  0  0
   18.8115  -11.2457  -18.1098 N   0  0  0  0  0  0  0  0  0  0  0  0
   19.0881  -10.4783  -15.8426 C   0  0  0  0  0  0  0  0  0  0  0  0
   18.7127  -10.3422  -14.6366 O   0  0  0  0  0  0  0  0  0  0  0  0
   22.7817  -11.3193  -14.9867 C   0  0  0  0  0  0  0  0  0  0  0  0
   22.6427   -9.8852  -15.4032 C   0  0  1  0  0  0  0  0  0  0  0  0
   22.8895   -9.7674  -16.7870 O   0  0  0  0  0  0  0  0  0  0  0  0
   21.2320   -9.3363  -15.1653 C   0  0  2  0  0  0  0  0  0  0  0  0
   20.3509   -9.9408  -16.2007 N   0  0  0  0  0  0  0  0  0  0  0  0
   21.1948   -7.8770  -15.4161 C   0  0  0  0  0  0  0  0  0  0  0  0
   20.6181   -7.4337  -16.4668 O   0  0  0  0  0  0  0  0  0  0  0  0
   20.8163   -2.7709  -14.9758 N   0  0  0  0  0  0  0  0  0  0  0  0
   19.8236   -3.7633  -14.9897 C   0  0  0  0  0  0  0  0  0  0  0  0
   18.6150   -3.4024  -15.0835 O   0  0  0  0  0  0  0  0  0  0  0  0
   20.1073   -5.1943  -14.9052 C   0  0  0  0  0  0  0  0  0  0  0  0
   21.5784   -5.5127  -14.8187 C   0  0  2  0  0  0  0  0  0  0  0  0
   21.7696   -6.9414  -14.5358 N   0  0  0  0  0  0  0  0  0  0  0  0
   22.2933   -4.7276  -13.7998 C   0  0  0  0  0  0  0  0  0  0  0  0
   22.9367   -3.5444  -14.0614 O   0  0  0  0  0  0  0  0  0  0  0  0
   22.3410   -5.1325  -12.6014 O   0  0  0  0  0  0  0  0  0  0  0  0
  2  1  1  6
  2  3  1  0
  4  6  1  0
  4  2  1  0
  4  5  1  6
  6  7  2  0
  6 12  1  0
  9  8  1  6
  9 11  1  0
 10  9  1  0
 11 13  1  0
 11 12  1  6
 13 20  1  0
 13 14  2  0
 15 16  1  0
 16 17  2  0
 19 18  1  1
 18 16  1  0
 19 21  1  0
 20 19  1  0
 21 22  1  0
 23 21  2  0
M  END
$$$$
