TTN.pdb
     RDKit          3D

 23 22  0  0  1  0  0  0  0  0999 V2000
   17.7650   -9.5843  -17.6642 C   0  0  0  0  0  0  0  0  0  0  0  0
   17.7366  -11.0708  -17.3788 C   0  0  1  0  0  0  0  0  0  0  0  0
   17.0422  -11.7324  -18.3929 O   0  0  0  0  0  0  0  0  0  0  0  0
   19.1410  -11.5928  -17.3307 C   0  0  2  0  0  0  0  0  0  0  0  0
   19.1444  -13.0195  -17.2073 N   0  0  0  0  0  0  0  0  0  0  0  0
   19.8783  -10.9507  -16.2139 C   0  0  0  0  0  0  0  0  0  0  0  0
   19.5919  -11.2534  -15.0138 O   0  0  0  0  0  0  0  0  0  0  0  0
   23.4463  -11.1527  -15.2360 C   0  0  0  0  0  0  0  0  0  0  0  0
   23.1171   -9.7070  -15.4609 C   0  0  1  0  0  0  0  0  0  0  0  0
   23.4241   -9.3522  -16.7912 O   0  0  0  0  0  0  0  0  0  0  0  0
   21.6282   -9.4037  -15.2631 C   0  0  2  0  0  0  0  0  0  0  0  0
   20.9069   -9.9964  -16.4216 N   0  0  0  0  0  0  0  0  0  0  0  0
   21.3810   -7.9457  -15.3461 C   0  0  0  0  0  0  0  0  0  0  0  0
   20.8568   -7.4557  -16.4037 O   0  0  0  0  0  0  0  0  0  0  0  0
   20.5588   -2.9263  -14.7210 N   0  0  0  0  0  0  0  0  0  0  0  0
   19.6090   -3.9548  -14.6177 C   0  0  0  0  0  0  0  0  0  0  0  0
   18.3845   -3.6400  -14.5830 O   0  0  0  0  0  0  0  0  0  0  0  0
   19.9546   -5.3731  -14.5510 C   0  0  0  0  0  0  0  0  0  0  0  0
   21.4393   -5.6293  -14.4946 C   0  0  2  0  0  0  0  0  0  0  0  0
   21.6967   -7.0620  -14.2973 N   0  0  0  0  0  0  0  0  0  0  0  0
   22.1290   -4.8734  -13.4370 C   0  0  0  0  0  0  0  0  0  0  0  0
   22.4516   -3.5436  -13.5366 O   0  0  0  0  0  0  0  0  0  0  0  0
   22.4610   -5.4461  -12.3580 O   0  0  0  0  0  0  0  0  0  0  0  0
  2  1  1  6
  2  3  1  0
  4  6  1  0
  4  2  1  0
  4  5  1  1
  6  7  2  0
  6 12  1  0
  9  8  1  6
  9 11  1  0
 10  9  1  0
 11 13  1  0
 11 12  1  6
 13 20  1  0
 13 14  2  0
 15 16  1  0
 16 17  2  0
 19 18  1  1
 18 16  1  0
 19 21  1  0
 20 19  1  0
 21 22  1  0
 23 21  2  0
M  END
$$$$
