TTN.pdb
     RDKit          3D

 23 22  0  0  1  0  0  0  0  0999 V2000
   16.2395  -10.2769  -17.1909 C   0  0  0  0  0  0  0  0  0  0  0  0
   16.4545  -11.5334  -16.3742 C   0  0  1  0  0  0  0  0  0  0  0  0
   15.9471  -12.6361  -17.0631 O   0  0  0  0  0  0  0  0  0  0  0  0
   17.9232  -11.7334  -16.1507 C   0  0  2  0  0  0  0  0  0  0  0  0
   18.1713  -13.0043  -15.5389 N   0  0  0  0  0  0  0  0  0  0  0  0
   18.4630  -10.6217  -15.3284 C   0  0  0  0  0  0  0  0  0  0  0  0
   18.1147  -10.5119  -14.1117 O   0  0  0  0  0  0  0  0  0  0  0  0
   21.7429   -6.9120  -14.8038 C   0  0  0  0  0  0  0  0  0  0  0  0
   21.2626   -8.2227  -15.3519 C   0  0  1  0  0  0  0  0  0  0  0  0
   22.0206   -9.2750  -14.7970 O   0  0  0  0  0  0  0  0  0  0  0  0
   19.7991   -8.5086  -14.9990 C   0  0  2  0  0  0  0  0  0  0  0  0
   19.3656   -9.6556  -15.8418 N   0  0  0  0  0  0  0  0  0  0  0  0
   18.9377   -7.3730  -15.4016 C   0  0  0  0  0  0  0  0  0  0  0  0
   18.7602   -7.1273  -16.6431 O   0  0  0  0  0  0  0  0  0  0  0  0
   14.6245   -3.3058  -13.7387 N   0  0  0  0  0  0  0  0  0  0  0  0
   15.5502   -3.9719  -14.5573 C   0  0  0  0  0  0  0  0  0  0  0  0
   15.7133   -3.5564  -15.7407 O   0  0  0  0  0  0  0  0  0  0  0  0
   16.3411   -5.1196  -14.1184 C   0  0  0  0  0  0  0  0  0  0  0  0
   17.5617   -5.3700  -14.9672 C   0  0  2  0  0  0  0  0  0  0  0  0
   18.2922   -6.5422  -14.4670 N   0  0  0  0  0  0  0  0  0  0  0  0
   18.4847   -4.2254  -15.0260 C   0  0  0  0  0  0  0  0  0  0  0  0
   18.3007   -3.1382  -15.8424 O   0  0  0  0  0  0  0  0  0  0  0  0
   19.5197   -4.2038  -14.2974 O   0  0  0  0  0  0  0  0  0  0  0  0
  2  1  1  6
  2  3  1  0
  4  6  1  0
  4  2  1  0
  4  5  1  1
  6  7  2  0
  6 12  1  0
  9  8  1  1
  9 11  1  0
 10  9  1  0
 11 13  1  0
 11 12  1  6
 13 20  1  0
 13 14  2  0
 15 16  1  0
 16 17  2  0
 19 18  1  1
 18 16  1  0
 19 21  1  0
 20 19  1  0
 21 22  1  0
 23 21  2  0
M  END
$$$$
