TTN.pdb
     RDKit          3D

 23 22  0  0  1  0  0  0  0  0999 V2000
   19.9889  -13.6834  -18.4476 C   0  0  0  0  0  0  0  0  0  0  0  0
   20.3622  -15.0342  -17.8749 C   0  0  1  0  0  0  0  0  0  0  0  0
   20.0966  -16.0336  -18.8124 O   0  0  0  0  0  0  0  0  0  0  0  0
   21.8258  -15.0476  -17.5514 C   0  0  2  0  0  0  0  0  0  0  0  0
   22.2429  -16.3598  -17.1576 N   0  0  0  0  0  0  0  0  0  0  0  0
   22.1166  -14.0468  -16.4946 C   0  0  0  0  0  0  0  0  0  0  0  0
   21.7700  -14.2792  -15.2947 O   0  0  0  0  0  0  0  0  0  0  0  0
   25.4612  -12.4754  -15.4656 C   0  0  0  0  0  0  0  0  0  0  0  0
   24.4819  -11.3886  -15.7958 C   0  0  1  0  0  0  0  0  0  0  0  0
   24.6537  -10.9870  -17.1370 O   0  0  0  0  0  0  0  0  0  0  0  0
   23.0257  -11.8466  -15.6626 C   0  0  2  0  0  0  0  0  0  0  0  0
   22.7745  -12.8188  -16.7607 N   0  0  0  0  0  0  0  0  0  0  0  0
   22.1020  -10.7166  -15.9147 C   0  0  0  0  0  0  0  0  0  0  0  0
   21.3903  -10.7105  -16.9762 O   0  0  0  0  0  0  0  0  0  0  0  0
   18.6601   -6.9314  -15.6212 N   0  0  0  0  0  0  0  0  0  0  0  0
   18.4724   -8.2875  -15.3107 C   0  0  0  0  0  0  0  0  0  0  0  0
   17.2941   -8.6994  -15.1070 O   0  0  0  0  0  0  0  0  0  0  0  0
   19.5635   -9.2546  -15.2121 C   0  0  0  0  0  0  0  0  0  0  0  0
   20.9325   -8.6299  -15.3051 C   0  0  2  0  0  0  0  0  0  0  0  0
   21.9660   -9.6353  -15.0243 N   0  0  0  0  0  0  0  0  0  0  0  0
   21.1229   -7.4875  -14.3973 C   0  0  0  0  0  0  0  0  0  0  0  0
   20.6688   -6.2199  -14.6606 O   0  0  0  0  0  0  0  0  0  0  0  0
   21.7357   -7.6411  -13.3003 O   0  0  0  0  0  0  0  0  0  0  0  0
  2  1  1  6
  2  3  1  0
  4  6  1  0
  4  2  1  0
  4  5  1  1
  6  7  2  0
  6 12  1  0
  9  8  1  6
  9 11  1  0
 10  9  1  0
 11 13  1  0
 11 12  1  6
 13 20  1  0
 13 14  2  0
 15 16  1  0
 16 17  2  0
 19 18  1  1
 18 16  1  0
 19 21  1  0
 20 19  1  0
 21 22  1  0
 23 21  2  0
M  END
$$$$
