TTN.pdb
     RDKit          3D

 23 22  0  0  1  0  0  0  0  0999 V2000
   26.6424  -18.0708  -14.9901 C   0  0  0  0  0  0  0  0  0  0  0  0
   27.2054  -19.1316  -15.9120 C   0  0  1  0  0  0  0  0  0  0  0  0
   28.2599  -18.5990  -16.6552 O   0  0  0  0  0  0  0  0  0  0  0  0
   27.7178  -20.2779  -15.0932 C   0  0  2  0  0  0  0  0  0  0  0  0
   28.4131  -21.2172  -15.9209 N   0  0  0  0  0  0  0  0  0  0  0  0
   26.5930  -20.9220  -14.3699 C   0  0  0  0  0  0  0  0  0  0  0  0
   25.8453  -21.7499  -14.9777 O   0  0  0  0  0  0  0  0  0  0  0  0
   25.6594  -19.8136  -10.3858 C   0  0  0  0  0  0  0  0  0  0  0  0
   25.4258  -21.2303  -10.8187 C   0  0  1  0  0  0  0  0  0  0  0  0
   24.2727  -21.7363  -10.1831 O   0  0  0  0  0  0  0  0  0  0  0  0
   25.1800  -21.3532  -12.3262 C   0  0  2  0  0  0  0  0  0  0  0  0
   26.3035  -20.6549  -13.0074 N   0  0  0  0  0  0  0  0  0  0  0  0
   23.9585  -20.6108  -12.7142 C   0  0  0  0  0  0  0  0  0  0  0  0
   23.9893  -19.3345  -12.7712 O   0  0  0  0  0  0  0  0  0  0  0  0
   19.6540  -18.8620  -14.8413 N   0  0  0  0  0  0  0  0  0  0  0  0
   20.6139  -19.5411  -15.6081 C   0  0  0  0  0  0  0  0  0  0  0  0
   20.5789  -19.4116  -16.8658 O   0  0  0  0  0  0  0  0  0  0  0  0
   21.6567  -20.3892  -15.0348 C   0  0  0  0  0  0  0  0  0  0  0  0
   21.6344  -20.4360  -13.5281 C   0  0  2  0  0  0  0  0  0  0  0  0
   22.7484  -21.2552  -13.0323 N   0  0  0  0  0  0  0  0  0  0  0  0
   20.3765  -20.9597  -12.9723 C   0  0  0  0  0  0  0  0  0  0  0  0
   19.1389  -20.4493  -13.2729 O   0  0  0  0  0  0  0  0  0  0  0  0
   20.3938  -21.9364  -12.1671 O   0  0  0  0  0  0  0  0  0  0  0  0
  2  1  1  1
  2  3  1  0
  4  6  1  0
  4  2  1  0
  4  5  1  6
  6  7  2  0
  6 12  1  0
  9  8  1  6
  9 11  1  0
 10  9  1  0
 11 13  1  0
 11 12  1  6
 13 20  1  0
 13 14  2  0
 15 16  1  0
 16 17  2  0
 19 18  1  6
 18 16  1  0
 19 21  1  0
 20 19  1  0
 21 22  1  0
 23 21  2  0
M  END
$$$$
