TTN.pdb
     RDKit          3D

 23 22  0  0  1  0  0  0  0  0999 V2000
   25.0663  -12.0121  -15.8688 C   0  0  0  0  0  0  0  0  0  0  0  0
   24.5337  -13.0830  -16.7970 C   0  0  1  0  0  0  0  0  0  0  0  0
   25.1808  -14.2931  -16.5414 O   0  0  0  0  0  0  0  0  0  0  0  0
   23.0640  -13.2580  -16.5595 C   0  0  2  0  0  0  0  0  0  0  0  0
   22.5735  -14.4067  -17.2601 N   0  0  0  0  0  0  0  0  0  0  0  0
   22.3392  -12.0270  -16.9630 C   0  0  0  0  0  0  0  0  0  0  0  0
   22.2163  -11.7440  -18.1953 O   0  0  0  0  0  0  0  0  0  0  0  0
   18.8766  -11.1816  -16.9107 C   0  0  0  0  0  0  0  0  0  0  0  0
   19.5579  -10.1250  -16.0929 C   0  0  1  0  0  0  0  0  0  0  0  0
   19.5579  -10.5037  -14.7341 O   0  0  0  0  0  0  0  0  0  0  0  0
   21.0250   -9.9277  -16.4888 C   0  0  2  0  0  0  0  0  0  0  0  0
   21.7655  -11.1318  -16.0244 N   0  0  0  0  0  0  0  0  0  0  0  0
   21.6135   -8.7895  -15.7460 C   0  0  0  0  0  0  0  0  0  0  0  0
   22.3086   -9.0145  -14.6974 O   0  0  0  0  0  0  0  0  0  0  0  0
   23.3046   -4.1248  -14.1371 N   0  0  0  0  0  0  0  0  0  0  0  0
   22.8680   -4.0397  -15.4686 C   0  0  0  0  0  0  0  0  0  0  0  0
   23.0513   -2.9550  -16.0925 O   0  0  0  0  0  0  0  0  0  0  0  0
   22.2146   -5.1372  -16.1786 C   0  0  0  0  0  0  0  0  0  0  0  0
   22.1028   -6.4004  -15.3631 C   0  0  2  0  0  0  0  0  0  0  0  0
   21.4444   -7.4519  -16.1495 N   0  0  0  0  0  0  0  0  0  0  0  0
   21.3701   -6.2241  -14.0992 C   0  0  0  0  0  0  0  0  0  0  0  0
   21.9262   -5.6935  -12.9627 O   0  0  0  0  0  0  0  0  0  0  0  0
   20.1551   -6.5692  -14.0140 O   0  0  0  0  0  0  0  0  0  0  0  0
  2  1  1  1
  2  3  1  0
  4  6  1  0
  4  2  1  0
  4  5  1  6
  6  7  2  0
  6 12  1  0
  9  8  1  6
  9 11  1  0
 10  9  1  0
 11 13  1  0
 11 12  1  1
 13 20  1  0
 13 14  2  0
 15 16  1  0
 16 17  2  0
 19 18  1  6
 18 16  1  0
 19 21  1  0
 20 19  1  0
 21 22  1  0
 23 21  2  0
M  END
$$$$
