HFW.pdb
     RDKit          3D

 36 39  0  0  1  0  0  0  0  0999 V2000
   10.5555  -19.2238   17.8596 N   0  0  0  0  0  0  0  0  0  0  0  0
    9.8522  -19.3612   19.1484 C   0  0  1  0  0  0  0  0  0  0  0  0
   10.5401  -20.4567   19.9169 C   0  0  0  0  0  0  0  0  0  0  0  0
   10.0159  -21.7872   19.6221 C   0  0  0  0  0  0  0  0  0  0  0  0
    8.6329  -22.0288   19.5750 C   0  0  0  0  0  0  0  0  0  0  0  0
    8.5026  -23.3280   19.2856 N   0  0  0  0  0  0  0  0  0  0  0  0
    9.7179  -23.9039   19.1509 C   0  0  0  0  0  0  0  0  0  0  0  0
   10.6251  -22.9505   19.3594 N   0  0  0  0  0  0  0  0  0  0  0  0
    9.9882  -18.0716   19.8996 C   0  0  0  0  0  0  0  0  0  0  0  0
   10.9738  -17.3099   19.8201 O   0  0  0  0  0  0  0  0  0  0  0  0
    8.9367  -17.6528   20.7761 N   0  0  0  0  0  0  0  0  0  0  0  0
    8.9635  -16.3249   21.3576 C   0  0  1  0  0  0  0  0  0  0  0  0
    7.6714  -15.5823   21.1164 C   0  0  0  0  0  0  0  0  0  0  0  0
    7.7223  -14.1733   21.5821 C   0  0  0  0  0  0  0  0  0  0  0  0
    7.1179  -13.8293   22.7750 C   0  0  0  0  0  0  0  0  0  0  0  0
    7.1923  -12.5045   23.1719 C   0  0  0  0  0  0  0  0  0  0  0  0
    7.8460  -11.5430   22.4123 C   0  0  0  0  0  0  0  0  0  0  0  0
    8.4420  -11.8850   21.2347 C   0  0  0  0  0  0  0  0  0  0  0  0
    8.3707  -13.2168   20.8296 C   0  0  0  0  0  0  0  0  0  0  0  0
    9.1526  -16.3850   22.8353 C   0  0  0  0  0  0  0  0  0  0  0  0
    8.6121  -17.2625   23.5572 O   0  0  0  0  0  0  0  0  0  0  0  0
    9.9861  -15.3927   23.4199 N   0  0  0  0  0  0  0  0  0  0  0  0
   10.6386  -15.5817   24.7036 C   0  0  1  0  0  0  0  0  0  0  0  0
    9.7010  -16.4997   25.5002 C   0  0  0  0  0  0  0  0  0  0  0  0
    8.4086  -15.8547   25.7607 C   0  0  0  0  0  0  0  0  0  0  0  0
    7.1427  -16.3416   25.4476 C   0  0  0  0  0  0  0  0  0  0  0  0
    6.2221  -15.4477   25.8526 N   0  0  0  0  0  0  0  0  0  0  0  0
    6.8771  -14.4048   26.4157 C   0  0  0  0  0  0  0  0  0  0  0  0
    6.4110  -13.2374   26.9840 C   0  0  0  0  0  0  0  0  0  0  0  0
    7.3216  -12.3244   27.4953 C   0  0  0  0  0  0  0  0  0  0  0  0
    8.6649  -12.5555   27.4484 C   0  0  0  0  0  0  0  0  0  0  0  0
    9.1483  -13.7272   26.8789 C   0  0  0  0  0  0  0  0  0  0  0  0
    8.2426  -14.6353   26.3702 C   0  0  0  0  0  0  0  0  0  0  0  0
   11.9364  -16.2554   24.4775 C   0  0  0  0  0  0  0  0  0  0  0  0
   12.4008  -16.5698   23.2001 O   0  0  0  0  0  0  0  0  0  0  0  0
   12.6636  -16.5660   25.4401 O   0  0  0  0  0  0  0  0  0  0  0  0
  2  1  1  6
  3  2  1  0
  4  5  2  0
  4  3  1  0
  6  5  1  0
  7  8  2  0
  7  6  1  0
  8  4  1  0
  9  2  1  0
 10  9  2  0
 11  9  1  0
 12 11  1  0
 12 13  1  1
 13 14  1  0
 14 15  2  0
 15 16  1  0
 17 16  2  0
 18 17  1  0
 19 14  1  0
 19 18  2  0
 20 21  2  0
 20 12  1  0
 22 20  1  0
 23 22  1  0
 23 24  1  1
 24 25  1  0
 25 26  2  0
 25 33  1  0
 26 27  1  0
 27 28  1  0
 28 29  2  0
 29 30  1  0
 31 30  2  0
 32 31  1  0
 33 32  2  0
 33 28  1  0
 34 35  1  0
 34 23  1  0
 36 34  2  0
M  END
$$$$
