HFW.pdb
     RDKit          3D

 36 39  0  0  1  0  0  0  0  0999 V2000
    9.3501  -21.0258   20.1859 N   0  0  0  0  0  0  0  0  0  0  0  0
    9.1395  -20.2866   21.4444 C   0  0  1  0  0  0  0  0  0  0  0  0
   10.2136  -20.7237   22.4030 C   0  0  0  0  0  0  0  0  0  0  0  0
   10.0179  -22.0779   22.9129 C   0  0  0  0  0  0  0  0  0  0  0  0
    8.7309  -22.5763   23.1747 C   0  0  0  0  0  0  0  0  0  0  0  0
    8.9105  -23.8235   23.6228 N   0  0  0  0  0  0  0  0  0  0  0  0
   10.2273  -24.1267   23.6541 C   0  0  0  0  0  0  0  0  0  0  0  0
   10.8841  -23.0523   23.2188 N   0  0  0  0  0  0  0  0  0  0  0  0
    9.2953  -18.8229   21.1632 C   0  0  0  0  0  0  0  0  0  0  0  0
   10.2577  -18.3221   20.5460 O   0  0  0  0  0  0  0  0  0  0  0  0
    8.2925  -17.9078   21.6174 N   0  0  0  0  0  0  0  0  0  0  0  0
    8.4418  -16.4872   21.3691 C   0  0  1  0  0  0  0  0  0  0  0  0
    7.1085  -15.7794   21.3501 C   0  0  0  0  0  0  0  0  0  0  0  0
    7.2347  -14.3219   21.0963 C   0  0  0  0  0  0  0  0  0  0  0  0
    7.5612  -13.8780   19.8302 C   0  0  0  0  0  0  0  0  0  0  0  0
    7.6657  -12.5104   19.6382 C   0  0  0  0  0  0  0  0  0  0  0  0
    7.4537  -11.6031   20.6680 C   0  0  0  0  0  0  0  0  0  0  0  0
    7.1314  -12.0436   21.9174 C   0  0  0  0  0  0  0  0  0  0  0  0
    7.0247  -13.4190   22.1172 C   0  0  0  0  0  0  0  0  0  0  0  0
    9.2571  -15.8346   22.4333 C   0  0  0  0  0  0  0  0  0  0  0  0
    9.7241  -14.6719   22.3185 O   0  0  0  0  0  0  0  0  0  0  0  0
    9.4969  -16.5877   23.6151 N   0  0  0  0  0  0  0  0  0  0  0  0
   10.2478  -16.0552   24.7385 C   0  0  1  0  0  0  0  0  0  0  0  0
    9.3707  -16.3200   25.9702 C   0  0  0  0  0  0  0  0  0  0  0  0
    8.0968  -15.5955   25.8906 C   0  0  0  0  0  0  0  0  0  0  0  0
    6.8450  -16.1187   25.5793 C   0  0  0  0  0  0  0  0  0  0  0  0
    5.9393  -15.1241   25.6119 N   0  0  0  0  0  0  0  0  0  0  0  0
    6.5899  -13.9819   25.9371 C   0  0  0  0  0  0  0  0  0  0  0  0
    6.1339  -12.6905   26.1028 C   0  0  0  0  0  0  0  0  0  0  0  0
    7.0363  -11.6939   26.4443 C   0  0  0  0  0  0  0  0  0  0  0  0
    8.3620  -11.9627   26.6194 C   0  0  0  0  0  0  0  0  0  0  0  0
    8.8350  -13.2589   26.4557 C   0  0  0  0  0  0  0  0  0  0  0  0
    7.9374  -14.2503   26.1160 C   0  0  0  0  0  0  0  0  0  0  0  0
   11.5197  -16.8026   24.8515 C   0  0  0  0  0  0  0  0  0  0  0  0
   12.5406  -16.4105   25.7177 O   0  0  0  0  0  0  0  0  0  0  0  0
   11.7173  -17.8219   24.1631 O   0  0  0  0  0  0  0  0  0  0  0  0
  2  1  1  6
  3  2  1  0
  4  5  2  0
  4  3  1  0
  6  5  1  0
  7  8  2  0
  7  6  1  0
  8  4  1  0
  9  2  1  0
 10  9  2  0
 11  9  1  0
 12 11  1  0
 12 13  1  1
 13 14  1  0
 14 15  2  0
 15 16  1  0
 17 16  2  0
 18 17  1  0
 19 14  1  0
 19 18  2  0
 20 21  2  0
 20 12  1  0
 22 20  1  0
 23 22  1  0
 23 24  1  1
 24 25  1  0
 25 26  2  0
 25 33  1  0
 26 27  1  0
 27 28  1  0
 28 29  2  0
 29 30  1  0
 31 30  2  0
 32 31  1  0
 33 32  2  0
 33 28  1  0
 34 35  1  0
 34 23  1  0
 36 34  2  0
M  END
$$$$
