HFW.pdb
     RDKit          3D

 36 39  0  0  1  0  0  0  0  0999 V2000
    9.7139  -16.5967   17.9990 N   0  0  0  0  0  0  0  0  0  0  0  0
   10.4351  -17.4454   18.9655 C   0  0  1  0  0  0  0  0  0  0  0  0
   11.8301  -17.6377   18.4355 C   0  0  0  0  0  0  0  0  0  0  0  0
   11.8812  -18.4463   17.2207 C   0  0  0  0  0  0  0  0  0  0  0  0
   10.8579  -19.3576   16.9115 C   0  0  0  0  0  0  0  0  0  0  0  0
   11.2138  -19.9208   15.7519 N   0  0  0  0  0  0  0  0  0  0  0  0
   12.3924  -19.4147   15.3256 C   0  0  0  0  0  0  0  0  0  0  0  0
   12.7819  -18.5198   16.2325 N   0  0  0  0  0  0  0  0  0  0  0  0
   10.5007  -16.7186   20.2743 C   0  0  0  0  0  0  0  0  0  0  0  0
   11.5332  -16.1917   20.7372 O   0  0  0  0  0  0  0  0  0  0  0  0
    9.3195  -16.6004   21.0744 N   0  0  0  0  0  0  0  0  0  0  0  0
    9.4224  -16.2015   22.4644 C   0  0  1  0  0  0  0  0  0  0  0  0
    8.8699  -14.8150   22.6910 C   0  0  0  0  0  0  0  0  0  0  0  0
    8.3315  -14.2007   21.4510 C   0  0  0  0  0  0  0  0  0  0  0  0
    9.0205  -13.1657   20.8504 C   0  0  0  0  0  0  0  0  0  0  0  0
    8.4831  -12.6245   19.6943 C   0  0  0  0  0  0  0  0  0  0  0  0
    7.2967  -13.0917   19.1440 C   0  0  0  0  0  0  0  0  0  0  0  0
    6.6181  -14.1137   19.7387 C   0  0  0  0  0  0  0  0  0  0  0  0
    7.1536  -14.6628   20.9026 C   0  0  0  0  0  0  0  0  0  0  0  0
    8.6497  -17.1195   23.3495 C   0  0  0  0  0  0  0  0  0  0  0  0
    7.4689  -17.4749   23.0993 O   0  0  0  0  0  0  0  0  0  0  0  0
    9.3068  -17.5944   24.5173 N   0  0  0  0  0  0  0  0  0  0  0  0
    9.9310  -16.7008   25.4772 C   0  0  1  0  0  0  0  0  0  0  0  0
    9.5319  -15.2877   25.0298 C   0  0  0  0  0  0  0  0  0  0  0  0
    8.2137  -14.9090   25.5525 C   0  0  0  0  0  0  0  0  0  0  0  0
    7.0556  -15.6812   25.5645 C   0  0  0  0  0  0  0  0  0  0  0  0
    6.0647  -14.9676   26.1297 N   0  0  0  0  0  0  0  0  0  0  0  0
    6.5697  -13.7598   26.4761 C   0  0  0  0  0  0  0  0  0  0  0  0
    5.9830  -12.6680   27.0818 C   0  0  0  0  0  0  0  0  0  0  0  0
    6.7491  -11.5375   27.3249 C   0  0  0  0  0  0  0  0  0  0  0  0
    8.0672  -11.4821   26.9786 C   0  0  0  0  0  0  0  0  0  0  0  0
    8.6710  -12.5746   26.3680 C   0  0  0  0  0  0  0  0  0  0  0  0
    7.9090  -13.6991   26.1262 C   0  0  0  0  0  0  0  0  0  0  0  0
    9.3725  -16.9851   26.8175 C   0  0  0  0  0  0  0  0  0  0  0  0
    9.9165  -16.4431   27.9823 O   0  0  0  0  0  0  0  0  0  0  0  0
    8.3824  -17.7303   26.9448 O   0  0  0  0  0  0  0  0  0  0  0  0
  2  1  1  6
  3  2  1  0
  4  5  2  0
  4  3  1  0
  6  5  1  0
  7  8  2  0
  7  6  1  0
  8  4  1  0
  9  2  1  0
 10  9  2  0
 11  9  1  0
 12 11  1  0
 12 13  1  6
 13 14  1  0
 14 15  2  0
 15 16  1  0
 17 16  2  0
 18 17  1  0
 19 14  1  0
 19 18  2  0
 20 21  2  0
 20 12  1  0
 22 20  1  0
 23 22  1  0
 23 24  1  6
 24 25  1  0
 25 26  2  0
 25 33  1  0
 26 27  1  0
 27 28  1  0
 28 29  2  0
 29 30  1  0
 31 30  2  0
 32 31  1  0
 33 32  2  0
 33 28  1  0
 34 35  1  0
 34 23  1  0
 36 34  2  0
M  END
$$$$
