HFW.pdb
     RDKit          3D

 36 39  0  0  1  0  0  0  0  0999 V2000
   10.3473  -18.2794   19.1793 N   0  0  0  0  0  0  0  0  0  0  0  0
   11.5615  -17.6780   19.7612 C   0  0  1  0  0  0  0  0  0  0  0  0
   12.2039  -16.8429   18.6869 C   0  0  0  0  0  0  0  0  0  0  0  0
   12.4971  -17.5929   17.4689 C   0  0  0  0  0  0  0  0  0  0  0  0
   13.4306  -18.6426   17.4695 C   0  0  0  0  0  0  0  0  0  0  0  0
   13.4563  -19.1041   16.2146 N   0  0  0  0  0  0  0  0  0  0  0  0
   12.5975  -18.4056   15.4390 C   0  0  0  0  0  0  0  0  0  0  0  0
   12.0240  -17.4912   16.2202 N   0  0  0  0  0  0  0  0  0  0  0  0
   11.1505  -16.7900   20.8962 C   0  0  0  0  0  0  0  0  0  0  0  0
   11.8971  -15.9514   21.4414 O   0  0  0  0  0  0  0  0  0  0  0  0
    9.8197  -16.8816   21.4158 N   0  0  0  0  0  0  0  0  0  0  0  0
    9.4925  -16.2602   22.6842 C   0  0  1  0  0  0  0  0  0  0  0  0
    8.0664  -15.7658   22.7137 C   0  0  0  0  0  0  0  0  0  0  0  0
    7.8142  -14.6789   21.7341 C   0  0  0  0  0  0  0  0  0  0  0  0
    8.0678  -13.3694   22.0912 C   0  0  0  0  0  0  0  0  0  0  0  0
    7.8206  -12.3883   21.1453 C   0  0  0  0  0  0  0  0  0  0  0  0
    7.3358  -12.6902   19.8795 C   0  0  0  0  0  0  0  0  0  0  0  0
    7.0860  -13.9840   19.5291 C   0  0  0  0  0  0  0  0  0  0  0  0
    7.3327  -14.9761   20.4765 C   0  0  0  0  0  0  0  0  0  0  0  0
    9.6337  -17.2253   23.8120 C   0  0  0  0  0  0  0  0  0  0  0  0
   10.2544  -18.3144   23.7042 O   0  0  0  0  0  0  0  0  0  0  0  0
    9.0288  -16.8666   25.0476 N   0  0  0  0  0  0  0  0  0  0  0  0
    9.8005  -16.6545   26.2595 C   0  0  1  0  0  0  0  0  0  0  0  0
    8.7758  -16.2258   27.3190 C   0  0  0  0  0  0  0  0  0  0  0  0
    7.7856  -15.2945   26.7654 C   0  0  0  0  0  0  0  0  0  0  0  0
    6.5871  -15.6129   26.1330 C   0  0  0  0  0  0  0  0  0  0  0  0
    5.9710  -14.4723   25.7725 N   0  0  0  0  0  0  0  0  0  0  0  0
    6.7530  -13.4379   26.1628 C   0  0  0  0  0  0  0  0  0  0  0  0
    6.5871  -12.0741   26.0379 C   0  0  0  0  0  0  0  0  0  0  0  0
    7.5641  -11.2260   26.5384 C   0  0  0  0  0  0  0  0  0  0  0  0
    8.6829  -11.7104   27.1499 C   0  0  0  0  0  0  0  0  0  0  0  0
    8.8629  -13.0819   27.2825 C   0  0  0  0  0  0  0  0  0  0  0  0
    7.8911  -13.9255   26.7847 C   0  0  0  0  0  0  0  0  0  0  0  0
   10.4269  -17.9370   26.6495 C   0  0  0  0  0  0  0  0  0  0  0  0
   10.2179  -19.1166   25.9348 O   0  0  0  0  0  0  0  0  0  0  0  0
   11.1724  -17.9993   27.6457 O   0  0  0  0  0  0  0  0  0  0  0  0
  2  1  1  6
  3  2  1  0
  4  5  2  0
  4  3  1  0
  6  5  1  0
  7  8  2  0
  7  6  1  0
  8  4  1  0
  9  2  1  0
 10  9  2  0
 11  9  1  0
 12 11  1  0
 12 13  1  6
 13 14  1  0
 14 15  2  0
 15 16  1  0
 17 16  2  0
 18 17  1  0
 19 14  1  0
 19 18  2  0
 20 21  2  0
 20 12  1  0
 22 20  1  0
 23 22  1  0
 23 24  1  1
 24 25  1  0
 25 26  2  0
 25 33  1  0
 26 27  1  0
 27 28  1  0
 28 29  2  0
 29 30  1  0
 31 30  2  0
 32 31  1  0
 33 32  2  0
 33 28  1  0
 34 35  1  0
 34 23  1  0
 36 34  2  0
M  END
$$$$
