HFW.pdb
     RDKit          3D

 36 39  0  0  1  0  0  0  0  0999 V2000
   10.5870  -17.5982   18.2222 N   0  0  0  0  0  0  0  0  0  0  0  0
   10.1125  -18.3955   19.3684 C   0  0  1  0  0  0  0  0  0  0  0  0
   11.1758  -19.4158   19.6721 C   0  0  0  0  0  0  0  0  0  0  0  0
   11.2858  -20.4573   18.6546 C   0  0  0  0  0  0  0  0  0  0  0  0
   10.3302  -21.4824   18.5586 C   0  0  0  0  0  0  0  0  0  0  0  0
   10.7268  -22.2518   17.5392 N   0  0  0  0  0  0  0  0  0  0  0  0
   11.8669  -21.7664   16.9995 C   0  0  0  0  0  0  0  0  0  0  0  0
   12.1908  -20.6750   17.6918 N   0  0  0  0  0  0  0  0  0  0  0  0
    9.9552  -17.4818   20.5457 C   0  0  0  0  0  0  0  0  0  0  0  0
   10.8769  -16.7963   21.0342 O   0  0  0  0  0  0  0  0  0  0  0  0
    8.6765  -17.3610   21.1777 N   0  0  0  0  0  0  0  0  0  0  0  0
    8.5222  -16.5160   22.3457 C   0  0  1  0  0  0  0  0  0  0  0  0
    7.0826  -16.1149   22.5599 C   0  0  0  0  0  0  0  0  0  0  0  0
    6.9013  -15.2306   23.7388 C   0  0  0  0  0  0  0  0  0  0  0  0
    7.1761  -13.8822   23.6259 C   0  0  0  0  0  0  0  0  0  0  0  0
    6.9904  -13.0945   24.7499 C   0  0  0  0  0  0  0  0  0  0  0  0
    6.5451  -13.6225   25.9547 C   0  0  0  0  0  0  0  0  0  0  0  0
    6.2745  -14.9543   26.0638 C   0  0  0  0  0  0  0  0  0  0  0  0
    6.4593  -15.7526   24.9362 C   0  0  0  0  0  0  0  0  0  0  0  0
    8.9583  -17.2210   23.5851 C   0  0  0  0  0  0  0  0  0  0  0  0
    8.6212  -18.4035   23.8519 O   0  0  0  0  0  0  0  0  0  0  0  0
    9.7906  -16.4957   24.4808 N   0  0  0  0  0  0  0  0  0  0  0  0
   10.7373  -17.1501   25.3667 C   0  0  1  0  0  0  0  0  0  0  0  0
   11.5872  -16.0158   25.9560 C   0  0  0  0  0  0  0  0  0  0  0  0
   10.9965  -15.4852   27.1905 C   0  0  0  0  0  0  0  0  0  0  0  0
   11.1375  -15.9904   28.4799 C   0  0  0  0  0  0  0  0  0  0  0  0
   10.4367  -15.2156   29.3279 N   0  0  0  0  0  0  0  0  0  0  0  0
    9.8546  -14.2303   28.6039 C   0  0  0  0  0  0  0  0  0  0  0  0
    9.0400  -13.1831   28.9820 C   0  0  0  0  0  0  0  0  0  0  0  0
    8.5768  -12.3040   28.0141 C   0  0  0  0  0  0  0  0  0  0  0  0
    8.9086  -12.4524   26.6995 C   0  0  0  0  0  0  0  0  0  0  0  0
    9.7283  -13.5026   26.3047 C   0  0  0  0  0  0  0  0  0  0  0  0
   10.1890  -14.3771   27.2674 C   0  0  0  0  0  0  0  0  0  0  0  0
    9.9829  -17.8302   26.4426 C   0  0  0  0  0  0  0  0  0  0  0  0
   10.6115  -18.5952   27.4254 O   0  0  0  0  0  0  0  0  0  0  0  0
    8.7420  -17.7362   26.5014 O   0  0  0  0  0  0  0  0  0  0  0  0
  2  1  1  6
  3  2  1  0
  4  5  2  0
  4  3  1  0
  6  5  1  0
  7  8  2  0
  7  6  1  0
  8  4  1  0
  9  2  1  0
 10  9  2  0
 11  9  1  0
 12 11  1  0
 12 13  1  1
 13 14  1  0
 14 15  2  0
 15 16  1  0
 17 16  2  0
 18 17  1  0
 19 14  1  0
 19 18  2  0
 20 21  2  0
 20 12  1  0
 22 20  1  0
 23 22  1  0
 23 24  1  1
 24 25  1  0
 25 26  2  0
 25 33  1  0
 26 27  1  0
 27 28  1  0
 28 29  2  0
 29 30  1  0
 31 30  2  0
 32 31  1  0
 33 32  2  0
 33 28  1  0
 34 35  1  0
 34 23  1  0
 36 34  2  0
M  END
$$$$
