HFW.pdb
     RDKit          3D

 36 39  0  0  1  0  0  0  0  0999 V2000
    9.7381  -17.4254   18.5888 N   0  0  0  0  0  0  0  0  0  0  0  0
    9.2062  -17.7927   19.9142 C   0  0  1  0  0  0  0  0  0  0  0  0
   10.1157  -18.8479   20.4825 C   0  0  0  0  0  0  0  0  0  0  0  0
    9.9656  -20.1494   19.8378 C   0  0  0  0  0  0  0  0  0  0  0  0
   10.1928  -20.3081   18.4606 C   0  0  0  0  0  0  0  0  0  0  0  0
    9.9706  -21.6017   18.2043 N   0  0  0  0  0  0  0  0  0  0  0  0
    9.6206  -22.2519   19.3364 C   0  0  0  0  0  0  0  0  0  0  0  0
    9.6232  -21.3515   20.3185 N   0  0  0  0  0  0  0  0  0  0  0  0
    9.2496  -16.5792   20.7925 C   0  0  0  0  0  0  0  0  0  0  0  0
   10.0439  -15.6282   20.6423 O   0  0  0  0  0  0  0  0  0  0  0  0
    8.3333  -16.4686   21.8867 N   0  0  0  0  0  0  0  0  0  0  0  0
    8.3230  -15.2720   22.7054 C   0  0  1  0  0  0  0  0  0  0  0  0
    7.0078  -15.0983   23.4258 C   0  0  0  0  0  0  0  0  0  0  0  0
    7.0325  -13.9845   24.4075 C   0  0  0  0  0  0  0  0  0  0  0  0
    6.5890  -14.2044   25.6965 C   0  0  0  0  0  0  0  0  0  0  0  0
    6.6324  -13.1380   26.5793 C   0  0  0  0  0  0  0  0  0  0  0  0
    7.1010  -11.8866   26.2012 C   0  0  0  0  0  0  0  0  0  0  0  0
    7.5383  -11.6718   24.9278 C   0  0  0  0  0  0  0  0  0  0  0  0
    7.4973  -12.7409   24.0344 C   0  0  0  0  0  0  0  0  0  0  0  0
    9.3813  -15.3250   23.7544 C   0  0  0  0  0  0  0  0  0  0  0  0
    9.6765  -14.3375   24.4762 O   0  0  0  0  0  0  0  0  0  0  0  0
   10.0653  -16.5604   23.9188 N   0  0  0  0  0  0  0  0  0  0  0  0
   11.1976  -16.7099   24.8159 C   0  0  1  0  0  0  0  0  0  0  0  0
   10.7380  -17.7169   25.8794 C   0  0  0  0  0  0  0  0  0  0  0  0
    9.7498  -17.1261   26.7897 C   0  0  0  0  0  0  0  0  0  0  0  0
    8.4189  -17.5007   26.9506 C   0  0  0  0  0  0  0  0  0  0  0  0
    7.8554  -16.7094   27.8816 N   0  0  0  0  0  0  0  0  0  0  0  0
    8.8004  -15.8413   28.3143 C   0  0  0  0  0  0  0  0  0  0  0  0
    8.7471  -14.8315   29.2526 C   0  0  0  0  0  0  0  0  0  0  0  0
    9.8872  -14.0825   29.5046 C   0  0  0  0  0  0  0  0  0  0  0  0
   11.0573  -14.3224   28.8461 C   0  0  0  0  0  0  0  0  0  0  0  0
   11.1252  -15.3365   27.8984 C   0  0  0  0  0  0  0  0  0  0  0  0
    9.9912  -16.0814   27.6477 C   0  0  0  0  0  0  0  0  0  0  0  0
   12.3353  -17.2650   24.0499 C   0  0  0  0  0  0  0  0  0  0  0  0
   13.6081  -17.4071   24.6030 O   0  0  0  0  0  0  0  0  0  0  0  0
   12.1845  -17.6276   22.8676 O   0  0  0  0  0  0  0  0  0  0  0  0
  2  1  1  6
  3  2  1  0
  4  5  2  0
  4  3  1  0
  6  5  1  0
  7  8  2  0
  7  6  1  0
  8  4  1  0
  9  2  1  0
 10  9  2  0
 11  9  1  0
 12 11  1  0
 12 13  1  1
 13 14  1  0
 14 15  2  0
 15 16  1  0
 17 16  2  0
 18 17  1  0
 19 14  1  0
 19 18  2  0
 20 21  2  0
 20 12  1  0
 22 20  1  0
 23 22  1  0
 23 24  1  1
 24 25  1  0
 25 26  2  0
 25 33  1  0
 26 27  1  0
 27 28  1  0
 28 29  2  0
 29 30  1  0
 31 30  2  0
 32 31  1  0
 33 32  2  0
 33 28  1  0
 34 35  1  0
 34 23  1  0
 36 34  2  0
M  END
$$$$
