HFW.pdb
     RDKit          3D

 36 39  0  0  1  0  0  0  0  0999 V2000
   10.4032  -18.3305   18.5256 N   0  0  0  0  0  0  0  0  0  0  0  0
   11.4324  -17.3557   18.9316 C   0  0  1  0  0  0  0  0  0  0  0  0
   11.6244  -16.4051   17.7813 C   0  0  0  0  0  0  0  0  0  0  0  0
   12.0697  -17.0624   16.5557 C   0  0  0  0  0  0  0  0  0  0  0  0
   13.4046  -16.9730   16.1277 C   0  0  0  0  0  0  0  0  0  0  0  0
   13.4678  -17.6763   14.9919 N   0  0  0  0  0  0  0  0  0  0  0  0
   12.2560  -18.1943   14.6917 C   0  0  0  0  0  0  0  0  0  0  0  0
   11.4193  -17.8097   15.6546 N   0  0  0  0  0  0  0  0  0  0  0  0
   10.9211  -16.5968   20.1183 C   0  0  0  0  0  0  0  0  0  0  0  0
   11.5087  -15.6284   20.6427 O   0  0  0  0  0  0  0  0  0  0  0  0
    9.6783  -16.9794   20.7170 N   0  0  0  0  0  0  0  0  0  0  0  0
    9.2345  -16.3378   21.9390 C   0  0  1  0  0  0  0  0  0  0  0  0
    7.8173  -15.8308   21.8220 C   0  0  0  0  0  0  0  0  0  0  0  0
    7.6962  -14.6684   20.9061 C   0  0  0  0  0  0  0  0  0  0  0  0
    7.9779  -13.4008   21.3754 C   0  0  0  0  0  0  0  0  0  0  0  0
    7.8542  -12.3464   20.4859 C   0  0  0  0  0  0  0  0  0  0  0  0
    7.4627  -12.5366   19.1671 C   0  0  0  0  0  0  0  0  0  0  0  0
    7.1850  -13.7892   18.7059 C   0  0  0  0  0  0  0  0  0  0  0  0
    7.3076  -14.8547   19.5962 C   0  0  0  0  0  0  0  0  0  0  0  0
    9.2549  -17.2885   23.0875 C   0  0  0  0  0  0  0  0  0  0  0  0
    9.5876  -18.4960   22.9678 O   0  0  0  0  0  0  0  0  0  0  0  0
    8.8767  -16.7738   24.3577 N   0  0  0  0  0  0  0  0  0  0  0  0
    9.8290  -16.5931   25.4393 C   0  0  1  0  0  0  0  0  0  0  0  0
    9.6700  -15.1298   25.8749 C   0  0  0  0  0  0  0  0  0  0  0  0
    8.2577  -14.7691   26.0473 C   0  0  0  0  0  0  0  0  0  0  0  0
    7.1466  -15.5813   25.8391 C   0  0  0  0  0  0  0  0  0  0  0  0
    6.0350  -14.8720   26.1069 N   0  0  0  0  0  0  0  0  0  0  0  0
    6.4175  -13.6278   26.4804 C   0  0  0  0  0  0  0  0  0  0  0  0
    5.6808  -12.5239   26.8569 C   0  0  0  0  0  0  0  0  0  0  0  0
    6.3432  -11.3534   27.1965 C   0  0  0  0  0  0  0  0  0  0  0  0
    7.7042  -11.2705   27.1662 C   0  0  0  0  0  0  0  0  0  0  0  0
    8.4587  -12.3747   26.7888 C   0  0  0  0  0  0  0  0  0  0  0  0
    7.7999  -13.5390   26.4510 C   0  0  0  0  0  0  0  0  0  0  0  0
    9.4566  -17.4964   26.5505 C   0  0  0  0  0  0  0  0  0  0  0  0
    8.3036  -18.2812   26.5190 O   0  0  0  0  0  0  0  0  0  0  0  0
   10.1763  -17.5823   27.5636 O   0  0  0  0  0  0  0  0  0  0  0  0
  2  1  1  6
  3  2  1  0
  4  5  2  0
  4  3  1  0
  6  5  1  0
  7  8  2  0
  7  6  1  0
  8  4  1  0
  9  2  1  0
 10  9  2  0
 11  9  1  0
 12 11  1  0
 12 13  1  6
 13 14  1  0
 14 15  2  0
 15 16  1  0
 17 16  2  0
 18 17  1  0
 19 14  1  0
 19 18  2  0
 20 21  2  0
 20 12  1  0
 22 20  1  0
 23 22  1  0
 23 24  1  1
 24 25  1  0
 25 26  2  0
 25 33  1  0
 26 27  1  0
 27 28  1  0
 28 29  2  0
 29 30  1  0
 31 30  2  0
 32 31  1  0
 33 32  2  0
 33 28  1  0
 34 35  1  0
 34 23  1  0
 36 34  2  0
M  END
$$$$
