HFW.pdb
     RDKit          3D

 36 39  0  0  1  0  0  0  0  0999 V2000
   11.9169  -18.1837   17.3363 N   0  0  0  0  0  0  0  0  0  0  0  0
   11.6891  -18.7966   18.6581 C   0  0  1  0  0  0  0  0  0  0  0  0
   13.0099  -19.3410   19.1304 C   0  0  0  0  0  0  0  0  0  0  0  0
   13.4997  -20.4536   18.3215 C   0  0  0  0  0  0  0  0  0  0  0  0
   13.3365  -21.7839   18.7419 C   0  0  0  0  0  0  0  0  0  0  0  0
   13.8897  -22.5360   17.7843 N   0  0  0  0  0  0  0  0  0  0  0  0
   14.3841  -21.7538   16.7990 C   0  0  0  0  0  0  0  0  0  0  0  0
   14.1371  -20.4909   17.1444 N   0  0  0  0  0  0  0  0  0  0  0  0
   11.2311  -17.7262   19.6016 C   0  0  0  0  0  0  0  0  0  0  0  0
   11.9550  -16.8007   20.0229 O   0  0  0  0  0  0  0  0  0  0  0  0
    9.8792  -17.7332   20.0720 N   0  0  0  0  0  0  0  0  0  0  0  0
    9.4106  -16.6762   20.9468 C   0  0  1  0  0  0  0  0  0  0  0  0
    7.9428  -16.3892   20.7412 C   0  0  0  0  0  0  0  0  0  0  0  0
    7.4630  -15.2394   21.5488 C   0  0  0  0  0  0  0  0  0  0  0  0
    6.7418  -15.4731   22.7029 C   0  0  0  0  0  0  0  0  0  0  0  0
    6.3164  -14.3713   23.4264 C   0  0  0  0  0  0  0  0  0  0  0  0
    6.5949  -13.0720   23.0226 C   0  0  0  0  0  0  0  0  0  0  0  0
    7.3071  -12.8437   21.8827 C   0  0  0  0  0  0  0  0  0  0  0  0
    7.7382  -13.9483   21.1500 C   0  0  0  0  0  0  0  0  0  0  0  0
    9.5766  -17.0476   22.3813 C   0  0  0  0  0  0  0  0  0  0  0  0
    9.5048  -18.2350   22.7914 O   0  0  0  0  0  0  0  0  0  0  0  0
    9.8261  -15.9891   23.2970 N   0  0  0  0  0  0  0  0  0  0  0  0
   10.2149  -16.2279   24.6758 C   0  0  1  0  0  0  0  0  0  0  0  0
   10.0739  -14.8685   25.3748 C   0  0  0  0  0  0  0  0  0  0  0  0
    8.6656  -14.5229   25.6020 C   0  0  0  0  0  0  0  0  0  0  0  0
    7.5929  -15.3984   25.7445 C   0  0  0  0  0  0  0  0  0  0  0  0
    6.4706  -14.6812   25.9362 N   0  0  0  0  0  0  0  0  0  0  0  0
    6.8089  -13.3701   25.9184 C   0  0  0  0  0  0  0  0  0  0  0  0
    6.0448  -12.2311   26.0667 C   0  0  0  0  0  0  0  0  0  0  0  0
    6.6622  -10.9905   26.0047 C   0  0  0  0  0  0  0  0  0  0  0  0
    8.0057  -10.8727   25.8006 C   0  0  0  0  0  0  0  0  0  0  0  0
    8.7873  -12.0116   25.6496 C   0  0  0  0  0  0  0  0  0  0  0  0
    8.1732  -13.2456   25.7113 C   0  0  0  0  0  0  0  0  0  0  0  0
    9.2731  -17.2031   25.2685 C   0  0  0  0  0  0  0  0  0  0  0  0
    9.5758  -17.9249   26.4233 O   0  0  0  0  0  0  0  0  0  0  0  0
    8.1630  -17.4099   24.7424 O   0  0  0  0  0  0  0  0  0  0  0  0
  2  1  1  6
  3  2  1  0
  4  5  2  0
  4  3  1  0
  6  5  1  0
  7  8  2  0
  7  6  1  0
  8  4  1  0
  9  2  1  0
 10  9  2  0
 11  9  1  0
 12 11  1  0
 12 13  1  1
 13 14  1  0
 14 15  2  0
 15 16  1  0
 17 16  2  0
 18 17  1  0
 19 14  1  0
 19 18  2  0
 20 21  2  0
 20 12  1  0
 22 20  1  0
 23 22  1  0
 23 24  1  1
 24 25  1  0
 25 26  2  0
 25 33  1  0
 26 27  1  0
 27 28  1  0
 28 29  2  0
 29 30  1  0
 31 30  2  0
 32 31  1  0
 33 32  2  0
 33 28  1  0
 34 35  1  0
 34 23  1  0
 36 34  2  0
M  END
$$$$
