HFW.pdb
     RDKit          3D

 36 39  0  0  1  0  0  0  0  0999 V2000
    9.2883  -18.4570   18.5785 N   0  0  0  0  0  0  0  0  0  0  0  0
   10.1207  -17.2420   18.5051 C   0  0  1  0  0  0  0  0  0  0  0  0
    9.7995  -16.5597   17.2032 C   0  0  0  0  0  0  0  0  0  0  0  0
   10.2878  -17.2851   16.0339 C   0  0  0  0  0  0  0  0  0  0  0  0
   11.6337  -17.2049   15.6394 C   0  0  0  0  0  0  0  0  0  0  0  0
   11.7380  -17.9757   14.5515 N   0  0  0  0  0  0  0  0  0  0  0  0
   10.5414  -18.5269   14.2493 C   0  0  0  0  0  0  0  0  0  0  0  0
    9.6726  -18.0947   15.1624 N   0  0  0  0  0  0  0  0  0  0  0  0
    9.7411  -16.3411   19.6409 C   0  0  0  0  0  0  0  0  0  0  0  0
   10.2225  -15.2052   19.8310 O   0  0  0  0  0  0  0  0  0  0  0  0
    8.7639  -16.7789   20.5909 N   0  0  0  0  0  0  0  0  0  0  0  0
    8.6743  -16.1359   21.8873 C   0  0  1  0  0  0  0  0  0  0  0  0
    7.2525  -15.7609   22.2289 C   0  0  0  0  0  0  0  0  0  0  0  0
    7.1489  -14.9911   23.4943 C   0  0  0  0  0  0  0  0  0  0  0  0
    7.4769  -13.6499   23.5030 C   0  0  0  0  0  0  0  0  0  0  0  0
    7.3630  -12.9705   24.7046 C   0  0  0  0  0  0  0  0  0  0  0  0
    6.9366  -13.5973   25.8682 C   0  0  0  0  0  0  0  0  0  0  0  0
    6.6134  -14.9218   25.8573 C   0  0  0  0  0  0  0  0  0  0  0  0
    6.7258  -15.6112   24.6511 C   0  0  0  0  0  0  0  0  0  0  0  0
    9.1508  -17.0395   22.9735 C   0  0  0  0  0  0  0  0  0  0  0  0
    8.3916  -17.8426   23.5750 O   0  0  0  0  0  0  0  0  0  0  0  0
   10.5281  -16.9638   23.3178 N   0  0  0  0  0  0  0  0  0  0  0  0
   10.9890  -16.9940   24.6948 C   0  0  1  0  0  0  0  0  0  0  0  0
   10.1501  -15.9347   25.4231 C   0  0  0  0  0  0  0  0  0  0  0  0
   10.2553  -16.0725   26.8806 C   0  0  0  0  0  0  0  0  0  0  0  0
   10.4645  -17.2420   27.6060 C   0  0  0  0  0  0  0  0  0  0  0  0
   10.4971  -16.9390   28.9166 N   0  0  0  0  0  0  0  0  0  0  0  0
   10.3131  -15.6029   29.0376 C   0  0  0  0  0  0  0  0  0  0  0  0
   10.2618  -14.7884   30.1499 C   0  0  0  0  0  0  0  0  0  0  0  0
   10.0581  -13.4267   29.9813 C   0  0  0  0  0  0  0  0  0  0  0  0
    9.9077  -12.8768   28.7422 C   0  0  0  0  0  0  0  0  0  0  0  0
    9.9572  -13.6854   27.6132 C   0  0  0  0  0  0  0  0  0  0  0  0
   10.1598  -15.0399   27.7808 C   0  0  0  0  0  0  0  0  0  0  0  0
   10.7107  -18.3347   25.2552 C   0  0  0  0  0  0  0  0  0  0  0  0
    9.4287  -18.8848   25.2714 O   0  0  0  0  0  0  0  0  0  0  0  0
   11.6312  -19.0220   25.7371 O   0  0  0  0  0  0  0  0  0  0  0  0
  2  1  1  1
  3  2  1  0
  4  5  2  0
  4  3  1  0
  6  5  1  0
  7  8  2  0
  7  6  1  0
  8  4  1  0
  9  2  1  0
 10  9  2  0
 11  9  1  0
 12 11  1  0
 12 13  1  1
 13 14  1  0
 14 15  2  0
 15 16  1  0
 17 16  2  0
 18 17  1  0
 19 14  1  0
 19 18  2  0
 20 21  2  0
 20 12  1  0
 22 20  1  0
 23 22  1  0
 23 24  1  1
 24 25  1  0
 25 26  2  0
 25 33  1  0
 26 27  1  0
 27 28  1  0
 28 29  2  0
 29 30  1  0
 31 30  2  0
 32 31  1  0
 33 32  2  0
 33 28  1  0
 34 35  1  0
 34 23  1  0
 36 34  2  0
M  END
$$$$
