HFW.pdb
     RDKit          3D

 36 39  0  0  1  0  0  0  0  0999 V2000
    9.1907  -18.4328   19.4312 N   0  0  0  0  0  0  0  0  0  0  0  0
   10.4805  -18.3779   20.1439 C   0  0  1  0  0  0  0  0  0  0  0  0
   11.5666  -18.4166   19.1033 C   0  0  0  0  0  0  0  0  0  0  0  0
   11.2475  -19.2744   17.9655 C   0  0  0  0  0  0  0  0  0  0  0  0
   11.1120  -20.6641   18.1195 C   0  0  0  0  0  0  0  0  0  0  0  0
   10.8237  -21.1361   16.9018 N   0  0  0  0  0  0  0  0  0  0  0  0
   10.7727  -20.1255   16.0057 C   0  0  0  0  0  0  0  0  0  0  0  0
   11.0332  -19.0016   16.6721 N   0  0  0  0  0  0  0  0  0  0  0  0
   10.5544  -17.0779   20.8857 C   0  0  0  0  0  0  0  0  0  0  0  0
   11.4020  -16.1883   20.6665 O   0  0  0  0  0  0  0  0  0  0  0  0
    9.6052  -16.8031   21.9214 N   0  0  0  0  0  0  0  0  0  0  0  0
    9.6309  -15.5263   22.6079 C   0  0  1  0  0  0  0  0  0  0  0  0
    8.2413  -14.9732   22.8128 C   0  0  0  0  0  0  0  0  0  0  0  0
    7.7764  -14.1478   21.6694 C   0  0  0  0  0  0  0  0  0  0  0  0
    6.9662  -14.7156   20.7062 C   0  0  0  0  0  0  0  0  0  0  0  0
    6.5542  -13.9082   19.6589 C   0  0  0  0  0  0  0  0  0  0  0  0
    6.9312  -12.5750   19.5635 C   0  0  0  0  0  0  0  0  0  0  0  0
    7.7313  -12.0166   20.5158 C   0  0  0  0  0  0  0  0  0  0  0  0
    8.1494  -12.8238   21.5724 C   0  0  0  0  0  0  0  0  0  0  0  0
   10.2449  -15.6517   23.9609 C   0  0  0  0  0  0  0  0  0  0  0  0
   11.2069  -14.9361   24.3426 O   0  0  0  0  0  0  0  0  0  0  0  0
    9.6940  -16.6319   24.8309 N   0  0  0  0  0  0  0  0  0  0  0  0
   10.3030  -16.9727   26.1046 C   0  0  1  0  0  0  0  0  0  0  0  0
    9.8711  -15.8584   27.0680 C   0  0  0  0  0  0  0  0  0  0  0  0
    8.5202  -15.3738   26.7606 C   0  0  0  0  0  0  0  0  0  0  0  0
    7.4057  -16.1359   26.4219 C   0  0  0  0  0  0  0  0  0  0  0  0
    6.3627  -15.3110   26.2163 N   0  0  0  0  0  0  0  0  0  0  0  0
    6.7920  -14.0425   26.4175 C   0  0  0  0  0  0  0  0  0  0  0  0
    6.1306  -12.8345   26.3376 C   0  0  0  0  0  0  0  0  0  0  0  0
    6.8273  -11.6641   26.6004 C   0  0  0  0  0  0  0  0  0  0  0  0
    8.1493  -11.6818   26.9354 C   0  0  0  0  0  0  0  0  0  0  0  0
    8.8279  -12.8915   27.0196 C   0  0  0  0  0  0  0  0  0  0  0  0
    8.1350  -14.0557   26.7582 C   0  0  0  0  0  0  0  0  0  0  0  0
    9.7572  -18.2722   26.5549 C   0  0  0  0  0  0  0  0  0  0  0  0
    8.7757  -18.9572   25.8384 O   0  0  0  0  0  0  0  0  0  0  0  0
   10.1674  -18.8000   27.6062 O   0  0  0  0  0  0  0  0  0  0  0  0
  2  1  1  6
  3  2  1  0
  4  5  2  0
  4  3  1  0
  6  5  1  0
  7  8  2  0
  7  6  1  0
  8  4  1  0
  9  2  1  0
 10  9  2  0
 11  9  1  0
 12 11  1  0
 12 13  1  1
 13 14  1  0
 14 15  2  0
 15 16  1  0
 17 16  2  0
 18 17  1  0
 19 14  1  0
 19 18  2  0
 20 21  2  0
 20 12  1  0
 22 20  1  0
 23 22  1  0
 23 24  1  1
 24 25  1  0
 25 26  2  0
 25 33  1  0
 26 27  1  0
 27 28  1  0
 28 29  2  0
 29 30  1  0
 31 30  2  0
 32 31  1  0
 33 32  2  0
 33 28  1  0
 34 35  1  0
 34 23  1  0
 36 34  2  0
M  END
$$$$
