HFW.pdb
     RDKit          3D

 36 39  0  0  1  0  0  0  0  0999 V2000
    9.5352  -18.5084   19.0206 N   0  0  0  0  0  0  0  0  0  0  0  0
    8.8925  -18.0862   20.2788 C   0  0  1  0  0  0  0  0  0  0  0  0
    8.7509  -19.3118   21.1400 C   0  0  0  0  0  0  0  0  0  0  0  0
    7.6640  -20.1917   20.7198 C   0  0  0  0  0  0  0  0  0  0  0  0
    6.8969  -19.9042   19.5787 C   0  0  0  0  0  0  0  0  0  0  0  0
    6.0043  -20.8956   19.4840 N   0  0  0  0  0  0  0  0  0  0  0  0
    6.1719  -21.7772   20.4947 C   0  0  0  0  0  0  0  0  0  0  0  0
    7.1859  -21.3314   21.2353 N   0  0  0  0  0  0  0  0  0  0  0  0
    9.7947  -17.1044   20.9628 C   0  0  0  0  0  0  0  0  0  0  0  0
   11.0069  -16.9606   20.7022 O   0  0  0  0  0  0  0  0  0  0  0  0
    9.2656  -16.2578   21.9888 N   0  0  0  0  0  0  0  0  0  0  0  0
   10.1103  -15.2558   22.6090 C   0  0  1  0  0  0  0  0  0  0  0  0
    9.5239  -13.8709   22.4781 C   0  0  0  0  0  0  0  0  0  0  0  0
    8.5037  -13.7775   21.4032 C   0  0  0  0  0  0  0  0  0  0  0  0
    7.1685  -13.6771   21.7401 C   0  0  0  0  0  0  0  0  0  0  0  0
    6.2518  -13.5897   20.7054 C   0  0  0  0  0  0  0  0  0  0  0  0
    6.6415  -13.6008   19.3725 C   0  0  0  0  0  0  0  0  0  0  0  0
    7.9606  -13.7001   19.0423 C   0  0  0  0  0  0  0  0  0  0  0  0
    8.8881  -13.7884   20.0789 C   0  0  0  0  0  0  0  0  0  0  0  0
   10.2744  -15.5144   24.0682 C   0  0  0  0  0  0  0  0  0  0  0  0
   10.1343  -14.6180   24.9400 O   0  0  0  0  0  0  0  0  0  0  0  0
   10.6028  -16.8425   24.4550 N   0  0  0  0  0  0  0  0  0  0  0  0
   10.7267  -17.2399   25.8464 C   0  0  1  0  0  0  0  0  0  0  0  0
    9.3450  -16.9814   26.4632 C   0  0  0  0  0  0  0  0  0  0  0  0
    9.3031  -15.6972   27.1726 C   0  0  0  0  0  0  0  0  0  0  0  0
    9.8610  -15.3980   28.4123 C   0  0  0  0  0  0  0  0  0  0  0  0
    9.5979  -14.1116   28.7068 N   0  0  0  0  0  0  0  0  0  0  0  0
    8.8853  -13.5892   27.6806 C   0  0  0  0  0  0  0  0  0  0  0  0
    8.3695  -12.3253   27.4816 C   0  0  0  0  0  0  0  0  0  0  0  0
    7.6671  -12.0582   26.3156 C   0  0  0  0  0  0  0  0  0  0  0  0
    7.4759  -13.0162   25.3637 C   0  0  0  0  0  0  0  0  0  0  0  0
    7.9900  -14.2935   25.5512 C   0  0  0  0  0  0  0  0  0  0  0  0
    8.6886  -14.5592   26.7110 C   0  0  0  0  0  0  0  0  0  0  0  0
   11.0426  -18.6845   25.8973 C   0  0  0  0  0  0  0  0  0  0  0  0
   11.0845  -19.4794   24.7516 O   0  0  0  0  0  0  0  0  0  0  0  0
   11.2846  -19.2408   26.9854 O   0  0  0  0  0  0  0  0  0  0  0  0
  2  1  1  6
  3  2  1  0
  4  5  2  0
  4  3  1  0
  6  5  1  0
  7  8  2  0
  7  6  1  0
  8  4  1  0
  9  2  1  0
 10  9  2  0
 11  9  1  0
 12 11  1  0
 12 13  1  1
 13 14  1  0
 14 15  2  0
 15 16  1  0
 17 16  2  0
 18 17  1  0
 19 14  1  0
 19 18  2  0
 20 21  2  0
 20 12  1  0
 22 20  1  0
 23 22  1  0
 23 24  1  1
 24 25  1  0
 25 26  2  0
 25 33  1  0
 26 27  1  0
 27 28  1  0
 28 29  2  0
 29 30  1  0
 31 30  2  0
 32 31  1  0
 33 32  2  0
 33 28  1  0
 34 35  1  0
 34 23  1  0
 36 34  2  0
M  END
$$$$
