HFW.pdb
     RDKit          3D

 36 39  0  0  1  0  0  0  0  0999 V2000
   10.9810  -17.3048   17.3111 N   0  0  0  0  0  0  0  0  0  0  0  0
   10.8542  -18.2009   18.4754 C   0  0  1  0  0  0  0  0  0  0  0  0
   12.1655  -18.9229   18.6269 C   0  0  0  0  0  0  0  0  0  0  0  0
   12.4783  -19.7969   17.4997 C   0  0  0  0  0  0  0  0  0  0  0  0
   11.8755  -21.0590   17.3703 C   0  0  0  0  0  0  0  0  0  0  0  0
   12.3765  -21.5855   16.2477 N   0  0  0  0  0  0  0  0  0  0  0  0
   13.2507  -20.7280   15.6756 C   0  0  0  0  0  0  0  0  0  0  0  0
   13.2988  -19.6463   16.4521 N   0  0  0  0  0  0  0  0  0  0  0  0
   10.6103  -17.3610   19.6924 C   0  0  0  0  0  0  0  0  0  0  0  0
   11.4572  -16.6016   20.2062 O   0  0  0  0  0  0  0  0  0  0  0  0
    9.3320  -17.4067   20.3351 N   0  0  0  0  0  0  0  0  0  0  0  0
    9.0845  -16.6006   21.5145 C   0  0  1  0  0  0  0  0  0  0  0  0
    7.6097  -16.3580   21.7270 C   0  0  0  0  0  0  0  0  0  0  0  0
    7.3275  -15.0398   22.3494 C   0  0  0  0  0  0  0  0  0  0  0  0
    6.5609  -14.9796   23.4962 C   0  0  0  0  0  0  0  0  0  0  0  0
    6.3251  -13.7296   24.0440 C   0  0  0  0  0  0  0  0  0  0  0  0
    6.8320  -12.5682   23.4758 C   0  0  0  0  0  0  0  0  0  0  0  0
    7.5886  -12.6301   22.3433 C   0  0  0  0  0  0  0  0  0  0  0  0
    7.8297  -13.8852   21.7870 C   0  0  0  0  0  0  0  0  0  0  0  0
    9.5887  -17.2739   22.7456 C   0  0  0  0  0  0  0  0  0  0  0  0
   10.0971  -18.4248   22.7343 O   0  0  0  0  0  0  0  0  0  0  0  0
    9.4744  -16.5549   23.9668 N   0  0  0  0  0  0  0  0  0  0  0  0
   10.5064  -16.5866   24.9883 C   0  0  1  0  0  0  0  0  0  0  0  0
    9.7519  -16.5336   26.3241 C   0  0  0  0  0  0  0  0  0  0  0  0
    8.6791  -15.5323   26.2978 C   0  0  0  0  0  0  0  0  0  0  0  0
    7.3371  -15.7394   25.9915 C   0  0  0  0  0  0  0  0  0  0  0  0
    6.6861  -14.5651   26.0805 N   0  0  0  0  0  0  0  0  0  0  0  0
    7.5864  -13.6183   26.4365 C   0  0  0  0  0  0  0  0  0  0  0  0
    7.4429  -12.2647   26.6609 C   0  0  0  0  0  0  0  0  0  0  0  0
    8.5547  -11.5182   27.0226 C   0  0  0  0  0  0  0  0  0  0  0  0
    9.7842  -12.0924   27.1608 C   0  0  0  0  0  0  0  0  0  0  0  0
    9.9431  -13.4547   26.9379 C   0  0  0  0  0  0  0  0  0  0  0  0
    8.8373  -14.1973   26.5781 C   0  0  0  0  0  0  0  0  0  0  0  0
   11.2442  -17.8639   24.8729 C   0  0  0  0  0  0  0  0  0  0  0  0
   12.4105  -18.1191   25.5945 O   0  0  0  0  0  0  0  0  0  0  0  0
   10.8361  -18.7634   24.1137 O   0  0  0  0  0  0  0  0  0  0  0  0
  2  1  1  6
  3  2  1  0
  4  5  2  0
  4  3  1  0
  6  5  1  0
  7  8  2  0
  7  6  1  0
  8  4  1  0
  9  2  1  0
 10  9  2  0
 11  9  1  0
 12 11  1  0
 12 13  1  1
 13 14  1  0
 14 15  2  0
 15 16  1  0
 17 16  2  0
 18 17  1  0
 19 14  1  0
 19 18  2  0
 20 21  2  0
 20 12  1  0
 22 20  1  0
 23 22  1  0
 23 24  1  1
 24 25  1  0
 25 26  2  0
 25 33  1  0
 26 27  1  0
 27 28  1  0
 28 29  2  0
 29 30  1  0
 31 30  2  0
 32 31  1  0
 33 32  2  0
 33 28  1  0
 34 35  1  0
 34 23  1  0
 36 34  2  0
M  END
$$$$
