KCT.pdb
     RDKit          3D

 23 22  0  0  1  0  0  0  0  0999 V2000
    7.7388  -13.9902   20.1458 N   0  0  0  0  0  0  0  0  0  0  0  0
    7.1760  -14.7029   21.2486 C   0  0  1  0  0  0  0  0  0  0  0  0
    7.1897  -16.1945   21.0460 C   0  0  0  0  0  0  0  0  0  0  0  0
    6.8078  -16.5304   19.6352 C   0  0  0  0  0  0  0  0  0  0  0  0
    6.7925  -18.0067   19.3553 C   0  0  0  0  0  0  0  0  0  0  0  0
    6.4378  -18.2800   17.8930 C   0  0  0  0  0  0  0  0  0  0  0  0
    6.3792  -19.7424   17.7697 N   0  0  0  0  0  0  0  0  0  0  0  0
    7.8913  -14.3298   22.5217 C   0  0  0  0  0  0  0  0  0  0  0  0
    9.1364  -14.3014   22.5765 O   0  0  0  0  0  0  0  0  0  0  0  0
    7.1728  -13.9955   23.7107 N   0  0  0  0  0  0  0  0  0  0  0  0
    7.8064  -13.7562   24.9748 C   0  0  1  0  0  0  0  0  0  0  0  0
    6.9853  -12.8612   25.8755 C   0  0  0  0  0  0  0  0  0  0  0  0
    7.7116  -12.6962   27.5158 S   0  0  0  0  0  0  0  0  0  0  0  0
    8.1165  -15.0550   25.6034 C   0  0  0  0  0  0  0  0  0  0  0  0
    7.2018  -15.8960   25.7789 O   0  0  0  0  0  0  0  0  0  0  0  0
   10.1659  -17.7533   24.4684 C   0  0  0  0  0  0  0  0  0  0  0  0
   10.6975  -17.4778   25.8460 C   0  0  1  0  0  0  0  0  0  0  0  0
   11.9120  -16.8315   25.7159 O   0  0  0  0  0  0  0  0  0  0  0  0
    9.7185  -16.6481   26.6804 C   0  0  2  0  0  0  0  0  0  0  0  0
    9.4398  -15.4052   26.0302 N   0  0  0  0  0  0  0  0  0  0  0  0
   10.2232  -16.4827   28.0613 C   0  0  0  0  0  0  0  0  0  0  0  0
   10.4231  -15.3369   28.5347 O   0  0  0  0  0  0  0  0  0  0  0  0
   10.4925  -17.5697   28.8786 O   0  0  0  0  0  0  0  0  0  0  0  0
  2  8  1  0
  2  1  1  6
  3  2  1  0
  4  3  1  0
  5  4  1  0
  6  5  1  0
  7  6  1  0
  8  9  2  0
 10 11  1  0
 10  8  1  0
 11 12  1  1
 12 13  1  0
 14 11  1  0
 15 14  2  0
 17 16  1  6
 17 19  1  0
 18 17  1  0
 19 20  1  6
 20 14  1  0
 21 23  1  0
 21 19  1  0
 22 21  2  0
M  END
$$$$
