KCT.pdb
     RDKit          3D

 23 22  0  0  1  0  0  0  0  0999 V2000
    6.3252  -15.0109   20.4995 N   0  0  0  0  0  0  0  0  0  0  0  0
    7.6150  -14.5071   20.1483 C   0  0  1  0  0  0  0  0  0  0  0  0
    7.5480  -13.1870   19.4276 C   0  0  0  0  0  0  0  0  0  0  0  0
    8.2911  -13.2670   18.1275 C   0  0  0  0  0  0  0  0  0  0  0  0
    7.6032  -14.1173   17.0970 C   0  0  0  0  0  0  0  0  0  0  0  0
    8.3884  -14.1242   15.7846 C   0  0  0  0  0  0  0  0  0  0  0  0
    7.6648  -15.0456   14.8988 N   0  0  0  0  0  0  0  0  0  0  0  0
    8.4790  -14.4011   21.3787 C   0  0  0  0  0  0  0  0  0  0  0  0
    9.2768  -13.4545   21.5261 O   0  0  0  0  0  0  0  0  0  0  0  0
    8.4176  -15.3776   22.4199 N   0  0  0  0  0  0  0  0  0  0  0  0
    9.2750  -15.3610   23.5693 C   0  0  1  0  0  0  0  0  0  0  0  0
    8.5988  -14.7782   24.7897 C   0  0  0  0  0  0  0  0  0  0  0  0
    6.9038  -14.2705   24.4510 S   0  0  0  0  0  0  0  0  0  0  0  0
    9.7797  -16.7279   23.8044 C   0  0  0  0  0  0  0  0  0  0  0  0
    8.9747  -17.6894   23.8505 O   0  0  0  0  0  0  0  0  0  0  0  0
   12.9304  -18.3874   22.0885 C   0  0  0  0  0  0  0  0  0  0  0  0
   13.0049  -18.5578   23.5790 C   0  0  1  0  0  0  0  0  0  0  0  0
   13.9492  -17.6739   24.0654 O   0  0  0  0  0  0  0  0  0  0  0  0
   11.6461  -18.3354   24.2477 C   0  0  2  0  0  0  0  0  0  0  0  0
   11.1734  -17.0113   23.9858 N   0  0  0  0  0  0  0  0  0  0  0  0
   11.7189  -18.6530   25.6910 C   0  0  0  0  0  0  0  0  0  0  0  0
   11.4822  -17.7696   26.5515 O   0  0  0  0  0  0  0  0  0  0  0  0
   12.0467  -19.9205   26.1472 O   0  0  0  0  0  0  0  0  0  0  0  0
  2  8  1  0
  2  1  1  1
  3  2  1  0
  4  3  1  0
  5  4  1  0
  6  5  1  0
  7  6  1  0
  8  9  2  0
 10 11  1  0
 10  8  1  0
 11 12  1  1
 12 13  1  0
 14 11  1  0
 15 14  2  0
 17 16  1  6
 17 19  1  0
 18 17  1  0
 19 20  1  1
 20 14  1  0
 21 23  1  0
 21 19  1  0
 22 21  2  0
M  END
$$$$
