KCT.pdb
     RDKit          3D

 23 22  0  0  1  0  0  0  0  0999 V2000
   -1.3904  -28.5760   30.3109 N   0  0  0  0  0  0  0  0  0  0  0  0
   -1.9999  -27.5118   29.5784 C   0  0  1  0  0  0  0  0  0  0  0  0
   -2.6009  -27.9704   28.2766 C   0  0  0  0  0  0  0  0  0  0  0  0
   -1.5598  -27.9749   27.1972 C   0  0  0  0  0  0  0  0  0  0  0  0
   -0.8293  -29.2825   27.0766 C   0  0  0  0  0  0  0  0  0  0  0  0
    0.1767  -29.2400   25.9255 C   0  0  0  0  0  0  0  0  0  0  0  0
    0.7408  -30.5938   25.8466 N   0  0  0  0  0  0  0  0  0  0  0  0
   -3.0350  -26.8255   30.4325 C   0  0  0  0  0  0  0  0  0  0  0  0
   -3.9552  -27.4705   30.9724 O   0  0  0  0  0  0  0  0  0  0  0  0
   -3.0018  -25.4146   30.6557 N   0  0  0  0  0  0  0  0  0  0  0  0
   -3.9412  -24.7254   31.4919 C   0  0  1  0  0  0  0  0  0  0  0  0
   -3.3060  -24.1779   32.7500 C   0  0  0  0  0  0  0  0  0  0  0  0
   -4.3315  -22.9252   33.5403 S   0  0  0  0  0  0  0  0  0  0  0  0
   -4.6055  -23.6762   30.6943 C   0  0  0  0  0  0  0  0  0  0  0  0
   -3.9319  -22.7204   30.2386 O   0  0  0  0  0  0  0  0  0  0  0  0
   -6.3646  -23.8832   27.4456 C   0  0  0  0  0  0  0  0  0  0  0  0
   -7.3437  -23.2924   28.4195 C   0  0  1  0  0  0  0  0  0  0  0  0
   -8.2219  -24.2881   28.8027 O   0  0  0  0  0  0  0  0  0  0  0  0
   -6.6417  -22.6795   29.6339 C   0  0  2  0  0  0  0  0  0  0  0  0
   -6.0110  -23.7004   30.4117 N   0  0  0  0  0  0  0  0  0  0  0  0
   -7.5853  -21.8507   30.4161 C   0  0  0  0  0  0  0  0  0  0  0  0
   -8.1110  -20.8300   29.9075 O   0  0  0  0  0  0  0  0  0  0  0  0
   -7.9237  -22.1616   31.7241 O   0  0  0  0  0  0  0  0  0  0  0  0
  2  8  1  0
  2  1  1  1
  3  2  1  0
  4  3  1  0
  5  4  1  0
  6  5  1  0
  7  6  1  0
  8  9  2  0
 10 11  1  0
 10  8  1  0
 11 12  1  1
 12 13  1  0
 14 11  1  0
 15 14  2  0
 17 16  1  6
 17 19  1  0
 18 17  1  0
 19 20  1  1
 20 14  1  0
 21 23  1  0
 21 19  1  0
 22 21  2  0
M  END
$$$$
