KCT.pdb
     RDKit          3D

 23 22  0  0  1  0  0  0  0  0999 V2000
    6.2520  -18.1787   20.4675 N   0  0  0  0  0  0  0  0  0  0  0  0
    7.4607  -17.5809   20.9391 C   0  0  1  0  0  0  0  0  0  0  0  0
    8.0804  -16.6483   19.9328 C   0  0  0  0  0  0  0  0  0  0  0  0
    8.0933  -17.2843   18.5747 C   0  0  0  0  0  0  0  0  0  0  0  0
    9.3930  -17.9625   18.2445 C   0  0  0  0  0  0  0  0  0  0  0  0
    9.3705  -18.5181   16.8198 C   0  0  0  0  0  0  0  0  0  0  0  0
   10.7030  -19.0965   16.6027 N   0  0  0  0  0  0  0  0  0  0  0  0
    7.2082  -16.8686   22.2432 C   0  0  0  0  0  0  0  0  0  0  0  0
    6.5713  -15.7975   22.2794 O   0  0  0  0  0  0  0  0  0  0  0  0
    7.6869  -17.3914   23.4837 N   0  0  0  0  0  0  0  0  0  0  0  0
    7.4367  -16.7695   24.7516 C   0  0  1  0  0  0  0  0  0  0  0  0
    6.4724  -17.5608   25.6061 C   0  0  0  0  0  0  0  0  0  0  0  0
    7.0667  -19.2292   25.9357 S   0  0  0  0  0  0  0  0  0  0  0  0
    8.7274  -16.5362   25.4284 C   0  0  0  0  0  0  0  0  0  0  0  0
    9.7701  -17.0739   24.9831 O   0  0  0  0  0  0  0  0  0  0  0  0
   10.0103  -13.0883   27.1201 C   0  0  0  0  0  0  0  0  0  0  0  0
   10.1320  -14.2554   28.0578 C   0  0  1  0  0  0  0  0  0  0  0  0
    9.1194  -14.1616   28.9934 O   0  0  0  0  0  0  0  0  0  0  0  0
   10.0739  -15.5927   27.3154 C   0  0  2  0  0  0  0  0  0  0  0  0
    8.8453  -15.7077   26.5927 N   0  0  0  0  0  0  0  0  0  0  0  0
   10.3076  -16.7162   28.2494 C   0  0  0  0  0  0  0  0  0  0  0  0
    9.4268  -17.5938   28.4249 O   0  0  0  0  0  0  0  0  0  0  0  0
   11.4913  -16.8453   28.9594 O   0  0  0  0  0  0  0  0  0  0  0  0
  2  8  1  0
  2  1  1  6
  3  2  1  0
  4  3  1  0
  5  4  1  0
  6  5  1  0
  7  6  1  0
  8  9  2  0
 10 11  1  0
 10  8  1  0
 11 12  1  1
 12 13  1  0
 14 11  1  0
 15 14  2  0
 17 16  1  6
 17 19  1  0
 18 17  1  0
 19 20  1  1
 20 14  1  0
 21 23  1  0
 21 19  1  0
 22 21  2  0
M  END
$$$$
