KCT.pdb
     RDKit          3D

 23 22  0  0  1  0  0  0  0  0999 V2000
    8.2740  -16.9180   18.5524 N   0  0  0  0  0  0  0  0  0  0  0  0
    9.2485  -17.6866   19.2597 C   0  0  1  0  0  0  0  0  0  0  0  0
   10.1865  -18.4242   18.3418 C   0  0  0  0  0  0  0  0  0  0  0  0
    9.4938  -19.6066   17.7326 C   0  0  0  0  0  0  0  0  0  0  0  0
   10.3707  -20.4016   16.8068 C   0  0  0  0  0  0  0  0  0  0  0  0
    9.6165  -21.6070   16.2438 C   0  0  0  0  0  0  0  0  0  0  0  0
   10.5219  -22.2114   15.2579 N   0  0  0  0  0  0  0  0  0  0  0  0
   10.0152  -16.7998   20.2071 C   0  0  0  0  0  0  0  0  0  0  0  0
   10.6430  -15.8055   19.7931 O   0  0  0  0  0  0  0  0  0  0  0  0
   10.0519  -17.0632   21.6109 N   0  0  0  0  0  0  0  0  0  0  0  0
   10.7883  -16.2624   22.5453 C   0  0  1  0  0  0  0  0  0  0  0  0
   10.1581  -16.2469   23.9197 C   0  0  0  0  0  0  0  0  0  0  0  0
    8.7552  -15.1204   24.0121 S   0  0  0  0  0  0  0  0  0  0  0  0
   12.1873  -16.7318   22.5730 C   0  0  0  0  0  0  0  0  0  0  0  0
   12.4369  -17.9291   22.8540 O   0  0  0  0  0  0  0  0  0  0  0  0
   14.5666  -15.9338   19.7200 C   0  0  0  0  0  0  0  0  0  0  0  0
   15.3456  -15.7410   20.9897 C   0  0  1  0  0  0  0  0  0  0  0  0
   15.5444  -14.3855   21.1697 O   0  0  0  0  0  0  0  0  0  0  0  0
   14.6332  -16.3583   22.1958 C   0  0  2  0  0  0  0  0  0  0  0  0
   13.2938  -15.8656   22.2882 N   0  0  0  0  0  0  0  0  0  0  0  0
   15.4197  -16.1426   23.4303 C   0  0  0  0  0  0  0  0  0  0  0  0
   16.5867  -16.5951   23.5306 O   0  0  0  0  0  0  0  0  0  0  0  0
   14.9087  -15.4422   24.5121 O   0  0  0  0  0  0  0  0  0  0  0  0
  2  8  1  0
  2  1  1  6
  3  2  1  0
  4  3  1  0
  5  4  1  0
  6  5  1  0
  7  6  1  0
  8  9  2  0
 10 11  1  0
 10  8  1  0
 11 12  1  1
 12 13  1  0
 14 11  1  0
 15 14  2  0
 17 16  1  6
 17 19  1  0
 18 17  1  0
 19 20  1  1
 20 14  1  0
 21 23  1  0
 21 19  1  0
 22 21  2  0
M  END
$$$$
