KCT.pdb
     RDKit          3D

 23 22  0  0  1  0  0  0  0  0999 V2000
    5.3372  -19.7444   21.2792 N   0  0  0  0  0  0  0  0  0  0  0  0
    5.8496  -19.7294   22.6126 C   0  0  1  0  0  0  0  0  0  0  0  0
    6.4112  -21.0606   23.0356 C   0  0  0  0  0  0  0  0  0  0  0  0
    5.3937  -21.8249   23.8289 C   0  0  0  0  0  0  0  0  0  0  0  0
    4.5965  -22.7943   23.0026 C   0  0  0  0  0  0  0  0  0  0  0  0
    3.6351  -23.5963   23.8809 C   0  0  0  0  0  0  0  0  0  0  0  0
    2.9533  -24.5253   22.9703 N   0  0  0  0  0  0  0  0  0  0  0  0
    6.8849  -18.6432   22.7542 C   0  0  0  0  0  0  0  0  0  0  0  0
    7.7416  -18.4504   21.8693 O   0  0  0  0  0  0  0  0  0  0  0  0
    6.9244  -17.7955   23.9037 N   0  0  0  0  0  0  0  0  0  0  0  0
    7.8602  -16.7200   24.0596 C   0  0  1  0  0  0  0  0  0  0  0  0
    7.4589  -15.7550   25.1524 C   0  0  0  0  0  0  0  0  0  0  0  0
    8.7833  -14.6057   25.5653 S   0  0  0  0  0  0  0  0  0  0  0  0
    9.2047  -17.2888   24.2768 C   0  0  0  0  0  0  0  0  0  0  0  0
    9.4439  -17.9391   25.3231 O   0  0  0  0  0  0  0  0  0  0  0  0
   11.2460  -19.6091   22.0163 C   0  0  0  0  0  0  0  0  0  0  0  0
   12.0821  -18.4004   22.3264 C   0  0  1  0  0  0  0  0  0  0  0  0
   12.0749  -17.5773   21.2165 O   0  0  0  0  0  0  0  0  0  0  0  0
   11.5757  -17.6585   23.5658 C   0  0  2  0  0  0  0  0  0  0  0  0
   10.2686  -17.1287   23.3291 N   0  0  0  0  0  0  0  0  0  0  0  0
   12.5520  -16.6317   23.9919 C   0  0  0  0  0  0  0  0  0  0  0  0
   12.2585  -15.4118   23.9406 O   0  0  0  0  0  0  0  0  0  0  0  0
   13.8133  -16.9682   24.4589 O   0  0  0  0  0  0  0  0  0  0  0  0
  2  8  1  0
  2  1  1  6
  3  2  1  0
  4  3  1  0
  5  4  1  0
  6  5  1  0
  7  6  1  0
  8  9  2  0
 10 11  1  0
 10  8  1  0
 11 12  1  1
 12 13  1  0
 14 11  1  0
 15 14  2  0
 17 16  1  6
 17 19  1  0
 18 17  1  0
 19 20  1  6
 20 14  1  0
 21 23  1  0
 21 19  1  0
 22 21  2  0
M  END
$$$$
