KCT.pdb
     RDKit          3D

 23 22  0  0  1  0  0  0  0  0999 V2000
    7.8576  -12.9686   20.0168 N   0  0  0  0  0  0  0  0  0  0  0  0
    7.3411  -14.0608   20.7790 C   0  0  1  0  0  0  0  0  0  0  0  0
    7.4838  -15.3827   20.0729 C   0  0  0  0  0  0  0  0  0  0  0  0
    7.4732  -15.1813   18.5869 C   0  0  0  0  0  0  0  0  0  0  0  0
    7.5392  -16.4654   17.8091 C   0  0  0  0  0  0  0  0  0  0  0  0
    6.5838  -17.5062   18.3945 C   0  0  0  0  0  0  0  0  0  0  0  0
    6.6399  -18.6512   17.4763 N   0  0  0  0  0  0  0  0  0  0  0  0
    8.0037  -14.1034   22.1321 C   0  0  0  0  0  0  0  0  0  0  0  0
    9.2362  -13.9583   22.2507 O   0  0  0  0  0  0  0  0  0  0  0  0
    7.2479  -14.3108   23.3267 N   0  0  0  0  0  0  0  0  0  0  0  0
    7.8376  -14.3775   24.6323 C   0  0  1  0  0  0  0  0  0  0  0  0
    6.9168  -13.8565   25.7126 C   0  0  0  0  0  0  0  0  0  0  0  0
    6.4544  -12.1366   25.4413 S   0  0  0  0  0  0  0  0  0  0  0  0
    8.2739  -15.7645   24.8854 C   0  0  0  0  0  0  0  0  0  0  0  0
    7.4310  -16.6942   24.8743 O   0  0  0  0  0  0  0  0  0  0  0  0
   10.9067  -17.7590   23.0839 C   0  0  0  0  0  0  0  0  0  0  0  0
   11.2393  -17.8350   24.5467 C   0  0  1  0  0  0  0  0  0  0  0  0
   12.3213  -17.0090   24.7843 O   0  0  0  0  0  0  0  0  0  0  0  0
   10.0467  -17.4470   25.4243 C   0  0  2  0  0  0  0  0  0  0  0  0
    9.6421  -16.1035   25.1482 N   0  0  0  0  0  0  0  0  0  0  0  0
   10.3546  -17.6808   26.8524 C   0  0  0  0  0  0  0  0  0  0  0  0
   10.3436  -16.7291   27.6716 O   0  0  0  0  0  0  0  0  0  0  0  0
   10.6636  -18.9416   27.3390 O   0  0  0  0  0  0  0  0  0  0  0  0
  2  8  1  0
  2  1  1  6
  3  2  1  0
  4  3  1  0
  5  4  1  0
  6  5  1  0
  7  6  1  0
  8  9  2  0
 10 11  1  0
 10  8  1  0
 11 12  1  1
 12 13  1  0
 14 11  1  0
 15 14  2  0
 17 16  1  6
 17 19  1  0
 18 17  1  0
 19 20  1  1
 20 14  1  0
 21 23  1  0
 21 19  1  0
 22 21  2  0
M  END
$$$$
