KCT.pdb
     RDKit          3D

 23 22  0  0  1  0  0  0  0  0999 V2000
    7.3174  -17.9381   19.7221 N   0  0  0  0  0  0  0  0  0  0  0  0
    6.6819  -18.0776   20.9939 C   0  0  1  0  0  0  0  0  0  0  0  0
    6.2656  -19.4948   21.2845 C   0  0  0  0  0  0  0  0  0  0  0  0
    5.4591  -20.0431   20.1453 C   0  0  0  0  0  0  0  0  0  0  0  0
    5.1255  -21.5006   20.2959 C   0  0  0  0  0  0  0  0  0  0  0  0
    4.2857  -21.9916   19.1159 C   0  0  0  0  0  0  0  0  0  0  0  0
    4.0542  -23.4202   19.3661 N   0  0  0  0  0  0  0  0  0  0  0  0
    7.5841  -17.5519   22.0808 C   0  0  0  0  0  0  0  0  0  0  0  0
    8.8170  -17.4737   21.9129 O   0  0  0  0  0  0  0  0  0  0  0  0
    7.0635  -17.1245   23.3408 N   0  0  0  0  0  0  0  0  0  0  0  0
    7.8725  -16.5456   24.3738 C   0  0  1  0  0  0  0  0  0  0  0  0
    7.2116  -15.3544   25.0300 C   0  0  0  0  0  0  0  0  0  0  0  0
    8.1501  -14.7487   26.4434 S   0  0  0  0  0  0  0  0  0  0  0  0
    8.2263  -17.5988   25.3454 C   0  0  0  0  0  0  0  0  0  0  0  0
    7.3187  -18.2045   25.9651 O   0  0  0  0  0  0  0  0  0  0  0  0
   10.3502  -20.6716   24.6992 C   0  0  0  0  0  0  0  0  0  0  0  0
   10.9187  -19.9798   25.9052 C   0  0  1  0  0  0  0  0  0  0  0  0
   12.0687  -19.3185   25.5183 O   0  0  0  0  0  0  0  0  0  0  0  0
    9.9131  -19.0135   26.5360 C   0  0  2  0  0  0  0  0  0  0  0  0
    9.5849  -17.9675   25.6177 N   0  0  0  0  0  0  0  0  0  0  0  0
   10.4175  -18.5124   27.8336 C   0  0  0  0  0  0  0  0  0  0  0  0
   10.6161  -17.2851   28.0101 O   0  0  0  0  0  0  0  0  0  0  0  0
   10.6881  -19.3643   28.8934 O   0  0  0  0  0  0  0  0  0  0  0  0
  2  8  1  0
  2  1  1  6
  3  2  1  0
  4  3  1  0
  5  4  1  0
  6  5  1  0
  7  6  1  0
  8  9  2  0
 10 11  1  0
 10  8  1  0
 11 12  1  1
 12 13  1  0
 14 11  1  0
 15 14  2  0
 17 16  1  6
 17 19  1  0
 18 17  1  0
 19 20  1  6
 20 14  1  0
 21 23  1  0
 21 19  1  0
 22 21  2  0
M  END
$$$$
