KCT.pdb
     RDKit          3D

 23 22  0  0  1  0  0  0  0  0999 V2000
    9.0680  -15.2260   20.4953 N   0  0  0  0  0  0  0  0  0  0  0  0
    7.9687  -15.3372   21.4008 C   0  0  1  0  0  0  0  0  0  0  0  0
    7.3993  -16.7296   21.4573 C   0  0  0  0  0  0  0  0  0  0  0  0
    6.9083  -17.1451   20.1026 C   0  0  0  0  0  0  0  0  0  0  0  0
    6.1483  -18.4413   20.1137 C   0  0  0  0  0  0  0  0  0  0  0  0
    5.6403  -18.7867   18.7132 C   0  0  0  0  0  0  0  0  0  0  0  0
    4.8035  -19.9818   18.8824 N   0  0  0  0  0  0  0  0  0  0  0  0
    8.3836  -14.8733   22.7736 C   0  0  0  0  0  0  0  0  0  0  0  0
    9.5725  -14.9370   23.1432 O   0  0  0  0  0  0  0  0  0  0  0  0
    7.4339  -14.3447   23.7011 N   0  0  0  0  0  0  0  0  0  0  0  0
    7.7818  -13.8984   25.0189 C   0  0  1  0  0  0  0  0  0  0  0  0
    6.7990  -12.8890   25.5682 C   0  0  0  0  0  0  0  0  0  0  0  0
    7.1515  -12.4593   27.2819 S   0  0  0  0  0  0  0  0  0  0  0  0
    7.9275  -15.0767   25.8957 C   0  0  0  0  0  0  0  0  0  0  0  0
    6.9136  -15.7423   26.2177 O   0  0  0  0  0  0  0  0  0  0  0  0
    9.3274  -18.2169   25.2950 C   0  0  0  0  0  0  0  0  0  0  0  0
   10.0625  -17.7718   26.5269 C   0  0  1  0  0  0  0  0  0  0  0  0
   11.3309  -17.3740   26.1496 O   0  0  0  0  0  0  0  0  0  0  0  0
    9.3257  -16.6451   27.2555 C   0  0  2  0  0  0  0  0  0  0  0  0
    9.1984  -15.5024   26.4050 N   0  0  0  0  0  0  0  0  0  0  0  0
    9.9855  -16.3411   28.5444 C   0  0  0  0  0  0  0  0  0  0  0  0
   10.3887  -15.1789   28.7965 O   0  0  0  0  0  0  0  0  0  0  0  0
   10.1834  -17.3124   29.5138 O   0  0  0  0  0  0  0  0  0  0  0  0
  2  8  1  0
  2  1  1  6
  3  2  1  0
  4  3  1  0
  5  4  1  0
  6  5  1  0
  7  6  1  0
  8  9  2  0
 10 11  1  0
 10  8  1  0
 11 12  1  1
 12 13  1  0
 14 11  1  0
 15 14  2  0
 17 16  1  6
 17 19  1  0
 18 17  1  0
 19 20  1  6
 20 14  1  0
 21 23  1  0
 21 19  1  0
 22 21  2  0
M  END
$$$$
