KCT.pdb
     RDKit          3D

 23 22  0  0  1  0  0  0  0  0999 V2000
    7.7397  -13.9402   19.8447 N   0  0  0  0  0  0  0  0  0  0  0  0
    7.1909  -14.7112   20.9148 C   0  0  1  0  0  0  0  0  0  0  0  0
    7.0722  -16.1736   20.5777 C   0  0  0  0  0  0  0  0  0  0  0  0
    6.7260  -16.3459   19.1287 C   0  0  0  0  0  0  0  0  0  0  0  0
    6.3150  -17.7473   18.7748 C   0  0  0  0  0  0  0  0  0  0  0  0
    6.0011  -17.8622   17.2825 C   0  0  0  0  0  0  0  0  0  0  0  0
    5.5980  -19.2588   17.0722 N   0  0  0  0  0  0  0  0  0  0  0  0
    8.0114  -14.5156   22.1639 C   0  0  0  0  0  0  0  0  0  0  0  0
    9.2558  -14.5845   22.1347 O   0  0  0  0  0  0  0  0  0  0  0  0
    7.3971  -14.2446   23.4252 N   0  0  0  0  0  0  0  0  0  0  0  0
    8.1247  -14.1768   24.6592 C   0  0  1  0  0  0  0  0  0  0  0  0
    7.3653  -13.4429   25.7413 C   0  0  0  0  0  0  0  0  0  0  0  0
    5.6610  -14.0099   25.8806 S   0  0  0  0  0  0  0  0  0  0  0  0
    8.4998  -15.5455   25.0644 C   0  0  0  0  0  0  0  0  0  0  0  0
    7.6694  -16.4791   24.9478 O   0  0  0  0  0  0  0  0  0  0  0  0
   12.4597  -16.8237   24.9775 C   0  0  0  0  0  0  0  0  0  0  0  0
   11.2466  -17.7094   24.9721 C   0  0  1  0  0  0  0  0  0  0  0  0
   11.6475  -18.9885   25.3079 O   0  0  0  0  0  0  0  0  0  0  0  0
   10.1650  -17.2020   25.9290 C   0  0  2  0  0  0  0  0  0  0  0  0
    9.7938  -15.8619   25.5948 N   0  0  0  0  0  0  0  0  0  0  0  0
   10.6026  -17.3518   27.3344 C   0  0  0  0  0  0  0  0  0  0  0  0
   10.7134  -16.3466   28.0789 O   0  0  0  0  0  0  0  0  0  0  0  0
   10.9042  -18.5899   27.8804 O   0  0  0  0  0  0  0  0  0  0  0  0
  2  8  1  0
  2  1  1  6
  3  2  1  0
  4  3  1  0
  5  4  1  0
  6  5  1  0
  7  6  1  0
  8  9  2  0
 10 11  1  0
 10  8  1  0
 11 12  1  1
 12 13  1  0
 14 11  1  0
 15 14  2  0
 17 16  1  1
 17 19  1  0
 18 17  1  0
 19 20  1  6
 20 14  1  0
 21 23  1  0
 21 19  1  0
 22 21  2  0
M  END
$$$$
