KCT.pdb
     RDKit          3D

 23 22  0  0  1  0  0  0  0  0999 V2000
    8.6351  -14.7567   20.3381 N   0  0  0  0  0  0  0  0  0  0  0  0
    7.7105  -15.0989   21.3719 C   0  0  1  0  0  0  0  0  0  0  0  0
    7.3227  -16.5533   21.3483 C   0  0  0  0  0  0  0  0  0  0  0  0
    8.1037  -17.2819   20.2956 C   0  0  0  0  0  0  0  0  0  0  0  0
    7.2798  -18.2656   19.5135 C   0  0  0  0  0  0  0  0  0  0  0  0
    7.3139  -19.6469   20.1689 C   0  0  0  0  0  0  0  0  0  0  0  0
    6.5570  -20.5273   19.2693 N   0  0  0  0  0  0  0  0  0  0  0  0
    8.2769  -14.7185   22.7159 C   0  0  0  0  0  0  0  0  0  0  0  0
    9.4798  -14.9059   22.9845 O   0  0  0  0  0  0  0  0  0  0  0  0
    7.4603  -14.1306   23.7302 N   0  0  0  0  0  0  0  0  0  0  0  0
    7.9431  -13.8013   25.0399 C   0  0  1  0  0  0  0  0  0  0  0  0
    6.9973  -12.8963   25.7968 C   0  0  0  0  0  0  0  0  0  0  0  0
    7.5158  -12.6454   27.5037 S   0  0  0  0  0  0  0  0  0  0  0  0
    8.2288  -15.0526   25.7686 C   0  0  0  0  0  0  0  0  0  0  0  0
    7.2993  -15.8624   26.0033 O   0  0  0  0  0  0  0  0  0  0  0  0
   10.2675  -17.8846   24.9398 C   0  0  0  0  0  0  0  0  0  0  0  0
   10.7675  -17.4902   26.3002 C   0  0  1  0  0  0  0  0  0  0  0  0
   12.0043  -16.8933   26.1465 O   0  0  0  0  0  0  0  0  0  0  0  0
    9.7906  -16.5564   27.0189 C   0  0  2  0  0  0  0  0  0  0  0  0
    9.5441  -15.3903   26.2286 N   0  0  0  0  0  0  0  0  0  0  0  0
   10.2765  -16.2447   28.3812 C   0  0  0  0  0  0  0  0  0  0  0  0
   10.5072  -15.0578   28.7204 O   0  0  0  0  0  0  0  0  0  0  0  0
   10.4944  -17.2351   29.3265 O   0  0  0  0  0  0  0  0  0  0  0  0
  2  8  1  0
  2  1  1  6
  3  2  1  0
  4  3  1  0
  5  4  1  0
  6  5  1  0
  7  6  1  0
  8  9  2  0
 10 11  1  0
 10  8  1  0
 11 12  1  1
 12 13  1  0
 14 11  1  0
 15 14  2  0
 17 16  1  6
 17 19  1  0
 18 17  1  0
 19 20  1  6
 20 14  1  0
 21 23  1  0
 21 19  1  0
 22 21  2  0
M  END
$$$$
