KCT.pdb
     RDKit          3D

 23 22  0  0  1  0  0  0  0  0999 V2000
    8.5543  -16.0800   16.7901 N   0  0  0  0  0  0  0  0  0  0  0  0
    9.2963  -16.9526   17.6437 C   0  0  1  0  0  0  0  0  0  0  0  0
   10.2531  -17.8337   16.8859 C   0  0  0  0  0  0  0  0  0  0  0  0
   11.2310  -16.9968   16.1162 C   0  0  0  0  0  0  0  0  0  0  0  0
   12.2346  -17.8072   15.3453 C   0  0  0  0  0  0  0  0  0  0  0  0
   13.2590  -16.8993   14.6634 C   0  0  0  0  0  0  0  0  0  0  0  0
   14.2079  -17.8047   14.0023 N   0  0  0  0  0  0  0  0  0  0  0  0
   10.0240  -16.1509   18.6923 C   0  0  0  0  0  0  0  0  0  0  0  0
   10.1815  -14.9205   18.5682 O   0  0  0  0  0  0  0  0  0  0  0  0
   10.5594  -16.7676   19.8646 N   0  0  0  0  0  0  0  0  0  0  0  0
   11.1893  -16.0350   20.9244 C   0  0  1  0  0  0  0  0  0  0  0  0
   10.5737  -16.3232   22.2751 C   0  0  0  0  0  0  0  0  0  0  0  0
   11.5223  -15.5976   23.6239 S   0  0  0  0  0  0  0  0  0  0  0  0
   12.6388  -16.3116   20.8960 C   0  0  0  0  0  0  0  0  0  0  0  0
   13.0468  -17.4981   20.9167 O   0  0  0  0  0  0  0  0  0  0  0  0
   14.9445  -14.5750   18.4406 C   0  0  0  0  0  0  0  0  0  0  0  0
   15.6870  -14.6130   19.7457 C   0  0  1  0  0  0  0  0  0  0  0  0
   15.7604  -13.3229   20.2355 O   0  0  0  0  0  0  0  0  0  0  0  0
   15.0184  -15.5486   20.7560 C   0  0  2  0  0  0  0  0  0  0  0  0
   13.6192  -15.2665   20.8450 N   0  0  0  0  0  0  0  0  0  0  0  0
   15.7100  -15.4827   22.0623 C   0  0  0  0  0  0  0  0  0  0  0  0
   16.9284  -15.7726   22.1546 O   0  0  0  0  0  0  0  0  0  0  0  0
   15.0519  -15.1037   23.2221 O   0  0  0  0  0  0  0  0  0  0  0  0
  2  8  1  0
  2  1  1  6
  3  2  1  0
  4  3  1  0
  5  4  1  0
  6  5  1  0
  7  6  1  0
  8  9  2  0
 10 11  1  0
 10  8  1  0
 11 12  1  1
 12 13  1  0
 14 11  1  0
 15 14  2  0
 17 16  1  6
 17 19  1  0
 18 17  1  0
 19 20  1  1
 20 14  1  0
 21 23  1  0
 21 19  1  0
 22 21  2  0
M  END
$$$$
