KCT.pdb
     RDKit          3D

 23 22  0  0  1  0  0  0  0  0999 V2000
    5.9762  -16.6385   20.8892 N   0  0  0  0  0  0  0  0  0  0  0  0
    7.0900  -15.8770   21.3584 C   0  0  1  0  0  0  0  0  0  0  0  0
    6.8877  -14.3933   21.2038 C   0  0  0  0  0  0  0  0  0  0  0  0
    6.8528  -14.0227   19.7510 C   0  0  0  0  0  0  0  0  0  0  0  0
    8.1798  -13.5586   19.2204 C   0  0  0  0  0  0  0  0  0  0  0  0
    8.0387  -13.0215   17.7954 C   0  0  0  0  0  0  0  0  0  0  0  0
    9.3829  -12.5726   17.4098 N   0  0  0  0  0  0  0  0  0  0  0  0
    7.3868  -16.2293   22.7936 C   0  0  0  0  0  0  0  0  0  0  0  0
    6.4791  -16.2733   23.6470 O   0  0  0  0  0  0  0  0  0  0  0  0
    8.7147  -16.5254   23.2299 N   0  0  0  0  0  0  0  0  0  0  0  0
    9.0301  -16.9608   24.5594 C   0  0  1  0  0  0  0  0  0  0  0  0
    9.9343  -18.1726   24.5744 C   0  0  0  0  0  0  0  0  0  0  0  0
   11.5285  -17.8415   23.8036 S   0  0  0  0  0  0  0  0  0  0  0  0
    9.6004  -15.8238   25.3081 C   0  0  0  0  0  0  0  0  0  0  0  0
   10.4524  -15.0826   24.7608 O   0  0  0  0  0  0  0  0  0  0  0  0
    8.4002  -12.6136   26.6689 C   0  0  0  0  0  0  0  0  0  0  0  0
    8.8736  -13.4269   27.8396 C   0  0  1  0  0  0  0  0  0  0  0  0
    7.7668  -13.9861   28.4494 O   0  0  0  0  0  0  0  0  0  0  0  0
    9.8742  -14.5057   27.4180 C   0  0  2  0  0  0  0  0  0  0  0  0
    9.2178  -15.5230   26.6568 N   0  0  0  0  0  0  0  0  0  0  0  0
   10.5958  -15.0344   28.5966 C   0  0  0  0  0  0  0  0  0  0  0  0
   11.2677  -14.2681   29.3301 O   0  0  0  0  0  0  0  0  0  0  0  0
   10.5608  -16.3783   28.9356 O   0  0  0  0  0  0  0  0  0  0  0  0
  2  8  1  0
  2  1  1  1
  3  2  1  0
  4  3  1  0
  5  4  1  0
  6  5  1  0
  7  6  1  0
  8  9  2  0
 10 11  1  0
 10  8  1  0
 11 12  1  6
 12 13  1  0
 14 11  1  0
 15 14  2  0
 17 16  1  6
 17 19  1  0
 18 17  1  0
 19 20  1  1
 20 14  1  0
 21 23  1  0
 21 19  1  0
 22 21  2  0
M  END
$$$$
