KCT.pdb
     RDKit          3D

 23 22  0  0  1  0  0  0  0  0999 V2000
    3.8269  -19.7983   22.7992 N   0  0  0  0  0  0  0  0  0  0  0  0
    5.2206  -20.0616   22.9696 C   0  0  1  0  0  0  0  0  0  0  0  0
    5.7863  -20.9325   21.8797 C   0  0  0  0  0  0  0  0  0  0  0  0
    5.6204  -22.3804   22.2335 C   0  0  0  0  0  0  0  0  0  0  0  0
    6.3200  -23.3117   21.2842 C   0  0  0  0  0  0  0  0  0  0  0  0
    6.1125  -24.7690   21.6991 C   0  0  0  0  0  0  0  0  0  0  0  0
    6.9026  -25.5640   20.7499 N   0  0  0  0  0  0  0  0  0  0  0  0
    5.9817  -18.7641   23.0661 C   0  0  0  0  0  0  0  0  0  0  0  0
    6.0595  -17.9890   22.0928 O   0  0  0  0  0  0  0  0  0  0  0  0
    6.6409  -18.3738   24.2721 N   0  0  0  0  0  0  0  0  0  0  0  0
    7.4150  -17.1729   24.3955 C   0  0  1  0  0  0  0  0  0  0  0  0
    7.2068  -16.4819   25.7242 C   0  0  0  0  0  0  0  0  0  0  0  0
    8.3420  -15.1029   25.9592 S   0  0  0  0  0  0  0  0  0  0  0  0
    8.8333  -17.4949   24.1447 C   0  0  0  0  0  0  0  0  0  0  0  0
    9.4172  -18.3390   24.8669 O   0  0  0  0  0  0  0  0  0  0  0  0
   10.4995  -17.4237   20.4371 C   0  0  0  0  0  0  0  0  0  0  0  0
   11.3910  -16.7894   21.4661 C   0  0  1  0  0  0  0  0  0  0  0  0
   11.3556  -15.4206   21.2795 O   0  0  0  0  0  0  0  0  0  0  0  0
   10.9737  -17.1622   22.8908 C   0  0  2  0  0  0  0  0  0  0  0  0
    9.5874  -16.8755   23.0943 N   0  0  0  0  0  0  0  0  0  0  0  0
   11.8558  -16.5041   23.8797 C   0  0  0  0  0  0  0  0  0  0  0  0
   11.3720  -15.7774   24.7824 O   0  0  0  0  0  0  0  0  0  0  0  0
   13.2331  -16.6598   23.8518 O   0  0  0  0  0  0  0  0  0  0  0  0
  2  8  1  0
  2  1  1  6
  3  2  1  0
  4  3  1  0
  5  4  1  0
  6  5  1  0
  7  6  1  0
  8  9  2  0
 10 11  1  0
 10  8  1  0
 11 12  1  1
 12 13  1  0
 14 11  1  0
 15 14  2  0
 17 16  1  6
 17 19  1  0
 18 17  1  0
 19 20  1  1
 20 14  1  0
 21 23  1  0
 21 19  1  0
 22 21  2  0
M  END
$$$$
