KCT.pdb
     RDKit          3D

 23 22  0  0  1  0  0  0  0  0999 V2000
    8.4685  -17.5298   16.9622 N   0  0  0  0  0  0  0  0  0  0  0  0
    7.5226  -17.1297   17.9551 C   0  0  1  0  0  0  0  0  0  0  0  0
    6.5144  -18.2038   18.2653 C   0  0  0  0  0  0  0  0  0  0  0  0
    7.2105  -19.4612   18.6934 C   0  0  0  0  0  0  0  0  0  0  0  0
    6.9447  -20.6300   17.7870 C   0  0  0  0  0  0  0  0  0  0  0  0
    7.7029  -21.8705   18.2615 C   0  0  0  0  0  0  0  0  0  0  0  0
    7.5161  -22.8731   17.2047 N   0  0  0  0  0  0  0  0  0  0  0  0
    8.2421  -16.6946   19.2061 C   0  0  0  0  0  0  0  0  0  0  0  0
    9.3845  -17.1169   19.4720 O   0  0  0  0  0  0  0  0  0  0  0  0
    7.6450  -15.7849   20.1320 N   0  0  0  0  0  0  0  0  0  0  0  0
    8.2962  -15.3349   21.3279 C   0  0  1  0  0  0  0  0  0  0  0  0
    7.5423  -14.2186   22.0147 C   0  0  0  0  0  0  0  0  0  0  0  0
    8.3686  -13.6624   23.5157 S   0  0  0  0  0  0  0  0  0  0  0  0
    8.5148  -16.4947   22.2141 C   0  0  0  0  0  0  0  0  0  0  0  0
    7.5426  -17.2135   22.5501 O   0  0  0  0  0  0  0  0  0  0  0  0
   10.2054  -19.6571   21.8971 C   0  0  0  0  0  0  0  0  0  0  0  0
   10.8601  -19.0062   23.0820 C   0  0  1  0  0  0  0  0  0  0  0  0
   12.0893  -18.5196   22.6796 O   0  0  0  0  0  0  0  0  0  0  0  0
    9.9929  -17.8917   23.6727 C   0  0  2  0  0  0  0  0  0  0  0  0
    9.8114  -16.8432   22.7173 N   0  0  0  0  0  0  0  0  0  0  0  0
   10.5574  -17.4190   24.9561 C   0  0  0  0  0  0  0  0  0  0  0  0
   10.8947  -16.2181   25.1010 O   0  0  0  0  0  0  0  0  0  0  0  0
   10.7349  -18.2694   26.0365 O   0  0  0  0  0  0  0  0  0  0  0  0
  2  8  1  0
  2  1  1  6
  3  2  1  0
  4  3  1  0
  5  4  1  0
  6  5  1  0
  7  6  1  0
  8  9  2  0
 10 11  1  0
 10  8  1  0
 11 12  1  1
 12 13  1  0
 14 11  1  0
 15 14  2  0
 17 16  1  6
 17 19  1  0
 18 17  1  0
 19 20  1  6
 20 14  1  0
 21 23  1  0
 21 19  1  0
 22 21  2  0
M  END
$$$$
