KCT.pdb
     RDKit          3D

 23 22  0  0  1  0  0  0  0  0999 V2000
    7.6905  -17.1344   22.2827 N   0  0  0  0  0  0  0  0  0  0  0  0
    8.7507  -16.2261   21.9801 C   0  0  1  0  0  0  0  0  0  0  0  0
    8.6995  -15.7228   20.5623 C   0  0  0  0  0  0  0  0  0  0  0  0
    8.9682  -16.8440   19.6033 C   0  0  0  0  0  0  0  0  0  0  0  0
    7.7216  -17.4224   18.9954 C   0  0  0  0  0  0  0  0  0  0  0  0
    8.0614  -18.5756   18.0501 C   0  0  0  0  0  0  0  0  0  0  0  0
    6.7732  -19.0437   17.5225 N   0  0  0  0  0  0  0  0  0  0  0  0
    8.7387  -15.0773   22.9559 C   0  0  0  0  0  0  0  0  0  0  0  0
    9.5280  -14.1201   22.8337 O   0  0  0  0  0  0  0  0  0  0  0  0
    7.8258  -15.0410   24.0544 N   0  0  0  0  0  0  0  0  0  0  0  0
    7.7037  -13.9217   24.9426 C   0  0  1  0  0  0  0  0  0  0  0  0
    6.3175  -13.7981   25.5338 C   0  0  0  0  0  0  0  0  0  0  0  0
    6.2011  -12.4457   26.7182 S   0  0  0  0  0  0  0  0  0  0  0  0
    8.7504  -14.0219   25.9784 C   0  0  0  0  0  0  0  0  0  0  0  0
    9.1456  -12.9861   26.5664 O   0  0  0  0  0  0  0  0  0  0  0  0
    9.3222  -14.0342   29.1184 C   0  0  0  0  0  0  0  0  0  0  0  0
    9.8953  -15.3631   28.7163 C   0  0  1  0  0  0  0  0  0  0  0  0
    8.9093  -16.3194   28.8680 O   0  0  0  0  0  0  0  0  0  0  0  0
   10.4286  -15.3444   27.2817 C   0  0  2  0  0  0  0  0  0  0  0  0
    9.3465  -15.2720   26.3495 N   0  0  0  0  0  0  0  0  0  0  0  0
   11.3248  -16.4977   27.0453 C   0  0  0  0  0  0  0  0  0  0  0  0
   11.0610  -17.3379   26.1501 O   0  0  0  0  0  0  0  0  0  0  0  0
   12.4764  -16.6964   27.7913 O   0  0  0  0  0  0  0  0  0  0  0  0
  2  8  1  0
  2  1  1  1
  3  2  1  0
  4  3  1  0
  5  4  1  0
  6  5  1  0
  7  6  1  0
  8  9  2  0
 10 11  1  0
 10  8  1  0
 11 12  1  1
 12 13  1  0
 14 11  1  0
 15 14  2  0
 17 16  1  6
 17 19  1  0
 18 17  1  0
 19 20  1  6
 20 14  1  0
 21 23  1  0
 21 19  1  0
 22 21  2  0
M  END
$$$$
