KCT.pdb
     RDKit          3D

 23 22  0  0  1  0  0  0  0  0999 V2000
    6.2817  -16.2823   21.0642 N   0  0  0  0  0  0  0  0  0  0  0  0
    7.3657  -15.5454   21.6321 C   0  0  1  0  0  0  0  0  0  0  0  0
    7.0865  -14.0683   21.7131 C   0  0  0  0  0  0  0  0  0  0  0  0
    7.0323  -13.4740   20.3373 C   0  0  0  0  0  0  0  0  0  0  0  0
    8.3557  -13.4921   19.6256 C   0  0  0  0  0  0  0  0  0  0  0  0
    8.2598  -12.7730   18.2793 C   0  0  0  0  0  0  0  0  0  0  0  0
    9.6043  -12.8542   17.6940 N   0  0  0  0  0  0  0  0  0  0  0  0
    7.7092  -16.0997   22.9910 C   0  0  0  0  0  0  0  0  0  0  0  0
    6.8497  -16.1784   23.8907 O   0  0  0  0  0  0  0  0  0  0  0  0
    9.0279  -16.5548   23.2996 N   0  0  0  0  0  0  0  0  0  0  0  0
    9.3703  -17.2065   24.5303 C   0  0  1  0  0  0  0  0  0  0  0  0
   10.2312  -18.4314   24.3188 C   0  0  0  0  0  0  0  0  0  0  0  0
   11.9835  -18.0236   24.2263 S   0  0  0  0  0  0  0  0  0  0  0  0
   10.0040  -16.2215   25.4284 C   0  0  0  0  0  0  0  0  0  0  0  0
   10.7792  -15.3556   24.9549 O   0  0  0  0  0  0  0  0  0  0  0  0
    9.2734  -13.2840   27.4403 C   0  0  0  0  0  0  0  0  0  0  0  0
    9.7031  -14.3497   28.4077 C   0  0  1  0  0  0  0  0  0  0  0  0
    8.5679  -14.9044   28.9673 O   0  0  0  0  0  0  0  0  0  0  0  0
   10.5639  -15.4203   27.7324 C   0  0  2  0  0  0  0  0  0  0  0  0
    9.7695  -16.2093   26.8428 N   0  0  0  0  0  0  0  0  0  0  0  0
   11.2793  -16.2271   28.7455 C   0  0  0  0  0  0  0  0  0  0  0  0
   11.0939  -17.4667   28.8212 O   0  0  0  0  0  0  0  0  0  0  0  0
   12.1713  -15.6567   29.6406 O   0  0  0  0  0  0  0  0  0  0  0  0
  2  8  1  0
  2  1  1  1
  3  2  1  0
  4  3  1  0
  5  4  1  0
  6  5  1  0
  7  6  1  0
  8  9  2  0
 10 11  1  0
 10  8  1  0
 11 12  1  6
 12 13  1  0
 14 11  1  0
 15 14  2  0
 17 16  1  6
 17 19  1  0
 18 17  1  0
 19 20  1  1
 20 14  1  0
 21 23  1  0
 21 19  1  0
 22 21  2  0
M  END
$$$$
