IYN.pdb
     RDKit          3D

 29 29  0  0  1  0  0  0  0  0999 V2000
    7.9372  -12.1588   20.1273 C   0  0  0  0  0  0  0  0  0  0  0  0
    7.8955  -13.5236   20.7687 C   0  0  0  0  0  0  0  0  0  0  0  0
    8.8583  -14.5022   20.1332 C   0  0  2  0  0  0  0  0  0  0  0  0
    8.5463  -14.6124   18.6812 C   0  0  0  0  0  0  0  0  0  0  0  0
    8.7818  -15.7918   20.8968 C   0  0  2  0  0  0  0  0  0  0  0  0
    7.4347  -16.3063   20.7090 N   0  0  0  0  0  0  0  0  0  0  0  0
    9.0621  -15.6239   22.3451 C   0  0  0  0  0  0  0  0  0  0  0  0
   10.1818  -15.2147   22.7613 O   0  0  0  0  0  0  0  0  0  0  0  0
    6.5266   -9.8655   26.7991 O   0  0  0  0  0  0  0  0  0  0  0  0
    6.6232  -11.2158   26.4420 C   0  0  0  0  0  0  0  0  0  0  0  0
    5.5062  -11.9214   26.1186 C   0  0  0  0  0  0  0  0  0  0  0  0
    5.5823  -13.2650   25.7610 C   0  0  0  0  0  0  0  0  0  0  0  0
    6.7711  -13.9308   25.7178 C   0  0  0  0  0  0  0  0  0  0  0  0
    6.9744  -15.3282   25.3439 C   0  0  0  0  0  0  0  0  0  0  0  0
    8.2782  -15.7195   24.7449 C   0  0  2  0  0  0  0  0  0  0  0  0
    8.0667  -15.9244   23.2739 N   0  0  0  0  0  0  0  0  0  0  0  0
    8.9711  -16.8818   25.2789 C   0  0  0  0  0  0  0  0  0  0  0  0
    9.4213  -16.8280   26.4655 O   0  0  0  0  0  0  0  0  0  0  0  0
    7.8939  -13.1783   26.0550 C   0  0  0  0  0  0  0  0  0  0  0  0
    7.8373  -11.8566   26.4093 C   0  0  0  0  0  0  0  0  0  0  0  0
    7.0888  -20.4416   26.7241 N   0  0  0  0  0  0  0  0  0  0  0  0
    7.5560  -20.2395   25.3806 C   0  0  0  0  0  0  0  0  0  0  0  0
    6.6980  -19.8955   24.5477 O   0  0  0  0  0  0  0  0  0  0  0  0
    8.9574  -20.4274   25.0139 C   0  0  0  0  0  0  0  0  0  0  0  0
    9.8091  -19.1868   25.2735 C   0  0  2  0  0  0  0  0  0  0  0  0
    9.1605  -18.0664   24.5517 N   0  0  0  0  0  0  0  0  0  0  0  0
   11.1802  -19.3362   24.7835 C   0  0  0  0  0  0  0  0  0  0  0  0
   11.6866  -18.6023   23.8783 O   0  0  0  0  0  0  0  0  0  0  0  0
   11.9884  -20.3350   25.3338 O   0  0  0  0  0  0  0  0  0  0  0  0
  2  1  1  0
  3  5  1  0
  3  2  1  0
  3  4  1  6
  5  6  1  1
  7  5  1  0
  7 16  1  0
  8  7  2  0
  9 10  1  0
 10 20  2  0
 10 11  1  0
 11 12  2  0
 12 13  1  0
 13 14  1  0
 15 14  1  1
 15 16  1  0
 17 15  1  0
 18 17  2  0
 19 13  2  0
 20 19  1  0
 21 22  1  0
 22 24  1  0
 23 22  2  0
 25 24  1  6
 25 26  1  0
 25 27  1  0
 26 17  1  0
 27 29  1  0
 28 27  2  0
M  END
$$$$
