IYN.pdb
     RDKit          3D

 29 29  0  0  1  0  0  0  0  0999 V2000
    7.3239  -12.6093   18.2444 C   0  0  0  0  0  0  0  0  0  0  0  0
    7.0405  -13.7088   19.2375 C   0  0  0  0  0  0  0  0  0  0  0  0
    7.7555  -13.5100   20.5557 C   0  0  2  0  0  0  0  0  0  0  0  0
    9.2123  -13.3449   20.2945 C   0  0  0  0  0  0  0  0  0  0  0  0
    7.3997  -14.6575   21.4551 C   0  0  2  0  0  0  0  0  0  0  0  0
    5.9618  -14.5924   21.6623 N   0  0  0  0  0  0  0  0  0  0  0  0
    8.1022  -14.6072   22.7621 C   0  0  0  0  0  0  0  0  0  0  0  0
    7.8431  -13.7189   23.6211 O   0  0  0  0  0  0  0  0  0  0  0  0
   10.9443  -15.0244   30.7446 O   0  0  0  0  0  0  0  0  0  0  0  0
   10.4509  -15.1323   29.4388 C   0  0  0  0  0  0  0  0  0  0  0  0
   10.3294  -16.3526   28.8501 C   0  0  0  0  0  0  0  0  0  0  0  0
    9.8409  -16.4800   27.5525 C   0  0  0  0  0  0  0  0  0  0  0  0
    9.4638  -15.3958   26.8170 C   0  0  0  0  0  0  0  0  0  0  0  0
    8.9252  -15.4082   25.4592 C   0  0  0  0  0  0  0  0  0  0  0  0
    9.8762  -15.5066   24.3200 C   0  0  2  0  0  0  0  0  0  0  0  0
    9.0741  -15.5635   23.0535 N   0  0  0  0  0  0  0  0  0  0  0  0
   10.8395  -16.5965   24.3067 C   0  0  0  0  0  0  0  0  0  0  0  0
   10.4739  -17.7243   23.8505 O   0  0  0  0  0  0  0  0  0  0  0  0
    9.6017  -14.1627   27.4502 C   0  0  0  0  0  0  0  0  0  0  0  0
   10.0805  -14.0191   28.7253 C   0  0  0  0  0  0  0  0  0  0  0  0
   13.6124  -17.9044   21.2391 N   0  0  0  0  0  0  0  0  0  0  0  0
   13.2123  -16.5259   21.2998 C   0  0  0  0  0  0  0  0  0  0  0  0
   13.0961  -15.9401   20.2083 O   0  0  0  0  0  0  0  0  0  0  0  0
   12.9569  -15.8512   22.5700 C   0  0  0  0  0  0  0  0  0  0  0  0
   13.2304  -16.7423   23.7796 C   0  0  2  0  0  0  0  0  0  0  0  0
   12.1587  -16.4636   24.7648 N   0  0  0  0  0  0  0  0  0  0  0  0
   14.5274  -16.4643   24.3982 C   0  0  0  0  0  0  0  0  0  0  0  0
   15.5137  -17.2639   24.3518 O   0  0  0  0  0  0  0  0  0  0  0  0
   14.7055  -15.2563   25.0786 O   0  0  0  0  0  0  0  0  0  0  0  0
  2  1  1  0
  3  5  1  0
  3  2  1  0
  3  4  1  6
  5  6  1  1
  7  5  1  0
  7 16  1  0
  8  7  2  0
  9 10  1  0
 10 20  2  0
 10 11  1  0
 11 12  2  0
 12 13  1  0
 13 14  1  0
 15 14  1  1
 15 16  1  0
 17 15  1  0
 18 17  2  0
 19 13  2  0
 20 19  1  0
 21 22  1  0
 22 24  1  0
 23 22  2  0
 25 24  1  6
 25 26  1  0
 25 27  1  0
 26 17  1  0
 27 29  1  0
 28 27  2  0
M  END
$$$$
