IYN.pdb
     RDKit          3D

 29 29  0  0  1  0  0  0  0  0999 V2000
    7.0869  -13.2311   16.8264 C   0  0  0  0  0  0  0  0  0  0  0  0
    7.7912  -14.3221   17.5940 C   0  0  0  0  0  0  0  0  0  0  0  0
    8.0561  -13.9502   19.0362 C   0  0  2  0  0  0  0  0  0  0  0  0
    8.8589  -12.6964   19.0718 C   0  0  0  0  0  0  0  0  0  0  0  0
    8.6937  -15.1294   19.7107 C   0  0  2  0  0  0  0  0  0  0  0  0
    7.7087  -16.1991   19.6958 N   0  0  0  0  0  0  0  0  0  0  0  0
    9.1083  -14.8425   21.1071 C   0  0  0  0  0  0  0  0  0  0  0  0
   10.1829  -14.2333   21.3686 O   0  0  0  0  0  0  0  0  0  0  0  0
    7.2543  -12.6852   29.5727 O   0  0  0  0  0  0  0  0  0  0  0  0
    7.2500  -13.1017   28.2360 C   0  0  0  0  0  0  0  0  0  0  0  0
    7.3094  -12.1858   27.2320 C   0  0  0  0  0  0  0  0  0  0  0  0
    7.3061  -12.5807   25.8968 C   0  0  0  0  0  0  0  0  0  0  0  0
    7.2444  -13.8940   25.5360 C   0  0  0  0  0  0  0  0  0  0  0  0
    7.2503  -14.4253   24.1754 C   0  0  0  0  0  0  0  0  0  0  0  0
    8.5526  -14.8141   23.5716 C   0  0  2  0  0  0  0  0  0  0  0  0
    8.2936  -15.2543   22.1610 N   0  0  0  0  0  0  0  0  0  0  0  0
    9.3532  -15.8321   24.2341 C   0  0  0  0  0  0  0  0  0  0  0  0
    9.8082  -15.5866   25.3945 O   0  0  0  0  0  0  0  0  0  0  0  0
    7.1844  -14.8042   26.5889 C   0  0  0  0  0  0  0  0  0  0  0  0
    7.1862  -14.4334   27.9073 C   0  0  0  0  0  0  0  0  0  0  0  0
   12.8338  -18.9723   22.7777 N   0  0  0  0  0  0  0  0  0  0  0  0
   13.0299  -18.0508   23.8623 C   0  0  0  0  0  0  0  0  0  0  0  0
   14.1764  -18.0068   24.3438 O   0  0  0  0  0  0  0  0  0  0  0  0
   11.9456  -17.2143   24.3706 C   0  0  0  0  0  0  0  0  0  0  0  0
   10.6009  -17.9375   24.3947 C   0  0  2  0  0  0  0  0  0  0  0  0
    9.6423  -17.0788   23.6595 N   0  0  0  0  0  0  0  0  0  0  0  0
   10.1026  -18.1482   25.7546 C   0  0  0  0  0  0  0  0  0  0  0  0
   10.1438  -17.2611   26.6633 O   0  0  0  0  0  0  0  0  0  0  0  0
    9.5465  -19.3874   26.0852 O   0  0  0  0  0  0  0  0  0  0  0  0
  2  1  1  0
  3  5  1  0
  3  2  1  0
  3  4  1  6
  5  6  1  1
  7  5  1  0
  7 16  1  0
  8  7  2  0
  9 10  1  0
 10 20  2  0
 10 11  1  0
 11 12  2  0
 12 13  1  0
 13 14  1  0
 15 14  1  1
 15 16  1  0
 17 15  1  0
 18 17  2  0
 19 13  2  0
 20 19  1  0
 21 22  1  0
 22 24  1  0
 23 22  2  0
 25 24  1  1
 25 26  1  0
 25 27  1  0
 26 17  1  0
 27 29  1  0
 28 27  2  0
M  END
$$$$
