IYN.pdb
     RDKit          3D

 29 29  0  0  1  0  0  0  0  0999 V2000
    7.7973  -12.2461   18.4440 C   0  0  0  0  0  0  0  0  0  0  0  0
    7.8618  -13.5698   19.1645 C   0  0  0  0  0  0  0  0  0  0  0  0
    8.8583  -14.5271   18.5487 C   0  0  2  0  0  0  0  0  0  0  0  0
    8.4172  -14.8595   17.1657 C   0  0  0  0  0  0  0  0  0  0  0  0
    9.0006  -15.7047   19.4680 C   0  0  2  0  0  0  0  0  0  0  0  0
    7.7568  -16.4529   19.3800 N   0  0  0  0  0  0  0  0  0  0  0  0
    9.2561  -15.3113   20.8766 C   0  0  0  0  0  0  0  0  0  0  0  0
   10.3405  -14.7682   21.2278 O   0  0  0  0  0  0  0  0  0  0  0  0
    6.7715  -12.0823   28.8160 O   0  0  0  0  0  0  0  0  0  0  0  0
    6.8652  -12.6969   27.5616 C   0  0  0  0  0  0  0  0  0  0  0  0
    6.8052  -14.0517   27.4554 C   0  0  0  0  0  0  0  0  0  0  0  0
    6.8966  -14.6810   26.2167 C   0  0  0  0  0  0  0  0  0  0  0  0
    7.0488  -13.9741   25.0611 C   0  0  0  0  0  0  0  0  0  0  0  0
    7.1400  -14.5216   23.7099 C   0  0  0  0  0  0  0  0  0  0  0  0
    8.4421  -15.0795   23.2571 C   0  0  2  0  0  0  0  0  0  0  0  0
    8.2765  -15.5453   21.8407 N   0  0  0  0  0  0  0  0  0  0  0  0
    9.0482  -16.1530   24.0292 C   0  0  0  0  0  0  0  0  0  0  0  0
    8.6638  -17.3451   23.8171 O   0  0  0  0  0  0  0  0  0  0  0  0
    7.1068  -12.5899   25.2067 C   0  0  0  0  0  0  0  0  0  0  0  0
    7.0189  -11.9545   26.4167 C   0  0  0  0  0  0  0  0  0  0  0  0
   13.0150  -17.4742   22.9696 N   0  0  0  0  0  0  0  0  0  0  0  0
   12.3338  -18.0160   24.1126 C   0  0  0  0  0  0  0  0  0  0  0  0
   11.9805  -19.2060   24.0271 O   0  0  0  0  0  0  0  0  0  0  0  0
   12.0711  -17.2157   25.3060 C   0  0  0  0  0  0  0  0  0  0  0  0
   10.5870  -17.1483   25.6592 C   0  0  2  0  0  0  0  0  0  0  0  0
   10.0452  -15.9403   24.9928 N   0  0  0  0  0  0  0  0  0  0  0  0
   10.3588  -17.0375   27.1006 C   0  0  0  0  0  0  0  0  0  0  0  0
   10.1674  -18.0376   27.8606 O   0  0  0  0  0  0  0  0  0  0  0  0
   10.3501  -15.7686   27.6869 O   0  0  0  0  0  0  0  0  0  0  0  0
  2  1  1  0
  3  5  1  0
  3  2  1  0
  3  4  1  6
  5  6  1  1
  7  5  1  0
  7 16  1  0
  8  7  2  0
  9 10  1  0
 10 20  2  0
 10 11  1  0
 11 12  2  0
 12 13  1  0
 13 14  1  0
 15 14  1  1
 15 16  1  0
 17 15  1  0
 18 17  2  0
 19 13  2  0
 20 19  1  0
 21 22  1  0
 22 24  1  0
 23 22  2  0
 25 24  1  1
 25 26  1  0
 25 27  1  0
 26 17  1  0
 27 29  1  0
 28 27  2  0
M  END
$$$$
