IYN.pdb
     RDKit          3D

 29 29  0  0  1  0  0  0  0  0999 V2000
    6.9805  -15.9628   17.1898 C   0  0  0  0  0  0  0  0  0  0  0  0
    6.7879  -14.9155   18.2582 C   0  0  0  0  0  0  0  0  0  0  0  0
    7.8652  -14.9524   19.3196 C   0  0  2  0  0  0  0  0  0  0  0  0
    8.0471  -16.3588   19.7741 C   0  0  0  0  0  0  0  0  0  0  0  0
    7.4867  -13.9819   20.3999 C   0  0  2  0  0  0  0  0  0  0  0  0
    7.4537  -12.6656   19.7827 N   0  0  0  0  0  0  0  0  0  0  0  0
    8.4396  -13.9834   21.5384 C   0  0  0  0  0  0  0  0  0  0  0  0
    9.5539  -13.3932   21.4721 O   0  0  0  0  0  0  0  0  0  0  0  0
   10.4299  -15.0618   30.2694 O   0  0  0  0  0  0  0  0  0  0  0  0
    9.8643  -14.9248   28.9960 C   0  0  0  0  0  0  0  0  0  0  0  0
    9.3803  -16.0135   28.3397 C   0  0  0  0  0  0  0  0  0  0  0  0
    8.8143  -15.8971   27.0729 C   0  0  0  0  0  0  0  0  0  0  0  0
    8.7189  -14.6954   26.4361 C   0  0  0  0  0  0  0  0  0  0  0  0
    8.1340  -14.4502   25.1203 C   0  0  0  0  0  0  0  0  0  0  0  0
    8.9932  -14.6239   23.9188 C   0  0  2  0  0  0  0  0  0  0  0  0
    8.1002  -14.6523   22.7137 N   0  0  0  0  0  0  0  0  0  0  0  0
    9.8869  -15.7701   23.8593 C   0  0  0  0  0  0  0  0  0  0  0  0
    9.4210  -16.8832   23.4621 O   0  0  0  0  0  0  0  0  0  0  0  0
    9.2243  -13.6025   27.1366 C   0  0  0  0  0  0  0  0  0  0  0  0
    9.7844  -13.6988   28.3826 C   0  0  0  0  0  0  0  0  0  0  0  0
   13.6741  -15.0741   21.5501 N   0  0  0  0  0  0  0  0  0  0  0  0
   13.2891  -16.3482   22.0909 C   0  0  0  0  0  0  0  0  0  0  0  0
   12.8882  -17.1934   21.2705 O   0  0  0  0  0  0  0  0  0  0  0  0
   13.3639  -16.6344   23.5214 C   0  0  0  0  0  0  0  0  0  0  0  0
   12.0053  -16.9765   24.1289 C   0  0  2  0  0  0  0  0  0  0  0  0
   11.2436  -15.7075   24.2103 N   0  0  0  0  0  0  0  0  0  0  0  0
   12.1199  -17.5478   25.4714 C   0  0  0  0  0  0  0  0  0  0  0  0
   11.6618  -16.9865   26.5153 O   0  0  0  0  0  0  0  0  0  0  0  0
   12.7642  -18.7784   25.6285 O   0  0  0  0  0  0  0  0  0  0  0  0
  2  1  1  0
  3  5  1  0
  3  2  1  0
  3  4  1  1
  5  6  1  6
  7  5  1  0
  7 16  1  0
  8  7  2  0
  9 10  1  0
 10 20  2  0
 10 11  1  0
 11 12  2  0
 12 13  1  0
 13 14  1  0
 15 14  1  1
 15 16  1  0
 17 15  1  0
 18 17  2  0
 19 13  2  0
 20 19  1  0
 21 22  1  0
 22 24  1  0
 23 22  2  0
 25 24  1  1
 25 26  1  0
 25 27  1  0
 26 17  1  0
 27 29  1  0
 28 27  2  0
M  END
$$$$
