IYN.pdb
     RDKit          3D

 29 29  0  0  1  0  0  0  0  0999 V2000
    7.6707  -12.6654   18.4166 C   0  0  0  0  0  0  0  0  0  0  0  0
    7.8930  -13.8886   19.2709 C   0  0  0  0  0  0  0  0  0  0  0  0
    9.0449  -14.7422   18.7883 C   0  0  2  0  0  0  0  0  0  0  0  0
    8.7176  -15.2753   17.4369 C   0  0  0  0  0  0  0  0  0  0  0  0
    9.3188  -15.7859   19.8313 C   0  0  2  0  0  0  0  0  0  0  0  0
    8.2078  -16.7229   19.7830 N   0  0  0  0  0  0  0  0  0  0  0  0
    9.4440  -15.2191   21.1978 C   0  0  0  0  0  0  0  0  0  0  0  0
   10.4571  -14.5528   21.5497 O   0  0  0  0  0  0  0  0  0  0  0  0
    6.2262  -11.7067   28.7752 O   0  0  0  0  0  0  0  0  0  0  0  0
    6.4505  -12.3290   27.5412 C   0  0  0  0  0  0  0  0  0  0  0  0
    7.2290  -11.7283   26.6015 C   0  0  0  0  0  0  0  0  0  0  0  0
    7.4635  -12.3316   25.3686 C   0  0  0  0  0  0  0  0  0  0  0  0
    6.9282  -13.5439   25.0485 C   0  0  0  0  0  0  0  0  0  0  0  0
    7.1164  -14.2773   23.7994 C   0  0  0  0  0  0  0  0  0  0  0  0
    8.4660  -14.8220   23.4932 C   0  0  2  0  0  0  0  0  0  0  0  0
    8.4191  -15.4250   22.1203 N   0  0  0  0  0  0  0  0  0  0  0  0
    9.0504  -15.7929   24.4051 C   0  0  0  0  0  0  0  0  0  0  0  0
    9.1663  -15.4812   25.6311 O   0  0  0  0  0  0  0  0  0  0  0  0
    6.1365  -14.1301   26.0335 C   0  0  0  0  0  0  0  0  0  0  0  0
    5.8951  -13.5509   27.2508 C   0  0  0  0  0  0  0  0  0  0  0  0
   11.3610  -21.2949   24.9753 N   0  0  0  0  0  0  0  0  0  0  0  0
   10.4632  -20.3250   25.5387 C   0  0  0  0  0  0  0  0  0  0  0  0
   10.3265  -20.3575   26.7750 O   0  0  0  0  0  0  0  0  0  0  0  0
    9.7518  -19.3569   24.7077 C   0  0  0  0  0  0  0  0  0  0  0  0
   10.1080  -17.9110   25.0459 C   0  0  2  0  0  0  0  0  0  0  0  0
    9.4860  -17.0636   24.0009 N   0  0  0  0  0  0  0  0  0  0  0  0
   11.5526  -17.6762   25.0492 C   0  0  0  0  0  0  0  0  0  0  0  0
   12.2637  -17.6570   23.9964 O   0  0  0  0  0  0  0  0  0  0  0  0
   12.1980  -17.4576   26.2697 O   0  0  0  0  0  0  0  0  0  0  0  0
  2  1  1  0
  3  5  1  0
  3  2  1  0
  3  4  1  6
  5  6  1  1
  7  5  1  0
  7 16  1  0
  8  7  2  0
  9 10  1  0
 10 20  2  0
 10 11  1  0
 11 12  2  0
 12 13  1  0
 13 14  1  0
 15 14  1  1
 15 16  1  0
 17 15  1  0
 18 17  2  0
 19 13  2  0
 20 19  1  0
 21 22  1  0
 22 24  1  0
 23 22  2  0
 25 24  1  6
 25 26  1  0
 25 27  1  0
 26 17  1  0
 27 29  1  0
 28 27  2  0
M  END
$$$$
