IYN.pdb
     RDKit          3D

 29 29  0  0  1  0  0  0  0  0999 V2000
    6.4615  -12.5574   18.3619 C   0  0  0  0  0  0  0  0  0  0  0  0
    6.9695  -13.8543   18.9412 C   0  0  0  0  0  0  0  0  0  0  0  0
    7.7303  -13.6631   20.2347 C   0  0  2  0  0  0  0  0  0  0  0  0
    8.7835  -12.6309   20.0273 C   0  0  0  0  0  0  0  0  0  0  0  0
    8.2370  -15.0042   20.6785 C   0  0  2  0  0  0  0  0  0  0  0  0
    7.0655  -15.8196   20.9564 N   0  0  0  0  0  0  0  0  0  0  0  0
    9.0978  -14.9267   21.8857 C   0  0  0  0  0  0  0  0  0  0  0  0
   10.2776  -14.4802   21.8320 O   0  0  0  0  0  0  0  0  0  0  0  0
   10.7257  -15.2020   30.7519 O   0  0  0  0  0  0  0  0  0  0  0  0
   10.1977  -15.1727   29.4555 C   0  0  0  0  0  0  0  0  0  0  0  0
    9.7778  -16.3212   28.8597 C   0  0  0  0  0  0  0  0  0  0  0  0
    9.2500  -16.3120   27.5713 C   0  0  0  0  0  0  0  0  0  0  0  0
    9.1297  -15.1600   26.8522 C   0  0  0  0  0  0  0  0  0  0  0  0
    8.5797  -15.0265   25.5056 C   0  0  0  0  0  0  0  0  0  0  0  0
    9.4469  -15.3724   24.3479 C   0  0  2  0  0  0  0  0  0  0  0  0
    8.5951  -15.3566   23.1130 N   0  0  0  0  0  0  0  0  0  0  0  0
   10.1901  -16.6224   24.3812 C   0  0  0  0  0  0  0  0  0  0  0  0
    9.5763  -17.7011   24.1103 O   0  0  0  0  0  0  0  0  0  0  0  0
    9.5693  -14.0035   27.4924 C   0  0  0  0  0  0  0  0  0  0  0  0
   10.0912  -13.9943   28.7586 C   0  0  0  0  0  0  0  0  0  0  0  0
   13.9633  -19.7637   22.1321 N   0  0  0  0  0  0  0  0  0  0  0  0
   13.2271  -18.6035   22.5514 C   0  0  0  0  0  0  0  0  0  0  0  0
   12.4218  -18.1370   21.7255 O   0  0  0  0  0  0  0  0  0  0  0  0
   13.4137  -18.0059   23.8713 C   0  0  0  0  0  0  0  0  0  0  0  0
   12.1505  -18.0550   24.7277 C   0  0  2  0  0  0  0  0  0  0  0  0
   11.5567  -16.6975   24.6891 N   0  0  0  0  0  0  0  0  0  0  0  0
   12.4309  -18.4105   26.1195 C   0  0  0  0  0  0  0  0  0  0  0  0
   13.1023  -17.6770   26.9104 O   0  0  0  0  0  0  0  0  0  0  0  0
   11.9377  -19.6190   26.6199 O   0  0  0  0  0  0  0  0  0  0  0  0
  2  1  1  0
  3  5  1  0
  3  2  1  0
  3  4  1  6
  5  6  1  1
  7  5  1  0
  7 16  1  0
  8  7  2  0
  9 10  1  0
 10 20  2  0
 10 11  1  0
 11 12  2  0
 12 13  1  0
 13 14  1  0
 15 14  1  1
 15 16  1  0
 17 15  1  0
 18 17  2  0
 19 13  2  0
 20 19  1  0
 21 22  1  0
 22 24  1  0
 23 22  2  0
 25 24  1  6
 25 26  1  0
 25 27  1  0
 26 17  1  0
 27 29  1  0
 28 27  2  0
M  END
$$$$
