IYN.pdb
     RDKit          3D

 29 29  0  0  1  0  0  0  0  0999 V2000
    7.5539  -11.8963   20.6415 C   0  0  0  0  0  0  0  0  0  0  0  0
    7.7935  -13.3270   21.0553 C   0  0  0  0  0  0  0  0  0  0  0  0
    8.7119  -14.0676   20.1084 C   0  0  2  0  0  0  0  0  0  0  0  0
    8.1100  -14.0587   18.7463 C   0  0  0  0  0  0  0  0  0  0  0  0
    8.9659  -15.4321   20.6794 C   0  0  2  0  0  0  0  0  0  0  0  0
    7.6930  -16.1349   20.6576 N   0  0  0  0  0  0  0  0  0  0  0  0
    9.4969  -15.3894   22.0652 C   0  0  0  0  0  0  0  0  0  0  0  0
   10.5721  -14.7899   22.3458 O   0  0  0  0  0  0  0  0  0  0  0  0
    6.1635  -10.5797   26.4845 O   0  0  0  0  0  0  0  0  0  0  0  0
    6.6014  -11.8809   26.2101 C   0  0  0  0  0  0  0  0  0  0  0  0
    5.7061  -12.9009   26.1185 C   0  0  0  0  0  0  0  0  0  0  0  0
    6.1225  -14.2014   25.8464 C   0  0  0  0  0  0  0  0  0  0  0  0
    7.4370  -14.5108   25.6599 C   0  0  0  0  0  0  0  0  0  0  0  0
    7.9875  -15.8291   25.3552 C   0  0  0  0  0  0  0  0  0  0  0  0
    9.2166  -15.9091   24.5217 C   0  0  2  0  0  0  0  0  0  0  0  0
    8.7939  -16.0262   23.0870 N   0  0  0  0  0  0  0  0  0  0  0  0
   10.1856  -16.9562   24.8053 C   0  0  0  0  0  0  0  0  0  0  0  0
   10.5919  -17.0999   26.0004 O   0  0  0  0  0  0  0  0  0  0  0  0
    8.3259  -13.4430   25.7609 C   0  0  0  0  0  0  0  0  0  0  0  0
    7.9339  -12.1582   26.0282 C   0  0  0  0  0  0  0  0  0  0  0  0
    9.2300  -20.6434   22.2922 N   0  0  0  0  0  0  0  0  0  0  0  0
   10.0430  -20.5593   23.4737 C   0  0  0  0  0  0  0  0  0  0  0  0
    9.5016  -20.9095   24.5379 O   0  0  0  0  0  0  0  0  0  0  0  0
   11.4254  -20.0895   23.4280 C   0  0  0  0  0  0  0  0  0  0  0  0
   11.6578  -18.8480   24.2863 C   0  0  2  0  0  0  0  0  0  0  0  0
   10.6897  -17.8245   23.8256 N   0  0  0  0  0  0  0  0  0  0  0  0
   13.0138  -18.3156   24.1455 C   0  0  0  0  0  0  0  0  0  0  0  0
   14.0604  -18.9710   24.4448 O   0  0  0  0  0  0  0  0  0  0  0  0
   13.1816  -17.0177   23.6545 O   0  0  0  0  0  0  0  0  0  0  0  0
  2  1  1  0
  3  5  1  0
  3  2  1  0
  3  4  1  6
  5  6  1  1
  7  5  1  0
  7 16  1  0
  8  7  2  0
  9 10  1  0
 10 20  2  0
 10 11  1  0
 11 12  2  0
 12 13  1  0
 13 14  1  0
 15 14  1  1
 15 16  1  0
 17 15  1  0
 18 17  2  0
 19 13  2  0
 20 19  1  0
 21 22  1  0
 22 24  1  0
 23 22  2  0
 25 24  1  6
 25 26  1  0
 25 27  1  0
 26 17  1  0
 27 29  1  0
 28 27  2  0
M  END
$$$$
