IYN.pdb
     RDKit          3D

 29 29  0  0  1  0  0  0  0  0999 V2000
   11.7992  -20.5964   19.2597 C   0  0  0  0  0  0  0  0  0  0  0  0
   10.8083  -19.4648   19.1447 C   0  0  0  0  0  0  0  0  0  0  0  0
   10.8083  -18.5573   20.3550 C   0  0  2  0  0  0  0  0  0  0  0  0
   10.6276  -19.3856   21.5795 C   0  0  0  0  0  0  0  0  0  0  0  0
    9.7623  -17.5020   20.1446 C   0  0  2  0  0  0  0  0  0  0  0  0
   10.0053  -16.9329   18.8287 N   0  0  0  0  0  0  0  0  0  0  0  0
    9.8041  -16.4329   21.1740 C   0  0  0  0  0  0  0  0  0  0  0  0
   10.7067  -15.5499   21.1776 O   0  0  0  0  0  0  0  0  0  0  0  0
    6.2575  -11.3115   27.6535 O   0  0  0  0  0  0  0  0  0  0  0  0
    6.5563  -12.1577   26.5789 C   0  0  0  0  0  0  0  0  0  0  0  0
    7.1807  -11.6687   25.4738 C   0  0  0  0  0  0  0  0  0  0  0  0
    7.4861  -12.4946   24.3952 C   0  0  0  0  0  0  0  0  0  0  0  0
    7.1764  -13.8223   24.3966 C   0  0  0  0  0  0  0  0  0  0  0  0
    7.4600  -14.7845   23.3348 C   0  0  0  0  0  0  0  0  0  0  0  0
    8.8312  -15.3526   23.2402 C   0  0  2  0  0  0  0  0  0  0  0  0
    8.8237  -16.3984   22.1647 N   0  0  0  0  0  0  0  0  0  0  0  0
    9.4350  -15.9220   24.4348 C   0  0  0  0  0  0  0  0  0  0  0  0
    9.7492  -15.1421   25.3871 O   0  0  0  0  0  0  0  0  0  0  0  0
    6.5377  -14.2891   25.5432 C   0  0  0  0  0  0  0  0  0  0  0  0
    6.2296  -13.4910   26.6127 C   0  0  0  0  0  0  0  0  0  0  0  0
    6.9497  -18.8193   25.8685 N   0  0  0  0  0  0  0  0  0  0  0  0
    8.0664  -18.5752   26.7388 C   0  0  0  0  0  0  0  0  0  0  0  0
    7.8023  -18.0496   27.8352 O   0  0  0  0  0  0  0  0  0  0  0  0
    9.4329  -18.9238   26.3580 C   0  0  0  0  0  0  0  0  0  0  0  0
   10.2460  -17.7159   25.8977 C   0  0  2  0  0  0  0  0  0  0  0  0
    9.6808  -17.2939   24.5941 N   0  0  0  0  0  0  0  0  0  0  0  0
   11.6643  -18.0302   25.7203 C   0  0  0  0  0  0  0  0  0  0  0  0
   12.4180  -18.4317   26.6611 O   0  0  0  0  0  0  0  0  0  0  0  0
   12.2337  -17.8875   24.4516 O   0  0  0  0  0  0  0  0  0  0  0  0
  2  1  1  0
  3  5  1  0
  3  2  1  0
  3  4  1  1
  5  6  1  6
  7  5  1  0
  7 16  1  0
  8  7  2  0
  9 10  1  0
 10 20  2  0
 10 11  1  0
 11 12  2  0
 12 13  1  0
 13 14  1  0
 15 14  1  1
 15 16  1  0
 17 15  1  0
 18 17  2  0
 19 13  2  0
 20 19  1  0
 21 22  1  0
 22 24  1  0
 23 22  2  0
 25 24  1  6
 25 26  1  0
 25 27  1  0
 26 17  1  0
 27 29  1  0
 28 27  2  0
M  END
$$$$
