IYN.pdb
     RDKit          3D

 29 29  0  0  1  0  0  0  0  0999 V2000
    7.1886  -17.9161   17.3104 C   0  0  0  0  0  0  0  0  0  0  0  0
    8.3012  -18.5837   18.0799 C   0  0  0  0  0  0  0  0  0  0  0  0
    8.4152  -18.0834   19.5030 C   0  0  2  0  0  0  0  0  0  0  0  0
    7.1420  -18.3719   20.2196 C   0  0  0  0  0  0  0  0  0  0  0  0
    8.8010  -16.6339   19.4565 C   0  0  2  0  0  0  0  0  0  0  0  0
    9.9785  -16.5445   18.6079 N   0  0  0  0  0  0  0  0  0  0  0  0
    9.0998  -16.0717   20.7977 C   0  0  0  0  0  0  0  0  0  0  0  0
   10.1549  -16.3716   21.4231 O   0  0  0  0  0  0  0  0  0  0  0  0
    6.7735  -11.6723   28.3213 O   0  0  0  0  0  0  0  0  0  0  0  0
    6.9247  -12.1542   27.0155 C   0  0  0  0  0  0  0  0  0  0  0  0
    5.9305  -12.8756   26.4312 C   0  0  0  0  0  0  0  0  0  0  0  0
    6.0625  -13.3631   25.1336 C   0  0  0  0  0  0  0  0  0  0  0  0
    7.1856  -13.1413   24.3935 C   0  0  0  0  0  0  0  0  0  0  0  0
    7.4292  -13.5874   23.0240 C   0  0  0  0  0  0  0  0  0  0  0  0
    8.3597  -14.7266   22.8042 C   0  0  2  0  0  0  0  0  0  0  0  0
    8.1953  -15.1891   21.3865 N   0  0  0  0  0  0  0  0  0  0  0  0
    8.2670  -15.8831   23.6816 C   0  0  0  0  0  0  0  0  0  0  0  0
    7.2818  -16.6729   23.5431 O   0  0  0  0  0  0  0  0  0  0  0  0
    8.1831  -12.3997   25.0226 C   0  0  0  0  0  0  0  0  0  0  0  0
    8.0702  -11.9130   26.2977 C   0  0  0  0  0  0  0  0  0  0  0  0
   11.5634  -18.0392   24.4762 N   0  0  0  0  0  0  0  0  0  0  0  0
   10.4556  -18.8322   24.0201 C   0  0  0  0  0  0  0  0  0  0  0  0
   10.7279  -19.7459   23.2207 O   0  0  0  0  0  0  0  0  0  0  0  0
    9.0886  -18.5798   24.4690 C   0  0  0  0  0  0  0  0  0  0  0  0
    8.9937  -17.4160   25.4530 C   0  0  2  0  0  0  0  0  0  0  0  0
    9.2177  -16.1773   24.6704 N   0  0  0  0  0  0  0  0  0  0  0  0
    9.9995  -17.4955   26.5133 C   0  0  0  0  0  0  0  0  0  0  0  0
   10.9724  -16.6854   26.6209 O   0  0  0  0  0  0  0  0  0  0  0  0
    9.8953  -18.5116   27.4675 O   0  0  0  0  0  0  0  0  0  0  0  0
  2  1  1  0
  3  5  1  0
  3  2  1  0
  3  4  1  6
  5  6  1  6
  7  5  1  0
  7 16  1  0
  8  7  2  0
  9 10  1  0
 10 20  2  0
 10 11  1  0
 11 12  2  0
 12 13  1  0
 13 14  1  0
 15 14  1  1
 15 16  1  0
 17 15  1  0
 18 17  2  0
 19 13  2  0
 20 19  1  0
 21 22  1  0
 22 24  1  0
 23 22  2  0
 25 24  1  6
 25 26  1  0
 25 27  1  0
 26 17  1  0
 27 29  1  0
 28 27  2  0
M  END
$$$$
