IYN.pdb
     RDKit          3D

 29 29  0  0  1  0  0  0  0  0999 V2000
    7.5686  -12.8433   18.6519 C   0  0  0  0  0  0  0  0  0  0  0  0
    7.8427  -14.0117   19.5658 C   0  0  0  0  0  0  0  0  0  0  0  0
    9.0388  -14.8301   19.1323 C   0  0  2  0  0  0  0  0  0  0  0  0
    8.7767  -15.3873   17.7763 C   0  0  0  0  0  0  0  0  0  0  0  0
    9.3117  -15.8535   20.1954 C   0  0  2  0  0  0  0  0  0  0  0  0
    8.2116  -16.8034   20.1496 N   0  0  0  0  0  0  0  0  0  0  0  0
    9.4145  -15.2631   21.5537 C   0  0  0  0  0  0  0  0  0  0  0  0
   10.4001  -14.5517   21.8954 O   0  0  0  0  0  0  0  0  0  0  0  0
    6.5118  -11.2282   28.8681 O   0  0  0  0  0  0  0  0  0  0  0  0
    6.6601  -11.9768   27.6943 C   0  0  0  0  0  0  0  0  0  0  0  0
    6.0296  -13.1746   27.5605 C   0  0  0  0  0  0  0  0  0  0  0  0
    6.1650  -13.9333   26.4008 C   0  0  0  0  0  0  0  0  0  0  0  0
    6.9297  -13.5139   25.3529 C   0  0  0  0  0  0  0  0  0  0  0  0
    7.1324  -14.2137   24.0869 C   0  0  0  0  0  0  0  0  0  0  0  0
    8.4345  -14.8932   23.8528 C   0  0  2  0  0  0  0  0  0  0  0  0
    8.3990  -15.4972   22.4800 N   0  0  0  0  0  0  0  0  0  0  0  0
    8.8695  -15.9123   24.7953 C   0  0  0  0  0  0  0  0  0  0  0  0
    8.9726  -15.6001   26.0223 O   0  0  0  0  0  0  0  0  0  0  0  0
    7.5608  -12.2839   25.5240 C   0  0  0  0  0  0  0  0  0  0  0  0
    7.4390  -11.5250   26.6576 C   0  0  0  0  0  0  0  0  0  0  0  0
    7.0760  -18.8522   27.1498 N   0  0  0  0  0  0  0  0  0  0  0  0
    7.3129  -19.3598   25.8269 C   0  0  0  0  0  0  0  0  0  0  0  0
    6.3083  -19.7331   25.1948 O   0  0  0  0  0  0  0  0  0  0  0  0
    8.6560  -19.4336   25.2571 C   0  0  0  0  0  0  0  0  0  0  0  0
    9.4803  -18.1749   25.5185 C   0  0  2  0  0  0  0  0  0  0  0  0
    9.1735  -17.2292   24.4193 N   0  0  0  0  0  0  0  0  0  0  0  0
   10.9196  -18.4401   25.5282 C   0  0  0  0  0  0  0  0  0  0  0  0
   11.7022  -18.1046   24.5851 O   0  0  0  0  0  0  0  0  0  0  0  0
   11.4777  -19.0955   26.6296 O   0  0  0  0  0  0  0  0  0  0  0  0
  2  1  1  0
  3  5  1  0
  3  2  1  0
  3  4  1  6
  5  6  1  1
  7  5  1  0
  7 16  1  0
  8  7  2  0
  9 10  1  0
 10 20  2  0
 10 11  1  0
 11 12  2  0
 12 13  1  0
 13 14  1  0
 15 14  1  1
 15 16  1  0
 17 15  1  0
 18 17  2  0
 19 13  2  0
 20 19  1  0
 21 22  1  0
 22 24  1  0
 23 22  2  0
 25 24  1  6
 25 26  1  0
 25 27  1  0
 26 17  1  0
 27 29  1  0
 28 27  2  0
M  END
$$$$
