IYN.pdb
     RDKit          3D

 29 29  0  0  1  0  0  0  0  0999 V2000
    8.1761  -11.7061   26.9939 C   0  0  0  0  0  0  0  0  0  0  0  0
    7.8533  -13.1026   26.5236 C   0  0  0  0  0  0  0  0  0  0  0  0
    6.4595  -13.2224   25.9480 C   0  0  2  0  0  0  0  0  0  0  0  0
    5.4694  -12.8727   27.0041 C   0  0  0  0  0  0  0  0  0  0  0  0
    6.3111  -14.6004   25.3725 C   0  0  2  0  0  0  0  0  0  0  0  0
    6.6911  -15.5321   26.4225 N   0  0  0  0  0  0  0  0  0  0  0  0
    7.1558  -14.8195   24.1714 C   0  0  0  0  0  0  0  0  0  0  0  0
    7.1676  -14.0011   23.2100 O   0  0  0  0  0  0  0  0  0  0  0  0
    7.2276  -13.7327   17.8623 O   0  0  0  0  0  0  0  0  0  0  0  0
    7.8040  -13.9198   19.1245 C   0  0  0  0  0  0  0  0  0  0  0  0
    7.8105  -12.9070   20.0325 C   0  0  0  0  0  0  0  0  0  0  0  0
    8.3790  -13.0740   21.2926 C   0  0  0  0  0  0  0  0  0  0  0  0
    8.9508  -14.2519   21.6725 C   0  0  0  0  0  0  0  0  0  0  0  0
    9.5607  -14.5472   22.9665 C   0  0  0  0  0  0  0  0  0  0  0  0
    9.3561  -15.8976   23.5552 C   0  0  2  0  0  0  0  0  0  0  0  0
    7.9588  -15.9570   24.0980 N   0  0  0  0  0  0  0  0  0  0  0  0
   10.2730  -16.3555   24.5874 C   0  0  0  0  0  0  0  0  0  0  0  0
   11.5173  -16.3688   24.3317 O   0  0  0  0  0  0  0  0  0  0  0  0
    8.9268  -15.2667   20.7185 C   0  0  0  0  0  0  0  0  0  0  0  0
    8.3725  -15.1196   19.4748 C   0  0  0  0  0  0  0  0  0  0  0  0
   11.3394  -14.5303   26.8266 N   0  0  0  0  0  0  0  0  0  0  0  0
   10.9591  -15.1872   28.0464 C   0  0  0  0  0  0  0  0  0  0  0  0
   10.8440  -14.4588   29.0485 O   0  0  0  0  0  0  0  0  0  0  0  0
   10.7216  -16.6273   28.1063 C   0  0  0  0  0  0  0  0  0  0  0  0
   10.9040  -17.3144   26.7549 C   0  0  2  0  0  0  0  0  0  0  0  0
    9.8537  -16.7762   25.8582 N   0  0  0  0  0  0  0  0  0  0  0  0
   10.7550  -18.7679   26.8409 C   0  0  0  0  0  0  0  0  0  0  0  0
   11.5238  -19.5137   27.5245 O   0  0  0  0  0  0  0  0  0  0  0  0
    9.7134  -19.3822   26.1397 O   0  0  0  0  0  0  0  0  0  0  0  0
  2  1  1  0
  3  5  1  0
  3  2  1  0
  3  4  1  1
  5  6  1  1
  7  5  1  0
  7 16  1  0
  8  7  2  0
  9 10  1  0
 10 20  2  0
 10 11  1  0
 11 12  2  0
 12 13  1  0
 13 14  1  0
 15 14  1  1
 15 16  1  0
 17 15  1  0
 18 17  2  0
 19 13  2  0
 20 19  1  0
 21 22  1  0
 22 24  1  0
 23 22  2  0
 25 24  1  1
 25 26  1  0
 25 27  1  0
 26 17  1  0
 27 29  1  0
 28 27  2  0
M  END
$$$$
