IYN.pdb
     RDKit          3D

 29 29  0  0  1  0  0  0  0  0999 V2000
    8.3113  -11.9622   27.3553 C   0  0  0  0  0  0  0  0  0  0  0  0
    7.9559  -13.2980   26.7513 C   0  0  0  0  0  0  0  0  0  0  0  0
    6.6341  -13.2785   26.0157 C   0  0  2  0  0  0  0  0  0  0  0  0
    5.5422  -13.0100   26.9922 C   0  0  0  0  0  0  0  0  0  0  0  0
    6.5040  -14.5681   25.2594 C   0  0  2  0  0  0  0  0  0  0  0  0
    6.6814  -15.6377   26.2285 N   0  0  0  0  0  0  0  0  0  0  0  0
    7.5025  -14.7023   24.1689 C   0  0  0  0  0  0  0  0  0  0  0  0
    8.1843  -13.7179   23.7684 O   0  0  0  0  0  0  0  0  0  0  0  0
    6.6594  -12.7988   17.0748 O   0  0  0  0  0  0  0  0  0  0  0  0
    7.2182  -13.2968   18.2580 C   0  0  0  0  0  0  0  0  0  0  0  0
    7.1911  -14.6311   18.5208 C   0  0  0  0  0  0  0  0  0  0  0  0
    7.7416  -15.1451   19.6920 C   0  0  0  0  0  0  0  0  0  0  0  0
    8.3297  -14.3411   20.6226 C   0  0  0  0  0  0  0  0  0  0  0  0
    8.9513  -14.7665   21.8742 C   0  0  0  0  0  0  0  0  0  0  0  0
    8.6266  -16.1178   22.4037 C   0  0  2  0  0  0  0  0  0  0  0  0
    7.6964  -15.9454   23.5681 N   0  0  0  0  0  0  0  0  0  0  0  0
    9.7181  -16.9898   22.8090 C   0  0  0  0  0  0  0  0  0  0  0  0
   10.2915  -17.6966   21.9227 O   0  0  0  0  0  0  0  0  0  0  0  0
    8.3397  -12.9810   20.3215 C   0  0  0  0  0  0  0  0  0  0  0  0
    7.8028  -12.4585   19.1751 C   0  0  0  0  0  0  0  0  0  0  0  0
   14.6762  -17.0769   23.0014 N   0  0  0  0  0  0  0  0  0  0  0  0
   13.7978  -16.2301   23.7598 C   0  0  0  0  0  0  0  0  0  0  0  0
   14.3379  -15.5057   24.6152 O   0  0  0  0  0  0  0  0  0  0  0  0
   12.3538  -16.2206   23.5395 C   0  0  0  0  0  0  0  0  0  0  0  0
   11.6299  -17.3234   24.3088 C   0  0  2  0  0  0  0  0  0  0  0  0
   10.1780  -17.0841   24.1309 N   0  0  0  0  0  0  0  0  0  0  0  0
   11.9417  -17.3061   25.7387 C   0  0  0  0  0  0  0  0  0  0  0  0
   13.1110  -17.4790   26.2049 O   0  0  0  0  0  0  0  0  0  0  0  0
   10.9070  -17.0865   26.6524 O   0  0  0  0  0  0  0  0  0  0  0  0
  2  1  1  0
  3  5  1  0
  3  2  1  0
  3  4  1  1
  5  6  1  1
  7  5  1  0
  7 16  1  0
  8  7  2  0
  9 10  1  0
 10 20  2  0
 10 11  1  0
 11 12  2  0
 12 13  1  0
 13 14  1  0
 15 14  1  1
 15 16  1  0
 17 15  1  0
 18 17  2  0
 19 13  2  0
 20 19  1  0
 21 22  1  0
 22 24  1  0
 23 22  2  0
 25 24  1  6
 25 26  1  0
 25 27  1  0
 26 17  1  0
 27 29  1  0
 28 27  2  0
M  END
$$$$
