IYN.pdb
     RDKit          3D

 29 29  0  0  1  0  0  0  0  0999 V2000
    6.5354  -12.2719   18.5752 C   0  0  0  0  0  0  0  0  0  0  0  0
    7.0272  -13.6026   19.0880 C   0  0  0  0  0  0  0  0  0  0  0  0
    7.7889  -13.4866   20.3898 C   0  0  2  0  0  0  0  0  0  0  0  0
    8.8184  -12.4191   20.2534 C   0  0  0  0  0  0  0  0  0  0  0  0
    8.3268  -14.8441   20.7362 C   0  0  2  0  0  0  0  0  0  0  0  0
    7.1751  -15.6939   20.9933 N   0  0  0  0  0  0  0  0  0  0  0  0
    9.2185  -14.8273   21.9232 C   0  0  0  0  0  0  0  0  0  0  0  0
   10.4044  -14.3992   21.8564 O   0  0  0  0  0  0  0  0  0  0  0  0
   10.9954  -15.7789   30.7076 O   0  0  0  0  0  0  0  0  0  0  0  0
   10.4333  -15.6022   29.4375 C   0  0  0  0  0  0  0  0  0  0  0  0
   10.4201  -14.3714   28.8584 C   0  0  0  0  0  0  0  0  0  0  0  0
    9.8657  -14.1761   27.5962 C   0  0  0  0  0  0  0  0  0  0  0  0
    9.3148  -15.2017   26.8868 C   0  0  0  0  0  0  0  0  0  0  0  0
    8.7211  -15.1199   25.5547 C   0  0  0  0  0  0  0  0  0  0  0  0
    9.6023  -15.3140   24.3724 C   0  0  2  0  0  0  0  0  0  0  0  0
    8.7388  -15.2953   23.1458 N   0  0  0  0  0  0  0  0  0  0  0  0
   10.4526  -16.4932   24.3214 C   0  0  0  0  0  0  0  0  0  0  0  0
    9.9252  -17.6095   24.0223 O   0  0  0  0  0  0  0  0  0  0  0  0
    9.3451  -16.4474   27.5095 C   0  0  0  0  0  0  0  0  0  0  0  0
    9.8858  -16.6574   28.7502 C   0  0  0  0  0  0  0  0  0  0  0  0
   12.5039  -18.6243   21.8296 N   0  0  0  0  0  0  0  0  0  0  0  0
   13.7034  -18.0052   22.3214 C   0  0  0  0  0  0  0  0  0  0  0  0
   14.6426  -17.9088   21.5109 O   0  0  0  0  0  0  0  0  0  0  0  0
   13.8138  -17.5173   23.6939 C   0  0  0  0  0  0  0  0  0  0  0  0
   12.5463  -17.7564   24.5112 C   0  0  2  0  0  0  0  0  0  0  0  0
   11.8314  -16.4597   24.5774 N   0  0  0  0  0  0  0  0  0  0  0  0
   12.8350  -18.2088   25.8729 C   0  0  0  0  0  0  0  0  0  0  0  0
   12.7814  -17.4509   26.8913 O   0  0  0  0  0  0  0  0  0  0  0  0
   13.1883  -19.5455   26.0793 O   0  0  0  0  0  0  0  0  0  0  0  0
  2  1  1  0
  3  5  1  0
  3  2  1  0
  3  4  1  6
  5  6  1  1
  7  5  1  0
  7 16  1  0
  8  7  2  0
  9 10  1  0
 10 20  2  0
 10 11  1  0
 11 12  2  0
 12 13  1  0
 13 14  1  0
 15 14  1  1
 15 16  1  0
 17 15  1  0
 18 17  2  0
 19 13  2  0
 20 19  1  0
 21 22  1  0
 22 24  1  0
 23 22  2  0
 25 24  1  6
 25 26  1  0
 25 27  1  0
 26 17  1  0
 27 29  1  0
 28 27  2  0
M  END
$$$$
