IYN.pdb
     RDKit          3D

 29 29  0  0  1  0  0  0  0  0999 V2000
    6.5596  -12.4427   18.6097 C   0  0  0  0  0  0  0  0  0  0  0  0
    6.9179  -13.7599   19.2519 C   0  0  0  0  0  0  0  0  0  0  0  0
    8.0130  -13.6311   20.2875 C   0  0  2  0  0  0  0  0  0  0  0  0
    9.1835  -12.9480   19.6700 C   0  0  0  0  0  0  0  0  0  0  0  0
    8.2958  -14.9985   20.8374 C   0  0  2  0  0  0  0  0  0  0  0  0
    7.0094  -15.5803   21.1856 N   0  0  0  0  0  0  0  0  0  0  0  0
    9.1785  -14.9708   22.0308 C   0  0  0  0  0  0  0  0  0  0  0  0
   10.3961  -14.6465   21.9484 O   0  0  0  0  0  0  0  0  0  0  0  0
   10.8326  -15.5217   30.8649 O   0  0  0  0  0  0  0  0  0  0  0  0
   10.3011  -15.3532   29.5807 C   0  0  0  0  0  0  0  0  0  0  0  0
   10.3831  -14.1471   28.9572 C   0  0  0  0  0  0  0  0  0  0  0  0
    9.8604  -13.9602   27.6802 C   0  0  0  0  0  0  0  0  0  0  0  0
    9.2471  -14.9700   27.0000 C   0  0  0  0  0  0  0  0  0  0  0  0
    8.6781  -14.8963   25.6567 C   0  0  0  0  0  0  0  0  0  0  0  0
    9.5122  -15.3394   24.5079 C   0  0  2  0  0  0  0  0  0  0  0  0
    8.6545  -15.3106   23.2773 N   0  0  0  0  0  0  0  0  0  0  0  0
   10.1714  -16.6340   24.5819 C   0  0  0  0  0  0  0  0  0  0  0  0
    9.4711  -17.6818   24.4226 O   0  0  0  0  0  0  0  0  0  0  0  0
    9.1805  -16.1907   27.6679 C   0  0  0  0  0  0  0  0  0  0  0  0
    9.6888  -16.3920   28.9236 C   0  0  0  0  0  0  0  0  0  0  0  0
   11.6217  -18.5325   22.0652 N   0  0  0  0  0  0  0  0  0  0  0  0
   12.9735  -18.3496   22.5161 C   0  0  0  0  0  0  0  0  0  0  0  0
   13.8490  -18.3343   21.6321 O   0  0  0  0  0  0  0  0  0  0  0  0
   13.3009  -18.1914   23.9309 C   0  0  0  0  0  0  0  0  0  0  0  0
   12.0643  -18.1743   24.8267 C   0  0  2  0  0  0  0  0  0  0  0  0
   11.5469  -16.7854   24.8119 N   0  0  0  0  0  0  0  0  0  0  0  0
   12.3678  -18.5526   26.2076 C   0  0  0  0  0  0  0  0  0  0  0  0
   12.5460  -17.7118   27.1434 O   0  0  0  0  0  0  0  0  0  0  0  0
   12.4680  -19.9092   26.5292 O   0  0  0  0  0  0  0  0  0  0  0  0
  2  1  1  0
  3  5  1  0
  3  2  1  0
  3  4  1  6
  5  6  1  1
  7  5  1  0
  7 16  1  0
  8  7  2  0
  9 10  1  0
 10 20  2  0
 10 11  1  0
 11 12  2  0
 12 13  1  0
 13 14  1  0
 15 14  1  1
 15 16  1  0
 17 15  1  0
 18 17  2  0
 19 13  2  0
 20 19  1  0
 21 22  1  0
 22 24  1  0
 23 22  2  0
 25 24  1  6
 25 26  1  0
 25 27  1  0
 26 17  1  0
 27 29  1  0
 28 27  2  0
M  END
$$$$
