IYN.pdb
     RDKit          3D

 29 29  0  0  1  0  0  0  0  0999 V2000
    6.7141  -11.5921   27.6508 C   0  0  0  0  0  0  0  0  0  0  0  0
    6.3737  -12.9264   27.0350 C   0  0  0  0  0  0  0  0  0  0  0  0
    7.1247  -13.1896   25.7485 C   0  0  2  0  0  0  0  0  0  0  0  0
    6.8776  -12.0633   24.8061 C   0  0  0  0  0  0  0  0  0  0  0  0
    6.7166  -14.5414   25.2402 C   0  0  2  0  0  0  0  0  0  0  0  0
    7.0055  -15.4897   26.3041 N   0  0  0  0  0  0  0  0  0  0  0  0
    7.4354  -14.9350   24.0023 C   0  0  0  0  0  0  0  0  0  0  0  0
    7.1143  -14.4716   22.8725 O   0  0  0  0  0  0  0  0  0  0  0  0
    6.7865  -13.0317   17.8898 O   0  0  0  0  0  0  0  0  0  0  0  0
    7.5354  -13.4361   19.0015 C   0  0  0  0  0  0  0  0  0  0  0  0
    8.0384  -12.5113   19.8629 C   0  0  0  0  0  0  0  0  0  0  0  0
    8.7854  -12.8941   20.9738 C   0  0  0  0  0  0  0  0  0  0  0  0
    9.0451  -14.2040   21.2484 C   0  0  0  0  0  0  0  0  0  0  0  0
    9.7995  -14.7230   22.3865 C   0  0  0  0  0  0  0  0  0  0  0  0
    9.4310  -16.0562   22.9329 C   0  0  2  0  0  0  0  0  0  0  0  0
    8.4932  -15.8396   24.0837 N   0  0  0  0  0  0  0  0  0  0  0  0
   10.4930  -16.9519   23.3641 C   0  0  0  0  0  0  0  0  0  0  0  0
   11.6452  -16.8216   22.8451 O   0  0  0  0  0  0  0  0  0  0  0  0
    8.5154  -15.1235   20.3460 C   0  0  0  0  0  0  0  0  0  0  0  0
    7.7790  -14.7647   19.2484 C   0  0  0  0  0  0  0  0  0  0  0  0
   12.7379  -19.0766   28.1168 N   0  0  0  0  0  0  0  0  0  0  0  0
   12.1208  -19.7948   27.0363 C   0  0  0  0  0  0  0  0  0  0  0  0
   12.5731  -20.9303   26.8038 O   0  0  0  0  0  0  0  0  0  0  0  0
   11.0257  -19.2244   26.2558 C   0  0  0  0  0  0  0  0  0  0  0  0
   11.5128  -18.3398   25.1103 C   0  0  2  0  0  0  0  0  0  0  0  0
   10.3123  -17.9498   24.3333 N   0  0  0  0  0  0  0  0  0  0  0  0
   12.4463  -19.0355   24.2234 C   0  0  0  0  0  0  0  0  0  0  0  0
   13.6855  -19.1672   24.4717 O   0  0  0  0  0  0  0  0  0  0  0  0
   11.9618  -19.5919   23.0362 O   0  0  0  0  0  0  0  0  0  0  0  0
  2  1  1  0
  3  5  1  0
  3  2  1  0
  3  4  1  6
  5  6  1  1
  7  5  1  0
  7 16  1  0
  8  7  2  0
  9 10  1  0
 10 20  2  0
 10 11  1  0
 11 12  2  0
 12 13  1  0
 13 14  1  0
 15 14  1  1
 15 16  1  0
 17 15  1  0
 18 17  2  0
 19 13  2  0
 20 19  1  0
 21 22  1  0
 22 24  1  0
 23 22  2  0
 25 24  1  1
 25 26  1  0
 25 27  1  0
 26 17  1  0
 27 29  1  0
 28 27  2  0
M  END
$$$$
