CWG.pdb
     RDKit          3D

 25 26  0  0  1  0  0  0  0  0999 V2000
   28.2168  -20.6483  -14.9361 N   0  0  0  0  0  0  0  0  0  0  0  0
   27.7294  -19.8355  -13.8502 C   0  0  1  0  0  0  0  0  0  0  0  0
   27.1236  -18.5360  -14.2892 C   0  0  0  0  0  0  0  0  0  0  0  0
   27.9680  -18.0260  -15.8040 S   0  0  0  0  0  0  0  0  0  0  0  0
   26.8053  -20.6511  -12.9987 C   0  0  0  0  0  0  0  0  0  0  0  0
   26.4776  -21.8203  -13.3180 O   0  0  0  0  0  0  0  0  0  0  0  0
   26.2689  -20.1229  -11.7970 N   0  0  0  0  0  0  0  0  0  0  0  0
   25.4621  -20.8129  -10.8475 C   0  0  1  0  0  0  0  0  0  0  0  0
   25.7987  -20.3835   -9.4592 C   0  0  0  0  0  0  0  0  0  0  0  0
   27.1810  -20.7363   -9.0713 C   0  0  0  0  0  0  0  0  0  0  0  0
   28.0658  -21.5402   -9.7588 C   0  0  0  0  0  0  0  0  0  0  0  0
   29.1929  -21.5697   -9.0187 N   0  0  0  0  0  0  0  0  0  0  0  0
   29.0507  -20.8261   -7.9095 C   0  0  0  0  0  0  0  0  0  0  0  0
   29.9164  -20.5561   -6.8596 C   0  0  0  0  0  0  0  0  0  0  0  0
   29.4886  -19.7467   -5.8373 C   0  0  0  0  0  0  0  0  0  0  0  0
   28.2180  -19.1876   -5.8168 C   0  0  0  0  0  0  0  0  0  0  0  0
   27.3576  -19.4560   -6.8611 C   0  0  0  0  0  0  0  0  0  0  0  0
   27.7921  -20.2716   -7.8887 C   0  0  0  0  0  0  0  0  0  0  0  0
   24.0058  -20.6758  -11.1448 C   0  0  0  0  0  0  0  0  0  0  0  0
   23.2030  -21.2090  -10.3458 O   0  0  0  0  0  0  0  0  0  0  0  0
   23.4810  -19.9891  -12.2607 N   0  0  0  0  0  0  0  0  0  0  0  0
   22.7096  -20.6734  -13.2883 C   0  0  0  0  0  0  0  0  0  0  0  0
   21.2794  -20.3716  -13.2067 C   0  0  0  0  0  0  0  0  0  0  0  0
   20.7898  -19.5538  -12.3522 O   0  0  0  0  0  0  0  0  0  0  0  0
   20.3533  -20.9549  -14.0537 O   0  0  0  0  0  0  0  0  0  0  0  0
  2  1  1  6
  3  2  1  0
  4  3  1  0
  5  7  1  0
  5  2  1  0
  6  5  2  0
  8  7  1  0
  8  9  1  1
  9 10  1  0
 10 11  2  0
 10 18  1  0
 11 12  1  0
 12 13  1  0
 13 14  2  0
 14 15  1  0
 16 15  2  0
 17 16  1  0
 18 17  2  0
 18 13  1  0
 19  8  1  0
 20 19  2  0
 21 19  1  0
 22 23  1  0
 22 21  1  0
 23 25  1  0
 24 23  2  0
M  END
$$$$
