CWG.pdb
     RDKit          3D

 25 26  0  0  1  0  0  0  0  0999 V2000
   28.4672  -21.8579  -15.6804 N   0  0  0  0  0  0  0  0  0  0  0  0
   27.5027  -20.8943  -15.2131 C   0  0  1  0  0  0  0  0  0  0  0  0
   26.6512  -20.3111  -16.3009 C   0  0  0  0  0  0  0  0  0  0  0  0
   27.5529  -18.9126  -17.0074 S   0  0  0  0  0  0  0  0  0  0  0  0
   26.6976  -21.4990  -14.1038 C   0  0  0  0  0  0  0  0  0  0  0  0
   26.3913  -22.7165  -14.1023 O   0  0  0  0  0  0  0  0  0  0  0  0
   26.2540  -20.7080  -13.0137 N   0  0  0  0  0  0  0  0  0  0  0  0
   25.4110  -21.1257  -11.9444 C   0  0  1  0  0  0  0  0  0  0  0  0
   25.7553  -20.3997  -10.6875 C   0  0  0  0  0  0  0  0  0  0  0  0
   27.0665  -20.8025  -10.1360 C   0  0  0  0  0  0  0  0  0  0  0  0
   28.0697  -21.4964  -10.7794 C   0  0  0  0  0  0  0  0  0  0  0  0
   29.0647  -21.6311   -9.8788 N   0  0  0  0  0  0  0  0  0  0  0  0
   28.7285  -21.0567   -8.7124 C   0  0  0  0  0  0  0  0  0  0  0  0
   29.4085  -20.9405   -7.5086 C   0  0  0  0  0  0  0  0  0  0  0  0
   28.8027  -20.2889   -6.4637 C   0  0  0  0  0  0  0  0  0  0  0  0
   27.5314  -19.7411   -6.5690 C   0  0  0  0  0  0  0  0  0  0  0  0
   26.8557  -19.8565   -7.7661 C   0  0  0  0  0  0  0  0  0  0  0  0
   27.4691  -20.5134   -8.8160 C   0  0  0  0  0  0  0  0  0  0  0  0
   23.9643  -21.0027  -12.2905 C   0  0  0  0  0  0  0  0  0  0  0  0
   23.5453  -19.8691  -12.6169 O   0  0  0  0  0  0  0  0  0  0  0  0
   23.0462  -22.0747  -12.2727 N   0  0  0  0  0  0  0  0  0  0  0  0
   21.6890  -21.9299  -12.7791 C   0  0  0  0  0  0  0  0  0  0  0  0
   20.7709  -21.3970  -11.7711 C   0  0  0  0  0  0  0  0  0  0  0  0
   21.1298  -21.1456  -10.5683 O   0  0  0  0  0  0  0  0  0  0  0  0
   19.4428  -21.1277  -12.0524 O   0  0  0  0  0  0  0  0  0  0  0  0
  2  1  1  6
  3  2  1  0
  4  3  1  0
  5  7  1  0
  5  2  1  0
  6  5  2  0
  8  7  1  0
  8  9  1  1
  9 10  1  0
 10 11  2  0
 10 18  1  0
 11 12  1  0
 12 13  1  0
 13 14  2  0
 14 15  1  0
 16 15  2  0
 17 16  1  0
 18 17  2  0
 18 13  1  0
 19  8  1  0
 20 19  2  0
 21 19  1  0
 22 23  1  0
 22 21  1  0
 23 25  1  0
 24 23  2  0
M  END
$$$$
