CWG.pdb
     RDKit          3D

 25 26  0  0  1  0  0  0  0  0999 V2000
   25.7837  -25.2168  -15.8617 N   0  0  0  0  0  0  0  0  0  0  0  0
   25.2006  -23.9734  -16.2988 C   0  0  1  0  0  0  0  0  0  0  0  0
   24.5306  -24.0547  -17.6377 C   0  0  0  0  0  0  0  0  0  0  0  0
   25.8239  -24.2768  -18.8810 S   0  0  0  0  0  0  0  0  0  0  0  0
   24.2970  -23.4473  -15.2259 C   0  0  0  0  0  0  0  0  0  0  0  0
   23.9055  -24.1754  -14.2809 O   0  0  0  0  0  0  0  0  0  0  0  0
   23.8534  -22.1006  -15.2457 N   0  0  0  0  0  0  0  0  0  0  0  0
   23.0035  -21.4687  -14.2934 C   0  0  1  0  0  0  0  0  0  0  0  0
   23.6421  -20.2324  -13.7558 C   0  0  0  0  0  0  0  0  0  0  0  0
   24.6931  -20.5205  -12.7567 C   0  0  0  0  0  0  0  0  0  0  0  0
   26.0427  -20.6899  -12.9841 C   0  0  0  0  0  0  0  0  0  0  0  0
   26.5947  -20.9347  -11.7780 N   0  0  0  0  0  0  0  0  0  0  0  0
   25.6564  -20.9256  -10.8173 C   0  0  0  0  0  0  0  0  0  0  0  0
   25.7341  -21.1253   -9.4465 C   0  0  0  0  0  0  0  0  0  0  0  0
   24.5849  -21.0591   -8.6994 C   0  0  0  0  0  0  0  0  0  0  0  0
   23.3454  -20.7988   -9.2679 C   0  0  0  0  0  0  0  0  0  0  0  0
   23.2685  -20.5998  -10.6308 C   0  0  0  0  0  0  0  0  0  0  0  0
   24.4280  -20.6674  -11.3797 C   0  0  0  0  0  0  0  0  0  0  0  0
   21.6410  -21.2078  -14.8446 C   0  0  0  0  0  0  0  0  0  0  0  0
   21.5700  -20.7031  -15.9880 O   0  0  0  0  0  0  0  0  0  0  0  0
   20.4377  -21.4911  -14.1634 N   0  0  0  0  0  0  0  0  0  0  0  0
   19.1374  -21.2336  -14.7653 C   0  0  0  0  0  0  0  0  0  0  0  0
   18.3221  -22.4447  -14.8727 C   0  0  0  0  0  0  0  0  0  0  0  0
   18.8275  -23.6113  -15.0222 O   0  0  0  0  0  0  0  0  0  0  0  0
   16.9395  -22.4098  -14.8203 O   0  0  0  0  0  0  0  0  0  0  0  0
  2  1  1  1
  3  2  1  0
  4  3  1  0
  5  7  1  0
  5  2  1  0
  6  5  2  0
  8  7  1  0
  8  9  1  6
  9 10  1  0
 10 11  2  0
 10 18  1  0
 11 12  1  0
 12 13  1  0
 13 14  2  0
 14 15  1  0
 16 15  2  0
 17 16  1  0
 18 17  2  0
 18 13  1  0
 19  8  1  0
 20 19  2  0
 21 19  1  0
 22 23  1  0
 22 21  1  0
 23 25  1  0
 24 23  2  0
M  END
$$$$
