CWG.pdb
     RDKit          3D

 25 26  0  0  1  0  0  0  0  0999 V2000
   23.1246  -11.5776  -18.7208 N   0  0  0  0  0  0  0  0  0  0  0  0
   23.1620  -10.1870  -18.3438 C   0  0  1  0  0  0  0  0  0  0  0  0
   23.6503   -9.2764  -19.4304 C   0  0  0  0  0  0  0  0  0  0  0  0
   24.2196   -7.7501  -18.6469 S   0  0  0  0  0  0  0  0  0  0  0  0
   21.8235   -9.7851  -17.8042 C   0  0  0  0  0  0  0  0  0  0  0  0
   20.7687   -9.9677  -18.4602 O   0  0  0  0  0  0  0  0  0  0  0  0
   21.7069   -9.1818  -16.5262 N   0  0  0  0  0  0  0  0  0  0  0  0
   20.5155   -8.6878  -15.9220 C   0  0  1  0  0  0  0  0  0  0  0  0
   20.0980   -9.5627  -14.7881 C   0  0  0  0  0  0  0  0  0  0  0  0
   19.5868  -10.8751  -15.2373 C   0  0  0  0  0  0  0  0  0  0  0  0
   20.2405  -12.0887  -15.1959 C   0  0  0  0  0  0  0  0  0  0  0  0
   19.3819  -12.9909  -15.7137 N   0  0  0  0  0  0  0  0  0  0  0  0
   18.2318  -12.3979  -16.0731 C   0  0  0  0  0  0  0  0  0  0  0  0
   17.0709  -12.9001  -16.6433 C   0  0  0  0  0  0  0  0  0  0  0  0
   16.0356  -12.0396  -16.9095 C   0  0  0  0  0  0  0  0  0  0  0  0
   16.1091  -10.6822  -16.6280 C   0  0  0  0  0  0  0  0  0  0  0  0
   17.2633  -10.1832  -16.0607 C   0  0  0  0  0  0  0  0  0  0  0  0
   18.3037  -11.0529  -15.7942 C   0  0  0  0  0  0  0  0  0  0  0  0
   20.6451   -7.2576  -15.5150 C   0  0  0  0  0  0  0  0  0  0  0  0
   21.3744   -7.0037  -14.5298 O   0  0  0  0  0  0  0  0  0  0  0  0
   20.0021   -6.1822  -16.1651 N   0  0  0  0  0  0  0  0  0  0  0  0
   20.1309   -4.8122  -15.6901 C   0  0  0  0  0  0  0  0  0  0  0  0
   21.4079   -4.2067  -16.0717 C   0  0  0  0  0  0  0  0  0  0  0  0
   22.3287   -4.8538  -16.6817 O   0  0  0  0  0  0  0  0  0  0  0  0
   21.7085   -2.8841  -15.7959 O   0  0  0  0  0  0  0  0  0  0  0  0
  2  1  1  6
  3  2  1  0
  4  3  1  0
  5  7  1  0
  5  2  1  0
  6  5  2  0
  8  7  1  0
  8  9  1  1
  9 10  1  0
 10 11  2  0
 10 18  1  0
 11 12  1  0
 12 13  1  0
 13 14  2  0
 14 15  1  0
 16 15  2  0
 17 16  1  0
 18 17  2  0
 18 13  1  0
 19  8  1  0
 20 19  2  0
 21 19  1  0
 22 23  1  0
 22 21  1  0
 23 25  1  0
 24 23  2  0
M  END
$$$$
