CWG.pdb
     RDKit          3D

 25 26  0  0  1  0  0  0  0  0999 V2000
   28.0147  -21.4665  -15.0693 N   0  0  0  0  0  0  0  0  0  0  0  0
   27.9130  -20.4155  -14.0882 C   0  0  1  0  0  0  0  0  0  0  0  0
   27.3617  -19.1307  -14.6301 C   0  0  0  0  0  0  0  0  0  0  0  0
   28.6488  -18.3724  -15.6480 S   0  0  0  0  0  0  0  0  0  0  0  0
   27.1531  -20.9206  -12.9001 C   0  0  0  0  0  0  0  0  0  0  0  0
   26.1201  -21.6222  -13.0303 O   0  0  0  0  0  0  0  0  0  0  0  0
   27.5814  -20.6191  -11.5823 N   0  0  0  0  0  0  0  0  0  0  0  0
   26.8990  -20.9308  -10.3716 C   0  0  1  0  0  0  0  0  0  0  0  0
   27.7939  -20.7288   -9.1954 C   0  0  0  0  0  0  0  0  0  0  0  0
   27.0629  -20.7525   -7.9105 C   0  0  0  0  0  0  0  0  0  0  0  0
   25.7830  -21.2124   -7.6821 C   0  0  0  0  0  0  0  0  0  0  0  0
   25.5516  -21.0284   -6.3661 N   0  0  0  0  0  0  0  0  0  0  0  0
   26.6218  -20.4785   -5.7696 C   0  0  0  0  0  0  0  0  0  0  0  0
   26.8578  -20.1059   -4.4541 C   0  0  0  0  0  0  0  0  0  0  0  0
   28.0706  -19.5528   -4.1278 C   0  0  0  0  0  0  0  0  0  0  0  0
   29.0712  -19.3528   -5.0692 C   0  0  0  0  0  0  0  0  0  0  0  0
   28.8364  -19.7237   -6.3769 C   0  0  0  0  0  0  0  0  0  0  0  0
   27.6137  -20.2803   -6.7016 C   0  0  0  0  0  0  0  0  0  0  0  0
   25.6160  -20.1790  -10.2420 C   0  0  0  0  0  0  0  0  0  0  0  0
   25.6696  -18.9311  -10.3254 O   0  0  0  0  0  0  0  0  0  0  0  0
   24.3567  -20.7812  -10.0325 N   0  0  0  0  0  0  0  0  0  0  0  0
   23.1203  -20.0158  -10.1015 C   0  0  0  0  0  0  0  0  0  0  0  0
   22.1313  -20.6311  -10.9882 C   0  0  0  0  0  0  0  0  0  0  0  0
   22.4239  -21.0762  -12.1523 O   0  0  0  0  0  0  0  0  0  0  0  0
   20.8033  -20.7736  -10.6255 O   0  0  0  0  0  0  0  0  0  0  0  0
  2  1  1  6
  3  2  1  0
  4  3  1  0
  5  7  1  0
  5  2  1  0
  6  5  2  0
  8  7  1  0
  8  9  1  1
  9 10  1  0
 10 11  2  0
 10 18  1  0
 11 12  1  0
 12 13  1  0
 13 14  2  0
 14 15  1  0
 16 15  2  0
 17 16  1  0
 18 17  2  0
 18 13  1  0
 19  8  1  0
 20 19  2  0
 21 19  1  0
 22 23  1  0
 22 21  1  0
 23 25  1  0
 24 23  2  0
M  END
$$$$
