CWG.pdb
     RDKit          3D

 25 26  0  0  1  0  0  0  0  0999 V2000
   27.0165  -18.8287  -12.5007 N   0  0  0  0  0  0  0  0  0  0  0  0
   27.5707  -20.1581  -12.4484 C   0  0  1  0  0  0  0  0  0  0  0  0
   29.0663  -20.1966  -12.5491 C   0  0  0  0  0  0  0  0  0  0  0  0
   29.5063  -21.6171  -13.5769 S   0  0  0  0  0  0  0  0  0  0  0  0
   27.0501  -20.8630  -11.2333 C   0  0  0  0  0  0  0  0  0  0  0  0
   27.2829  -22.0797  -11.0291 O   0  0  0  0  0  0  0  0  0  0  0  0
   26.2728  -20.1715  -10.2697 N   0  0  0  0  0  0  0  0  0  0  0  0
   25.4075  -20.7502   -9.2976 C   0  0  1  0  0  0  0  0  0  0  0  0
   25.4806  -19.9967   -8.0122 C   0  0  0  0  0  0  0  0  0  0  0  0
   26.8663  -19.6483   -7.6322 C   0  0  0  0  0  0  0  0  0  0  0  0
   27.7748  -18.9088   -8.3598 C   0  0  0  0  0  0  0  0  0  0  0  0
   28.8969  -18.8600   -7.6130 N   0  0  0  0  0  0  0  0  0  0  0  0
   28.7291  -19.5311   -6.4619 C   0  0  0  0  0  0  0  0  0  0  0  0
   29.5824  -19.7611   -5.3924 C   0  0  0  0  0  0  0  0  0  0  0  0
   29.1302  -20.5014   -4.3291 C   0  0  0  0  0  0  0  0  0  0  0  0
   27.8468  -21.0291   -4.2859 C   0  0  0  0  0  0  0  0  0  0  0  0
   26.9985  -20.7999   -5.3492 C   0  0  0  0  0  0  0  0  0  0  0  0
   27.4576  -20.0540   -6.4182 C   0  0  0  0  0  0  0  0  0  0  0  0
   24.0076  -20.8786   -9.7992 C   0  0  0  0  0  0  0  0  0  0  0  0
   23.1094  -21.0836   -8.9516 O   0  0  0  0  0  0  0  0  0  0  0  0
   23.6356  -20.7850  -11.1576 N   0  0  0  0  0  0  0  0  0  0  0  0
   22.2576  -20.9697  -11.5893 C   0  0  0  0  0  0  0  0  0  0  0  0
   22.0905  -20.7601  -13.0284 C   0  0  0  0  0  0  0  0  0  0  0  0
   22.9088  -21.2226  -13.8974 O   0  0  0  0  0  0  0  0  0  0  0  0
   21.0289  -20.0417  -13.5505 O   0  0  0  0  0  0  0  0  0  0  0  0
  2  1  1  1
  3  2  1  0
  4  3  1  0
  5  7  1  0
  5  2  1  0
  6  5  2  0
  8  7  1  0
  8  9  1  1
  9 10  1  0
 10 11  2  0
 10 18  1  0
 11 12  1  0
 12 13  1  0
 13 14  2  0
 14 15  1  0
 16 15  2  0
 17 16  1  0
 18 17  2  0
 18 13  1  0
 19  8  1  0
 20 19  2  0
 21 19  1  0
 22 23  1  0
 22 21  1  0
 23 25  1  0
 24 23  2  0
M  END
$$$$
