CWG.pdb
     RDKit          3D

 25 26  0  0  1  0  0  0  0  0999 V2000
   22.7175  -14.4480  -19.2942 N   0  0  0  0  0  0  0  0  0  0  0  0
   21.6789  -14.7671  -18.3473 C   0  0  1  0  0  0  0  0  0  0  0  0
   20.3784  -14.0704  -18.6150 C   0  0  0  0  0  0  0  0  0  0  0  0
   20.5494  -12.3621  -18.0490 S   0  0  0  0  0  0  0  0  0  0  0  0
   21.5346  -16.2554  -18.2550 C   0  0  0  0  0  0  0  0  0  0  0  0
   21.2124  -16.9474  -19.2518 O   0  0  0  0  0  0  0  0  0  0  0  0
   21.7594  -16.9323  -17.0294 N   0  0  0  0  0  0  0  0  0  0  0  0
   21.7164  -18.3392  -16.8120 C   0  0  1  0  0  0  0  0  0  0  0  0
   23.0899  -18.8819  -16.6012 C   0  0  0  0  0  0  0  0  0  0  0  0
   23.9222  -18.8201  -17.8215 C   0  0  0  0  0  0  0  0  0  0  0  0
   24.9156  -17.9095  -18.1139 C   0  0  0  0  0  0  0  0  0  0  0  0
   25.3850  -18.2502  -19.3316 N   0  0  0  0  0  0  0  0  0  0  0  0
   24.7332  -19.3238  -19.8069 C   0  0  0  0  0  0  0  0  0  0  0  0
   24.8559  -20.0293  -20.9953 C   0  0  0  0  0  0  0  0  0  0  0  0
   24.0350  -21.1067  -21.2160 C   0  0  0  0  0  0  0  0  0  0  0  0
   23.0846  -21.5161  -20.2905 C   0  0  0  0  0  0  0  0  0  0  0  0
   22.9631  -20.8147  -19.1089 C   0  0  0  0  0  0  0  0  0  0  0  0
   23.7915  -19.7303  -18.8904 C   0  0  0  0  0  0  0  0  0  0  0  0
   20.7866  -18.7068  -15.7038 C   0  0  0  0  0  0  0  0  0  0  0  0
   20.8220  -18.0062  -14.6669 O   0  0  0  0  0  0  0  0  0  0  0  0
   19.8778  -19.7858  -15.7502 N   0  0  0  0  0  0  0  0  0  0  0  0
   18.9699  -20.0711  -14.6485 C   0  0  0  0  0  0  0  0  0  0  0  0
   19.5938  -20.8919  -13.6092 C   0  0  0  0  0  0  0  0  0  0  0  0
   20.8283  -21.2295  -13.6384 O   0  0  0  0  0  0  0  0  0  0  0  0
   18.8856  -21.3623  -12.5171 O   0  0  0  0  0  0  0  0  0  0  0  0
  2  1  1  6
  3  2  1  0
  4  3  1  0
  5  7  1  0
  5  2  1  0
  6  5  2  0
  8  7  1  0
  8  9  1  1
  9 10  1  0
 10 11  2  0
 10 18  1  0
 11 12  1  0
 12 13  1  0
 13 14  2  0
 14 15  1  0
 16 15  2  0
 17 16  1  0
 18 17  2  0
 18 13  1  0
 19  8  1  0
 20 19  2  0
 21 19  1  0
 22 23  1  0
 22 21  1  0
 23 25  1  0
 24 23  2  0
M  END
$$$$
