CWG.pdb
     RDKit          3D

 25 26  0  0  1  0  0  0  0  0999 V2000
   27.3630  -21.5340  -15.2333 N   0  0  0  0  0  0  0  0  0  0  0  0
   27.5850  -20.6240  -14.1380 C   0  0  1  0  0  0  0  0  0  0  0  0
   27.2261  -19.2016  -14.4484 C   0  0  0  0  0  0  0  0  0  0  0  0
   28.6373  -18.4570  -15.2980 S   0  0  0  0  0  0  0  0  0  0  0  0
   26.8952  -21.1455  -12.9147 C   0  0  0  0  0  0  0  0  0  0  0  0
   25.8017  -21.7580  -12.9876 O   0  0  0  0  0  0  0  0  0  0  0  0
   27.4613  -20.9616  -11.6276 N   0  0  0  0  0  0  0  0  0  0  0  0
   26.7747  -21.0014  -10.3804 C   0  0  1  0  0  0  0  0  0  0  0  0
   27.6853  -20.6119   -9.2650 C   0  0  0  0  0  0  0  0  0  0  0  0
   27.0117  -20.6180   -7.9489 C   0  0  0  0  0  0  0  0  0  0  0  0
   25.6962  -20.9335   -7.6815 C   0  0  0  0  0  0  0  0  0  0  0  0
   25.5447  -20.7949   -6.3485 N   0  0  0  0  0  0  0  0  0  0  0  0
   26.6980  -20.4100   -5.7783 C   0  0  0  0  0  0  0  0  0  0  0  0
   27.0329  -20.1402   -4.4592 C   0  0  0  0  0  0  0  0  0  0  0  0
   28.3167  -19.7544   -4.1654 C   0  0  0  0  0  0  0  0  0  0  0  0
   29.2936  -19.6244   -5.1433 C   0  0  0  0  0  0  0  0  0  0  0  0
   28.9604  -19.8931   -6.4546 C   0  0  0  0  0  0  0  0  0  0  0  0
   27.6665  -20.2812   -6.7465 C   0  0  0  0  0  0  0  0  0  0  0  0
   25.5254  -20.1848  -10.4023 C   0  0  0  0  0  0  0  0  0  0  0  0
   25.6407  -18.9522  -10.2163 O   0  0  0  0  0  0  0  0  0  0  0  0
   24.2330  -20.7102  -10.6169 N   0  0  0  0  0  0  0  0  0  0  0  0
   23.0703  -19.8472  -10.7676 C   0  0  0  0  0  0  0  0  0  0  0  0
   21.8402  -20.6043  -11.0058 C   0  0  0  0  0  0  0  0  0  0  0  0
   21.8203  -21.8793  -11.1192 O   0  0  0  0  0  0  0  0  0  0  0  0
   20.6068  -19.9881  -11.1261 O   0  0  0  0  0  0  0  0  0  0  0  0
  2  1  1  6
  3  2  1  0
  4  3  1  0
  5  7  1  0
  5  2  1  0
  6  5  2  0
  8  7  1  0
  8  9  1  1
  9 10  1  0
 10 11  2  0
 10 18  1  0
 11 12  1  0
 12 13  1  0
 13 14  2  0
 14 15  1  0
 16 15  2  0
 17 16  1  0
 18 17  2  0
 18 13  1  0
 19  8  1  0
 20 19  2  0
 21 19  1  0
 22 23  1  0
 22 21  1  0
 23 25  1  0
 24 23  2  0
M  END
$$$$
