CWG.pdb
     RDKit          3D

 25 26  0  0  1  0  0  0  0  0999 V2000
   26.4016  -21.2063  -11.9446 N   0  0  0  0  0  0  0  0  0  0  0  0
   25.1047  -20.9408  -11.3746 C   0  0  1  0  0  0  0  0  0  0  0  0
   25.1538  -20.1881  -10.0787 C   0  0  0  0  0  0  0  0  0  0  0  0
   25.8006  -21.3128   -8.8200 S   0  0  0  0  0  0  0  0  0  0  0  0
   24.2400  -20.2767  -12.4020 C   0  0  0  0  0  0  0  0  0  0  0  0
   24.5260  -19.1479  -12.8714 O   0  0  0  0  0  0  0  0  0  0  0  0
   23.0633  -20.9082  -12.8789 N   0  0  0  0  0  0  0  0  0  0  0  0
   22.1468  -20.3906  -13.8385 C   0  0  1  0  0  0  0  0  0  0  0  0
   22.3205  -21.0721  -15.1540 C   0  0  0  0  0  0  0  0  0  0  0  0
   23.5141  -20.6010  -15.8882 C   0  0  0  0  0  0  0  0  0  0  0  0
   24.7613  -21.1883  -15.9264 C   0  0  0  0  0  0  0  0  0  0  0  0
   25.5183  -20.4012  -16.7181 N   0  0  0  0  0  0  0  0  0  0  0  0
   24.8039  -19.3581  -17.1708 C   0  0  0  0  0  0  0  0  0  0  0  0
   25.1401  -18.2959  -17.9976 C   0  0  0  0  0  0  0  0  0  0  0  0
   24.1847  -17.3562  -18.2935 C   0  0  0  0  0  0  0  0  0  0  0  0
   22.8916  -17.4313  -17.7938 C   0  0  0  0  0  0  0  0  0  0  0  0
   22.5575  -18.4878  -16.9721 C   0  0  0  0  0  0  0  0  0  0  0  0
   23.5225  -19.4319  -16.6764 C   0  0  0  0  0  0  0  0  0  0  0  0
   20.7362  -20.4477  -13.3536 C   0  0  0  0  0  0  0  0  0  0  0  0
   20.3419  -21.5271  -12.8571 O   0  0  0  0  0  0  0  0  0  0  0  0
   19.8262  -19.3708  -13.4197 N   0  0  0  0  0  0  0  0  0  0  0  0
   18.3971  -19.5848  -13.5963 C   0  0  0  0  0  0  0  0  0  0  0  0
   17.8085  -20.3571  -12.5008 C   0  0  0  0  0  0  0  0  0  0  0  0
   17.1173  -19.8211  -11.5661 O   0  0  0  0  0  0  0  0  0  0  0  0
   17.9616  -21.7290  -12.4005 O   0  0  0  0  0  0  0  0  0  0  0  0
  2  1  1  6
  3  2  1  0
  4  3  1  0
  5  7  1  0
  5  2  1  0
  6  5  2  0
  8  7  1  0
  8  9  1  6
  9 10  1  0
 10 11  2  0
 10 18  1  0
 11 12  1  0
 12 13  1  0
 13 14  2  0
 14 15  1  0
 16 15  2  0
 17 16  1  0
 18 17  2  0
 18 13  1  0
 19  8  1  0
 20 19  2  0
 21 19  1  0
 22 23  1  0
 22 21  1  0
 23 25  1  0
 24 23  2  0
M  END
$$$$
