CWG.pdb
     RDKit          3D

 25 26  0  0  1  0  0  0  0  0999 V2000
   26.8735  -19.3416  -14.1929 N   0  0  0  0  0  0  0  0  0  0  0  0
   26.7617  -20.7657  -14.3845 C   0  0  1  0  0  0  0  0  0  0  0  0
   28.0636  -21.4399  -14.6988 C   0  0  0  0  0  0  0  0  0  0  0  0
   28.7977  -20.5766  -16.1072 S   0  0  0  0  0  0  0  0  0  0  0  0
   26.0625  -21.3695  -13.2051 C   0  0  0  0  0  0  0  0  0  0  0  0
   25.8138  -22.5988  -13.1471 O   0  0  0  0  0  0  0  0  0  0  0  0
   25.6575  -20.5643  -12.1104 N   0  0  0  0  0  0  0  0  0  0  0  0
   24.9477  -20.9937  -10.9526 C   0  0  1  0  0  0  0  0  0  0  0  0
   25.4721  -20.3160   -9.7316 C   0  0  0  0  0  0  0  0  0  0  0  0
   26.8821  -20.6593   -9.4487 C   0  0  0  0  0  0  0  0  0  0  0  0
   27.7134  -21.4700  -10.1927 C   0  0  0  0  0  0  0  0  0  0  0  0
   28.8952  -21.4860   -9.5429 N   0  0  0  0  0  0  0  0  0  0  0  0
   28.8373  -20.7277   -8.4360 C   0  0  0  0  0  0  0  0  0  0  0  0
   29.7816  -20.4409   -7.4609 C   0  0  0  0  0  0  0  0  0  0  0  0
   29.4320  -19.6188   -6.4191 C   0  0  0  0  0  0  0  0  0  0  0  0
   28.1647  -19.0633   -6.3065 C   0  0  0  0  0  0  0  0  0  0  0  0
   27.2261  -19.3484   -7.2764 C   0  0  0  0  0  0  0  0  0  0  0  0
   27.5820  -20.1767   -8.3239 C   0  0  0  0  0  0  0  0  0  0  0  0
   23.4725  -20.8235  -11.1046 C   0  0  0  0  0  0  0  0  0  0  0  0
   22.7586  -21.0768  -10.1080 O   0  0  0  0  0  0  0  0  0  0  0  0
   22.8370  -20.3990  -12.2913 N   0  0  0  0  0  0  0  0  0  0  0  0
   21.4027  -20.1565  -12.3479 C   0  0  0  0  0  0  0  0  0  0  0  0
   20.6541  -21.3350  -12.7880 C   0  0  0  0  0  0  0  0  0  0  0  0
   21.2213  -22.4310  -13.1284 O   0  0  0  0  0  0  0  0  0  0  0  0
   19.2723  -21.3437  -12.8671 O   0  0  0  0  0  0  0  0  0  0  0  0
  2  1  1  1
  3  2  1  0
  4  3  1  0
  5  7  1  0
  5  2  1  0
  6  5  2  0
  8  7  1  0
  8  9  1  1
  9 10  1  0
 10 11  2  0
 10 18  1  0
 11 12  1  0
 12 13  1  0
 13 14  2  0
 14 15  1  0
 16 15  2  0
 17 16  1  0
 18 17  2  0
 18 13  1  0
 19  8  1  0
 20 19  2  0
 21 19  1  0
 22 23  1  0
 22 21  1  0
 23 25  1  0
 24 23  2  0
M  END
$$$$
