CWG.pdb
     RDKit          3D

 25 26  0  0  1  0  0  0  0  0999 V2000
   24.3569  -11.9543  -16.3215 N   0  0  0  0  0  0  0  0  0  0  0  0
   24.4819  -10.6627  -15.6943 C   0  0  1  0  0  0  0  0  0  0  0  0
   25.7637   -9.9538  -16.0150 C   0  0  0  0  0  0  0  0  0  0  0  0
   27.0940  -10.8137  -15.1439 S   0  0  0  0  0  0  0  0  0  0  0  0
   23.2682   -9.8421  -16.0068 C   0  0  0  0  0  0  0  0  0  0  0  0
   22.8593   -9.6958  -17.1848 O   0  0  0  0  0  0  0  0  0  0  0  0
   22.5389   -9.2012  -14.9732 N   0  0  0  0  0  0  0  0  0  0  0  0
   21.3287   -8.4637  -15.1145 C   0  0  1  0  0  0  0  0  0  0  0  0
   20.2024   -9.1635  -14.4311 C   0  0  0  0  0  0  0  0  0  0  0  0
   19.7463  -10.3634  -15.1645 C   0  0  0  0  0  0  0  0  0  0  0  0
   19.9611  -11.6836  -14.8287 C   0  0  0  0  0  0  0  0  0  0  0  0
   19.3629  -12.4139  -15.7921 N   0  0  0  0  0  0  0  0  0  0  0  0
   18.7899  -11.6136  -16.7058 C   0  0  0  0  0  0  0  0  0  0  0  0
   18.0738  -11.8929  -17.8609 C   0  0  0  0  0  0  0  0  0  0  0  0
   17.6012  -10.8503  -18.6177 C   0  0  0  0  0  0  0  0  0  0  0  0
   17.8147   -9.5239  -18.2677 C   0  0  0  0  0  0  0  0  0  0  0  0
   18.5264   -9.2466  -17.1190 C   0  0  0  0  0  0  0  0  0  0  0  0
   19.0008  -10.2993  -16.3595 C   0  0  0  0  0  0  0  0  0  0  0  0
   21.4772   -7.0505  -14.6575 C   0  0  0  0  0  0  0  0  0  0  0  0
   21.9531   -6.8624  -13.5150 O   0  0  0  0  0  0  0  0  0  0  0  0
   21.1174   -5.9221  -15.4255 N   0  0  0  0  0  0  0  0  0  0  0  0
   21.2449   -4.5686  -14.9051 C   0  0  0  0  0  0  0  0  0  0  0  0
   22.4773   -3.9140  -15.3476 C   0  0  0  0  0  0  0  0  0  0  0  0
   23.3828   -4.5199  -16.0198 O   0  0  0  0  0  0  0  0  0  0  0  0
   22.7490   -2.5864  -15.0665 O   0  0  0  0  0  0  0  0  0  0  0  0
  2  1  1  6
  3  2  1  0
  4  3  1  0
  5  7  1  0
  5  2  1  0
  6  5  2  0
  8  7  1  0
  8  9  1  1
  9 10  1  0
 10 11  2  0
 10 18  1  0
 11 12  1  0
 12 13  1  0
 13 14  2  0
 14 15  1  0
 16 15  2  0
 17 16  1  0
 18 17  2  0
 18 13  1  0
 19  8  1  0
 20 19  2  0
 21 19  1  0
 22 23  1  0
 22 21  1  0
 23 25  1  0
 24 23  2  0
M  END
$$$$
