CWG.pdb
     RDKit          3D

 25 26  0  0  1  0  0  0  0  0999 V2000
   40.4589   -4.6548  -14.4072 N   0  0  0  0  0  0  0  0  0  0  0  0
   40.4779   -5.9472  -13.7696 C   0  0  1  0  0  0  0  0  0  0  0  0
   41.7471   -6.7144  -13.9905 C   0  0  0  0  0  0  0  0  0  0  0  0
   43.1233   -5.6291  -13.5482 S   0  0  0  0  0  0  0  0  0  0  0  0
   40.1383   -5.7876  -12.3192 C   0  0  0  0  0  0  0  0  0  0  0  0
   40.4158   -4.7365  -11.6911 O   0  0  0  0  0  0  0  0  0  0  0  0
   39.4880   -6.8271  -11.6068 N   0  0  0  0  0  0  0  0  0  0  0  0
   39.2072   -6.8580  -10.2108 C   0  0  1  0  0  0  0  0  0  0  0  0
   37.9756   -7.6544   -9.9387 C   0  0  0  0  0  0  0  0  0  0  0  0
   37.5403   -7.5695   -8.5284 C   0  0  0  0  0  0  0  0  0  0  0  0
   37.1267   -6.4456   -7.8446 C   0  0  0  0  0  0  0  0  0  0  0  0
   36.8351   -6.8582   -6.5940 N   0  0  0  0  0  0  0  0  0  0  0  0
   37.0472   -8.1784   -6.4694 C   0  0  0  0  0  0  0  0  0  0  0  0
   36.8957   -9.0423   -5.3944 C   0  0  0  0  0  0  0  0  0  0  0  0
   37.1985  -10.3703   -5.5616 C   0  0  0  0  0  0  0  0  0  0  0  0
   37.6519  -10.8805   -6.7705 C   0  0  0  0  0  0  0  0  0  0  0  0
   37.8022  -10.0214   -7.8393 C   0  0  0  0  0  0  0  0  0  0  0  0
   37.4962   -8.6848   -7.6669 C   0  0  0  0  0  0  0  0  0  0  0  0
   40.3764   -7.3344   -9.4145 C   0  0  0  0  0  0  0  0  0  0  0  0
   40.9885   -8.3413   -9.8373 O   0  0  0  0  0  0  0  0  0  0  0  0
   40.8314   -6.7268   -8.2245 N   0  0  0  0  0  0  0  0  0  0  0  0
   42.0102   -7.2094   -7.5198 C   0  0  0  0  0  0  0  0  0  0  0  0
   42.3096   -6.4181   -6.3252 C   0  0  0  0  0  0  0  0  0  0  0  0
   41.9805   -6.7898   -5.1452 O   0  0  0  0  0  0  0  0  0  0  0  0
   42.9729   -5.2051   -6.3914 O   0  0  0  0  0  0  0  0  0  0  0  0
  2  1  1  1
  3  2  1  0
  4  3  1  0
  5  7  1  0
  5  2  1  0
  6  5  2  0
  8  7  1  0
  8  9  1  6
  9 10  1  0
 10 11  2  0
 10 18  1  0
 11 12  1  0
 12 13  1  0
 13 14  2  0
 14 15  1  0
 16 15  2  0
 17 16  1  0
 18 17  2  0
 18 13  1  0
 19  8  1  0
 20 19  2  0
 21 19  1  0
 22 23  1  0
 22 21  1  0
 23 25  1  0
 24 23  2  0
M  END
$$$$
