CWG.pdb
     RDKit          3D

 25 26  0  0  1  0  0  0  0  0999 V2000
   20.0425  -11.8369  -16.4120 N   0  0  0  0  0  0  0  0  0  0  0  0
   19.4901  -10.5252  -16.1850 C   0  0  1  0  0  0  0  0  0  0  0  0
   18.5855  -10.4457  -14.9917 C   0  0  0  0  0  0  0  0  0  0  0  0
   17.0633  -11.3298  -15.4027 S   0  0  0  0  0  0  0  0  0  0  0  0
   20.6016   -9.5218  -16.1416 C   0  0  0  0  0  0  0  0  0  0  0  0
   21.7096   -9.7906  -15.6158 O   0  0  0  0  0  0  0  0  0  0  0  0
   20.4343   -8.2280  -16.6976 N   0  0  0  0  0  0  0  0  0  0  0  0
   21.4151   -7.1979  -16.7707 C   0  0  1  0  0  0  0  0  0  0  0  0
   21.3771   -6.5278  -18.1029 C   0  0  0  0  0  0  0  0  0  0  0  0
   21.7621   -7.4312  -19.2080 C   0  0  0  0  0  0  0  0  0  0  0  0
   22.7327   -8.4106  -19.1912 C   0  0  0  0  0  0  0  0  0  0  0  0
   22.7223   -8.9649  -20.4208 N   0  0  0  0  0  0  0  0  0  0  0  0
   21.7959   -8.3788  -21.1966 C   0  0  0  0  0  0  0  0  0  0  0  0
   21.4200   -8.5973  -22.5141 C   0  0  0  0  0  0  0  0  0  0  0  0
   20.4223   -7.8270  -23.0566 C   0  0  0  0  0  0  0  0  0  0  0  0
   19.7748   -6.8352  -22.3324 C   0  0  0  0  0  0  0  0  0  0  0  0
   20.1485   -6.6185  -21.0223 C   0  0  0  0  0  0  0  0  0  0  0  0
   21.1538   -7.3962  -20.4795 C   0  0  0  0  0  0  0  0  0  0  0  0
   21.2917   -6.2258  -15.6447 C   0  0  0  0  0  0  0  0  0  0  0  0
   20.2362   -5.5562  -15.5759 O   0  0  0  0  0  0  0  0  0  0  0  0
   22.2819   -6.0152  -14.6611 N   0  0  0  0  0  0  0  0  0  0  0  0
   22.0698   -5.1083  -13.5421 C   0  0  0  0  0  0  0  0  0  0  0  0
   21.9967   -3.7085  -13.9640 C   0  0  0  0  0  0  0  0  0  0  0  0
   22.1269   -3.3430  -15.1840 O   0  0  0  0  0  0  0  0  0  0  0  0
   21.7811   -2.6779  -13.0657 O   0  0  0  0  0  0  0  0  0  0  0  0
  2  1  1  1
  3  2  1  0
  4  3  1  0
  5  7  1  0
  5  2  1  0
  6  5  2  0
  8  7  1  0
  8  9  1  6
  9 10  1  0
 10 11  2  0
 10 18  1  0
 11 12  1  0
 12 13  1  0
 13 14  2  0
 14 15  1  0
 16 15  2  0
 17 16  1  0
 18 17  2  0
 18 13  1  0
 19  8  1  0
 20 19  2  0
 21 19  1  0
 22 23  1  0
 22 21  1  0
 23 25  1  0
 24 23  2  0
M  END
$$$$
