CWG.pdb
     RDKit          3D

 25 26  0  0  1  0  0  0  0  0999 V2000
   27.0981  -22.8380  -16.8012 N   0  0  0  0  0  0  0  0  0  0  0  0
   27.6226  -21.8879  -15.8528 C   0  0  1  0  0  0  0  0  0  0  0  0
   27.7745  -20.5015  -16.4034 C   0  0  0  0  0  0  0  0  0  0  0  0
   26.1188  -19.7925  -16.5577 S   0  0  0  0  0  0  0  0  0  0  0  0
   26.7984  -21.9314  -14.6026 C   0  0  0  0  0  0  0  0  0  0  0  0
   25.6341  -22.4012  -14.5990 O   0  0  0  0  0  0  0  0  0  0  0  0
   27.3128  -21.4395  -13.3761 N   0  0  0  0  0  0  0  0  0  0  0  0
   26.6612  -21.4574  -12.1097 C   0  0  1  0  0  0  0  0  0  0  0  0
   27.6161  -21.1004  -11.0208 C   0  0  0  0  0  0  0  0  0  0  0  0
   26.9381  -20.8023   -9.7413 C   0  0  0  0  0  0  0  0  0  0  0  0
   25.5807  -20.7441   -9.5051 C   0  0  0  0  0  0  0  0  0  0  0  0
   25.4438  -20.4381   -8.1986 N   0  0  0  0  0  0  0  0  0  0  0  0
   26.6460  -20.3038   -7.6153 C   0  0  0  0  0  0  0  0  0  0  0  0
   27.0132  -19.9967   -6.3131 C   0  0  0  0  0  0  0  0  0  0  0  0
   28.3471  -19.9228   -5.9990 C   0  0  0  0  0  0  0  0  0  0  0  0
   29.3434  -20.1447   -6.9399 C   0  0  0  0  0  0  0  0  0  0  0  0
   28.9780  -20.4504   -8.2345 C   0  0  0  0  0  0  0  0  0  0  0  0
   27.6338  -20.5239   -8.5469 C   0  0  0  0  0  0  0  0  0  0  0  0
   25.4404  -20.5986  -12.0957 C   0  0  0  0  0  0  0  0  0  0  0  0
   25.5579  -19.4248  -12.5148 O   0  0  0  0  0  0  0  0  0  0  0  0
   24.1725  -21.0225  -11.6429 N   0  0  0  0  0  0  0  0  0  0  0  0
   22.9973  -20.1695  -11.7459 C   0  0  0  0  0  0  0  0  0  0  0  0
   22.2009  -20.4580  -12.9399 C   0  0  0  0  0  0  0  0  0  0  0  0
   22.6322  -20.2557  -14.1281 O   0  0  0  0  0  0  0  0  0  0  0  0
   20.9181  -20.9720  -12.8640 O   0  0  0  0  0  0  0  0  0  0  0  0
  2  1  1  6
  3  2  1  0
  4  3  1  0
  5  7  1  0
  5  2  1  0
  6  5  2  0
  8  7  1  0
  8  9  1  1
  9 10  1  0
 10 11  2  0
 10 18  1  0
 11 12  1  0
 12 13  1  0
 13 14  2  0
 14 15  1  0
 16 15  2  0
 17 16  1  0
 18 17  2  0
 18 13  1  0
 19  8  1  0
 20 19  2  0
 21 19  1  0
 22 23  1  0
 22 21  1  0
 23 25  1  0
 24 23  2  0
M  END
$$$$
