WGF.pdb
     RDKit          3D

 30 32  0  0  1  0  0  0  0  0999 V2000
    8.8362  -18.2312   21.3884 N   0  0  0  0  0  0  0  0  0  0  0  0
    9.9043  -17.5742   22.1080 C   0  0  1  0  0  0  0  0  0  0  0  0
    9.9127  -16.0875   21.9146 C   0  0  0  0  0  0  0  0  0  0  0  0
    8.6059  -15.5129   21.5184 C   0  0  0  0  0  0  0  0  0  0  0  0
    7.3755  -15.9478   22.0285 C   0  0  0  0  0  0  0  0  0  0  0  0
    6.3917  -15.2379   21.4519 N   0  0  0  0  0  0  0  0  0  0  0  0
    6.8911  -14.3465   20.5801 C   0  0  0  0  0  0  0  0  0  0  0  0
    6.2888  -13.4126   19.7685 C   0  0  0  0  0  0  0  0  0  0  0  0
    7.0726  -12.6158   18.9675 C   0  0  0  0  0  0  0  0  0  0  0  0
    8.4386  -12.7909   19.0149 C   0  0  0  0  0  0  0  0  0  0  0  0
    9.0544  -13.7298   19.8298 C   0  0  0  0  0  0  0  0  0  0  0  0
    8.2799  -14.5193   20.6225 C   0  0  0  0  0  0  0  0  0  0  0  0
    9.9044  -17.9645   23.5366 C   0  0  0  0  0  0  0  0  0  0  0  0
    8.8184  -18.0330   24.1460 O   0  0  0  0  0  0  0  0  0  0  0  0
   11.1089  -18.2598   24.2201 N   0  0  0  0  0  0  0  0  0  0  0  0
   12.1974  -17.3247   24.3529 C   0  0  0  0  0  0  0  0  0  0  0  0
   12.2632  -16.7029   25.6930 C   0  0  0  0  0  0  0  0  0  0  0  0
   13.3185  -16.0943   26.0820 O   0  0  0  0  0  0  0  0  0  0  0  0
   11.1867  -16.7445   26.6115 N   0  0  0  0  0  0  0  0  0  0  0  0
   11.3287  -16.2600   27.9485 C   0  0  1  0  0  0  0  0  0  0  0  0
   11.1944  -14.7920   28.1335 C   0  0  0  0  0  0  0  0  0  0  0  0
    9.8337  -14.3715   27.7518 C   0  0  0  0  0  0  0  0  0  0  0  0
    9.0099  -13.6753   28.6022 C   0  0  0  0  0  0  0  0  0  0  0  0
    7.7556  -13.3225   28.1661 C   0  0  0  0  0  0  0  0  0  0  0  0
    7.2944  -13.6422   26.9059 C   0  0  0  0  0  0  0  0  0  0  0  0
    8.1190  -14.3391   26.0547 C   0  0  0  0  0  0  0  0  0  0  0  0
    9.3765  -14.6920   26.4939 C   0  0  0  0  0  0  0  0  0  0  0  0
   10.3421  -17.0065   28.8149 C   0  0  0  0  0  0  0  0  0  0  0  0
    9.5023  -17.7598   28.2611 O   0  0  0  0  0  0  0  0  0  0  0  0
   10.3267  -16.8921   30.1857 O   0  0  0  0  0  0  0  0  0  0  0  0
  2  1  1  1
  2 13  1  0
  2  3  1  0
  3  4  1  0
  4  5  2  0
  5  6  1  0
  7  6  1  0
  8  7  2  0
  9  8  1  0
 10 11  1  0
 10  9  2  0
 11 12  2  0
 12  4  1  0
 12  7  1  0
 13 15  1  0
 14 13  2  0
 15 16  1  0
 17 18  2  0
 17 16  1  0
 19 17  1  0
 20 21  1  6
 20 19  1  0
 21 22  1  0
 22 23  2  0
 23 24  1  0
 25 24  2  0
 26 25  1  0
 27 26  2  0
 27 22  1  0
 28 30  1  0
 28 20  1  0
 29 28  2  0
M  END
$$$$
