WGF.pdb
     RDKit          3D

 30 32  0  0  1  0  0  0  0  0999 V2000
    7.3234  -17.3542   23.2837 N   0  0  0  0  0  0  0  0  0  0  0  0
    8.2613  -16.2880   23.0121 C   0  0  1  0  0  0  0  0  0  0  0  0
    8.7110  -15.5740   24.2512 C   0  0  0  0  0  0  0  0  0  0  0  0
    7.6136  -14.9781   25.0485 C   0  0  0  0  0  0  0  0  0  0  0  0
    6.5856  -15.7236   25.6405 C   0  0  0  0  0  0  0  0  0  0  0  0
    5.7480  -14.8834   26.2704 N   0  0  0  0  0  0  0  0  0  0  0  0
    6.1550  -13.6105   26.1363 C   0  0  0  0  0  0  0  0  0  0  0  0
    5.6371  -12.4226   26.5992 C   0  0  0  0  0  0  0  0  0  0  0  0
    6.2871  -11.2475   26.3034 C   0  0  0  0  0  0  0  0  0  0  0  0
    7.4387  -11.3143   25.5495 C   0  0  0  0  0  0  0  0  0  0  0  0
    7.9679  -12.5071   25.0784 C   0  0  0  0  0  0  0  0  0  0  0  0
    7.3253  -13.6706   25.3700 C   0  0  0  0  0  0  0  0  0  0  0  0
    9.3933  -16.7701   22.1878 C   0  0  0  0  0  0  0  0  0  0  0  0
    9.5748  -16.2737   21.0581 O   0  0  0  0  0  0  0  0  0  0  0  0
   10.2691  -17.7793   22.6563 N   0  0  0  0  0  0  0  0  0  0  0  0
   11.6973  -17.7433   22.4666 C   0  0  0  0  0  0  0  0  0  0  0  0
   12.4432  -17.5763   23.7325 C   0  0  0  0  0  0  0  0  0  0  0  0
   13.7213  -17.6131   23.7499 O   0  0  0  0  0  0  0  0  0  0  0  0
   11.8030  -17.3734   24.9788 N   0  0  0  0  0  0  0  0  0  0  0  0
   12.4872  -17.5980   26.2133 C   0  0  1  0  0  0  0  0  0  0  0  0
   12.9785  -16.3882   26.9222 C   0  0  0  0  0  0  0  0  0  0  0  0
   11.8659  -15.4368   27.0985 C   0  0  0  0  0  0  0  0  0  0  0  0
   11.3649  -14.6862   26.0631 C   0  0  0  0  0  0  0  0  0  0  0  0
   10.3263  -13.8226   26.3148 C   0  0  0  0  0  0  0  0  0  0  0  0
    9.7691  -13.6826   27.5690 C   0  0  0  0  0  0  0  0  0  0  0  0
   10.2707  -14.4340   28.6053 C   0  0  0  0  0  0  0  0  0  0  0  0
   11.3123  -15.2994   28.3509 C   0  0  0  0  0  0  0  0  0  0  0  0
   11.5768  -18.4127   27.1015 C   0  0  0  0  0  0  0  0  0  0  0  0
   12.0250  -18.8389   28.1955 O   0  0  0  0  0  0  0  0  0  0  0  0
   10.2777  -18.7071   26.7582 O   0  0  0  0  0  0  0  0  0  0  0  0
  2  1  1  1
  2 13  1  0
  2  3  1  0
  3  4  1  0
  4  5  2  0
  5  6  1  0
  7  6  1  0
  8  7  2  0
  9  8  1  0
 10 11  1  0
 10  9  2  0
 11 12  2  0
 12  4  1  0
 12  7  1  0
 13 15  1  0
 14 13  2  0
 15 16  1  0
 17 18  2  0
 17 16  1  0
 19 17  1  0
 20 21  1  1
 20 19  1  0
 21 22  1  0
 22 23  2  0
 23 24  1  0
 25 24  2  0
 26 25  1  0
 27 26  2  0
 27 22  1  0
 28 30  1  0
 28 20  1  0
 29 28  2  0
M  END
$$$$
