WGF.pdb
     RDKit          3D

 30 32  0  0  1  0  0  0  0  0999 V2000
    8.5218  -16.7334   25.4480 N   0  0  0  0  0  0  0  0  0  0  0  0
    7.3012  -17.3184   24.9399 C   0  0  1  0  0  0  0  0  0  0  0  0
    6.5842  -16.4274   23.9705 C   0  0  0  0  0  0  0  0  0  0  0  0
    7.0612  -15.0248   23.9578 C   0  0  0  0  0  0  0  0  0  0  0  0
    7.8999  -14.4948   22.9685 C   0  0  0  0  0  0  0  0  0  0  0  0
    8.1584  -13.2098   23.2618 N   0  0  0  0  0  0  0  0  0  0  0  0
    7.5391  -12.8428   24.3958 C   0  0  0  0  0  0  0  0  0  0  0  0
    7.5006  -11.6505   25.0817 C   0  0  0  0  0  0  0  0  0  0  0  0
    6.7610  -11.5660   26.2378 C   0  0  0  0  0  0  0  0  0  0  0  0
    6.0856  -12.6905   26.6605 C   0  0  0  0  0  0  0  0  0  0  0  0
    6.1189  -13.8966   25.9756 C   0  0  0  0  0  0  0  0  0  0  0  0
    6.8510  -13.9816   24.8317 C   0  0  0  0  0  0  0  0  0  0  0  0
    7.5450  -18.6744   24.3968 C   0  0  0  0  0  0  0  0  0  0  0  0
    6.8084  -19.1040   23.4866 O   0  0  0  0  0  0  0  0  0  0  0  0
    8.5938  -19.4883   24.8894 N   0  0  0  0  0  0  0  0  0  0  0  0
    9.8700  -19.6238   24.2336 C   0  0  0  0  0  0  0  0  0  0  0  0
   10.9884  -19.0733   25.0291 C   0  0  0  0  0  0  0  0  0  0  0  0
   12.2024  -19.2924   24.6921 O   0  0  0  0  0  0  0  0  0  0  0  0
   10.7901  -18.2892   26.1910 N   0  0  0  0  0  0  0  0  0  0  0  0
   11.8705  -17.9777   27.0732 C   0  0  1  0  0  0  0  0  0  0  0  0
   12.3738  -16.5805   27.0286 C   0  0  0  0  0  0  0  0  0  0  0  0
   11.2614  -15.6494   27.2922 C   0  0  0  0  0  0  0  0  0  0  0  0
   10.4688  -15.1431   26.2912 C   0  0  0  0  0  0  0  0  0  0  0  0
    9.4530  -14.2802   26.6246 C   0  0  0  0  0  0  0  0  0  0  0  0
    9.2008  -13.9043   27.9278 C   0  0  0  0  0  0  0  0  0  0  0  0
    9.9941  -14.4110   28.9298 C   0  0  0  0  0  0  0  0  0  0  0  0
   11.0123  -15.2763   28.5932 C   0  0  0  0  0  0  0  0  0  0  0  0
   11.4444  -18.3544   28.4724 C   0  0  0  0  0  0  0  0  0  0  0  0
   10.2727  -18.7709   28.6545 O   0  0  0  0  0  0  0  0  0  0  0  0
   12.2885  -18.2574   29.5543 O   0  0  0  0  0  0  0  0  0  0  0  0
  2  1  1  6
  2 13  1  0
  2  3  1  0
  3  4  1  0
  4  5  2  0
  5  6  1  0
  7  6  1  0
  8  7  2  0
  9  8  1  0
 10 11  1  0
 10  9  2  0
 11 12  2  0
 12  4  1  0
 12  7  1  0
 13 15  1  0
 14 13  2  0
 15 16  1  0
 17 18  2  0
 17 16  1  0
 19 17  1  0
 20 21  1  1
 20 19  1  0
 21 22  1  0
 22 23  2  0
 23 24  1  0
 25 24  2  0
 26 25  1  0
 27 26  2  0
 27 22  1  0
 28 30  1  0
 28 20  1  0
 29 28  2  0
M  END
$$$$
