WGF.pdb
     RDKit          3D

 30 32  0  0  1  0  0  0  0  0999 V2000
    7.6143  -17.5795   23.7674 N   0  0  0  0  0  0  0  0  0  0  0  0
    8.0319  -16.8495   22.5914 C   0  0  1  0  0  0  0  0  0  0  0  0
    7.4584  -15.4659   22.5267 C   0  0  0  0  0  0  0  0  0  0  0  0
    7.2009  -14.8461   23.8475 C   0  0  0  0  0  0  0  0  0  0  0  0
    6.8907  -15.5739   25.0038 C   0  0  0  0  0  0  0  0  0  0  0  0
    6.6977  -14.7150   26.0183 N   0  0  0  0  0  0  0  0  0  0  0  0
    6.8612  -13.4459   25.6098 C   0  0  0  0  0  0  0  0  0  0  0  0
    6.7732  -12.2442   26.2743 C   0  0  0  0  0  0  0  0  0  0  0  0
    7.0030  -11.0778   25.5832 C   0  0  0  0  0  0  0  0  0  0  0  0
    7.3142  -11.1670   24.2437 C   0  0  0  0  0  0  0  0  0  0  0  0
    7.4050  -12.3740   23.5656 C   0  0  0  0  0  0  0  0  0  0  0  0
    7.1771  -13.5289   24.2483 C   0  0  0  0  0  0  0  0  0  0  0  0
    9.5060  -16.8642   22.4496 C   0  0  0  0  0  0  0  0  0  0  0  0
   10.0417  -16.1101   21.6131 O   0  0  0  0  0  0  0  0  0  0  0  0
   10.3145  -17.7143   23.2425 N   0  0  0  0  0  0  0  0  0  0  0  0
   11.7529  -17.7474   23.1600 C   0  0  0  0  0  0  0  0  0  0  0  0
   12.4122  -17.3576   24.4250 C   0  0  0  0  0  0  0  0  0  0  0  0
   13.6783  -17.1862   24.4785 O   0  0  0  0  0  0  0  0  0  0  0  0
   11.6991  -17.1577   25.6315 N   0  0  0  0  0  0  0  0  0  0  0  0
   12.3766  -16.9119   26.8656 C   0  0  1  0  0  0  0  0  0  0  0  0
   12.0469  -15.6372   27.5541 C   0  0  0  0  0  0  0  0  0  0  0  0
   10.5985  -15.5863   27.8254 C   0  0  0  0  0  0  0  0  0  0  0  0
    9.6692  -15.3685   26.8377 C   0  0  0  0  0  0  0  0  0  0  0  0
    8.3384  -15.3358   27.1777 C   0  0  0  0  0  0  0  0  0  0  0  0
    7.9024  -15.5136   28.4744 C   0  0  0  0  0  0  0  0  0  0  0  0
    8.8327  -15.7314   29.4631 C   0  0  0  0  0  0  0  0  0  0  0  0
   10.1669  -15.7639   29.1200 C   0  0  0  0  0  0  0  0  0  0  0  0
   12.1271  -18.0953   27.7705 C   0  0  0  0  0  0  0  0  0  0  0  0
   12.7082  -18.1361   28.8840 O   0  0  0  0  0  0  0  0  0  0  0  0
   11.2902  -19.1298   27.4217 O   0  0  0  0  0  0  0  0  0  0  0  0
  2  1  1  1
  2 13  1  0
  2  3  1  0
  3  4  1  0
  4  5  2  0
  5  6  1  0
  7  6  1  0
  8  7  2  0
  9  8  1  0
 10 11  1  0
 10  9  2  0
 11 12  2  0
 12  4  1  0
 12  7  1  0
 13 15  1  0
 14 13  2  0
 15 16  1  0
 17 18  2  0
 17 16  1  0
 19 17  1  0
 20 21  1  1
 20 19  1  0
 21 22  1  0
 22 23  2  0
 23 24  1  0
 25 24  2  0
 26 25  1  0
 27 26  2  0
 27 22  1  0
 28 30  1  0
 28 20  1  0
 29 28  2  0
M  END
$$$$
