WGF.pdb
     RDKit          3D

 30 32  0  0  1  0  0  0  0  0999 V2000
    9.7803  -17.0805   21.1417 N   0  0  0  0  0  0  0  0  0  0  0  0
    8.8814  -16.5617   22.1483 C   0  0  1  0  0  0  0  0  0  0  0  0
    7.4721  -16.4190   21.6573 C   0  0  0  0  0  0  0  0  0  0  0  0
    7.3188  -15.5293   20.4826 C   0  0  0  0  0  0  0  0  0  0  0  0
    6.7332  -15.9272   19.2736 C   0  0  0  0  0  0  0  0  0  0  0  0
    6.7678  -14.8952   18.4146 N   0  0  0  0  0  0  0  0  0  0  0  0
    7.3449  -13.8212   18.9782 C   0  0  0  0  0  0  0  0  0  0  0  0
    7.5980  -12.5545   18.5040 C   0  0  0  0  0  0  0  0  0  0  0  0
    8.2112  -11.6405   19.3282 C   0  0  0  0  0  0  0  0  0  0  0  0
    8.5473  -12.0392   20.6038 C   0  0  0  0  0  0  0  0  0  0  0  0
    8.2962  -13.3140   21.0903 C   0  0  0  0  0  0  0  0  0  0  0  0
    7.6899  -14.2196   20.2754 C   0  0  0  0  0  0  0  0  0  0  0  0
    8.9733  -17.3461   23.4011 C   0  0  0  0  0  0  0  0  0  0  0  0
    8.2307  -17.0486   24.3580 O   0  0  0  0  0  0  0  0  0  0  0  0
    9.8841  -18.4224   23.5320 N   0  0  0  0  0  0  0  0  0  0  0  0
   10.1366  -19.1032   24.7769 C   0  0  0  0  0  0  0  0  0  0  0  0
   11.1189  -18.4000   25.6298 C   0  0  0  0  0  0  0  0  0  0  0  0
   12.3008  -18.1581   25.2055 O   0  0  0  0  0  0  0  0  0  0  0  0
   10.8206  -17.9630   26.9429 N   0  0  0  0  0  0  0  0  0  0  0  0
   11.7776  -17.2454   27.7250 C   0  0  1  0  0  0  0  0  0  0  0  0
   11.9826  -15.8183   27.3659 C   0  0  0  0  0  0  0  0  0  0  0  0
   10.6920  -15.1075   27.4226 C   0  0  0  0  0  0  0  0  0  0  0  0
   10.2945  -14.3846   28.5208 C   0  0  0  0  0  0  0  0  0  0  0  0
    9.0749  -13.7526   28.4903 C   0  0  0  0  0  0  0  0  0  0  0  0
    8.2360  -13.8181   27.3971 C   0  0  0  0  0  0  0  0  0  0  0  0
    8.6338  -14.5418   26.2980 C   0  0  0  0  0  0  0  0  0  0  0  0
    9.8573  -15.1748   26.3306 C   0  0  0  0  0  0  0  0  0  0  0  0
   11.3836  -17.3864   29.1762 C   0  0  0  0  0  0  0  0  0  0  0  0
   10.3235  -18.0004   29.4564 O   0  0  0  0  0  0  0  0  0  0  0  0
   12.1394  -16.8675   30.2018 O   0  0  0  0  0  0  0  0  0  0  0  0
  2  1  1  6
  2 13  1  0
  2  3  1  0
  3  4  1  0
  4  5  2  0
  5  6  1  0
  7  6  1  0
  8  7  2  0
  9  8  1  0
 10 11  1  0
 10  9  2  0
 11 12  2  0
 12  4  1  0
 12  7  1  0
 13 15  1  0
 14 13  2  0
 15 16  1  0
 17 18  2  0
 17 16  1  0
 19 17  1  0
 20 21  1  6
 20 19  1  0
 21 22  1  0
 22 23  2  0
 23 24  1  0
 25 24  2  0
 26 25  1  0
 27 26  2  0
 27 22  1  0
 28 30  1  0
 28 20  1  0
 29 28  2  0
M  END
$$$$
