WGF.pdb
     RDKit          3D

 30 32  0  0  1  0  0  0  0  0999 V2000
    8.4906  -17.9406   22.3196 N   0  0  0  0  0  0  0  0  0  0  0  0
    9.6905  -17.1362   22.2609 C   0  0  1  0  0  0  0  0  0  0  0  0
    9.4884  -15.7445   22.7803 C   0  0  0  0  0  0  0  0  0  0  0  0
    8.4122  -14.9862   22.1008 C   0  0  0  0  0  0  0  0  0  0  0  0
    7.0473  -15.1655   22.3614 C   0  0  0  0  0  0  0  0  0  0  0  0
    6.3424  -14.3429   21.5672 N   0  0  0  0  0  0  0  0  0  0  0  0
    7.1576  -13.6172   20.7844 C   0  0  0  0  0  0  0  0  0  0  0  0
    6.9073  -12.6571   19.8309 C   0  0  0  0  0  0  0  0  0  0  0  0
    7.9652  -12.0676   19.1796 C   0  0  0  0  0  0  0  0  0  0  0  0
    9.2399  -12.4693   19.5153 C   0  0  0  0  0  0  0  0  0  0  0  0
    9.5017  -13.4364   20.4750 C   0  0  0  0  0  0  0  0  0  0  0  0
    8.4556  -14.0209   21.1197 C   0  0  0  0  0  0  0  0  0  0  0  0
   10.8289  -17.8279   22.9082 C   0  0  0  0  0  0  0  0  0  0  0  0
   11.4285  -18.7244   22.2819 O   0  0  0  0  0  0  0  0  0  0  0  0
   11.2471  -17.4918   24.2186 N   0  0  0  0  0  0  0  0  0  0  0  0
   12.3904  -18.0852   24.8649 C   0  0  0  0  0  0  0  0  0  0  0  0
   12.6448  -17.5291   26.2113 C   0  0  0  0  0  0  0  0  0  0  0  0
   13.1439  -16.3604   26.3542 O   0  0  0  0  0  0  0  0  0  0  0  0
   12.3615  -18.2415   27.4014 N   0  0  0  0  0  0  0  0  0  0  0  0
   11.3362  -17.8133   28.3002 C   0  0  1  0  0  0  0  0  0  0  0  0
   10.0403  -17.4286   27.6838 C   0  0  0  0  0  0  0  0  0  0  0  0
   10.0294  -15.9762   27.4300 C   0  0  0  0  0  0  0  0  0  0  0  0
    9.6143  -15.4380   26.2364 C   0  0  0  0  0  0  0  0  0  0  0  0
    9.6364  -14.0728   26.0835 C   0  0  0  0  0  0  0  0  0  0  0  0
   10.0603  -13.2239   27.0849 C   0  0  0  0  0  0  0  0  0  0  0  0
   10.4759  -13.7626   28.2795 C   0  0  0  0  0  0  0  0  0  0  0  0
   10.4529  -15.1320   28.4309 C   0  0  0  0  0  0  0  0  0  0  0  0
   11.1433  -18.9018   29.3294 C   0  0  0  0  0  0  0  0  0  0  0  0
   10.5241  -18.6279   30.3881 O   0  0  0  0  0  0  0  0  0  0  0  0
   11.6205  -20.1799   29.1529 O   0  0  0  0  0  0  0  0  0  0  0  0
  2  1  1  1
  2 13  1  0
  2  3  1  0
  3  4  1  0
  4  5  2  0
  5  6  1  0
  7  6  1  0
  8  7  2  0
  9  8  1  0
 10 11  1  0
 10  9  2  0
 11 12  2  0
 12  4  1  0
 12  7  1  0
 13 15  1  0
 14 13  2  0
 15 16  1  0
 17 18  2  0
 17 16  1  0
 19 17  1  0
 20 21  1  6
 20 19  1  0
 21 22  1  0
 22 23  2  0
 23 24  1  0
 25 24  2  0
 26 25  1  0
 27 26  2  0
 27 22  1  0
 28 30  1  0
 28 20  1  0
 29 28  2  0
M  END
$$$$
