WGF.pdb
     RDKit          3D

 30 32  0  0  1  0  0  0  0  0999 V2000
    7.2257  -18.1119   22.7853 N   0  0  0  0  0  0  0  0  0  0  0  0
    8.0764  -17.0630   22.2692 C   0  0  1  0  0  0  0  0  0  0  0  0
    7.5482  -15.6886   22.5515 C   0  0  0  0  0  0  0  0  0  0  0  0
    7.1319  -15.4678   23.9561 C   0  0  0  0  0  0  0  0  0  0  0  0
    6.5741  -16.4624   24.7702 C   0  0  0  0  0  0  0  0  0  0  0  0
    6.2922  -15.9320   25.9716 N   0  0  0  0  0  0  0  0  0  0  0  0
    6.6300  -14.6326   26.0133 C   0  0  0  0  0  0  0  0  0  0  0  0
    6.5384  -13.6870   27.0088 C   0  0  0  0  0  0  0  0  0  0  0  0
    6.9788  -12.4082   26.7610 C   0  0  0  0  0  0  0  0  0  0  0  0
    7.4968  -12.1297   25.5147 C   0  0  0  0  0  0  0  0  0  0  0  0
    7.5929  -13.0765   24.5052 C   0  0  0  0  0  0  0  0  0  0  0  0
    7.1568  -14.3422   24.7490 C   0  0  0  0  0  0  0  0  0  0  0  0
    9.4759  -17.2408   22.7198 C   0  0  0  0  0  0  0  0  0  0  0  0
    9.8151  -18.3278   23.2287 O   0  0  0  0  0  0  0  0  0  0  0  0
   10.4314  -16.2046   22.5841 N   0  0  0  0  0  0  0  0  0  0  0  0
   11.8468  -16.3985   22.7744 C   0  0  0  0  0  0  0  0  0  0  0  0
   12.2120  -16.6304   24.1885 C   0  0  0  0  0  0  0  0  0  0  0  0
   13.4223  -16.8754   24.5211 O   0  0  0  0  0  0  0  0  0  0  0  0
   11.2648  -16.6001   25.2402 N   0  0  0  0  0  0  0  0  0  0  0  0
   11.5911  -17.0676   26.5507 C   0  0  1  0  0  0  0  0  0  0  0  0
   11.9617  -16.0286   27.5460 C   0  0  0  0  0  0  0  0  0  0  0  0
   11.0177  -14.8999   27.4520 C   0  0  0  0  0  0  0  0  0  0  0  0
   10.1617  -14.7393   26.3899 C   0  0  0  0  0  0  0  0  0  0  0  0
    9.3141  -13.6580   26.3815 C   0  0  0  0  0  0  0  0  0  0  0  0
    9.2920  -12.7286   27.4007 C   0  0  0  0  0  0  0  0  0  0  0  0
   10.1488  -12.8893   28.4638 C   0  0  0  0  0  0  0  0  0  0  0  0
   10.9981  -13.9744   28.4703 C   0  0  0  0  0  0  0  0  0  0  0  0
   10.4308  -17.8994   27.0440 C   0  0  0  0  0  0  0  0  0  0  0  0
   10.5249  -18.4615   28.1640 O   0  0  0  0  0  0  0  0  0  0  0  0
    9.2770  -18.0662   26.3139 O   0  0  0  0  0  0  0  0  0  0  0  0
  2  1  1  1
  2 13  1  0
  2  3  1  0
  3  4  1  0
  4  5  2  0
  5  6  1  0
  7  6  1  0
  8  7  2  0
  9  8  1  0
 10 11  1  0
 10  9  2  0
 11 12  2  0
 12  4  1  0
 12  7  1  0
 13 15  1  0
 14 13  2  0
 15 16  1  0
 17 18  2  0
 17 16  1  0
 19 17  1  0
 20 21  1  1
 20 19  1  0
 21 22  1  0
 22 23  2  0
 23 24  1  0
 25 24  2  0
 26 25  1  0
 27 26  2  0
 27 22  1  0
 28 30  1  0
 28 20  1  0
 29 28  2  0
M  END
$$$$
