WGF.pdb
     RDKit          3D

 30 32  0  0  1  0  0  0  0  0999 V2000
    5.0834  -19.8032   22.8927 N   0  0  0  0  0  0  0  0  0  0  0  0
    5.9970  -18.7759   23.3400 C   0  0  1  0  0  0  0  0  0  0  0  0
    7.2850  -19.3289   23.8719 C   0  0  0  0  0  0  0  0  0  0  0  0
    7.1802  -19.9438   25.2157 C   0  0  0  0  0  0  0  0  0  0  0  0
    6.7310  -21.2514   25.4426 C   0  0  0  0  0  0  0  0  0  0  0  0
    6.7379  -21.4892   26.7645 N   0  0  0  0  0  0  0  0  0  0  0  0
    7.1680  -20.4128   27.4431 C   0  0  0  0  0  0  0  0  0  0  0  0
    7.3482  -20.1810   28.7875 C   0  0  0  0  0  0  0  0  0  0  0  0
    7.8182  -18.9561   29.1993 C   0  0  0  0  0  0  0  0  0  0  0  0
    8.0899  -18.0077   28.2372 C   0  0  0  0  0  0  0  0  0  0  0  0
    7.9112  -18.2325   26.8798 C   0  0  0  0  0  0  0  0  0  0  0  0
    7.4455  -19.4440   26.4711 C   0  0  0  0  0  0  0  0  0  0  0  0
    6.2051  -17.7526   22.2898 C   0  0  0  0  0  0  0  0  0  0  0  0
    5.4845  -17.7738   21.2721 O   0  0  0  0  0  0  0  0  0  0  0  0
    7.2023  -16.7556   22.4192 N   0  0  0  0  0  0  0  0  0  0  0  0
    7.4544  -15.7490   21.4191 C   0  0  0  0  0  0  0  0  0  0  0  0
    8.5344  -14.8140   21.8015 C   0  0  0  0  0  0  0  0  0  0  0  0
    9.4859  -14.5448   20.9907 O   0  0  0  0  0  0  0  0  0  0  0  0
    8.5839  -14.1745   23.0635 N   0  0  0  0  0  0  0  0  0  0  0  0
    9.4339  -14.6525   24.1084 C   0  0  1  0  0  0  0  0  0  0  0  0
    8.7609  -15.0589   25.3691 C   0  0  0  0  0  0  0  0  0  0  0  0
    7.8490  -13.9861   25.8067 C   0  0  0  0  0  0  0  0  0  0  0  0
    8.2741  -12.6983   26.0244 C   0  0  0  0  0  0  0  0  0  0  0  0
    7.3574  -11.7594   26.4317 C   0  0  0  0  0  0  0  0  0  0  0  0
    6.0265  -12.0636   26.6297 C   0  0  0  0  0  0  0  0  0  0  0  0
    5.6010  -13.3526   26.4119 C   0  0  0  0  0  0  0  0  0  0  0  0
    6.5219  -14.2927   26.0034 C   0  0  0  0  0  0  0  0  0  0  0  0
   10.2596  -15.7856   23.5468 C   0  0  0  0  0  0  0  0  0  0  0  0
    9.9521  -16.2566   22.4230 O   0  0  0  0  0  0  0  0  0  0  0  0
   11.3334  -16.3223   24.2186 O   0  0  0  0  0  0  0  0  0  0  0  0
  2  1  1  6
  2 13  1  0
  2  3  1  0
  3  4  1  0
  4  5  2  0
  5  6  1  0
  7  6  1  0
  8  7  2  0
  9  8  1  0
 10 11  1  0
 10  9  2  0
 11 12  2  0
 12  4  1  0
 12  7  1  0
 13 15  1  0
 14 13  2  0
 15 16  1  0
 17 18  2  0
 17 16  1  0
 19 17  1  0
 20 21  1  1
 20 19  1  0
 21 22  1  0
 22 23  2  0
 23 24  1  0
 25 24  2  0
 26 25  1  0
 27 26  2  0
 27 22  1  0
 28 30  1  0
 28 20  1  0
 29 28  2  0
M  END
$$$$
