WGF.pdb
     RDKit          3D

 30 32  0  0  1  0  0  0  0  0999 V2000
    6.9266  -17.6327   24.3461 N   0  0  0  0  0  0  0  0  0  0  0  0
    7.7058  -16.9775   23.3195 C   0  0  1  0  0  0  0  0  0  0  0  0
    7.8342  -15.4995   23.5357 C   0  0  0  0  0  0  0  0  0  0  0  0
    7.0764  -14.9814   24.6985 C   0  0  0  0  0  0  0  0  0  0  0  0
    6.2244  -15.7659   25.4869 C   0  0  0  0  0  0  0  0  0  0  0  0
    5.6806  -14.9917   26.4404 N   0  0  0  0  0  0  0  0  0  0  0  0
    6.1197  -13.7264   26.3390 C   0  0  0  0  0  0  0  0  0  0  0  0
    5.8546  -12.5958   27.0773 C   0  0  0  0  0  0  0  0  0  0  0  0
    6.4685  -11.4136   26.7364 C   0  0  0  0  0  0  0  0  0  0  0  0
    7.3296  -11.4155   25.6606 C   0  0  0  0  0  0  0  0  0  0  0  0
    7.6028  -12.5503   24.9106 C   0  0  0  0  0  0  0  0  0  0  0  0
    6.9954  -13.7207   25.2465 C   0  0  0  0  0  0  0  0  0  0  0  0
    9.0156  -17.6441   23.1367 C   0  0  0  0  0  0  0  0  0  0  0  0
    9.2524  -18.6966   23.7625 O   0  0  0  0  0  0  0  0  0  0  0  0
    9.9994  -17.1110   22.2688 N   0  0  0  0  0  0  0  0  0  0  0  0
   11.2833  -17.7274   22.0486 C   0  0  0  0  0  0  0  0  0  0  0  0
   12.1788  -17.6296   23.2213 C   0  0  0  0  0  0  0  0  0  0  0  0
   13.4008  -17.9988   23.1455 O   0  0  0  0  0  0  0  0  0  0  0  0
   11.7480  -17.1352   24.4760 N   0  0  0  0  0  0  0  0  0  0  0  0
   12.6070  -17.1514   25.6181 C   0  0  1  0  0  0  0  0  0  0  0  0
   12.9923  -15.8267   26.1697 C   0  0  0  0  0  0  0  0  0  0  0  0
   11.8124  -15.1869   26.7798 C   0  0  0  0  0  0  0  0  0  0  0  0
   11.4928  -15.3397   28.1069 C   0  0  0  0  0  0  0  0  0  0  0  0
   10.3742  -14.7081   28.5945 C   0  0  0  0  0  0  0  0  0  0  0  0
    9.5613  -13.9268   27.7996 C   0  0  0  0  0  0  0  0  0  0  0  0
    9.8812  -13.7740   26.4713 C   0  0  0  0  0  0  0  0  0  0  0  0
   11.0034  -14.4082   25.9843 C   0  0  0  0  0  0  0  0  0  0  0  0
   11.9498  -18.0067   26.6753 C   0  0  0  0  0  0  0  0  0  0  0  0
   10.7736  -18.4054   26.4832 O   0  0  0  0  0  0  0  0  0  0  0  0
   12.5883  -18.3642   27.8402 O   0  0  0  0  0  0  0  0  0  0  0  0
  2  1  1  1
  2 13  1  0
  2  3  1  0
  3  4  1  0
  4  5  2  0
  5  6  1  0
  7  6  1  0
  8  7  2  0
  9  8  1  0
 10 11  1  0
 10  9  2  0
 11 12  2  0
 12  4  1  0
 12  7  1  0
 13 15  1  0
 14 13  2  0
 15 16  1  0
 17 18  2  0
 17 16  1  0
 19 17  1  0
 20 21  1  1
 20 19  1  0
 21 22  1  0
 22 23  2  0
 23 24  1  0
 25 24  2  0
 26 25  1  0
 27 26  2  0
 27 22  1  0
 28 30  1  0
 28 20  1  0
 29 28  2  0
M  END
$$$$
