WGF.pdb
     RDKit          3D

 30 32  0  0  1  0  0  0  0  0999 V2000
    7.9890  -17.5707   23.1674 N   0  0  0  0  0  0  0  0  0  0  0  0
    8.5272  -16.5892   22.2523 C   0  0  1  0  0  0  0  0  0  0  0  0
    7.8250  -15.2670   22.3325 C   0  0  0  0  0  0  0  0  0  0  0  0
    7.0893  -15.0387   23.5980 C   0  0  0  0  0  0  0  0  0  0  0  0
    6.4199  -16.0468   24.3041 C   0  0  0  0  0  0  0  0  0  0  0  0
    5.8430  -15.5061   25.3899 N   0  0  0  0  0  0  0  0  0  0  0  0
    6.0869  -14.1868   25.4556 C   0  0  0  0  0  0  0  0  0  0  0  0
    5.7178  -13.2247   26.3675 C   0  0  0  0  0  0  0  0  0  0  0  0
    6.1282  -11.9265   26.1752 C   0  0  0  0  0  0  0  0  0  0  0  0
    6.8982  -11.6461   25.0672 C   0  0  0  0  0  0  0  0  0  0  0  0
    7.2750  -12.6095   24.1428 C   0  0  0  0  0  0  0  0  0  0  0  0
    6.8689  -13.8944   24.3316 C   0  0  0  0  0  0  0  0  0  0  0  0
    9.9952  -16.4666   22.4039 C   0  0  0  0  0  0  0  0  0  0  0  0
   10.5822  -15.5080   21.8633 O   0  0  0  0  0  0  0  0  0  0  0  0
   10.7412  -17.4129   23.1474 N   0  0  0  0  0  0  0  0  0  0  0  0
   12.0861  -17.1791   23.6096 C   0  0  0  0  0  0  0  0  0  0  0  0
   12.1873  -17.1206   25.0837 C   0  0  0  0  0  0  0  0  0  0  0  0
   13.3065  -16.8830   25.6549 O   0  0  0  0  0  0  0  0  0  0  0  0
   11.0763  -17.3233   25.9374 N   0  0  0  0  0  0  0  0  0  0  0  0
   11.2452  -17.7365   27.2950 C   0  0  1  0  0  0  0  0  0  0  0  0
   10.3806  -17.0645   28.2992 C   0  0  0  0  0  0  0  0  0  0  0  0
   10.5073  -15.6025   28.1562 C   0  0  0  0  0  0  0  0  0  0  0  0
   10.0341  -14.9238   27.0599 C   0  0  0  0  0  0  0  0  0  0  0  0
   10.1940  -13.5602   27.0067 C   0  0  0  0  0  0  0  0  0  0  0  0
   10.8123  -12.8490   28.0141 C   0  0  0  0  0  0  0  0  0  0  0  0
   11.2860  -13.5284   29.1115 C   0  0  0  0  0  0  0  0  0  0  0  0
   11.1246  -14.8959   29.1629 C   0  0  0  0  0  0  0  0  0  0  0  0
   11.0668  -19.2355   27.3447 C   0  0  0  0  0  0  0  0  0  0  0  0
   11.3122  -19.8368   28.4206 O   0  0  0  0  0  0  0  0  0  0  0  0
   10.6481  -19.9672   26.2576 O   0  0  0  0  0  0  0  0  0  0  0  0
  2  1  1  1
  2 13  1  0
  2  3  1  0
  3  4  1  0
  4  5  2  0
  5  6  1  0
  7  6  1  0
  8  7  2  0
  9  8  1  0
 10 11  1  0
 10  9  2  0
 11 12  2  0
 12  4  1  0
 12  7  1  0
 13 15  1  0
 14 13  2  0
 15 16  1  0
 17 18  2  0
 17 16  1  0
 19 17  1  0
 20 21  1  1
 20 19  1  0
 21 22  1  0
 22 23  2  0
 23 24  1  0
 25 24  2  0
 26 25  1  0
 27 26  2  0
 27 22  1  0
 28 30  1  0
 28 20  1  0
 29 28  2  0
M  END
$$$$
