WGF.pdb
     RDKit          3D

 30 32  0  0  1  0  0  0  0  0999 V2000
    7.8130  -18.9039   21.6971 N   0  0  0  0  0  0  0  0  0  0  0  0
    7.9169  -17.6619   20.9643 C   0  0  1  0  0  0  0  0  0  0  0  0
    6.9477  -16.6204   21.4370 C   0  0  0  0  0  0  0  0  0  0  0  0
    7.1125  -15.2939   20.7982 C   0  0  0  0  0  0  0  0  0  0  0  0
    7.0122  -15.0747   19.4180 C   0  0  0  0  0  0  0  0  0  0  0  0
    7.2322  -13.7733   19.1684 N   0  0  0  0  0  0  0  0  0  0  0  0
    7.4753  -13.1013   20.3057 C   0  0  0  0  0  0  0  0  0  0  0  0
    7.7465  -11.7753   20.5538 C   0  0  0  0  0  0  0  0  0  0  0  0
    7.9514  -11.3642   21.8499 C   0  0  0  0  0  0  0  0  0  0  0  0
    7.8748  -12.3086   22.8506 C   0  0  0  0  0  0  0  0  0  0  0  0
    7.6021  -13.6474   22.6098 C   0  0  0  0  0  0  0  0  0  0  0  0
    7.3998  -14.0555   21.3275 C   0  0  0  0  0  0  0  0  0  0  0  0
    9.3144  -17.1724   20.9391 C   0  0  0  0  0  0  0  0  0  0  0  0
    9.7967  -16.7720   19.8609 O   0  0  0  0  0  0  0  0  0  0  0  0
   10.1092  -17.1508   22.1107 N   0  0  0  0  0  0  0  0  0  0  0  0
   11.4510  -16.6263   22.1516 C   0  0  0  0  0  0  0  0  0  0  0  0
   12.1451  -16.9166   23.4246 C   0  0  0  0  0  0  0  0  0  0  0  0
   13.3842  -16.6376   23.5739 O   0  0  0  0  0  0  0  0  0  0  0  0
   11.4968  -17.5123   24.5332 N   0  0  0  0  0  0  0  0  0  0  0  0
   11.3166  -16.8029   25.7607 C   0  0  1  0  0  0  0  0  0  0  0  0
    9.9209  -16.4262   26.1035 C   0  0  0  0  0  0  0  0  0  0  0  0
    9.9043  -15.7375   27.4071 C   0  0  0  0  0  0  0  0  0  0  0  0
    9.8401  -14.3701   27.5194 C   0  0  0  0  0  0  0  0  0  0  0  0
    9.8294  -13.8095   28.7737 C   0  0  0  0  0  0  0  0  0  0  0  0
    9.8810  -14.5701   29.9234 C   0  0  0  0  0  0  0  0  0  0  0  0
    9.9454  -15.9388   29.8111 C   0  0  0  0  0  0  0  0  0  0  0  0
    9.9559  -16.4991   28.5522 C   0  0  0  0  0  0  0  0  0  0  0  0
   11.9407  -17.6257   26.8629 C   0  0  0  0  0  0  0  0  0  0  0  0
   12.6265  -17.0402   27.7381 O   0  0  0  0  0  0  0  0  0  0  0  0
   11.7886  -18.9905   26.9440 O   0  0  0  0  0  0  0  0  0  0  0  0
  2  1  1  1
  2 13  1  0
  2  3  1  0
  3  4  1  0
  4  5  2  0
  5  6  1  0
  7  6  1  0
  8  7  2  0
  9  8  1  0
 10 11  1  0
 10  9  2  0
 11 12  2  0
 12  4  1  0
 12  7  1  0
 13 15  1  0
 14 13  2  0
 15 16  1  0
 17 18  2  0
 17 16  1  0
 19 17  1  0
 20 21  1  1
 20 19  1  0
 21 22  1  0
 22 23  2  0
 23 24  1  0
 25 24  2  0
 26 25  1  0
 27 26  2  0
 27 22  1  0
 28 30  1  0
 28 20  1  0
 29 28  2  0
M  END
$$$$
