WGF.pdb
     RDKit          3D

 30 32  0  0  1  0  0  0  0  0999 V2000
    9.5030  -15.0875   22.5977 N   0  0  0  0  0  0  0  0  0  0  0  0
    8.2055  -15.3706   23.1692 C   0  0  1  0  0  0  0  0  0  0  0  0
    7.2808  -16.0583   22.2103 C   0  0  0  0  0  0  0  0  0  0  0  0
    7.2911  -15.4978   20.8390 C   0  0  0  0  0  0  0  0  0  0  0  0
    6.9057  -16.2161   19.6995 C   0  0  0  0  0  0  0  0  0  0  0  0
    7.0506  -15.4289   18.6209 N   0  0  0  0  0  0  0  0  0  0  0  0
    7.5127  -14.2170   18.9703 C   0  0  0  0  0  0  0  0  0  0  0  0
    7.8097  -13.0947   18.2317 C   0  0  0  0  0  0  0  0  0  0  0  0
    8.2708  -11.9709   18.8760 C   0  0  0  0  0  0  0  0  0  0  0  0
    8.4156  -12.0209   20.2456 C   0  0  0  0  0  0  0  0  0  0  0  0
    8.1189  -13.1479   20.9983 C   0  0  0  0  0  0  0  0  0  0  0  0
    7.6630  -14.2608   20.3617 C   0  0  0  0  0  0  0  0  0  0  0  0
    8.3351  -16.0930   24.4556 C   0  0  0  0  0  0  0  0  0  0  0  0
    9.4669  -16.2328   24.9606 O   0  0  0  0  0  0  0  0  0  0  0  0
    7.2033  -16.6254   25.1194 N   0  0  0  0  0  0  0  0  0  0  0  0
    6.9125  -18.0352   25.1887 C   0  0  0  0  0  0  0  0  0  0  0  0
    7.5489  -18.6990   26.3468 C   0  0  0  0  0  0  0  0  0  0  0  0
    7.2805  -19.9160   26.6336 O   0  0  0  0  0  0  0  0  0  0  0  0
    8.4726  -18.0422   27.1950 N   0  0  0  0  0  0  0  0  0  0  0  0
    9.8818  -18.2320   27.0512 C   0  0  1  0  0  0  0  0  0  0  0  0
   10.6706  -17.0333   26.6661 C   0  0  0  0  0  0  0  0  0  0  0  0
   10.0598  -15.8312   27.2626 C   0  0  0  0  0  0  0  0  0  0  0  0
    9.3414  -14.9235   26.5233 C   0  0  0  0  0  0  0  0  0  0  0  0
    8.8058  -13.8293   27.1589 C   0  0  0  0  0  0  0  0  0  0  0  0
    8.9637  -13.6100   28.5117 C   0  0  0  0  0  0  0  0  0  0  0  0
    9.6828  -14.5186   29.2516 C   0  0  0  0  0  0  0  0  0  0  0  0
   10.2191  -15.6152   28.6123 C   0  0  0  0  0  0  0  0  0  0  0  0
   10.3989  -18.8286   28.3388 C   0  0  0  0  0  0  0  0  0  0  0  0
   11.6258  -19.0822   28.4360 O   0  0  0  0  0  0  0  0  0  0  0  0
    9.5784  -19.1064   29.4075 O   0  0  0  0  0  0  0  0  0  0  0  0
  2  1  1  6
  2 13  1  0
  2  3  1  0
  3  4  1  0
  4  5  2  0
  5  6  1  0
  7  6  1  0
  8  7  2  0
  9  8  1  0
 10 11  1  0
 10  9  2  0
 11 12  2  0
 12  4  1  0
 12  7  1  0
 13 15  1  0
 14 13  2  0
 15 16  1  0
 17 18  2  0
 17 16  1  0
 19 17  1  0
 20 21  1  1
 20 19  1  0
 21 22  1  0
 22 23  2  0
 23 24  1  0
 25 24  2  0
 26 25  1  0
 27 26  2  0
 27 22  1  0
 28 30  1  0
 28 20  1  0
 29 28  2  0
M  END
$$$$
