WGF.pdb
     RDKit          3D

 30 32  0  0  1  0  0  0  0  0999 V2000
    5.5057  -17.6320   23.0839 N   0  0  0  0  0  0  0  0  0  0  0  0
    6.9435  -17.7837   23.0735 C   0  0  1  0  0  0  0  0  0  0  0  0
    7.6706  -16.4840   23.2457 C   0  0  0  0  0  0  0  0  0  0  0  0
    7.2393  -15.6905   24.4201 C   0  0  0  0  0  0  0  0  0  0  0  0
    6.5697  -16.2329   25.5249 C   0  0  0  0  0  0  0  0  0  0  0  0
    6.3064  -15.2476   26.3990 N   0  0  0  0  0  0  0  0  0  0  0  0
    6.7624  -14.0688   25.9446 C   0  0  0  0  0  0  0  0  0  0  0  0
    6.7327  -12.8005   26.4776 C   0  0  0  0  0  0  0  0  0  0  0  0
    7.2967  -11.7637   25.7723 C   0  0  0  0  0  0  0  0  0  0  0  0
    7.8716  -12.0453   24.5519 C   0  0  0  0  0  0  0  0  0  0  0  0
    7.9061  -13.3206   24.0067 C   0  0  0  0  0  0  0  0  0  0  0  0
    7.3477  -14.3474   24.7035 C   0  0  0  0  0  0  0  0  0  0  0  0
    7.3785  -18.8146   24.0437 C   0  0  0  0  0  0  0  0  0  0  0  0
    6.6495  -19.8072   24.2406 O   0  0  0  0  0  0  0  0  0  0  0  0
    8.6007  -18.6946   24.7485 N   0  0  0  0  0  0  0  0  0  0  0  0
    9.8585  -19.1897   24.2487 C   0  0  0  0  0  0  0  0  0  0  0  0
   10.9973  -18.8721   25.1370 C   0  0  0  0  0  0  0  0  0  0  0  0
   12.1652  -19.3340   24.8960 O   0  0  0  0  0  0  0  0  0  0  0  0
   10.8685  -18.0574   26.2875 N   0  0  0  0  0  0  0  0  0  0  0  0
   12.0151  -17.5581   26.9793 C   0  0  1  0  0  0  0  0  0  0  0  0
   12.2628  -16.0970   26.8723 C   0  0  0  0  0  0  0  0  0  0  0  0
   11.0231  -15.3644   27.1893 C   0  0  0  0  0  0  0  0  0  0  0  0
   10.7490  -14.8861   28.4472 C   0  0  0  0  0  0  0  0  0  0  0  0
    9.5691  -14.2138   28.6564 C   0  0  0  0  0  0  0  0  0  0  0  0
    8.6507  -14.0022   27.6489 C   0  0  0  0  0  0  0  0  0  0  0  0
    8.9251  -14.4811   26.3898 C   0  0  0  0  0  0  0  0  0  0  0  0
   10.1090  -15.1550   26.1821 C   0  0  0  0  0  0  0  0  0  0  0  0
   11.9009  -17.9826   28.4243 C   0  0  0  0  0  0  0  0  0  0  0  0
   12.8606  -17.7455   29.2002 O   0  0  0  0  0  0  0  0  0  0  0  0
   10.7883  -18.6198   28.9225 O   0  0  0  0  0  0  0  0  0  0  0  0
  2  1  1  1
  2 13  1  0
  2  3  1  0
  3  4  1  0
  4  5  2  0
  5  6  1  0
  7  6  1  0
  8  7  2  0
  9  8  1  0
 10 11  1  0
 10  9  2  0
 11 12  2  0
 12  4  1  0
 12  7  1  0
 13 15  1  0
 14 13  2  0
 15 16  1  0
 17 18  2  0
 17 16  1  0
 19 17  1  0
 20 21  1  1
 20 19  1  0
 21 22  1  0
 22 23  2  0
 23 24  1  0
 25 24  2  0
 26 25  1  0
 27 26  2  0
 27 22  1  0
 28 30  1  0
 28 20  1  0
 29 28  2  0
M  END
$$$$
