WGF.pdb
     RDKit          3D

 30 32  0  0  1  0  0  0  0  0999 V2000
    7.2998  -17.4557   23.5763 N   0  0  0  0  0  0  0  0  0  0  0  0
    8.4791  -16.6749   23.8761 C   0  0  1  0  0  0  0  0  0  0  0  0
    8.4389  -16.0538   25.2400 C   0  0  0  0  0  0  0  0  0  0  0  0
    7.2859  -15.1523   25.4699 C   0  0  0  0  0  0  0  0  0  0  0  0
    5.9765  -15.6005   25.6882 C   0  0  0  0  0  0  0  0  0  0  0  0
    5.1731  -14.5349   25.8406 N   0  0  0  0  0  0  0  0  0  0  0  0
    5.8692  -13.3908   25.7375 C   0  0  0  0  0  0  0  0  0  0  0  0
    5.4921  -12.0704   25.8248 C   0  0  0  0  0  0  0  0  0  0  0  0
    6.4456  -11.0901   25.6805 C   0  0  0  0  0  0  0  0  0  0  0  0
    7.7478  -11.4792   25.4529 C   0  0  0  0  0  0  0  0  0  0  0  0
    8.1371  -12.8079   25.3633 C   0  0  0  0  0  0  0  0  0  0  0  0
    7.1943  -13.7788   25.5052 C   0  0  0  0  0  0  0  0  0  0  0  0
    9.7127  -17.4601   23.6421 C   0  0  0  0  0  0  0  0  0  0  0  0
    9.6798  -18.6983   23.7884 O   0  0  0  0  0  0  0  0  0  0  0  0
   10.9231  -16.8342   23.2572 N   0  0  0  0  0  0  0  0  0  0  0  0
   12.1999  -17.5027   23.2606 C   0  0  0  0  0  0  0  0  0  0  0  0
   12.7742  -17.6420   24.6162 C   0  0  0  0  0  0  0  0  0  0  0  0
   13.9912  -17.9994   24.7788 O   0  0  0  0  0  0  0  0  0  0  0  0
   12.0280  -17.3974   25.7941 N   0  0  0  0  0  0  0  0  0  0  0  0
   12.5110  -17.7965   27.0787 C   0  0  1  0  0  0  0  0  0  0  0  0
   12.5113  -16.7513   28.1346 C   0  0  0  0  0  0  0  0  0  0  0  0
   11.5525  -15.6903   27.7754 C   0  0  0  0  0  0  0  0  0  0  0  0
   10.4113  -15.4496   28.5007 C   0  0  0  0  0  0  0  0  0  0  0  0
    9.5712  -14.4405   28.0960 C   0  0  0  0  0  0  0  0  0  0  0  0
    9.8327  -13.6611   26.9881 C   0  0  0  0  0  0  0  0  0  0  0  0
   10.9750  -13.9022   26.2621 C   0  0  0  0  0  0  0  0  0  0  0  0
   11.8162  -14.9146   26.6697 C   0  0  0  0  0  0  0  0  0  0  0  0
   11.7155  -19.0044   27.5138 C   0  0  0  0  0  0  0  0  0  0  0  0
   10.7878  -19.4148   26.7720 O   0  0  0  0  0  0  0  0  0  0  0  0
   11.9664  -19.6708   28.6908 O   0  0  0  0  0  0  0  0  0  0  0  0
  2  1  1  1
  2 13  1  0
  2  3  1  0
  3  4  1  0
  4  5  2  0
  5  6  1  0
  7  6  1  0
  8  7  2  0
  9  8  1  0
 10 11  1  0
 10  9  2  0
 11 12  2  0
 12  4  1  0
 12  7  1  0
 13 15  1  0
 14 13  2  0
 15 16  1  0
 17 18  2  0
 17 16  1  0
 19 17  1  0
 20 21  1  1
 20 19  1  0
 21 22  1  0
 22 23  2  0
 23 24  1  0
 25 24  2  0
 26 25  1  0
 27 26  2  0
 27 22  1  0
 28 30  1  0
 28 20  1  0
 29 28  2  0
M  END
$$$$
