RLI.pdb
     RDKit          3D

 28 27  0  0  1  0  0  0  0  0999 V2000
   26.8473  -25.1695  -15.6099 N   0  0  0  0  0  0  0  0  0  0  0  0
   27.6640  -24.2684  -16.3304 C   0  0  0  0  0  0  0  0  0  0  0  0
   28.7589  -24.6602  -16.9298 N   0  0  0  0  0  0  0  0  0  0  0  0
   27.3692  -22.8902  -16.4604 N   0  0  0  0  0  0  0  0  0  0  0  0
   26.0767  -22.3567  -16.1082 C   0  0  0  0  0  0  0  0  0  0  0  0
   25.8716  -22.2581  -14.6278 C   0  0  0  0  0  0  0  0  0  0  0  0
   24.5670  -21.6953  -14.1894 C   0  0  0  0  0  0  0  0  0  0  0  0
   23.3514  -22.4735  -14.6117 C   0  0  2  0  0  0  0  0  0  0  0  0
   23.0327  -22.3470  -16.0163 N   0  0  0  0  0  0  0  0  0  0  0  0
   22.2071  -21.9637  -13.8070 C   0  0  0  0  0  0  0  0  0  0  0  0
   22.2487  -21.9804  -12.5453 O   0  0  0  0  0  0  0  0  0  0  0  0
   29.2905  -23.9294  -17.4388 C   0  0  0  0  0  0  0  0  0  0  0  0
   20.6456  -18.2933  -12.2047 C   0  0  2  0  0  0  0  0  0  0  0  0
   20.6576  -18.5730  -13.6881 C   0  0  0  0  0  0  0  0  0  0  0  0
   20.2194  -17.2902  -14.3979 C   0  0  0  0  0  0  0  0  0  0  0  0
   19.5761  -19.5865  -13.9800 C   0  0  2  0  0  0  0  0  0  0  0  0
   19.9403  -20.9765  -13.5669 N   0  0  0  0  0  0  0  0  0  0  0  0
   21.0270  -21.4397  -14.3993 C   0  0  0  0  0  0  0  0  0  0  0  0
   18.7910  -21.9108  -13.5764 O   0  0  0  0  0  0  0  0  0  0  0  0
   18.4727  -22.4761  -14.6527 C   0  0  0  0  0  0  0  0  0  0  0  0
   18.3601  -26.2829  -11.0100 C   0  0  0  0  0  0  0  0  0  0  0  0
   18.1372  -25.1246  -11.9687 C   0  0  2  0  0  0  0  0  0  0  0  0
   17.0613  -24.1965  -11.4698 C   0  0  0  0  0  0  0  0  0  0  0  0
   15.7845  -25.0207  -11.3487 C   0  0  2  0  0  0  0  0  0  0  0  0
   16.8694  -23.0184  -12.3581 N   0  0  0  0  0  0  0  0  0  0  0  0
   18.0565  -22.1698  -12.3974 C   0  0  0  0  0  0  0  0  0  0  0  0
   15.6493  -22.2259  -12.1249 O   0  0  0  0  0  0  0  0  0  0  0  0
   14.4268  -22.3987  -12.7380 O   0  0  0  0  0  0  0  0  0  0  0  0
  1  2  1  0
  2  3  2  0
  4  2  1  0
  4  5  1  0
  6  5  1  0
  7  6  1  0
  8  7  1  0
  8  9  1  6
 10  8  1  0
 10 11  2  0
 13 12  1  6
 13 15  1  0
 13 14  1  0
 16 15  1  1
 16 17  1  0
 17 10  1  0
 18 16  1  0
 19 18  2  0
 20 21  1  0
 21 22  1  0
 22 24  1  0
 22 23  1  1
 24 25  1  6
 24 26  1  0
 25 18  1  0
 26 27  1  0
 28 26  2  0
M  END
$$$$
