RLI.pdb
     RDKit          3D

 28 27  0  0  1  0  0  0  0  0999 V2000
   27.9062  -24.8217  -16.9093 N   0  0  0  0  0  0  0  0  0  0  0  0
   28.0897  -24.5224  -18.2785 C   0  0  0  0  0  0  0  0  0  0  0  0
   28.3599  -25.4539  -19.1565 N   0  0  0  0  0  0  0  0  0  0  0  0
   27.9977  -23.2113  -18.8038 N   0  0  0  0  0  0  0  0  0  0  0  0
   27.6722  -22.0826  -17.9676 C   0  0  0  0  0  0  0  0  0  0  0  0
   28.3848  -22.1094  -16.6505 C   0  0  0  0  0  0  0  0  0  0  0  0
   27.5170  -22.1350  -15.4434 C   0  0  0  0  0  0  0  0  0  0  0  0
   26.6408  -20.9280  -15.2502 C   0  0  2  0  0  0  0  0  0  0  0  0
   27.3176  -19.8029  -14.6447 N   0  0  0  0  0  0  0  0  0  0  0  0
   25.5129  -21.3452  -14.3724 C   0  0  0  0  0  0  0  0  0  0  0  0
   24.8096  -22.3528  -14.6622 O   0  0  0  0  0  0  0  0  0  0  0  0
   28.4027  -25.1520  -20.1479 C   0  0  0  0  0  0  0  0  0  0  0  0
   25.9406  -22.2676  -10.3274 C   0  0  2  0  0  0  0  0  0  0  0  0
   25.6728  -20.7915  -10.4960 C   0  0  0  0  0  0  0  0  0  0  0  0
   25.7105  -20.1589   -9.1033 C   0  0  0  0  0  0  0  0  0  0  0  0
   24.2498  -20.6280  -10.9763 C   0  0  2  0  0  0  0  0  0  0  0  0
   24.0449  -21.0824  -12.3859 N   0  0  0  0  0  0  0  0  0  0  0  0
   25.1696  -20.6487  -13.1828 C   0  0  0  0  0  0  0  0  0  0  0  0
   22.7512  -20.6458  -12.9600 O   0  0  0  0  0  0  0  0  0  0  0  0
   22.5843  -19.4310  -13.2351 C   0  0  0  0  0  0  0  0  0  0  0  0
   20.7446  -22.1593  -17.4035 C   0  0  0  0  0  0  0  0  0  0  0  0
   20.9626  -21.3588  -16.1298 C   0  0  2  0  0  0  0  0  0  0  0  0
   20.0981  -21.8663  -15.0060 C   0  0  0  0  0  0  0  0  0  0  0  0
   18.6492  -21.6476  -15.4263 C   0  0  2  0  0  0  0  0  0  0  0  0
   20.3986  -21.1983  -13.7109 N   0  0  0  0  0  0  0  0  0  0  0  0
   21.7131  -21.5741  -13.1990 C   0  0  0  0  0  0  0  0  0  0  0  0
   19.3627  -21.3136  -12.6694 O   0  0  0  0  0  0  0  0  0  0  0  0
   19.2682  -22.2980  -11.7090 O   0  0  0  0  0  0  0  0  0  0  0  0
  1  2  1  0
  2  3  2  0
  4  2  1  0
  4  5  1  0
  6  5  1  0
  7  6  1  0
  8  7  1  0
  8  9  1  1
 10  8  1  0
 10 11  2  0
 13 12  1  6
 13 15  1  0
 13 14  1  0
 16 15  1  1
 16 17  1  0
 17 10  1  0
 18 16  1  0
 19 18  2  0
 20 21  1  0
 21 22  1  0
 22 24  1  0
 22 23  1  1
 24 25  1  1
 24 26  1  0
 25 18  1  0
 26 27  1  0
 28 26  2  0
M  END
$$$$
