RLI.pdb
     RDKit          3D

 28 27  0  0  1  0  0  0  0  0999 V2000
   25.1812  -17.8138  -17.0467 N   0  0  0  0  0  0  0  0  0  0  0  0
   24.1964  -18.5019  -17.7914 C   0  0  0  0  0  0  0  0  0  0  0  0
   24.3231  -18.7053  -19.0776 N   0  0  0  0  0  0  0  0  0  0  0  0
   23.0112  -19.0193  -17.2161 N   0  0  0  0  0  0  0  0  0  0  0  0
   22.9663  -19.4593  -15.8436 C   0  0  0  0  0  0  0  0  0  0  0  0
   24.2110  -20.1777  -15.4218 C   0  0  0  0  0  0  0  0  0  0  0  0
   24.2020  -20.7377  -14.0445 C   0  0  0  0  0  0  0  0  0  0  0  0
   23.9063  -19.7528  -12.9470 C   0  0  2  0  0  0  0  0  0  0  0  0
   24.8620  -18.6717  -12.8560 N   0  0  0  0  0  0  0  0  0  0  0  0
   23.9109  -20.5133  -11.6670 C   0  0  0  0  0  0  0  0  0  0  0  0
   23.4922  -21.7034  -11.6232 O   0  0  0  0  0  0  0  0  0  0  0  0
   23.5420  -19.2046  -19.5427 C   0  0  0  0  0  0  0  0  0  0  0  0
   27.0985  -21.1869   -8.5760 C   0  0  2  0  0  0  0  0  0  0  0  0
   26.4322  -19.8324   -8.5644 C   0  0  0  0  0  0  0  0  0  0  0  0
   27.0849  -19.0122   -7.4497 C   0  0  0  0  0  0  0  0  0  0  0  0
   24.9955  -20.0235   -8.1380 C   0  0  2  0  0  0  0  0  0  0  0  0
   24.1410  -20.6429   -9.1970 N   0  0  0  0  0  0  0  0  0  0  0  0
   24.3769  -19.9558  -10.4462 C   0  0  0  0  0  0  0  0  0  0  0  0
   22.7035  -20.6807   -8.8423 O   0  0  0  0  0  0  0  0  0  0  0  0
   22.0446  -19.6106   -8.8493 C   0  0  0  0  0  0  0  0  0  0  0  0
   19.0859  -22.3559  -11.4682 C   0  0  0  0  0  0  0  0  0  0  0  0
   19.7019  -21.6313  -10.2824 C   0  0  2  0  0  0  0  0  0  0  0  0
   19.7843  -22.5253   -9.0734 C   0  0  0  0  0  0  0  0  0  0  0  0
   18.3633  -22.6941   -8.5477 C   0  0  2  0  0  0  0  0  0  0  0  0
   20.6938  -21.9847   -8.0272 N   0  0  0  0  0  0  0  0  0  0  0  0
   22.0723  -21.8976   -8.4995 C   0  0  0  0  0  0  0  0  0  0  0  0
   20.6176  -22.6347   -6.7070 O   0  0  0  0  0  0  0  0  0  0  0  0
   19.7179  -22.3516   -5.7017 O   0  0  0  0  0  0  0  0  0  0  0  0
  1  2  1  0
  2  3  2  0
  4  2  1  0
  4  5  1  0
  6  5  1  0
  7  6  1  0
  8  7  1  0
  8  9  1  1
 10  8  1  0
 10 11  2  0
 13 12  1  6
 13 15  1  0
 13 14  1  0
 16 15  1  6
 16 17  1  0
 17 10  1  0
 18 16  1  0
 19 18  2  0
 20 21  1  0
 21 22  1  0
 22 24  1  0
 22 23  1  1
 24 25  1  1
 24 26  1  0
 25 18  1  0
 26 27  1  0
 28 26  2  0
M  END
$$$$
