RLI.pdb
     RDKit          3D

 28 27  0  0  1  0  0  0  0  0999 V2000
   19.8708  -22.5097   -7.6121 N   0  0  0  0  0  0  0  0  0  0  0  0
   18.8547  -22.9662   -8.4822 C   0  0  0  0  0  0  0  0  0  0  0  0
   17.9847  -23.8697   -8.1105 N   0  0  0  0  0  0  0  0  0  0  0  0
   18.6975  -22.4909   -9.8062 N   0  0  0  0  0  0  0  0  0  0  0  0
   19.6383  -21.5710  -10.3962 C   0  0  0  0  0  0  0  0  0  0  0  0
   21.0637  -21.9694  -10.1668 C   0  0  0  0  0  0  0  0  0  0  0  0
   22.0865  -21.1624  -10.8834 C   0  0  0  0  0  0  0  0  0  0  0  0
   22.3814  -21.5949  -12.2933 C   0  0  2  0  0  0  0  0  0  0  0  0
   22.8098  -22.9711  -12.4071 N   0  0  0  0  0  0  0  0  0  0  0  0
   23.4617  -20.7068  -12.8039 C   0  0  0  0  0  0  0  0  0  0  0  0
   23.3028  -19.4549  -12.8414 O   0  0  0  0  0  0  0  0  0  0  0  0
   17.2773  -24.1444   -8.8175 C   0  0  0  0  0  0  0  0  0  0  0  0
   27.5272  -19.3424  -11.7358 C   0  0  2  0  0  0  0  0  0  0  0  0
   27.4315  -20.7909  -12.1502 C   0  0  0  0  0  0  0  0  0  0  0  0
   28.8425  -21.3789  -12.0828 C   0  0  0  0  0  0  0  0  0  0  0  0
   27.0447  -20.8333  -13.6099 C   0  0  2  0  0  0  0  0  0  0  0  0
   25.6687  -20.3111  -13.8732 N   0  0  0  0  0  0  0  0  0  0  0  0
   24.7080  -21.2056  -13.2690 C   0  0  0  0  0  0  0  0  0  0  0  0
   25.3935  -20.0831  -15.3106 O   0  0  0  0  0  0  0  0  0  0  0  0
   25.3603  -21.0687  -16.0896 C   0  0  0  0  0  0  0  0  0  0  0  0
   21.2280  -17.4410  -16.8932 C   0  0  0  0  0  0  0  0  0  0  0  0
   22.4435  -18.3519  -16.8339 C   0  0  2  0  0  0  0  0  0  0  0  0
   23.6693  -17.6702  -17.3822 C   0  0  0  0  0  0  0  0  0  0  0  0
   23.3920  -17.3710  -18.8510 C   0  0  2  0  0  0  0  0  0  0  0  0
   24.8993  -18.4903  -17.2139 N   0  0  0  0  0  0  0  0  0  0  0  0
   25.1701  -18.7799  -15.8090 C   0  0  0  0  0  0  0  0  0  0  0  0
   26.1042  -17.9958  -17.9030 O   0  0  0  0  0  0  0  0  0  0  0  0
   26.5998  -18.4367  -19.1114 O   0  0  0  0  0  0  0  0  0  0  0  0
  1  2  1  0
  2  3  2  0
  4  2  1  0
  4  5  1  0
  6  5  1  0
  7  6  1  0
  8  7  1  0
  8  9  1  1
 10  8  1  0
 10 11  2  0
 13 12  1  1
 13 15  1  0
 13 14  1  0
 16 15  1  1
 16 17  1  0
 17 10  1  0
 18 16  1  0
 19 18  2  0
 20 21  1  0
 21 22  1  0
 22 24  1  0
 22 23  1  1
 24 25  1  6
 24 26  1  0
 25 18  1  0
 26 27  1  0
 28 26  2  0
M  END
$$$$
