RLI.pdb
     RDKit          3D

 28 27  0  0  1  0  0  0  0  0999 V2000
   27.0981  -25.7067  -16.4748 N   0  0  0  0  0  0  0  0  0  0  0  0
   27.9458  -26.1386  -17.5202 C   0  0  0  0  0  0  0  0  0  0  0  0
   27.8704  -27.3485  -18.0123 N   0  0  0  0  0  0  0  0  0  0  0  0
   28.9302  -25.3109  -18.1112 N   0  0  0  0  0  0  0  0  0  0  0  0
   29.1765  -23.9717  -17.6367 C   0  0  0  0  0  0  0  0  0  0  0  0
   29.3381  -23.9018  -16.1493 C   0  0  0  0  0  0  0  0  0  0  0  0
   28.9049  -22.6319  -15.5084 C   0  0  0  0  0  0  0  0  0  0  0  0
   27.4853  -22.2190  -15.7839 C   0  0  2  0  0  0  0  0  0  0  0  0
   27.3177  -21.4809  -17.0157 N   0  0  0  0  0  0  0  0  0  0  0  0
   27.0515  -21.3651  -14.6439 C   0  0  0  0  0  0  0  0  0  0  0  0
   27.5915  -20.2428  -14.4377 O   0  0  0  0  0  0  0  0  0  0  0  0
   28.5467  -27.5818  -18.7632 C   0  0  0  0  0  0  0  0  0  0  0  0
   24.5010  -18.6942  -14.6417 C   0  0  2  0  0  0  0  0  0  0  0  0
   23.8872  -20.0626  -14.4701 C   0  0  0  0  0  0  0  0  0  0  0  0
   22.3719  -19.9043  -14.6128 C   0  0  0  0  0  0  0  0  0  0  0  0
   24.1157  -20.5000  -13.0423 C   0  0  2  0  0  0  0  0  0  0  0  0
   25.5440  -20.8266  -12.7445 N   0  0  0  0  0  0  0  0  0  0  0  0
   26.0265  -21.7553  -13.7409 C   0  0  0  0  0  0  0  0  0  0  0  0
   25.7559  -21.3252  -11.3660 O   0  0  0  0  0  0  0  0  0  0  0  0
   25.7377  -22.5640  -11.1553 C   0  0  0  0  0  0  0  0  0  0  0  0
   28.6401  -18.8283   -7.3459 C   0  0  0  0  0  0  0  0  0  0  0  0
   27.9376  -19.8773   -8.1925 C   0  0  2  0  0  0  0  0  0  0  0  0
   26.4483  -19.8568   -7.9703 C   0  0  0  0  0  0  0  0  0  0  0  0
   26.2110  -20.2378   -6.5134 C   0  0  2  0  0  0  0  0  0  0  0  0
   25.7223  -20.7654   -8.8983 N   0  0  0  0  0  0  0  0  0  0  0  0
   25.9765  -20.4291  -10.2959 C   0  0  0  0  0  0  0  0  0  0  0  0
   24.2817  -20.9357   -8.6396 O   0  0  0  0  0  0  0  0  0  0  0  0
   23.7009  -21.8605   -7.7984 O   0  0  0  0  0  0  0  0  0  0  0  0
  1  2  1  0
  2  3  2  0
  4  2  1  0
  4  5  1  0
  6  5  1  0
  7  6  1  0
  8  7  1  0
  8  9  1  6
 10  8  1  0
 10 11  2  0
 13 12  1  6
 13 15  1  0
 13 14  1  0
 16 15  1  6
 16 17  1  0
 17 10  1  0
 18 16  1  0
 19 18  2  0
 20 21  1  0
 21 22  1  0
 22 24  1  0
 22 23  1  6
 24 25  1  1
 24 26  1  0
 25 18  1  0
 26 27  1  0
 28 26  2  0
M  END
$$$$
