RLI.pdb
     RDKit          3D

 28 27  0  0  1  0  0  0  0  0999 V2000
   28.8840  -26.5858  -16.1370 N   0  0  0  0  0  0  0  0  0  0  0  0
   28.7119  -27.1694  -17.4128 C   0  0  0  0  0  0  0  0  0  0  0  0
   29.3508  -28.2555  -17.7648 N   0  0  0  0  0  0  0  0  0  0  0  0
   27.8480  -26.6354  -18.3987 N   0  0  0  0  0  0  0  0  0  0  0  0
   27.0013  -25.5000  -18.1276 C   0  0  0  0  0  0  0  0  0  0  0  0
   27.7529  -24.3365  -17.5579 C   0  0  0  0  0  0  0  0  0  0  0  0
   27.1639  -23.7161  -16.3417 C   0  0  0  0  0  0  0  0  0  0  0  0
   25.8025  -23.1031  -16.5221 C   0  0  2  0  0  0  0  0  0  0  0  0
   25.5993  -22.4972  -17.8190 N   0  0  0  0  0  0  0  0  0  0  0  0
   25.6522  -22.0599  -15.4704 C   0  0  0  0  0  0  0  0  0  0  0  0
   25.7366  -22.3612  -14.2474 O   0  0  0  0  0  0  0  0  0  0  0  0
   29.2683  -28.5345  -18.7604 C   0  0  0  0  0  0  0  0  0  0  0  0
   28.2026  -19.2798  -14.3502 C   0  0  2  0  0  0  0  0  0  0  0  0
   27.3739  -18.7901  -15.5130 C   0  0  0  0  0  0  0  0  0  0  0  0
   27.9413  -17.4344  -15.9388 C   0  0  0  0  0  0  0  0  0  0  0  0
   25.9805  -18.5038  -15.0044 C   0  0  2  0  0  0  0  0  0  0  0  0
   25.1913  -19.7397  -14.7123 N   0  0  0  0  0  0  0  0  0  0  0  0
   25.4102  -20.6937  -15.7755 C   0  0  0  0  0  0  0  0  0  0  0  0
   23.7516  -19.4757  -14.4855 O   0  0  0  0  0  0  0  0  0  0  0  0
   23.4133  -18.6790  -13.5744 C   0  0  0  0  0  0  0  0  0  0  0  0
   21.0716  -19.2808  -18.8148 C   0  0  0  0  0  0  0  0  0  0  0  0
   21.2461  -18.8419  -17.3699 C   0  0  2  0  0  0  0  0  0  0  0  0
   20.6241  -19.8277  -16.4164 C   0  0  0  0  0  0  0  0  0  0  0  0
   19.1644  -19.4219  -16.2472 C   0  0  2  0  0  0  0  0  0  0  0  0
   21.3325  -19.8789  -15.1090 N   0  0  0  0  0  0  0  0  0  0  0  0
   22.7648  -20.1054  -15.2768 C   0  0  0  0  0  0  0  0  0  0  0  0
   20.7592  -20.7861  -14.0992 O   0  0  0  0  0  0  0  0  0  0  0  0
   19.8687  -20.4494  -13.1023 O   0  0  0  0  0  0  0  0  0  0  0  0
  1  2  1  0
  2  3  2  0
  4  2  1  0
  4  5  1  0
  6  5  1  0
  7  6  1  0
  8  7  1  0
  8  9  1  6
 10  8  1  0
 10 11  2  0
 13 12  1  6
 13 15  1  0
 13 14  1  0
 16 15  1  1
 16 17  1  0
 17 10  1  0
 18 16  1  0
 19 18  2  0
 20 21  1  0
 21 22  1  0
 22 24  1  0
 22 23  1  1
 24 25  1  1
 24 26  1  0
 25 18  1  0
 26 27  1  0
 28 26  2  0
M  END
$$$$
