RLI.pdb
     RDKit          3D

 28 27  0  0  1  0  0  0  0  0999 V2000
   26.3784  -14.6980  -18.1627 N   0  0  0  0  0  0  0  0  0  0  0  0
   26.3310  -13.9562  -16.9605 C   0  0  0  0  0  0  0  0  0  0  0  0
   26.7472  -12.7174  -16.8992 N   0  0  0  0  0  0  0  0  0  0  0  0
   25.8373  -14.4841  -15.7436 N   0  0  0  0  0  0  0  0  0  0  0  0
   24.7065  -15.3783  -15.7106 C   0  0  0  0  0  0  0  0  0  0  0  0
   24.9287  -16.6271  -16.5070 C   0  0  0  0  0  0  0  0  0  0  0  0
   24.4882  -17.8936  -15.8645 C   0  0  0  0  0  0  0  0  0  0  0  0
   25.5763  -18.7013  -15.2123 C   0  0  2  0  0  0  0  0  0  0  0  0
   26.5493  -19.2322  -16.1406 N   0  0  0  0  0  0  0  0  0  0  0  0
   24.9143  -19.8316  -14.5044 C   0  0  0  0  0  0  0  0  0  0  0  0
   24.6472  -20.9050  -15.1129 O   0  0  0  0  0  0  0  0  0  0  0  0
   26.6667  -12.2510  -15.9763 C   0  0  0  0  0  0  0  0  0  0  0  0
   26.3219  -22.0671  -11.2975 C   0  0  2  0  0  0  0  0  0  0  0  0
   25.6602  -20.8015  -10.8083 C   0  0  0  0  0  0  0  0  0  0  0  0
   25.8060  -20.7697   -9.2854 C   0  0  0  0  0  0  0  0  0  0  0  0
   24.1771  -20.9198  -11.0703 C   0  0  2  0  0  0  0  0  0  0  0  0
   23.8258  -20.8597  -12.5223 N   0  0  0  0  0  0  0  0  0  0  0  0
   24.5522  -19.7694  -13.1321 C   0  0  0  0  0  0  0  0  0  0  0  0
   22.3682  -20.7679  -12.7692 O   0  0  0  0  0  0  0  0  0  0  0  0
   21.7676  -19.7002  -12.4887 C   0  0  0  0  0  0  0  0  0  0  0  0
   20.2084  -22.2954  -17.3598 C   0  0  0  0  0  0  0  0  0  0  0  0
   20.5080  -21.6476  -16.0177 C   0  0  2  0  0  0  0  0  0  0  0  0
   19.8694  -22.4074  -14.8851 C   0  0  0  0  0  0  0  0  0  0  0  0
   18.3648  -22.3881  -15.1296 C   0  0  2  0  0  0  0  0  0  0  0  0
   20.2143  -21.8399  -13.5536 N   0  0  0  0  0  0  0  0  0  0  0  0
   21.6539  -21.8594  -13.3123 C   0  0  0  0  0  0  0  0  0  0  0  0
   19.4692  -22.3868  -12.4060 O   0  0  0  0  0  0  0  0  0  0  0  0
   18.2790  -21.9129  -11.8972 O   0  0  0  0  0  0  0  0  0  0  0  0
  1  2  1  0
  2  3  2  0
  4  2  1  0
  4  5  1  0
  6  5  1  0
  7  6  1  0
  8  7  1  0
  8  9  1  6
 10  8  1  0
 10 11  2  0
 13 12  1  6
 13 15  1  0
 13 14  1  0
 16 15  1  6
 16 17  1  0
 17 10  1  0
 18 16  1  0
 19 18  2  0
 20 21  1  0
 21 22  1  0
 22 24  1  0
 22 23  1  1
 24 25  1  1
 24 26  1  0
 25 18  1  0
 26 27  1  0
 28 26  2  0
M  END
$$$$
