RLI.pdb
     RDKit          3D

 28 27  0  0  1  0  0  0  0  0999 V2000
   14.1111  -26.1465  -12.0417 N   0  0  0  0  0  0  0  0  0  0  0  0
   15.3354  -26.5233  -12.6391 C   0  0  0  0  0  0  0  0  0  0  0  0
   15.4538  -26.6675  -13.9341 N   0  0  0  0  0  0  0  0  0  0  0  0
   16.5151  -26.7718  -11.8976 N   0  0  0  0  0  0  0  0  0  0  0  0
   16.6070  -26.4545  -10.4939 C   0  0  0  0  0  0  0  0  0  0  0  0
   17.9300  -26.8266   -9.8986 C   0  0  0  0  0  0  0  0  0  0  0  0
   18.0971  -26.5292   -8.4513 C   0  0  0  0  0  0  0  0  0  0  0  0
   18.0082  -25.0759   -8.0745 C   0  0  2  0  0  0  0  0  0  0  0  0
   19.0352  -24.2515   -8.6711 N   0  0  0  0  0  0  0  0  0  0  0  0
   18.1277  -25.0026   -6.5922 C   0  0  0  0  0  0  0  0  0  0  0  0
   19.2269  -24.7029   -6.0485 O   0  0  0  0  0  0  0  0  0  0  0  0
   16.3829  -26.9733  -14.2791 C   0  0  0  0  0  0  0  0  0  0  0  0
   14.7765  -24.0952   -5.7236 C   0  0  2  0  0  0  0  0  0  0  0  0
   14.8130  -24.4015   -4.2458 C   0  0  0  0  0  0  0  0  0  0  0  0
   13.9549  -23.3492   -3.5404 C   0  0  0  0  0  0  0  0  0  0  0  0
   16.2230  -24.1682   -3.7563 C   0  0  1  0  0  0  0  0  0  0  0  0
   17.2067  -25.1593   -4.2905 N   0  0  0  0  0  0  0  0  0  0  0  0
   17.0349  -25.2603   -5.7218 C   0  0  0  0  0  0  0  0  0  0  0  0
   17.1297  -26.4795   -3.6234 O   0  0  0  0  0  0  0  0  0  0  0  0
   16.6265  -27.4490   -4.2448 C   0  0  0  0  0  0  0  0  0  0  0  0
   21.2557  -28.6586   -1.0730 C   0  0  0  0  0  0  0  0  0  0  0  0
   19.9497  -28.4499   -1.8223 C   0  0  2  0  0  0  0  0  0  0  0  0
   18.7992  -28.2367   -0.8742 C   0  0  0  0  0  0  0  0  0  0  0  0
   18.6734  -29.5038   -0.0360 C   0  0  2  0  0  0  0  0  0  0  0  0
   17.5294  -27.9213   -1.5826 N   0  0  0  0  0  0  0  0  0  0  0  0
   17.6123  -26.6568   -2.3073 C   0  0  0  0  0  0  0  0  0  0  0  0
   16.3016  -27.9967   -0.7713 O   0  0  0  0  0  0  0  0  0  0  0  0
   15.5073  -29.1075   -0.5831 O   0  0  0  0  0  0  0  0  0  0  0  0
  1  2  1  0
  2  3  2  0
  4  2  1  0
  4  5  1  0
  6  5  1  0
  7  6  1  0
  8  7  1  0
  8  9  1  6
 10  8  1  0
 10 11  2  0
 13 12  1  6
 13 15  1  0
 13 14  1  0
 16 15  1  6
 16 17  1  0
 17 10  1  0
 18 16  1  0
 19 18  2  0
 20 21  1  0
 21 22  1  0
 22 24  1  0
 22 23  1  1
 24 25  1  6
 24 26  1  0
 25 18  1  0
 26 27  1  0
 28 26  2  0
M  END
$$$$
