RLI.pdb
     RDKit          3D

 28 27  0  0  1  0  0  0  0  0999 V2000
   29.5898  -20.1376  -18.4685 N   0  0  0  0  0  0  0  0  0  0  0  0
   29.9137  -18.7652  -18.3714 C   0  0  0  0  0  0  0  0  0  0  0  0
   30.5882  -18.1492  -19.3080 N   0  0  0  0  0  0  0  0  0  0  0  0
   29.5410  -17.9574  -17.2706 N   0  0  0  0  0  0  0  0  0  0  0  0
   28.6423  -18.4375  -16.2501 C   0  0  0  0  0  0  0  0  0  0  0  0
   27.2490  -18.6522  -16.7558 C   0  0  0  0  0  0  0  0  0  0  0  0
   26.3859  -19.5336  -15.9257 C   0  0  0  0  0  0  0  0  0  0  0  0
   27.0900  -20.2792  -14.8256 C   0  0  2  0  0  0  0  0  0  0  0  0
   27.9702  -21.3252  -15.2962 N   0  0  0  0  0  0  0  0  0  0  0  0
   26.0355  -20.8832  -13.9653 C   0  0  0  0  0  0  0  0  0  0  0  0
   25.4102  -21.9138  -14.3403 O   0  0  0  0  0  0  0  0  0  0  0  0
   30.7624  -17.1377  -19.1588 C   0  0  0  0  0  0  0  0  0  0  0  0
   26.1226  -22.0727   -9.7925 C   0  0  2  0  0  0  0  0  0  0  0  0
   25.9082  -20.5860   -9.9439 C   0  0  0  0  0  0  0  0  0  0  0  0
   25.7888  -19.9966   -8.5370 C   0  0  0  0  0  0  0  0  0  0  0  0
   24.5583  -20.3732  -10.5878 C   0  0  2  0  0  0  0  0  0  0  0  0
   24.5030  -20.8274  -12.0112 N   0  0  0  0  0  0  0  0  0  0  0  0
   25.6792  -20.3464  -12.6992 C   0  0  0  0  0  0  0  0  0  0  0  0
   23.2522  -20.4379  -12.7024 O   0  0  0  0  0  0  0  0  0  0  0  0
   23.1495  -19.2760  -13.1700 C   0  0  0  0  0  0  0  0  0  0  0  0
   21.5019  -22.2975  -16.9840 C   0  0  0  0  0  0  0  0  0  0  0  0
   21.7000  -21.4434  -15.7422 C   0  0  2  0  0  0  0  0  0  0  0  0
   20.6516  -21.7346  -14.7010 C   0  0  0  0  0  0  0  0  0  0  0  0
   19.3044  -21.3652  -15.3113 C   0  0  2  0  0  0  0  0  0  0  0  0
   20.8948  -21.0026  -13.4287 N   0  0  0  0  0  0  0  0  0  0  0  0
   22.1838  -21.3524  -12.8396 C   0  0  0  0  0  0  0  0  0  0  0  0
   19.8126  -21.0654  -12.4307 O   0  0  0  0  0  0  0  0  0  0  0  0
   18.7468  -20.1985  -12.3177 O   0  0  0  0  0  0  0  0  0  0  0  0
  1  2  1  0
  2  3  2  0
  4  2  1  0
  4  5  1  0
  6  5  1  0
  7  6  1  0
  8  7  1  0
  8  9  1  6
 10  8  1  0
 10 11  2  0
 13 12  1  1
 13 15  1  0
 13 14  1  0
 16 15  1  1
 16 17  1  0
 17 10  1  0
 18 16  1  0
 19 18  2  0
 20 21  1  0
 21 22  1  0
 22 24  1  0
 22 23  1  1
 24 25  1  6
 24 26  1  0
 25 18  1  0
 26 27  1  0
 28 26  2  0
M  END
$$$$
