RLI.pdb
     RDKit          3D

 28 27  0  0  1  0  0  0  0  0999 V2000
   17.3319  -16.6035  -24.3191 N   0  0  0  0  0  0  0  0  0  0  0  0
   17.0385  -16.8350  -22.9560 C   0  0  0  0  0  0  0  0  0  0  0  0
   16.1291  -17.6992  -22.5847 N   0  0  0  0  0  0  0  0  0  0  0  0
   17.6939  -16.1617  -21.8974 N   0  0  0  0  0  0  0  0  0  0  0  0
   18.5645  -15.0381  -22.1399 C   0  0  0  0  0  0  0  0  0  0  0  0
   19.2253  -14.5343  -20.8938 C   0  0  0  0  0  0  0  0  0  0  0  0
   19.0210  -13.0936  -20.5878 C   0  0  0  0  0  0  0  0  0  0  0  0
   18.5252  -12.7903  -19.2008 C   0  0  2  0  0  0  0  0  0  0  0  0
   17.0889  -12.6529  -19.1084 N   0  0  0  0  0  0  0  0  0  0  0  0
   19.1626  -11.5120  -18.7807 C   0  0  0  0  0  0  0  0  0  0  0  0
   20.4125  -11.4379  -18.6194 O   0  0  0  0  0  0  0  0  0  0  0  0
   16.0040  -17.8237  -21.5626 C   0  0  0  0  0  0  0  0  0  0  0  0
   19.3076   -7.1703  -20.5448 C   0  0  2  0  0  0  0  0  0  0  0  0
   18.0091   -7.7094  -19.9953 C   0  0  0  0  0  0  0  0  0  0  0  0
   16.9684   -6.5931  -20.1059 C   0  0  0  0  0  0  0  0  0  0  0  0
   18.1924   -7.9464  -18.5146 C   0  0  2  0  0  0  0  0  0  0  0  0
   19.0973   -9.0961  -18.2066 N   0  0  0  0  0  0  0  0  0  0  0  0
   18.4174  -10.3263  -18.5421 C   0  0  0  0  0  0  0  0  0  0  0  0
   19.5933   -9.0938  -16.8110 O   0  0  0  0  0  0  0  0  0  0  0  0
   18.8516   -9.5377  -15.8988 C   0  0  0  0  0  0  0  0  0  0  0  0
   23.6303  -11.6240  -15.1178 C   0  0  0  0  0  0  0  0  0  0  0  0
   22.3656  -10.7958  -15.2766 C   0  0  2  0  0  0  0  0  0  0  0  0
   22.6116   -9.3470  -14.9474 C   0  0  0  0  0  0  0  0  0  0  0  0
   23.1079   -9.2965  -13.5069 C   0  0  2  0  0  0  0  0  0  0  0  0
   21.3985   -8.5067  -15.1376 N   0  0  0  0  0  0  0  0  0  0  0  0
   20.8808   -8.6020  -16.4991 C   0  0  0  0  0  0  0  0  0  0  0  0
   21.5103   -7.1035  -14.7017 O   0  0  0  0  0  0  0  0  0  0  0  0
   21.1443   -6.5918  -13.4752 O   0  0  0  0  0  0  0  0  0  0  0  0
  1  2  1  0
  2  3  2  0
  4  2  1  0
  4  5  1  0
  6  5  1  0
  7  6  1  0
  8  7  1  0
  8  9  1  6
 10  8  1  0
 10 11  2  0
 13 12  1  6
 13 15  1  0
 13 14  1  0
 16 15  1  6
 16 17  1  0
 17 10  1  0
 18 16  1  0
 19 18  2  0
 20 21  1  0
 21 22  1  0
 22 24  1  0
 22 23  1  6
 24 25  1  1
 24 26  1  0
 25 18  1  0
 26 27  1  0
 28 26  2  0
M  END
$$$$
