RLI.pdb
     RDKit          3D

 28 27  0  0  1  0  0  0  0  0999 V2000
   16.4291  -22.0545  -12.5231 N   0  0  0  0  0  0  0  0  0  0  0  0
   16.9811  -22.7237  -11.4072 C   0  0  0  0  0  0  0  0  0  0  0  0
   16.3050  -22.8875  -10.2991 N   0  0  0  0  0  0  0  0  0  0  0  0
   18.2897  -23.2629  -11.3968 N   0  0  0  0  0  0  0  0  0  0  0  0
   19.1335  -23.2227  -12.5654 C   0  0  0  0  0  0  0  0  0  0  0  0
   19.3318  -21.8349  -13.0925 C   0  0  0  0  0  0  0  0  0  0  0  0
   20.6493  -21.2112  -12.7991 C   0  0  0  0  0  0  0  0  0  0  0  0
   21.6855  -21.3478  -13.8805 C   0  0  2  0  0  0  0  0  0  0  0  0
   22.0409  -22.7163  -14.1827 N   0  0  0  0  0  0  0  0  0  0  0  0
   22.8996  -20.6232  -13.4138 C   0  0  0  0  0  0  0  0  0  0  0  0
   22.8546  -19.3873  -13.1603 O   0  0  0  0  0  0  0  0  0  0  0  0
   16.7623  -23.4559   -9.5619 C   0  0  0  0  0  0  0  0  0  0  0  0
   24.6766  -19.8401   -9.9290 C   0  0  2  0  0  0  0  0  0  0  0  0
   24.9232  -21.2438  -10.4269 C   0  0  0  0  0  0  0  0  0  0  0  0
   25.6720  -21.9943   -9.3237 C   0  0  0  0  0  0  0  0  0  0  0  0
   25.8866  -21.1638  -11.5878 C   0  0  2  0  0  0  0  0  0  0  0  0
   25.3030  -20.5066  -12.7973 N   0  0  0  0  0  0  0  0  0  0  0  0
   24.1528  -21.2666  -13.2305 C   0  0  0  0  0  0  0  0  0  0  0  0
   26.2854  -20.3085  -13.8879 O   0  0  0  0  0  0  0  0  0  0  0  0
   27.4740  -20.6774  -13.7134 C   0  0  0  0  0  0  0  0  0  0  0  0
   28.6594  -23.0539  -15.9718 C   0  0  0  0  0  0  0  0  0  0  0  0
   28.2778  -21.6060  -15.7094 C   0  0  2  0  0  0  0  0  0  0  0  0
   27.1670  -21.1557  -16.6210 C   0  0  0  0  0  0  0  0  0  0  0  0
   27.6857  -21.2806  -18.0490 C   0  0  2  0  0  0  0  0  0  0  0  0
   26.7132  -19.7703  -16.3233 N   0  0  0  0  0  0  0  0  0  0  0  0
   25.9018  -19.7142  -15.1111 C   0  0  0  0  0  0  0  0  0  0  0  0
   26.0696  -19.0488  -17.4353 O   0  0  0  0  0  0  0  0  0  0  0  0
   26.7017  -18.3017  -18.4061 O   0  0  0  0  0  0  0  0  0  0  0  0
  1  2  1  0
  2  3  2  0
  4  2  1  0
  4  5  1  0
  6  5  1  0
  7  6  1  0
  8  7  1  0
  8  9  1  1
 10  8  1  0
 10 11  2  0
 13 12  1  1
 13 15  1  0
 13 14  1  0
 16 15  1  1
 16 17  1  0
 17 10  1  0
 18 16  1  0
 19 18  2  0
 20 21  1  0
 21 22  1  0
 22 24  1  0
 22 23  1  1
 24 25  1  6
 24 26  1  0
 25 18  1  0
 26 27  1  0
 28 26  2  0
M  END
$$$$
