RLI.pdb
     RDKit          3D

 28 27  0  0  1  0  0  0  0  0999 V2000
   18.9411  -24.4135  -16.6838 N   0  0  0  0  0  0  0  0  0  0  0  0
   18.8596  -24.2014  -15.2888 C   0  0  0  0  0  0  0  0  0  0  0  0
   17.8216  -24.5888  -14.5930 N   0  0  0  0  0  0  0  0  0  0  0  0
   19.8779  -23.5625  -14.5417 N   0  0  0  0  0  0  0  0  0  0  0  0
   21.0677  -23.0464  -15.1720 C   0  0  0  0  0  0  0  0  0  0  0  0
   22.1177  -24.0941  -15.3794 C   0  0  0  0  0  0  0  0  0  0  0  0
   23.3727  -23.9182  -14.6017 C   0  0  0  0  0  0  0  0  0  0  0  0
   24.5451  -23.3829  -15.3768 C   0  0  2  0  0  0  0  0  0  0  0  0
   25.2895  -24.3972  -16.0892 N   0  0  0  0  0  0  0  0  0  0  0  0
   25.4472  -22.7175  -14.3969 C   0  0  0  0  0  0  0  0  0  0  0  0
   26.3112  -23.3833  -13.7613 O   0  0  0  0  0  0  0  0  0  0  0  0
   17.8409  -24.3708  -13.5792 C   0  0  0  0  0  0  0  0  0  0  0  0
   28.4126  -19.6239  -14.7247 C   0  0  1  0  0  0  0  0  0  0  0  0
   27.0213  -19.0382  -14.7205 C   0  0  0  0  0  0  0  0  0  0  0  0
   27.1659  -17.5180  -14.8178 C   0  0  0  0  0  0  0  0  0  0  0  0
   26.4094  -19.3005  -13.3644 C   0  0  2  0  0  0  0  0  0  0  0  0
   26.2051  -20.7537  -13.0781 N   0  0  0  0  0  0  0  0  0  0  0  0
   25.3896  -21.3242  -14.1259 C   0  0  0  0  0  0  0  0  0  0  0  0
   25.6465  -21.0126  -11.7310 O   0  0  0  0  0  0  0  0  0  0  0  0
   24.5251  -21.5713  -11.6322 C   0  0  0  0  0  0  0  0  0  0  0  0
   27.2027  -19.8346   -5.7684 C   0  0  0  0  0  0  0  0  0  0  0  0
   26.2099  -20.3549   -6.7952 C   0  0  2  0  0  0  0  0  0  0  0  0
   26.7284  -20.1828   -8.1986 C   0  0  0  0  0  0  0  0  0  0  0  0
   26.9446  -18.6889   -8.4124 C   0  0  2  0  0  0  0  0  0  0  0  0
   25.8082  -20.7537   -9.2189 N   0  0  0  0  0  0  0  0  0  0  0  0
   26.3563  -20.6408  -10.5672 C   0  0  0  0  0  0  0  0  0  0  0  0
   24.4126  -20.2839   -9.1647 O   0  0  0  0  0  0  0  0  0  0  0  0
   23.8282  -19.3458   -9.9884 O   0  0  0  0  0  0  0  0  0  0  0  0
  1  2  1  0
  2  3  2  0
  4  2  1  0
  4  5  1  0
  6  5  1  0
  7  6  1  0
  8  7  1  0
  8  9  1  1
 10  8  1  0
 10 11  2  0
 13 12  1  6
 13 15  1  0
 13 14  1  0
 16 15  1  6
 16 17  1  0
 17 10  1  0
 18 16  1  0
 19 18  2  0
 20 21  1  0
 21 22  1  0
 22 24  1  0
 22 23  1  6
 24 25  1  6
 24 26  1  0
 25 18  1  0
 26 27  1  0
 28 26  2  0
M  END
$$$$
