RLI.pdb
     RDKit          3D

 28 27  0  0  1  0  0  0  0  0999 V2000
   22.1978  -24.2457  -16.1099 N   0  0  0  0  0  0  0  0  0  0  0  0
   22.9405  -24.4798  -14.9303 C   0  0  0  0  0  0  0  0  0  0  0  0
   23.9186  -25.3480  -14.8935 N   0  0  0  0  0  0  0  0  0  0  0  0
   22.6912  -23.8051  -13.7113 N   0  0  0  0  0  0  0  0  0  0  0  0
   21.7479  -22.7176  -13.6280 C   0  0  0  0  0  0  0  0  0  0  0  0
   22.3668  -21.4472  -13.1316 C   0  0  0  0  0  0  0  0  0  0  0  0
   23.3801  -21.5968  -12.0538 C   0  0  0  0  0  0  0  0  0  0  0  0
   23.9907  -20.3154  -11.5569 C   0  0  2  0  0  0  0  0  0  0  0  0
   24.6136  -19.5222  -12.5929 N   0  0  0  0  0  0  0  0  0  0  0  0
   25.0189  -20.6867  -10.5461 C   0  0  0  0  0  0  0  0  0  0  0  0
   24.7184  -21.4130   -9.5582 O   0  0  0  0  0  0  0  0  0  0  0  0
   24.4687  -25.3831  -14.0150 C   0  0  0  0  0  0  0  0  0  0  0  0
   28.7313  -22.6564  -11.2585 C   0  0  2  0  0  0  0  0  0  0  0  0
   28.8686  -21.1686  -11.4742 C   0  0  0  0  0  0  0  0  0  0  0  0
   30.3167  -20.8994  -11.8888 C   0  0  0  0  0  0  0  0  0  0  0  0
   28.6968  -20.4861  -10.1375 C   0  0  2  0  0  0  0  0  0  0  0  0
   27.3099  -20.5969   -9.5901 N   0  0  0  0  0  0  0  0  0  0  0  0
   26.3695  -20.2544  -10.6325 C   0  0  0  0  0  0  0  0  0  0  0  0
   27.0991  -19.7966   -8.3617 O   0  0  0  0  0  0  0  0  0  0  0  0
   26.6257  -18.6368   -8.4625 C   0  0  0  0  0  0  0  0  0  0  0  0
   26.3128  -21.8104   -3.1729 C   0  0  0  0  0  0  0  0  0  0  0  0
   26.2996  -20.9600   -4.4328 C   0  0  2  0  0  0  0  0  0  0  0  0
   27.6288  -20.2888   -4.6578 C   0  0  0  0  0  0  0  0  0  0  0  0
   27.9009  -19.4206   -3.4346 C   0  0  2  0  0  0  0  0  0  0  0  0
   27.6574  -19.4899   -5.9126 N   0  0  0  0  0  0  0  0  0  0  0  0
   27.4223  -20.3205   -7.0898 C   0  0  0  0  0  0  0  0  0  0  0  0
   28.8305  -18.6172   -6.0958 O   0  0  0  0  0  0  0  0  0  0  0  0
   28.9637  -17.3163   -5.6599 O   0  0  0  0  0  0  0  0  0  0  0  0
  1  2  1  0
  2  3  2  0
  4  2  1  0
  4  5  1  0
  6  5  1  0
  7  6  1  0
  8  7  1  0
  8  9  1  6
 10  8  1  0
 10 11  2  0
 13 12  1  6
 13 15  1  0
 13 14  1  0
 16 15  1  6
 16 17  1  0
 17 10  1  0
 18 16  1  0
 19 18  2  0
 20 21  1  0
 21 22  1  0
 22 24  1  0
 22 23  1  6
 24 25  1  6
 24 26  1  0
 25 18  1  0
 26 27  1  0
 28 26  2  0
M  END
$$$$
