NHR.pdb
     RDKit          3D

 30 30  0  0  1  0  0  0  0  0999 V2000
   17.4765  -18.3519   14.1450 N   0  0  0  0  0  0  0  0  0  0  0  0
   17.8542  -17.1431   13.4976 C   0  0  0  0  0  0  0  0  0  0  0  0
   19.0461  -16.7461   13.5616 O   0  0  0  0  0  0  0  0  0  0  0  0
   16.8829  -16.3183   12.7417 C   0  0  0  0  0  0  0  0  0  0  0  0
   15.4962  -16.9024   13.0207 C   0  0  2  0  0  0  0  0  0  0  0  0
   14.5159  -16.2465   12.1729 N   0  0  0  0  0  0  0  0  0  0  0  0
   15.1846  -16.7269   14.4553 C   0  0  0  0  0  0  0  0  0  0  0  0
   15.3932  -15.6054   14.9862 O   0  0  0  0  0  0  0  0  0  0  0  0
   14.6602  -17.8080   15.2051 N   0  0  0  0  0  0  0  0  0  0  0  0
   14.3276  -17.7293   16.6031 C   0  0  1  0  0  0  0  0  0  0  0  0
   12.8619  -17.7303   16.8326 C   0  0  0  0  0  0  0  0  0  0  0  0
   12.0758  -18.6958   16.0490 C   0  0  0  0  0  0  0  0  0  0  0  0
   12.4160  -19.6152   15.0940 C   0  0  0  0  0  0  0  0  0  0  0  0
   11.2812  -20.2373   14.6908 N   0  0  0  0  0  0  0  0  0  0  0  0
   10.2636  -19.7175   15.3772 C   0  0  0  0  0  0  0  0  0  0  0  0
   10.7367  -18.7907   16.1945 N   0  0  0  0  0  0  0  0  0  0  0  0
   14.8459  -19.0111   17.2256 C   0  0  0  0  0  0  0  0  0  0  0  0
   15.2642  -19.9678   16.5305 O   0  0  0  0  0  0  0  0  0  0  0  0
   22.5642  -18.7964   18.6318 N   0  0  0  0  0  0  0  0  0  0  0  0
   22.1669  -19.7419   19.6116 C   0  0  0  0  0  0  0  0  0  0  0  0
   23.0222  -20.4405   20.2858 N   0  0  0  0  0  0  0  0  0  0  0  0
   20.7854  -19.9345   19.8696 N   0  0  0  0  0  0  0  0  0  0  0  0
   19.7229  -19.2400   19.1523 C   0  0  0  0  0  0  0  0  0  0  0  0
   18.4109  -19.8020   19.6319 C   0  0  0  0  0  0  0  0  0  0  0  0
   17.2639  -19.1484   18.9401 C   0  0  0  0  0  0  0  0  0  0  0  0
   15.9536  -19.7008   19.3628 C   0  0  2  0  0  0  0  0  0  0  0  0
   14.8418  -19.0899   18.6366 N   0  0  0  0  0  0  0  0  0  0  0  0
   15.6562  -19.6697   20.7957 C   0  0  0  0  0  0  0  0  0  0  0  0
   14.5867  -18.9867   21.3505 O   0  0  0  0  0  0  0  0  0  0  0  0
   16.3867  -20.2863   21.6388 O   0  0  0  0  0  0  0  0  0  0  0  0
  1  2  1  0
  2  3  2  0
  4  2  1  0
  5  6  1  6
  5  4  1  0
  7  5  1  0
  8  7  2  0
  9  7  1  0
 10  9  1  0
 11 12  1  0
 10 11  1  6
 12 13  2  0
 14 13  1  0
 15 14  1  0
 16 15  2  0
 16 12  1  0
 17 10  1  0
 17 18  2  0
 19 20  1  0
 20 21  2  0
 22 23  1  0
 22 20  1  0
 23 24  1  0
 26 25  1  1
 25 24  1  0
 26 27  1  0
 27 17  1  0
 28 26  1  0
 29 28  1  0
 30 28  2  0
M  END
$$$$
