NHR.pdb
     RDKit          3D

 30 30  0  0  1  0  0  0  0  0999 V2000
    1.1599  -18.7459   22.5519 N   0  0  0  0  0  0  0  0  0  0  0  0
    2.2167  -19.6864   22.6992 C   0  0  0  0  0  0  0  0  0  0  0  0
    1.9503  -20.9005   22.8921 O   0  0  0  0  0  0  0  0  0  0  0  0
    3.6417  -19.2853   22.6366 C   0  0  0  0  0  0  0  0  0  0  0  0
    3.9218  -18.8751   21.1892 C   0  0  2  0  0  0  0  0  0  0  0  0
    3.8789  -20.0504   20.3367 N   0  0  0  0  0  0  0  0  0  0  0  0
    5.2376  -18.2033   21.1301 C   0  0  0  0  0  0  0  0  0  0  0  0
    6.2783  -18.9019   21.2404 O   0  0  0  0  0  0  0  0  0  0  0  0
    5.3107  -16.8003   20.9505 N   0  0  0  0  0  0  0  0  0  0  0  0
    6.5420  -16.0760   20.7759 C   0  0  1  0  0  0  0  0  0  0  0  0
    6.3118  -14.6493   20.4408 C   0  0  0  0  0  0  0  0  0  0  0  0
    7.5087  -13.8364   20.1748 C   0  0  0  0  0  0  0  0  0  0  0  0
    7.9879  -13.2274   19.0467 C   0  0  0  0  0  0  0  0  0  0  0  0
    9.1528  -12.6129   19.3671 N   0  0  0  0  0  0  0  0  0  0  0  0
    9.3905  -12.8350   20.6598 C   0  0  0  0  0  0  0  0  0  0  0  0
    8.4049  -13.5699   21.1490 N   0  0  0  0  0  0  0  0  0  0  0  0
    7.2211  -16.0794   22.1316 C   0  0  0  0  0  0  0  0  0  0  0  0
    6.5752  -16.1988   23.2001 O   0  0  0  0  0  0  0  0  0  0  0  0
   10.2638  -20.8154   28.7003 N   0  0  0  0  0  0  0  0  0  0  0  0
    9.9389  -20.9204   27.3236 C   0  0  0  0  0  0  0  0  0  0  0  0
    9.4146  -21.9888   26.8160 N   0  0  0  0  0  0  0  0  0  0  0  0
   10.1928  -19.8199   26.4653 N   0  0  0  0  0  0  0  0  0  0  0  0
    9.6583  -19.7066   25.1135 C   0  0  0  0  0  0  0  0  0  0  0  0
   10.1764  -18.4196   24.5285 C   0  0  0  0  0  0  0  0  0  0  0  0
    9.2321  -17.8758   23.5116 C   0  0  0  0  0  0  0  0  0  0  0  0
    9.4205  -16.4229   23.2783 C   0  0  2  0  0  0  0  0  0  0  0  0
    8.6275  -15.9424   22.1483 N   0  0  0  0  0  0  0  0  0  0  0  0
   10.7982  -15.9532   23.1228 C   0  0  0  0  0  0  0  0  0  0  0  0
   11.2903  -15.3633   21.9704 O   0  0  0  0  0  0  0  0  0  0  0  0
   11.6481  -16.0651   24.0661 O   0  0  0  0  0  0  0  0  0  0  0  0
  1  2  1  0
  2  3  2  0
  4  2  1  0
  5  6  1  6
  5  4  1  0
  7  5  1  0
  8  7  2  0
  9  7  1  0
 10  9  1  0
 11 12  1  0
 10 11  1  1
 12 13  2  0
 14 13  1  0
 15 14  1  0
 16 15  2  0
 16 12  1  0
 17 10  1  0
 17 18  2  0
 19 20  1  0
 20 21  2  0
 22 23  1  0
 22 20  1  0
 23 24  1  0
 26 25  1  6
 25 24  1  0
 26 27  1  0
 27 17  1  0
 28 26  1  0
 29 28  1  0
 30 28  2  0
M  END
$$$$
