NHR.pdb
     RDKit          3D

 30 30  0  0  1  0  0  0  0  0999 V2000
   13.4327  -18.7265   16.2625 N   0  0  0  0  0  0  0  0  0  0  0  0
   13.8497  -19.0239   17.5894 C   0  0  0  0  0  0  0  0  0  0  0  0
   14.7586  -19.8714   17.7836 O   0  0  0  0  0  0  0  0  0  0  0  0
   13.2437  -18.3664   18.7709 C   0  0  0  0  0  0  0  0  0  0  0  0
   12.1088  -17.4818   18.2503 C   0  0  2  0  0  0  0  0  0  0  0  0
   12.6418  -16.5210   17.3000 N   0  0  0  0  0  0  0  0  0  0  0  0
   11.4596  -16.8139   19.3985 C   0  0  0  0  0  0  0  0  0  0  0  0
   12.1855  -16.2743   20.2732 O   0  0  0  0  0  0  0  0  0  0  0  0
   10.0470  -16.7880   19.4986 N   0  0  0  0  0  0  0  0  0  0  0  0
    9.3283  -16.1098   20.5450 C   0  0  1  0  0  0  0  0  0  0  0  0
    7.9351  -15.7866   20.1510 C   0  0  0  0  0  0  0  0  0  0  0  0
    7.7647  -14.6980   19.1762 C   0  0  0  0  0  0  0  0  0  0  0  0
    8.6531  -13.8952   18.5134 C   0  0  0  0  0  0  0  0  0  0  0  0
    7.9439  -13.0417   17.7350 N   0  0  0  0  0  0  0  0  0  0  0  0
    6.6495  -13.3076   17.9103 C   0  0  0  0  0  0  0  0  0  0  0  0
    6.5374  -14.3023   18.7757 N   0  0  0  0  0  0  0  0  0  0  0  0
    9.2172  -17.1046   21.6840 C   0  0  0  0  0  0  0  0  0  0  0  0
    8.7886  -18.2706   21.5109 O   0  0  0  0  0  0  0  0  0  0  0  0
   15.4928  -21.7011   23.1439 N   0  0  0  0  0  0  0  0  0  0  0  0
   14.8695  -21.6633   24.4174 C   0  0  0  0  0  0  0  0  0  0  0  0
   15.2328  -22.4371   25.3887 N   0  0  0  0  0  0  0  0  0  0  0  0
   13.8105  -20.7472   24.6443 N   0  0  0  0  0  0  0  0  0  0  0  0
   12.9746  -20.1965   23.5842 C   0  0  0  0  0  0  0  0  0  0  0  0
   11.8720  -19.4088   24.2406 C   0  0  0  0  0  0  0  0  0  0  0  0
   11.3255  -18.3781   23.3130 C   0  0  0  0  0  0  0  0  0  0  0  0
   10.2296  -17.5860   23.9230 C   0  0  2  0  0  0  0  0  0  0  0  0
    9.6206  -16.6651   22.9651 N   0  0  0  0  0  0  0  0  0  0  0  0
   10.5501  -16.8506   25.1475 C   0  0  0  0  0  0  0  0  0  0  0  0
   11.1765  -15.6155   25.1681 O   0  0  0  0  0  0  0  0  0  0  0  0
   10.2640  -17.3195   26.2977 O   0  0  0  0  0  0  0  0  0  0  0  0
  1  2  1  0
  2  3  2  0
  4  2  1  0
  5  6  1  6
  5  4  1  0
  7  5  1  0
  8  7  2  0
  9  7  1  0
 10  9  1  0
 11 12  1  0
 10 11  1  6
 12 13  2  0
 14 13  1  0
 15 14  1  0
 16 15  2  0
 16 12  1  0
 17 10  1  0
 17 18  2  0
 19 20  1  0
 20 21  2  0
 22 23  1  0
 22 20  1  0
 23 24  1  0
 26 25  1  6
 25 24  1  0
 26 27  1  0
 27 17  1  0
 28 26  1  0
 29 28  1  0
 30 28  2  0
M  END
$$$$
