NHR.pdb
     RDKit          3D

 30 30  0  0  1  0  0  0  0  0999 V2000
   13.1830  -16.4422   14.3095 N   0  0  0  0  0  0  0  0  0  0  0  0
   13.1126  -15.0219   14.3366 C   0  0  0  0  0  0  0  0  0  0  0  0
   13.3306  -14.3653   13.2861 O   0  0  0  0  0  0  0  0  0  0  0  0
   12.7909  -14.2732   15.5741 C   0  0  0  0  0  0  0  0  0  0  0  0
   12.7417  -15.2977   16.7098 C   0  0  2  0  0  0  0  0  0  0  0  0
   11.6632  -16.2394   16.4650 N   0  0  0  0  0  0  0  0  0  0  0  0
   12.5631  -14.5813   17.9908 C   0  0  0  0  0  0  0  0  0  0  0  0
   13.3553  -13.6464   18.2759 O   0  0  0  0  0  0  0  0  0  0  0  0
   11.5153  -14.9496   18.8697 N   0  0  0  0  0  0  0  0  0  0  0  0
   11.3633  -14.4266   20.2019 C   0  0  1  0  0  0  0  0  0  0  0  0
    9.9399  -14.3315   20.6090 C   0  0  0  0  0  0  0  0  0  0  0  0
    9.0469  -13.5909   19.7044 C   0  0  0  0  0  0  0  0  0  0  0  0
    9.2754  -12.8211   18.5961 C   0  0  0  0  0  0  0  0  0  0  0  0
    8.0793  -12.3629   18.1527 N   0  0  0  0  0  0  0  0  0  0  0  0
    7.1335  -12.8355   18.9645 C   0  0  0  0  0  0  0  0  0  0  0  0
    7.7107  -13.5739   19.8984 N   0  0  0  0  0  0  0  0  0  0  0  0
   11.9911  -15.4531   21.1246 C   0  0  0  0  0  0  0  0  0  0  0  0
   12.0929  -16.6619   20.8056 O   0  0  0  0  0  0  0  0  0  0  0  0
   12.2496  -21.7522   25.0805 N   0  0  0  0  0  0  0  0  0  0  0  0
   12.8630  -21.0673   26.1606 C   0  0  0  0  0  0  0  0  0  0  0  0
   13.0883  -21.6350   27.3012 N   0  0  0  0  0  0  0  0  0  0  0  0
   13.2481  -19.7124   25.9934 N   0  0  0  0  0  0  0  0  0  0  0  0
   12.4361  -18.7189   25.3010 C   0  0  0  0  0  0  0  0  0  0  0  0
   13.2170  -18.2530   24.1009 C   0  0  0  0  0  0  0  0  0  0  0  0
   12.4471  -17.2431   23.3207 C   0  0  0  0  0  0  0  0  0  0  0  0
   13.0894  -15.9059   23.3288 C   0  0  2  0  0  0  0  0  0  0  0  0
   12.4648  -14.9925   22.3738 N   0  0  0  0  0  0  0  0  0  0  0  0
   14.5403  -15.8702   23.1378 C   0  0  0  0  0  0  0  0  0  0  0  0
   15.4522  -15.6791   24.1625 O   0  0  0  0  0  0  0  0  0  0  0  0
   15.0617  -16.0158   21.9839 O   0  0  0  0  0  0  0  0  0  0  0  0
  1  2  1  0
  2  3  2  0
  4  2  1  0
  5  6  1  6
  5  4  1  0
  7  5  1  0
  8  7  2  0
  9  7  1  0
 10  9  1  0
 11 12  1  0
 10 11  1  1
 12 13  2  0
 14 13  1  0
 15 14  1  0
 16 15  2  0
 16 12  1  0
 17 10  1  0
 17 18  2  0
 19 20  1  0
 20 21  2  0
 22 23  1  0
 22 20  1  0
 23 24  1  0
 26 25  1  6
 25 24  1  0
 26 27  1  0
 27 17  1  0
 28 26  1  0
 29 28  1  0
 30 28  2  0
M  END
$$$$
