NHR.pdb
     RDKit          3D

 30 30  0  0  1  0  0  0  0  0999 V2000
   11.7152  -19.4293   16.9456 N   0  0  0  0  0  0  0  0  0  0  0  0
   11.5541  -18.2018   16.2455 C   0  0  0  0  0  0  0  0  0  0  0  0
   11.8043  -18.1474   15.0140 O   0  0  0  0  0  0  0  0  0  0  0  0
   11.0992  -16.9641   16.9211 C   0  0  0  0  0  0  0  0  0  0  0  0
   10.9897  -17.2898   18.4123 C   0  0  2  0  0  0  0  0  0  0  0  0
    9.9145  -18.2439   18.6211 N   0  0  0  0  0  0  0  0  0  0  0  0
   10.7607  -16.0344   19.1591 C   0  0  0  0  0  0  0  0  0  0  0  0
   11.6188  -15.1178   19.0778 O   0  0  0  0  0  0  0  0  0  0  0  0
    9.5928  -15.8793   19.9453 N   0  0  0  0  0  0  0  0  0  0  0  0
    9.2746  -14.6859   20.6840 C   0  0  1  0  0  0  0  0  0  0  0  0
    7.9588  -14.1202   20.2975 C   0  0  0  0  0  0  0  0  0  0  0  0
    7.8067  -13.7139   18.8918 C   0  0  0  0  0  0  0  0  0  0  0  0
    8.0094  -12.5283   18.2389 C   0  0  0  0  0  0  0  0  0  0  0  0
    7.6998  -12.7132   16.9323 N   0  0  0  0  0  0  0  0  0  0  0  0
    7.3147  -13.9801   16.7784 C   0  0  0  0  0  0  0  0  0  0  0  0
    7.3774  -14.5850   17.9536 N   0  0  0  0  0  0  0  0  0  0  0  0
    9.1315  -15.1189   22.1301 C   0  0  0  0  0  0  0  0  0  0  0  0
    8.0107  -15.2663   22.6737 O   0  0  0  0  0  0  0  0  0  0  0  0
   11.5353  -22.9640   23.0212 N   0  0  0  0  0  0  0  0  0  0  0  0
   11.7606  -22.3050   24.2568 C   0  0  0  0  0  0  0  0  0  0  0  0
   12.5210  -22.8028   25.1777 N   0  0  0  0  0  0  0  0  0  0  0  0
   11.1360  -21.0548   24.5001 N   0  0  0  0  0  0  0  0  0  0  0  0
   10.7327  -20.1320   23.4459 C   0  0  0  0  0  0  0  0  0  0  0  0
   10.1590  -18.9087   24.1105 C   0  0  0  0  0  0  0  0  0  0  0  0
   10.0860  -17.7660   23.1564 C   0  0  0  0  0  0  0  0  0  0  0  0
   10.4286  -16.4701   23.7919 C   0  0  2  0  0  0  0  0  0  0  0  0
   10.3225  -15.3548   22.8531 N   0  0  0  0  0  0  0  0  0  0  0  0
   11.7211  -16.3919   24.4748 C   0  0  0  0  0  0  0  0  0  0  0  0
   11.9111  -16.7010   25.8114 O   0  0  0  0  0  0  0  0  0  0  0  0
   12.7752  -16.0228   23.8606 O   0  0  0  0  0  0  0  0  0  0  0  0
  1  2  1  0
  2  3  2  0
  4  2  1  0
  5  6  1  6
  5  4  1  0
  7  5  1  0
  8  7  2  0
  9  7  1  0
 10  9  1  0
 11 12  1  0
 10 11  1  6
 12 13  2  0
 14 13  1  0
 15 14  1  0
 16 15  2  0
 16 12  1  0
 17 10  1  0
 17 18  2  0
 19 20  1  0
 20 21  2  0
 22 23  1  0
 22 20  1  0
 23 24  1  0
 26 25  1  6
 25 24  1  0
 26 27  1  0
 27 17  1  0
 28 26  1  0
 29 28  1  0
 30 28  2  0
M  END
$$$$
