NHR.pdb
     RDKit          3D

 30 30  0  0  1  0  0  0  0  0999 V2000
   12.9009  -16.2314   13.9820 N   0  0  0  0  0  0  0  0  0  0  0  0
   11.7572  -15.3868   14.0213 C   0  0  0  0  0  0  0  0  0  0  0  0
   11.5339  -14.5928   13.0716 O   0  0  0  0  0  0  0  0  0  0  0  0
   10.8051  -15.4033   15.1564 C   0  0  0  0  0  0  0  0  0  0  0  0
   11.3824  -16.3590   16.2030 C   0  0  2  0  0  0  0  0  0  0  0  0
   10.6878  -17.6326   16.1298 N   0  0  0  0  0  0  0  0  0  0  0  0
   11.2506  -15.7393   17.5389 C   0  0  0  0  0  0  0  0  0  0  0  0
   11.9010  -14.6907   17.7854 O   0  0  0  0  0  0  0  0  0  0  0  0
   10.4040  -16.3241   18.5122 N   0  0  0  0  0  0  0  0  0  0  0  0
   10.1895  -15.7742   19.8248 C   0  0  1  0  0  0  0  0  0  0  0  0
    8.7481  -15.6394   20.1486 C   0  0  0  0  0  0  0  0  0  0  0  0
    8.0113  -14.5845   19.4353 C   0  0  0  0  0  0  0  0  0  0  0  0
    7.3518  -14.5584   18.2364 C   0  0  0  0  0  0  0  0  0  0  0  0
    6.8573  -13.3088   18.0594 N   0  0  0  0  0  0  0  0  0  0  0  0
    7.2012  -12.5786   19.1203 C   0  0  0  0  0  0  0  0  0  0  0  0
    7.8949  -13.3414   19.9496 N   0  0  0  0  0  0  0  0  0  0  0  0
   10.7395  -16.7982   20.7985 C   0  0  0  0  0  0  0  0  0  0  0  0
   10.8789  -18.0054   20.4878 O   0  0  0  0  0  0  0  0  0  0  0  0
   17.4241  -14.4310   19.7211 N   0  0  0  0  0  0  0  0  0  0  0  0
   16.0119  -14.4016   19.8500 C   0  0  0  0  0  0  0  0  0  0  0  0
   15.2322  -14.1209   18.8563 N   0  0  0  0  0  0  0  0  0  0  0  0
   15.4242  -14.6903   21.1083 N   0  0  0  0  0  0  0  0  0  0  0  0
   15.1832  -16.0420   21.5988 C   0  0  0  0  0  0  0  0  0  0  0  0
   13.7437  -16.3775   21.3116 C   0  0  0  0  0  0  0  0  0  0  0  0
   13.2581  -17.4638   22.2092 C   0  0  0  0  0  0  0  0  0  0  0  0
   12.0166  -17.0936   22.9319 C   0  0  2  0  0  0  0  0  0  0  0  0
   11.0953  -16.3372   22.0860 N   0  0  0  0  0  0  0  0  0  0  0  0
   12.1796  -16.3867   24.2034 C   0  0  0  0  0  0  0  0  0  0  0  0
   12.8419  -16.9099   25.3015 O   0  0  0  0  0  0  0  0  0  0  0  0
   11.7064  -15.2160   24.3775 O   0  0  0  0  0  0  0  0  0  0  0  0
  1  2  1  0
  2  3  2  0
  4  2  1  0
  5  6  1  1
  5  4  1  0
  7  5  1  0
  8  7  2  0
  9  7  1  0
 10  9  1  0
 11 12  1  0
 10 11  1  1
 12 13  2  0
 14 13  1  0
 15 14  1  0
 16 15  2  0
 16 12  1  0
 17 10  1  0
 17 18  2  0
 19 20  1  0
 20 21  2  0
 22 23  1  0
 22 20  1  0
 23 24  1  0
 26 25  1  6
 25 24  1  0
 26 27  1  0
 27 17  1  0
 28 26  1  0
 29 28  1  0
 30 28  2  0
M  END
$$$$
