NHR.pdb
     RDKit          3D

 30 30  0  0  1  0  0  0  0  0999 V2000
    8.5538  -15.0543   14.9028 N   0  0  0  0  0  0  0  0  0  0  0  0
    7.7649  -14.0697   15.5595 C   0  0  0  0  0  0  0  0  0  0  0  0
    6.7221  -13.6343   15.0072 O   0  0  0  0  0  0  0  0  0  0  0  0
    8.1308  -13.5259   16.8883 C   0  0  0  0  0  0  0  0  0  0  0  0
    8.5055  -14.7214   17.7669 C   0  0  2  0  0  0  0  0  0  0  0  0
    7.4682  -15.7340   17.6733 N   0  0  0  0  0  0  0  0  0  0  0  0
    8.6895  -14.2527   19.1570 C   0  0  0  0  0  0  0  0  0  0  0  0
    9.6372  -13.4641   19.4084 O   0  0  0  0  0  0  0  0  0  0  0  0
    7.8077  -14.6892   20.1758 N   0  0  0  0  0  0  0  0  0  0  0  0
    8.0779  -14.5565   21.5831 C   0  0  1  0  0  0  0  0  0  0  0  0
    6.8366  -14.4070   22.3817 C   0  0  0  0  0  0  0  0  0  0  0  0
    7.0043  -14.2845   23.8381 C   0  0  0  0  0  0  0  0  0  0  0  0
    7.4842  -13.2833   24.6384 C   0  0  0  0  0  0  0  0  0  0  0  0
    7.4239  -13.7110   25.9231 N   0  0  0  0  0  0  0  0  0  0  0  0
    6.9202  -14.9452   25.9203 C   0  0  0  0  0  0  0  0  0  0  0  0
    6.6667  -15.2936   24.6693 N   0  0  0  0  0  0  0  0  0  0  0  0
    8.6921  -15.8743   22.0137 C   0  0  0  0  0  0  0  0  0  0  0  0
    8.3211  -16.9713   21.5320 O   0  0  0  0  0  0  0  0  0  0  0  0
   14.4686  -18.6211   19.1695 N   0  0  0  0  0  0  0  0  0  0  0  0
   14.3455  -19.5042   20.2726 C   0  0  0  0  0  0  0  0  0  0  0  0
   15.0985  -20.5472   20.4113 N   0  0  0  0  0  0  0  0  0  0  0  0
   13.3661  -19.2423   21.2648 N   0  0  0  0  0  0  0  0  0  0  0  0
   13.6728  -18.6971   22.5818 C   0  0  0  0  0  0  0  0  0  0  0  0
   12.3661  -18.4860   23.2995 C   0  0  0  0  0  0  0  0  0  0  0  0
   11.6702  -17.2677   22.7965 C   0  0  0  0  0  0  0  0  0  0  0  0
   10.3666  -17.0385   23.4665 C   0  0  2  0  0  0  0  0  0  0  0  0
    9.7125  -15.8213   22.9899 N   0  0  0  0  0  0  0  0  0  0  0  0
   10.3699  -17.0313   24.9304 C   0  0  0  0  0  0  0  0  0  0  0  0
    9.8176  -16.0221   25.7015 O   0  0  0  0  0  0  0  0  0  0  0  0
   10.8978  -17.9803   25.5977 O   0  0  0  0  0  0  0  0  0  0  0  0
  1  2  1  0
  2  3  2  0
  4  2  1  0
  5  6  1  1
  5  4  1  0
  7  5  1  0
  8  7  2  0
  9  7  1  0
 10  9  1  0
 11 12  1  0
 10 11  1  1
 12 13  2  0
 14 13  1  0
 15 14  1  0
 16 15  2  0
 16 12  1  0
 17 10  1  0
 17 18  2  0
 19 20  1  0
 20 21  2  0
 22 23  1  0
 22 20  1  0
 23 24  1  0
 26 25  1  6
 25 24  1  0
 26 27  1  0
 27 17  1  0
 28 26  1  0
 29 28  1  0
 30 28  2  0
M  END
$$$$
