NHR.pdb
     RDKit          3D

 30 30  0  0  1  0  0  0  0  0999 V2000
    7.0623  -13.4999   13.6924 N   0  0  0  0  0  0  0  0  0  0  0  0
    7.8737  -14.5527   14.1987 C   0  0  0  0  0  0  0  0  0  0  0  0
    8.8906  -14.9217   13.5569 O   0  0  0  0  0  0  0  0  0  0  0  0
    7.5613  -15.2451   15.4709 C   0  0  0  0  0  0  0  0  0  0  0  0
    8.6943  -14.9126   16.4443 C   0  0  2  0  0  0  0  0  0  0  0  0
    9.9708  -15.0451   15.7638 N   0  0  0  0  0  0  0  0  0  0  0  0
    8.5999  -15.8146   17.6120 C   0  0  0  0  0  0  0  0  0  0  0  0
    7.5074  -15.8887   18.2317 O   0  0  0  0  0  0  0  0  0  0  0  0
    9.7247  -16.5763   18.0132 N   0  0  0  0  0  0  0  0  0  0  0  0
    9.7466  -17.4255   19.1749 C   0  0  1  0  0  0  0  0  0  0  0  0
   10.8270  -18.4400   19.1087 C   0  0  0  0  0  0  0  0  0  0  0  0
   10.8964  -19.3982   20.2228 C   0  0  0  0  0  0  0  0  0  0  0  0
    9.9747  -20.2388   20.7857 C   0  0  0  0  0  0  0  0  0  0  0  0
   10.5781  -20.8966   21.8057 N   0  0  0  0  0  0  0  0  0  0  0  0
   11.8408  -20.4752   21.8743 C   0  0  0  0  0  0  0  0  0  0  0  0
   12.0363  -19.5746   20.9248 N   0  0  0  0  0  0  0  0  0  0  0  0
   10.0961  -16.5228   20.3420 C   0  0  0  0  0  0  0  0  0  0  0  0
   10.8809  -15.5518   20.2217 O   0  0  0  0  0  0  0  0  0  0  0  0
    5.2574  -12.6610   26.6583 N   0  0  0  0  0  0  0  0  0  0  0  0
    6.5789  -12.1537   26.5679 C   0  0  0  0  0  0  0  0  0  0  0  0
    6.9158  -11.0081   27.0661 N   0  0  0  0  0  0  0  0  0  0  0  0
    7.5736  -12.9228   25.9112 N   0  0  0  0  0  0  0  0  0  0  0  0
    7.2963  -13.8311   24.8050 C   0  0  0  0  0  0  0  0  0  0  0  0
    8.6152  -14.3781   24.3271 C   0  0  0  0  0  0  0  0  0  0  0  0
    8.4245  -15.3045   23.1752 C   0  0  0  0  0  0  0  0  0  0  0  0
    9.6905  -15.9471   22.7450 C   0  0  2  0  0  0  0  0  0  0  0  0
    9.4966  -16.8181   21.5872 N   0  0  0  0  0  0  0  0  0  0  0  0
   10.4388  -16.6798   23.7678 C   0  0  0  0  0  0  0  0  0  0  0  0
   11.4050  -16.1086   24.5791 O   0  0  0  0  0  0  0  0  0  0  0  0
   10.2387  -17.9216   23.9747 O   0  0  0  0  0  0  0  0  0  0  0  0
  1  2  1  0
  2  3  2  0
  4  2  1  0
  5  6  1  6
  5  4  1  0
  7  5  1  0
  8  7  2  0
  9  7  1  0
 10  9  1  0
 11 12  1  0
 10 11  1  6
 12 13  2  0
 14 13  1  0
 15 14  1  0
 16 15  2  0
 16 12  1  0
 17 10  1  0
 17 18  2  0
 19 20  1  0
 20 21  2  0
 22 23  1  0
 22 20  1  0
 23 24  1  0
 26 25  1  1
 25 24  1  0
 26 27  1  0
 27 17  1  0
 28 26  1  0
 29 28  1  0
 30 28  2  0
M  END
$$$$
