NHR.pdb
     RDKit          3D

 30 30  0  0  1  0  0  0  0  0999 V2000
   12.1317  -20.6301   13.9207 N   0  0  0  0  0  0  0  0  0  0  0  0
   11.2164  -19.5627   14.1352 C   0  0  0  0  0  0  0  0  0  0  0  0
   10.2073  -19.4464   13.3933 O   0  0  0  0  0  0  0  0  0  0  0  0
   11.4096  -18.5648   15.2132 C   0  0  0  0  0  0  0  0  0  0  0  0
   10.5592  -19.0254   16.3990 C   0  0  2  0  0  0  0  0  0  0  0  0
    9.2146  -19.3287   15.9408 N   0  0  0  0  0  0  0  0  0  0  0  0
   10.5607  -17.9636   17.4279 C   0  0  0  0  0  0  0  0  0  0  0  0
   11.6372  -17.7014   18.0242 O   0  0  0  0  0  0  0  0  0  0  0  0
    9.3668  -17.2620   17.7255 N   0  0  0  0  0  0  0  0  0  0  0  0
    9.2811  -16.1940   18.6864 C   0  0  1  0  0  0  0  0  0  0  0  0
    7.9555  -15.5281   18.6691 C   0  0  0  0  0  0  0  0  0  0  0  0
    7.7686  -14.4142   19.6117 C   0  0  0  0  0  0  0  0  0  0  0  0
    7.1224  -14.3112   20.8138 C   0  0  0  0  0  0  0  0  0  0  0  0
    7.2552  -13.0350   21.2508 N   0  0  0  0  0  0  0  0  0  0  0  0
    7.9647  -12.3636   20.3438 C   0  0  0  0  0  0  0  0  0  0  0  0
    8.2753  -13.1887   19.3571 N   0  0  0  0  0  0  0  0  0  0  0  0
    9.3978  -16.8508   20.0480 C   0  0  0  0  0  0  0  0  0  0  0  0
    8.9531  -18.0018   20.2730 O   0  0  0  0  0  0  0  0  0  0  0  0
   12.8451  -22.1617   25.2618 N   0  0  0  0  0  0  0  0  0  0  0  0
   13.5762  -21.3678   24.3412 C   0  0  0  0  0  0  0  0  0  0  0  0
   14.6136  -21.8169   23.7119 N   0  0  0  0  0  0  0  0  0  0  0  0
   13.1620  -20.0338   24.0941 N   0  0  0  0  0  0  0  0  0  0  0  0
   11.8007  -19.6631   23.7266 C   0  0  0  0  0  0  0  0  0  0  0  0
   11.7189  -18.1598   23.7511 C   0  0  0  0  0  0  0  0  0  0  0  0
   11.4245  -17.6178   22.3943 C   0  0  0  0  0  0  0  0  0  0  0  0
   10.2681  -16.6886   22.3903 C   0  0  2  0  0  0  0  0  0  0  0  0
   10.0353  -16.1097   21.0685 N   0  0  0  0  0  0  0  0  0  0  0  0
   10.2840  -15.6118   23.3819 C   0  0  0  0  0  0  0  0  0  0  0  0
   10.0926  -15.8061   24.7397 O   0  0  0  0  0  0  0  0  0  0  0  0
   10.4793  -14.3991   23.0418 O   0  0  0  0  0  0  0  0  0  0  0  0
  1  2  1  0
  2  3  2  0
  4  2  1  0
  5  6  1  6
  5  4  1  0
  7  5  1  0
  8  7  2  0
  9  7  1  0
 10  9  1  0
 11 12  1  0
 10 11  1  1
 12 13  2  0
 14 13  1  0
 15 14  1  0
 16 15  2  0
 16 12  1  0
 17 10  1  0
 17 18  2  0
 19 20  1  0
 20 21  2  0
 22 23  1  0
 22 20  1  0
 23 24  1  0
 26 25  1  6
 25 24  1  0
 26 27  1  0
 27 17  1  0
 28 26  1  0
 29 28  1  0
 30 28  2  0
M  END
$$$$
