NHR.pdb
     RDKit          3D

 30 30  0  0  1  0  0  0  0  0999 V2000
   12.2102  -20.2293   17.9241 N   0  0  0  0  0  0  0  0  0  0  0  0
   10.9134  -19.6474   17.9780 C   0  0  0  0  0  0  0  0  0  0  0  0
   10.1109  -19.8204   17.0250 O   0  0  0  0  0  0  0  0  0  0  0  0
   10.4648  -18.8298   19.1293 C   0  0  0  0  0  0  0  0  0  0  0  0
    9.9243  -17.5182   18.5555 C   0  0  2  0  0  0  0  0  0  0  0  0
   10.8057  -17.0533   17.4987 N   0  0  0  0  0  0  0  0  0  0  0  0
    9.8117  -16.5297   19.6493 C   0  0  0  0  0  0  0  0  0  0  0  0
   10.5296  -15.4973   19.6070 O   0  0  0  0  0  0  0  0  0  0  0  0
    8.9080  -16.7524   20.7169 N   0  0  0  0  0  0  0  0  0  0  0  0
    8.6234  -15.7846   21.7434 C   0  0  1  0  0  0  0  0  0  0  0  0
    7.5235  -14.8659   21.3597 C   0  0  0  0  0  0  0  0  0  0  0  0
    7.8156  -13.9060   20.2839 C   0  0  0  0  0  0  0  0  0  0  0  0
    8.2742  -12.6165   20.2867 C   0  0  0  0  0  0  0  0  0  0  0  0
    8.3502  -12.1979   18.9998 N   0  0  0  0  0  0  0  0  0  0  0  0
    7.9490  -13.2009   18.2188 C   0  0  0  0  0  0  0  0  0  0  0  0
    7.6268  -14.2293   18.9865 N   0  0  0  0  0  0  0  0  0  0  0  0
    8.1078  -16.5768   22.9290 C   0  0  0  0  0  0  0  0  0  0  0  0
    7.0439  -17.2391   22.8760 O   0  0  0  0  0  0  0  0  0  0  0  0
   10.6594  -21.0490   31.1801 N   0  0  0  0  0  0  0  0  0  0  0  0
   11.1261  -20.1314   30.2043 C   0  0  0  0  0  0  0  0  0  0  0  0
   12.3380  -19.6781   30.2046 N   0  0  0  0  0  0  0  0  0  0  0  0
   10.2409  -19.6905   29.1874 N   0  0  0  0  0  0  0  0  0  0  0  0
   10.6057  -18.7233   28.1592 C   0  0  0  0  0  0  0  0  0  0  0  0
    9.3924  -18.5019   27.2954 C   0  0  0  0  0  0  0  0  0  0  0  0
    9.7073  -17.5996   26.1517 C   0  0  0  0  0  0  0  0  0  0  0  0
    8.5419  -17.3816   25.2600 C   0  0  2  0  0  0  0  0  0  0  0  0
    8.8801  -16.5426   24.1119 N   0  0  0  0  0  0  0  0  0  0  0  0
    7.3233  -16.8620   25.8828 C   0  0  0  0  0  0  0  0  0  0  0  0
    6.4145  -17.6428   26.5774 O   0  0  0  0  0  0  0  0  0  0  0  0
    7.0199  -15.6257   25.8179 O   0  0  0  0  0  0  0  0  0  0  0  0
  1  2  1  0
  2  3  2  0
  4  2  1  0
  5  6  1  6
  5  4  1  0
  7  5  1  0
  8  7  2  0
  9  7  1  0
 10  9  1  0
 11 12  1  0
 10 11  1  6
 12 13  2  0
 14 13  1  0
 15 14  1  0
 16 15  2  0
 16 12  1  0
 17 10  1  0
 17 18  2  0
 19 20  1  0
 20 21  2  0
 22 23  1  0
 22 20  1  0
 23 24  1  0
 26 25  1  1
 25 24  1  0
 26 27  1  0
 27 17  1  0
 28 26  1  0
 29 28  1  0
 30 28  2  0
M  END
$$$$
