NHR.pdb
     RDKit          3D

 30 30  0  0  1  0  0  0  0  0999 V2000
    8.7981  -14.5246   15.7025 N   0  0  0  0  0  0  0  0  0  0  0  0
    8.1404  -14.9045   16.9051 C   0  0  0  0  0  0  0  0  0  0  0  0
    7.0279  -15.4889   16.8510 O   0  0  0  0  0  0  0  0  0  0  0  0
    8.7219  -14.6317   18.2402 C   0  0  0  0  0  0  0  0  0  0  0  0
    7.6556  -13.8816   19.0414 C   0  0  2  0  0  0  0  0  0  0  0  0
    7.4339  -12.5751   18.4465 N   0  0  0  0  0  0  0  0  0  0  0  0
    8.1022  -13.7747   20.4468 C   0  0  0  0  0  0  0  0  0  0  0  0
    9.3239  -13.5836   20.6798 O   0  0  0  0  0  0  0  0  0  0  0  0
    7.1624  -13.8854   21.5006 N   0  0  0  0  0  0  0  0  0  0  0  0
    7.5044  -13.7888   22.8952 C   0  0  1  0  0  0  0  0  0  0  0  0
    6.3228  -13.5001   23.7445 C   0  0  0  0  0  0  0  0  0  0  0  0
    6.5666  -13.3850   25.1907 C   0  0  0  0  0  0  0  0  0  0  0  0
    6.1247  -14.1031   26.2687 C   0  0  0  0  0  0  0  0  0  0  0  0
    6.6570  -13.5492   27.3855 N   0  0  0  0  0  0  0  0  0  0  0  0
    7.4091  -12.5145   27.0106 C   0  0  0  0  0  0  0  0  0  0  0  0
    7.3575  -12.4123   25.6923 N   0  0  0  0  0  0  0  0  0  0  0  0
    7.9804  -15.1697   23.3022 C   0  0  0  0  0  0  0  0  0  0  0  0
    7.3545  -16.2100   22.9872 O   0  0  0  0  0  0  0  0  0  0  0  0
   14.0643  -21.3324   24.0918 N   0  0  0  0  0  0  0  0  0  0  0  0
   13.9539  -20.4636   22.9760 C   0  0  0  0  0  0  0  0  0  0  0  0
   14.7301  -20.5592   21.9453 N   0  0  0  0  0  0  0  0  0  0  0  0
   12.9594  -19.4521   22.9805 N   0  0  0  0  0  0  0  0  0  0  0  0
   13.0717  -18.2089   23.7339 C   0  0  0  0  0  0  0  0  0  0  0  0
   11.7510  -17.9731   24.4174 C   0  0  0  0  0  0  0  0  0  0  0  0
   11.1271  -16.7020   23.9521 C   0  0  0  0  0  0  0  0  0  0  0  0
    9.7400  -16.5323   24.4499 C   0  0  2  0  0  0  0  0  0  0  0  0
    9.1716  -15.2437   24.0588 N   0  0  0  0  0  0  0  0  0  0  0  0
    9.5258  -16.7277   25.8847 C   0  0  0  0  0  0  0  0  0  0  0  0
    9.3572  -15.6939   26.7908 O   0  0  0  0  0  0  0  0  0  0  0  0
    9.4824  -17.8942   26.3967 O   0  0  0  0  0  0  0  0  0  0  0  0
  1  2  1  0
  2  3  2  0
  4  2  1  0
  5  6  1  6
  5  4  1  0
  7  5  1  0
  8  7  2  0
  9  7  1  0
 10  9  1  0
 11 12  1  0
 10 11  1  1
 12 13  2  0
 14 13  1  0
 15 14  1  0
 16 15  2  0
 16 12  1  0
 17 10  1  0
 17 18  2  0
 19 20  1  0
 20 21  2  0
 22 23  1  0
 22 20  1  0
 23 24  1  0
 26 25  1  1
 25 24  1  0
 26 27  1  0
 27 17  1  0
 28 26  1  0
 29 28  1  0
 30 28  2  0
M  END
$$$$
