NHR.pdb
     RDKit          3D

 30 30  0  0  1  0  0  0  0  0999 V2000
    1.9691  -20.8724   20.4485 N   0  0  0  0  0  0  0  0  0  0  0  0
    2.2703  -19.4854   20.5412 C   0  0  0  0  0  0  0  0  0  0  0  0
    1.3901  -18.6802   20.9399 O   0  0  0  0  0  0  0  0  0  0  0  0
    3.6002  -18.9427   20.1777 C   0  0  0  0  0  0  0  0  0  0  0  0
    4.5008  -19.1241   21.4016 C   0  0  2  0  0  0  0  0  0  0  0  0
    3.8791  -18.4990   22.5560 N   0  0  0  0  0  0  0  0  0  0  0  0
    5.8264  -18.5384   21.1092 C   0  0  0  0  0  0  0  0  0  0  0  0
    6.4607  -18.9505   20.1037 O   0  0  0  0  0  0  0  0  0  0  0  0
    6.3594  -17.5325   21.9519 N   0  0  0  0  0  0  0  0  0  0  0  0
    7.6436  -16.9143   21.7517 C   0  0  1  0  0  0  0  0  0  0  0  0
    7.6224  -15.4631   22.0593 C   0  0  0  0  0  0  0  0  0  0  0  0
    7.6607  -14.5478   20.9083 C   0  0  0  0  0  0  0  0  0  0  0  0
    7.8401  -14.7477   19.5663 C   0  0  0  0  0  0  0  0  0  0  0  0
    7.7970  -13.5387   18.9550 N   0  0  0  0  0  0  0  0  0  0  0  0
    7.5966  -12.6129   19.8928 C   0  0  0  0  0  0  0  0  0  0  0  0
    7.5141  -13.2151   21.0681 N   0  0  0  0  0  0  0  0  0  0  0  0
    8.5701  -17.5418   22.7748 C   0  0  0  0  0  0  0  0  0  0  0  0
    8.1580  -17.9429   23.8896 O   0  0  0  0  0  0  0  0  0  0  0  0
   12.0753  -22.7109   19.1175 N   0  0  0  0  0  0  0  0  0  0  0  0
   12.4424  -22.9305   20.4699 C   0  0  0  0  0  0  0  0  0  0  0  0
   13.0165  -24.0215   20.8625 N   0  0  0  0  0  0  0  0  0  0  0  0
   12.1760  -21.9237   21.4330 N   0  0  0  0  0  0  0  0  0  0  0  0
   13.1977  -21.3272   22.2851 C   0  0  0  0  0  0  0  0  0  0  0  0
   12.5180  -20.3086   23.1612 C   0  0  0  0  0  0  0  0  0  0  0  0
   11.5294  -19.5087   22.3837 C   0  0  0  0  0  0  0  0  0  0  0  0
   10.8491  -18.4827   23.2115 C   0  0  2  0  0  0  0  0  0  0  0  0
    9.9333  -17.6613   22.4222 N   0  0  0  0  0  0  0  0  0  0  0  0
   11.7066  -17.6031   24.0076 C   0  0  0  0  0  0  0  0  0  0  0  0
   12.3110  -17.9782   25.1959 O   0  0  0  0  0  0  0  0  0  0  0  0
   11.9516  -16.4067   23.6423 O   0  0  0  0  0  0  0  0  0  0  0  0
  1  2  1  0
  2  3  2  0
  4  2  1  0
  5  6  1  1
  5  4  1  0
  7  5  1  0
  8  7  2  0
  9  7  1  0
 10  9  1  0
 11 12  1  0
 10 11  1  1
 12 13  2  0
 14 13  1  0
 15 14  1  0
 16 15  2  0
 16 12  1  0
 17 10  1  0
 17 18  2  0
 19 20  1  0
 20 21  2  0
 22 23  1  0
 22 20  1  0
 23 24  1  0
 26 25  1  6
 25 24  1  0
 26 27  1  0
 27 17  1  0
 28 26  1  0
 29 28  1  0
 30 28  2  0
M  END
$$$$
