NHR.pdb
     RDKit          3D

 30 30  0  0  1  0  0  0  0  0999 V2000
   13.3767  -17.7104   15.6191 N   0  0  0  0  0  0  0  0  0  0  0  0
   12.1418  -17.7441   16.3240 C   0  0  0  0  0  0  0  0  0  0  0  0
   11.2832  -18.6179   16.0389 O   0  0  0  0  0  0  0  0  0  0  0  0
   11.8206  -16.7727   17.3957 C   0  0  0  0  0  0  0  0  0  0  0  0
   11.7064  -17.5715   18.6960 C   0  0  2  0  0  0  0  0  0  0  0  0
   10.7830  -18.6764   18.5051 N   0  0  0  0  0  0  0  0  0  0  0  0
   11.2598  -16.6647   19.7751 C   0  0  0  0  0  0  0  0  0  0  0  0
   11.9755  -15.6711   20.0644 O   0  0  0  0  0  0  0  0  0  0  0  0
   10.0469  -16.9204   20.4604 N   0  0  0  0  0  0  0  0  0  0  0  0
    9.5823  -16.1515   21.5847 C   0  0  1  0  0  0  0  0  0  0  0  0
    8.2175  -15.6110   21.3699 C   0  0  0  0  0  0  0  0  0  0  0  0
    8.0759  -14.5817   20.3284 C   0  0  0  0  0  0  0  0  0  0  0  0
    8.9708  -13.9861   19.4813 C   0  0  0  0  0  0  0  0  0  0  0  0
    8.2951  -13.0850   18.7270 N   0  0  0  0  0  0  0  0  0  0  0  0
    7.0149  -13.1202   19.0965 C   0  0  0  0  0  0  0  0  0  0  0  0
    6.8788  -14.0183   20.0587 N   0  0  0  0  0  0  0  0  0  0  0  0
    9.4642  -17.1306   22.7365 C   0  0  0  0  0  0  0  0  0  0  0  0
    9.2847  -18.3582   22.5518 O   0  0  0  0  0  0  0  0  0  0  0  0
   13.3171  -22.9032   25.5647 N   0  0  0  0  0  0  0  0  0  0  0  0
   12.4248  -22.0456   24.8717 C   0  0  0  0  0  0  0  0  0  0  0  0
   11.4478  -22.4977   24.1540 N   0  0  0  0  0  0  0  0  0  0  0  0
   12.6007  -20.6410   24.9641 N   0  0  0  0  0  0  0  0  0  0  0  0
   11.9451  -19.8064   25.9638 C   0  0  0  0  0  0  0  0  0  0  0  0
   12.4153  -18.3919   25.7512 C   0  0  0  0  0  0  0  0  0  0  0  0
   11.6426  -17.7291   24.6627 C   0  0  0  0  0  0  0  0  0  0  0  0
   10.2830  -17.3225   25.0950 C   0  0  2  0  0  0  0  0  0  0  0  0
    9.5662  -16.6033   24.0436 N   0  0  0  0  0  0  0  0  0  0  0  0
   10.1880  -16.5582   26.3399 C   0  0  0  0  0  0  0  0  0  0  0  0
   10.2732  -17.1204   27.6027 O   0  0  0  0  0  0  0  0  0  0  0  0
   10.0150  -15.2954   26.3319 O   0  0  0  0  0  0  0  0  0  0  0  0
  1  2  1  0
  2  3  2  0
  4  2  1  0
  5  6  1  6
  5  4  1  0
  7  5  1  0
  8  7  2  0
  9  7  1  0
 10  9  1  0
 11 12  1  0
 10 11  1  6
 12 13  2  0
 14 13  1  0
 15 14  1  0
 16 15  2  0
 16 12  1  0
 17 10  1  0
 17 18  2  0
 19 20  1  0
 20 21  2  0
 22 23  1  0
 22 20  1  0
 23 24  1  0
 26 25  1  6
 25 24  1  0
 26 27  1  0
 27 17  1  0
 28 26  1  0
 29 28  1  0
 30 28  2  0
M  END
$$$$
