NHR.pdb
     RDKit          3D

 30 30  0  0  1  0  0  0  0  0999 V2000
    9.4585  -20.9092   15.7490 N   0  0  0  0  0  0  0  0  0  0  0  0
    8.1838  -21.0421   16.3660 C   0  0  0  0  0  0  0  0  0  0  0  0
    7.8430  -22.1455   16.8645 O   0  0  0  0  0  0  0  0  0  0  0  0
    7.2252  -19.9150   16.4428 C   0  0  0  0  0  0  0  0  0  0  0  0
    7.8986  -18.7159   15.7716 C   0  0  2  0  0  0  0  0  0  0  0  0
    8.9265  -19.1868   14.8596 N   0  0  0  0  0  0  0  0  0  0  0  0
    8.4577  -17.8349   16.8191 C   0  0  0  0  0  0  0  0  0  0  0  0
    9.6532  -18.0018   17.1743 O   0  0  0  0  0  0  0  0  0  0  0  0
    7.6526  -16.8257   17.4017 N   0  0  0  0  0  0  0  0  0  0  0  0
    8.1308  -15.8784   18.3739 C   0  0  1  0  0  0  0  0  0  0  0  0
    7.1126  -14.8516   18.7055 C   0  0  0  0  0  0  0  0  0  0  0  0
    7.5004  -13.8408   19.7016 C   0  0  0  0  0  0  0  0  0  0  0  0
    7.0419  -13.5484   20.9575 C   0  0  0  0  0  0  0  0  0  0  0  0
    7.7573  -12.4981   21.4288 N   0  0  0  0  0  0  0  0  0  0  0  0
    8.6365  -12.1477   20.4901 C   0  0  0  0  0  0  0  0  0  0  0  0
    8.4854  -12.9520   19.4504 N   0  0  0  0  0  0  0  0  0  0  0  0
    8.3534  -16.6688   19.6486 C   0  0  0  0  0  0  0  0  0  0  0  0
    7.8641  -17.8112   19.8183 O   0  0  0  0  0  0  0  0  0  0  0  0
   13.9241  -21.4142   19.9558 N   0  0  0  0  0  0  0  0  0  0  0  0
   14.4318  -20.2065   20.4994 C   0  0  0  0  0  0  0  0  0  0  0  0
   15.6908  -20.0325   20.7420 N   0  0  0  0  0  0  0  0  0  0  0  0
   13.5358  -19.1457   20.7892 N   0  0  0  0  0  0  0  0  0  0  0  0
   12.1386  -19.3429   21.1563 C   0  0  0  0  0  0  0  0  0  0  0  0
   11.5363  -17.9831   21.3917 C   0  0  0  0  0  0  0  0  0  0  0  0
   10.0737  -18.0848   21.6596 C   0  0  0  0  0  0  0  0  0  0  0  0
    9.4451  -16.7628   21.9001 C   0  0  2  0  0  0  0  0  0  0  0  0
    9.1439  -16.0644   20.6520 N   0  0  0  0  0  0  0  0  0  0  0  0
   10.1559  -15.8476   22.7945 C   0  0  0  0  0  0  0  0  0  0  0  0
   10.3622  -16.0862   24.1430 O   0  0  0  0  0  0  0  0  0  0  0  0
   10.6382  -14.7464   22.3707 O   0  0  0  0  0  0  0  0  0  0  0  0
  1  2  1  0
  2  3  2  0
  4  2  1  0
  5  6  1  6
  5  4  1  0
  7  5  1  0
  8  7  2  0
  9  7  1  0
 10  9  1  0
 11 12  1  0
 10 11  1  1
 12 13  2  0
 14 13  1  0
 15 14  1  0
 16 15  2  0
 16 12  1  0
 17 10  1  0
 17 18  2  0
 19 20  1  0
 20 21  2  0
 22 23  1  0
 22 20  1  0
 23 24  1  0
 26 25  1  6
 25 24  1  0
 26 27  1  0
 27 17  1  0
 28 26  1  0
 29 28  1  0
 30 28  2  0
M  END
$$$$
