NHR.pdb
     RDKit          3D

 30 30  0  0  1  0  0  0  0  0999 V2000
    9.0949  -21.1379   18.8138 N   0  0  0  0  0  0  0  0  0  0  0  0
   10.4020  -20.5778   18.8470 C   0  0  0  0  0  0  0  0  0  0  0  0
   11.3263  -21.1087   18.1793 O   0  0  0  0  0  0  0  0  0  0  0  0
   10.7233  -19.3766   19.6527 C   0  0  0  0  0  0  0  0  0  0  0  0
    9.7281  -18.2895   19.2409 C   0  0  2  0  0  0  0  0  0  0  0  0
   10.0023  -17.8752   17.8760 N   0  0  0  0  0  0  0  0  0  0  0  0
    9.8368  -17.1598   20.1885 C   0  0  0  0  0  0  0  0  0  0  0  0
   10.9803  -16.7231   20.4797 O   0  0  0  0  0  0  0  0  0  0  0  0
    8.6681  -16.5885   20.7488 N   0  0  0  0  0  0  0  0  0  0  0  0
    8.6727  -15.4451   21.6229 C   0  0  1  0  0  0  0  0  0  0  0  0
    7.6034  -14.4744   21.2834 C   0  0  0  0  0  0  0  0  0  0  0  0
    7.6981  -13.8284   19.9652 C   0  0  0  0  0  0  0  0  0  0  0  0
    8.2613  -12.6547   19.5426 C   0  0  0  0  0  0  0  0  0  0  0  0
    8.0430  -12.5434   18.2095 N   0  0  0  0  0  0  0  0  0  0  0  0
    7.3620  -13.6194   17.8151 C   0  0  0  0  0  0  0  0  0  0  0  0
    7.1526  -14.3941   18.8672 N   0  0  0  0  0  0  0  0  0  0  0  0
    8.3294  -15.9754   23.0013 C   0  0  0  0  0  0  0  0  0  0  0  0
    7.2616  -16.5920   23.2312 O   0  0  0  0  0  0  0  0  0  0  0  0
   13.4182  -20.6713   25.9016 N   0  0  0  0  0  0  0  0  0  0  0  0
   12.3949  -21.6448   26.0314 C   0  0  0  0  0  0  0  0  0  0  0  0
   12.5644  -22.7426   26.6948 N   0  0  0  0  0  0  0  0  0  0  0  0
   11.1371  -21.4150   25.4170 N   0  0  0  0  0  0  0  0  0  0  0  0
   10.8949  -20.3644   24.4354 C   0  0  0  0  0  0  0  0  0  0  0  0
   10.4861  -19.1267   25.1891 C   0  0  0  0  0  0  0  0  0  0  0  0
   10.0572  -18.0481   24.2541 C   0  0  0  0  0  0  0  0  0  0  0  0
    9.6439  -16.8115   24.9617 C   0  0  2  0  0  0  0  0  0  0  0  0
    9.2692  -15.7478   24.0318 N   0  0  0  0  0  0  0  0  0  0  0  0
   10.5823  -16.2701   25.9461 C   0  0  0  0  0  0  0  0  0  0  0  0
   10.6993  -16.7383   27.2443 O   0  0  0  0  0  0  0  0  0  0  0  0
   11.3668  -15.3081   25.6564 O   0  0  0  0  0  0  0  0  0  0  0  0
  1  2  1  0
  2  3  2  0
  4  2  1  0
  5  6  1  6
  5  4  1  0
  7  5  1  0
  8  7  2  0
  9  7  1  0
 10  9  1  0
 11 12  1  0
 10 11  1  6
 12 13  2  0
 14 13  1  0
 15 14  1  0
 16 15  2  0
 16 12  1  0
 17 10  1  0
 17 18  2  0
 19 20  1  0
 20 21  2  0
 22 23  1  0
 22 20  1  0
 23 24  1  0
 26 25  1  6
 25 24  1  0
 26 27  1  0
 27 17  1  0
 28 26  1  0
 29 28  1  0
 30 28  2  0
M  END
$$$$
