NHR.pdb
     RDKit          3D

 30 30  0  0  1  0  0  0  0  0999 V2000
    8.9751  -18.3604   16.6334 N   0  0  0  0  0  0  0  0  0  0  0  0
   10.0534  -17.4411   16.7575 C   0  0  0  0  0  0  0  0  0  0  0  0
   10.8271  -17.2506   15.7843 O   0  0  0  0  0  0  0  0  0  0  0  0
   10.3069  -16.6897   18.0090 C   0  0  0  0  0  0  0  0  0  0  0  0
    9.2889  -17.1879   19.0372 C   0  0  2  0  0  0  0  0  0  0  0  0
    7.9446  -16.9574   18.5374 N   0  0  0  0  0  0  0  0  0  0  0  0
    9.5241  -16.4888   20.3186 C   0  0  0  0  0  0  0  0  0  0  0  0
   10.6732  -16.5331   20.8291 O   0  0  0  0  0  0  0  0  0  0  0  0
    8.4679  -15.7852   20.9475 N   0  0  0  0  0  0  0  0  0  0  0  0
    8.5421  -15.2491   22.2810 C   0  0  1  0  0  0  0  0  0  0  0  0
    7.2397  -14.7089   22.7425 C   0  0  0  0  0  0  0  0  0  0  0  0
    7.2396  -14.0155   24.0399 C   0  0  0  0  0  0  0  0  0  0  0  0
    8.2143  -13.7883   24.9734 C   0  0  0  0  0  0  0  0  0  0  0  0
    7.6570  -13.0999   25.9994 N   0  0  0  0  0  0  0  0  0  0  0  0
    6.3703  -12.9053   25.7105 C   0  0  0  0  0  0  0  0  0  0  0  0
    6.1153  -13.4540   24.5338 N   0  0  0  0  0  0  0  0  0  0  0  0
    8.8465  -16.4273   23.1855 C   0  0  0  0  0  0  0  0  0  0  0  0
    8.2812  -17.5382   23.0457 O   0  0  0  0  0  0  0  0  0  0  0  0
   12.5156  -23.0018   23.6657 N   0  0  0  0  0  0  0  0  0  0  0  0
   13.3489  -21.8542   23.6446 C   0  0  0  0  0  0  0  0  0  0  0  0
   14.6187  -21.9256   23.4067 N   0  0  0  0  0  0  0  0  0  0  0  0
   12.7790  -20.5787   23.8903 N   0  0  0  0  0  0  0  0  0  0  0  0
   13.1512  -19.7279   25.0144 C   0  0  0  0  0  0  0  0  0  0  0  0
   11.8931  -19.0778   25.5257 C   0  0  0  0  0  0  0  0  0  0  0  0
   11.4401  -17.9938   24.6086 C   0  0  0  0  0  0  0  0  0  0  0  0
   10.2089  -17.3191   25.0878 C   0  0  2  0  0  0  0  0  0  0  0  0
    9.8042  -16.2266   24.2051 N   0  0  0  0  0  0  0  0  0  0  0  0
   10.2184  -16.8327   26.4685 C   0  0  0  0  0  0  0  0  0  0  0  0
    9.9421  -15.5249   26.8312 O   0  0  0  0  0  0  0  0  0  0  0  0
   10.4907  -17.6073   27.4433 O   0  0  0  0  0  0  0  0  0  0  0  0
  1  2  1  0
  2  3  2  0
  4  2  1  0
  5  6  1  6
  5  4  1  0
  7  5  1  0
  8  7  2  0
  9  7  1  0
 10  9  1  0
 11 12  1  0
 10 11  1  1
 12 13  2  0
 14 13  1  0
 15 14  1  0
 16 15  2  0
 16 12  1  0
 17 10  1  0
 17 18  2  0
 19 20  1  0
 20 21  2  0
 22 23  1  0
 22 20  1  0
 23 24  1  0
 26 25  1  6
 25 24  1  0
 26 27  1  0
 27 17  1  0
 28 26  1  0
 29 28  1  0
 30 28  2  0
M  END
$$$$
