NHR.pdb
     RDKit          3D

 30 30  0  0  1  0  0  0  0  0999 V2000
    9.7655  -17.4647   14.1083 N   0  0  0  0  0  0  0  0  0  0  0  0
   10.6191  -17.6929   15.2229 C   0  0  0  0  0  0  0  0  0  0  0  0
   11.2661  -18.7685   15.3045 O   0  0  0  0  0  0  0  0  0  0  0  0
   10.7761  -16.6992   16.3106 C   0  0  0  0  0  0  0  0  0  0  0  0
   10.8620  -17.4871   17.6197 C   0  0  2  0  0  0  0  0  0  0  0  0
    9.8828  -18.5598   17.6033 N   0  0  0  0  0  0  0  0  0  0  0  0
   10.6400  -16.5600   18.7498 C   0  0  0  0  0  0  0  0  0  0  0  0
   11.4689  -15.6333   18.9430 O   0  0  0  0  0  0  0  0  0  0  0  0
    9.5110  -16.7222   19.5896 N   0  0  0  0  0  0  0  0  0  0  0  0
    9.2036  -15.8572   20.6980 C   0  0  1  0  0  0  0  0  0  0  0  0
    7.8257  -15.3130   20.6203 C   0  0  0  0  0  0  0  0  0  0  0  0
    7.5240  -14.4532   19.4654 C   0  0  0  0  0  0  0  0  0  0  0  0
    7.5358  -13.0962   19.2876 C   0  0  0  0  0  0  0  0  0  0  0  0
    7.1558  -12.8393   18.0121 N   0  0  0  0  0  0  0  0  0  0  0  0
    6.9142  -14.0060   17.4142 C   0  0  0  0  0  0  0  0  0  0  0  0
    7.1342  -14.9784   18.2841 N   0  0  0  0  0  0  0  0  0  0  0  0
    9.2330  -16.7379   21.9320 C   0  0  0  0  0  0  0  0  0  0  0  0
    8.4988  -17.7483   22.0471 O   0  0  0  0  0  0  0  0  0  0  0  0
   13.3391  -23.1153   21.2920 N   0  0  0  0  0  0  0  0  0  0  0  0
   13.7910  -22.7422   22.5837 C   0  0  0  0  0  0  0  0  0  0  0  0
   14.4796  -23.5410   23.3332 N   0  0  0  0  0  0  0  0  0  0  0  0
   13.4835  -21.4491   23.0793 N   0  0  0  0  0  0  0  0  0  0  0  0
   12.5685  -20.5252   22.4197 C   0  0  0  0  0  0  0  0  0  0  0  0
   12.5653  -19.2467   23.2150 C   0  0  0  0  0  0  0  0  0  0  0  0
   11.6751  -18.2289   22.5881 C   0  0  0  0  0  0  0  0  0  0  0  0
   11.0010  -17.3669   23.5898 C   0  0  2  0  0  0  0  0  0  0  0  0
   10.1305  -16.3750   22.9615 N   0  0  0  0  0  0  0  0  0  0  0  0
   11.8604  -16.6923   24.5641 C   0  0  0  0  0  0  0  0  0  0  0  0
   12.4220  -17.3167   25.6653 O   0  0  0  0  0  0  0  0  0  0  0  0
   12.1477  -15.4555   24.4516 O   0  0  0  0  0  0  0  0  0  0  0  0
  1  2  1  0
  2  3  2  0
  4  2  1  0
  5  6  1  6
  5  4  1  0
  7  5  1  0
  8  7  2  0
  9  7  1  0
 10  9  1  0
 11 12  1  0
 10 11  1  6
 12 13  2  0
 14 13  1  0
 15 14  1  0
 16 15  2  0
 16 12  1  0
 17 10  1  0
 17 18  2  0
 19 20  1  0
 20 21  2  0
 22 23  1  0
 22 20  1  0
 23 24  1  0
 26 25  1  6
 25 24  1  0
 26 27  1  0
 27 17  1  0
 28 26  1  0
 29 28  1  0
 30 28  2  0
M  END
$$$$
