PYQ.pdb
     RDKit          3D

 29 30  0  0  1  0  0  0  0  0999 V2000
    6.7750  -14.7789   19.9798 N   0  0  0  0  0  0  0  0  0  0  0  0
    6.2831  -14.1759   18.7305 C   0  0  0  0  0  0  0  0  0  0  0  0
    6.8939  -12.7993   18.6847 C   0  0  0  0  0  0  0  0  0  0  0  0
    8.0074  -12.8636   19.7071 C   0  0  0  0  0  0  0  0  0  0  0  0
    8.1228  -14.3290   20.0402 C   0  0  1  0  0  0  0  0  0  0  0  0
    8.7356  -14.4746   21.3906 C   0  0  0  0  0  0  0  0  0  0  0  0
    9.9774  -14.3565   21.5313 O   0  0  0  0  0  0  0  0  0  0  0  0
    9.8254  -14.4423   30.1790 O   0  0  0  0  0  0  0  0  0  0  0  0
    9.2978  -14.3828   28.8793 C   0  0  0  0  0  0  0  0  0  0  0  0
    8.6097  -15.4504   28.3923 C   0  0  0  0  0  0  0  0  0  0  0  0
    8.0710  -15.4199   27.0972 C   0  0  0  0  0  0  0  0  0  0  0  0
    8.2260  -14.3142   26.2943 C   0  0  0  0  0  0  0  0  0  0  0  0
    7.6542  -14.3241   24.9645 C   0  0  0  0  0  0  0  0  0  0  0  0
    8.5644  -14.7572   23.8585 C   0  0  2  0  0  0  0  0  0  0  0  0
    7.9729  -14.7474   22.5627 N   0  0  0  0  0  0  0  0  0  0  0  0
    9.1880  -16.0582   24.2072 C   0  0  0  0  0  0  0  0  0  0  0  0
    8.5528  -17.0951   23.8154 O   0  0  0  0  0  0  0  0  0  0  0  0
    8.9239  -13.2432   26.8008 C   0  0  0  0  0  0  0  0  0  0  0  0
    9.4623  -13.2728   28.0943 C   0  0  0  0  0  0  0  0  0  0  0  0
    7.5546  -19.9502   26.8161 N   0  0  0  0  0  0  0  0  0  0  0  0
    8.6467  -19.6393   27.6556 C   0  0  0  0  0  0  0  0  0  0  0  0
    8.6194  -20.0203   28.8499 O   0  0  0  0  0  0  0  0  0  0  0  0
    9.7939  -18.8924   27.1421 C   0  0  0  0  0  0  0  0  0  0  0  0
    9.6952  -18.3151   25.7934 C   0  0  0  0  0  0  0  0  0  0  0  0
   10.8513  -17.5544   25.2349 C   0  0  2  0  0  0  0  0  0  0  0  0
   10.3892  -16.1980   24.9157 N   0  0  0  0  0  0  0  0  0  0  0  0
   11.4746  -18.1687   24.0726 C   0  0  0  0  0  0  0  0  0  0  0  0
   11.4143  -17.6511   22.8986 O   0  0  0  0  0  0  0  0  0  0  0  0
   12.2090  -19.3698   24.0959 O   0  0  0  0  0  0  0  0  0  0  0  0
  1  2  1  0
  3  2  1  0
  4  5  1  0
  4  3  1  0
  5  6  1  1
  5  1  1  0
  6  7  2  0
  9  8  1  0
  9 19  2  0
 10  9  1  0
 11 10  2  0
 11 12  1  0
 12 18  2  0
 13 12  1  0
 14 13  1  1
 15 14  1  0
 15  6  1  0
 16 17  2  0
 16 14  1  0
 18 19  1  0
 20 21  1  0
 21 22  2  0
 23 21  1  0
 23 24  1  0
 25 24  1  6
 25 26  1  0
 25 27  1  0
 26 16  1  0
 27 29  1  0
 28 27  2  0
M  END
$$$$
