PYQ.pdb
     RDKit          3D

 29 30  0  0  1  0  0  0  0  0999 V2000
    7.7283  -15.3875   18.6727 N   0  0  0  0  0  0  0  0  0  0  0  0
    7.5316  -15.0572   17.2519 C   0  0  0  0  0  0  0  0  0  0  0  0
    7.7137  -13.5643   17.1607 C   0  0  0  0  0  0  0  0  0  0  0  0
    8.3958  -13.2030   18.4621 C   0  0  0  0  0  0  0  0  0  0  0  0
    8.7975  -14.5303   19.0527 C   0  0  1  0  0  0  0  0  0  0  0  0
    8.9422  -14.3827   20.5284 C   0  0  0  0  0  0  0  0  0  0  0  0
   10.0770  -14.1951   21.0312 O   0  0  0  0  0  0  0  0  0  0  0  0
    7.3915  -12.7600   29.0702 O   0  0  0  0  0  0  0  0  0  0  0  0
    7.2355  -13.0102   27.6975 C   0  0  0  0  0  0  0  0  0  0  0  0
    7.6773  -12.0884   26.8001 C   0  0  0  0  0  0  0  0  0  0  0  0
    7.5351  -12.3108   25.4221 C   0  0  0  0  0  0  0  0  0  0  0  0
    6.9481  -13.4613   24.9499 C   0  0  0  0  0  0  0  0  0  0  0  0
    6.8210  -13.6514   23.5205 C   0  0  0  0  0  0  0  0  0  0  0  0
    7.9983  -14.2643   22.8294 C   0  0  2  0  0  0  0  0  0  0  0  0
    7.8371  -14.4440   21.4256 N   0  0  0  0  0  0  0  0  0  0  0  0
    8.3998  -15.5063   23.5361 C   0  0  0  0  0  0  0  0  0  0  0  0
    7.6743  -16.5313   23.3018 O   0  0  0  0  0  0  0  0  0  0  0  0
    6.5067  -14.3834   25.8695 C   0  0  0  0  0  0  0  0  0  0  0  0
    6.6483  -14.1621   27.2460 C   0  0  0  0  0  0  0  0  0  0  0  0
   14.2405  -19.1352   25.0998 N   0  0  0  0  0  0  0  0  0  0  0  0
   13.1514  -18.8594   24.2445 C   0  0  0  0  0  0  0  0  0  0  0  0
   13.3323  -18.8941   23.0042 O   0  0  0  0  0  0  0  0  0  0  0  0
   11.8328  -18.5456   24.7925 C   0  0  0  0  0  0  0  0  0  0  0  0
   11.2185  -17.2618   24.4230 C   0  0  0  0  0  0  0  0  0  0  0  0
    9.8511  -16.9325   24.9220 C   0  0  2  0  0  0  0  0  0  0  0  0
    9.4902  -15.6043   24.4110 N   0  0  0  0  0  0  0  0  0  0  0  0
    9.7077  -16.9797   26.3691 C   0  0  0  0  0  0  0  0  0  0  0  0
    9.6817  -15.9225   27.0982 O   0  0  0  0  0  0  0  0  0  0  0  0
    9.5738  -18.1601   27.1249 O   0  0  0  0  0  0  0  0  0  0  0  0
  1  2  1  0
  3  2  1  0
  4  5  1  0
  4  3  1  0
  5  6  1  1
  5  1  1  0
  6  7  2  0
  9  8  1  0
  9 19  2  0
 10  9  1  0
 11 10  2  0
 11 12  1  0
 12 18  2  0
 13 12  1  0
 14 13  1  1
 15 14  1  0
 15  6  1  0
 16 17  2  0
 16 14  1  0
 18 19  1  0
 20 21  1  0
 21 22  2  0
 23 21  1  0
 23 24  1  0
 25 24  1  1
 25 26  1  0
 25 27  1  0
 26 16  1  0
 27 29  1  0
 28 27  2  0
M  END
$$$$
