PYQ.pdb
     RDKit          3D

 29 30  0  0  1  0  0  0  0  0999 V2000
    7.7358  -15.3418   18.5194 N   0  0  0  0  0  0  0  0  0  0  0  0
    7.5590  -14.9498   17.1118 C   0  0  0  0  0  0  0  0  0  0  0  0
    7.8594  -13.4740   17.0681 C   0  0  0  0  0  0  0  0  0  0  0  0
    8.5747  -13.2117   18.3754 C   0  0  0  0  0  0  0  0  0  0  0  0
    8.8720  -14.5857   18.9192 C   0  0  1  0  0  0  0  0  0  0  0  0
    9.0353  -14.4993   20.3977 C   0  0  0  0  0  0  0  0  0  0  0  0
   10.1704  -14.2905   20.8917 O   0  0  0  0  0  0  0  0  0  0  0  0
    7.3492  -12.7722   28.9042 O   0  0  0  0  0  0  0  0  0  0  0  0
    7.2650  -12.9797   27.5181 C   0  0  0  0  0  0  0  0  0  0  0  0
    6.5775  -14.0553   27.0483 C   0  0  0  0  0  0  0  0  0  0  0  0
    6.4762  -14.2885   25.6685 C   0  0  0  0  0  0  0  0  0  0  0  0
    7.0675  -13.4381   24.7638 C   0  0  0  0  0  0  0  0  0  0  0  0
    6.9387  -13.7153   23.3489 C   0  0  0  0  0  0  0  0  0  0  0  0
    8.1001  -14.4036   22.7033 C   0  0  2  0  0  0  0  0  0  0  0  0
    7.9484  -14.6439   21.3074 N   0  0  0  0  0  0  0  0  0  0  0  0
    8.4462  -15.6245   23.4731 C   0  0  0  0  0  0  0  0  0  0  0  0
    7.5911  -16.5719   23.4154 O   0  0  0  0  0  0  0  0  0  0  0  0
    7.7589  -12.3555   25.2543 C   0  0  0  0  0  0  0  0  0  0  0  0
    7.8605  -12.1218   26.6324 C   0  0  0  0  0  0  0  0  0  0  0  0
   13.3769  -19.0276   23.3076 N   0  0  0  0  0  0  0  0  0  0  0  0
   12.6427  -18.1218   22.5111 C   0  0  0  0  0  0  0  0  0  0  0  0
   13.0995  -17.7940   21.3903 O   0  0  0  0  0  0  0  0  0  0  0  0
   11.3683  -17.5795   22.9794 C   0  0  0  0  0  0  0  0  0  0  0  0
   11.0569  -17.6854   24.4124 C   0  0  0  0  0  0  0  0  0  0  0  0
    9.8155  -17.0487   24.9422 C   0  0  2  0  0  0  0  0  0  0  0  0
    9.6164  -15.7814   24.2282 N   0  0  0  0  0  0  0  0  0  0  0  0
    9.8142  -16.8305   26.3807 C   0  0  0  0  0  0  0  0  0  0  0  0
    9.9391  -17.7882   27.2274 O   0  0  0  0  0  0  0  0  0  0  0  0
    9.6889  -15.5734   27.0022 O   0  0  0  0  0  0  0  0  0  0  0  0
  1  2  1  0
  3  2  1  0
  4  5  1  0
  4  3  1  0
  5  6  1  1
  5  1  1  0
  6  7  2  0
  9  8  1  0
  9 19  2  0
 10  9  1  0
 11 10  2  0
 11 12  1  0
 12 18  2  0
 13 12  1  0
 14 13  1  1
 15 14  1  0
 15  6  1  0
 16 17  2  0
 16 14  1  0
 18 19  1  0
 20 21  1  0
 21 22  2  0
 23 21  1  0
 23 24  1  0
 25 24  1  6
 25 26  1  0
 25 27  1  0
 26 16  1  0
 27 29  1  0
 28 27  2  0
M  END
$$$$
