PYQ.pdb
     RDKit          3D

 29 30  0  0  1  0  0  0  0  0999 V2000
    7.8626  -15.6543   19.9754 N   0  0  0  0  0  0  0  0  0  0  0  0
    7.0997  -15.3716   18.7489 C   0  0  0  0  0  0  0  0  0  0  0  0
    7.1616  -13.8761   18.5767 C   0  0  0  0  0  0  0  0  0  0  0  0
    8.2896  -13.4530   19.4920 C   0  0  0  0  0  0  0  0  0  0  0  0
    8.9543  -14.7471   19.8863 C   0  0  1  0  0  0  0  0  0  0  0  0
    9.6697  -14.5529   21.1790 C   0  0  0  0  0  0  0  0  0  0  0  0
   10.5153  -13.6324   21.2950 O   0  0  0  0  0  0  0  0  0  0  0  0
    6.0785  -11.1724   27.9962 O   0  0  0  0  0  0  0  0  0  0  0  0
    6.4477  -11.9212   26.8674 C   0  0  0  0  0  0  0  0  0  0  0  0
    7.4549  -11.4706   26.0719 C   0  0  0  0  0  0  0  0  0  0  0  0
    7.8457  -12.1973   24.9372 C   0  0  0  0  0  0  0  0  0  0  0  0
    7.2216  -13.3770   24.6052 C   0  0  0  0  0  0  0  0  0  0  0  0
    7.6557  -14.0957   23.4260 C   0  0  0  0  0  0  0  0  0  0  0  0
    8.9495  -14.8381   23.5453 C   0  0  2  0  0  0  0  0  0  0  0  0
    9.4432  -15.3738   22.3212 N   0  0  0  0  0  0  0  0  0  0  0  0
    8.8457  -15.8492   24.6269 C   0  0  0  0  0  0  0  0  0  0  0  0
    9.1350  -15.4320   25.7992 O   0  0  0  0  0  0  0  0  0  0  0  0
    6.2054  -13.8193   25.4191 C   0  0  0  0  0  0  0  0  0  0  0  0
    5.8143  -13.0940   26.5527 C   0  0  0  0  0  0  0  0  0  0  0  0
   12.1654  -19.2096   21.3050 N   0  0  0  0  0  0  0  0  0  0  0  0
   12.5987  -19.1131   22.6455 C   0  0  0  0  0  0  0  0  0  0  0  0
   13.8269  -19.0169   22.8789 O   0  0  0  0  0  0  0  0  0  0  0  0
   11.6339  -19.1180   23.7440 C   0  0  0  0  0  0  0  0  0  0  0  0
   10.4860  -18.2030   23.6597 C   0  0  0  0  0  0  0  0  0  0  0  0
    9.4422  -18.2358   24.7258 C   0  0  2  0  0  0  0  0  0  0  0  0
    8.4619  -17.1830   24.4323 N   0  0  0  0  0  0  0  0  0  0  0  0
    9.9558  -18.0928   26.0795 C   0  0  0  0  0  0  0  0  0  0  0  0
   10.2360  -16.9516   26.5981 O   0  0  0  0  0  0  0  0  0  0  0  0
   10.1925  -19.1610   26.9658 O   0  0  0  0  0  0  0  0  0  0  0  0
  1  2  1  0
  3  2  1  0
  4  5  1  0
  4  3  1  0
  5  6  1  1
  5  1  1  0
  6  7  2  0
  9  8  1  0
  9 19  2  0
 10  9  1  0
 11 10  2  0
 11 12  1  0
 12 18  2  0
 13 12  1  0
 14 13  1  6
 15 14  1  0
 15  6  1  0
 16 17  2  0
 16 14  1  0
 18 19  1  0
 20 21  1  0
 21 22  2  0
 23 21  1  0
 23 24  1  0
 25 24  1  6
 25 26  1  0
 25 27  1  0
 26 16  1  0
 27 29  1  0
 28 27  2  0
M  END
$$$$
