PYQ.pdb
     RDKit          3D

 29 30  0  0  1  0  0  0  0  0999 V2000
    9.5354  -16.5775   18.8138 N   0  0  0  0  0  0  0  0  0  0  0  0
    9.0507  -17.3106   17.6332 C   0  0  0  0  0  0  0  0  0  0  0  0
    7.8907  -18.1367   18.1253 C   0  0  0  0  0  0  0  0  0  0  0  0
    7.5433  -17.5135   19.4596 C   0  0  0  0  0  0  0  0  0  0  0  0
    8.3321  -16.2295   19.4874 C   0  0  1  0  0  0  0  0  0  0  0  0
    8.5441  -15.8189   20.9041 C   0  0  0  0  0  0  0  0  0  0  0  0
    9.4744  -16.3321   21.5727 O   0  0  0  0  0  0  0  0  0  0  0  0
    7.7935  -12.1086   28.8791 O   0  0  0  0  0  0  0  0  0  0  0  0
    7.5596  -12.4395   27.5349 C   0  0  0  0  0  0  0  0  0  0  0  0
    8.5668  -12.9833   26.8000 C   0  0  0  0  0  0  0  0  0  0  0  0
    8.3628  -13.3242   25.4544 C   0  0  0  0  0  0  0  0  0  0  0  0
    7.1446  -13.1170   24.8508 C   0  0  0  0  0  0  0  0  0  0  0  0
    6.9764  -13.4829   23.4604 C   0  0  0  0  0  0  0  0  0  0  0  0
    7.9479  -14.4846   22.9199 C   0  0  2  0  0  0  0  0  0  0  0  0
    7.7301  -14.8515   21.5608 N   0  0  0  0  0  0  0  0  0  0  0  0
    8.0232  -15.6501   23.8359 C   0  0  0  0  0  0  0  0  0  0  0  0
    7.1124  -16.5320   23.6796 O   0  0  0  0  0  0  0  0  0  0  0  0
    6.1365  -12.5666   25.6069 C   0  0  0  0  0  0  0  0  0  0  0  0
    6.3395  -12.2258   26.9510 C   0  0  0  0  0  0  0  0  0  0  0  0
   10.0343  -19.9651   22.1784 N   0  0  0  0  0  0  0  0  0  0  0  0
    9.9663  -20.4441   23.5050 C   0  0  0  0  0  0  0  0  0  0  0  0
   10.1650  -21.6635   23.7188 O   0  0  0  0  0  0  0  0  0  0  0  0
    9.6767  -19.5351   24.6129 C   0  0  0  0  0  0  0  0  0  0  0  0
    9.5002  -18.1076   24.3077 C   0  0  0  0  0  0  0  0  0  0  0  0
    9.1686  -17.1575   25.4097 C   0  0  2  0  0  0  0  0  0  0  0  0
    9.0039  -15.8222   24.8222 N   0  0  0  0  0  0  0  0  0  0  0  0
   10.1405  -17.1235   26.4918 C   0  0  0  0  0  0  0  0  0  0  0  0
   10.9937  -16.1730   26.6280 O   0  0  0  0  0  0  0  0  0  0  0  0
   10.2538  -18.0991   27.5007 O   0  0  0  0  0  0  0  0  0  0  0  0
  1  2  1  0
  3  2  1  0
  4  5  1  0
  4  3  1  0
  5  6  1  1
  5  1  1  0
  6  7  2  0
  9  8  1  0
  9 19  2  0
 10  9  1  0
 11 10  2  0
 11 12  1  0
 12 18  2  0
 13 12  1  0
 14 13  1  1
 15 14  1  0
 15  6  1  0
 16 17  2  0
 16 14  1  0
 18 19  1  0
 20 21  1  0
 21 22  2  0
 23 21  1  0
 23 24  1  0
 25 24  1  6
 25 26  1  0
 25 27  1  0
 26 16  1  0
 27 29  1  0
 28 27  2  0
M  END
$$$$
