PYQ.pdb
     RDKit          3D

 29 30  0  0  1  0  0  0  0  0999 V2000
    8.2321  -15.5021   18.7724 N   0  0  0  0  0  0  0  0  0  0  0  0
    8.0991  -15.2343   17.3313 C   0  0  0  0  0  0  0  0  0  0  0  0
    8.1346  -13.7338   17.1996 C   0  0  0  0  0  0  0  0  0  0  0  0
    8.6874  -13.2672   18.5285 C   0  0  0  0  0  0  0  0  0  0  0  0
    9.1810  -14.5285   19.1899 C   0  0  1  0  0  0  0  0  0  0  0  0
    9.2101  -14.3250   20.6658 C   0  0  0  0  0  0  0  0  0  0  0  0
   10.1679  -13.7095   21.1947 O   0  0  0  0  0  0  0  0  0  0  0  0
    6.3631  -12.4165   28.7744 O   0  0  0  0  0  0  0  0  0  0  0  0
    6.4476  -12.8748   27.4500 C   0  0  0  0  0  0  0  0  0  0  0  0
    6.7798  -11.9986   26.4640 C   0  0  0  0  0  0  0  0  0  0  0  0
    6.8719  -12.4276   25.1313 C   0  0  0  0  0  0  0  0  0  0  0  0
    6.6293  -13.7384   24.7936 C   0  0  0  0  0  0  0  0  0  0  0  0
    6.7353  -14.1393   23.4067 C   0  0  0  0  0  0  0  0  0  0  0  0
    8.1181  -14.4084   22.9018 C   0  0  2  0  0  0  0  0  0  0  0  0
    8.1863  -14.8016   21.5344 N   0  0  0  0  0  0  0  0  0  0  0  0
    8.8077  -15.3518   23.8170 C   0  0  0  0  0  0  0  0  0  0  0  0
    8.9274  -14.9567   25.0259 O   0  0  0  0  0  0  0  0  0  0  0  0
    6.2947  -14.6119   25.8014 C   0  0  0  0  0  0  0  0  0  0  0  0
    6.2024  -14.1843   27.1328 C   0  0  0  0  0  0  0  0  0  0  0  0
   14.0310  -16.0094   22.1648 N   0  0  0  0  0  0  0  0  0  0  0  0
   14.1417  -16.2225   23.5563 C   0  0  0  0  0  0  0  0  0  0  0  0
   15.2825  -16.3557   24.0591 O   0  0  0  0  0  0  0  0  0  0  0  0
   12.9488  -16.2801   24.3998 C   0  0  0  0  0  0  0  0  0  0  0  0
   11.6372  -16.1248   23.7536 C   0  0  0  0  0  0  0  0  0  0  0  0
   10.5398  -17.0811   24.0826 C   0  0  2  0  0  0  0  0  0  0  0  0
    9.3124  -16.6022   23.4348 N   0  0  0  0  0  0  0  0  0  0  0  0
   10.3206  -17.2834   25.5066 C   0  0  0  0  0  0  0  0  0  0  0  0
    9.6115  -16.4842   26.2195 O   0  0  0  0  0  0  0  0  0  0  0  0
   10.8385  -18.3582   26.2543 O   0  0  0  0  0  0  0  0  0  0  0  0
  1  2  1  0
  3  2  1  0
  4  5  1  0
  4  3  1  0
  5  6  1  1
  5  1  1  0
  6  7  2  0
  9  8  1  0
  9 19  2  0
 10  9  1  0
 11 10  2  0
 11 12  1  0
 12 18  2  0
 13 12  1  0
 14 13  1  1
 15 14  1  0
 15  6  1  0
 16 17  2  0
 16 14  1  0
 18 19  1  0
 20 21  1  0
 21 22  2  0
 23 21  1  0
 23 24  1  0
 25 24  1  1
 25 26  1  0
 25 27  1  0
 26 16  1  0
 27 29  1  0
 28 27  2  0
M  END
$$$$
