PYQ.pdb
     RDKit          3D

 29 30  0  0  1  0  0  0  0  0999 V2000
    7.0817  -15.1852   19.4192 N   0  0  0  0  0  0  0  0  0  0  0  0
    6.6876  -14.7495   18.0697 C   0  0  0  0  0  0  0  0  0  0  0  0
    6.9515  -13.2665   18.0365 C   0  0  0  0  0  0  0  0  0  0  0  0
    7.8510  -13.0325   19.2304 C   0  0  0  0  0  0  0  0  0  0  0  0
    8.2515  -14.4169   19.6718 C   0  0  1  0  0  0  0  0  0  0  0  0
    8.6345  -14.3774   21.1113 C   0  0  0  0  0  0  0  0  0  0  0  0
    9.8331  -14.1941   21.4360 O   0  0  0  0  0  0  0  0  0  0  0  0
    8.3664  -13.5286   29.9179 O   0  0  0  0  0  0  0  0  0  0  0  0
    8.0148  -13.6806   28.5671 C   0  0  0  0  0  0  0  0  0  0  0  0
    8.0965  -12.6077   27.7349 C   0  0  0  0  0  0  0  0  0  0  0  0
    7.7519  -12.7291   26.3803 C   0  0  0  0  0  0  0  0  0  0  0  0
    7.3254  -13.9311   25.8658 C   0  0  0  0  0  0  0  0  0  0  0  0
    6.9796  -14.0132   24.4625 C   0  0  0  0  0  0  0  0  0  0  0  0
    8.0758  -14.4383   23.5369 C   0  0  2  0  0  0  0  0  0  0  0  0
    7.6933  -14.5399   22.1685 N   0  0  0  0  0  0  0  0  0  0  0  0
    8.7179  -15.6709   24.0581 C   0  0  0  0  0  0  0  0  0  0  0  0
    8.0631  -16.7522   23.8735 O   0  0  0  0  0  0  0  0  0  0  0  0
    7.2481  -15.0062   26.7195 C   0  0  0  0  0  0  0  0  0  0  0  0
    7.5922  -14.8857   28.0727 C   0  0  0  0  0  0  0  0  0  0  0  0
   15.3561  -18.3285   24.5869 N   0  0  0  0  0  0  0  0  0  0  0  0
   14.1908  -18.0149   23.8537 C   0  0  0  0  0  0  0  0  0  0  0  0
   14.3053  -17.6731   22.6527 O   0  0  0  0  0  0  0  0  0  0  0  0
   12.8716  -18.0934   24.4792 C   0  0  0  0  0  0  0  0  0  0  0  0
   11.9608  -16.9506   24.3170 C   0  0  0  0  0  0  0  0  0  0  0  0
   10.5965  -17.0089   24.9192 C   0  0  2  0  0  0  0  0  0  0  0  0
    9.9553  -15.7041   24.7152 N   0  0  0  0  0  0  0  0  0  0  0  0
   10.5720  -17.3760   26.3269 C   0  0  0  0  0  0  0  0  0  0  0  0
   10.3493  -16.5239   27.2619 O   0  0  0  0  0  0  0  0  0  0  0  0
   10.7747  -18.6788   26.8209 O   0  0  0  0  0  0  0  0  0  0  0  0
  1  2  1  0
  3  2  1  0
  4  5  1  0
  4  3  1  0
  5  6  1  1
  5  1  1  0
  6  7  2  0
  9  8  1  0
  9 19  2  0
 10  9  1  0
 11 10  2  0
 11 12  1  0
 12 18  2  0
 13 12  1  0
 14 13  1  1
 15 14  1  0
 15  6  1  0
 16 17  2  0
 16 14  1  0
 18 19  1  0
 20 21  1  0
 21 22  2  0
 23 21  1  0
 23 24  1  0
 25 24  1  1
 25 26  1  0
 25 27  1  0
 26 16  1  0
 27 29  1  0
 28 27  2  0
M  END
$$$$
