PYQ.pdb
     RDKit          3D

 29 30  0  0  1  0  0  0  0  0999 V2000
    7.6670  -15.3687   18.5841 N   0  0  0  0  0  0  0  0  0  0  0  0
    7.5047  -15.0016   17.1681 C   0  0  0  0  0  0  0  0  0  0  0  0
    7.8028  -13.5262   17.1020 C   0  0  0  0  0  0  0  0  0  0  0  0
    8.5036  -13.2398   18.4121 C   0  0  0  0  0  0  0  0  0  0  0  0
    8.7975  -14.6035   18.9828 C   0  0  1  0  0  0  0  0  0  0  0  0
    8.9448  -14.4911   20.4614 C   0  0  0  0  0  0  0  0  0  0  0  0
   10.0886  -14.4189   20.9735 O   0  0  0  0  0  0  0  0  0  0  0  0
    7.4838  -12.6750   28.9738 O   0  0  0  0  0  0  0  0  0  0  0  0
    7.3098  -12.9233   27.6030 C   0  0  0  0  0  0  0  0  0  0  0  0
    7.9488  -12.1333   26.6987 C   0  0  0  0  0  0  0  0  0  0  0  0
    7.7940  -12.3573   25.3223 C   0  0  0  0  0  0  0  0  0  0  0  0
    6.9959  -13.3767   24.8587 C   0  0  0  0  0  0  0  0  0  0  0  0
    6.8636  -13.5735   23.4307 C   0  0  0  0  0  0  0  0  0  0  0  0
    7.9975  -14.2776   22.7541 C   0  0  2  0  0  0  0  0  0  0  0  0
    7.8324  -14.4600   21.3510 N   0  0  0  0  0  0  0  0  0  0  0  0
    8.3032  -15.5379   23.4761 C   0  0  0  0  0  0  0  0  0  0  0  0
    7.5222  -16.5177   23.2269 O   0  0  0  0  0  0  0  0  0  0  0  0
    6.3567  -14.1666   25.7851 C   0  0  0  0  0  0  0  0  0  0  0  0
    6.5107  -13.9435   27.1601 C   0  0  0  0  0  0  0  0  0  0  0  0
   13.2358  -19.1171   23.3487 N   0  0  0  0  0  0  0  0  0  0  0  0
   11.9474  -19.3870   22.8377 C   0  0  0  0  0  0  0  0  0  0  0  0
   11.8425  -20.0668   21.7893 O   0  0  0  0  0  0  0  0  0  0  0  0
   10.7542  -18.8898   23.5209 C   0  0  0  0  0  0  0  0  0  0  0  0
   10.8318  -17.5781   24.1808 C   0  0  0  0  0  0  0  0  0  0  0  0
    9.6352  -17.0450   24.8958 C   0  0  2  0  0  0  0  0  0  0  0  0
    9.3624  -15.6979   24.3798 N   0  0  0  0  0  0  0  0  0  0  0  0
    9.7574  -17.0220   26.3454 C   0  0  0  0  0  0  0  0  0  0  0  0
   10.1320  -15.9781   26.9933 O   0  0  0  0  0  0  0  0  0  0  0  0
    9.4771  -18.1113   27.1923 O   0  0  0  0  0  0  0  0  0  0  0  0
  1  2  1  0
  3  2  1  0
  4  5  1  0
  4  3  1  0
  5  6  1  1
  5  1  1  0
  6  7  2  0
  9  8  1  0
  9 19  2  0
 10  9  1  0
 11 10  2  0
 11 12  1  0
 12 18  2  0
 13 12  1  0
 14 13  1  1
 15 14  1  0
 15  6  1  0
 16 17  2  0
 16 14  1  0
 18 19  1  0
 20 21  1  0
 21 22  2  0
 23 21  1  0
 23 24  1  0
 25 24  1  6
 25 26  1  0
 25 27  1  0
 26 16  1  0
 27 29  1  0
 28 27  2  0
M  END
$$$$
