PYQ.pdb
     RDKit          3D

 29 30  0  0  1  0  0  0  0  0999 V2000
    6.1638  -19.3809   21.8578 N   0  0  0  0  0  0  0  0  0  0  0  0
    5.3631  -20.0329   20.8091 C   0  0  0  0  0  0  0  0  0  0  0  0
    5.4711  -19.1314   19.6067 C   0  0  0  0  0  0  0  0  0  0  0  0
    6.6489  -18.2381   19.9291 C   0  0  0  0  0  0  0  0  0  0  0  0
    7.2825  -18.8790   21.1373 C   0  0  1  0  0  0  0  0  0  0  0  0
    8.0552  -17.8483   21.8862 C   0  0  0  0  0  0  0  0  0  0  0  0
    9.3093  -17.8437   21.8327 O   0  0  0  0  0  0  0  0  0  0  0  0
    8.2382  -12.5958   17.8171 O   0  0  0  0  0  0  0  0  0  0  0  0
    8.1628  -13.0647   19.1383 C   0  0  0  0  0  0  0  0  0  0  0  0
    6.9715  -13.0162   19.7932 C   0  0  0  0  0  0  0  0  0  0  0  0
    6.8655  -13.4775   21.1139 C   0  0  0  0  0  0  0  0  0  0  0  0
    7.9595  -13.9871   21.7733 C   0  0  0  0  0  0  0  0  0  0  0  0
    7.8068  -14.4523   23.1356 C   0  0  0  0  0  0  0  0  0  0  0  0
    8.1989  -15.8729   23.3951 C   0  0  2  0  0  0  0  0  0  0  0  0
    7.4359  -16.8409   22.6809 N   0  0  0  0  0  0  0  0  0  0  0  0
    8.2356  -16.1202   24.8582 C   0  0  0  0  0  0  0  0  0  0  0  0
    7.0965  -16.2274   25.4265 O   0  0  0  0  0  0  0  0  0  0  0  0
    9.1565  -14.0295   21.0980 C   0  0  0  0  0  0  0  0  0  0  0  0
    9.2633  -13.5689   19.7787 C   0  0  0  0  0  0  0  0  0  0  0  0
    6.4346  -19.3173   25.1413 N   0  0  0  0  0  0  0  0  0  0  0  0
    6.9007  -19.8241   26.3741 C   0  0  0  0  0  0  0  0  0  0  0  0
    6.1441  -20.5607   27.0503 O   0  0  0  0  0  0  0  0  0  0  0  0
    8.2443  -19.5032   26.8530 C   0  0  0  0  0  0  0  0  0  0  0  0
    9.0525  -18.5614   26.0644 C   0  0  0  0  0  0  0  0  0  0  0  0
    9.4568  -17.2578   26.6681 C   0  0  2  0  0  0  0  0  0  0  0  0
    9.4099  -16.2368   25.6142 N   0  0  0  0  0  0  0  0  0  0  0  0
   10.7615  -17.2683   27.3119 C   0  0  0  0  0  0  0  0  0  0  0  0
   11.8220  -16.8270   26.7370 O   0  0  0  0  0  0  0  0  0  0  0  0
   11.0109  -17.7426   28.6139 O   0  0  0  0  0  0  0  0  0  0  0  0
  1  2  1  0
  3  2  1  0
  4  5  1  0
  4  3  1  0
  5  6  1  1
  5  1  1  0
  6  7  2  0
  9  8  1  0
  9 19  2  0
 10  9  1  0
 11 10  2  0
 11 12  1  0
 12 18  2  0
 13 12  1  0
 14 13  1  1
 15 14  1  0
 15  6  1  0
 16 17  2  0
 16 14  1  0
 18 19  1  0
 20 21  1  0
 21 22  2  0
 23 21  1  0
 23 24  1  0
 25 24  1  6
 25 26  1  0
 25 27  1  0
 26 16  1  0
 27 29  1  0
 28 27  2  0
M  END
$$$$
