PYQ.pdb
     RDKit          3D

 29 30  0  0  1  0  0  0  0  0999 V2000
    7.4023  -14.9625   19.8880 N   0  0  0  0  0  0  0  0  0  0  0  0
    7.0734  -14.1812   18.6848 C   0  0  0  0  0  0  0  0  0  0  0  0
    7.5517  -12.7822   18.9747 C   0  0  0  0  0  0  0  0  0  0  0  0
    8.4783  -12.9548   20.1583 C   0  0  0  0  0  0  0  0  0  0  0  0
    8.6726  -14.4457   20.2646 C   0  0  1  0  0  0  0  0  0  0  0  0
    9.0603  -14.7878   21.6621 C   0  0  0  0  0  0  0  0  0  0  0  0
   10.2262  -14.5537   22.0642 O   0  0  0  0  0  0  0  0  0  0  0  0
    6.3033  -10.3032   26.8369 O   0  0  0  0  0  0  0  0  0  0  0  0
    6.6160  -11.5900   26.3706 C   0  0  0  0  0  0  0  0  0  0  0  0
    5.6112  -12.4100   25.9604 C   0  0  0  0  0  0  0  0  0  0  0  0
    5.8930  -13.7013   25.4895 C   0  0  0  0  0  0  0  0  0  0  0  0
    7.1865  -14.1648   25.4324 C   0  0  0  0  0  0  0  0  0  0  0  0
    7.4336  -15.5034   24.9399 C   0  0  0  0  0  0  0  0  0  0  0  0
    8.5386  -15.6451   23.9408 C   0  0  2  0  0  0  0  0  0  0  0  0
    8.1598  -15.3812   22.5932 N   0  0  0  0  0  0  0  0  0  0  0  0
    9.2020  -16.9613   24.1151 C   0  0  0  0  0  0  0  0  0  0  0  0
    8.6290  -17.9467   23.5383 O   0  0  0  0  0  0  0  0  0  0  0  0
    8.1910  -13.3242   25.8505 C   0  0  0  0  0  0  0  0  0  0  0  0
    7.9104  -12.0343   26.3210 C   0  0  0  0  0  0  0  0  0  0  0  0
   15.1507  -18.4513   24.8674 N   0  0  0  0  0  0  0  0  0  0  0  0
   14.5603  -19.4778   24.0983 C   0  0  0  0  0  0  0  0  0  0  0  0
   15.3024  -20.2361   23.4300 O   0  0  0  0  0  0  0  0  0  0  0  0
   13.1097  -19.6603   24.0849 C   0  0  0  0  0  0  0  0  0  0  0  0
   12.2617  -18.4604   24.1377 C   0  0  0  0  0  0  0  0  0  0  0  0
   10.9594  -18.5141   24.8646 C   0  0  2  0  0  0  0  0  0  0  0  0
   10.3771  -17.1665   24.8509 N   0  0  0  0  0  0  0  0  0  0  0  0
   11.0473  -19.0190   26.2263 C   0  0  0  0  0  0  0  0  0  0  0  0
   10.9494  -18.2574   27.2560 O   0  0  0  0  0  0  0  0  0  0  0  0
   11.2358  -20.3711   26.5710 O   0  0  0  0  0  0  0  0  0  0  0  0
  1  2  1  0
  3  2  1  0
  4  5  1  0
  4  3  1  0
  5  6  1  1
  5  1  1  0
  6  7  2  0
  9  8  1  0
  9 19  2  0
 10  9  1  0
 11 10  2  0
 11 12  1  0
 12 18  2  0
 13 12  1  0
 14 13  1  1
 15 14  1  0
 15  6  1  0
 16 17  2  0
 16 14  1  0
 18 19  1  0
 20 21  1  0
 21 22  2  0
 23 21  1  0
 23 24  1  0
 25 24  1  1
 25 26  1  0
 25 27  1  0
 26 16  1  0
 27 29  1  0
 28 27  2  0
M  END
$$$$
