PYQ.pdb
     RDKit          3D

 29 30  0  0  1  0  0  0  0  0999 V2000
    7.5881  -15.4846   18.7131 N   0  0  0  0  0  0  0  0  0  0  0  0
    7.3910  -15.0844   17.3105 C   0  0  0  0  0  0  0  0  0  0  0  0
    7.6363  -13.5981   17.2817 C   0  0  0  0  0  0  0  0  0  0  0  0
    8.3470  -13.3235   18.5889 C   0  0  0  0  0  0  0  0  0  0  0  0
    8.6973  -14.6912   19.1167 C   0  0  1  0  0  0  0  0  0  0  0  0
    8.8636  -14.6147   20.5955 C   0  0  0  0  0  0  0  0  0  0  0  0
   10.0006  -14.7620   21.1067 O   0  0  0  0  0  0  0  0  0  0  0  0
    7.4724  -12.7093   29.1421 O   0  0  0  0  0  0  0  0  0  0  0  0
    7.3657  -12.8320   27.7476 C   0  0  0  0  0  0  0  0  0  0  0  0
    6.6146  -13.8385   27.2251 C   0  0  0  0  0  0  0  0  0  0  0  0
    6.4894  -13.9863   25.8355 C   0  0  0  0  0  0  0  0  0  0  0  0
    7.1210  -13.1202   24.9741 C   0  0  0  0  0  0  0  0  0  0  0  0
    6.9656  -13.3081   23.5472 C   0  0  0  0  0  0  0  0  0  0  0  0
    7.9797  -14.1858   22.8833 C   0  0  2  0  0  0  0  0  0  0  0  0
    7.7773  -14.3775   21.4864 N   0  0  0  0  0  0  0  0  0  0  0  0
    8.1063  -15.4585   23.6365 C   0  0  0  0  0  0  0  0  0  0  0  0
    7.2256  -16.3448   23.3704 O   0  0  0  0  0  0  0  0  0  0  0  0
    7.8766  -12.1080   25.5175 C   0  0  0  0  0  0  0  0  0  0  0  0
    8.0021  -11.9596   26.9054 C   0  0  0  0  0  0  0  0  0  0  0  0
   12.1321  -18.9703   22.2420 N   0  0  0  0  0  0  0  0  0  0  0  0
   11.7114  -19.6910   23.3811 C   0  0  0  0  0  0  0  0  0  0  0  0
   12.1696  -20.8425   23.5717 O   0  0  0  0  0  0  0  0  0  0  0  0
   10.7636  -19.1046   24.3274 C   0  0  0  0  0  0  0  0  0  0  0  0
   10.2577  -17.7521   24.0504 C   0  0  0  0  0  0  0  0  0  0  0  0
    9.3058  -17.1149   25.0071 C   0  0  2  0  0  0  0  0  0  0  0  0
    9.1033  -15.7234   24.5852 N   0  0  0  0  0  0  0  0  0  0  0  0
    9.7204  -17.1713   26.4005 C   0  0  0  0  0  0  0  0  0  0  0  0
   10.2039  -16.1564   27.0218 O   0  0  0  0  0  0  0  0  0  0  0  0
    9.6345  -18.3142   27.2184 O   0  0  0  0  0  0  0  0  0  0  0  0
  1  2  1  0
  3  2  1  0
  4  5  1  0
  4  3  1  0
  5  6  1  1
  5  1  1  0
  6  7  2  0
  9  8  1  0
  9 19  2  0
 10  9  1  0
 11 10  2  0
 11 12  1  0
 12 18  2  0
 13 12  1  0
 14 13  1  1
 15 14  1  0
 15  6  1  0
 16 17  2  0
 16 14  1  0
 18 19  1  0
 20 21  1  0
 21 22  2  0
 23 21  1  0
 23 24  1  0
 25 24  1  6
 25 26  1  0
 25 27  1  0
 26 16  1  0
 27 29  1  0
 28 27  2  0
M  END
$$$$
