PYQ.pdb
     RDKit          3D

 29 30  0  0  1  0  0  0  0  0999 V2000
    6.6735  -14.8231   20.0816 N   0  0  0  0  0  0  0  0  0  0  0  0
    6.0999  -14.2061   18.8748 C   0  0  0  0  0  0  0  0  0  0  0  0
    6.5023  -12.7555   18.9390 C   0  0  0  0  0  0  0  0  0  0  0  0
    7.6121  -12.7333   19.9672 C   0  0  0  0  0  0  0  0  0  0  0  0
    7.9407  -14.1871   20.1917 C   0  0  1  0  0  0  0  0  0  0  0  0
    8.5667  -14.3429   21.5349 C   0  0  0  0  0  0  0  0  0  0  0  0
    9.8157  -14.4129   21.6398 O   0  0  0  0  0  0  0  0  0  0  0  0
    9.9784  -14.4479   30.2813 O   0  0  0  0  0  0  0  0  0  0  0  0
    9.3896  -14.3646   29.0095 C   0  0  0  0  0  0  0  0  0  0  0  0
    9.4597  -13.1937   28.3206 C   0  0  0  0  0  0  0  0  0  0  0  0
    8.8807  -13.0805   27.0477 C   0  0  0  0  0  0  0  0  0  0  0  0
    8.2319  -14.1467   26.4702 C   0  0  0  0  0  0  0  0  0  0  0  0
    7.6483  -13.9875   25.1551 C   0  0  0  0  0  0  0  0  0  0  0  0
    8.4338  -14.5504   24.0125 C   0  0  2  0  0  0  0  0  0  0  0  0
    7.8091  -14.4192   22.7391 N   0  0  0  0  0  0  0  0  0  0  0  0
    8.8385  -15.9439   24.3249 C   0  0  0  0  0  0  0  0  0  0  0  0
    7.8862  -16.7935   24.3818 O   0  0  0  0  0  0  0  0  0  0  0  0
    8.1694  -15.3233   27.1790 C   0  0  0  0  0  0  0  0  0  0  0  0
    8.7475  -15.4373   28.4506 C   0  0  0  0  0  0  0  0  0  0  0  0
   13.3668  -19.7368   21.9358 N   0  0  0  0  0  0  0  0  0  0  0  0
   13.2551  -18.3538   22.1979 C   0  0  0  0  0  0  0  0  0  0  0  0
   13.7572  -17.5415   21.3853 O   0  0  0  0  0  0  0  0  0  0  0  0
   12.5605  -17.8741   23.3917 C   0  0  0  0  0  0  0  0  0  0  0  0
   11.1716  -18.3075   23.6042 C   0  0  0  0  0  0  0  0  0  0  0  0
   10.4111  -17.7836   24.7765 C   0  0  2  0  0  0  0  0  0  0  0  0
   10.1592  -16.3549   24.5510 N   0  0  0  0  0  0  0  0  0  0  0  0
   11.0616  -17.9913   26.0612 C   0  0  0  0  0  0  0  0  0  0  0  0
   11.2602  -19.1594   26.5571 O   0  0  0  0  0  0  0  0  0  0  0  0
   11.5483  -16.9629   26.8906 O   0  0  0  0  0  0  0  0  0  0  0  0
  1  2  1  0
  3  2  1  0
  4  5  1  0
  4  3  1  0
  5  6  1  1
  5  1  1  0
  6  7  2  0
  9  8  1  0
  9 19  2  0
 10  9  1  0
 11 10  2  0
 11 12  1  0
 12 18  2  0
 13 12  1  0
 14 13  1  1
 15 14  1  0
 15  6  1  0
 16 17  2  0
 16 14  1  0
 18 19  1  0
 20 21  1  0
 21 22  2  0
 23 21  1  0
 23 24  1  0
 25 24  1  6
 25 26  1  0
 25 27  1  0
 26 16  1  0
 27 29  1  0
 28 27  2  0
M  END
$$$$
