PYQ.pdb
     RDKit          3D

 29 30  0  0  1  0  0  0  0  0999 V2000
    6.9626  -15.0385   20.3163 N   0  0  0  0  0  0  0  0  0  0  0  0
    6.3565  -14.4238   19.1243 C   0  0  0  0  0  0  0  0  0  0  0  0
    6.7683  -12.9752   19.1695 C   0  0  0  0  0  0  0  0  0  0  0  0
    7.9084  -12.9543   20.1640 C   0  0  0  0  0  0  0  0  0  0  0  0
    8.2359  -14.4088   20.3855 C   0  0  1  0  0  0  0  0  0  0  0  0
    8.9010  -14.5619   21.7101 C   0  0  0  0  0  0  0  0  0  0  0  0
   10.1540  -14.5578   21.7864 O   0  0  0  0  0  0  0  0  0  0  0  0
   10.5097  -14.9020   30.4086 O   0  0  0  0  0  0  0  0  0  0  0  0
    9.9069  -14.7321   29.1520 C   0  0  0  0  0  0  0  0  0  0  0  0
    9.2717  -15.7860   28.5723 C   0  0  0  0  0  0  0  0  0  0  0  0
    8.6602  -15.6464   27.3173 C   0  0  0  0  0  0  0  0  0  0  0  0
    8.6892  -14.4455   26.6479 C   0  0  0  0  0  0  0  0  0  0  0  0
    8.0458  -14.3443   25.3551 C   0  0  0  0  0  0  0  0  0  0  0  0
    8.8377  -14.8351   24.1841 C   0  0  2  0  0  0  0  0  0  0  0  0
    8.1773  -14.7168   22.9275 N   0  0  0  0  0  0  0  0  0  0  0  0
    9.3334  -16.2071   24.4579 C   0  0  0  0  0  0  0  0  0  0  0  0
    8.4309  -17.0847   24.6750 O   0  0  0  0  0  0  0  0  0  0  0  0
    9.3350  -13.3896   27.2469 C   0  0  0  0  0  0  0  0  0  0  0  0
    9.9461  -13.5282   28.5005 C   0  0  0  0  0  0  0  0  0  0  0  0
   13.0129  -18.1300   20.4441 N   0  0  0  0  0  0  0  0  0  0  0  0
   13.4969  -18.0414   21.7677 C   0  0  0  0  0  0  0  0  0  0  0  0
   14.6689  -18.4158   22.0096 O   0  0  0  0  0  0  0  0  0  0  0  0
   12.6510  -17.5159   22.8382 C   0  0  0  0  0  0  0  0  0  0  0  0
   11.8587  -18.4722   23.6254 C   0  0  0  0  0  0  0  0  0  0  0  0
   11.0207  -17.9750   24.7558 C   0  0  2  0  0  0  0  0  0  0  0  0
   10.6866  -16.5706   24.4882 N   0  0  0  0  0  0  0  0  0  0  0  0
   11.6324  -18.1136   26.0686 C   0  0  0  0  0  0  0  0  0  0  0  0
   11.8947  -17.1064   26.8213 O   0  0  0  0  0  0  0  0  0  0  0  0
   11.9927  -19.3388   26.6615 O   0  0  0  0  0  0  0  0  0  0  0  0
  1  2  1  0
  3  2  1  0
  4  5  1  0
  4  3  1  0
  5  6  1  1
  5  1  1  0
  6  7  2  0
  9  8  1  0
  9 19  2  0
 10  9  1  0
 11 10  2  0
 11 12  1  0
 12 18  2  0
 13 12  1  0
 14 13  1  1
 15 14  1  0
 15  6  1  0
 16 17  2  0
 16 14  1  0
 18 19  1  0
 20 21  1  0
 21 22  2  0
 23 21  1  0
 23 24  1  0
 25 24  1  6
 25 26  1  0
 25 27  1  0
 26 16  1  0
 27 29  1  0
 28 27  2  0
M  END
$$$$
