PYQ.pdb
     RDKit          3D

 29 30  0  0  1  0  0  0  0  0999 V2000
    6.7853  -15.0468   20.3742 N   0  0  0  0  0  0  0  0  0  0  0  0
    6.1643  -14.4432   19.1842 C   0  0  0  0  0  0  0  0  0  0  0  0
    6.7571  -13.0617   19.0825 C   0  0  0  0  0  0  0  0  0  0  0  0
    7.9694  -13.1210   19.9859 C   0  0  0  0  0  0  0  0  0  0  0  0
    8.1289  -14.5868   20.2991 C   0  0  1  0  0  0  0  0  0  0  0  0
    8.8771  -14.7325   21.5795 C   0  0  0  0  0  0  0  0  0  0  0  0
   10.1313  -14.6805   21.5818 O   0  0  0  0  0  0  0  0  0  0  0  0
   10.8732  -15.0655   30.2180 O   0  0  0  0  0  0  0  0  0  0  0  0
   10.1985  -14.9564   28.9915 C   0  0  0  0  0  0  0  0  0  0  0  0
    9.6613  -16.0717   28.4278 C   0  0  0  0  0  0  0  0  0  0  0  0
    8.9814  -15.9937   27.2029 C   0  0  0  0  0  0  0  0  0  0  0  0
    8.8436  -14.7926   26.5476 C   0  0  0  0  0  0  0  0  0  0  0  0
    8.1348  -14.7561   25.2860 C   0  0  0  0  0  0  0  0  0  0  0  0
    8.9642  -14.9607   24.0574 C   0  0  2  0  0  0  0  0  0  0  0  0
    8.2336  -14.9328   22.8348 N   0  0  0  0  0  0  0  0  0  0  0  0
    9.7952  -16.1804   24.2148 C   0  0  0  0  0  0  0  0  0  0  0  0
    9.1648  -17.2889   24.1387 O   0  0  0  0  0  0  0  0  0  0  0  0
    9.3921  -13.6743   27.1302 C   0  0  0  0  0  0  0  0  0  0  0  0
   10.0714  -13.7513   28.3536 C   0  0  0  0  0  0  0  0  0  0  0  0
   12.6439  -18.8204   20.3864 N   0  0  0  0  0  0  0  0  0  0  0  0
   13.6176  -19.1025   21.3694 C   0  0  0  0  0  0  0  0  0  0  0  0
   14.6870  -19.6562   21.0203 O   0  0  0  0  0  0  0  0  0  0  0  0
   13.3885  -18.7498   22.7697 C   0  0  0  0  0  0  0  0  0  0  0  0
   12.5489  -17.5779   23.0588 C   0  0  0  0  0  0  0  0  0  0  0  0
   11.8924  -17.4575   24.3937 C   0  0  2  0  0  0  0  0  0  0  0  0
   11.1795  -16.1747   24.4336 N   0  0  0  0  0  0  0  0  0  0  0  0
   12.7985  -17.5740   25.5260 C   0  0  0  0  0  0  0  0  0  0  0  0
   13.1273  -18.7055   26.0374 O   0  0  0  0  0  0  0  0  0  0  0  0
   13.4166  -16.4882   26.1752 O   0  0  0  0  0  0  0  0  0  0  0  0
  1  2  1  0
  3  2  1  0
  4  5  1  0
  4  3  1  0
  5  6  1  1
  5  1  1  0
  6  7  2  0
  9  8  1  0
  9 19  2  0
 10  9  1  0
 11 10  2  0
 11 12  1  0
 12 18  2  0
 13 12  1  0
 14 13  1  1
 15 14  1  0
 15  6  1  0
 16 17  2  0
 16 14  1  0
 18 19  1  0
 20 21  1  0
 21 22  2  0
 23 21  1  0
 23 24  1  0
 25 24  1  6
 25 26  1  0
 25 27  1  0
 26 16  1  0
 27 29  1  0
 28 27  2  0
M  END
$$$$
