PYQ.pdb
     RDKit          3D

 29 30  0  0  1  0  0  0  0  0999 V2000
    7.0987  -15.3271   20.3556 N   0  0  0  0  0  0  0  0  0  0  0  0
    6.4750  -14.8332   19.1174 C   0  0  0  0  0  0  0  0  0  0  0  0
    6.8300  -13.3706   19.0480 C   0  0  0  0  0  0  0  0  0  0  0  0
    7.9636  -13.2262   20.0396 C   0  0  0  0  0  0  0  0  0  0  0  0
    8.3463  -14.6446   20.3767 C   0  0  1  0  0  0  0  0  0  0  0  0
    9.0103  -14.6659   21.7105 C   0  0  0  0  0  0  0  0  0  0  0  0
   10.2253  -14.3666   21.8104 O   0  0  0  0  0  0  0  0  0  0  0  0
   10.5885  -14.9636   30.4210 O   0  0  0  0  0  0  0  0  0  0  0  0
    9.9693  -14.9281   29.1614 C   0  0  0  0  0  0  0  0  0  0  0  0
    9.9704  -13.7666   28.4535 C   0  0  0  0  0  0  0  0  0  0  0  0
    9.3596  -13.7007   27.1921 C   0  0  0  0  0  0  0  0  0  0  0  0
    8.7485  -14.8048   26.6455 C   0  0  0  0  0  0  0  0  0  0  0  0
    8.1302  -14.6939   25.3413 C   0  0  0  0  0  0  0  0  0  0  0  0
    8.9917  -15.0494   24.1706 C   0  0  2  0  0  0  0  0  0  0  0  0
    8.3274  -15.0158   22.9109 N   0  0  0  0  0  0  0  0  0  0  0  0
    9.6830  -16.3363   24.4334 C   0  0  0  0  0  0  0  0  0  0  0  0
    8.9265  -17.3637   24.4983 O   0  0  0  0  0  0  0  0  0  0  0  0
    8.7558  -15.9714   27.3732 C   0  0  0  0  0  0  0  0  0  0  0  0
    9.3657  -16.0381   28.6332 C   0  0  0  0  0  0  0  0  0  0  0  0
   15.0285  -18.3793   22.1491 N   0  0  0  0  0  0  0  0  0  0  0  0
   13.7801  -18.0177   21.5971 C   0  0  0  0  0  0  0  0  0  0  0  0
   13.6843  -17.8832   20.3542 O   0  0  0  0  0  0  0  0  0  0  0  0
   12.6159  -17.8099   22.4568 C   0  0  0  0  0  0  0  0  0  0  0  0
   12.7875  -17.9842   23.9067 C   0  0  0  0  0  0  0  0  0  0  0  0
   11.6102  -17.8215   24.8093 C   0  0  2  0  0  0  0  0  0  0  0  0
   11.0671  -16.4727   24.6064 N   0  0  0  0  0  0  0  0  0  0  0  0
   11.8916  -18.0526   26.2179 C   0  0  0  0  0  0  0  0  0  0  0  0
   11.9383  -19.2288   26.7319 O   0  0  0  0  0  0  0  0  0  0  0  0
   12.1500  -17.0404   27.1619 O   0  0  0  0  0  0  0  0  0  0  0  0
  1  2  1  0
  3  2  1  0
  4  5  1  0
  4  3  1  0
  5  6  1  1
  5  1  1  0
  6  7  2  0
  9  8  1  0
  9 19  2  0
 10  9  1  0
 11 10  2  0
 11 12  1  0
 12 18  2  0
 13 12  1  0
 14 13  1  1
 15 14  1  0
 15  6  1  0
 16 17  2  0
 16 14  1  0
 18 19  1  0
 20 21  1  0
 21 22  2  0
 23 21  1  0
 23 24  1  0
 25 24  1  6
 25 26  1  0
 25 27  1  0
 26 16  1  0
 27 29  1  0
 28 27  2  0
M  END
$$$$
