QEQ.pdb
     RDKit          3D

 28 27  0  0  1  0  0  0  0  0999 V2000
   13.1596   -8.2312  -14.5213 N   0  0  0  0  0  0  0  0  0  0  0  0
   13.0896   -9.3930  -15.3573 C   0  0  0  0  0  0  0  0  0  0  0  0
   11.9762   -9.7927  -15.7712 O   0  0  0  0  0  0  0  0  0  0  0  0
   14.3211  -10.1304  -15.7397 C   0  0  0  0  0  0  0  0  0  0  0  0
   15.4922   -9.5085  -15.0343 C   0  0  0  0  0  0  0  0  0  0  0  0
   16.7603  -10.2311  -15.3852 C   0  0  2  0  0  0  0  0  0  0  0  0
   16.8066  -11.5720  -14.9105 N   0  0  0  0  0  0  0  0  0  0  0  0
   17.9712   -9.4716  -14.8955 C   0  0  0  0  0  0  0  0  0  0  0  0
   17.9363   -8.9142  -13.7820 O   0  0  0  0  0  0  0  0  0  0  0  0
   19.1445   -9.3802  -15.6749 N   0  0  0  0  0  0  0  0  0  0  0  0
   20.3778   -8.7535  -15.3931 C   0  0  1  0  0  0  0  0  0  0  0  0
   21.6313   -9.4027  -15.9310 C   0  0  0  0  0  0  0  0  0  0  0  0
   22.5390   -9.9970  -14.9195 C   0  0  0  0  0  0  0  0  0  0  0  0
   23.7701  -10.5877  -15.5308 C   0  0  0  0  0  0  0  0  0  0  0  0
   23.9638  -11.8162  -15.4351 O   0  0  0  0  0  0  0  0  0  0  0  0
   20.4641   -7.3073  -15.6119 C   0  0  0  0  0  0  0  0  0  0  0  0
   20.1683   -6.8569  -16.7375 O   0  0  0  0  0  0  0  0  0  0  0  0
   24.7074   -9.8293  -16.2004 O   0  0  0  0  0  0  0  0  0  0  0  0
   18.3734   -0.7041  -14.6136 N   0  0  0  0  0  0  0  0  0  0  0  0
   18.4120   -2.1235  -14.5280 C   0  0  0  0  0  0  0  0  0  0  0  0
   17.3829   -2.8008  -14.3389 O   0  0  0  0  0  0  0  0  0  0  0  0
   19.7227   -2.7949  -14.6682 C   0  0  0  0  0  0  0  0  0  0  0  0
   19.6683   -4.2784  -14.5339 C   0  0  0  0  0  0  0  0  0  0  0  0
   20.9666   -4.9453  -14.8201 C   0  0  2  0  0  0  0  0  0  0  0  0
   20.8698   -6.3958  -14.5977 N   0  0  0  0  0  0  0  0  0  0  0  0
   22.0900   -4.3801  -14.0532 C   0  0  0  0  0  0  0  0  0  0  0  0
   22.5476   -4.9750  -13.0638 O   0  0  0  0  0  0  0  0  0  0  0  0
   22.6557   -3.1714  -14.4239 O   0  0  0  0  0  0  0  0  0  0  0  0
  2  3  2  0
  2  1  1  0
  4  2  1  0
  5  4  1  0
  6  5  1  0
  6  7  1  1
  8  9  2  0
  8  6  1  0
 10  8  1  0
 11 10  1  0
 12 13  1  0
 11 12  1  6
 13 14  1  0
 14 15  2  0
 14 18  1  0
 16 11  1  0
 16 17  2  0
 20 19  1  0
 21 20  2  0
 22 20  1  0
 23 22  1  0
 24 25  1  0
 24 23  1  1
 25 16  1  0
 26 24  1  0
 27 26  2  0
 28 26  1  0
M  END
$$$$
