QEQ.pdb
     RDKit          3D

 28 27  0  0  1  0  0  0  0  0999 V2000
   17.4197  -23.1112  -11.2037 N   0  0  0  0  0  0  0  0  0  0  0  0
   18.7967  -22.8911  -10.8739 C   0  0  0  0  0  0  0  0  0  0  0  0
   19.5615  -22.3716  -11.7202 O   0  0  0  0  0  0  0  0  0  0  0  0
   19.3299  -23.2711   -9.5405 C   0  0  0  0  0  0  0  0  0  0  0  0
   18.1980  -23.7896   -8.7004 C   0  0  0  0  0  0  0  0  0  0  0  0
   18.5590  -25.1143   -8.0934 C   0  0  2  0  0  0  0  0  0  0  0  0
   18.6810  -26.1665   -9.0440 N   0  0  0  0  0  0  0  0  0  0  0  0
   17.5720  -25.5060   -7.0187 C   0  0  0  0  0  0  0  0  0  0  0  0
   16.4022  -25.7939   -7.3359 O   0  0  0  0  0  0  0  0  0  0  0  0
   17.9482  -25.5531   -5.6591 N   0  0  0  0  0  0  0  0  0  0  0  0
   17.1599  -25.7384   -4.5025 C   0  0  1  0  0  0  0  0  0  0  0  0
   17.7983  -26.4381   -3.3257 C   0  0  0  0  0  0  0  0  0  0  0  0
   18.2514  -27.8298   -3.5665 C   0  0  0  0  0  0  0  0  0  0  0  0
   18.9299  -28.4263   -2.3739 C   0  0  0  0  0  0  0  0  0  0  0  0
   19.0827  -27.7276   -1.3520 O   0  0  0  0  0  0  0  0  0  0  0  0
   16.4025  -24.5844   -4.0113 C   0  0  0  0  0  0  0  0  0  0  0  0
   17.0094  -23.5102   -3.8238 O   0  0  0  0  0  0  0  0  0  0  0  0
   19.3973  -29.7237   -2.3536 O   0  0  0  0  0  0  0  0  0  0  0  0
   11.4291  -24.7321   -5.8746 N   0  0  0  0  0  0  0  0  0  0  0  0
   12.3577  -23.8014   -6.4179 C   0  0  0  0  0  0  0  0  0  0  0  0
   12.5038  -23.6572   -7.6473 O   0  0  0  0  0  0  0  0  0  0  0  0
   13.1648  -22.9928   -5.4783 C   0  0  0  0  0  0  0  0  0  0  0  0
   12.9659  -23.3420   -4.0429 C   0  0  0  0  0  0  0  0  0  0  0  0
   14.2389  -23.4673   -3.2837 C   0  0  2  0  0  0  0  0  0  0  0  0
   15.0070  -24.6356   -3.7397 N   0  0  0  0  0  0  0  0  0  0  0  0
   14.0413  -23.5177   -1.8250 C   0  0  0  0  0  0  0  0  0  0  0  0
   13.4614  -22.5950   -1.2296 O   0  0  0  0  0  0  0  0  0  0  0  0
   14.5013  -24.5985   -1.0911 O   0  0  0  0  0  0  0  0  0  0  0  0
  2  3  2  0
  2  1  1  0
  4  2  1  0
  5  4  1  0
  6  5  1  0
  6  7  1  6
  8  9  2  0
  8  6  1  0
 10  8  1  0
 11 10  1  0
 12 13  1  0
 11 12  1  1
 13 14  1  0
 14 15  2  0
 14 18  1  0
 16 11  1  0
 16 17  2  0
 20 19  1  0
 21 20  2  0
 22 20  1  0
 23 22  1  0
 24 25  1  0
 24 23  1  6
 25 16  1  0
 26 24  1  0
 27 26  2  0
 28 26  1  0
M  END
$$$$
