QEQ.pdb
     RDKit          3D

 28 27  0  0  1  0  0  0  0  0999 V2000
   20.5962  -17.5676  -17.6530 N   0  0  0  0  0  0  0  0  0  0  0  0
   19.6117  -16.9067  -18.4575 C   0  0  0  0  0  0  0  0  0  0  0  0
   19.5561  -17.1424  -19.6873 O   0  0  0  0  0  0  0  0  0  0  0  0
   18.6552  -15.9448  -17.8521 C   0  0  0  0  0  0  0  0  0  0  0  0
   19.1816  -14.5526  -18.0534 C   0  0  0  0  0  0  0  0  0  0  0  0
   19.2967  -13.8397  -16.7374 C   0  0  2  0  0  0  0  0  0  0  0  0
   18.3911  -14.3139  -15.7471 N   0  0  0  0  0  0  0  0  0  0  0  0
   19.1308  -12.3481  -16.9117 C   0  0  0  0  0  0  0  0  0  0  0  0
   19.8429  -11.7442  -17.7363 O   0  0  0  0  0  0  0  0  0  0  0  0
   18.1832  -11.6223  -16.1582 N   0  0  0  0  0  0  0  0  0  0  0  0
   17.8711  -10.2455  -16.1719 C   0  0  1  0  0  0  0  0  0  0  0  0
   16.4114   -9.8596  -16.2219 C   0  0  0  0  0  0  0  0  0  0  0  0
   15.6365  -10.4005  -17.3653 C   0  0  0  0  0  0  0  0  0  0  0  0
   14.1941  -10.0062  -17.3180 C   0  0  0  0  0  0  0  0  0  0  0  0
   13.7804   -9.3390  -16.3487 O   0  0  0  0  0  0  0  0  0  0  0  0
   18.5520   -9.3906  -15.1961 C   0  0  0  0  0  0  0  0  0  0  0  0
   18.5619   -9.7442  -13.9994 O   0  0  0  0  0  0  0  0  0  0  0  0
   13.2947  -10.3497  -18.3055 O   0  0  0  0  0  0  0  0  0  0  0  0
   22.9337   -4.9219  -16.3053 N   0  0  0  0  0  0  0  0  0  0  0  0
   22.7099   -4.7741  -14.9083 C   0  0  0  0  0  0  0  0  0  0  0  0
   23.3540   -3.9585  -14.2201 O   0  0  0  0  0  0  0  0  0  0  0  0
   21.6793   -5.6246  -14.2737 C   0  0  0  0  0  0  0  0  0  0  0  0
   20.9189   -6.4804  -15.2281 C   0  0  0  0  0  0  0  0  0  0  0  0
   19.8738   -7.3114  -14.5726 C   0  0  2  0  0  0  0  0  0  0  0  0
   19.2019   -8.1766  -15.5539 N   0  0  0  0  0  0  0  0  0  0  0  0
   18.8853   -6.5158  -13.8247 C   0  0  0  0  0  0  0  0  0  0  0  0
   17.8775   -6.0600  -14.3893 O   0  0  0  0  0  0  0  0  0  0  0  0
   19.0648   -6.2616  -12.4751 O   0  0  0  0  0  0  0  0  0  0  0  0
  2  3  2  0
  2  1  1  0
  4  2  1  0
  5  4  1  0
  6  5  1  0
  6  7  1  1
  8  9  2  0
  8  6  1  0
 10  8  1  0
 11 10  1  0
 12 13  1  0
 11 12  1  1
 13 14  1  0
 14 15  2  0
 14 18  1  0
 16 11  1  0
 16 17  2  0
 20 19  1  0
 21 20  2  0
 22 20  1  0
 23 22  1  0
 24 25  1  0
 24 23  1  6
 25 16  1  0
 26 24  1  0
 27 26  2  0
 28 26  1  0
M  END
$$$$
