QEQ.pdb
     RDKit          3D

 28 27  0  0  1  0  0  0  0  0999 V2000
   18.4489  -16.7123  -18.1823 N   0  0  0  0  0  0  0  0  0  0  0  0
   17.0831  -16.2797  -18.2078 C   0  0  0  0  0  0  0  0  0  0  0  0
   16.2805  -16.8077  -19.0128 O   0  0  0  0  0  0  0  0  0  0  0  0
   16.6058  -15.2124  -17.2915 C   0  0  0  0  0  0  0  0  0  0  0  0
   17.4323  -13.9790  -17.5188 C   0  0  0  0  0  0  0  0  0  0  0  0
   17.8124  -13.3533  -16.2083 C   0  0  2  0  0  0  0  0  0  0  0  0
   16.8548  -13.5583  -15.1756 N   0  0  0  0  0  0  0  0  0  0  0  0
   18.0832  -11.8757  -16.3706 C   0  0  0  0  0  0  0  0  0  0  0  0
   18.9286  -11.4951  -17.2026 O   0  0  0  0  0  0  0  0  0  0  0  0
   17.3966  -10.9148  -15.5975 N   0  0  0  0  0  0  0  0  0  0  0  0
   17.4683   -9.5051  -15.6244 C   0  0  1  0  0  0  0  0  0  0  0  0
   16.4001   -8.7362  -14.8828 C   0  0  0  0  0  0  0  0  0  0  0  0
   16.4590   -7.2594  -15.0082 C   0  0  0  0  0  0  0  0  0  0  0  0
   15.3764   -6.5748  -14.2351 C   0  0  0  0  0  0  0  0  0  0  0  0
   15.3288   -5.3284  -14.2340 O   0  0  0  0  0  0  0  0  0  0  0  0
   18.7695   -8.8912  -15.3479 C   0  0  0  0  0  0  0  0  0  0  0  0
   19.3390   -9.1626  -14.2711 O   0  0  0  0  0  0  0  0  0  0  0  0
   14.4215   -7.2652  -13.5184 O   0  0  0  0  0  0  0  0  0  0  0  0
   23.2054   -7.7481  -19.5090 N   0  0  0  0  0  0  0  0  0  0  0  0
   23.7857   -7.1463  -18.3580 C   0  0  0  0  0  0  0  0  0  0  0  0
   24.9609   -6.7310  -18.3529 O   0  0  0  0  0  0  0  0  0  0  0  0
   22.9529   -7.0217  -17.1418 C   0  0  0  0  0  0  0  0  0  0  0  0
   21.5667   -7.5484  -17.2923 C   0  0  0  0  0  0  0  0  0  0  0  0
   20.7715   -7.4853  -16.0368 C   0  0  2  0  0  0  0  0  0  0  0  0
   19.4110   -8.0005  -16.2530 N   0  0  0  0  0  0  0  0  0  0  0  0
   20.7241   -6.1361  -15.4479 C   0  0  0  0  0  0  0  0  0  0  0  0
   21.6516   -5.7209  -14.7341 O   0  0  0  0  0  0  0  0  0  0  0  0
   19.6401   -5.3060  -15.6808 O   0  0  0  0  0  0  0  0  0  0  0  0
  2  3  2  0
  2  1  1  0
  4  2  1  0
  5  4  1  0
  6  5  1  0
  6  7  1  1
  8  9  2  0
  8  6  1  0
 10  8  1  0
 11 10  1  0
 12 13  1  0
 11 12  1  1
 13 14  1  0
 14 15  2  0
 14 18  1  0
 16 11  1  0
 16 17  2  0
 20 19  1  0
 21 20  2  0
 22 20  1  0
 23 22  1  0
 24 25  1  0
 24 23  1  6
 25 16  1  0
 26 24  1  0
 27 26  2  0
 28 26  1  0
M  END
$$$$
