QEQ.pdb
     RDKit          3D

 28 27  0  0  1  0  0  0  0  0999 V2000
   28.4189  -10.9337  -16.5045 N   0  0  0  0  0  0  0  0  0  0  0  0
   28.0776  -12.3004  -16.2420 C   0  0  0  0  0  0  0  0  0  0  0  0
   28.9638  -13.0971  -15.8535 O   0  0  0  0  0  0  0  0  0  0  0  0
   26.6855  -12.7856  -16.4247 C   0  0  0  0  0  0  0  0  0  0  0  0
   25.8135  -11.6180  -16.7879 C   0  0  0  0  0  0  0  0  0  0  0  0
   24.3991  -12.0687  -17.0111 C   0  0  2  0  0  0  0  0  0  0  0  0
   24.2627  -13.0407  -18.0417 N   0  0  0  0  0  0  0  0  0  0  0  0
   23.4926  -10.8930  -17.2918 C   0  0  0  0  0  0  0  0  0  0  0  0
   23.4752  -10.3906  -18.4316 O   0  0  0  0  0  0  0  0  0  0  0  0
   22.6624  -10.3505  -16.2874 N   0  0  0  0  0  0  0  0  0  0  0  0
   21.7478   -9.2765  -16.3444 C   0  0  1  0  0  0  0  0  0  0  0  0
   20.3190   -9.5522  -15.9386 C   0  0  0  0  0  0  0  0  0  0  0  0
   20.1287  -10.6021  -14.9081 C   0  0  0  0  0  0  0  0  0  0  0  0
   18.6867  -10.8281  -14.5795 C   0  0  0  0  0  0  0  0  0  0  0  0
   18.0770  -11.7606  -15.1401 O   0  0  0  0  0  0  0  0  0  0  0  0
   22.1678   -8.0019  -15.7565 C   0  0  0  0  0  0  0  0  0  0  0  0
   22.7884   -8.0216  -14.6739 O   0  0  0  0  0  0  0  0  0  0  0  0
   17.9964  -10.0458  -13.6775 O   0  0  0  0  0  0  0  0  0  0  0  0
   23.8013   -2.7170  -18.0502 N   0  0  0  0  0  0  0  0  0  0  0  0
   23.2358   -2.1608  -16.8693 C   0  0  0  0  0  0  0  0  0  0  0  0
   23.5064   -1.0047  -16.4900 O   0  0  0  0  0  0  0  0  0  0  0  0
   22.3034   -2.9971  -16.0823 C   0  0  0  0  0  0  0  0  0  0  0  0
   22.0244   -4.3331  -16.6815 C   0  0  0  0  0  0  0  0  0  0  0  0
   22.2571   -5.4621  -15.7416 C   0  0  2  0  0  0  0  0  0  0  0  0
   21.8993   -6.7447  -16.3659 N   0  0  0  0  0  0  0  0  0  0  0  0
   21.5551   -5.3008  -14.4567 C   0  0  0  0  0  0  0  0  0  0  0  0
   22.0048   -4.5492  -13.5764 O   0  0  0  0  0  0  0  0  0  0  0  0
   20.3784   -5.9878  -14.2085 O   0  0  0  0  0  0  0  0  0  0  0  0
  2  3  2  0
  2  1  1  0
  4  2  1  0
  5  4  1  0
  6  5  1  0
  6  7  1  6
  8  9  2  0
  8  6  1  0
 10  8  1  0
 11 10  1  0
 12 13  1  0
 11 12  1  1
 13 14  1  0
 14 15  2  0
 14 18  1  0
 16 11  1  0
 16 17  2  0
 20 19  1  0
 21 20  2  0
 22 20  1  0
 23 22  1  0
 24 25  1  0
 24 23  1  6
 25 16  1  0
 26 24  1  0
 27 26  2  0
 28 26  1  0
M  END
$$$$
