QEQ.pdb
     RDKit          3D

 28 27  0  0  1  0  0  0  0  0999 V2000
   14.1520   -8.2269  -16.5951 N   0  0  0  0  0  0  0  0  0  0  0  0
   14.2408   -9.5850  -17.0435 C   0  0  0  0  0  0  0  0  0  0  0  0
   13.7008   -9.9173  -18.1247 O   0  0  0  0  0  0  0  0  0  0  0  0
   14.9651  -10.6050  -16.2426 C   0  0  0  0  0  0  0  0  0  0  0  0
   15.4081   -9.9769  -14.9522 C   0  0  0  0  0  0  0  0  0  0  0  0
   16.8133  -10.3896  -14.6229 C   0  0  2  0  0  0  0  0  0  0  0  0
   16.9890  -11.7985  -14.5239 N   0  0  0  0  0  0  0  0  0  0  0  0
   17.2918   -9.7228  -13.3544 C   0  0  0  0  0  0  0  0  0  0  0  0
   16.8879  -10.1401  -12.2524 O   0  0  0  0  0  0  0  0  0  0  0  0
   18.1895   -8.6341  -13.3915 N   0  0  0  0  0  0  0  0  0  0  0  0
   18.5913   -7.7503  -12.3665 C   0  0  1  0  0  0  0  0  0  0  0  0
   19.8140   -6.8991  -12.6162 C   0  0  0  0  0  0  0  0  0  0  0  0
   20.2514   -6.0448  -11.4853 C   0  0  0  0  0  0  0  0  0  0  0  0
   21.4995   -5.2797  -11.7941 C   0  0  0  0  0  0  0  0  0  0  0  0
   22.5994   -5.7450  -11.4343 O   0  0  0  0  0  0  0  0  0  0  0  0
   17.5549   -6.9183  -11.7497 C   0  0  0  0  0  0  0  0  0  0  0  0
   16.8538   -6.1964  -12.4877 O   0  0  0  0  0  0  0  0  0  0  0  0
   21.4882   -4.0741  -12.4637 O   0  0  0  0  0  0  0  0  0  0  0  0
   13.5761   -8.6022   -7.4767 N   0  0  0  0  0  0  0  0  0  0  0  0
   13.3447   -7.1991   -7.4397 C   0  0  0  0  0  0  0  0  0  0  0  0
   12.4390   -6.6984   -6.7450 O   0  0  0  0  0  0  0  0  0  0  0  0
   14.2146   -6.3274   -8.2591 C   0  0  0  0  0  0  0  0  0  0  0  0
   15.3410   -7.0397   -8.9265 C   0  0  0  0  0  0  0  0  0  0  0  0
   16.2077   -6.1442   -9.7386 C   0  0  2  0  0  0  0  0  0  0  0  0
   17.3137   -6.8983  -10.3477 N   0  0  0  0  0  0  0  0  0  0  0  0
   16.7254   -4.9934   -8.9788 C   0  0  0  0  0  0  0  0  0  0  0  0
   17.8915   -4.9859   -8.5520 O   0  0  0  0  0  0  0  0  0  0  0  0
   15.9167   -3.8976   -8.7265 O   0  0  0  0  0  0  0  0  0  0  0  0
  2  3  2  0
  2  1  1  0
  4  2  1  0
  5  4  1  0
  6  5  1  0
  6  7  1  1
  8  9  2  0
  8  6  1  0
 10  8  1  0
 11 10  1  0
 12 13  1  0
 11 12  1  6
 13 14  1  0
 14 15  2  0
 14 18  1  0
 16 11  1  0
 16 17  2  0
 20 19  1  0
 21 20  2  0
 22 20  1  0
 23 22  1  0
 24 25  1  0
 24 23  1  1
 25 16  1  0
 26 24  1  0
 27 26  2  0
 28 26  1  0
M  END
$$$$
