QEQ.pdb
     RDKit          3D

 28 27  0  0  1  0  0  0  0  0999 V2000
   27.7457  -19.4407  -16.0315 N   0  0  0  0  0  0  0  0  0  0  0  0
   27.3587  -20.7858  -15.7243 C   0  0  0  0  0  0  0  0  0  0  0  0
   28.1935  -21.7133  -15.8421 O   0  0  0  0  0  0  0  0  0  0  0  0
   25.9795  -21.0952  -15.2677 C   0  0  0  0  0  0  0  0  0  0  0  0
   25.2176  -19.8078  -15.1333 C   0  0  0  0  0  0  0  0  0  0  0  0
   23.9066  -19.8958  -15.8593 C   0  0  2  0  0  0  0  0  0  0  0  0
   24.0357  -20.2200  -17.2391 N   0  0  0  0  0  0  0  0  0  0  0  0
   23.1137  -18.6190  -15.7046 C   0  0  0  0  0  0  0  0  0  0  0  0
   22.6987  -18.2876  -14.5778 O   0  0  0  0  0  0  0  0  0  0  0  0
   22.8328  -17.7911  -16.8128 N   0  0  0  0  0  0  0  0  0  0  0  0
   22.0614  -16.6115  -16.8952 C   0  0  1  0  0  0  0  0  0  0  0  0
   22.5771  -15.4987  -17.7773 C   0  0  0  0  0  0  0  0  0  0  0  0
   21.8228  -14.2229  -17.7193 C   0  0  0  0  0  0  0  0  0  0  0  0
   22.4503  -13.1477  -18.5492 C   0  0  0  0  0  0  0  0  0  0  0  0
   21.9198  -12.0192  -18.5796 O   0  0  0  0  0  0  0  0  0  0  0  0
   20.6214  -16.7624  -17.1193 C   0  0  0  0  0  0  0  0  0  0  0  0
   20.2382  -17.3662  -18.1420 O   0  0  0  0  0  0  0  0  0  0  0  0
   23.5976  -13.3499  -19.2874 O   0  0  0  0  0  0  0  0  0  0  0  0
   17.9185  -19.3028  -13.5980 N   0  0  0  0  0  0  0  0  0  0  0  0
   17.3378  -19.6354  -14.8532 C   0  0  0  0  0  0  0  0  0  0  0  0
   17.0336  -20.8075  -15.1491 O   0  0  0  0  0  0  0  0  0  0  0  0
   17.0984  -18.5433  -15.8218 C   0  0  0  0  0  0  0  0  0  0  0  0
   17.5721  -17.2057  -15.3658 C   0  0  0  0  0  0  0  0  0  0  0  0
   18.1971  -16.3997  -16.4486 C   0  0  2  0  0  0  0  0  0  0  0  0
   19.6426  -16.2513  -16.2222 N   0  0  0  0  0  0  0  0  0  0  0  0
   17.5654  -15.0813  -16.6281 C   0  0  0  0  0  0  0  0  0  0  0  0
   17.6277  -14.2196  -15.7361 O   0  0  0  0  0  0  0  0  0  0  0  0
   16.8887  -14.7805  -17.7986 O   0  0  0  0  0  0  0  0  0  0  0  0
  2  3  2  0
  2  1  1  0
  4  2  1  0
  5  4  1  0
  6  5  1  0
  6  7  1  6
  8  9  2  0
  8  6  1  0
 10  8  1  0
 11 10  1  0
 12 13  1  0
 11 12  1  6
 13 14  1  0
 14 15  2  0
 14 18  1  0
 16 11  1  0
 16 17  2  0
 20 19  1  0
 21 20  2  0
 22 20  1  0
 23 22  1  0
 24 25  1  0
 24 23  1  1
 25 16  1  0
 26 24  1  0
 27 26  2  0
 28 26  1  0
M  END
$$$$
