QEQ.pdb
     RDKit          3D

 28 27  0  0  1  0  0  0  0  0999 V2000
   21.3440   -6.6635  -12.5683 N   0  0  0  0  0  0  0  0  0  0  0  0
   21.2828   -7.2307  -13.8828 C   0  0  0  0  0  0  0  0  0  0  0  0
   21.8062   -6.6221  -14.8455 O   0  0  0  0  0  0  0  0  0  0  0  0
   20.6062   -8.5317  -14.1194 C   0  0  0  0  0  0  0  0  0  0  0  0
   20.1220   -9.0680  -12.8027 C   0  0  0  0  0  0  0  0  0  0  0  0
   18.7960   -9.7515  -12.9701 C   0  0  2  0  0  0  0  0  0  0  0  0
   18.5442  -10.1973  -14.2980 N   0  0  0  0  0  0  0  0  0  0  0  0
   17.6653   -8.8644  -12.5040 C   0  0  0  0  0  0  0  0  0  0  0  0
   17.2058   -8.0006  -13.2750 O   0  0  0  0  0  0  0  0  0  0  0  0
   17.1168   -8.9940  -11.2098 N   0  0  0  0  0  0  0  0  0  0  0  0
   16.0069   -8.3485  -10.6229 C   0  0  1  0  0  0  0  0  0  0  0  0
   15.0618   -9.1920   -9.7999 C   0  0  0  0  0  0  0  0  0  0  0  0
   14.3165  -10.2399  -10.5395 C   0  0  0  0  0  0  0  0  0  0  0  0
   13.3707  -10.9978   -9.6624 C   0  0  0  0  0  0  0  0  0  0  0  0
   13.2992  -10.7034   -8.4524 O   0  0  0  0  0  0  0  0  0  0  0  0
   16.2564   -7.0909   -9.9136 C   0  0  0  0  0  0  0  0  0  0  0  0
   17.1340   -7.0718   -9.0266 O   0  0  0  0  0  0  0  0  0  0  0  0
   12.5682  -12.0149  -10.1353 O   0  0  0  0  0  0  0  0  0  0  0  0
   15.9778   -1.3238  -12.1887 N   0  0  0  0  0  0  0  0  0  0  0  0
   16.1774   -1.0441  -10.8084 C   0  0  0  0  0  0  0  0  0  0  0  0
   16.3771    0.1138  -10.3924 O   0  0  0  0  0  0  0  0  0  0  0  0
   16.1453   -2.1757   -9.8561 C   0  0  0  0  0  0  0  0  0  0  0  0
   15.9138   -3.5041  -10.4913 C   0  0  0  0  0  0  0  0  0  0  0  0
   15.8224   -4.6194   -9.5114 C   0  0  2  0  0  0  0  0  0  0  0  0
   15.5424   -5.8924  -10.1925 N   0  0  0  0  0  0  0  0  0  0  0  0
   14.8340   -4.3761   -8.4468 C   0  0  0  0  0  0  0  0  0  0  0  0
   13.7906   -5.0464   -8.3825 O   0  0  0  0  0  0  0  0  0  0  0  0
   15.0526   -3.3917   -7.4973 O   0  0  0  0  0  0  0  0  0  0  0  0
  2  3  2  0
  2  1  1  0
  4  2  1  0
  5  4  1  0
  6  5  1  0
  6  7  1  6
  8  9  2  0
  8  6  1  0
 10  8  1  0
 11 10  1  0
 12 13  1  0
 11 12  1  1
 13 14  1  0
 14 15  2  0
 14 18  1  0
 16 11  1  0
 16 17  2  0
 20 19  1  0
 21 20  2  0
 22 20  1  0
 23 22  1  0
 24 25  1  0
 24 23  1  6
 25 16  1  0
 26 24  1  0
 27 26  2  0
 28 26  1  0
M  END
$$$$
