QEQ.pdb
     RDKit          3D

 28 27  0  0  1  0  0  0  0  0999 V2000
   17.9932  -14.0365  -14.4447 N   0  0  0  0  0  0  0  0  0  0  0  0
   17.8786  -13.5725  -15.7956 C   0  0  0  0  0  0  0  0  0  0  0  0
   17.8494  -14.4013  -16.7354 O   0  0  0  0  0  0  0  0  0  0  0  0
   17.7943  -12.1203  -16.0967 C   0  0  0  0  0  0  0  0  0  0  0  0
   17.7818  -11.3608  -14.8010 C   0  0  0  0  0  0  0  0  0  0  0  0
   17.6876   -9.8850  -15.0587 C   0  0  2  0  0  0  0  0  0  0  0  0
   18.7007   -9.3884  -15.9263 N   0  0  0  0  0  0  0  0  0  0  0  0
   17.6945   -9.1063  -13.7639 C   0  0  0  0  0  0  0  0  0  0  0  0
   16.9853   -9.4895  -12.8142 O   0  0  0  0  0  0  0  0  0  0  0  0
   18.4899   -7.9508  -13.6069 N   0  0  0  0  0  0  0  0  0  0  0  0
   18.6336   -7.0885  -12.4983 C   0  0  1  0  0  0  0  0  0  0  0  0
   19.6712   -5.9947  -12.5929 C   0  0  0  0  0  0  0  0  0  0  0  0
   21.0544   -6.4373  -12.8948 C   0  0  0  0  0  0  0  0  0  0  0  0
   22.0124   -5.2930  -13.0000 C   0  0  0  0  0  0  0  0  0  0  0  0
   22.2117   -4.7709  -14.1152 O   0  0  0  0  0  0  0  0  0  0  0  0
   17.4106   -6.5298  -11.9162 C   0  0  0  0  0  0  0  0  0  0  0  0
   16.6395   -5.8857  -12.6564 O   0  0  0  0  0  0  0  0  0  0  0  0
   22.6900   -4.7855  -11.9112 O   0  0  0  0  0  0  0  0  0  0  0  0
   13.1771   -9.1593   -8.5940 N   0  0  0  0  0  0  0  0  0  0  0  0
   12.8130   -7.8112   -8.3226 C   0  0  0  0  0  0  0  0  0  0  0  0
   11.7650   -7.5213   -7.7131 O   0  0  0  0  0  0  0  0  0  0  0  0
   13.7177   -6.7375   -8.7882 C   0  0  0  0  0  0  0  0  0  0  0  0
   14.9973   -7.2269   -9.3755 C   0  0  0  0  0  0  0  0  0  0  0  0
   15.8291   -6.1436   -9.9648 C   0  0  2  0  0  0  0  0  0  0  0  0
   17.0647   -6.6901  -10.5456 N   0  0  0  0  0  0  0  0  0  0  0  0
   16.1410   -5.0672   -9.0089 C   0  0  0  0  0  0  0  0  0  0  0  0
   17.2188   -5.0571   -8.3922 O   0  0  0  0  0  0  0  0  0  0  0  0
   15.2337   -4.0458   -8.7811 O   0  0  0  0  0  0  0  0  0  0  0  0
  2  3  2  0
  2  1  1  0
  4  2  1  0
  5  4  1  0
  6  5  1  0
  6  7  1  6
  8  9  2  0
  8  6  1  0
 10  8  1  0
 11 10  1  0
 12 13  1  0
 11 12  1  6
 13 14  1  0
 14 15  2  0
 14 18  1  0
 16 11  1  0
 16 17  2  0
 20 19  1  0
 21 20  2  0
 22 20  1  0
 23 22  1  0
 24 25  1  0
 24 23  1  1
 25 16  1  0
 26 24  1  0
 27 26  2  0
 28 26  1  0
M  END
$$$$
