QEQ.pdb
     RDKit          3D

 28 27  0  0  1  0  0  0  0  0999 V2000
   20.3783  -11.6589  -15.4562 N   0  0  0  0  0  0  0  0  0  0  0  0
   19.4982  -12.3248  -16.3703 C   0  0  0  0  0  0  0  0  0  0  0  0
   19.9688  -12.8799  -17.3908 O   0  0  0  0  0  0  0  0  0  0  0  0
   18.0340  -12.3654  -16.1237 C   0  0  0  0  0  0  0  0  0  0  0  0
   17.7401  -11.6224  -14.8519 C   0  0  0  0  0  0  0  0  0  0  0  0
   16.2582  -11.5176  -14.6359 C   0  0  2  0  0  0  0  0  0  0  0  0
   15.4970  -11.5915  -15.8361 N   0  0  0  0  0  0  0  0  0  0  0  0
   15.9074  -10.2555  -13.8830 C   0  0  0  0  0  0  0  0  0  0  0  0
   15.9527   -9.1581  -14.4709 O   0  0  0  0  0  0  0  0  0  0  0  0
   15.5279  -10.2934  -12.5240 N   0  0  0  0  0  0  0  0  0  0  0  0
   15.1801   -9.2435  -11.6465 C   0  0  1  0  0  0  0  0  0  0  0  0
   14.0569   -9.4931  -10.6677 C   0  0  0  0  0  0  0  0  0  0  0  0
   13.6672   -8.3400   -9.8199 C   0  0  0  0  0  0  0  0  0  0  0  0
   12.5721   -8.6793   -8.8587 C   0  0  0  0  0  0  0  0  0  0  0  0
   12.1659   -9.8569   -8.7949 O   0  0  0  0  0  0  0  0  0  0  0  0
   16.2715   -8.5597  -10.9480 C   0  0  0  0  0  0  0  0  0  0  0  0
   16.9661   -9.2143  -10.1440 O   0  0  0  0  0  0  0  0  0  0  0  0
   11.9873   -7.7415   -8.0338 O   0  0  0  0  0  0  0  0  0  0  0  0
   21.7906   -6.1781  -12.2714 N   0  0  0  0  0  0  0  0  0  0  0  0
   20.9965   -5.1029  -11.7847 C   0  0  0  0  0  0  0  0  0  0  0  0
   21.2024   -3.9227  -12.1290 O   0  0  0  0  0  0  0  0  0  0  0  0
   19.9011   -5.4166  -10.8413 C   0  0  0  0  0  0  0  0  0  0  0  0
   18.7594   -6.1546  -11.4525 C   0  0  0  0  0  0  0  0  0  0  0  0
   17.6937   -6.5069  -10.4764 C   0  0  2  0  0  0  0  0  0  0  0  0
   16.5733   -7.1837  -11.1469 N   0  0  0  0  0  0  0  0  0  0  0  0
   17.2093   -5.3499   -9.7043 C   0  0  0  0  0  0  0  0  0  0  0  0
   16.1345   -4.7984   -9.9919 O   0  0  0  0  0  0  0  0  0  0  0  0
   17.9478   -4.8561   -8.6416 O   0  0  0  0  0  0  0  0  0  0  0  0
  2  3  2  0
  2  1  1  0
  4  2  1  0
  5  4  1  0
  6  5  1  0
  6  7  1  6
  8  9  2  0
  8  6  1  0
 10  8  1  0
 11 10  1  0
 12 13  1  0
 11 12  1  1
 13 14  1  0
 14 15  2  0
 14 18  1  0
 16 11  1  0
 16 17  2  0
 20 19  1  0
 21 20  2  0
 22 20  1  0
 23 22  1  0
 24 25  1  0
 24 23  1  6
 25 16  1  0
 26 24  1  0
 27 26  2  0
 28 26  1  0
M  END
$$$$
