QEQ.pdb
     RDKit          3D

 28 27  0  0  1  0  0  0  0  0999 V2000
   26.9443  -22.8201  -15.1083 N   0  0  0  0  0  0  0  0  0  0  0  0
   27.5415  -21.6871  -15.7510 C   0  0  0  0  0  0  0  0  0  0  0  0
   28.5139  -21.8540  -16.5239 O   0  0  0  0  0  0  0  0  0  0  0  0
   27.0224  -20.3159  -15.5124 C   0  0  0  0  0  0  0  0  0  0  0  0
   25.8690  -20.3987  -14.5538 C   0  0  0  0  0  0  0  0  0  0  0  0
   24.5962  -20.7024  -15.2894 C   0  0  2  0  0  0  0  0  0  0  0  0
   24.5157  -20.0922  -16.5726 N   0  0  0  0  0  0  0  0  0  0  0  0
   23.3887  -20.3228  -14.4644 C   0  0  0  0  0  0  0  0  0  0  0  0
   23.3536  -20.6213  -13.2555 O   0  0  0  0  0  0  0  0  0  0  0  0
   22.2966  -19.6350  -15.0358 N   0  0  0  0  0  0  0  0  0  0  0  0
   21.0490  -19.2833  -14.4764 C   0  0  1  0  0  0  0  0  0  0  0  0
   20.3206  -18.1039  -15.0768 C   0  0  0  0  0  0  0  0  0  0  0  0
   19.1311  -17.6274  -14.3296 C   0  0  0  0  0  0  0  0  0  0  0  0
   18.4742  -16.4541  -14.9855 C   0  0  0  0  0  0  0  0  0  0  0  0
   18.6679  -15.3134  -14.5196 O   0  0  0  0  0  0  0  0  0  0  0  0
   20.0867  -20.3632  -14.2431 C   0  0  0  0  0  0  0  0  0  0  0  0
   19.7973  -21.1182  -15.1937 O   0  0  0  0  0  0  0  0  0  0  0  0
   17.6581  -16.5782  -16.0903 O   0  0  0  0  0  0  0  0  0  0  0  0
   19.4211  -23.7209   -9.0765 N   0  0  0  0  0  0  0  0  0  0  0  0
   18.3131  -24.1982   -9.8302 C   0  0  0  0  0  0  0  0  0  0  0  0
   17.6310  -25.1718   -9.4552 O   0  0  0  0  0  0  0  0  0  0  0  0
   17.9793  -23.5056  -11.0939 C   0  0  0  0  0  0  0  0  0  0  0  0
   18.8737  -22.3580  -11.4178 C   0  0  0  0  0  0  0  0  0  0  0  0
   18.5649  -21.7193  -12.7252 C   0  0  2  0  0  0  0  0  0  0  0  0
   19.4693  -20.5882  -12.9812 N   0  0  0  0  0  0  0  0  0  0  0  0
   17.1600  -21.2931  -12.8446 C   0  0  0  0  0  0  0  0  0  0  0  0
   16.8118  -20.1493  -12.5092 O   0  0  0  0  0  0  0  0  0  0  0  0
   16.2012  -22.1646  -13.3340 O   0  0  0  0  0  0  0  0  0  0  0  0
  2  3  2  0
  2  1  1  0
  4  2  1  0
  5  4  1  0
  6  5  1  0
  6  7  1  6
  8  9  2  0
  8  6  1  0
 10  8  1  0
 11 10  1  0
 12 13  1  0
 11 12  1  6
 13 14  1  0
 14 15  2  0
 14 18  1  0
 16 11  1  0
 16 17  2  0
 20 19  1  0
 21 20  2  0
 22 20  1  0
 23 22  1  0
 24 25  1  0
 24 23  1  1
 25 16  1  0
 26 24  1  0
 27 26  2  0
 28 26  1  0
M  END
$$$$
