QEQ.pdb
     RDKit          3D

 28 27  0  0  1  0  0  0  0  0999 V2000
   25.5306  -16.7302  -17.6664 N   0  0  0  0  0  0  0  0  0  0  0  0
   26.9357  -16.5426  -17.8758 C   0  0  0  0  0  0  0  0  0  0  0  0
   27.3452  -16.1030  -18.9758 O   0  0  0  0  0  0  0  0  0  0  0  0
   27.9140  -16.8628  -16.8049 C   0  0  0  0  0  0  0  0  0  0  0  0
   27.1597  -17.2358  -15.5608 C   0  0  0  0  0  0  0  0  0  0  0  0
   27.3407  -18.6942  -15.2548 C   0  0  2  0  0  0  0  0  0  0  0  0
   28.0783  -19.4010  -16.2458 N   0  0  0  0  0  0  0  0  0  0  0  0
   26.0089  -19.3705  -15.0274 C   0  0  0  0  0  0  0  0  0  0  0  0
   25.4096  -19.8843  -15.9911 O   0  0  0  0  0  0  0  0  0  0  0  0
   25.4277  -19.4329  -13.7426 N   0  0  0  0  0  0  0  0  0  0  0  0
   24.2822  -20.1259  -13.2945 C   0  0  1  0  0  0  0  0  0  0  0  0
   24.2594  -20.5822  -11.8546 C   0  0  0  0  0  0  0  0  0  0  0  0
   25.3841  -21.4522  -11.4322 C   0  0  0  0  0  0  0  0  0  0  0  0
   25.3067  -21.8274   -9.9860 C   0  0  0  0  0  0  0  0  0  0  0  0
   24.3896  -21.3536   -9.2858 O   0  0  0  0  0  0  0  0  0  0  0  0
   22.9752  -19.5545  -13.6292 C   0  0  0  0  0  0  0  0  0  0  0  0
   22.7592  -18.3579  -13.3483 O   0  0  0  0  0  0  0  0  0  0  0  0
   26.2106  -22.6802   -9.3878 O   0  0  0  0  0  0  0  0  0  0  0  0
   19.9603  -19.7477  -18.8252 N   0  0  0  0  0  0  0  0  0  0  0  0
   18.9917  -19.0902  -18.0171 C   0  0  0  0  0  0  0  0  0  0  0  0
   17.9880  -18.5382  -18.5087 O   0  0  0  0  0  0  0  0  0  0  0  0
   19.2024  -19.0710  -16.5531 C   0  0  0  0  0  0  0  0  0  0  0  0
   20.4830  -19.6921  -16.1105 C   0  0  0  0  0  0  0  0  0  0  0  0
   20.6460  -19.7200  -14.6323 C   0  0  2  0  0  0  0  0  0  0  0  0
   21.9435  -20.3039  -14.2601 N   0  0  0  0  0  0  0  0  0  0  0  0
   19.5491  -20.4191  -13.9413 C   0  0  0  0  0  0  0  0  0  0  0  0
   19.6969  -21.5798  -13.5254 O   0  0  0  0  0  0  0  0  0  0  0  0
   18.3303  -19.7912  -13.7442 O   0  0  0  0  0  0  0  0  0  0  0  0
  2  3  2  0
  2  1  1  0
  4  2  1  0
  5  4  1  0
  6  5  1  0
  6  7  1  6
  8  9  2  0
  8  6  1  0
 10  8  1  0
 11 10  1  0
 12 13  1  0
 11 12  1  1
 13 14  1  0
 14 15  2  0
 14 18  1  0
 16 11  1  0
 16 17  2  0
 20 19  1  0
 21 20  2  0
 22 20  1  0
 23 22  1  0
 24 25  1  0
 24 23  1  6
 25 16  1  0
 26 24  1  0
 27 26  2  0
 28 26  1  0
M  END
$$$$
