FMW.pdb
     RDKit          3D

 34 36  0  0  1  0  0  0  0  0999 V2000
    6.9727  -18.1986   18.2044 N   0  0  0  0  0  0  0  0  0  0  0  0
    7.4542  -17.1006   19.0058 C   0  0  1  0  0  0  0  0  0  0  0  0
    6.7829  -15.8591   18.4223 C   0  0  0  0  0  0  0  0  0  0  0  0
    7.2663  -14.7038   19.2231 C   0  0  0  0  0  0  0  0  0  0  0  0
    6.6241  -14.3389   20.4111 C   0  0  0  0  0  0  0  0  0  0  0  0
    7.0537  -13.2709   21.1836 C   0  0  0  0  0  0  0  0  0  0  0  0
    8.1474  -12.5325   20.7842 C   0  0  0  0  0  0  0  0  0  0  0  0
    8.8036  -12.8745   19.6082 C   0  0  0  0  0  0  0  0  0  0  0  0
    8.3540  -13.9398   18.8622 C   0  0  0  0  0  0  0  0  0  0  0  0
    7.1490  -17.2393   20.4443 C   0  0  0  0  0  0  0  0  0  0  0  0
    6.0151  -17.0129   20.8578 O   0  0  0  0  0  0  0  0  0  0  0  0
    7.6769  -21.1508   27.0791 C   0  0  0  0  0  0  0  0  0  0  0  0
    8.0174  -21.0194   25.3093 S   0  0  0  0  0  0  0  0  0  0  0  0
    7.8500  -19.2982   24.7314 C   0  0  0  0  0  0  0  0  0  0  0  0
    8.0541  -19.2090   23.2329 C   0  0  0  0  0  0  0  0  0  0  0  0
    8.0223  -17.7849   22.7421 C   0  0  2  0  0  0  0  0  0  0  0  0
    8.1478  -17.6348   21.3339 N   0  0  0  0  0  0  0  0  0  0  0  0
    9.1103  -17.0756   23.4451 C   0  0  0  0  0  0  0  0  0  0  0  0
   10.2920  -17.2357   23.0324 O   0  0  0  0  0  0  0  0  0  0  0  0
    8.8702  -16.2343   24.5652 N   0  0  0  0  0  0  0  0  0  0  0  0
   10.0077  -15.7211   25.3458 C   0  0  1  0  0  0  0  0  0  0  0  0
    9.6265  -14.4647   26.0262 C   0  0  0  0  0  0  0  0  0  0  0  0
    8.1890  -14.1931   25.9221 C   0  0  0  0  0  0  0  0  0  0  0  0
    7.1536  -15.0708   25.8271 C   0  0  0  0  0  0  0  0  0  0  0  0
    5.9944  -14.3719   25.6978 N   0  0  0  0  0  0  0  0  0  0  0  0
    6.2697  -13.0537   25.7110 C   0  0  0  0  0  0  0  0  0  0  0  0
    5.4491  -11.9236   25.6288 C   0  0  0  0  0  0  0  0  0  0  0  0
    5.9662  -10.6610   25.6895 C   0  0  0  0  0  0  0  0  0  0  0  0
    7.3542  -10.5363   25.8338 C   0  0  0  0  0  0  0  0  0  0  0  0
    8.1577  -11.6480   25.9103 C   0  0  0  0  0  0  0  0  0  0  0  0
    7.6235  -12.9171   25.8495 C   0  0  0  0  0  0  0  0  0  0  0  0
   10.4936  -16.8365   26.1450 C   0  0  0  0  0  0  0  0  0  0  0  0
   11.5423  -16.7448   26.8122 O   0  0  0  0  0  0  0  0  0  0  0  0
    9.8297  -18.0793   26.2243 O   0  0  0  0  0  0  0  0  0  0  0  0
  2  1  1  6
  3  2  1  0
  4  3  1  0
  4  5  2  0
  6  5  1  0
  7  6  2  0
  8  9  2  0
  8  7  1  0
  9  4  1  0
 10 11  2  0
 10  2  1  0
 13 12  1  0
 14 13  1  0
 15 14  1  0
 16 15  1  6
 16 17  1  0
 17 10  1  0
 18 16  1  0
 19 18  2  0
 20 18  1  0
 21 20  1  0
 22 23  1  0
 21 22  1  1
 23 31  1  0
 24 23  2  0
 24 25  1  0
 25 26  1  0
 26 27  1  0
 27 28  2  0
 29 28  1  0
 30 29  2  0
 31 26  2  0
 31 30  1  0
 32 34  1  0
 32 21  1  0
 33 32  2  0
M  END
$$$$
