FMW.pdb
     RDKit          3D

 34 36  0  0  1  0  0  0  0  0999 V2000
    7.8587  -17.0014   21.5492 N   0  0  0  0  0  0  0  0  0  0  0  0
    9.2519  -16.7009   21.7696 C   0  0  1  0  0  0  0  0  0  0  0  0
    9.7030  -15.9641   20.5103 C   0  0  0  0  0  0  0  0  0  0  0  0
    8.8249  -14.7712   20.3836 C   0  0  0  0  0  0  0  0  0  0  0  0
    7.4334  -14.9089   20.3454 C   0  0  0  0  0  0  0  0  0  0  0  0
    6.5872  -13.8164   20.2340 C   0  0  0  0  0  0  0  0  0  0  0  0
    7.1157  -12.5453   20.1569 C   0  0  0  0  0  0  0  0  0  0  0  0
    8.4948  -12.3811   20.1931 C   0  0  0  0  0  0  0  0  0  0  0  0
    9.3097  -13.4844   20.3042 C   0  0  0  0  0  0  0  0  0  0  0  0
    9.4976  -15.8846   22.9759 C   0  0  0  0  0  0  0  0  0  0  0  0
   10.0462  -14.7905   22.8776 O   0  0  0  0  0  0  0  0  0  0  0  0
    6.6117  -11.7111   26.3592 C   0  0  0  0  0  0  0  0  0  0  0  0
    6.1659  -13.4609   26.2870 S   0  0  0  0  0  0  0  0  0  0  0  0
    7.2571  -14.3730   25.1461 C   0  0  0  0  0  0  0  0  0  0  0  0
    8.6840  -14.3831   25.6551 C   0  0  0  0  0  0  0  0  0  0  0  0
    9.3356  -15.7307   25.4839 C   0  0  2  0  0  0  0  0  0  0  0  0
    9.0999  -16.3536   24.2278 N   0  0  0  0  0  0  0  0  0  0  0  0
    8.8444  -16.5767   26.5903 C   0  0  0  0  0  0  0  0  0  0  0  0
    8.0569  -16.0621   27.4313 O   0  0  0  0  0  0  0  0  0  0  0  0
    9.2343  -17.9353   26.7395 N   0  0  0  0  0  0  0  0  0  0  0  0
   10.6258  -18.2571   27.0958 C   0  0  1  0  0  0  0  0  0  0  0  0
   11.5401  -17.7873   26.0329 C   0  0  0  0  0  0  0  0  0  0  0  0
   11.8017  -18.8244   25.0294 C   0  0  0  0  0  0  0  0  0  0  0  0
   11.5583  -20.1617   25.0926 C   0  0  0  0  0  0  0  0  0  0  0  0
   12.0115  -20.7461   23.9517 N   0  0  0  0  0  0  0  0  0  0  0  0
   12.5420  -19.8012   23.1521 C   0  0  0  0  0  0  0  0  0  0  0  0
   13.1208  -19.8661   21.8801 C   0  0  0  0  0  0  0  0  0  0  0  0
   13.5759  -18.7456   21.2457 C   0  0  0  0  0  0  0  0  0  0  0  0
   13.4458  -17.5233   21.9181 C   0  0  0  0  0  0  0  0  0  0  0  0
   12.8806  -17.4634   23.1688 C   0  0  0  0  0  0  0  0  0  0  0  0
   12.4234  -18.6013   23.7978 C   0  0  0  0  0  0  0  0  0  0  0  0
   10.8219  -17.7794   28.4568 C   0  0  0  0  0  0  0  0  0  0  0  0
   11.2587  -18.5321   29.3491 O   0  0  0  0  0  0  0  0  0  0  0  0
   10.5393  -16.4574   28.8616 O   0  0  0  0  0  0  0  0  0  0  0  0
  2  1  1  6
  3  2  1  0
  4  3  1  0
  4  5  2  0
  6  5  1  0
  7  6  2  0
  8  9  2  0
  8  7  1  0
  9  4  1  0
 10 11  2  0
 10  2  1  0
 13 12  1  0
 14 13  1  0
 15 14  1  0
 16 15  1  6
 16 17  1  0
 17 10  1  0
 18 16  1  0
 19 18  2  0
 20 18  1  0
 21 20  1  0
 22 23  1  0
 21 22  1  6
 23 31  1  0
 24 23  2  0
 24 25  1  0
 25 26  1  0
 26 27  1  0
 27 28  2  0
 29 28  1  0
 30 29  2  0
 31 26  2  0
 31 30  1  0
 32 34  1  0
 32 21  1  0
 33 32  2  0
M  END
$$$$
