FMW.pdb
     RDKit          3D

 34 36  0  0  1  0  0  0  0  0999 V2000
    7.9370  -19.5362   21.4511 N   0  0  0  0  0  0  0  0  0  0  0  0
    9.0214  -19.2282   20.5517 C   0  0  1  0  0  0  0  0  0  0  0  0
    8.4159  -19.3223   19.1529 C   0  0  0  0  0  0  0  0  0  0  0  0
    8.6680  -20.7081   18.6777 C   0  0  0  0  0  0  0  0  0  0  0  0
    9.9140  -21.3141   18.8703 C   0  0  0  0  0  0  0  0  0  0  0  0
   10.1789  -22.6067   18.4446 C   0  0  0  0  0  0  0  0  0  0  0  0
    9.1952  -23.3338   17.8086 C   0  0  0  0  0  0  0  0  0  0  0  0
    7.9485  -22.7552   17.6054 C   0  0  0  0  0  0  0  0  0  0  0  0
    7.7149  -21.4703   18.0390 C   0  0  0  0  0  0  0  0  0  0  0  0
    9.6196  -17.8970   20.7800 C   0  0  0  0  0  0  0  0  0  0  0  0
   10.5945  -17.5396   20.1246 O   0  0  0  0  0  0  0  0  0  0  0  0
    7.3797  -11.8651   20.1362 C   0  0  0  0  0  0  0  0  0  0  0  0
    6.5552  -13.4628   20.3178 S   0  0  0  0  0  0  0  0  0  0  0  0
    7.7653  -14.8070   20.5491 C   0  0  0  0  0  0  0  0  0  0  0  0
    8.5161  -14.6397   21.8542 C   0  0  0  0  0  0  0  0  0  0  0  0
    9.5266  -15.7363   22.0694 C   0  0  2  0  0  0  0  0  0  0  0  0
    9.0725  -17.0417   21.7363 N   0  0  0  0  0  0  0  0  0  0  0  0
    9.9253  -15.6652   23.4896 C   0  0  0  0  0  0  0  0  0  0  0  0
   10.5779  -14.6571   23.8769 O   0  0  0  0  0  0  0  0  0  0  0  0
    9.6071  -16.6906   24.4210 N   0  0  0  0  0  0  0  0  0  0  0  0
   10.1264  -16.6103   25.7960 C   0  0  1  0  0  0  0  0  0  0  0  0
    9.0049  -16.6142   26.7596 C   0  0  0  0  0  0  0  0  0  0  0  0
    7.8919  -15.7678   26.3170 C   0  0  0  0  0  0  0  0  0  0  0  0
    6.7128  -16.1300   25.7427 C   0  0  0  0  0  0  0  0  0  0  0  0
    6.0029  -15.0081   25.4493 N   0  0  0  0  0  0  0  0  0  0  0  0
    6.7090  -13.9265   25.8301 C   0  0  0  0  0  0  0  0  0  0  0  0
    6.4309  -12.5567   25.7712 C   0  0  0  0  0  0  0  0  0  0  0  0
    7.3103  -11.6291   26.2524 C   0  0  0  0  0  0  0  0  0  0  0  0
    8.5084  -12.0993   26.8060 C   0  0  0  0  0  0  0  0  0  0  0  0
    8.7803  -13.4449   26.8587 C   0  0  0  0  0  0  0  0  0  0  0  0
    7.8838  -14.3713   26.3713 C   0  0  0  0  0  0  0  0  0  0  0  0
   11.1549  -17.6345   25.9067 C   0  0  0  0  0  0  0  0  0  0  0  0
   11.8543  -17.7395   26.9330 O   0  0  0  0  0  0  0  0  0  0  0  0
   11.4329  -18.5663   24.8840 O   0  0  0  0  0  0  0  0  0  0  0  0
  2  1  1  1
  3  2  1  0
  4  3  1  0
  4  5  2  0
  6  5  1  0
  7  6  2  0
  8  9  2  0
  8  7  1  0
  9  4  1  0
 10 11  2  0
 10  2  1  0
 13 12  1  0
 14 13  1  0
 15 14  1  0
 16 15  1  1
 16 17  1  0
 17 10  1  0
 18 16  1  0
 19 18  2  0
 20 18  1  0
 21 20  1  0
 22 23  1  0
 21 22  1  1
 23 31  1  0
 24 23  2  0
 24 25  1  0
 25 26  1  0
 26 27  1  0
 27 28  2  0
 29 28  1  0
 30 29  2  0
 31 26  2  0
 31 30  1  0
 32 34  1  0
 32 21  1  0
 33 32  2  0
M  END
$$$$
