FMW.pdb
     RDKit          3D

 34 36  0  0  1  0  0  0  0  0999 V2000
    9.9768  -18.2118   18.6282 N   0  0  0  0  0  0  0  0  0  0  0  0
    9.1432  -17.2603   19.3207 C   0  0  1  0  0  0  0  0  0  0  0  0
    8.1904  -16.7193   18.2569 C   0  0  0  0  0  0  0  0  0  0  0  0
    8.0900  -15.2542   18.4879 C   0  0  0  0  0  0  0  0  0  0  0  0
    9.0771  -14.3860   18.0097 C   0  0  0  0  0  0  0  0  0  0  0  0
    9.0098  -13.0149   18.2030 C   0  0  0  0  0  0  0  0  0  0  0  0
    7.9432  -12.4709   18.8867 C   0  0  0  0  0  0  0  0  0  0  0  0
    6.9489  -13.3114   19.3717 C   0  0  0  0  0  0  0  0  0  0  0  0
    7.0429  -14.6685   19.1643 C   0  0  0  0  0  0  0  0  0  0  0  0
    8.3947  -17.8432   20.4530 C   0  0  0  0  0  0  0  0  0  0  0  0
    7.5866  -18.7467   20.2568 O   0  0  0  0  0  0  0  0  0  0  0  0
    7.5537  -11.3573   24.4685 C   0  0  0  0  0  0  0  0  0  0  0  0
    7.1138  -13.0637   24.0684 S   0  0  0  0  0  0  0  0  0  0  0  0
    8.2076  -13.7413   22.7765 C   0  0  0  0  0  0  0  0  0  0  0  0
    7.7737  -15.1370   22.3782 C   0  0  0  0  0  0  0  0  0  0  0  0
    8.9499  -16.0436   22.1243 C   0  0  2  0  0  0  0  0  0  0  0  0
    8.6107  -17.3719   21.7478 N   0  0  0  0  0  0  0  0  0  0  0  0
    9.7573  -16.0379   23.3608 C   0  0  0  0  0  0  0  0  0  0  0  0
   10.4818  -15.0319   23.5963 O   0  0  0  0  0  0  0  0  0  0  0  0
    9.7497  -17.1228   24.2790 N   0  0  0  0  0  0  0  0  0  0  0  0
   10.6306  -17.0837   25.4576 C   0  0  1  0  0  0  0  0  0  0  0  0
   10.3384  -15.8804   26.2658 C   0  0  0  0  0  0  0  0  0  0  0  0
    8.8979  -15.6654   26.4377 C   0  0  0  0  0  0  0  0  0  0  0  0
    7.8620  -16.4850   26.1109 C   0  0  0  0  0  0  0  0  0  0  0  0
    6.6930  -15.8544   26.4016 N   0  0  0  0  0  0  0  0  0  0  0  0
    6.9626  -14.6388   26.9145 C   0  0  0  0  0  0  0  0  0  0  0  0
    6.1337  -13.6145   27.3846 C   0  0  0  0  0  0  0  0  0  0  0  0
    6.6493  -12.4561   27.8920 C   0  0  0  0  0  0  0  0  0  0  0  0
    8.0441  -12.3269   27.9217 C   0  0  0  0  0  0  0  0  0  0  0  0
    8.8554  -13.3329   27.4556 C   0  0  0  0  0  0  0  0  0  0  0  0
    8.3227  -14.4982   26.9475 C   0  0  0  0  0  0  0  0  0  0  0  0
   10.5360  -18.3942   26.0843 C   0  0  0  0  0  0  0  0  0  0  0  0
   11.2353  -18.6896   27.0728 O   0  0  0  0  0  0  0  0  0  0  0  0
    9.6651  -19.4080   25.6313 O   0  0  0  0  0  0  0  0  0  0  0  0
  2  1  1  6
  3  2  1  0
  4  3  1  0
  4  5  2  0
  6  5  1  0
  7  6  2  0
  8  9  2  0
  8  7  1  0
  9  4  1  0
 10 11  2  0
 10  2  1  0
 13 12  1  0
 14 13  1  0
 15 14  1  0
 16 15  1  1
 16 17  1  0
 17 10  1  0
 18 16  1  0
 19 18  2  0
 20 18  1  0
 21 20  1  0
 22 23  1  0
 21 22  1  1
 23 31  1  0
 24 23  2  0
 24 25  1  0
 25 26  1  0
 26 27  1  0
 27 28  2  0
 29 28  1  0
 30 29  2  0
 31 26  2  0
 31 30  1  0
 32 34  1  0
 32 21  1  0
 33 32  2  0
M  END
$$$$
