FMW.pdb
     RDKit          3D

 34 36  0  0  1  0  0  0  0  0999 V2000
    6.2255  -20.0913   19.9240 N   0  0  0  0  0  0  0  0  0  0  0  0
    6.3265  -19.2286   21.0752 C   0  0  1  0  0  0  0  0  0  0  0  0
    6.5579  -20.1685   22.2564 C   0  0  0  0  0  0  0  0  0  0  0  0
    6.7307  -19.3047   23.4539 C   0  0  0  0  0  0  0  0  0  0  0  0
    5.6365  -18.6443   24.0226 C   0  0  0  0  0  0  0  0  0  0  0  0
    5.7633  -17.8370   25.1425 C   0  0  0  0  0  0  0  0  0  0  0  0
    6.9997  -17.6670   25.7283 C   0  0  0  0  0  0  0  0  0  0  0  0
    8.1028  -18.3123   25.1832 C   0  0  0  0  0  0  0  0  0  0  0  0
    7.9462  -19.1075   24.0710 C   0  0  0  0  0  0  0  0  0  0  0  0
    7.4110  -18.2308   20.9737 C   0  0  0  0  0  0  0  0  0  0  0  0
    8.4930  -18.5451   20.4857 O   0  0  0  0  0  0  0  0  0  0  0  0
    7.0130  -12.4350   17.9097 C   0  0  0  0  0  0  0  0  0  0  0  0
    7.6160  -12.0650   19.5725 S   0  0  0  0  0  0  0  0  0  0  0  0
    8.4316  -13.5161   20.3165 C   0  0  0  0  0  0  0  0  0  0  0  0
    7.4225  -14.6017   20.6299 C   0  0  0  0  0  0  0  0  0  0  0  0
    8.0706  -15.8158   21.2429 C   0  0  2  0  0  0  0  0  0  0  0  0
    7.2041  -16.9279   21.4263 N   0  0  0  0  0  0  0  0  0  0  0  0
    8.6439  -15.3784   22.5317 C   0  0  0  0  0  0  0  0  0  0  0  0
    7.8699  -14.8663   23.3866 O   0  0  0  0  0  0  0  0  0  0  0  0
   10.0273  -15.5074   22.8314 N   0  0  0  0  0  0  0  0  0  0  0  0
   10.4666  -15.5418   24.2359 C   0  0  1  0  0  0  0  0  0  0  0  0
    9.4466  -16.2168   25.0669 C   0  0  0  0  0  0  0  0  0  0  0  0
    8.9377  -15.3479   26.1331 C   0  0  0  0  0  0  0  0  0  0  0  0
    9.1292  -15.4353   27.4774 C   0  0  0  0  0  0  0  0  0  0  0  0
    8.4247  -14.4455   28.0879 N   0  0  0  0  0  0  0  0  0  0  0  0
    7.7831  -13.7189   27.1530 C   0  0  0  0  0  0  0  0  0  0  0  0
    6.9518  -12.5974   27.2444 C   0  0  0  0  0  0  0  0  0  0  0  0
    6.4258  -12.0070   26.1308 C   0  0  0  0  0  0  0  0  0  0  0  0
    6.7461  -12.5688   24.8879 C   0  0  0  0  0  0  0  0  0  0  0  0
    7.5595  -13.6726   24.8018 C   0  0  0  0  0  0  0  0  0  0  0  0
    8.0856  -14.2583   25.9330 C   0  0  0  0  0  0  0  0  0  0  0  0
   11.8264  -16.0612   24.2280 C   0  0  0  0  0  0  0  0  0  0  0  0
   12.1865  -16.9164   23.3960 O   0  0  0  0  0  0  0  0  0  0  0  0
   12.8192  -15.6458   25.1409 O   0  0  0  0  0  0  0  0  0  0  0  0
  2  1  1  6
  3  2  1  0
  4  3  1  0
  4  5  2  0
  6  5  1  0
  7  6  2  0
  8  9  2  0
  8  7  1  0
  9  4  1  0
 10 11  2  0
 10  2  1  0
 13 12  1  0
 14 13  1  0
 15 14  1  0
 16 15  1  1
 16 17  1  0
 17 10  1  0
 18 16  1  0
 19 18  2  0
 20 18  1  0
 21 20  1  0
 22 23  1  0
 21 22  1  1
 23 31  1  0
 24 23  2  0
 24 25  1  0
 25 26  1  0
 26 27  1  0
 27 28  2  0
 29 28  1  0
 30 29  2  0
 31 26  2  0
 31 30  1  0
 32 34  1  0
 32 21  1  0
 33 32  2  0
M  END
$$$$
