FMW.pdb
     RDKit          3D

 34 36  0  0  1  0  0  0  0  0999 V2000
    8.4415  -18.0153   17.8266 N   0  0  0  0  0  0  0  0  0  0  0  0
    8.5378  -16.8812   18.7122 C   0  0  1  0  0  0  0  0  0  0  0  0
    7.6897  -15.7930   18.0572 C   0  0  0  0  0  0  0  0  0  0  0  0
    7.8599  -14.5709   18.8863 C   0  0  0  0  0  0  0  0  0  0  0  0
    8.7881  -13.5877   18.5279 C   0  0  0  0  0  0  0  0  0  0  0  0
    8.9663  -12.4342   19.2760 C   0  0  0  0  0  0  0  0  0  0  0  0
    8.2139  -12.2321   20.4135 C   0  0  0  0  0  0  0  0  0  0  0  0
    7.2845  -13.1933   20.7913 C   0  0  0  0  0  0  0  0  0  0  0  0
    7.1297  -14.3282   20.0287 C   0  0  0  0  0  0  0  0  0  0  0  0
    8.0698  -17.1610   20.0850 C   0  0  0  0  0  0  0  0  0  0  0  0
    6.8693  -17.1411   20.3422 O   0  0  0  0  0  0  0  0  0  0  0  0
    5.4193  -21.1682   23.3304 C   0  0  0  0  0  0  0  0  0  0  0  0
    6.9838  -21.1017   24.2324 S   0  0  0  0  0  0  0  0  0  0  0  0
    7.7724  -19.4662   24.0654 C   0  0  0  0  0  0  0  0  0  0  0  0
    7.9383  -19.0926   22.6066 C   0  0  0  0  0  0  0  0  0  0  0  0
    8.7001  -17.8039   22.4364 C   0  0  2  0  0  0  0  0  0  0  0  0
    8.9917  -17.4551   21.0894 N   0  0  0  0  0  0  0  0  0  0  0  0
    9.9418  -17.9448   23.2234 C   0  0  0  0  0  0  0  0  0  0  0  0
   10.9947  -18.2916   22.6206 O   0  0  0  0  0  0  0  0  0  0  0  0
    9.9843  -17.7124   24.6249 N   0  0  0  0  0  0  0  0  0  0  0  0
   10.0024  -16.3307   25.1323 C   0  0  1  0  0  0  0  0  0  0  0  0
    8.9548  -15.5327   24.4599 C   0  0  0  0  0  0  0  0  0  0  0  0
    7.8415  -15.2112   25.3587 C   0  0  0  0  0  0  0  0  0  0  0  0
    6.8395  -16.0154   25.8070 C   0  0  0  0  0  0  0  0  0  0  0  0
    5.9973  -15.2798   26.5805 N   0  0  0  0  0  0  0  0  0  0  0  0
    6.4456  -14.0113   26.6387 C   0  0  0  0  0  0  0  0  0  0  0  0
    5.9661  -12.8769   27.3023 C   0  0  0  0  0  0  0  0  0  0  0  0
    6.6188  -11.6793   27.2300 C   0  0  0  0  0  0  0  0  0  0  0  0
    7.7887  -11.6253   26.4610 C   0  0  0  0  0  0  0  0  0  0  0  0
    8.2548  -12.7401   25.8074 C   0  0  0  0  0  0  0  0  0  0  0  0
    7.5880  -13.9435   25.8896 C   0  0  0  0  0  0  0  0  0  0  0  0
    9.9923  -16.4269   26.5848 C   0  0  0  0  0  0  0  0  0  0  0  0
   10.5712  -15.5797   27.2924 O   0  0  0  0  0  0  0  0  0  0  0  0
    9.3409  -17.4628   27.2877 O   0  0  0  0  0  0  0  0  0  0  0  0
  2  1  1  6
  3  2  1  0
  4  3  1  0
  4  5  2  0
  6  5  1  0
  7  6  2  0
  8  9  2  0
  8  7  1  0
  9  4  1  0
 10 11  2  0
 10  2  1  0
 13 12  1  0
 14 13  1  0
 15 14  1  0
 16 15  1  6
 16 17  1  0
 17 10  1  0
 18 16  1  0
 19 18  2  0
 20 18  1  0
 21 20  1  0
 22 23  1  0
 21 22  1  6
 23 31  1  0
 24 23  2  0
 24 25  1  0
 25 26  1  0
 26 27  1  0
 27 28  2  0
 29 28  1  0
 30 29  2  0
 31 26  2  0
 31 30  1  0
 32 34  1  0
 32 21  1  0
 33 32  2  0
M  END
$$$$
