FMW.pdb
     RDKit          3D

 34 36  0  0  1  0  0  0  0  0999 V2000
    7.9098  -18.9820   21.1320 N   0  0  0  0  0  0  0  0  0  0  0  0
    6.9352  -18.0404   20.6387 C   0  0  1  0  0  0  0  0  0  0  0  0
    5.5846  -18.7232   20.8432 C   0  0  0  0  0  0  0  0  0  0  0  0
    5.6188  -19.9726   20.0384 C   0  0  0  0  0  0  0  0  0  0  0  0
    5.6146  -21.2248   20.6620 C   0  0  0  0  0  0  0  0  0  0  0  0
    5.6397  -22.4081   19.9402 C   0  0  0  0  0  0  0  0  0  0  0  0
    5.6702  -22.3697   18.5623 C   0  0  0  0  0  0  0  0  0  0  0  0
    5.6744  -21.1387   17.9183 C   0  0  0  0  0  0  0  0  0  0  0  0
    5.6491  -19.9808   18.6614 C   0  0  0  0  0  0  0  0  0  0  0  0
    6.9755  -16.7330   21.3249 C   0  0  0  0  0  0  0  0  0  0  0  0
    6.1747  -15.8532   21.0210 O   0  0  0  0  0  0  0  0  0  0  0  0
    6.2058  -11.3557   26.3509 C   0  0  0  0  0  0  0  0  0  0  0  0
    5.8411  -12.9017   25.4893 S   0  0  0  0  0  0  0  0  0  0  0  0
    7.2855  -13.4855   24.5420 C   0  0  0  0  0  0  0  0  0  0  0  0
    6.9667  -14.7721   23.8085 C   0  0  0  0  0  0  0  0  0  0  0  0
    8.1436  -15.2762   23.0142 C   0  0  2  0  0  0  0  0  0  0  0  0
    7.9197  -16.4991   22.3245 N   0  0  0  0  0  0  0  0  0  0  0  0
    9.2654  -15.4073   23.9656 C   0  0  0  0  0  0  0  0  0  0  0  0
    9.3660  -14.5557   24.8913 O   0  0  0  0  0  0  0  0  0  0  0  0
   10.2293  -16.4472   23.8661 N   0  0  0  0  0  0  0  0  0  0  0  0
   11.4484  -16.3893   24.6890 C   0  0  1  0  0  0  0  0  0  0  0  0
   11.2621  -17.1828   25.9228 C   0  0  0  0  0  0  0  0  0  0  0  0
   10.2490  -16.5996   26.8083 C   0  0  0  0  0  0  0  0  0  0  0  0
    8.9926  -17.0427   27.0855 C   0  0  0  0  0  0  0  0  0  0  0  0
    8.3878  -16.1572   27.9214 N   0  0  0  0  0  0  0  0  0  0  0  0
    9.2401  -15.1494   28.1889 C   0  0  0  0  0  0  0  0  0  0  0  0
    9.1225  -14.0102   28.9923 C   0  0  0  0  0  0  0  0  0  0  0  0
   10.1533  -13.1248   29.1295 C   0  0  0  0  0  0  0  0  0  0  0  0
   11.3371  -13.3965   28.4310 C   0  0  0  0  0  0  0  0  0  0  0  0
   11.4481  -14.5140   27.6397 C   0  0  0  0  0  0  0  0  0  0  0  0
   10.4010  -15.4010   27.5108 C   0  0  0  0  0  0  0  0  0  0  0  0
   12.5572  -16.7128   23.8031 C   0  0  0  0  0  0  0  0  0  0  0  0
   12.3593  -17.0918   22.6323 O   0  0  0  0  0  0  0  0  0  0  0  0
   13.9107  -16.6241   24.1925 O   0  0  0  0  0  0  0  0  0  0  0  0
  2  1  1  1
  3  2  1  0
  4  3  1  0
  4  5  2  0
  6  5  1  0
  7  6  2  0
  8  9  2  0
  8  7  1  0
  9  4  1  0
 10 11  2  0
 10  2  1  0
 13 12  1  0
 14 13  1  0
 15 14  1  0
 16 15  1  1
 16 17  1  0
 17 10  1  0
 18 16  1  0
 19 18  2  0
 20 18  1  0
 21 20  1  0
 22 23  1  0
 21 22  1  1
 23 31  1  0
 24 23  2  0
 24 25  1  0
 25 26  1  0
 26 27  1  0
 27 28  2  0
 29 28  1  0
 30 29  2  0
 31 26  2  0
 31 30  1  0
 32 34  1  0
 32 21  1  0
 33 32  2  0
M  END
$$$$
