FMW.pdb
     RDKit          3D

 34 36  0  0  1  0  0  0  0  0999 V2000
    6.1707  -18.1131   20.1324 N   0  0  0  0  0  0  0  0  0  0  0  0
    7.0369  -17.0397   20.5537 C   0  0  1  0  0  0  0  0  0  0  0  0
    6.1104  -16.0136   21.2025 C   0  0  0  0  0  0  0  0  0  0  0  0
    6.9283  -14.7933   21.4307 C   0  0  0  0  0  0  0  0  0  0  0  0
    7.3620  -14.0121   20.3544 C   0  0  0  0  0  0  0  0  0  0  0  0
    8.1205  -12.8656   20.5340 C   0  0  0  0  0  0  0  0  0  0  0  0
    8.4687  -12.4668   21.8070 C   0  0  0  0  0  0  0  0  0  0  0  0
    8.0501  -13.2250   22.8934 C   0  0  0  0  0  0  0  0  0  0  0  0
    7.2982  -14.3583   22.6841 C   0  0  0  0  0  0  0  0  0  0  0  0
    8.0935  -17.4663   21.4937 C   0  0  0  0  0  0  0  0  0  0  0  0
    7.7948  -18.0492   22.5324 O   0  0  0  0  0  0  0  0  0  0  0  0
   15.9857  -18.3658   22.3280 C   0  0  0  0  0  0  0  0  0  0  0  0
   14.6199  -17.7919   21.2932 S   0  0  0  0  0  0  0  0  0  0  0  0
   13.0202  -17.9822   22.1472 C   0  0  0  0  0  0  0  0  0  0  0  0
   11.8901  -17.4203   21.3093 C   0  0  0  0  0  0  0  0  0  0  0  0
   10.5582  -17.5410   22.0031 C   0  0  2  0  0  0  0  0  0  0  0  0
    9.4329  -17.2131   21.1985 N   0  0  0  0  0  0  0  0  0  0  0  0
   10.6255  -16.6687   23.1929 C   0  0  0  0  0  0  0  0  0  0  0  0
   10.9771  -15.4674   23.0335 O   0  0  0  0  0  0  0  0  0  0  0  0
   10.3178  -17.1385   24.4986 N   0  0  0  0  0  0  0  0  0  0  0  0
   10.5923  -16.2808   25.6630 C   0  0  1  0  0  0  0  0  0  0  0  0
   10.1074  -14.9082   25.4038 C   0  0  0  0  0  0  0  0  0  0  0  0
    8.6480  -14.8077   25.5086 C   0  0  0  0  0  0  0  0  0  0  0  0
    7.7140  -15.7967   25.4732 C   0  0  0  0  0  0  0  0  0  0  0  0
    6.4773  -15.2375   25.5537 N   0  0  0  0  0  0  0  0  0  0  0  0
    6.6025  -13.8997   25.6433 C   0  0  0  0  0  0  0  0  0  0  0  0
    5.6572  -12.8753   25.7633 C   0  0  0  0  0  0  0  0  0  0  0  0
    6.0332  -11.5662   25.8642 C   0  0  0  0  0  0  0  0  0  0  0  0
    7.4051  -11.2831   25.8391 C   0  0  0  0  0  0  0  0  0  0  0  0
    8.3308  -12.2909   25.7171 C   0  0  0  0  0  0  0  0  0  0  0  0
    7.9387  -13.6085   25.6179 C   0  0  0  0  0  0  0  0  0  0  0  0
   10.0923  -16.9974   26.8273 C   0  0  0  0  0  0  0  0  0  0  0  0
    9.3478  -17.9894   26.7049 O   0  0  0  0  0  0  0  0  0  0  0  0
   10.4051  -16.6324   28.1542 O   0  0  0  0  0  0  0  0  0  0  0  0
  2  1  1  1
  3  2  1  0
  4  3  1  0
  4  5  2  0
  6  5  1  0
  7  6  2  0
  8  9  2  0
  8  7  1  0
  9  4  1  0
 10 11  2  0
 10  2  1  0
 13 12  1  0
 14 13  1  0
 15 14  1  0
 16 15  1  6
 16 17  1  0
 17 10  1  0
 18 16  1  0
 19 18  2  0
 20 18  1  0
 21 20  1  0
 22 23  1  0
 21 22  1  6
 23 31  1  0
 24 23  2  0
 24 25  1  0
 25 26  1  0
 26 27  1  0
 27 28  2  0
 29 28  1  0
 30 29  2  0
 31 26  2  0
 31 30  1  0
 32 34  1  0
 32 21  1  0
 33 32  2  0
M  END
$$$$
