FMW.pdb
     RDKit          3D

 34 36  0  0  1  0  0  0  0  0999 V2000
    9.0588  -19.7349   19.4740 N   0  0  0  0  0  0  0  0  0  0  0  0
    8.6649  -19.1289   20.7220 C   0  0  1  0  0  0  0  0  0  0  0  0
    8.9133  -20.2018   21.7800 C   0  0  0  0  0  0  0  0  0  0  0  0
    7.9170  -21.2767   21.5313 C   0  0  0  0  0  0  0  0  0  0  0  0
    6.5467  -21.0228   21.6519 C   0  0  0  0  0  0  0  0  0  0  0  0
    5.5923  -22.0015   21.4208 C   0  0  0  0  0  0  0  0  0  0  0  0
    5.9874  -23.2721   21.0598 C   0  0  0  0  0  0  0  0  0  0  0  0
    7.3427  -23.5503   20.9326 C   0  0  0  0  0  0  0  0  0  0  0  0
    8.2669  -22.5585   21.1684 C   0  0  0  0  0  0  0  0  0  0  0  0
    9.4072  -17.8919   21.0395 C   0  0  0  0  0  0  0  0  0  0  0  0
   10.6040  -17.8078   20.7779 O   0  0  0  0  0  0  0  0  0  0  0  0
    7.1968  -12.2190   18.2367 C   0  0  0  0  0  0  0  0  0  0  0  0
    7.6923  -12.4411   19.9603 S   0  0  0  0  0  0  0  0  0  0  0  0
    7.9065  -14.2065   20.3627 C   0  0  0  0  0  0  0  0  0  0  0  0
    8.3615  -14.3826   21.7969 C   0  0  0  0  0  0  0  0  0  0  0  0
    9.3046  -15.5473   21.9516 C   0  0  2  0  0  0  0  0  0  0  0  0
    8.7469  -16.8151   21.6309 N   0  0  0  0  0  0  0  0  0  0  0  0
    9.7775  -15.5200   23.3504 C   0  0  0  0  0  0  0  0  0  0  0  0
   10.3907  -14.4935   23.7536 O   0  0  0  0  0  0  0  0  0  0  0  0
    9.5725  -16.6063   24.2437 N   0  0  0  0  0  0  0  0  0  0  0  0
   10.0900  -16.5238   25.6192 C   0  0  1  0  0  0  0  0  0  0  0  0
    9.0231  -16.8739   26.5813 C   0  0  0  0  0  0  0  0  0  0  0  0
    7.7974  -16.1014   26.3539 C   0  0  0  0  0  0  0  0  0  0  0  0
    6.6057  -16.5122   25.8412 C   0  0  0  0  0  0  0  0  0  0  0  0
    5.7684  -15.4438   25.7626 N   0  0  0  0  0  0  0  0  0  0  0  0
    6.4050  -14.3492   26.2211 C   0  0  0  0  0  0  0  0  0  0  0  0
    5.9956  -13.0197   26.3696 C   0  0  0  0  0  0  0  0  0  0  0  0
    6.8282  -12.0712   26.8915 C   0  0  0  0  0  0  0  0  0  0  0  0
    8.1143  -12.4772   27.2713 C   0  0  0  0  0  0  0  0  0  0  0  0
    8.5146  -13.7827   27.1206 C   0  0  0  0  0  0  0  0  0  0  0  0
    7.6643  -14.7311   26.5940 C   0  0  0  0  0  0  0  0  0  0  0  0
   11.3321  -17.2827   25.6365 C   0  0  0  0  0  0  0  0  0  0  0  0
   11.7076  -17.9301   24.6399 O   0  0  0  0  0  0  0  0  0  0  0  0
   12.1874  -17.3423   26.7574 O   0  0  0  0  0  0  0  0  0  0  0  0
  2  1  1  6
  3  2  1  0
  4  3  1  0
  4  5  2  0
  6  5  1  0
  7  6  2  0
  8  9  2  0
  8  7  1  0
  9  4  1  0
 10 11  2  0
 10  2  1  0
 13 12  1  0
 14 13  1  0
 15 14  1  0
 16 15  1  1
 16 17  1  0
 17 10  1  0
 18 16  1  0
 19 18  2  0
 20 18  1  0
 21 20  1  0
 22 23  1  0
 21 22  1  1
 23 31  1  0
 24 23  2  0
 24 25  1  0
 25 26  1  0
 26 27  1  0
 27 28  2  0
 29 28  1  0
 30 29  2  0
 31 26  2  0
 31 30  1  0
 32 34  1  0
 32 21  1  0
 33 32  2  0
M  END
$$$$
