FMW.pdb
     RDKit          3D

 34 36  0  0  1  0  0  0  0  0999 V2000
   10.9835  -16.7617   19.3569 N   0  0  0  0  0  0  0  0  0  0  0  0
   10.0770  -15.8013   19.9363 C   0  0  1  0  0  0  0  0  0  0  0  0
    9.2922  -15.2337   18.7556 C   0  0  0  0  0  0  0  0  0  0  0  0
    8.3669  -14.2144   19.3166 C   0  0  0  0  0  0  0  0  0  0  0  0
    7.1186  -14.5861   19.8270 C   0  0  0  0  0  0  0  0  0  0  0  0
    6.2358  -13.6609   20.3623 C   0  0  0  0  0  0  0  0  0  0  0  0
    6.5814  -12.3268   20.4013 C   0  0  0  0  0  0  0  0  0  0  0  0
    7.8159  -11.9313   19.9012 C   0  0  0  0  0  0  0  0  0  0  0  0
    8.6714  -12.8724   19.3758 C   0  0  0  0  0  0  0  0  0  0  0  0
    9.1674  -16.3804   20.9459 C   0  0  0  0  0  0  0  0  0  0  0  0
    7.9772  -16.0784   20.9474 O   0  0  0  0  0  0  0  0  0  0  0  0
   11.9452  -22.3739   23.3830 C   0  0  0  0  0  0  0  0  0  0  0  0
   10.3716  -21.5375   23.6824 S   0  0  0  0  0  0  0  0  0  0  0  0
   10.2112  -20.0442   22.6485 C   0  0  0  0  0  0  0  0  0  0  0  0
    8.8420  -19.4171   22.8135 C   0  0  0  0  0  0  0  0  0  0  0  0
    8.9174  -17.9165   22.9252 C   0  0  2  0  0  0  0  0  0  0  0  0
    9.6590  -17.2768   21.8947 N   0  0  0  0  0  0  0  0  0  0  0  0
    9.4997  -17.6242   24.2505 C   0  0  0  0  0  0  0  0  0  0  0  0
    9.5093  -18.5438   25.1146 O   0  0  0  0  0  0  0  0  0  0  0  0
   10.0358  -16.3501   24.5813 N   0  0  0  0  0  0  0  0  0  0  0  0
   10.3627  -16.0407   25.9827 C   0  0  1  0  0  0  0  0  0  0  0  0
    9.1777  -16.2647   26.8383 C   0  0  0  0  0  0  0  0  0  0  0  0
    7.9935  -15.5574   26.3398 C   0  0  0  0  0  0  0  0  0  0  0  0
    6.8465  -16.0669   25.8141 C   0  0  0  0  0  0  0  0  0  0  0  0
    6.0411  -15.0390   25.4355 N   0  0  0  0  0  0  0  0  0  0  0  0
    6.6538  -13.8724   25.7133 C   0  0  0  0  0  0  0  0  0  0  0  0
    6.2585  -12.5415   25.5416 C   0  0  0  0  0  0  0  0  0  0  0  0
    7.0576  -11.5044   25.9302 C   0  0  0  0  0  0  0  0  0  0  0  0
    8.2949  -11.8213   26.5061 C   0  0  0  0  0  0  0  0  0  0  0  0
    8.6820  -13.1293   26.6697 C   0  0  0  0  0  0  0  0  0  0  0  0
    7.8656  -14.1672   26.2750 C   0  0  0  0  0  0  0  0  0  0  0  0
   11.5951  -16.7545   26.2839 C   0  0  0  0  0  0  0  0  0  0  0  0
   12.0886  -17.5621   25.4729 O   0  0  0  0  0  0  0  0  0  0  0  0
   12.3099  -16.5908   27.4896 O   0  0  0  0  0  0  0  0  0  0  0  0
  2  1  1  6
  3  2  1  0
  4  3  1  0
  4  5  2  0
  6  5  1  0
  7  6  2  0
  8  9  2  0
  8  7  1  0
  9  4  1  0
 10 11  2  0
 10  2  1  0
 13 12  1  0
 14 13  1  0
 15 14  1  0
 16 15  1  6
 16 17  1  0
 17 10  1  0
 18 16  1  0
 19 18  2  0
 20 18  1  0
 21 20  1  0
 22 23  1  0
 21 22  1  1
 23 31  1  0
 24 23  2  0
 24 25  1  0
 25 26  1  0
 26 27  1  0
 27 28  2  0
 29 28  1  0
 30 29  2  0
 31 26  2  0
 31 30  1  0
 32 34  1  0
 32 21  1  0
 33 32  2  0
M  END
$$$$
