FMW.pdb
     RDKit          3D

 34 36  0  0  1  0  0  0  0  0999 V2000
    5.2807  -21.5289   22.1911 N   0  0  0  0  0  0  0  0  0  0  0  0
    5.7420  -20.6168   23.2085 C   0  0  1  0  0  0  0  0  0  0  0  0
    6.3099  -21.5071   24.3118 C   0  0  0  0  0  0  0  0  0  0  0  0
    6.5973  -20.6152   25.4658 C   0  0  0  0  0  0  0  0  0  0  0  0
    5.5938  -20.2886   26.3840 C   0  0  0  0  0  0  0  0  0  0  0  0
    5.8310  -19.4649   27.4736 C   0  0  0  0  0  0  0  0  0  0  0  0
    7.0902  -18.9410   27.6753 C   0  0  0  0  0  0  0  0  0  0  0  0
    8.1049  -19.2503   26.7781 C   0  0  0  0  0  0  0  0  0  0  0  0
    7.8396  -20.0707   25.7056 C   0  0  0  0  0  0  0  0  0  0  0  0
    6.7580  -19.6585   22.7275 C   0  0  0  0  0  0  0  0  0  0  0  0
    7.7535  -20.0632   22.1334 O   0  0  0  0  0  0  0  0  0  0  0  0
    7.7550  -12.5695   19.5690 C   0  0  0  0  0  0  0  0  0  0  0  0
    6.6505  -13.7864   20.3205 S   0  0  0  0  0  0  0  0  0  0  0  0
    7.5925  -15.0994   21.1649 C   0  0  0  0  0  0  0  0  0  0  0  0
    6.6605  -16.0825   21.8430 C   0  0  0  0  0  0  0  0  0  0  0  0
    7.4068  -17.2414   22.4513 C   0  0  2  0  0  0  0  0  0  0  0  0
    6.5836  -18.2914   22.9420 N   0  0  0  0  0  0  0  0  0  0  0  0
    8.2424  -16.6801   23.5319 C   0  0  0  0  0  0  0  0  0  0  0  0
    7.7462  -16.5981   24.6892 O   0  0  0  0  0  0  0  0  0  0  0  0
    9.5708  -16.2266   23.3083 N   0  0  0  0  0  0  0  0  0  0  0  0
   10.3922  -15.7918   24.4499 C   0  0  1  0  0  0  0  0  0  0  0  0
    9.8377  -14.5476   25.0252 C   0  0  0  0  0  0  0  0  0  0  0  0
    8.5619  -14.7759   25.7117 C   0  0  0  0  0  0  0  0  0  0  0  0
    7.9619  -15.9519   26.0409 C   0  0  0  0  0  0  0  0  0  0  0  0
    6.7618  -15.6864   26.6223 N   0  0  0  0  0  0  0  0  0  0  0  0
    6.5819  -14.3528   26.6745 C   0  0  0  0  0  0  0  0  0  0  0  0
    5.5422  -13.5660   27.1818 C   0  0  0  0  0  0  0  0  0  0  0  0
    5.5958  -12.2019   27.1426 C   0  0  0  0  0  0  0  0  0  0  0  0
    6.7320  -11.6150   26.5703 C   0  0  0  0  0  0  0  0  0  0  0  0
    7.7495  -12.3904   26.0695 C   0  0  0  0  0  0  0  0  0  0  0  0
    7.6844  -13.7663   26.1165 C   0  0  0  0  0  0  0  0  0  0  0  0
   10.5507  -16.9566   25.3086 C   0  0  0  0  0  0  0  0  0  0  0  0
   10.0529  -18.0574   25.0024 O   0  0  0  0  0  0  0  0  0  0  0  0
   11.2639  -16.9296   26.5260 O   0  0  0  0  0  0  0  0  0  0  0  0
  2  1  1  6
  3  2  1  0
  4  3  1  0
  4  5  2  0
  6  5  1  0
  7  6  2  0
  8  9  2  0
  8  7  1  0
  9  4  1  0
 10 11  2  0
 10  2  1  0
 13 12  1  0
 14 13  1  0
 15 14  1  0
 16 15  1  1
 16 17  1  0
 17 10  1  0
 18 16  1  0
 19 18  2  0
 20 18  1  0
 21 20  1  0
 22 23  1  0
 21 22  1  1
 23 31  1  0
 24 23  2  0
 24 25  1  0
 25 26  1  0
 26 27  1  0
 27 28  2  0
 29 28  1  0
 30 29  2  0
 31 26  2  0
 31 30  1  0
 32 34  1  0
 32 21  1  0
 33 32  2  0
M  END
$$$$
