FMW.pdb
     RDKit          3D

 34 36  0  0  1  0  0  0  0  0999 V2000
    6.2986  -19.8165   20.7439 N   0  0  0  0  0  0  0  0  0  0  0  0
    6.5676  -18.9627   21.8747 C   0  0  1  0  0  0  0  0  0  0  0  0
    6.6416  -19.9046   23.0745 C   0  0  0  0  0  0  0  0  0  0  0  0
    6.8271  -19.0452   24.2732 C   0  0  0  0  0  0  0  0  0  0  0  0
    5.9014  -18.0440   24.5850 C   0  0  0  0  0  0  0  0  0  0  0  0
    6.0424  -17.2302   25.6984 C   0  0  0  0  0  0  0  0  0  0  0  0
    7.1237  -17.3979   26.5372 C   0  0  0  0  0  0  0  0  0  0  0  0
    8.0576  -18.3857   26.2502 C   0  0  0  0  0  0  0  0  0  0  0  0
    7.8911  -19.1783   25.1377 C   0  0  0  0  0  0  0  0  0  0  0  0
    7.8122  -18.1784   21.7412 C   0  0  0  0  0  0  0  0  0  0  0  0
    8.8565  -18.7327   21.4096 O   0  0  0  0  0  0  0  0  0  0  0  0
    7.9950  -11.8392   19.4666 C   0  0  0  0  0  0  0  0  0  0  0  0
    6.6481  -13.0434   19.5029 S   0  0  0  0  0  0  0  0  0  0  0  0
    7.2381  -14.6763   20.0598 C   0  0  0  0  0  0  0  0  0  0  0  0
    8.2784  -14.5315   21.1516 C   0  0  0  0  0  0  0  0  0  0  0  0
    8.8016  -15.8665   21.6142 C   0  0  2  0  0  0  0  0  0  0  0  0
    7.8004  -16.8052   21.9851 N   0  0  0  0  0  0  0  0  0  0  0  0
    9.7088  -15.5910   22.7464 C   0  0  0  0  0  0  0  0  0  0  0  0
   10.8426  -15.0965   22.4965 O   0  0  0  0  0  0  0  0  0  0  0  0
    9.3509  -15.8708   24.0932 N   0  0  0  0  0  0  0  0  0  0  0  0
   10.4028  -15.9820   25.1167 C   0  0  1  0  0  0  0  0  0  0  0  0
    9.7915  -16.1758   26.4491 C   0  0  0  0  0  0  0  0  0  0  0  0
    9.4899  -14.9019   27.1103 C   0  0  0  0  0  0  0  0  0  0  0  0
    9.7258  -14.5245   28.3962 C   0  0  0  0  0  0  0  0  0  0  0  0
    9.2314  -13.2721   28.5853 N   0  0  0  0  0  0  0  0  0  0  0  0
    8.6818  -12.8361   27.4358 C   0  0  0  0  0  0  0  0  0  0  0  0
    8.0612  -11.6305   27.0912 C   0  0  0  0  0  0  0  0  0  0  0  0
    7.5936  -11.4047   25.8280 C   0  0  0  0  0  0  0  0  0  0  0  0
    7.7543  -12.4290   24.8857 C   0  0  0  0  0  0  0  0  0  0  0  0
    8.3605  -13.6133   25.2282 C   0  0  0  0  0  0  0  0  0  0  0  0
    8.8299  -13.8284   26.5061 C   0  0  0  0  0  0  0  0  0  0  0  0
   11.3509  -16.9712   24.6250 C   0  0  0  0  0  0  0  0  0  0  0  0
   12.5073  -16.6477   24.2912 O   0  0  0  0  0  0  0  0  0  0  0  0
   11.0408  -18.3414   24.4917 O   0  0  0  0  0  0  0  0  0  0  0  0
  2  1  1  6
  3  2  1  0
  4  3  1  0
  4  5  2  0
  6  5  1  0
  7  6  2  0
  8  9  2  0
  8  7  1  0
  9  4  1  0
 10 11  2  0
 10  2  1  0
 13 12  1  0
 14 13  1  0
 15 14  1  0
 16 15  1  1
 16 17  1  0
 17 10  1  0
 18 16  1  0
 19 18  2  0
 20 18  1  0
 21 20  1  0
 22 23  1  0
 21 22  1  1
 23 31  1  0
 24 23  2  0
 24 25  1  0
 25 26  1  0
 26 27  1  0
 27 28  2  0
 29 28  1  0
 30 29  2  0
 31 26  2  0
 31 30  1  0
 32 34  1  0
 32 21  1  0
 33 32  2  0
M  END
$$$$
