FMW.pdb
     RDKit          3D

 34 36  0  0  1  0  0  0  0  0999 V2000
    6.8931  -19.3860   23.0601 N   0  0  0  0  0  0  0  0  0  0  0  0
    7.5243  -19.7878   21.8272 C   0  0  1  0  0  0  0  0  0  0  0  0
    6.3764  -20.2117   20.9135 C   0  0  0  0  0  0  0  0  0  0  0  0
    5.4777  -19.0337   20.7928 C   0  0  0  0  0  0  0  0  0  0  0  0
    4.4727  -18.8017   21.7377 C   0  0  0  0  0  0  0  0  0  0  0  0
    3.6226  -17.7095   21.6570 C   0  0  0  0  0  0  0  0  0  0  0  0
    3.7566  -16.8122   20.6188 C   0  0  0  0  0  0  0  0  0  0  0  0
    4.7474  -17.0194   19.6671 C   0  0  0  0  0  0  0  0  0  0  0  0
    5.5763  -18.1126   19.7735 C   0  0  0  0  0  0  0  0  0  0  0  0
    8.3319  -18.7214   21.2009 C   0  0  0  0  0  0  0  0  0  0  0  0
    8.9745  -18.9544   20.1809 O   0  0  0  0  0  0  0  0  0  0  0  0
    6.9831  -12.6458   20.4970 C   0  0  0  0  0  0  0  0  0  0  0  0
    7.4175  -13.7622   19.1441 S   0  0  0  0  0  0  0  0  0  0  0  0
    8.0358  -15.3564   19.7772 C   0  0  0  0  0  0  0  0  0  0  0  0
    8.8854  -15.1534   21.0150 C   0  0  0  0  0  0  0  0  0  0  0  0
    9.3686  -16.4599   21.5891 C   0  0  2  0  0  0  0  0  0  0  0  0
    8.3594  -17.4458   21.7643 N   0  0  0  0  0  0  0  0  0  0  0  0
   10.0170  -16.1371   22.8762 C   0  0  0  0  0  0  0  0  0  0  0  0
   10.8621  -15.2004   22.9008 O   0  0  0  0  0  0  0  0  0  0  0  0
    9.7273  -16.8474   24.0727 N   0  0  0  0  0  0  0  0  0  0  0  0
   10.4176  -16.4816   25.3203 C   0  0  1  0  0  0  0  0  0  0  0  0
    9.9848  -15.1380   25.7608 C   0  0  0  0  0  0  0  0  0  0  0  0
    8.5458  -15.0835   26.0387 C   0  0  0  0  0  0  0  0  0  0  0  0
    7.6302  -16.0901   26.0286 C   0  0  0  0  0  0  0  0  0  0  0  0
    6.4021  -15.5708   26.2948 N   0  0  0  0  0  0  0  0  0  0  0  0
    6.5151  -14.2416   26.4792 C   0  0  0  0  0  0  0  0  0  0  0  0
    5.5735  -13.2546   26.7897 C   0  0  0  0  0  0  0  0  0  0  0  0
    5.9373  -11.9485   26.9544 C   0  0  0  0  0  0  0  0  0  0  0  0
    7.2924  -11.6294   26.7968 C   0  0  0  0  0  0  0  0  0  0  0  0
    8.2140  -12.6002   26.4880 C   0  0  0  0  0  0  0  0  0  0  0  0
    7.8345  -13.9153   26.3261 C   0  0  0  0  0  0  0  0  0  0  0  0
   10.2515  -17.6085   26.2268 C   0  0  0  0  0  0  0  0  0  0  0  0
    9.4803  -18.5488   25.9540 O   0  0  0  0  0  0  0  0  0  0  0  0
   10.9354  -17.7205   27.4561 O   0  0  0  0  0  0  0  0  0  0  0  0
  2  1  1  1
  3  2  1  0
  4  3  1  0
  4  5  2  0
  6  5  1  0
  7  6  2  0
  8  9  2  0
  8  7  1  0
  9  4  1  0
 10 11  2  0
 10  2  1  0
 13 12  1  0
 14 13  1  0
 15 14  1  0
 16 15  1  1
 16 17  1  0
 17 10  1  0
 18 16  1  0
 19 18  2  0
 20 18  1  0
 21 20  1  0
 22 23  1  0
 21 22  1  1
 23 31  1  0
 24 23  2  0
 24 25  1  0
 25 26  1  0
 26 27  1  0
 27 28  2  0
 29 28  1  0
 30 29  2  0
 31 26  2  0
 31 30  1  0
 32 34  1  0
 32 21  1  0
 33 32  2  0
M  END
$$$$
