YKW.pdb
     RDKit          3D

 36 38  0  0  1  0  0  0  0  0999 V2000
   26.7487  -23.7735  -19.6508 O   0  0  0  0  0  0  0  0  0  0  0  0
   27.4554  -22.9432  -18.7898 C   0  0  0  0  0  0  0  0  0  0  0  0
   26.8063  -21.8287  -18.3050 C   0  0  0  0  0  0  0  0  0  0  0  0
   27.4392  -20.9544  -17.4450 C   0  0  0  0  0  0  0  0  0  0  0  0
   28.7341  -21.1712  -17.0487 C   0  0  0  0  0  0  0  0  0  0  0  0
   29.4058  -20.2246  -16.1224 C   0  0  0  0  0  0  0  0  0  0  0  0
   29.2323  -20.7741  -14.7169 C   0  0  2  0  0  0  0  0  0  0  0  0
   29.2481  -22.2132  -14.7484 N   0  0  0  0  0  0  0  0  0  0  0  0
   27.9781  -20.2523  -14.1182 C   0  0  0  0  0  0  0  0  0  0  0  0
   27.7652  -18.9955  -14.0807 O   0  0  0  0  0  0  0  0  0  0  0  0
   29.3606  -22.2965  -17.5504 C   0  0  0  0  0  0  0  0  0  0  0  0
   28.7394  -23.1711  -18.4056 C   0  0  0  0  0  0  0  0  0  0  0  0
   27.0444  -21.1839  -13.6003 N   0  0  0  0  0  0  0  0  0  0  0  0
   25.8030  -20.7477  -13.0017 C   0  0  1  0  0  0  0  0  0  0  0  0
   24.6179  -21.2583  -13.8085 C   0  0  0  0  0  0  0  0  0  0  0  0
   23.3204  -20.7250  -13.2448 C   0  0  0  0  0  0  0  0  0  0  0  0
   22.1092  -21.2367  -13.9832 C   0  0  0  0  0  0  0  0  0  0  0  0
   20.8344  -20.5456  -13.5234 C   0  0  0  0  0  0  0  0  0  0  0  0
   19.6939  -21.1017  -14.2381 N   0  0  0  0  0  0  0  0  0  0  0  0
   25.7598  -21.2418  -11.6081 C   0  0  0  0  0  0  0  0  0  0  0  0
   25.6639  -22.4706  -11.3999 O   0  0  0  0  0  0  0  0  0  0  0  0
   25.8221  -20.3830  -10.4648 N   0  0  0  0  0  0  0  0  0  0  0  0
   25.6280  -20.8283   -9.1280 C   0  0  1  0  0  0  0  0  0  0  0  0
   26.2946  -19.9161   -8.1437 C   0  0  0  0  0  0  0  0  0  0  0  0
   27.7113  -20.1680   -7.8915 C   0  0  0  0  0  0  0  0  0  0  0  0
   28.5564  -20.8689   -8.7473 C   0  0  0  0  0  0  0  0  0  0  0  0
   29.7489  -20.9020   -8.1613 N   0  0  0  0  0  0  0  0  0  0  0  0
   29.7145  -20.2603   -6.9766 C   0  0  0  0  0  0  0  0  0  0  0  0
   30.6828  -20.0281   -6.0316 C   0  0  0  0  0  0  0  0  0  0  0  0
   30.4105  -19.3206   -4.8712 C   0  0  0  0  0  0  0  0  0  0  0  0
   29.1358  -18.8317   -4.6497 C   0  0  0  0  0  0  0  0  0  0  0  0
   28.1778  -19.0761   -5.6113 C   0  0  0  0  0  0  0  0  0  0  0  0
   28.4221  -19.7793   -6.7772 C   0  0  0  0  0  0  0  0  0  0  0  0
   24.2069  -21.0457   -8.7763 C   0  0  0  0  0  0  0  0  0  0  0  0
   23.2428  -20.6390   -9.4740 O   0  0  0  0  0  0  0  0  0  0  0  0
   23.9099  -21.7372   -7.6107 O   0  0  0  0  0  0  0  0  0  0  0  0
  2  3  2  0
  2  1  1  0
  4  3  1  0
  5  4  2  0
  6  5  1  0
  7  6  1  0
  7  8  1  6
  9  7  1  0
 10  9  2  0
 11  5  1  0
 11 12  2  0
 12  2  1  0
 13  9  1  0
 14 20  1  0
 14 13  1  0
 14 15  1  6
 16 15  1  0
 17 16  1  0
 18 19  1  0
 18 17  1  0
 20 22  1  0
 21 20  2  0
 22 23  1  0
 23 34  1  0
 23 24  1  1
 24 25  1  0
 25 33  1  0
 26 27  1  0
 26 25  2  0
 27 28  1  0
 28 33  2  0
 28 29  1  0
 29 30  2  0
 30 31  1  0
 32 31  2  0
 33 32  1  0
 34 35  2  0
 34 36  1  0
M  END
$$$$
