YKW.pdb
     RDKit          3D

 36 38  0  0  1  0  0  0  0  0999 V2000
   18.3830  -19.7245  -19.1713 O   0  0  0  0  0  0  0  0  0  0  0  0
   19.4315  -20.0627  -18.3248 C   0  0  0  0  0  0  0  0  0  0  0  0
   19.7269  -21.4008  -18.1809 C   0  0  0  0  0  0  0  0  0  0  0  0
   20.7536  -21.8185  -17.3587 C   0  0  0  0  0  0  0  0  0  0  0  0
   21.5093  -20.9115  -16.6609 C   0  0  0  0  0  0  0  0  0  0  0  0
   22.6122  -21.3715  -15.7793 C   0  0  0  0  0  0  0  0  0  0  0  0
   23.9096  -20.8596  -16.3809 C   0  0  2  0  0  0  0  0  0  0  0  0
   24.1835  -21.5499  -17.6141 N   0  0  0  0  0  0  0  0  0  0  0  0
   25.0186  -21.0166  -15.4066 C   0  0  0  0  0  0  0  0  0  0  0  0
   25.6520  -22.1212  -15.3353 O   0  0  0  0  0  0  0  0  0  0  0  0
   21.1908  -19.5764  -16.8241 C   0  0  0  0  0  0  0  0  0  0  0  0
   20.1722  -19.1520  -17.6392 C   0  0  0  0  0  0  0  0  0  0  0  0
   25.3413  -19.9155  -14.5752 N   0  0  0  0  0  0  0  0  0  0  0  0
   26.4155  -19.9931  -13.6109 C   0  0  1  0  0  0  0  0  0  0  0  0
   27.1495  -18.6627  -13.5274 C   0  0  0  0  0  0  0  0  0  0  0  0
   28.4278  -18.7080  -14.3334 C   0  0  0  0  0  0  0  0  0  0  0  0
   28.2254  -18.3037  -15.7720 C   0  0  0  0  0  0  0  0  0  0  0  0
   29.5442  -18.2219  -16.5260 C   0  0  0  0  0  0  0  0  0  0  0  0
   29.2987  -17.7728  -17.8894 N   0  0  0  0  0  0  0  0  0  0  0  0
   25.8396  -20.3744  -12.3029 C   0  0  0  0  0  0  0  0  0  0  0  0
   24.7111  -19.9414  -11.9843 O   0  0  0  0  0  0  0  0  0  0  0  0
   26.5081  -21.2235  -11.3644 N   0  0  0  0  0  0  0  0  0  0  0  0
   25.9911  -21.5455  -10.0791 C   0  0  1  0  0  0  0  0  0  0  0  0
   27.0905  -21.7965   -9.0925 C   0  0  0  0  0  0  0  0  0  0  0  0
   27.2233  -20.8183   -8.0157 C   0  0  0  0  0  0  0  0  0  0  0  0
   26.2884  -19.8288   -7.7239 C   0  0  0  0  0  0  0  0  0  0  0  0
   26.7763  -19.1345   -6.7009 N   0  0  0  0  0  0  0  0  0  0  0  0
   27.9726  -19.6251   -6.3206 C   0  0  0  0  0  0  0  0  0  0  0  0
   28.8414  -19.2525   -5.3252 C   0  0  0  0  0  0  0  0  0  0  0  0
   30.0339  -19.9262   -5.1122 C   0  0  0  0  0  0  0  0  0  0  0  0
   30.3667  -21.0014   -5.9160 C   0  0  0  0  0  0  0  0  0  0  0  0
   29.4803  -21.3592   -6.9101 C   0  0  0  0  0  0  0  0  0  0  0  0
   28.2845  -20.7044   -7.1447 C   0  0  0  0  0  0  0  0  0  0  0  0
   25.0272  -20.5487   -9.5615 C   0  0  0  0  0  0  0  0  0  0  0  0
   25.1759  -19.3051   -9.6770 O   0  0  0  0  0  0  0  0  0  0  0  0
   23.8898  -21.0019   -8.9090 O   0  0  0  0  0  0  0  0  0  0  0  0
  2  3  2  0
  2  1  1  0
  4  3  1  0
  5  4  2  0
  6  5  1  0
  7  6  1  0
  7  8  1  6
  9  7  1  0
 10  9  2  0
 11  5  1  0
 11 12  2  0
 12  2  1  0
 13  9  1  0
 14 20  1  0
 14 13  1  0
 14 15  1  1
 16 15  1  0
 17 16  1  0
 18 19  1  0
 18 17  1  0
 20 22  1  0
 21 20  2  0
 22 23  1  0
 23 34  1  0
 23 24  1  1
 24 25  1  0
 25 33  1  0
 26 27  1  0
 26 25  2  0
 27 28  1  0
 28 33  2  0
 28 29  1  0
 29 30  2  0
 30 31  1  0
 32 31  2  0
 33 32  1  0
 34 35  2  0
 34 36  1  0
M  END
$$$$
