YKW.pdb
     RDKit          3D

 36 38  0  0  1  0  0  0  0  0999 V2000
   15.9920  -17.5275  -11.7967 O   0  0  0  0  0  0  0  0  0  0  0  0
   17.2691  -18.0685  -11.7171 C   0  0  0  0  0  0  0  0  0  0  0  0
   17.5713  -18.8259  -10.6064 C   0  0  0  0  0  0  0  0  0  0  0  0
   18.8178  -19.3979  -10.4528 C   0  0  0  0  0  0  0  0  0  0  0  0
   19.7918  -19.2277  -11.4029 C   0  0  0  0  0  0  0  0  0  0  0  0
   21.1297  -19.8480  -11.2282 C   0  0  0  0  0  0  0  0  0  0  0  0
   21.3334  -20.8076  -12.3879 C   0  0  2  0  0  0  0  0  0  0  0  0
   20.3711  -21.8757  -12.3144 N   0  0  0  0  0  0  0  0  0  0  0  0
   22.7257  -21.3226  -12.3832 C   0  0  0  0  0  0  0  0  0  0  0  0
   23.0775  -22.1993  -11.5264 O   0  0  0  0  0  0  0  0  0  0  0  0
   19.4612  -18.4634  -12.5062 C   0  0  0  0  0  0  0  0  0  0  0  0
   18.2249  -17.8911  -12.6675 C   0  0  0  0  0  0  0  0  0  0  0  0
   23.6317  -20.8142  -13.3468 N   0  0  0  0  0  0  0  0  0  0  0  0
   25.0017  -21.2720  -13.4033 C   0  0  1  0  0  0  0  0  0  0  0  0
   25.5730  -21.0627  -14.7981 C   0  0  0  0  0  0  0  0  0  0  0  0
   27.0306  -21.4616  -14.8421 C   0  0  0  0  0  0  0  0  0  0  0  0
   27.6486  -21.2656  -16.2036 C   0  0  0  0  0  0  0  0  0  0  0  0
   29.0814  -21.7744  -16.2515 C   0  0  0  0  0  0  0  0  0  0  0  0
   29.0944  -23.2146  -16.0363 N   0  0  0  0  0  0  0  0  0  0  0  0
   25.7809  -20.5344  -12.3850 C   0  0  0  0  0  0  0  0  0  0  0  0
   25.5601  -19.3161  -12.2134 O   0  0  0  0  0  0  0  0  0  0  0  0
   26.7893  -21.1420  -11.5711 N   0  0  0  0  0  0  0  0  0  0  0  0
   27.6230  -20.4207  -10.6724 C   0  0  1  0  0  0  0  0  0  0  0  0
   26.8185  -19.5462   -9.7596 C   0  0  0  0  0  0  0  0  0  0  0  0
   26.5567  -20.0791   -8.4249 C   0  0  0  0  0  0  0  0  0  0  0  0
   25.5177  -20.9502   -8.1090 C   0  0  0  0  0  0  0  0  0  0  0  0
   25.6015  -21.1844   -6.8033 N   0  0  0  0  0  0  0  0  0  0  0  0
   26.6376  -20.5113   -6.2650 C   0  0  0  0  0  0  0  0  0  0  0  0
   27.1194  -20.4443   -4.9813 C   0  0  0  0  0  0  0  0  0  0  0  0
   28.2279  -19.6767   -4.6605 C   0  0  0  0  0  0  0  0  0  0  0  0
   28.8724  -18.9565   -5.6499 C   0  0  0  0  0  0  0  0  0  0  0  0
   28.3724  -19.0373   -6.9327 C   0  0  0  0  0  0  0  0  0  0  0  0
   27.2682  -19.7947   -7.2801 C   0  0  0  0  0  0  0  0  0  0  0  0
   28.5514  -21.2811   -9.9054 C   0  0  0  0  0  0  0  0  0  0  0  0
   28.3578  -22.5057   -9.6935 O   0  0  0  0  0  0  0  0  0  0  0  0
   29.7056  -20.7137   -9.3852 O   0  0  0  0  0  0  0  0  0  0  0  0
  2  3  2  0
  2  1  1  0
  4  3  1  0
  5  4  2  0
  6  5  1  0
  7  6  1  0
  7  8  1  1
  9  7  1  0
 10  9  2  0
 11  5  1  0
 11 12  2  0
 12  2  1  0
 13  9  1  0
 14 20  1  0
 14 13  1  0
 14 15  1  6
 16 15  1  0
 17 16  1  0
 18 19  1  0
 18 17  1  0
 20 22  1  0
 21 20  2  0
 22 23  1  0
 23 34  1  0
 23 24  1  1
 24 25  1  0
 25 33  1  0
 26 27  1  0
 26 25  2  0
 27 28  1  0
 28 33  2  0
 28 29  1  0
 29 30  2  0
 30 31  1  0
 32 31  2  0
 33 32  1  0
 34 35  2  0
 34 36  1  0
M  END
$$$$
