YKW.pdb
     RDKit          3D

 36 38  0  0  1  0  0  0  0  0999 V2000
   24.8380   -8.7022  -21.8500 O   0  0  0  0  0  0  0  0  0  0  0  0
   24.3578   -9.6352  -20.9395 C   0  0  0  0  0  0  0  0  0  0  0  0
   23.6713   -9.1598  -19.8434 C   0  0  0  0  0  0  0  0  0  0  0  0
   23.1625  -10.0218  -18.8934 C   0  0  0  0  0  0  0  0  0  0  0  0
   23.3267  -11.3780  -19.0144 C   0  0  0  0  0  0  0  0  0  0  0  0
   22.7747  -12.2971  -17.9868 C   0  0  0  0  0  0  0  0  0  0  0  0
   21.3778  -12.6869  -18.4384 C   0  0  2  0  0  0  0  0  0  0  0  0
   21.4044  -13.0893  -19.8203 N   0  0  0  0  0  0  0  0  0  0  0  0
   20.4377  -11.5602  -18.2134 C   0  0  0  0  0  0  0  0  0  0  0  0
   20.1467  -10.7724  -19.1730 O   0  0  0  0  0  0  0  0  0  0  0  0
   24.0190  -11.8268  -20.1233 C   0  0  0  0  0  0  0  0  0  0  0  0
   24.5282  -10.9774  -21.0726 C   0  0  0  0  0  0  0  0  0  0  0  0
   19.8864  -11.3957  -16.9184 N   0  0  0  0  0  0  0  0  0  0  0  0
   18.8655  -10.4060  -16.6581 C   0  0  1  0  0  0  0  0  0  0  0  0
   17.5398  -11.0830  -16.3419 C   0  0  0  0  0  0  0  0  0  0  0  0
   16.4503  -10.0539  -16.1428 C   0  0  0  0  0  0  0  0  0  0  0  0
   15.0907  -10.6747  -15.9422 C   0  0  0  0  0  0  0  0  0  0  0  0
   13.9902   -9.6248  -15.9102 C   0  0  0  0  0  0  0  0  0  0  0  0
   14.0058   -8.9418  -14.6241 N   0  0  0  0  0  0  0  0  0  0  0  0
   19.3179   -9.5554  -15.5357 C   0  0  0  0  0  0  0  0  0  0  0  0
   19.9036  -10.0854  -14.5669 O   0  0  0  0  0  0  0  0  0  0  0  0
   19.1220   -8.1382  -15.4915 N   0  0  0  0  0  0  0  0  0  0  0  0
   19.5264   -7.3160  -14.4036 C   0  0  1  0  0  0  0  0  0  0  0  0
   20.9570   -7.5622  -14.0321 C   0  0  0  0  0  0  0  0  0  0  0  0
   21.9037   -6.5078  -14.3873 C   0  0  0  0  0  0  0  0  0  0  0  0
   21.8100   -5.1839  -13.9670 C   0  0  0  0  0  0  0  0  0  0  0  0
   22.8356   -4.5382  -14.5127 N   0  0  0  0  0  0  0  0  0  0  0  0
   23.5819   -5.3760  -15.2595 C   0  0  0  0  0  0  0  0  0  0  0  0
   24.7231   -5.1771  -15.9962 C   0  0  0  0  0  0  0  0  0  0  0  0
   25.3306   -6.2130  -16.6883 C   0  0  0  0  0  0  0  0  0  0  0  0
   24.7825   -7.4820  -16.6427 C   0  0  0  0  0  0  0  0  0  0  0  0
   23.6360   -7.6603  -15.8972 C   0  0  0  0  0  0  0  0  0  0  0  0
   23.0092   -6.6447  -15.1977 C   0  0  0  0  0  0  0  0  0  0  0  0
   19.2730   -5.8746  -14.6242 C   0  0  0  0  0  0  0  0  0  0  0  0
   19.3829   -4.9991  -13.7280 O   0  0  0  0  0  0  0  0  0  0  0  0
   18.8911   -5.4539  -15.8900 O   0  0  0  0  0  0  0  0  0  0  0  0
  2  3  2  0
  2  1  1  0
  4  3  1  0
  5  4  2  0
  6  5  1  0
  7  6  1  0
  7  8  1  6
  9  7  1  0
 10  9  2  0
 11  5  1  0
 11 12  2  0
 12  2  1  0
 13  9  1  0
 14 20  1  0
 14 13  1  0
 14 15  1  1
 16 15  1  0
 17 16  1  0
 18 19  1  0
 18 17  1  0
 20 22  1  0
 21 20  2  0
 22 23  1  0
 23 34  1  0
 23 24  1  6
 24 25  1  0
 25 33  1  0
 26 27  1  0
 26 25  2  0
 27 28  1  0
 28 33  2  0
 28 29  1  0
 29 30  2  0
 30 31  1  0
 32 31  2  0
 33 32  1  0
 34 35  2  0
 34 36  1  0
M  END
$$$$
