YKW.pdb
     RDKit          3D

 36 38  0  0  1  0  0  0  0  0999 V2000
   29.5527  -17.1330  -17.3557 O   0  0  0  0  0  0  0  0  0  0  0  0
   28.5070  -17.9934  -17.0453 C   0  0  0  0  0  0  0  0  0  0  0  0
   27.2551  -17.4410  -16.8835 C   0  0  0  0  0  0  0  0  0  0  0  0
   26.1645  -18.2281  -16.5744 C   0  0  0  0  0  0  0  0  0  0  0  0
   26.2970  -19.5842  -16.4195 C   0  0  0  0  0  0  0  0  0  0  0  0
   25.1168  -20.4223  -16.0876 C   0  0  0  0  0  0  0  0  0  0  0  0
   25.1062  -21.5871  -17.0624 C   0  0  2  0  0  0  0  0  0  0  0  0
   25.0287  -21.0947  -18.4129 N   0  0  0  0  0  0  0  0  0  0  0  0
   23.9817  -22.5036  -16.7473 C   0  0  0  0  0  0  0  0  0  0  0  0
   22.8055  -22.2335  -17.1598 O   0  0  0  0  0  0  0  0  0  0  0  0
   27.5638  -20.1111  -16.5874 C   0  0  0  0  0  0  0  0  0  0  0  0
   28.6536  -19.3365  -16.8947 C   0  0  0  0  0  0  0  0  0  0  0  0
   24.2579  -23.6667  -15.9866 N   0  0  0  0  0  0  0  0  0  0  0  0
   23.2377  -24.6602  -15.7382 C   0  0  1  0  0  0  0  0  0  0  0  0
   23.8738  -26.0138  -15.4571 C   0  0  0  0  0  0  0  0  0  0  0  0
   24.5692  -26.5421  -16.6911 C   0  0  0  0  0  0  0  0  0  0  0  0
   25.9975  -26.9476  -16.4278 C   0  0  0  0  0  0  0  0  0  0  0  0
   26.6315  -27.6038  -17.6451 C   0  0  0  0  0  0  0  0  0  0  0  0
   28.0307  -27.8966  -17.3673 N   0  0  0  0  0  0  0  0  0  0  0  0
   22.4128  -24.2047  -14.5979 C   0  0  0  0  0  0  0  0  0  0  0  0
   22.9555  -24.0257  -13.4862 O   0  0  0  0  0  0  0  0  0  0  0  0
   21.0070  -23.9526  -14.6927 N   0  0  0  0  0  0  0  0  0  0  0  0
   20.2021  -23.5315  -13.5982 C   0  0  1  0  0  0  0  0  0  0  0  0
   19.7494  -22.1128  -13.7641 C   0  0  0  0  0  0  0  0  0  0  0  0
   18.9282  -21.8336  -14.9397 C   0  0  0  0  0  0  0  0  0  0  0  0
   17.5893  -22.1903  -15.0741 C   0  0  0  0  0  0  0  0  0  0  0  0
   17.2070  -21.7849  -16.2808 N   0  0  0  0  0  0  0  0  0  0  0  0
   18.2277  -21.1875  -16.9272 C   0  0  0  0  0  0  0  0  0  0  0  0
   18.3138  -20.6123  -18.1706 C   0  0  0  0  0  0  0  0  0  0  0  0
   19.4909  -20.0396  -18.6262 C   0  0  0  0  0  0  0  0  0  0  0  0
   20.6124  -20.0420  -17.8167 C   0  0  0  0  0  0  0  0  0  0  0  0
   20.5048  -20.6251  -16.5715 C   0  0  0  0  0  0  0  0  0  0  0  0
   19.3432  -21.2038  -16.0924 C   0  0  0  0  0  0  0  0  0  0  0  0
   19.0570  -24.4284  -13.3253 C   0  0  0  0  0  0  0  0  0  0  0  0
   18.6792  -25.3392  -14.1062 O   0  0  0  0  0  0  0  0  0  0  0  0
   18.3520  -24.2635  -12.1418 O   0  0  0  0  0  0  0  0  0  0  0  0
  2  3  2  0
  2  1  1  0
  4  3  1  0
  5  4  2  0
  6  5  1  0
  7  6  1  0
  7  8  1  6
  9  7  1  0
 10  9  2  0
 11  5  1  0
 11 12  2  0
 12  2  1  0
 13  9  1  0
 14 20  1  0
 14 13  1  0
 14 15  1  1
 16 15  1  0
 17 16  1  0
 18 19  1  0
 18 17  1  0
 20 22  1  0
 21 20  2  0
 22 23  1  0
 23 34  1  0
 23 24  1  6
 24 25  1  0
 25 33  1  0
 26 27  1  0
 26 25  2  0
 27 28  1  0
 28 33  2  0
 28 29  1  0
 29 30  2  0
 30 31  1  0
 32 31  2  0
 33 32  1  0
 34 35  2  0
 34 36  1  0
M  END
$$$$
