YKW.pdb
     RDKit          3D

 36 38  0  0  1  0  0  0  0  0999 V2000
   23.3272  -26.9270  -20.6823 O   0  0  0  0  0  0  0  0  0  0  0  0
   24.4926  -27.6234  -20.3873 C   0  0  0  0  0  0  0  0  0  0  0  0
   24.5128  -28.9741  -20.6588 C   0  0  0  0  0  0  0  0  0  0  0  0
   25.6325  -29.7364  -20.3947 C   0  0  0  0  0  0  0  0  0  0  0  0
   26.7579  -29.1695  -19.8537 C   0  0  0  0  0  0  0  0  0  0  0  0
   27.9577  -29.9986  -19.5740 C   0  0  0  0  0  0  0  0  0  0  0  0
   28.9519  -29.7395  -20.6928 C   0  0  2  0  0  0  0  0  0  0  0  0
   28.4518  -30.2839  -21.9280 N   0  0  0  0  0  0  0  0  0  0  0  0
   30.2760  -30.3096  -20.3385 C   0  0  0  0  0  0  0  0  0  0  0  0
   30.6499  -31.4167  -20.8493 O   0  0  0  0  0  0  0  0  0  0  0  0
   26.7095  -27.8132  -19.5915 C   0  0  0  0  0  0  0  0  0  0  0  0
   25.6011  -27.0475  -19.8507 C   0  0  0  0  0  0  0  0  0  0  0  0
   31.0931  -29.5924  -19.4297 N   0  0  0  0  0  0  0  0  0  0  0  0
   32.3964  -30.0844  -19.0438 C   0  0  1  0  0  0  0  0  0  0  0  0
   33.3872  -28.9340  -18.9392 C   0  0  0  0  0  0  0  0  0  0  0  0
   34.7800  -29.4539  -18.6644 C   0  0  0  0  0  0  0  0  0  0  0  0
   35.7899  -28.3490  -18.4820 C   0  0  0  0  0  0  0  0  0  0  0  0
   37.1799  -28.8967  -18.1949 C   0  0  0  0  0  0  0  0  0  0  0  0
   38.0924  -27.7938  -17.9273 N   0  0  0  0  0  0  0  0  0  0  0  0
   32.2612  -30.7985  -17.7555 C   0  0  0  0  0  0  0  0  0  0  0  0
   32.1942  -30.1377  -16.6965 O   0  0  0  0  0  0  0  0  0  0  0  0
   32.2016  -32.2244  -17.6468 N   0  0  0  0  0  0  0  0  0  0  0  0
   32.0807  -32.9205  -16.4123 C   0  0  1  0  0  0  0  0  0  0  0  0
   30.8089  -33.7104  -16.3502 C   0  0  0  0  0  0  0  0  0  0  0  0
   29.5865  -32.9434  -16.1233 C   0  0  0  0  0  0  0  0  0  0  0  0
   29.2023  -31.8276  -16.8619 C   0  0  0  0  0  0  0  0  0  0  0  0
   28.0553  -31.4034  -16.3411 N   0  0  0  0  0  0  0  0  0  0  0  0
   27.6831  -32.1865  -15.3093 C   0  0  0  0  0  0  0  0  0  0  0  0
   26.5900  -32.1510  -14.4795 C   0  0  0  0  0  0  0  0  0  0  0  0
   26.4115  -33.0870  -13.4729 C   0  0  0  0  0  0  0  0  0  0  0  0
   27.3510  -34.0855  -13.2910 C   0  0  0  0  0  0  0  0  0  0  0  0
   28.4417  -34.1031  -14.1350 C   0  0  0  0  0  0  0  0  0  0  0  0
   28.6446  -33.1817  -15.1466 C   0  0  0  0  0  0  0  0  0  0  0  0
   33.2512  -33.7680  -16.0928 C   0  0  0  0  0  0  0  0  0  0  0  0
   33.3888  -34.3926  -15.0099 O   0  0  0  0  0  0  0  0  0  0  0  0
   34.2616  -33.8872  -17.0361 O   0  0  0  0  0  0  0  0  0  0  0  0
  2  3  2  0
  2  1  1  0
  4  3  1  0
  5  4  2  0
  6  5  1  0
  7  6  1  0
  7  8  1  6
  9  7  1  0
 10  9  2  0
 11  5  1  0
 11 12  2  0
 12  2  1  0
 13  9  1  0
 14 20  1  0
 14 13  1  0
 14 15  1  1
 16 15  1  0
 17 16  1  0
 18 19  1  0
 18 17  1  0
 20 22  1  0
 21 20  2  0
 22 23  1  0
 23 34  1  0
 23 24  1  6
 24 25  1  0
 25 33  1  0
 26 27  1  0
 26 25  2  0
 27 28  1  0
 28 33  2  0
 28 29  1  0
 29 30  2  0
 30 31  1  0
 32 31  2  0
 33 32  1  0
 34 35  2  0
 34 36  1  0
M  END
$$$$
