YKW.pdb
     RDKit          3D

 36 38  0  0  1  0  0  0  0  0999 V2000
   27.8593  -12.4690  -22.0686 O   0  0  0  0  0  0  0  0  0  0  0  0
   27.0408  -13.5321  -21.7083 C   0  0  0  0  0  0  0  0  0  0  0  0
   27.5130  -14.4024  -20.7500 C   0  0  0  0  0  0  0  0  0  0  0  0
   26.7604  -15.4831  -20.3374 C   0  0  0  0  0  0  0  0  0  0  0  0
   25.5197  -15.7211  -20.8710 C   0  0  0  0  0  0  0  0  0  0  0  0
   24.7177  -16.8866  -20.4196 C   0  0  0  0  0  0  0  0  0  0  0  0
   25.3026  -18.1188  -21.0882 C   0  0  2  0  0  0  0  0  0  0  0  0
   25.1801  -18.0047  -22.5179 N   0  0  0  0  0  0  0  0  0  0  0  0
   24.6335  -19.3410  -20.5761 C   0  0  0  0  0  0  0  0  0  0  0  0
   23.4939  -19.6830  -21.0353 O   0  0  0  0  0  0  0  0  0  0  0  0
   25.0714  -14.8324  -21.8300 C   0  0  0  0  0  0  0  0  0  0  0  0
   25.8124  -13.7555  -22.2462 C   0  0  0  0  0  0  0  0  0  0  0  0
   25.2947  -20.0989  -19.5780 N   0  0  0  0  0  0  0  0  0  0  0  0
   24.6965  -21.2921  -19.0229 C   0  0  1  0  0  0  0  0  0  0  0  0
   25.7706  -22.2070  -18.4527 C   0  0  0  0  0  0  0  0  0  0  0  0
   25.1665  -23.5129  -17.9886 C   0  0  0  0  0  0  0  0  0  0  0  0
   26.2035  -24.4997  -17.5143 C   0  0  0  0  0  0  0  0  0  0  0  0
   25.5755  -25.8203  -17.0948 C   0  0  0  0  0  0  0  0  0  0  0  0
   26.6147  -26.7274  -16.6279 N   0  0  0  0  0  0  0  0  0  0  0  0
   23.7265  -20.8854  -17.9829 C   0  0  0  0  0  0  0  0  0  0  0  0
   23.9936  -19.9096  -17.2486 O   0  0  0  0  0  0  0  0  0  0  0  0
   22.4799  -21.5533  -17.7629 N   0  0  0  0  0  0  0  0  0  0  0  0
   21.4878  -21.0989  -16.8505 C   0  0  1  0  0  0  0  0  0  0  0  0
   21.0268  -19.7134  -17.1864 C   0  0  0  0  0  0  0  0  0  0  0  0
   20.0249  -19.6084  -18.2444 C   0  0  0  0  0  0  0  0  0  0  0  0
   18.7145  -20.0675  -18.1435 C   0  0  0  0  0  0  0  0  0  0  0  0
   18.1306  -19.8101  -19.3094 N   0  0  0  0  0  0  0  0  0  0  0  0
   18.9949  -19.2107  -20.1521 C   0  0  0  0  0  0  0  0  0  0  0  0
   18.8535  -18.7562  -21.4397 C   0  0  0  0  0  0  0  0  0  0  0  0
   19.9016  -18.1518  -22.1159 C   0  0  0  0  0  0  0  0  0  0  0  0
   21.1242  -17.9975  -21.4879 C   0  0  0  0  0  0  0  0  0  0  0  0
   21.2453  -18.4612  -20.1947 C   0  0  0  0  0  0  0  0  0  0  0  0
   20.2164  -19.0681  -19.4971 C   0  0  0  0  0  0  0  0  0  0  0  0
   20.3408  -22.0242  -16.7133 C   0  0  0  0  0  0  0  0  0  0  0  0
   20.2208  -23.0924  -17.3663 O   0  0  0  0  0  0  0  0  0  0  0  0
   19.3335  -21.7039  -15.8146 O   0  0  0  0  0  0  0  0  0  0  0  0
  2  3  2  0
  2  1  1  0
  4  3  1  0
  5  4  2  0
  6  5  1  0
  7  6  1  0
  7  8  1  6
  9  7  1  0
 10  9  2  0
 11  5  1  0
 11 12  2  0
 12  2  1  0
 13  9  1  0
 14 20  1  0
 14 13  1  0
 14 15  1  1
 16 15  1  0
 17 16  1  0
 18 19  1  0
 18 17  1  0
 20 22  1  0
 21 20  2  0
 22 23  1  0
 23 34  1  0
 23 24  1  6
 24 25  1  0
 25 33  1  0
 26 27  1  0
 26 25  2  0
 27 28  1  0
 28 33  2  0
 28 29  1  0
 29 30  2  0
 30 31  1  0
 32 31  2  0
 33 32  1  0
 34 35  2  0
 34 36  1  0
M  END
$$$$
