YKW.pdb
     RDKit          3D

 36 38  0  0  1  0  0  0  0  0999 V2000
   25.3741  -13.4610  -22.9985 O   0  0  0  0  0  0  0  0  0  0  0  0
   25.0866  -14.4912  -22.1118 C   0  0  0  0  0  0  0  0  0  0  0  0
   24.1925  -15.4550  -22.5245 C   0  0  0  0  0  0  0  0  0  0  0  0
   23.8544  -16.5107  -21.7025 C   0  0  0  0  0  0  0  0  0  0  0  0
   24.3998  -16.6296  -20.4499 C   0  0  0  0  0  0  0  0  0  0  0  0
   24.0297  -17.7699  -19.5734 C   0  0  0  0  0  0  0  0  0  0  0  0
   25.2775  -18.6160  -19.3883 C   0  0  2  0  0  0  0  0  0  0  0  0
   25.6267  -19.2522  -20.6315 N   0  0  0  0  0  0  0  0  0  0  0  0
   25.0628  -19.6086  -18.3056 C   0  0  0  0  0  0  0  0  0  0  0  0
   24.3825  -20.6629  -18.5340 O   0  0  0  0  0  0  0  0  0  0  0  0
   25.2933  -15.6488  -20.0621 C   0  0  0  0  0  0  0  0  0  0  0  0
   25.6354  -14.5960  -20.8724 C   0  0  0  0  0  0  0  0  0  0  0  0
   25.6304  -19.3468  -17.0339 N   0  0  0  0  0  0  0  0  0  0  0  0
   25.5147  -20.2972  -15.9508 C   0  0  1  0  0  0  0  0  0  0  0  0
   26.7426  -20.2306  -15.0543 C   0  0  0  0  0  0  0  0  0  0  0  0
   27.9526  -20.7924  -15.7657 C   0  0  0  0  0  0  0  0  0  0  0  0
   27.8946  -22.2913  -15.9210 C   0  0  0  0  0  0  0  0  0  0  0  0
   29.0061  -22.8086  -16.8217 C   0  0  0  0  0  0  0  0  0  0  0  0
   28.7708  -24.2127  -17.1283 N   0  0  0  0  0  0  0  0  0  0  0  0
   24.2790  -19.9943  -15.1964 C   0  0  0  0  0  0  0  0  0  0  0  0
   24.1635  -18.8823  -14.6371 O   0  0  0  0  0  0  0  0  0  0  0  0
   23.1895  -20.9132  -15.0659 N   0  0  0  0  0  0  0  0  0  0  0  0
   22.0122  -20.6447  -14.3143 C   0  0  1  0  0  0  0  0  0  0  0  0
   21.3660  -19.3636  -14.7458 C   0  0  0  0  0  0  0  0  0  0  0  0
   20.8219  -19.3431  -16.1014 C   0  0  0  0  0  0  0  0  0  0  0  0
   20.0838  -20.3749  -16.6749 C   0  0  0  0  0  0  0  0  0  0  0  0
   19.7912  -19.9904  -17.9131 N   0  0  0  0  0  0  0  0  0  0  0  0
   20.3010  -18.7684  -18.1646 C   0  0  0  0  0  0  0  0  0  0  0  0
   20.2551  -17.9676  -19.2787 C   0  0  0  0  0  0  0  0  0  0  0  0
   20.8573  -16.7195  -19.3016 C   0  0  0  0  0  0  0  0  0  0  0  0
   21.5234  -16.2592  -18.1802 C   0  0  0  0  0  0  0  0  0  0  0  0
   21.5580  -17.0791  -17.0717 C   0  0  0  0  0  0  0  0  0  0  0  0
   20.9664  -18.3286  -17.0221 C   0  0  0  0  0  0  0  0  0  0  0  0
   21.0396  -21.7604  -14.3179 C   0  0  0  0  0  0  0  0  0  0  0  0
   21.1612  -22.7930  -15.0256 O   0  0  0  0  0  0  0  0  0  0  0  0
   19.9250  -21.6720  -13.4965 O   0  0  0  0  0  0  0  0  0  0  0  0
  2  3  2  0
  2  1  1  0
  4  3  1  0
  5  4  2  0
  6  5  1  0
  7  6  1  0
  7  8  1  6
  9  7  1  0
 10  9  2  0
 11  5  1  0
 11 12  2  0
 12  2  1  0
 13  9  1  0
 14 20  1  0
 14 13  1  0
 14 15  1  1
 16 15  1  0
 17 16  1  0
 18 19  1  0
 18 17  1  0
 20 22  1  0
 21 20  2  0
 22 23  1  0
 23 34  1  0
 23 24  1  6
 24 25  1  0
 25 33  1  0
 26 27  1  0
 26 25  2  0
 27 28  1  0
 28 33  2  0
 28 29  1  0
 29 30  2  0
 30 31  1  0
 32 31  2  0
 33 32  1  0
 34 35  2  0
 34 36  1  0
M  END
$$$$
