YKW.pdb
     RDKit          3D

 36 38  0  0  1  0  0  0  0  0999 V2000
   18.6750  -15.2093  -15.9884 O   0  0  0  0  0  0  0  0  0  0  0  0
   19.5706  -16.1632  -15.5214 C   0  0  0  0  0  0  0  0  0  0  0  0
   20.8725  -15.7643  -15.3102 C   0  0  0  0  0  0  0  0  0  0  0  0
   21.8225  -16.6517  -14.8473 C   0  0  0  0  0  0  0  0  0  0  0  0
   21.4965  -17.9576  -14.5844 C   0  0  0  0  0  0  0  0  0  0  0  0
   22.5262  -18.9043  -14.0859 C   0  0  0  0  0  0  0  0  0  0  0  0
   23.4335  -19.2371  -15.2578 C   0  0  2  0  0  0  0  0  0  0  0  0
   22.6737  -19.8785  -16.2987 N   0  0  0  0  0  0  0  0  0  0  0  0
   24.5633  -20.0851  -14.8015 C   0  0  0  0  0  0  0  0  0  0  0  0
   24.3559  -21.3005  -14.4755 O   0  0  0  0  0  0  0  0  0  0  0  0
   20.1838  -18.3300  -14.8053 C   0  0  0  0  0  0  0  0  0  0  0  0
   19.2327  -17.4548  -15.2651 C   0  0  0  0  0  0  0  0  0  0  0  0
   25.8551  -19.5059  -14.7426 N   0  0  0  0  0  0  0  0  0  0  0  0
   26.9664  -20.2103  -14.1439 C   0  0  1  0  0  0  0  0  0  0  0  0
   28.2795  -19.5293  -14.5012 C   0  0  0  0  0  0  0  0  0  0  0  0
   29.4481  -20.2771  -13.9005 C   0  0  0  0  0  0  0  0  0  0  0  0
   29.8116  -21.5156  -14.6803 C   0  0  0  0  0  0  0  0  0  0  0  0
   31.0612  -22.1842  -14.1272 C   0  0  0  0  0  0  0  0  0  0  0  0
   31.2914  -23.4407  -14.8264 N   0  0  0  0  0  0  0  0  0  0  0  0
   26.7590  -20.2473  -12.6797 C   0  0  0  0  0  0  0  0  0  0  0  0
   26.7761  -19.1767  -12.0346 O   0  0  0  0  0  0  0  0  0  0  0  0
   26.5363  -21.4553  -11.9451 N   0  0  0  0  0  0  0  0  0  0  0  0
   26.2862  -21.4968  -10.5456 C   0  0  1  0  0  0  0  0  0  0  0  0
   27.5219  -21.1840   -9.7580 C   0  0  0  0  0  0  0  0  0  0  0  0
   27.3229  -20.4287   -8.5234 C   0  0  0  0  0  0  0  0  0  0  0  0
   26.1957  -19.6644   -8.2347 C   0  0  0  0  0  0  0  0  0  0  0  0
   26.4004  -19.1215   -7.0389 N   0  0  0  0  0  0  0  0  0  0  0  0
   27.5971  -19.4964   -6.5451 C   0  0  0  0  0  0  0  0  0  0  0  0
   28.2337  -19.2040   -5.3645 C   0  0  0  0  0  0  0  0  0  0  0  0
   29.4831  -19.7239   -5.0647 C   0  0  0  0  0  0  0  0  0  0  0  0
   30.1131  -20.5588   -5.9697 C   0  0  0  0  0  0  0  0  0  0  0  0
   29.4566  -20.8396   -7.1497 C   0  0  0  0  0  0  0  0  0  0  0  0
   28.2105  -20.3342   -7.4741 C   0  0  0  0  0  0  0  0  0  0  0  0
   25.1528  -20.6451  -10.1207 C   0  0  0  0  0  0  0  0  0  0  0  0
   24.5436  -19.8563  -10.8878 O   0  0  0  0  0  0  0  0  0  0  0  0
   24.7298  -20.7130   -8.8011 O   0  0  0  0  0  0  0  0  0  0  0  0
  2  3  2  0
  2  1  1  0
  4  3  1  0
  5  4  2  0
  6  5  1  0
  7  6  1  0
  7  8  1  6
  9  7  1  0
 10  9  2  0
 11  5  1  0
 11 12  2  0
 12  2  1  0
 13  9  1  0
 14 20  1  0
 14 13  1  0
 14 15  1  1
 16 15  1  0
 17 16  1  0
 18 19  1  0
 18 17  1  0
 20 22  1  0
 21 20  2  0
 22 23  1  0
 23 34  1  0
 23 24  1  1
 24 25  1  0
 25 33  1  0
 26 27  1  0
 26 25  2  0
 27 28  1  0
 28 33  2  0
 28 29  1  0
 29 30  2  0
 30 31  1  0
 32 31  2  0
 33 32  1  0
 34 35  2  0
 34 36  1  0
M  END
$$$$
