YKW.pdb
     RDKit          3D

 36 38  0  0  1  0  0  0  0  0999 V2000
   32.3813  -15.5243  -19.3669 O   0  0  0  0  0  0  0  0  0  0  0  0
   31.2948  -15.7700  -18.5366 C   0  0  0  0  0  0  0  0  0  0  0  0
   31.3180  -16.9231  -17.7826 C   0  0  0  0  0  0  0  0  0  0  0  0
   30.2772  -17.2391  -16.9334 C   0  0  0  0  0  0  0  0  0  0  0  0
   29.1890  -16.4127  -16.8164 C   0  0  0  0  0  0  0  0  0  0  0  0
   28.0746  -16.7617  -15.8991 C   0  0  0  0  0  0  0  0  0  0  0  0
   27.2828  -17.8768  -16.5601 C   0  0  2  0  0  0  0  0  0  0  0  0
   26.6189  -17.3759  -17.7351 N   0  0  0  0  0  0  0  0  0  0  0  0
   26.3197  -18.4593  -15.5923 C   0  0  0  0  0  0  0  0  0  0  0  0
   25.1431  -17.9767  -15.4962 O   0  0  0  0  0  0  0  0  0  0  0  0
   29.1924  -15.2633  -17.5842 C   0  0  0  0  0  0  0  0  0  0  0  0
   30.2225  -14.9410  -18.4310 C   0  0  0  0  0  0  0  0  0  0  0  0
   26.7473  -19.5497  -14.7948 N   0  0  0  0  0  0  0  0  0  0  0  0
   25.8773  -20.1400  -13.8027 C   0  0  1  0  0  0  0  0  0  0  0  0
   24.8703  -21.0681  -14.4663 C   0  0  0  0  0  0  0  0  0  0  0  0
   25.5781  -22.1784  -15.2093 C   0  0  0  0  0  0  0  0  0  0  0  0
   24.8853  -23.5102  -15.0669 C   0  0  0  0  0  0  0  0  0  0  0  0
   25.5203  -24.5738  -15.9500 C   0  0  0  0  0  0  0  0  0  0  0  0
   24.8226  -25.8389  -15.7670 N   0  0  0  0  0  0  0  0  0  0  0  0
   26.7146  -20.8651  -12.8223 C   0  0  0  0  0  0  0  0  0  0  0  0
   26.9875  -22.0680  -13.0256 O   0  0  0  0  0  0  0  0  0  0  0  0
   27.2396  -20.2622  -11.6351 N   0  0  0  0  0  0  0  0  0  0  0  0
   26.8545  -20.6384  -10.3186 C   0  0  1  0  0  0  0  0  0  0  0  0
   26.9098  -19.4741   -9.3771 C   0  0  0  0  0  0  0  0  0  0  0  0
   26.7480  -19.7862   -7.9591 C   0  0  0  0  0  0  0  0  0  0  0  0
   25.6682  -20.4784   -7.4180 C   0  0  0  0  0  0  0  0  0  0  0  0
   25.8752  -20.5410   -6.1066 N   0  0  0  0  0  0  0  0  0  0  0  0
   27.0289  -19.9270   -5.7775 C   0  0  0  0  0  0  0  0  0  0  0  0
   27.6574  -19.7430   -4.5710 C   0  0  0  0  0  0  0  0  0  0  0  0
   28.8677  -19.0740   -4.4769 C   0  0  0  0  0  0  0  0  0  0  0  0
   29.4660  -18.5757   -5.6200 C   0  0  0  0  0  0  0  0  0  0  0  0
   28.8180  -18.7710   -6.8218 C   0  0  0  0  0  0  0  0  0  0  0  0
   27.6101  -19.4340   -6.9439 C   0  0  0  0  0  0  0  0  0  0  0  0
   25.5387  -21.3130  -10.2562 C   0  0  0  0  0  0  0  0  0  0  0  0
   25.3785  -22.5510  -10.4093 O   0  0  0  0  0  0  0  0  0  0  0  0
   24.4093  -20.5439  -10.0154 O   0  0  0  0  0  0  0  0  0  0  0  0
  2  3  2  0
  2  1  1  0
  4  3  1  0
  5  4  2  0
  6  5  1  0
  7  6  1  0
  7  8  1  6
  9  7  1  0
 10  9  2  0
 11  5  1  0
 11 12  2  0
 12  2  1  0
 13  9  1  0
 14 20  1  0
 14 13  1  0
 14 15  1  6
 16 15  1  0
 17 16  1  0
 18 19  1  0
 18 17  1  0
 20 22  1  0
 21 20  2  0
 22 23  1  0
 23 34  1  0
 23 24  1  1
 24 25  1  0
 25 33  1  0
 26 27  1  0
 26 25  2  0
 27 28  1  0
 28 33  2  0
 28 29  1  0
 29 30  2  0
 30 31  1  0
 32 31  2  0
 33 32  1  0
 34 35  2  0
 34 36  1  0
M  END
$$$$
