YKW.pdb
     RDKit          3D

 36 38  0  0  1  0  0  0  0  0999 V2000
   30.7047  -21.2072   -9.3810 O   0  0  0  0  0  0  0  0  0  0  0  0
   29.7230  -20.9146  -10.3195 C   0  0  0  0  0  0  0  0  0  0  0  0
   28.4436  -21.3561  -10.0608 C   0  0  0  0  0  0  0  0  0  0  0  0
   27.4125  -21.1060  -10.9432 C   0  0  0  0  0  0  0  0  0  0  0  0
   27.6332  -20.4100  -12.1040 C   0  0  0  0  0  0  0  0  0  0  0  0
   26.5165  -20.1457  -13.0466 C   0  0  0  0  0  0  0  0  0  0  0  0
   26.4210  -21.3439  -13.9752 C   0  0  2  0  0  0  0  0  0  0  0  0
   27.5275  -21.3392  -14.8960 N   0  0  0  0  0  0  0  0  0  0  0  0
   25.1171  -21.3347  -14.6847 C   0  0  0  0  0  0  0  0  0  0  0  0
   24.9475  -20.5759  -15.6955 O   0  0  0  0  0  0  0  0  0  0  0  0
   28.9257  -19.9794  -12.3378 C   0  0  0  0  0  0  0  0  0  0  0  0
   29.9569  -20.2233  -11.4664 C   0  0  0  0  0  0  0  0  0  0  0  0
   24.0879  -22.1835  -14.2068 N   0  0  0  0  0  0  0  0  0  0  0  0
   22.8478  -22.3406  -14.9327 C   0  0  1  0  0  0  0  0  0  0  0  0
   22.4484  -23.8080  -14.9874 C   0  0  0  0  0  0  0  0  0  0  0  0
   23.1846  -24.5193  -16.0998 C   0  0  0  0  0  0  0  0  0  0  0  0
   24.4364  -25.2114  -15.6221 C   0  0  0  0  0  0  0  0  0  0  0  0
   25.3013  -25.6781  -16.7833 C   0  0  0  0  0  0  0  0  0  0  0  0
   26.4548  -26.4042  -16.2704 N   0  0  0  0  0  0  0  0  0  0  0  0
   21.8111  -21.5240  -14.2644 C   0  0  0  0  0  0  0  0  0  0  0  0
   22.1092  -20.8878  -13.2305 O   0  0  0  0  0  0  0  0  0  0  0  0
   20.4648  -21.4169  -14.7384 N   0  0  0  0  0  0  0  0  0  0  0  0
   19.5080  -20.5081  -14.2076 C   0  0  1  0  0  0  0  0  0  0  0  0
   19.9914  -19.0923  -14.2902 C   0  0  0  0  0  0  0  0  0  0  0  0
   20.1330  -18.5390  -15.6348 C   0  0  0  0  0  0  0  0  0  0  0  0
   19.0725  -18.1399  -16.4435 C   0  0  0  0  0  0  0  0  0  0  0  0
   19.6037  -17.7173  -17.5862 N   0  0  0  0  0  0  0  0  0  0  0  0
   20.9469  -17.8232  -17.5541 C   0  0  0  0  0  0  0  0  0  0  0  0
   21.9132  -17.5106  -18.4777 C   0  0  0  0  0  0  0  0  0  0  0  0
   23.2602  -17.7014  -18.2125 C   0  0  0  0  0  0  0  0  0  0  0  0
   23.6518  -18.2187  -16.9910 C   0  0  0  0  0  0  0  0  0  0  0  0
   22.6654  -18.5262  -16.0775 C   0  0  0  0  0  0  0  0  0  0  0  0
   21.3147  -18.3464  -16.3162 C   0  0  0  0  0  0  0  0  0  0  0  0
   18.1620  -20.6481  -14.8069 C   0  0  0  0  0  0  0  0  0  0  0  0
   17.9594  -20.9075  -16.0208 O   0  0  0  0  0  0  0  0  0  0  0  0
   17.0519  -20.4854  -13.9908 O   0  0  0  0  0  0  0  0  0  0  0  0
  2  3  2  0
  2  1  1  0
  4  3  1  0
  5  4  2  0
  6  5  1  0
  7  6  1  0
  7  8  1  6
  9  7  1  0
 10  9  2  0
 11  5  1  0
 11 12  2  0
 12  2  1  0
 13  9  1  0
 14 20  1  0
 14 13  1  0
 14 15  1  1
 16 15  1  0
 17 16  1  0
 18 19  1  0
 18 17  1  0
 20 22  1  0
 21 20  2  0
 22 23  1  0
 23 34  1  0
 23 24  1  6
 24 25  1  0
 25 33  1  0
 26 27  1  0
 26 25  2  0
 27 28  1  0
 28 33  2  0
 28 29  1  0
 29 30  2  0
 30 31  1  0
 32 31  2  0
 33 32  1  0
 34 35  2  0
 34 36  1  0
M  END
$$$$
