YKW.pdb
     RDKit          3D

 36 38  0  0  1  0  0  0  0  0999 V2000
   30.5471  -26.0029  -18.9264 O   0  0  0  0  0  0  0  0  0  0  0  0
   30.0494  -25.0536  -18.0426 C   0  0  0  0  0  0  0  0  0  0  0  0
   30.7956  -23.9116  -17.8487 C   0  0  0  0  0  0  0  0  0  0  0  0
   30.3701  -22.9211  -16.9872 C   0  0  0  0  0  0  0  0  0  0  0  0
   29.1906  -23.0464  -16.2989 C   0  0  0  0  0  0  0  0  0  0  0  0
   28.7413  -21.9744  -15.3747 C   0  0  0  0  0  0  0  0  0  0  0  0
   27.4042  -21.4703  -15.8896 C   0  0  2  0  0  0  0  0  0  0  0  0
   27.5916  -20.7656  -17.1309 N   0  0  0  0  0  0  0  0  0  0  0  0
   26.7550  -20.6140  -14.8654 C   0  0  0  0  0  0  0  0  0  0  0  0
   27.2884  -19.5047  -14.5318 O   0  0  0  0  0  0  0  0  0  0  0  0
   28.4627  -24.2019  -16.5125 C   0  0  0  0  0  0  0  0  0  0  0  0
   28.8778  -25.1917  -17.3669 C   0  0  0  0  0  0  0  0  0  0  0  0
   25.5444  -21.0657  -14.2836 N   0  0  0  0  0  0  0  0  0  0  0  0
   24.8942  -20.3192  -13.2303 C   0  0  1  0  0  0  0  0  0  0  0  0
   23.4093  -20.1680  -13.5272 C   0  0  0  0  0  0  0  0  0  0  0  0
   23.1707  -19.0175  -14.4786 C   0  0  0  0  0  0  0  0  0  0  0  0
   21.7070  -18.7821  -14.7543 C   0  0  0  0  0  0  0  0  0  0  0  0
   21.4971  -17.9219  -15.9913 C   0  0  0  0  0  0  0  0  0  0  0  0
   21.2528  -18.7778  -17.1440 N   0  0  0  0  0  0  0  0  0  0  0  0
   25.1191  -21.0274  -11.9513 C   0  0  0  0  0  0  0  0  0  0  0  0
   24.8655  -22.2493  -11.8784 O   0  0  0  0  0  0  0  0  0  0  0  0
   25.6179  -20.3869  -10.7724 N   0  0  0  0  0  0  0  0  0  0  0  0
   25.7634  -21.0400   -9.5173 C   0  0  1  0  0  0  0  0  0  0  0  0
   27.0395  -20.6455   -8.8383 C   0  0  0  0  0  0  0  0  0  0  0  0
   27.0547  -20.7603   -7.3820 C   0  0  0  0  0  0  0  0  0  0  0  0
   26.2751  -21.6507   -6.6490 C   0  0  0  0  0  0  0  0  0  0  0  0
   26.5562  -21.4366   -5.3677 N   0  0  0  0  0  0  0  0  0  0  0  0
   27.4738  -20.4578   -5.2394 C   0  0  0  0  0  0  0  0  0  0  0  0
   28.0720  -19.9012   -4.1362 C   0  0  0  0  0  0  0  0  0  0  0  0
   29.0142  -18.8913   -4.2526 C   0  0  0  0  0  0  0  0  0  0  0  0
   29.3681  -18.4253   -5.5058 C   0  0  0  0  0  0  0  0  0  0  0  0
   28.7553  -18.9976   -6.6009 C   0  0  0  0  0  0  0  0  0  0  0  0
   27.8120  -20.0057   -6.5132 C   0  0  0  0  0  0  0  0  0  0  0  0
   24.6024  -20.8595   -8.6173 C   0  0  0  0  0  0  0  0  0  0  0  0
   23.7399  -19.9553   -8.7598 O   0  0  0  0  0  0  0  0  0  0  0  0
   24.4471  -21.7333   -7.5509 O   0  0  0  0  0  0  0  0  0  0  0  0
  2  3  2  0
  2  1  1  0
  4  3  1  0
  5  4  2  0
  6  5  1  0
  7  6  1  0
  7  8  1  6
  9  7  1  0
 10  9  2  0
 11  5  1  0
 11 12  2  0
 12  2  1  0
 13  9  1  0
 14 20  1  0
 14 13  1  0
 14 15  1  6
 16 15  1  0
 17 16  1  0
 18 19  1  0
 18 17  1  0
 20 22  1  0
 21 20  2  0
 22 23  1  0
 23 34  1  0
 23 24  1  1
 24 25  1  0
 25 33  1  0
 26 27  1  0
 26 25  2  0
 27 28  1  0
 28 33  2  0
 28 29  1  0
 29 30  2  0
 30 31  1  0
 32 31  2  0
 33 32  1  0
 34 35  2  0
 34 36  1  0
M  END
$$$$
