YKW.pdb
     RDKit          3D

 36 38  0  0  1  0  0  0  0  0999 V2000
   26.5982  -14.4595  -21.9791 O   0  0  0  0  0  0  0  0  0  0  0  0
   26.4875  -15.6302  -21.2395 C   0  0  0  0  0  0  0  0  0  0  0  0
   25.4453  -16.4788  -21.5435 C   0  0  0  0  0  0  0  0  0  0  0  0
   25.2666  -17.6614  -20.8550 C   0  0  0  0  0  0  0  0  0  0  0  0
   26.1227  -18.0251  -19.8474 C   0  0  0  0  0  0  0  0  0  0  0  0
   25.9218  -19.3003  -19.1132 C   0  0  0  0  0  0  0  0  0  0  0  0
   26.9919  -20.2662  -19.5919 C   0  0  2  0  0  0  0  0  0  0  0  0
   26.7777  -20.5862  -20.9789 N   0  0  0  0  0  0  0  0  0  0  0  0
   26.9949  -21.4835  -18.7423 C   0  0  0  0  0  0  0  0  0  0  0  0
   26.2537  -22.4752  -19.0482 O   0  0  0  0  0  0  0  0  0  0  0  0
   27.1588  -17.1553  -19.5639 C   0  0  0  0  0  0  0  0  0  0  0  0
   27.3444  -15.9777  -20.2429 C   0  0  0  0  0  0  0  0  0  0  0  0
   27.8351  -21.5027  -17.6014 N   0  0  0  0  0  0  0  0  0  0  0  0
   27.8473  -22.6310  -16.6979 C   0  0  1  0  0  0  0  0  0  0  0  0
   29.2765  -23.0818  -16.4329 C   0  0  0  0  0  0  0  0  0  0  0  0
   29.9026  -23.6357  -17.6926 C   0  0  0  0  0  0  0  0  0  0  0  0
   30.4678  -25.0208  -17.5031 C   0  0  0  0  0  0  0  0  0  0  0  0
   31.2744  -25.4713  -18.7117 C   0  0  0  0  0  0  0  0  0  0  0  0
   31.6377  -26.8733  -18.5598 N   0  0  0  0  0  0  0  0  0  0  0  0
   27.1668  -22.2322  -15.4466 C   0  0  0  0  0  0  0  0  0  0  0  0
   27.8529  -21.9905  -14.4300 O   0  0  0  0  0  0  0  0  0  0  0  0
   25.7461  -22.1044  -15.3278 N   0  0  0  0  0  0  0  0  0  0  0  0
   25.0909  -21.5842  -14.1776 C   0  0  1  0  0  0  0  0  0  0  0  0
   25.6169  -20.2296  -13.8122 C   0  0  0  0  0  0  0  0  0  0  0  0
   25.3542  -19.1584  -14.7701 C   0  0  0  0  0  0  0  0  0  0  0  0
   24.0930  -18.6441  -15.0579 C   0  0  0  0  0  0  0  0  0  0  0  0
   24.2666  -17.7084  -15.9858 N   0  0  0  0  0  0  0  0  0  0  0  0
   25.5702  -17.5945  -16.3083 C   0  0  0  0  0  0  0  0  0  0  0  0
   26.2275  -16.7755  -17.1924 C   0  0  0  0  0  0  0  0  0  0  0  0
   27.6033  -16.8327  -17.3505 C   0  0  0  0  0  0  0  0  0  0  0  0
   28.3421  -17.7329  -16.6043 C   0  0  0  0  0  0  0  0  0  0  0  0
   27.6625  -18.5466  -15.7221 C   0  0  0  0  0  0  0  0  0  0  0  0
   26.2910  -18.5107  -15.5451 C   0  0  0  0  0  0  0  0  0  0  0  0
   23.6153  -21.5705  -14.2918 C   0  0  0  0  0  0  0  0  0  0  0  0
   22.8444  -21.2146  -13.3639 O   0  0  0  0  0  0  0  0  0  0  0  0
   23.0384  -21.9719  -15.4880 O   0  0  0  0  0  0  0  0  0  0  0  0
  2  3  2  0
  2  1  1  0
  4  3  1  0
  5  4  2  0
  6  5  1  0
  7  6  1  0
  7  8  1  6
  9  7  1  0
 10  9  2  0
 11  5  1  0
 11 12  2  0
 12  2  1  0
 13  9  1  0
 14 20  1  0
 14 13  1  0
 14 15  1  1
 16 15  1  0
 17 16  1  0
 18 19  1  0
 18 17  1  0
 20 22  1  0
 21 20  2  0
 22 23  1  0
 23 34  1  0
 23 24  1  6
 24 25  1  0
 25 33  1  0
 26 27  1  0
 26 25  2  0
 27 28  1  0
 28 33  2  0
 28 29  1  0
 29 30  2  0
 30 31  1  0
 32 31  2  0
 33 32  1  0
 34 35  2  0
 34 36  1  0
M  END
$$$$
