EYG.pdb
     RDKit          3D

 26 26  0  0  1  0  0  0  0  0999 V2000
   27.9112  -21.7407  -17.2582 N   0  0  0  0  0  0  0  0  0  0  0  0
   26.9016  -22.7311  -17.0710 C   0  0  1  0  0  0  0  0  0  0  0  0
   27.5428  -24.1057  -17.2106 C   0  0  0  0  0  0  0  0  0  0  0  0
   28.2334  -24.2050  -18.5478 C   0  0  0  0  0  0  0  0  0  0  0  0
   27.2031  -24.6207  -19.5483 C   0  0  0  0  0  0  0  0  0  0  0  0
   26.8116  -23.7639  -20.3717 O   0  0  0  0  0  0  0  0  0  0  0  0
   26.2291  -22.6548  -15.7473 C   0  0  0  0  0  0  0  0  0  0  0  0
   25.4031  -23.5375  -15.3904 O   0  0  0  0  0  0  0  0  0  0  0  0
   26.6817  -25.8883  -19.5926 O   0  0  0  0  0  0  0  0  0  0  0  0
   24.8604  -20.3183   -7.3440 O   0  0  0  0  0  0  0  0  0  0  0  0
   25.3414  -20.4329   -8.6410 C   0  0  0  0  0  0  0  0  0  0  0  0
   25.2624  -21.6301   -9.3011 C   0  0  0  0  0  0  0  0  0  0  0  0
   25.7431  -21.7477  -10.5994 C   0  0  0  0  0  0  0  0  0  0  0  0
   26.3101  -20.6840  -11.2675 C   0  0  0  0  0  0  0  0  0  0  0  0
   26.8018  -20.8675  -12.6379 C   0  0  0  0  0  0  0  0  0  0  0  0
   25.7980  -21.4277  -13.5946 C   0  0  2  0  0  0  0  0  0  0  0  0
   26.5057  -21.5989  -14.8763 N   0  0  0  0  0  0  0  0  0  0  0  0
   24.6450  -20.5441  -13.8510 C   0  0  0  0  0  0  0  0  0  0  0  0
   24.8455  -19.3816  -14.2792 O   0  0  0  0  0  0  0  0  0  0  0  0
   26.3801  -19.4884  -10.5859 C   0  0  0  0  0  0  0  0  0  0  0  0
   25.9036  -19.3564   -9.2878 C   0  0  0  0  0  0  0  0  0  0  0  0
   23.3284  -20.9707  -13.6279 N   0  0  0  0  0  0  0  0  0  0  0  0
   22.1665  -20.1320  -13.7331 C   0  0  0  0  0  0  0  0  0  0  0  0
   21.2839  -20.2047  -12.5683 C   0  0  0  0  0  0  0  0  0  0  0  0
   20.7740  -21.4092  -12.1290 O   0  0  0  0  0  0  0  0  0  0  0  0
   20.9797  -19.1601  -11.9517 O   0  0  0  0  0  0  0  0  0  0  0  0
  2  1  1  1
  2  7  1  0
  3  4  1  0
  3  2  1  0
  4  5  1  0
  5  6  2  0
  7  8  2  0
  9  5  1  0
 10 11  1  0
 11 21  2  0
 12 11  1  0
 12 13  2  0
 13 14  1  0
 14 20  2  0
 14 15  1  0
 16 15  1  1
 16 18  1  0
 17 16  1  0
 17  7  1  0
 18 19  2  0
 18 22  1  0
 21 20  1  0
 22 23  1  0
 24 25  1  0
 24 23  1  0
 26 24  2  0
M  END
$$$$
