EYG.pdb
     RDKit          3D

 26 26  0  0  1  0  0  0  0  0999 V2000
   25.1932  -24.4150  -16.0911 N   0  0  0  0  0  0  0  0  0  0  0  0
   25.6951  -23.1753  -15.5945 C   0  0  1  0  0  0  0  0  0  0  0  0
   25.3148  -22.0736  -16.5752 C   0  0  0  0  0  0  0  0  0  0  0  0
   23.8402  -22.1590  -16.8804 C   0  0  0  0  0  0  0  0  0  0  0  0
   23.6920  -22.1034  -18.3671 C   0  0  0  0  0  0  0  0  0  0  0  0
   23.5070  -23.1813  -18.9748 O   0  0  0  0  0  0  0  0  0  0  0  0
   25.1709  -22.8146  -14.2509 C   0  0  0  0  0  0  0  0  0  0  0  0
   24.1235  -23.3520  -13.8004 O   0  0  0  0  0  0  0  0  0  0  0  0
   23.7511  -20.9302  -19.0747 O   0  0  0  0  0  0  0  0  0  0  0  0
   25.9251  -19.7943   -5.8969 O   0  0  0  0  0  0  0  0  0  0  0  0
   26.0882  -20.1454   -7.2299 C   0  0  0  0  0  0  0  0  0  0  0  0
   26.8781  -19.3849   -8.0503 C   0  0  0  0  0  0  0  0  0  0  0  0
   27.0431  -19.7339   -9.3850 C   0  0  0  0  0  0  0  0  0  0  0  0
   26.4302  -20.8406   -9.9317 C   0  0  0  0  0  0  0  0  0  0  0  0
   26.6403  -21.1599  -11.3486 C   0  0  0  0  0  0  0  0  0  0  0  0
   25.4015  -21.5371  -12.0968 C   0  0  2  0  0  0  0  0  0  0  0  0
   25.8359  -21.8709  -13.4652 N   0  0  0  0  0  0  0  0  0  0  0  0
   24.4072  -20.4534  -12.2100 C   0  0  0  0  0  0  0  0  0  0  0  0
   24.7827  -19.3104  -12.5669 O   0  0  0  0  0  0  0  0  0  0  0  0
   25.6399  -21.5925   -9.0897 C   0  0  0  0  0  0  0  0  0  0  0  0
   25.4659  -21.2554   -7.7534 C   0  0  0  0  0  0  0  0  0  0  0  0
   23.0508  -20.6683  -11.9283 N   0  0  0  0  0  0  0  0  0  0  0  0
   22.0410  -19.6462  -11.9340 C   0  0  0  0  0  0  0  0  0  0  0  0
   20.7070  -20.1385  -11.5894 C   0  0  0  0  0  0  0  0  0  0  0  0
   19.6331  -19.2798  -11.4747 O   0  0  0  0  0  0  0  0  0  0  0  0
   20.5260  -21.3602  -11.3927 O   0  0  0  0  0  0  0  0  0  0  0  0
  2  1  1  6
  2  7  1  0
  3  4  1  0
  3  2  1  0
  4  5  1  0
  5  6  2  0
  7  8  2  0
  9  5  1  0
 10 11  1  0
 11 21  2  0
 12 11  1  0
 12 13  2  0
 13 14  1  0
 14 20  2  0
 14 15  1  0
 16 15  1  1
 16 18  1  0
 17 16  1  0
 17  7  1  0
 18 19  2  0
 18 22  1  0
 21 20  1  0
 22 23  1  0
 24 25  1  0
 24 23  1  0
 26 24  2  0
M  END
$$$$
