EYG.pdb
     RDKit          3D

 26 26  0  0  1  0  0  0  0  0999 V2000
   25.1143  -20.3252  -18.8408 N   0  0  0  0  0  0  0  0  0  0  0  0
   24.2898  -19.6448  -17.8961 C   0  0  1  0  0  0  0  0  0  0  0  0
   22.9176  -19.4285  -18.5212 C   0  0  0  0  0  0  0  0  0  0  0  0
   23.0625  -18.6155  -19.7832 C   0  0  0  0  0  0  0  0  0  0  0  0
   23.5818  -17.2708  -19.3863 C   0  0  0  0  0  0  0  0  0  0  0  0
   24.5892  -16.8350  -19.9868 O   0  0  0  0  0  0  0  0  0  0  0  0
   24.1161  -20.3812  -16.6163 C   0  0  0  0  0  0  0  0  0  0  0  0
   23.6740  -21.5615  -16.6049 O   0  0  0  0  0  0  0  0  0  0  0  0
   23.0006  -16.5123  -18.4028 O   0  0  0  0  0  0  0  0  0  0  0  0
   25.0304  -21.6571   -7.8306 O   0  0  0  0  0  0  0  0  0  0  0  0
   25.1175  -21.2388   -9.1512 C   0  0  0  0  0  0  0  0  0  0  0  0
   24.3855  -20.1647   -9.5826 C   0  0  0  0  0  0  0  0  0  0  0  0
   24.4707  -19.7438  -10.9040 C   0  0  0  0  0  0  0  0  0  0  0  0
   25.2807  -20.3772  -11.8216 C   0  0  0  0  0  0  0  0  0  0  0  0
   25.3296  -19.8887  -13.2046 C   0  0  0  0  0  0  0  0  0  0  0  0
   24.2819  -20.4572  -14.1079 C   0  0  2  0  0  0  0  0  0  0  0  0
   24.4429  -19.7719  -15.4030 N   0  0  0  0  0  0  0  0  0  0  0  0
   22.8977  -20.2158  -13.6590 C   0  0  0  0  0  0  0  0  0  0  0  0
   22.3871  -19.0816  -13.8259 O   0  0  0  0  0  0  0  0  0  0  0  0
   26.0089  -21.4554  -11.3676 C   0  0  0  0  0  0  0  0  0  0  0  0
   25.9335  -21.8872  -10.0494 C   0  0  0  0  0  0  0  0  0  0  0  0
   22.1366  -21.2230  -13.0494 N   0  0  0  0  0  0  0  0  0  0  0  0
   20.8558  -21.0209  -12.4307 C   0  0  0  0  0  0  0  0  0  0  0  0
   19.7961  -21.8611  -12.9893 C   0  0  0  0  0  0  0  0  0  0  0  0
   19.1299  -22.7864  -12.2122 O   0  0  0  0  0  0  0  0  0  0  0  0
   19.4804  -21.7460  -14.1939 O   0  0  0  0  0  0  0  0  0  0  0  0
  2  1  1  6
  2  7  1  0
  3  4  1  0
  3  2  1  0
  4  5  1  0
  5  6  2  0
  7  8  2  0
  9  5  1  0
 10 11  1  0
 11 21  2  0
 12 11  1  0
 12 13  2  0
 13 14  1  0
 14 20  2  0
 14 15  1  0
 16 15  1  1
 16 18  1  0
 17 16  1  0
 17  7  1  0
 18 19  2  0
 18 22  1  0
 21 20  1  0
 22 23  1  0
 24 25  1  0
 24 23  1  0
 26 24  2  0
M  END
$$$$
