EYG.pdb
     RDKit          3D

 26 26  0  0  1  0  0  0  0  0999 V2000
   13.3937  -11.1664  -11.5940 N   0  0  0  0  0  0  0  0  0  0  0  0
   14.6825  -10.5784  -11.4254 C   0  0  1  0  0  0  0  0  0  0  0  0
   15.4457  -10.7051  -12.7376 C   0  0  0  0  0  0  0  0  0  0  0  0
   15.6120  -12.1636  -13.0838 C   0  0  0  0  0  0  0  0  0  0  0  0
   16.4064  -12.2305  -14.3486 C   0  0  0  0  0  0  0  0  0  0  0  0
   15.8127  -11.9880  -15.4230 O   0  0  0  0  0  0  0  0  0  0  0  0
   14.6378   -9.1430  -11.0407 C   0  0  0  0  0  0  0  0  0  0  0  0
   13.6410   -8.4276  -11.3292 O   0  0  0  0  0  0  0  0  0  0  0  0
   17.7414  -12.5434  -14.3700 O   0  0  0  0  0  0  0  0  0  0  0  0
   10.3218   -7.0441   -6.1950 O   0  0  0  0  0  0  0  0  0  0  0  0
   11.6030   -7.1346   -6.7214 C   0  0  0  0  0  0  0  0  0  0  0  0
   12.4149   -6.0322   -6.7495 C   0  0  0  0  0  0  0  0  0  0  0  0
   13.6978   -6.1198   -7.2758 C   0  0  0  0  0  0  0  0  0  0  0  0
   14.2002   -7.2985   -7.7834 C   0  0  0  0  0  0  0  0  0  0  0  0
   15.5626   -7.3312   -8.3277 C   0  0  0  0  0  0  0  0  0  0  0  0
   15.6475   -7.1931   -9.8144 C   0  0  2  0  0  0  0  0  0  0  0  0
   15.7051   -8.5652  -10.3500 N   0  0  0  0  0  0  0  0  0  0  0  0
   16.8541   -6.4910  -10.2907 C   0  0  0  0  0  0  0  0  0  0  0  0
   17.9849   -6.9747  -10.0409 O   0  0  0  0  0  0  0  0  0  0  0  0
   13.3675   -8.3959   -7.7458 C   0  0  0  0  0  0  0  0  0  0  0  0
   12.0828   -8.3228   -7.2225 C   0  0  0  0  0  0  0  0  0  0  0  0
   16.7698   -5.2946  -11.0167 N   0  0  0  0  0  0  0  0  0  0  0  0
   17.8986   -4.5268  -11.4647 C   0  0  0  0  0  0  0  0  0  0  0  0
   17.5299   -3.2819  -12.1393 C   0  0  0  0  0  0  0  0  0  0  0  0
   18.4873   -2.3724  -12.5394 O   0  0  0  0  0  0  0  0  0  0  0  0
   16.3259   -3.0278  -12.3625 O   0  0  0  0  0  0  0  0  0  0  0  0
  2  1  1  6
  2  7  1  0
  3  4  1  0
  3  2  1  0
  4  5  1  0
  5  6  2  0
  7  8  2  0
  9  5  1  0
 10 11  1  0
 11 21  2  0
 12 11  1  0
 12 13  2  0
 13 14  1  0
 14 20  2  0
 14 15  1  0
 16 15  1  1
 16 18  1  0
 17 16  1  0
 17  7  1  0
 18 19  2  0
 18 22  1  0
 21 20  1  0
 22 23  1  0
 24 25  1  0
 24 23  1  0
 26 24  2  0
M  END
$$$$
