EYG.pdb
     RDKit          3D

 26 26  0  0  1  0  0  0  0  0999 V2000
   17.5921   -9.4023  -16.5605 N   0  0  0  0  0  0  0  0  0  0  0  0
   18.2658   -9.6435  -15.3263 C   0  0  1  0  0  0  0  0  0  0  0  0
   18.6395  -11.1188  -15.2612 C   0  0  0  0  0  0  0  0  0  0  0  0
   18.3286  -11.7751  -16.5831 C   0  0  0  0  0  0  0  0  0  0  0  0
   18.5825  -13.2395  -16.4208 C   0  0  0  0  0  0  0  0  0  0  0  0
   18.9953  -13.6394  -15.3094 O   0  0  0  0  0  0  0  0  0  0  0  0
   19.5010   -8.8344  -15.1528 C   0  0  0  0  0  0  0  0  0  0  0  0
   20.1480   -8.8670  -14.0716 O   0  0  0  0  0  0  0  0  0  0  0  0
   18.3815  -14.1435  -17.4322 O   0  0  0  0  0  0  0  0  0  0  0  0
   26.6441   -4.6138  -18.3622 O   0  0  0  0  0  0  0  0  0  0  0  0
   25.5408   -5.4007  -18.0616 C   0  0  0  0  0  0  0  0  0  0  0  0
   24.4084   -5.3194  -18.8273 C   0  0  0  0  0  0  0  0  0  0  0  0
   23.3025   -6.1058  -18.5288 C   0  0  0  0  0  0  0  0  0  0  0  0
   23.2969   -6.9860  -17.4684 C   0  0  0  0  0  0  0  0  0  0  0  0
   22.0993   -7.7906  -17.2002 C   0  0  0  0  0  0  0  0  0  0  0  0
   21.2283   -7.2714  -16.1009 C   0  0  2  0  0  0  0  0  0  0  0  0
   19.9637   -8.0236  -16.1912 N   0  0  0  0  0  0  0  0  0  0  0  0
   20.8906   -5.8403  -16.2187 C   0  0  0  0  0  0  0  0  0  0  0  0
   20.1987   -5.4507  -17.1905 O   0  0  0  0  0  0  0  0  0  0  0  0
   24.4459   -7.0528  -16.7105 C   0  0  0  0  0  0  0  0  0  0  0  0
   25.5588   -6.2726  -16.9974 C   0  0  0  0  0  0  0  0  0  0  0  0
   21.3239   -4.9026  -15.2709 N   0  0  0  0  0  0  0  0  0  0  0  0
   21.0167   -3.4995  -15.3069 C   0  0  0  0  0  0  0  0  0  0  0  0
   19.6852   -3.1778  -14.7926 C   0  0  0  0  0  0  0  0  0  0  0  0
   18.7080   -2.6508  -15.6119 O   0  0  0  0  0  0  0  0  0  0  0  0
   19.4174   -3.3809  -13.5880 O   0  0  0  0  0  0  0  0  0  0  0  0
  2  1  1  6
  2  7  1  0
  3  4  1  0
  3  2  1  0
  4  5  1  0
  5  6  2  0
  7  8  2  0
  9  5  1  0
 10 11  1  0
 11 21  2  0
 12 11  1  0
 12 13  2  0
 13 14  1  0
 14 20  2  0
 14 15  1  0
 16 15  1  6
 16 18  1  0
 17 16  1  0
 17  7  1  0
 18 19  2  0
 18 22  1  0
 21 20  1  0
 22 23  1  0
 24 25  1  0
 24 23  1  0
 26 24  2  0
M  END
$$$$
