EYG.pdb
     RDKit          3D

 26 26  0  0  1  0  0  0  0  0999 V2000
   25.5939  -22.7688  -16.9036 N   0  0  0  0  0  0  0  0  0  0  0  0
   25.2219  -23.6792  -15.8701 C   0  0  1  0  0  0  0  0  0  0  0  0
   26.4665  -24.4340  -15.4213 C   0  0  0  0  0  0  0  0  0  0  0  0
   26.9398  -25.3318  -16.5370 C   0  0  0  0  0  0  0  0  0  0  0  0
   27.7284  -24.4840  -17.4830 C   0  0  0  0  0  0  0  0  0  0  0  0
   27.2436  -24.2707  -18.6165 O   0  0  0  0  0  0  0  0  0  0  0  0
   24.6149  -23.0197  -14.6840 C   0  0  0  0  0  0  0  0  0  0  0  0
   24.2580  -23.6950  -13.6814 O   0  0  0  0  0  0  0  0  0  0  0  0
   28.9445  -23.9418  -17.1551 O   0  0  0  0  0  0  0  0  0  0  0  0
   29.1398  -21.4323   -9.8143 O   0  0  0  0  0  0  0  0  0  0  0  0
   28.0741  -21.0485  -10.6167 C   0  0  0  0  0  0  0  0  0  0  0  0
   28.2903  -20.6783  -11.9173 C   0  0  0  0  0  0  0  0  0  0  0  0
   27.2256  -20.2937  -12.7229 C   0  0  0  0  0  0  0  0  0  0  0  0
   25.9289  -20.2684  -12.2568 C   0  0  0  0  0  0  0  0  0  0  0  0
   24.8441  -19.8523  -13.1532 C   0  0  0  0  0  0  0  0  0  0  0  0
   23.8676  -20.9310  -13.4988 C   0  0  2  0  0  0  0  0  0  0  0  0
   24.4318  -21.6354  -14.6643 N   0  0  0  0  0  0  0  0  0  0  0  0
   22.5343  -20.4389  -13.8938 C   0  0  0  0  0  0  0  0  0  0  0  0
   22.3587  -20.0101  -15.0601 O   0  0  0  0  0  0  0  0  0  0  0  0
   25.7327  -20.6445  -10.9457 C   0  0  0  0  0  0  0  0  0  0  0  0
   26.7877  -21.0313  -10.1290 C   0  0  0  0  0  0  0  0  0  0  0  0
   21.4563  -20.4377  -12.9976 N   0  0  0  0  0  0  0  0  0  0  0  0
   20.1365  -19.9595  -13.3042 C   0  0  0  0  0  0  0  0  0  0  0  0
   19.2554  -20.9869  -13.8599 C   0  0  0  0  0  0  0  0  0  0  0  0
   18.1347  -21.4155  -13.1786 O   0  0  0  0  0  0  0  0  0  0  0  0
   19.5143  -21.4929  -14.9738 O   0  0  0  0  0  0  0  0  0  0  0  0
  2  1  1  6
  2  7  1  0
  3  4  1  0
  3  2  1  0
  4  5  1  0
  5  6  2  0
  7  8  2  0
  9  5  1  0
 10 11  1  0
 11 21  2  0
 12 11  1  0
 12 13  2  0
 13 14  1  0
 14 20  2  0
 14 15  1  0
 16 15  1  6
 16 18  1  0
 17 16  1  0
 17  7  1  0
 18 19  2  0
 18 22  1  0
 21 20  1  0
 22 23  1  0
 24 25  1  0
 24 23  1  0
 26 24  2  0
M  END
$$$$
