EYG.pdb
     RDKit          3D

 26 26  0  0  1  0  0  0  0  0999 V2000
   26.7276  -23.4908  -17.6394 N   0  0  0  0  0  0  0  0  0  0  0  0
   26.6025  -22.2497  -16.9471 C   0  0  1  0  0  0  0  0  0  0  0  0
   25.6958  -21.3338  -17.7590 C   0  0  0  0  0  0  0  0  0  0  0  0
   26.3471  -21.0280  -19.0846 C   0  0  0  0  0  0  0  0  0  0  0  0
   27.4446  -20.0470  -18.8227 C   0  0  0  0  0  0  0  0  0  0  0  0
   28.6124  -20.3876  -19.1155 O   0  0  0  0  0  0  0  0  0  0  0  0
   26.0365  -22.3841  -15.5789 C   0  0  0  0  0  0  0  0  0  0  0  0
   25.3714  -23.4037  -15.2522 O   0  0  0  0  0  0  0  0  0  0  0  0
   27.2177  -18.8076  -18.2815 O   0  0  0  0  0  0  0  0  0  0  0  0
   24.9664  -20.2486   -6.9800 O   0  0  0  0  0  0  0  0  0  0  0  0
   25.3755  -20.3983   -8.2979 C   0  0  0  0  0  0  0  0  0  0  0  0
   25.5021  -19.3015   -9.1081 C   0  0  0  0  0  0  0  0  0  0  0  0
   25.9115  -19.4483  -10.4277 C   0  0  0  0  0  0  0  0  0  0  0  0
   26.2027  -20.6817  -10.9692 C   0  0  0  0  0  0  0  0  0  0  0  0
   26.6296  -20.7760  -12.3700 C   0  0  0  0  0  0  0  0  0  0  0  0
   25.6453  -21.4357  -13.2826 C   0  0  2  0  0  0  0  0  0  0  0  0
   26.2358  -21.3773  -14.6319 N   0  0  0  0  0  0  0  0  0  0  0  0
   24.3359  -20.7602  -13.3530 C   0  0  0  0  0  0  0  0  0  0  0  0
   24.1837  -19.7967  -14.1426 O   0  0  0  0  0  0  0  0  0  0  0  0
   26.0691  -21.7724  -10.1377 C   0  0  0  0  0  0  0  0  0  0  0  0
   25.6608  -21.6405   -8.8165 C   0  0  0  0  0  0  0  0  0  0  0  0
   23.2551  -21.1679  -12.5587 N   0  0  0  0  0  0  0  0  0  0  0  0
   21.8903  -21.2330  -13.0032 C   0  0  0  0  0  0  0  0  0  0  0  0
   21.2398  -19.9254  -13.0914 C   0  0  0  0  0  0  0  0  0  0  0  0
   20.3321  -19.5103  -12.1388 O   0  0  0  0  0  0  0  0  0  0  0  0
   21.5050  -19.1613  -14.0453 O   0  0  0  0  0  0  0  0  0  0  0  0
  2  1  1  6
  2  7  1  0
  3  4  1  0
  3  2  1  0
  4  5  1  0
  5  6  2  0
  7  8  2  0
  9  5  1  0
 10 11  1  0
 11 21  2  0
 12 11  1  0
 12 13  2  0
 13 14  1  0
 14 20  2  0
 14 15  1  0
 16 15  1  1
 16 18  1  0
 17 16  1  0
 17  7  1  0
 18 19  2  0
 18 22  1  0
 21 20  1  0
 22 23  1  0
 24 25  1  0
 24 23  1  0
 26 24  2  0
M  END
$$$$
