EYG.pdb
     RDKit          3D

 26 26  0  0  1  0  0  0  0  0999 V2000
   43.2461   -9.5962   -6.3225 N   0  0  0  0  0  0  0  0  0  0  0  0
   42.1443   -9.5098   -5.4203 C   0  0  1  0  0  0  0  0  0  0  0  0
   42.6725   -9.0984   -4.0520 C   0  0  0  0  0  0  0  0  0  0  0  0
   43.6785  -10.1158   -3.5747 C   0  0  0  0  0  0  0  0  0  0  0  0
   44.0849   -9.7209   -2.1911 C   0  0  0  0  0  0  0  0  0  0  0  0
   45.0715   -8.9613   -2.0683 O   0  0  0  0  0  0  0  0  0  0  0  0
   41.1050   -8.5329   -5.8396 C   0  0  0  0  0  0  0  0  0  0  0  0
   40.0468   -8.3881   -5.1702 O   0  0  0  0  0  0  0  0  0  0  0  0
   43.4237  -10.1562   -1.0714 O   0  0  0  0  0  0  0  0  0  0  0  0
   41.1145   -3.0545   -2.2141 O   0  0  0  0  0  0  0  0  0  0  0  0
   41.0679   -3.6285   -3.4771 C   0  0  0  0  0  0  0  0  0  0  0  0
   42.1082   -4.4006   -3.9210 C   0  0  0  0  0  0  0  0  0  0  0  0
   42.0643   -4.9765   -5.1847 C   0  0  0  0  0  0  0  0  0  0  0  0
   40.9915   -4.7991   -6.0313 C   0  0  0  0  0  0  0  0  0  0  0  0
   41.0007   -5.4311   -7.3557 C   0  0  0  0  0  0  0  0  0  0  0  0
   40.3036   -6.7524   -7.4249 C   0  0  2  0  0  0  0  0  0  0  0  0
   41.2885   -7.7578   -6.9866 N   0  0  0  0  0  0  0  0  0  0  0  0
   39.8654   -7.1372   -8.7798 C   0  0  0  0  0  0  0  0  0  0  0  0
   40.6811   -7.6943   -9.5540 O   0  0  0  0  0  0  0  0  0  0  0  0
   39.9552   -4.0190   -5.5659 C   0  0  0  0  0  0  0  0  0  0  0  0
   39.9856   -3.4372   -4.3049 C   0  0  0  0  0  0  0  0  0  0  0  0
   38.5584   -6.8957   -9.2256 N   0  0  0  0  0  0  0  0  0  0  0  0
   38.0834   -7.1642  -10.5548 C   0  0  0  0  0  0  0  0  0  0  0  0
   38.5110   -6.1720  -11.5415 C   0  0  0  0  0  0  0  0  0  0  0  0
   38.0852   -6.2347  -12.8525 O   0  0  0  0  0  0  0  0  0  0  0  0
   39.2774   -5.2447  -11.1999 O   0  0  0  0  0  0  0  0  0  0  0  0
  2  1  1  6
  2  7  1  0
  3  4  1  0
  3  2  1  0
  4  5  1  0
  5  6  2  0
  7  8  2  0
  9  5  1  0
 10 11  1  0
 11 21  2  0
 12 11  1  0
 12 13  2  0
 13 14  1  0
 14 20  2  0
 14 15  1  0
 16 15  1  6
 16 18  1  0
 17 16  1  0
 17  7  1  0
 18 19  2  0
 18 22  1  0
 21 20  1  0
 22 23  1  0
 24 25  1  0
 24 23  1  0
 26 24  2  0
M  END
$$$$
