EYG.pdb
     RDKit          3D

 26 26  0  0  1  0  0  0  0  0999 V2000
   21.3974  -11.5809  -20.0718 N   0  0  0  0  0  0  0  0  0  0  0  0
   20.1290  -11.2804  -19.4921 C   0  0  1  0  0  0  0  0  0  0  0  0
   19.2594  -12.5292  -19.5606 C   0  0  0  0  0  0  0  0  0  0  0  0
   19.0737  -12.9341  -21.0016 C   0  0  0  0  0  0  0  0  0  0  0  0
   18.1941  -14.1431  -21.0117 C   0  0  0  0  0  0  0  0  0  0  0  0
   16.9764  -13.9796  -20.7759 O   0  0  0  0  0  0  0  0  0  0  0  0
   20.2103  -10.8376  -18.0751 C   0  0  0  0  0  0  0  0  0  0  0  0
   19.1656  -10.5953  -17.4130 O   0  0  0  0  0  0  0  0  0  0  0  0
   18.6697  -15.4038  -21.2666 O   0  0  0  0  0  0  0  0  0  0  0  0
   20.5128  -16.6853  -15.3669 O   0  0  0  0  0  0  0  0  0  0  0  0
   20.9887  -15.3814  -15.3722 C   0  0  0  0  0  0  0  0  0  0  0  0
   21.9852  -15.0160  -16.2375 C   0  0  0  0  0  0  0  0  0  0  0  0
   22.4636  -13.7115  -16.2450 C   0  0  0  0  0  0  0  0  0  0  0  0
   21.9652  -12.7459  -15.3974 C   0  0  0  0  0  0  0  0  0  0  0  0
   22.5101  -11.3843  -15.4493 C   0  0  0  0  0  0  0  0  0  0  0  0
   21.5841  -10.3597  -16.0234 C   0  0  2  0  0  0  0  0  0  0  0  0
   21.4522  -10.6842  -17.4552 N   0  0  0  0  0  0  0  0  0  0  0  0
   22.0834   -8.9744  -15.9372 C   0  0  0  0  0  0  0  0  0  0  0  0
   22.9394   -8.5776  -16.7648 O   0  0  0  0  0  0  0  0  0  0  0  0
   20.9632  -13.1338  -14.5347 C   0  0  0  0  0  0  0  0  0  0  0  0
   20.4753  -14.4343  -14.5163 C   0  0  0  0  0  0  0  0  0  0  0  0
   21.6253   -8.0881  -14.9523 N   0  0  0  0  0  0  0  0  0  0  0  0
   22.1123   -6.7495  -14.7643 C   0  0  0  0  0  0  0  0  0  0  0  0
   21.4346   -6.0251  -13.6887 C   0  0  0  0  0  0  0  0  0  0  0  0
   21.8170   -4.7482  -13.3322 O   0  0  0  0  0  0  0  0  0  0  0  0
   20.4887   -6.5651  -13.0742 O   0  0  0  0  0  0  0  0  0  0  0  0
  2  1  1  1
  2  7  1  0
  3  4  1  0
  3  2  1  0
  4  5  1  0
  5  6  2  0
  7  8  2  0
  9  5  1  0
 10 11  1  0
 11 21  2  0
 12 11  1  0
 12 13  2  0
 13 14  1  0
 14 20  2  0
 14 15  1  0
 16 15  1  6
 16 18  1  0
 17 16  1  0
 17  7  1  0
 18 19  2  0
 18 22  1  0
 21 20  1  0
 22 23  1  0
 24 25  1  0
 24 23  1  0
 26 24  2  0
M  END
$$$$
