EYG.pdb
     RDKit          3D

 26 26  0  0  1  0  0  0  0  0999 V2000
   28.0708  -22.1065  -16.5619 N   0  0  0  0  0  0  0  0  0  0  0  0
   26.8388  -21.3885  -16.5171 C   0  0  1  0  0  0  0  0  0  0  0  0
   26.0101  -21.7762  -17.7349 C   0  0  0  0  0  0  0  0  0  0  0  0
   26.6907  -21.2784  -18.9855 C   0  0  0  0  0  0  0  0  0  0  0  0
   26.4378  -19.8073  -19.0713 C   0  0  0  0  0  0  0  0  0  0  0  0
   26.5613  -19.1330  -18.0246 O   0  0  0  0  0  0  0  0  0  0  0  0
   26.0366  -21.6558  -15.2942 C   0  0  0  0  0  0  0  0  0  0  0  0
   25.7222  -22.8332  -14.9724 O   0  0  0  0  0  0  0  0  0  0  0  0
   26.0812  -19.1832  -20.2391 O   0  0  0  0  0  0  0  0  0  0  0  0
   30.6126  -21.6016  -10.2772 O   0  0  0  0  0  0  0  0  0  0  0  0
   29.3866  -21.1748  -10.7686 C   0  0  0  0  0  0  0  0  0  0  0  0
   28.2382  -21.4267  -10.0663 C   0  0  0  0  0  0  0  0  0  0  0  0
   27.0096  -21.0007  -10.5557 C   0  0  0  0  0  0  0  0  0  0  0  0
   26.8949  -20.3185  -11.7477 C   0  0  0  0  0  0  0  0  0  0  0  0
   25.5704  -19.8940  -12.2156 C   0  0  0  0  0  0  0  0  0  0  0  0
   24.9263  -20.8192  -13.1984 C   0  0  2  0  0  0  0  0  0  0  0  0
   25.6190  -20.6002  -14.4809 N   0  0  0  0  0  0  0  0  0  0  0  0
   23.4932  -20.5567  -13.4296 C   0  0  0  0  0  0  0  0  0  0  0  0
   23.1466  -19.4841  -13.9812 O   0  0  0  0  0  0  0  0  0  0  0  0
   28.0619  -20.0751  -12.4389 C   0  0  0  0  0  0  0  0  0  0  0  0
   29.2970  -20.4951  -11.9615 C   0  0  0  0  0  0  0  0  0  0  0  0
   22.5068  -21.4768  -13.0480 N   0  0  0  0  0  0  0  0  0  0  0  0
   21.0976  -21.3066  -13.2709 C   0  0  0  0  0  0  0  0  0  0  0  0
   20.3419  -21.0196  -12.0513 C   0  0  0  0  0  0  0  0  0  0  0  0
   18.9742  -20.8401  -12.0806 O   0  0  0  0  0  0  0  0  0  0  0  0
   20.9382  -20.9332  -10.9554 O   0  0  0  0  0  0  0  0  0  0  0  0
  2  1  1  1
  2  7  1  0
  3  4  1  0
  3  2  1  0
  4  5  1  0
  5  6  2  0
  7  8  2  0
  9  5  1  0
 10 11  1  0
 11 21  2  0
 12 11  1  0
 12 13  2  0
 13 14  1  0
 14 20  2  0
 14 15  1  0
 16 15  1  1
 16 18  1  0
 17 16  1  0
 17  7  1  0
 18 19  2  0
 18 22  1  0
 21 20  1  0
 22 23  1  0
 24 25  1  0
 24 23  1  0
 26 24  2  0
M  END
$$$$
