EYG.pdb
     RDKit          3D

 26 26  0  0  1  0  0  0  0  0999 V2000
   26.9028  -22.6544  -16.7325 N   0  0  0  0  0  0  0  0  0  0  0  0
   26.4929  -21.4927  -16.0130 C   0  0  1  0  0  0  0  0  0  0  0  0
   25.1674  -21.0115  -16.5891 C   0  0  0  0  0  0  0  0  0  0  0  0
   25.3622  -20.6068  -18.0290 C   0  0  0  0  0  0  0  0  0  0  0  0
   24.0714  -20.0191  -18.5021 C   0  0  0  0  0  0  0  0  0  0  0  0
   23.8862  -18.7956  -18.3176 O   0  0  0  0  0  0  0  0  0  0  0  0
   26.3188  -21.7245  -14.5549 C   0  0  0  0  0  0  0  0  0  0  0  0
   25.8238  -22.8016  -14.1264 O   0  0  0  0  0  0  0  0  0  0  0  0
   23.1004  -20.7639  -19.1209 O   0  0  0  0  0  0  0  0  0  0  0  0
   27.5846  -19.8186   -5.9012 O   0  0  0  0  0  0  0  0  0  0  0  0
   27.5945  -19.9053   -7.2865 C   0  0  0  0  0  0  0  0  0  0  0  0
   28.6939  -20.3985   -7.9373 C   0  0  0  0  0  0  0  0  0  0  0  0
   28.7067  -20.4864   -9.3239 C   0  0  0  0  0  0  0  0  0  0  0  0
   27.6331  -20.0884  -10.0910 C   0  0  0  0  0  0  0  0  0  0  0  0
   27.7038  -20.2035  -11.5522 C   0  0  0  0  0  0  0  0  0  0  0  0
   26.5582  -20.9318  -12.1800 C   0  0  2  0  0  0  0  0  0  0  0  0
   26.7042  -20.7469  -13.6352 N   0  0  0  0  0  0  0  0  0  0  0  0
   25.2299  -20.4093  -11.8080 C   0  0  0  0  0  0  0  0  0  0  0  0
   24.8683  -19.2877  -12.2396 O   0  0  0  0  0  0  0  0  0  0  0  0
   26.5370  -19.5952   -9.4171 C   0  0  0  0  0  0  0  0  0  0  0  0
   26.5104  -19.5016   -8.0314 C   0  0  0  0  0  0  0  0  0  0  0  0
   24.3595  -21.1352  -10.9828 N   0  0  0  0  0  0  0  0  0  0  0  0
   23.0655  -20.6799  -10.5555 C   0  0  0  0  0  0  0  0  0  0  0  0
   22.0126  -20.8904  -11.5494 C   0  0  0  0  0  0  0  0  0  0  0  0
   21.1308  -19.8834  -11.8843 O   0  0  0  0  0  0  0  0  0  0  0  0
   21.9011  -22.0016  -12.1123 O   0  0  0  0  0  0  0  0  0  0  0  0
  2  1  1  6
  2  7  1  0
  3  4  1  0
  3  2  1  0
  4  5  1  0
  5  6  2  0
  7  8  2  0
  9  5  1  0
 10 11  1  0
 11 21  2  0
 12 11  1  0
 12 13  2  0
 13 14  1  0
 14 20  2  0
 14 15  1  0
 16 15  1  1
 16 18  1  0
 17 16  1  0
 17  7  1  0
 18 19  2  0
 18 22  1  0
 21 20  1  0
 22 23  1  0
 24 25  1  0
 24 23  1  0
 26 24  2  0
M  END
$$$$
