EYG.pdb
     RDKit          3D

 26 26  0  0  1  0  0  0  0  0999 V2000
   27.7010  -21.8777  -16.4136 N   0  0  0  0  0  0  0  0  0  0  0  0
   26.7246  -20.9564  -15.9307 C   0  0  1  0  0  0  0  0  0  0  0  0
   25.6325  -20.8153  -16.9832 C   0  0  0  0  0  0  0  0  0  0  0  0
   26.2111  -20.1895  -18.2275 C   0  0  0  0  0  0  0  0  0  0  0  0
   25.0753  -19.5823  -18.9868 C   0  0  0  0  0  0  0  0  0  0  0  0
   24.9935  -18.3340  -19.0132 O   0  0  0  0  0  0  0  0  0  0  0  0
   26.0958  -21.3707  -14.6488 C   0  0  0  0  0  0  0  0  0  0  0  0
   25.8583  -22.5850  -14.4085 O   0  0  0  0  0  0  0  0  0  0  0  0
   24.1361  -20.3350  -19.6439 O   0  0  0  0  0  0  0  0  0  0  0  0
   31.4042  -21.7972  -10.7777 O   0  0  0  0  0  0  0  0  0  0  0  0
   30.0905  -21.3677  -10.9059 C   0  0  0  0  0  0  0  0  0  0  0  0
   29.7271  -20.5690  -11.9573 C   0  0  0  0  0  0  0  0  0  0  0  0
   28.4129  -20.1375  -12.0882 C   0  0  0  0  0  0  0  0  0  0  0  0
   27.4353  -20.4881  -11.1823 C   0  0  0  0  0  0  0  0  0  0  0  0
   26.0638  -20.0016  -11.3710 C   0  0  0  0  0  0  0  0  0  0  0  0
   25.2511  -20.7826  -12.3541 C   0  0  2  0  0  0  0  0  0  0  0  0
   25.7588  -20.4148  -13.6882 N   0  0  0  0  0  0  0  0  0  0  0  0
   23.8102  -20.4671  -12.3368 C   0  0  0  0  0  0  0  0  0  0  0  0
   23.4107  -19.3926  -12.8474 O   0  0  0  0  0  0  0  0  0  0  0  0
   27.8214  -21.2921  -10.1318 C   0  0  0  0  0  0  0  0  0  0  0  0
   29.1316  -21.7309   -9.9885 C   0  0  0  0  0  0  0  0  0  0  0  0
   22.8740  -21.3388  -11.7631 N   0  0  0  0  0  0  0  0  0  0  0  0
   21.5031  -21.0052  -11.4915 C   0  0  0  0  0  0  0  0  0  0  0  0
   20.5580  -21.5914  -12.4423 C   0  0  0  0  0  0  0  0  0  0  0  0
   20.9936  -22.2308  -13.5848 O   0  0  0  0  0  0  0  0  0  0  0  0
   19.3288  -21.5167  -12.2244 O   0  0  0  0  0  0  0  0  0  0  0  0
  2  1  1  6
  2  7  1  0
  3  4  1  0
  3  2  1  0
  4  5  1  0
  5  6  2  0
  7  8  2  0
  9  5  1  0
 10 11  1  0
 11 21  2  0
 12 11  1  0
 12 13  2  0
 13 14  1  0
 14 20  2  0
 14 15  1  0
 16 15  1  1
 16 18  1  0
 17 16  1  0
 17  7  1  0
 18 19  2  0
 18 22  1  0
 21 20  1  0
 22 23  1  0
 24 25  1  0
 24 23  1  0
 26 24  2  0
M  END
$$$$
