EYG.pdb
     RDKit          3D

 26 26  0  0  1  0  0  0  0  0999 V2000
   22.8273  -12.9635  -18.6564 N   0  0  0  0  0  0  0  0  0  0  0  0
   22.5233  -11.5903  -18.8956 C   0  0  1  0  0  0  0  0  0  0  0  0
   21.2121  -11.5139  -19.6669 C   0  0  0  0  0  0  0  0  0  0  0  0
   21.4636  -11.8337  -21.1192 C   0  0  0  0  0  0  0  0  0  0  0  0
   21.9390  -10.5762  -21.7734 C   0  0  0  0  0  0  0  0  0  0  0  0
   21.0745   -9.7655  -22.1745 O   0  0  0  0  0  0  0  0  0  0  0  0
   22.3896  -10.7838  -17.6538 C   0  0  0  0  0  0  0  0  0  0  0  0
   22.0140  -11.3162  -16.5749 O   0  0  0  0  0  0  0  0  0  0  0  0
   23.2683  -10.2868  -21.9455 O   0  0  0  0  0  0  0  0  0  0  0  0
   28.3132  -11.6557  -15.9533 O   0  0  0  0  0  0  0  0  0  0  0  0
   27.2703  -10.7475  -16.0731 C   0  0  0  0  0  0  0  0  0  0  0  0
   26.4242  -10.5282  -15.0188 C   0  0  0  0  0  0  0  0  0  0  0  0
   25.3794   -9.6197  -15.1359 C   0  0  0  0  0  0  0  0  0  0  0  0
   25.1530   -8.9125  -16.2968 C   0  0  0  0  0  0  0  0  0  0  0  0
   24.0329   -7.9667  -16.3629 C   0  0  0  0  0  0  0  0  0  0  0  0
   22.6805   -8.6006  -16.4394 C   0  0  2  0  0  0  0  0  0  0  0  0
   22.6807   -9.4181  -17.6661 N   0  0  0  0  0  0  0  0  0  0  0  0
   21.5664   -7.6412  -16.5583 C   0  0  0  0  0  0  0  0  0  0  0  0
   21.3511   -7.0839  -17.6620 O   0  0  0  0  0  0  0  0  0  0  0  0
   26.0154   -9.1476  -17.3456 C   0  0  0  0  0  0  0  0  0  0  0  0
   27.0640  -10.0529  -17.2427 C   0  0  0  0  0  0  0  0  0  0  0  0
   20.7405   -7.3354  -15.4676 N   0  0  0  0  0  0  0  0  0  0  0  0
   19.6663   -6.3815  -15.4955 C   0  0  0  0  0  0  0  0  0  0  0  0
   20.1147   -4.9988  -15.6624 C   0  0  0  0  0  0  0  0  0  0  0  0
   19.2172   -3.9510  -15.6799 O   0  0  0  0  0  0  0  0  0  0  0  0
   21.3336   -4.7511  -15.7926 O   0  0  0  0  0  0  0  0  0  0  0  0
  2  1  1  1
  2  7  1  0
  3  4  1  0
  3  2  1  0
  4  5  1  0
  5  6  2  0
  7  8  2  0
  9  5  1  0
 10 11  1  0
 11 21  2  0
 12 11  1  0
 12 13  2  0
 13 14  1  0
 14 20  2  0
 14 15  1  0
 16 15  1  6
 16 18  1  0
 17 16  1  0
 17  7  1  0
 18 19  2  0
 18 22  1  0
 21 20  1  0
 22 23  1  0
 24 25  1  0
 24 23  1  0
 26 24  2  0
M  END
$$$$
