EYG.pdb
     RDKit          3D

 26 26  0  0  1  0  0  0  0  0999 V2000
   20.6836  -13.0559  -16.0449 N   0  0  0  0  0  0  0  0  0  0  0  0
   20.4370  -11.8406  -16.7503 C   0  0  1  0  0  0  0  0  0  0  0  0
   18.9350  -11.5873  -16.7641 C   0  0  0  0  0  0  0  0  0  0  0  0
   18.2195  -12.7737  -16.1680 C   0  0  0  0  0  0  0  0  0  0  0  0
   16.9892  -12.2559  -15.4944 C   0  0  0  0  0  0  0  0  0  0  0  0
   16.1064  -11.7365  -16.2130 O   0  0  0  0  0  0  0  0  0  0  0  0
   21.1111  -10.6573  -16.1539 C   0  0  0  0  0  0  0  0  0  0  0  0
   21.1722  -10.5105  -14.9035 O   0  0  0  0  0  0  0  0  0  0  0  0
   16.7994  -12.3301  -14.1383 O   0  0  0  0  0  0  0  0  0  0  0  0
   25.8325   -3.1130  -16.5439 O   0  0  0  0  0  0  0  0  0  0  0  0
   25.2948   -4.3855  -16.6801 C   0  0  0  0  0  0  0  0  0  0  0  0
   24.7488   -5.0215  -15.5972 C   0  0  0  0  0  0  0  0  0  0  0  0
   24.2099   -6.2952  -15.7307 C   0  0  0  0  0  0  0  0  0  0  0  0
   24.2015   -6.9621  -16.9367 C   0  0  0  0  0  0  0  0  0  0  0  0
   23.6194   -8.3068  -17.0176 C   0  0  0  0  0  0  0  0  0  0  0  0
   22.2447   -8.4307  -16.4417 C   0  0  2  0  0  0  0  0  0  0  0  0
   21.6894   -9.6875  -16.9756 N   0  0  0  0  0  0  0  0  0  0  0  0
   21.3225   -7.3484  -16.8342 C   0  0  0  0  0  0  0  0  0  0  0  0
   20.9047   -7.2962  -18.0164 O   0  0  0  0  0  0  0  0  0  0  0  0
   24.7556   -6.3050  -18.0138 C   0  0  0  0  0  0  0  0  0  0  0  0
   25.2978   -5.0316  -17.8949 C   0  0  0  0  0  0  0  0  0  0  0  0
   20.9003   -6.3746  -15.9183 N   0  0  0  0  0  0  0  0  0  0  0  0
   20.1278   -5.2114  -16.2572 C   0  0  0  0  0  0  0  0  0  0  0  0
   19.9025   -4.3084  -15.1282 C   0  0  0  0  0  0  0  0  0  0  0  0
   20.9541   -3.8159  -14.3828 O   0  0  0  0  0  0  0  0  0  0  0  0
   18.7375   -3.9701  -14.8246 O   0  0  0  0  0  0  0  0  0  0  0  0
  2  1  1  1
  2  7  1  0
  3  4  1  0
  3  2  1  0
  4  5  1  0
  5  6  2  0
  7  8  2  0
  9  5  1  0
 10 11  1  0
 11 21  2  0
 12 11  1  0
 12 13  2  0
 13 14  1  0
 14 20  2  0
 14 15  1  0
 16 15  1  6
 16 18  1  0
 17 16  1  0
 17  7  1  0
 18 19  2  0
 18 22  1  0
 21 20  1  0
 22 23  1  0
 24 25  1  0
 24 23  1  0
 26 24  2  0
M  END
$$$$
