LDP.pdb
     RDKit          3D

 24 24  0  0  1  0  0  0  0  0999 V2000
   27.7938  -13.9045  -16.9874 C   0  0  0  0  0  0  0  0  0  0  0  0
   26.3074  -13.8240  -16.7069 C   0  0  2  0  0  0  0  0  0  0  0  0
   25.9933  -12.4229  -16.2784 C   0  0  0  0  0  0  0  0  0  0  0  0
   25.9858  -14.8387  -15.6380 C   0  0  0  0  0  0  0  0  0  0  0  0
   26.4154  -16.2385  -16.0041 C   0  0  2  0  0  0  0  0  0  0  0  0
   26.0377  -16.4529  -17.3946 N   0  0  0  0  0  0  0  0  0  0  0  0
   25.6016  -17.1714  -15.1775 C   0  0  0  0  0  0  0  0  0  0  0  0
   25.6500  -17.1708  -13.9148 O   0  0  0  0  0  0  0  0  0  0  0  0
   24.7117  -18.1291  -15.7586 N   0  0  0  0  0  0  0  0  0  0  0  0
   23.9784  -19.1046  -14.9373 C   0  0  1  0  0  0  0  0  0  0  0  0
   22.7149  -19.3882  -15.6943 C   0  0  0  0  0  0  0  0  0  0  0  0
   21.7478  -18.2968  -15.3489 C   0  0  0  0  0  0  0  0  0  0  0  0
   21.0668  -17.7650  -16.2658 O   0  0  0  0  0  0  0  0  0  0  0  0
   24.7791  -20.2556  -14.5714 C   0  0  0  0  0  0  0  0  0  0  0  0
   25.6357  -20.6034  -15.4625 O   0  0  0  0  0  0  0  0  0  0  0  0
   21.5563  -17.8332  -14.0694 O   0  0  0  0  0  0  0  0  0  0  0  0
   24.7212  -21.0102  -13.3814 N   0  0  0  0  0  0  0  0  0  0  0  0
   23.9165  -20.9469  -12.1904 C   0  0  0  0  0  0  0  0  0  0  0  0
   24.9873  -20.9380  -11.1190 C   0  0  0  0  0  0  0  0  0  0  0  0
   25.8359  -22.1094  -11.5880 C   0  0  0  0  0  0  0  0  0  0  0  0
   25.5647  -22.1544  -13.0790 C   0  0  1  0  0  0  0  0  0  0  0  0
   24.9230  -23.4327  -13.4719 C   0  0  0  0  0  0  0  0  0  0  0  0
   25.7293  -24.5628  -13.4880 O   0  0  0  0  0  0  0  0  0  0  0  0
   23.7315  -23.5633  -13.7839 O   0  0  0  0  0  0  0  0  0  0  0  0
  2  1  1  1
  2  3  1  0
  4  2  1  0
  4  5  1  0
  5  6  1  6
  5  7  1  0
  7  8  2  0
  9  7  1  0
  9 10  1  0
 10 11  1  6
 12 11  1  0
 13 12  2  0
 14 10  1  0
 14 15  2  0
 16 12  1  0
 17 14  1  0
 18 17  1  0
 19 18  1  0
 20 19  1  0
 21 20  1  0
 21 17  1  0
 21 22  1  1
 23 22  1  0
 24 22  2  0
M  END
$$$$
