LDP.pdb
     RDKit          3D

 24 24  0  0  1  0  0  0  0  0999 V2000
   18.4018  -15.5177  -16.5930 C   0  0  0  0  0  0  0  0  0  0  0  0
   17.4957  -14.3513  -16.9295 C   0  0  2  0  0  0  0  0  0  0  0  0
   16.4671  -14.8324  -17.9071 C   0  0  0  0  0  0  0  0  0  0  0  0
   18.3563  -13.2491  -17.4952 C   0  0  0  0  0  0  0  0  0  0  0  0
   19.2769  -12.6335  -16.4698 C   0  0  2  0  0  0  0  0  0  0  0  0
   18.7077  -12.9150  -15.1588 N   0  0  0  0  0  0  0  0  0  0  0  0
   19.2209  -11.1590  -16.6672 C   0  0  0  0  0  0  0  0  0  0  0  0
   19.6240  -10.6050  -17.7289 O   0  0  0  0  0  0  0  0  0  0  0  0
   18.7066  -10.2735  -15.6681 N   0  0  0  0  0  0  0  0  0  0  0  0
   18.7778   -8.8117  -15.8166 C   0  0  1  0  0  0  0  0  0  0  0  0
   17.4314   -8.3051  -15.3918 C   0  0  0  0  0  0  0  0  0  0  0  0
   17.4537   -6.8166  -15.5639 C   0  0  0  0  0  0  0  0  0  0  0  0
   17.5368   -6.0804  -14.5450 O   0  0  0  0  0  0  0  0  0  0  0  0
   19.9232   -8.2276  -15.1482 C   0  0  0  0  0  0  0  0  0  0  0  0
   20.2358   -8.8030  -14.0437 O   0  0  0  0  0  0  0  0  0  0  0  0
   17.3874   -6.1961  -16.7883 O   0  0  0  0  0  0  0  0  0  0  0  0
   20.7061   -7.1315  -15.5661 N   0  0  0  0  0  0  0  0  0  0  0  0
   20.6774   -6.2534  -16.7055 C   0  0  0  0  0  0  0  0  0  0  0  0
   22.1096   -6.3594  -17.1873 C   0  0  0  0  0  0  0  0  0  0  0  0
   22.8441   -6.1316  -15.8755 C   0  0  0  0  0  0  0  0  0  0  0  0
   21.8413   -6.5925  -14.8361 C   0  0  1  0  0  0  0  0  0  0  0  0
   21.4435   -5.4795  -13.9399 C   0  0  0  0  0  0  0  0  0  0  0  0
   20.1497   -4.9942  -14.0752 O   0  0  0  0  0  0  0  0  0  0  0  0
   22.1751   -4.9567  -13.0882 O   0  0  0  0  0  0  0  0  0  0  0  0
  2  1  1  6
  2  3  1  0
  4  2  1  0
  4  5  1  0
  5  6  1  1
  5  7  1  0
  7  8  2  0
  9  7  1  0
  9 10  1  0
 10 11  1  1
 12 11  1  0
 13 12  2  0
 14 10  1  0
 14 15  2  0
 16 12  1  0
 17 14  1  0
 18 17  1  0
 19 18  1  0
 20 19  1  0
 21 20  1  0
 21 17  1  0
 21 22  1  6
 23 22  1  0
 24 22  2  0
M  END
$$$$
