LDP.pdb
     RDKit          3D

 24 24  0  0  1  0  0  0  0  0999 V2000
   27.4164  -18.8732   -6.9986 C   0  0  0  0  0  0  0  0  0  0  0  0
   27.2665  -20.2574   -7.5950 C   0  0  2  0  0  0  0  0  0  0  0  0
   28.5591  -20.9888   -7.3960 C   0  0  0  0  0  0  0  0  0  0  0  0
   26.9161  -20.0941   -9.0531 C   0  0  0  0  0  0  0  0  0  0  0  0
   27.4187  -21.2290   -9.9119 C   0  0  2  0  0  0  0  0  0  0  0  0
   28.8288  -20.9754  -10.1751 N   0  0  0  0  0  0  0  0  0  0  0  0
   26.7037  -21.1361  -11.2143 C   0  0  0  0  0  0  0  0  0  0  0  0
   26.9092  -20.1939  -12.0307 O   0  0  0  0  0  0  0  0  0  0  0  0
   25.7376  -22.1076  -11.6264 N   0  0  0  0  0  0  0  0  0  0  0  0
   25.0541  -22.0186  -12.9259 C   0  0  1  0  0  0  0  0  0  0  0  0
   24.9633  -23.4311  -13.4224 C   0  0  0  0  0  0  0  0  0  0  0  0
   24.2797  -23.3797  -14.7550 C   0  0  0  0  0  0  0  0  0  0  0  0
   24.9145  -22.9534  -15.7562 O   0  0  0  0  0  0  0  0  0  0  0  0
   23.8094  -21.2792  -12.8640 C   0  0  0  0  0  0  0  0  0  0  0  0
   23.2674  -21.2609  -11.7001 O   0  0  0  0  0  0  0  0  0  0  0  0
   22.9790  -23.7764  -14.9533 O   0  0  0  0  0  0  0  0  0  0  0  0
   23.1507  -20.5997  -13.9096 N   0  0  0  0  0  0  0  0  0  0  0  0
   23.4674  -20.3270  -15.2863 C   0  0  0  0  0  0  0  0  0  0  0  0
   23.2646  -18.8268  -15.3372 C   0  0  0  0  0  0  0  0  0  0  0  0
   21.8993  -18.7251  -14.6756 C   0  0  0  0  0  0  0  0  0  0  0  0
   21.8502  -19.9605  -13.7982 C   0  0  1  0  0  0  0  0  0  0  0  0
   20.7515  -20.8692  -14.2074 C   0  0  0  0  0  0  0  0  0  0  0  0
   19.4611  -20.4928  -13.8598 O   0  0  0  0  0  0  0  0  0  0  0  0
   20.9007  -21.9291  -14.8305 O   0  0  0  0  0  0  0  0  0  0  0  0
  2  1  1  6
  2  3  1  0
  4  2  1  0
  4  5  1  0
  5  6  1  6
  5  7  1  0
  7  8  2  0
  9  7  1  0
  9 10  1  0
 10 11  1  1
 12 11  1  0
 13 12  2  0
 14 10  1  0
 14 15  2  0
 16 12  1  0
 17 14  1  0
 18 17  1  0
 19 18  1  0
 20 19  1  0
 21 20  1  0
 21 17  1  0
 21 22  1  6
 23 22  1  0
 24 22  2  0
M  END
$$$$
