LDP.pdb
     RDKit          3D

 24 24  0  0  1  0  0  0  0  0999 V2000
   26.5228  -18.6231   -6.4171 C   0  0  0  0  0  0  0  0  0  0  0  0
   27.0547  -20.0241   -6.6375 C   0  0  2  0  0  0  0  0  0  0  0  0
   28.5078  -20.0295   -6.2717 C   0  0  0  0  0  0  0  0  0  0  0  0
   26.8242  -20.3808   -8.0850 C   0  0  0  0  0  0  0  0  0  0  0  0
   25.3622  -20.4193   -8.4581 C   0  0  2  0  0  0  0  0  0  0  0  0
   24.7456  -21.4756   -7.6669 N   0  0  0  0  0  0  0  0  0  0  0  0
   25.2902  -20.8382   -9.8847 C   0  0  0  0  0  0  0  0  0  0  0  0
   25.6839  -21.9737  -10.2749 O   0  0  0  0  0  0  0  0  0  0  0  0
   24.7704  -19.9826  -10.9068 N   0  0  0  0  0  0  0  0  0  0  0  0
   24.6690  -20.4207  -12.3074 C   0  0  1  0  0  0  0  0  0  0  0  0
   23.3426  -19.9095  -12.7865 C   0  0  0  0  0  0  0  0  0  0  0  0
   22.2940  -20.7998  -12.1918 C   0  0  0  0  0  0  0  0  0  0  0  0
   22.4163  -22.0493  -12.2959 O   0  0  0  0  0  0  0  0  0  0  0  0
   25.8232  -20.0535  -13.1029 C   0  0  0  0  0  0  0  0  0  0  0  0
   26.4221  -18.9918  -12.6995 O   0  0  0  0  0  0  0  0  0  0  0  0
   21.1875  -20.3261  -11.5285 O   0  0  0  0  0  0  0  0  0  0  0  0
   26.3429  -20.7148  -14.2350 N   0  0  0  0  0  0  0  0  0  0  0  0
   26.0070  -21.9281  -14.9314 C   0  0  0  0  0  0  0  0  0  0  0  0
   27.3547  -22.6180  -14.9753 C   0  0  0  0  0  0  0  0  0  0  0  0
   28.2162  -21.4761  -15.4912 C   0  0  0  0  0  0  0  0  0  0  0  0
   27.4612  -20.2433  -15.0344 C   0  0  1  0  0  0  0  0  0  0  0  0
   27.0099  -19.4288  -16.1891 C   0  0  0  0  0  0  0  0  0  0  0  0
   27.9884  -18.7435  -16.8966 O   0  0  0  0  0  0  0  0  0  0  0  0
   25.8347  -19.3167  -16.5637 O   0  0  0  0  0  0  0  0  0  0  0  0
  2  1  1  6
  2  3  1  0
  4  2  1  0
  4  5  1  0
  5  6  1  1
  5  7  1  0
  7  8  2  0
  9  7  1  0
  9 10  1  0
 10 11  1  6
 12 11  1  0
 13 12  2  0
 14 10  1  0
 14 15  2  0
 16 12  1  0
 17 14  1  0
 18 17  1  0
 19 18  1  0
 20 19  1  0
 21 20  1  0
 21 17  1  0
 21 22  1  6
 23 22  1  0
 24 22  2  0
M  END
$$$$
