LDP.pdb
     RDKit          3D

 24 24  0  0  1  0  0  0  0  0999 V2000
   30.1267  -18.0909  -17.6838 C   0  0  0  0  0  0  0  0  0  0  0  0
   29.2754  -17.3608  -18.7019 C   0  0  2  0  0  0  0  0  0  0  0  0
   29.7333  -15.9348  -18.7496 C   0  0  0  0  0  0  0  0  0  0  0  0
   27.8349  -17.4888  -18.2730 C   0  0  0  0  0  0  0  0  0  0  0  0
   27.4516  -18.9015  -17.9052 C   0  0  2  0  0  0  0  0  0  0  0  0
   26.9792  -19.5480  -19.1220 N   0  0  0  0  0  0  0  0  0  0  0  0
   26.2915  -18.8078  -16.9770 C   0  0  0  0  0  0  0  0  0  0  0  0
   25.7547  -17.7037  -16.6779 O   0  0  0  0  0  0  0  0  0  0  0  0
   25.7087  -19.9614  -16.3636 N   0  0  0  0  0  0  0  0  0  0  0  0
   24.4496  -19.8846  -15.6068 C   0  0  1  0  0  0  0  0  0  0  0  0
   23.3679  -19.8230  -16.6441 C   0  0  0  0  0  0  0  0  0  0  0  0
   22.6473  -18.5246  -16.4431 C   0  0  0  0  0  0  0  0  0  0  0  0
   22.4638  -17.7633  -17.4300 O   0  0  0  0  0  0  0  0  0  0  0  0
   24.3222  -20.9270  -14.6082 C   0  0  0  0  0  0  0  0  0  0  0  0
   24.4567  -22.1168  -15.0718 O   0  0  0  0  0  0  0  0  0  0  0  0
   22.1666  -18.1074  -15.2251 O   0  0  0  0  0  0  0  0  0  0  0  0
   24.0747  -20.7806  -13.2275 N   0  0  0  0  0  0  0  0  0  0  0  0
   23.8986  -19.6517  -12.3532 C   0  0  0  0  0  0  0  0  0  0  0  0
   24.9037  -19.9697  -11.2656 C   0  0  0  0  0  0  0  0  0  0  0  0
   24.5299  -21.4154  -10.9789 C   0  0  0  0  0  0  0  0  0  0  0  0
   23.9214  -21.8786  -12.2880 C   0  0  1  0  0  0  0  0  0  0  0  0
   22.4992  -22.2630  -12.1152 C   0  0  0  0  0  0  0  0  0  0  0  0
   22.2432  -23.4168  -11.3865 O   0  0  0  0  0  0  0  0  0  0  0  0
   21.5331  -21.6355  -12.5700 O   0  0  0  0  0  0  0  0  0  0  0  0
  2  1  1  1
  2  3  1  0
  4  2  1  0
  4  5  1  0
  5  6  1  6
  5  7  1  0
  7  8  2  0
  9  7  1  0
  9 10  1  0
 10 11  1  6
 12 11  1  0
 13 12  2  0
 14 10  1  0
 14 15  2  0
 16 12  1  0
 17 14  1  0
 18 17  1  0
 19 18  1  0
 20 19  1  0
 21 20  1  0
 21 17  1  0
 21 22  1  1
 23 22  1  0
 24 22  2  0
M  END
$$$$
