LDP.pdb
     RDKit          3D

 24 24  0  0  1  0  0  0  0  0999 V2000
   24.4584  -27.3061  -18.5189 C   0  0  0  0  0  0  0  0  0  0  0  0
   25.0821  -28.1006  -17.3901 C   0  0  2  0  0  0  0  0  0  0  0  0
   23.9939  -28.8816  -16.7185 C   0  0  0  0  0  0  0  0  0  0  0  0
   25.7505  -27.1235  -16.4551 C   0  0  0  0  0  0  0  0  0  0  0  0
   26.8163  -26.2949  -17.1301 C   0  0  2  0  0  0  0  0  0  0  0  0
   28.0736  -27.0170  -16.9897 N   0  0  0  0  0  0  0  0  0  0  0  0
   26.9429  -25.0335  -16.3499 C   0  0  0  0  0  0  0  0  0  0  0  0
   27.5740  -24.9772  -15.2567 O   0  0  0  0  0  0  0  0  0  0  0  0
   26.3589  -23.8028  -16.7872 N   0  0  0  0  0  0  0  0  0  0  0  0
   26.4471  -22.5738  -15.9837 C   0  0  1  0  0  0  0  0  0  0  0  0
   26.5876  -21.4602  -16.9787 C   0  0  0  0  0  0  0  0  0  0  0  0
   26.6859  -20.1871  -16.1942 C   0  0  0  0  0  0  0  0  0  0  0  0
   25.6336  -19.5522  -15.9172 O   0  0  0  0  0  0  0  0  0  0  0  0
   25.3698  -22.4439  -15.0234 C   0  0  0  0  0  0  0  0  0  0  0  0
   24.2626  -22.9724  -15.4024 O   0  0  0  0  0  0  0  0  0  0  0  0
   27.8761  -19.6618  -15.7516 O   0  0  0  0  0  0  0  0  0  0  0  0
   25.4047  -21.8204  -13.7589 N   0  0  0  0  0  0  0  0  0  0  0  0
   26.4178  -21.1264  -13.0092 C   0  0  0  0  0  0  0  0  0  0  0  0
   26.3569  -21.8662  -11.6888 C   0  0  0  0  0  0  0  0  0  0  0  0
   24.8567  -21.8380  -11.4424 C   0  0  0  0  0  0  0  0  0  0  0  0
   24.2811  -21.7349  -12.8412 C   0  0  1  0  0  0  0  0  0  0  0  0
   23.5177  -20.4756  -13.0187 C   0  0  0  0  0  0  0  0  0  0  0  0
   22.3357  -20.3497  -12.3013 O   0  0  0  0  0  0  0  0  0  0  0  0
   23.8552  -19.5375  -13.7536 O   0  0  0  0  0  0  0  0  0  0  0  0
  2  1  1  6
  2  3  1  0
  4  2  1  0
  4  5  1  0
  5  6  1  1
  5  7  1  0
  7  8  2  0
  9  7  1  0
  9 10  1  0
 10 11  1  6
 12 11  1  0
 13 12  2  0
 14 10  1  0
 14 15  2  0
 16 12  1  0
 17 14  1  0
 18 17  1  0
 19 18  1  0
 20 19  1  0
 21 20  1  0
 21 17  1  0
 21 22  1  1
 23 22  1  0
 24 22  2  0
M  END
$$$$
