LDP.pdb
     RDKit          3D

 24 24  0  0  1  0  0  0  0  0999 V2000
   24.6107  -20.8910   -9.2877 C   0  0  0  0  0  0  0  0  0  0  0  0
   25.8900  -20.5515  -10.0244 C   0  0  2  0  0  0  0  0  0  0  0  0
   26.4871  -19.3384   -9.3785 C   0  0  0  0  0  0  0  0  0  0  0  0
   25.5384  -20.3183  -11.4726 C   0  0  0  0  0  0  0  0  0  0  0  0
   24.9237  -21.5282  -12.1333 C   0  0  2  0  0  0  0  0  0  0  0  0
   26.0151  -22.4294  -12.4776 N   0  0  0  0  0  0  0  0  0  0  0  0
   24.3169  -21.0628  -13.4104 C   0  0  0  0  0  0  0  0  0  0  0  0
   25.0007  -20.8920  -14.4592 O   0  0  0  0  0  0  0  0  0  0  0  0
   22.9200  -20.7790  -13.5337 N   0  0  0  0  0  0  0  0  0  0  0  0
   22.3179  -20.3916  -14.8188 C   0  0  1  0  0  0  0  0  0  0  0  0
   20.8526  -20.6757  -14.6703 C   0  0  0  0  0  0  0  0  0  0  0  0
   20.2196  -20.3970  -15.9998 C   0  0  0  0  0  0  0  0  0  0  0  0
   19.4706  -19.3919  -16.1262 O   0  0  0  0  0  0  0  0  0  0  0  0
   22.6724  -19.0482  -15.2306 C   0  0  0  0  0  0  0  0  0  0  0  0
   22.7579  -18.2083  -14.2632 O   0  0  0  0  0  0  0  0  0  0  0  0
   20.4106  -21.1862  -17.1085 O   0  0  0  0  0  0  0  0  0  0  0  0
   22.9254  -18.5791  -16.5363 N   0  0  0  0  0  0  0  0  0  0  0  0
   23.0020  -19.2033  -17.8303 C   0  0  0  0  0  0  0  0  0  0  0  0
   24.3472  -18.7018  -18.3133 C   0  0  0  0  0  0  0  0  0  0  0  0
   24.1927  -17.2174  -18.0218 C   0  0  0  0  0  0  0  0  0  0  0  0
   23.1875  -17.1934  -16.8871 C   0  0  1  0  0  0  0  0  0  0  0  0
   21.9481  -16.4792  -17.2798 C   0  0  0  0  0  0  0  0  0  0  0  0
   20.8221  -17.2563  -17.5161 O   0  0  0  0  0  0  0  0  0  0  0  0
   21.8464  -15.2519  -17.4111 O   0  0  0  0  0  0  0  0  0  0  0  0
  2  1  1  1
  2  3  1  0
  4  2  1  0
  4  5  1  0
  5  6  1  6
  5  7  1  0
  7  8  2  0
  9  7  1  0
  9 10  1  0
 10 11  1  1
 12 11  1  0
 13 12  2  0
 14 10  1  0
 14 15  2  0
 16 12  1  0
 17 14  1  0
 18 17  1  0
 19 18  1  0
 20 19  1  0
 21 20  1  0
 21 17  1  0
 21 22  1  6
 23 22  1  0
 24 22  2  0
M  END
$$$$
