LDP.pdb
     RDKit          3D

 24 24  0  0  1  0  0  0  0  0999 V2000
   23.7017  -20.4346  -15.2807 C   0  0  0  0  0  0  0  0  0  0  0  0
   22.8122  -20.1210  -16.4660 C   0  0  2  0  0  0  0  0  0  0  0  0
   23.1138  -21.1151  -17.5458 C   0  0  0  0  0  0  0  0  0  0  0  0
   23.0985  -18.7027  -16.8929 C   0  0  0  0  0  0  0  0  0  0  0  0
   22.7047  -17.6821  -15.8530 C   0  0  2  0  0  0  0  0  0  0  0  0
   22.0404  -18.4026  -14.7753 N   0  0  0  0  0  0  0  0  0  0  0  0
   21.6888  -16.7937  -16.4810 C   0  0  0  0  0  0  0  0  0  0  0  0
   21.9390  -16.1056  -17.5109 O   0  0  0  0  0  0  0  0  0  0  0  0
   20.3630  -16.6612  -15.9598 N   0  0  0  0  0  0  0  0  0  0  0  0
   19.3763  -15.7573  -16.5707 C   0  0  1  0  0  0  0  0  0  0  0  0
   18.0384  -16.3419  -16.2268 C   0  0  0  0  0  0  0  0  0  0  0  0
   17.0036  -15.4468  -16.8380 C   0  0  0  0  0  0  0  0  0  0  0  0
   16.9202  -15.3698  -18.0927 O   0  0  0  0  0  0  0  0  0  0  0  0
   19.5803  -14.3679  -16.2131 C   0  0  0  0  0  0  0  0  0  0  0  0
   19.9774  -14.1900  -15.0051 O   0  0  0  0  0  0  0  0  0  0  0  0
   16.1251  -14.6917  -16.0987 O   0  0  0  0  0  0  0  0  0  0  0  0
   19.3960  -13.2275  -17.0221 N   0  0  0  0  0  0  0  0  0  0  0  0
   18.9835  -13.0189  -18.3845 C   0  0  0  0  0  0  0  0  0  0  0  0
   20.1078  -12.1418  -18.8952 C   0  0  0  0  0  0  0  0  0  0  0  0
   20.1547  -11.1039  -17.7849 C   0  0  0  0  0  0  0  0  0  0  0  0
   19.6056  -11.8563  -16.5886 C   0  0  1  0  0  0  0  0  0  0  0  0
   18.3531  -11.2371  -16.0906 C   0  0  0  0  0  0  0  0  0  0  0  0
   18.4785  -10.0619  -15.3620 O   0  0  0  0  0  0  0  0  0  0  0  0
   17.2147  -11.6884  -16.2758 O   0  0  0  0  0  0  0  0  0  0  0  0
  2  1  1  1
  2  3  1  0
  4  2  1  0
  4  5  1  0
  5  6  1  1
  5  7  1  0
  7  8  2  0
  9  7  1  0
  9 10  1  0
 10 11  1  1
 12 11  1  0
 13 12  2  0
 14 10  1  0
 14 15  2  0
 16 12  1  0
 17 14  1  0
 18 17  1  0
 19 18  1  0
 20 19  1  0
 21 20  1  0
 21 17  1  0
 21 22  1  6
 23 22  1  0
 24 22  2  0
M  END
$$$$
