LDP.pdb
     RDKit          3D

 24 24  0  0  1  0  0  0  0  0999 V2000
   28.3542  -17.0137  -18.5696 C   0  0  0  0  0  0  0  0  0  0  0  0
   27.5562  -15.7785  -18.2067 C   0  0  2  0  0  0  0  0  0  0  0  0
   28.5179  -14.7259  -17.7459 C   0  0  0  0  0  0  0  0  0  0  0  0
   26.5704  -16.1672  -17.1330 C   0  0  0  0  0  0  0  0  0  0  0  0
   25.6495  -17.2864  -17.5540 C   0  0  2  0  0  0  0  0  0  0  0  0
   24.6845  -16.7196  -18.4865 N   0  0  0  0  0  0  0  0  0  0  0  0
   24.8958  -17.7066  -16.3410 C   0  0  0  0  0  0  0  0  0  0  0  0
   23.9638  -17.0084  -15.8506 O   0  0  0  0  0  0  0  0  0  0  0  0
   25.1774  -18.9283  -15.6518 N   0  0  0  0  0  0  0  0  0  0  0  0
   24.2551  -19.4833  -14.6491 C   0  0  1  0  0  0  0  0  0  0  0  0
   22.9558  -19.6789  -15.3725 C   0  0  0  0  0  0  0  0  0  0  0  0
   22.0298  -20.3743  -14.4213 C   0  0  0  0  0  0  0  0  0  0  0  0
   21.4933  -19.7147  -13.4917 O   0  0  0  0  0  0  0  0  0  0  0  0
   24.7898  -20.6438  -13.9657 C   0  0  0  0  0  0  0  0  0  0  0  0
   25.3870  -21.4783  -14.7375 O   0  0  0  0  0  0  0  0  0  0  0  0
   21.7261  -21.7121  -14.5038 O   0  0  0  0  0  0  0  0  0  0  0  0
   24.7274  -20.9459  -12.5895 N   0  0  0  0  0  0  0  0  0  0  0  0
   24.0005  -20.4009  -11.4738 C   0  0  0  0  0  0  0  0  0  0  0  0
   25.1257  -20.1503  -10.4913 C   0  0  0  0  0  0  0  0  0  0  0  0
   25.8315  -21.4958  -10.5534 C   0  0  0  0  0  0  0  0  0  0  0  0
   25.4739  -22.0073  -11.9351 C   0  0  1  0  0  0  0  0  0  0  0  0
   24.6924  -23.2657  -11.8586 C   0  0  0  0  0  0  0  0  0  0  0  0
   25.3844  -24.4155  -11.5023 O   0  0  0  0  0  0  0  0  0  0  0  0
   23.4793  -23.3640  -12.0877 O   0  0  0  0  0  0  0  0  0  0  0  0
  2  1  1  1
  2  3  1  0
  4  2  1  0
  4  5  1  0
  5  6  1  6
  5  7  1  0
  7  8  2  0
  9  7  1  0
  9 10  1  0
 10 11  1  6
 12 11  1  0
 13 12  2  0
 14 10  1  0
 14 15  2  0
 16 12  1  0
 17 14  1  0
 18 17  1  0
 19 18  1  0
 20 19  1  0
 21 20  1  0
 21 17  1  0
 21 22  1  1
 23 22  1  0
 24 22  2  0
M  END
$$$$
