LDP.pdb
     RDKit          3D

 24 24  0  0  1  0  0  0  0  0999 V2000
   27.1493  -13.2060  -14.8597 C   0  0  0  0  0  0  0  0  0  0  0  0
   26.8917  -13.0697  -16.3461 C   0  0  2  0  0  0  0  0  0  0  0  0
   28.1777  -12.6699  -17.0031 C   0  0  0  0  0  0  0  0  0  0  0  0
   25.8058  -12.0393  -16.5318 C   0  0  0  0  0  0  0  0  0  0  0  0
   24.5000  -12.4345  -15.8862 C   0  0  2  0  0  0  0  0  0  0  0  0
   24.0490  -13.6541  -16.5430 N   0  0  0  0  0  0  0  0  0  0  0  0
   23.5148  -11.3676  -16.2132 C   0  0  0  0  0  0  0  0  0  0  0  0
   22.8856  -11.3435  -17.3087 O   0  0  0  0  0  0  0  0  0  0  0  0
   23.2159  -10.3004  -15.3085 N   0  0  0  0  0  0  0  0  0  0  0  0
   22.1611   -9.3153  -15.5927 C   0  0  1  0  0  0  0  0  0  0  0  0
   20.8716  -10.0166  -15.2840 C   0  0  0  0  0  0  0  0  0  0  0  0
   19.7663   -9.0687  -15.6384 C   0  0  0  0  0  0  0  0  0  0  0  0
   19.1071   -8.5195  -14.7160 O   0  0  0  0  0  0  0  0  0  0  0  0
   22.3755   -8.0453  -14.9287 C   0  0  0  0  0  0  0  0  0  0  0  0
   22.8224   -8.1492  -13.7294 O   0  0  0  0  0  0  0  0  0  0  0  0
   19.4229   -8.7576  -16.9322 O   0  0  0  0  0  0  0  0  0  0  0  0
   22.1538   -6.7499  -15.4405 N   0  0  0  0  0  0  0  0  0  0  0  0
   21.5387   -6.2337  -16.6343 C   0  0  0  0  0  0  0  0  0  0  0  0
   22.6308   -5.3188  -17.1489 C   0  0  0  0  0  0  0  0  0  0  0  0
   22.9473   -4.5484  -15.8767 C   0  0  0  0  0  0  0  0  0  0  0  0
   22.5449   -5.5156  -14.7807 C   0  0  1  0  0  0  0  0  0  0  0  0
   21.4482   -4.9624  -13.9492 C   0  0  0  0  0  0  0  0  0  0  0  0
   20.1872   -5.5176  -14.1204 O   0  0  0  0  0  0  0  0  0  0  0  0
   21.5749   -4.0497  -13.1216 O   0  0  0  0  0  0  0  0  0  0  0  0
  2  1  1  1
  2  3  1  0
  4  2  1  0
  4  5  1  0
  5  6  1  6
  5  7  1  0
  7  8  2  0
  9  7  1  0
  9 10  1  0
 10 11  1  1
 12 11  1  0
 13 12  2  0
 14 10  1  0
 14 15  2  0
 16 12  1  0
 17 14  1  0
 18 17  1  0
 19 18  1  0
 20 19  1  0
 21 20  1  0
 21 17  1  0
 21 22  1  6
 23 22  1  0
 24 22  2  0
M  END
$$$$
