LDP.pdb
     RDKit          3D

 24 24  0  0  1  0  0  0  0  0999 V2000
   16.7709  -14.5744  -19.0068 C   0  0  0  0  0  0  0  0  0  0  0  0
   16.8446  -15.0457  -17.5691 C   0  0  2  0  0  0  0  0  0  0  0  0
   15.5842  -14.6216  -16.8787 C   0  0  0  0  0  0  0  0  0  0  0  0
   18.0753  -14.4339  -16.9474 C   0  0  0  0  0  0  0  0  0  0  0  0
   19.3401  -14.7486  -17.7086 C   0  0  2  0  0  0  0  0  0  0  0  0
   19.7023  -16.1228  -17.3886 N   0  0  0  0  0  0  0  0  0  0  0  0
   20.4080  -13.8712  -17.1557 C   0  0  0  0  0  0  0  0  0  0  0  0
   20.9161  -14.0642  -16.0150 O   0  0  0  0  0  0  0  0  0  0  0  0
   20.9288  -12.7526  -17.8799 N   0  0  0  0  0  0  0  0  0  0  0  0
   21.9568  -11.8693  -17.3082 C   0  0  1  0  0  0  0  0  0  0  0  0
   22.6422  -11.2454  -18.4876 C   0  0  0  0  0  0  0  0  0  0  0  0
   23.4587  -12.3225  -19.1349 C   0  0  0  0  0  0  0  0  0  0  0  0
   24.4289  -12.8217  -18.5051 O   0  0  0  0  0  0  0  0  0  0  0  0
   21.4318  -10.9552  -16.3139 C   0  0  0  0  0  0  0  0  0  0  0  0
   20.1716  -10.7330  -16.4190 O   0  0  0  0  0  0  0  0  0  0  0  0
   23.2080  -12.8063  -20.3965 O   0  0  0  0  0  0  0  0  0  0  0  0
   22.1326  -10.3047  -15.2772 N   0  0  0  0  0  0  0  0  0  0  0  0
   23.4874  -10.3546  -14.7956 C   0  0  0  0  0  0  0  0  0  0  0  0
   23.2598  -10.6075  -13.3196 C   0  0  0  0  0  0  0  0  0  0  0  0
   22.2244   -9.5330  -13.0271 C   0  0  0  0  0  0  0  0  0  0  0  0
   21.5588   -9.3224  -14.3729 C   0  0  1  0  0  0  0  0  0  0  0  0
   21.7600   -7.9369  -14.8629 C   0  0  0  0  0  0  0  0  0  0  0  0
   21.1389   -6.9206  -14.1495 O   0  0  0  0  0  0  0  0  0  0  0  0
   22.4352   -7.6243  -15.8531 O   0  0  0  0  0  0  0  0  0  0  0  0
  2  1  1  6
  2  3  1  0
  4  2  1  0
  4  5  1  0
  5  6  1  1
  5  7  1  0
  7  8  2  0
  9  7  1  0
  9 10  1  0
 10 11  1  6
 12 11  1  0
 13 12  2  0
 14 10  1  0
 14 15  2  0
 16 12  1  0
 17 14  1  0
 18 17  1  0
 19 18  1  0
 20 19  1  0
 21 20  1  0
 21 17  1  0
 21 22  1  6
 23 22  1  0
 24 22  2  0
M  END
$$$$
