LDP.pdb
     RDKit          3D

 24 24  0  0  1  0  0  0  0  0999 V2000
   22.6638  -12.0514  -18.0220 C   0  0  0  0  0  0  0  0  0  0  0  0
   22.3453  -12.4598  -16.5985 C   0  0  2  0  0  0  0  0  0  0  0  0
   21.2697  -13.5020  -16.6465 C   0  0  0  0  0  0  0  0  0  0  0  0
   21.9148  -11.2224  -15.8508 C   0  0  0  0  0  0  0  0  0  0  0  0
   22.9905  -10.1654  -15.7893 C   0  0  2  0  0  0  0  0  0  0  0  0
   24.0343  -10.6671  -14.9058 N   0  0  0  0  0  0  0  0  0  0  0  0
   22.3896   -8.9739  -15.1296 C   0  0  0  0  0  0  0  0  0  0  0  0
   21.6854   -9.0652  -14.0844 O   0  0  0  0  0  0  0  0  0  0  0  0
   22.5707   -7.6480  -15.6356 N   0  0  0  0  0  0  0  0  0  0  0  0
   21.8974   -6.4884  -15.0306 C   0  0  1  0  0  0  0  0  0  0  0  0
   22.9974   -5.5300  -14.6824 C   0  0  0  0  0  0  0  0  0  0  0  0
   22.3502   -4.3425  -14.0368 C   0  0  0  0  0  0  0  0  0  0  0  0
   22.1753   -3.2937  -14.7126 O   0  0  0  0  0  0  0  0  0  0  0  0
   20.8242   -5.9628  -15.8501 C   0  0  0  0  0  0  0  0  0  0  0  0
   21.0596   -6.0028  -17.1118 O   0  0  0  0  0  0  0  0  0  0  0  0
   21.9289   -4.3290  -12.7288 O   0  0  0  0  0  0  0  0  0  0  0  0
   19.5894   -5.4297  -15.4258 N   0  0  0  0  0  0  0  0  0  0  0  0
   18.9539   -5.2642  -14.1456 C   0  0  0  0  0  0  0  0  0  0  0  0
   17.6087   -5.9100  -14.4057 C   0  0  0  0  0  0  0  0  0  0  0  0
   17.2350   -5.2199  -15.7081 C   0  0  0  0  0  0  0  0  0  0  0  0
   18.5817   -4.8609  -16.3049 C   0  0  1  0  0  0  0  0  0  0  0  0
   18.7356   -3.3921  -16.4438 C   0  0  0  0  0  0  0  0  0  0  0  0
   19.7865   -2.8015  -15.7550 O   0  0  0  0  0  0  0  0  0  0  0  0
   18.0012   -2.6616  -17.1229 O   0  0  0  0  0  0  0  0  0  0  0  0
  2  1  1  6
  2  3  1  0
  4  2  1  0
  4  5  1  0
  5  6  1  1
  5  7  1  0
  7  8  2  0
  9  7  1  0
  9 10  1  0
 10 11  1  6
 12 11  1  0
 13 12  2  0
 14 10  1  0
 14 15  2  0
 16 12  1  0
 17 14  1  0
 18 17  1  0
 19 18  1  0
 20 19  1  0
 21 20  1  0
 21 17  1  0
 21 22  1  1
 23 22  1  0
 24 22  2  0
M  END
$$$$
