LDP.pdb
     RDKit          3D

 24 24  0  0  1  0  0  0  0  0999 V2000
   20.8348   -0.8850  -14.5891 C   0  0  0  0  0  0  0  0  0  0  0  0
   19.9146   -1.9889  -15.0676 C   0  0  2  0  0  0  0  0  0  0  0  0
   18.5077   -1.5937  -14.7362 C   0  0  0  0  0  0  0  0  0  0  0  0
   20.3312   -3.2651  -14.3795 C   0  0  0  0  0  0  0  0  0  0  0  0
   21.7026   -3.7393  -14.7949 C   0  0  2  0  0  0  0  0  0  0  0  0
   21.8551   -3.4240  -16.2088 N   0  0  0  0  0  0  0  0  0  0  0  0
   21.7036   -5.2228  -14.6715 C   0  0  0  0  0  0  0  0  0  0  0  0
   21.5739   -5.8070  -13.5586 O   0  0  0  0  0  0  0  0  0  0  0  0
   21.8512   -6.0835  -15.8047 N   0  0  0  0  0  0  0  0  0  0  0  0
   21.7972   -7.5481  -15.6784 C   0  0  1  0  0  0  0  0  0  0  0  0
   20.4301   -7.9361  -16.1584 C   0  0  0  0  0  0  0  0  0  0  0  0
   20.3154   -9.4206  -15.9880 C   0  0  0  0  0  0  0  0  0  0  0  0
   20.5007  -10.1705  -16.9833 O   0  0  0  0  0  0  0  0  0  0  0  0
   22.9143   -8.2153  -16.3161 C   0  0  0  0  0  0  0  0  0  0  0  0
   23.3779   -7.5978  -17.3421 O   0  0  0  0  0  0  0  0  0  0  0  0
   20.0147  -10.0231  -14.7900 O   0  0  0  0  0  0  0  0  0  0  0  0
   23.5274   -9.4295  -15.9438 N   0  0  0  0  0  0  0  0  0  0  0  0
   23.2891  -10.3982  -14.9071 C   0  0  0  0  0  0  0  0  0  0  0  0
   24.6685  -10.5061  -14.2905 C   0  0  0  0  0  0  0  0  0  0  0  0
   25.5022  -10.6984  -15.5475 C   0  0  0  0  0  0  0  0  0  0  0  0
   24.6651  -10.0297  -16.6202 C   0  0  1  0  0  0  0  0  0  0  0  0
   24.2410  -11.0017  -17.6573 C   0  0  0  0  0  0  0  0  0  0  0  0
   22.9055  -11.3813  -17.6556 O   0  0  0  0  0  0  0  0  0  0  0  0
   24.9851  -11.4946  -18.5160 O   0  0  0  0  0  0  0  0  0  0  0  0
  2  1  1  1
  2  3  1  0
  4  2  1  0
  4  5  1  0
  5  6  1  6
  5  7  1  0
  7  8  2  0
  9  7  1  0
  9 10  1  0
 10 11  1  6
 12 11  1  0
 13 12  2  0
 14 10  1  0
 14 15  2  0
 16 12  1  0
 17 14  1  0
 18 17  1  0
 19 18  1  0
 20 19  1  0
 21 20  1  0
 21 17  1  0
 21 22  1  6
 23 22  1  0
 24 22  2  0
M  END
$$$$
