QVI.pdb
     RDKit          3D

 25 24  0  0  1  0  0  0  0  0999 V2000
    7.2767  -19.6384   28.2306 N   0  0  0  0  0  0  0  0  0  0  0  0
    6.7495  -20.7065   27.4459 C   0  0  0  0  0  0  0  0  0  0  0  0
    6.4026  -21.7357   28.0369 O   0  0  0  0  0  0  0  0  0  0  0  0
    6.6393  -20.5651   25.9999 C   0  0  0  0  0  0  0  0  0  0  0  0
    7.0140  -19.2322   25.4377 C   0  0  0  0  0  0  0  0  0  0  0  0
    6.7941  -19.0532   23.9691 C   0  0  2  0  0  0  0  0  0  0  0  0
    7.0008  -20.3999   23.3899 N   0  0  0  0  0  0  0  0  0  0  0  0
    7.5696  -18.0592   23.2613 C   0  0  0  0  0  0  0  0  0  0  0  0
    8.8000  -18.2684   22.9972 O   0  0  0  0  0  0  0  0  0  0  0  0
    6.3457  -15.3227   20.3803 C   0  0  0  0  0  0  0  0  0  0  0  0
    6.9556  -14.7050   21.6171 C   0  0  2  0  0  0  0  0  0  0  0  0
    7.7100  -13.4677   21.2373 C   0  0  0  0  0  0  0  0  0  0  0  0
    7.8646  -15.7214   22.3244 C   0  0  2  0  0  0  0  0  0  0  0  0
    7.0567  -16.7990   22.8008 N   0  0  0  0  0  0  0  0  0  0  0  0
    8.5255  -14.9650   23.4230 C   0  0  0  0  0  0  0  0  0  0  0  0
    9.3592  -14.0761   23.1139 O   0  0  0  0  0  0  0  0  0  0  0  0
    5.6699  -12.4274   26.6966 C   0  0  0  0  0  0  0  0  0  0  0  0
    6.8593  -12.8865   25.8905 C   0  0  0  0  0  0  0  0  0  0  0  0
    7.7428  -13.7849   26.7305 C   0  0  2  0  0  0  0  0  0  0  0  0
    8.4208  -12.9842   27.8221 C   0  0  0  0  0  0  0  0  0  0  0  0
    8.8222  -14.3887   25.8648 C   0  0  2  0  0  0  0  0  0  0  0  0
    8.2733  -15.1849   24.7865 N   0  0  0  0  0  0  0  0  0  0  0  0
    9.6289  -15.2911   26.7213 C   0  0  0  0  0  0  0  0  0  0  0  0
    9.4044  -16.5249   26.7566 O   0  0  0  0  0  0  0  0  0  0  0  0
   10.6626  -14.8214   27.5192 O   0  0  0  0  0  0  0  0  0  0  0  0
  1  2  1  0
  2  3  2  0
  4  2  1  0
  5  4  1  0
  6  7  1  6
  6  5  1  0
  8  6  1  0
  9  8  2  0
 11 12  1  6
 11 10  1  0
 11 13  1  0
 13 14  1  1
 14  8  1  0
 15 13  1  0
 15 16  2  0
 18 17  1  0
 19 18  1  0
 19 21  1  0
 19 20  1  1
 21 22  1  6
 22 15  1  0
 23 21  1  0
 24 23  2  0
 25 23  1  0
M  END
$$$$
