QVI.pdb
     RDKit          3D

 25 24  0  0  1  0  0  0  0  0999 V2000
   13.4378  -20.0083   21.9846 N   0  0  0  0  0  0  0  0  0  0  0  0
   13.7717  -18.7769   21.3467 C   0  0  0  0  0  0  0  0  0  0  0  0
   14.6092  -18.0536   21.8984 O   0  0  0  0  0  0  0  0  0  0  0  0
   13.1299  -18.4068   20.0920 C   0  0  0  0  0  0  0  0  0  0  0  0
   12.3754  -17.1169   20.0933 C   0  0  0  0  0  0  0  0  0  0  0  0
   10.9279  -17.2020   19.7267 C   0  0  2  0  0  0  0  0  0  0  0  0
   10.9047  -17.0812   18.2512 N   0  0  0  0  0  0  0  0  0  0  0  0
    9.9958  -16.2809   20.3375 C   0  0  0  0  0  0  0  0  0  0  0  0
    9.9996  -15.0476   20.0112 O   0  0  0  0  0  0  0  0  0  0  0  0
    6.6497  -17.7325   22.3141 C   0  0  0  0  0  0  0  0  0  0  0  0
    6.6786  -16.3120   21.8000 C   0  0  2  0  0  0  0  0  0  0  0  0
    6.1983  -16.2845   20.3812 C   0  0  0  0  0  0  0  0  0  0  0  0
    8.0955  -15.7317   21.9240 C   0  0  2  0  0  0  0  0  0  0  0  0
    9.0145  -16.6444   21.3215 N   0  0  0  0  0  0  0  0  0  0  0  0
    8.3264  -15.5585   23.3843 C   0  0  0  0  0  0  0  0  0  0  0  0
    9.1186  -16.3485   23.9580 O   0  0  0  0  0  0  0  0  0  0  0  0
    6.1648  -11.0180   25.6083 C   0  0  0  0  0  0  0  0  0  0  0  0
    7.3022  -11.9763   25.3562 C   0  0  0  0  0  0  0  0  0  0  0  0
    7.0910  -13.2539   26.1411 C   0  0  2  0  0  0  0  0  0  0  0  0
    7.4886  -13.0543   27.5883 C   0  0  0  0  0  0  0  0  0  0  0  0
    7.9603  -14.3491   25.5719 C   0  0  2  0  0  0  0  0  0  0  0  0
    7.7115  -14.5639   24.1613 N   0  0  0  0  0  0  0  0  0  0  0  0
    7.6191  -15.6049   26.2827 C   0  0  0  0  0  0  0  0  0  0  0  0
    6.5614  -16.2290   26.0261 O   0  0  0  0  0  0  0  0  0  0  0  0
    8.4438  -16.1480   27.2576 O   0  0  0  0  0  0  0  0  0  0  0  0
  1  2  1  0
  2  3  2  0
  4  2  1  0
  5  4  1  0
  6  7  1  6
  6  5  1  0
  8  6  1  0
  9  8  2  0
 11 12  1  6
 11 10  1  0
 11 13  1  0
 13 14  1  1
 14  8  1  0
 15 13  1  0
 15 16  2  0
 18 17  1  0
 19 18  1  0
 19 21  1  0
 19 20  1  1
 21 22  1  6
 22 15  1  0
 23 21  1  0
 24 23  2  0
 25 23  1  0
M  END
$$$$
