QVI.pdb
     RDKit          3D

 25 24  0  0  1  0  0  0  0  0999 V2000
   14.3813  -19.5428   21.2971 N   0  0  0  0  0  0  0  0  0  0  0  0
   13.3597  -20.3661   20.7377 C   0  0  0  0  0  0  0  0  0  0  0  0
   13.5288  -21.5906   20.7680 O   0  0  0  0  0  0  0  0  0  0  0  0
   12.1709  -19.7592   20.1532 C   0  0  0  0  0  0  0  0  0  0  0  0
   12.1036  -18.2670   20.1970 C   0  0  0  0  0  0  0  0  0  0  0  0
   10.8508  -17.6498   19.6615 C   0  0  2  0  0  0  0  0  0  0  0  0
   11.0789  -17.5384   18.2029 N   0  0  0  0  0  0  0  0  0  0  0  0
   10.3986  -16.3924   20.2136 C   0  0  0  0  0  0  0  0  0  0  0  0
   11.1967  -15.4010   20.2994 O   0  0  0  0  0  0  0  0  0  0  0  0
    7.4033  -14.2762   19.3112 C   0  0  0  0  0  0  0  0  0  0  0  0
    7.2994  -14.5121   20.8000 C   0  0  2  0  0  0  0  0  0  0  0  0
    6.8041  -13.2669   21.4696 C   0  0  0  0  0  0  0  0  0  0  0  0
    8.6597  -14.9492   21.3640 C   0  0  2  0  0  0  0  0  0  0  0  0
    9.0676  -16.1424   20.6926 N   0  0  0  0  0  0  0  0  0  0  0  0
    8.4374  -15.1535   22.8216 C   0  0  0  0  0  0  0  0  0  0  0  0
    8.5255  -16.3218   23.2778 O   0  0  0  0  0  0  0  0  0  0  0  0
    7.3409  -11.8990   28.0484 C   0  0  0  0  0  0  0  0  0  0  0  0
    7.6630  -13.1953   27.3476 C   0  0  0  0  0  0  0  0  0  0  0  0
    7.6558  -12.9924   25.8470 C   0  0  2  0  0  0  0  0  0  0  0  0
    6.2537  -12.6871   25.3640 C   0  0  0  0  0  0  0  0  0  0  0  0
    8.1135  -14.2570   25.1613 C   0  0  2  0  0  0  0  0  0  0  0  0
    8.1345  -14.1177   23.7197 N   0  0  0  0  0  0  0  0  0  0  0  0
    7.1381  -15.3233   25.4935 C   0  0  0  0  0  0  0  0  0  0  0  0
    6.0994  -15.4887   24.8096 O   0  0  0  0  0  0  0  0  0  0  0  0
    7.3227  -16.1833   26.5667 O   0  0  0  0  0  0  0  0  0  0  0  0
  1  2  1  0
  2  3  2  0
  4  2  1  0
  5  4  1  0
  6  7  1  6
  6  5  1  0
  8  6  1  0
  9  8  2  0
 11 12  1  1
 11 10  1  0
 11 13  1  0
 13 14  1  6
 14  8  1  0
 15 13  1  0
 15 16  2  0
 18 17  1  0
 19 18  1  0
 19 21  1  0
 19 20  1  6
 21 22  1  6
 22 15  1  0
 23 21  1  0
 24 23  2  0
 25 23  1  0
M  END
$$$$
