QVI.pdb
     RDKit          3D

 25 24  0  0  1  0  0  0  0  0999 V2000
    6.8304  -19.8273   21.5304 N   0  0  0  0  0  0  0  0  0  0  0  0
    7.5027  -20.4708   20.4494 C   0  0  0  0  0  0  0  0  0  0  0  0
    6.8073  -20.9769   19.5610 O   0  0  0  0  0  0  0  0  0  0  0  0
    8.9587  -20.5198   20.4204 C   0  0  0  0  0  0  0  0  0  0  0  0
    9.6692  -19.3178   20.9528 C   0  0  0  0  0  0  0  0  0  0  0  0
    9.6398  -18.0995   20.0856 C   0  0  2  0  0  0  0  0  0  0  0  0
   10.7736  -18.2752   19.1498 N   0  0  0  0  0  0  0  0  0  0  0  0
    9.6786  -16.7956   20.7089 C   0  0  0  0  0  0  0  0  0  0  0  0
   10.7908  -16.2856   21.0699 O   0  0  0  0  0  0  0  0  0  0  0  0
    7.5973  -13.7172   19.4815 C   0  0  0  0  0  0  0  0  0  0  0  0
    7.4357  -13.8323   20.9794 C   0  0  2  0  0  0  0  0  0  0  0  0
    7.4085  -12.4626   21.5856 C   0  0  0  0  0  0  0  0  0  0  0  0
    8.5681  -14.6852   21.5710 C   0  0  2  0  0  0  0  0  0  0  0  0
    8.5252  -15.9791   20.9670 N   0  0  0  0  0  0  0  0  0  0  0  0
    8.3117  -14.7229   23.0368 C   0  0  0  0  0  0  0  0  0  0  0  0
    7.2840  -15.3214   23.4447 O   0  0  0  0  0  0  0  0  0  0  0  0
    6.2351  -11.6153   25.8188 C   0  0  0  0  0  0  0  0  0  0  0  0
    7.5678  -12.2014   25.4241 C   0  0  0  0  0  0  0  0  0  0  0  0
    7.6593  -13.6424   25.8805 C   0  0  2  0  0  0  0  0  0  0  0  0
    7.6162  -13.7193   27.3920 C   0  0  0  0  0  0  0  0  0  0  0  0
    8.9708  -14.2365   25.4267 C   0  0  2  0  0  0  0  0  0  0  0  0
    9.1502  -14.1289   23.9935 N   0  0  0  0  0  0  0  0  0  0  0  0
    8.9492  -15.6794   25.7678 C   0  0  0  0  0  0  0  0  0  0  0  0
    7.9973  -16.4158   25.4135 O   0  0  0  0  0  0  0  0  0  0  0  0
    9.9702  -16.2821   26.4887 O   0  0  0  0  0  0  0  0  0  0  0  0
  1  2  1  0
  2  3  2  0
  4  2  1  0
  5  4  1  0
  6  7  1  6
  6  5  1  0
  8  6  1  0
  9  8  2  0
 11 12  1  1
 11 10  1  0
 11 13  1  0
 13 14  1  6
 14  8  1  0
 15 13  1  0
 15 16  2  0
 18 17  1  0
 19 18  1  0
 19 21  1  0
 19 20  1  1
 21 22  1  6
 22 15  1  0
 23 21  1  0
 24 23  2  0
 25 23  1  0
M  END
$$$$
