QVI.pdb
     RDKit          3D

 25 24  0  0  1  0  0  0  0  0999 V2000
   13.8550  -19.7382   19.8296 N   0  0  0  0  0  0  0  0  0  0  0  0
   12.8280  -20.7141   19.9960 C   0  0  0  0  0  0  0  0  0  0  0  0
   13.0664  -21.8677   19.6203 O   0  0  0  0  0  0  0  0  0  0  0  0
   11.5506  -20.3365   20.5865 C   0  0  0  0  0  0  0  0  0  0  0  0
   11.4471  -18.9341   21.0921 C   0  0  0  0  0  0  0  0  0  0  0  0
   10.3527  -18.1023   20.5026 C   0  0  2  0  0  0  0  0  0  0  0  0
   10.6627  -18.0413   19.0562 N   0  0  0  0  0  0  0  0  0  0  0  0
   10.1122  -16.7809   21.0379 C   0  0  0  0  0  0  0  0  0  0  0  0
   11.0878  -15.9964   21.2831 O   0  0  0  0  0  0  0  0  0  0  0  0
    7.4310  -14.3742   19.6824 C   0  0  0  0  0  0  0  0  0  0  0  0
    7.2960  -14.3773   21.1873 C   0  0  2  0  0  0  0  0  0  0  0  0
    6.9937  -12.9898   21.6646 C   0  0  0  0  0  0  0  0  0  0  0  0
    8.5769  -14.9263   21.8336 C   0  0  2  0  0  0  0  0  0  0  0  0
    8.8129  -16.2414   21.3283 N   0  0  0  0  0  0  0  0  0  0  0  0
    8.3204  -14.9078   23.2998 C   0  0  0  0  0  0  0  0  0  0  0  0
    7.3900  -15.6244   23.7489 O   0  0  0  0  0  0  0  0  0  0  0  0
    6.2774  -11.2071   25.4406 C   0  0  0  0  0  0  0  0  0  0  0  0
    7.5490  -11.9753   25.1796 C   0  0  0  0  0  0  0  0  0  0  0  0
    7.5304  -13.2867   25.9365 C   0  0  2  0  0  0  0  0  0  0  0  0
    7.4916  -13.0325   27.4286 C   0  0  0  0  0  0  0  0  0  0  0  0
    8.7884  -14.0649   25.6350 C   0  0  2  0  0  0  0  0  0  0  0  0
    9.0565  -14.1367   24.2134 N   0  0  0  0  0  0  0  0  0  0  0  0
    8.5839  -15.4504   26.1221 C   0  0  0  0  0  0  0  0  0  0  0  0
    7.7186  -16.1985   25.6068 O   0  0  0  0  0  0  0  0  0  0  0  0
    9.3317  -15.9844   27.1620 O   0  0  0  0  0  0  0  0  0  0  0  0
  1  2  1  0
  2  3  2  0
  4  2  1  0
  5  4  1  0
  6  7  1  6
  6  5  1  0
  8  6  1  0
  9  8  2  0
 11 12  1  1
 11 10  1  0
 11 13  1  0
 13 14  1  6
 14  8  1  0
 15 13  1  0
 15 16  2  0
 18 17  1  0
 19 18  1  0
 19 21  1  0
 19 20  1  1
 21 22  1  6
 22 15  1  0
 23 21  1  0
 24 23  2  0
 25 23  1  0
M  END
$$$$
