QVI.pdb
     RDKit          3D

 25 24  0  0  1  0  0  0  0  0999 V2000
   15.5588  -15.4404   17.6135 N   0  0  0  0  0  0  0  0  0  0  0  0
   15.1911  -14.3234   18.4209 C   0  0  0  0  0  0  0  0  0  0  0  0
   15.9729  -13.3666   18.4669 O   0  0  0  0  0  0  0  0  0  0  0  0
   13.9348  -14.3377   19.1589 C   0  0  0  0  0  0  0  0  0  0  0  0
   13.1316  -15.5947   19.0683 C   0  0  0  0  0  0  0  0  0  0  0  0
   12.3702  -15.9779   20.2973 C   0  0  2  0  0  0  0  0  0  0  0  0
   11.7203  -17.2628   19.9529 N   0  0  0  0  0  0  0  0  0  0  0  0
   11.4139  -15.0437   20.8479 C   0  0  0  0  0  0  0  0  0  0  0  0
   11.8086  -13.9496   21.3719 O   0  0  0  0  0  0  0  0  0  0  0  0
    7.8470  -13.9961   19.3859 C   0  0  0  0  0  0  0  0  0  0  0  0
    7.7075  -14.4791   20.8108 C   0  0  2  0  0  0  0  0  0  0  0  0
    6.6612  -13.6688   21.5127 C   0  0  0  0  0  0  0  0  0  0  0  0
    9.0603  -14.3958   21.5339 C   0  0  2  0  0  0  0  0  0  0  0  0
    9.9910  -15.2405   20.8549 N   0  0  0  0  0  0  0  0  0  0  0  0
    8.7913  -14.8368   22.9299 C   0  0  0  0  0  0  0  0  0  0  0  0
    9.2444  -15.9502   23.2987 O   0  0  0  0  0  0  0  0  0  0  0  0
    6.2297  -11.1829   26.3161 C   0  0  0  0  0  0  0  0  0  0  0  0
    7.3561  -12.0939   25.8958 C   0  0  0  0  0  0  0  0  0  0  0  0
    6.9088  -13.5392   25.9591 C   0  0  2  0  0  0  0  0  0  0  0  0
    6.8116  -13.9974   27.3989 C   0  0  0  0  0  0  0  0  0  0  0  0
    7.9231  -14.4155   25.2647 C   0  0  2  0  0  0  0  0  0  0  0  0
    8.0605  -14.0827   23.8618 N   0  0  0  0  0  0  0  0  0  0  0  0
    7.4363  -15.8137   25.3472 C   0  0  0  0  0  0  0  0  0  0  0  0
    7.9566  -16.6365   26.1386 O   0  0  0  0  0  0  0  0  0  0  0  0
    6.3912  -16.2782   24.5614 O   0  0  0  0  0  0  0  0  0  0  0  0
  1  2  1  0
  2  3  2  0
  4  2  1  0
  5  4  1  0
  6  7  1  6
  6  5  1  0
  8  6  1  0
  9  8  2  0
 11 12  1  1
 11 10  1  0
 11 13  1  0
 13 14  1  6
 14  8  1  0
 15 13  1  0
 15 16  2  0
 18 17  1  0
 19 18  1  0
 19 21  1  0
 19 20  1  1
 21 22  1  6
 22 15  1  0
 23 21  1  0
 24 23  2  0
 25 23  1  0
M  END
$$$$
