QVI.pdb
     RDKit          3D

 25 24  0  0  1  0  0  0  0  0999 V2000
   11.8183  -21.7407   22.8391 N   0  0  0  0  0  0  0  0  0  0  0  0
   12.7482  -20.9007   22.1576 C   0  0  0  0  0  0  0  0  0  0  0  0
   13.9439  -21.0109   22.4525 O   0  0  0  0  0  0  0  0  0  0  0  0
   12.2779  -19.9516   21.1571 C   0  0  0  0  0  0  0  0  0  0  0  0
   11.8745  -18.6051   21.6644 C   0  0  0  0  0  0  0  0  0  0  0  0
   11.4284  -17.6202   20.6309 C   0  0  2  0  0  0  0  0  0  0  0  0
   12.6283  -17.3776   19.7983 N   0  0  0  0  0  0  0  0  0  0  0  0
   10.8350  -16.3741   21.0616 C   0  0  0  0  0  0  0  0  0  0  0  0
   11.5735  -15.3883   21.3934 O   0  0  0  0  0  0  0  0  0  0  0  0
    7.9714  -14.3324   19.4495 C   0  0  0  0  0  0  0  0  0  0  0  0
    7.5914  -14.5881   20.8894 C   0  0  2  0  0  0  0  0  0  0  0  0
    6.9037  -13.3796   21.4467 C   0  0  0  0  0  0  0  0  0  0  0  0
    8.8376  -14.9529   21.7101 C   0  0  2  0  0  0  0  0  0  0  0  0
    9.4222  -16.1297   21.1496 N   0  0  0  0  0  0  0  0  0  0  0  0
    8.3502  -15.1562   23.1018 C   0  0  0  0  0  0  0  0  0  0  0  0
    8.2753  -16.3328   23.5387 O   0  0  0  0  0  0  0  0  0  0  0  0
    7.3770  -10.6122   26.2477 C   0  0  0  0  0  0  0  0  0  0  0  0
    7.9965  -11.9675   26.0137 C   0  0  0  0  0  0  0  0  0  0  0  0
    6.9152  -13.0200   25.8869 C   0  0  2  0  0  0  0  0  0  0  0  0
    6.3385  -13.3485   27.2477 C   0  0  0  0  0  0  0  0  0  0  0  0
    7.5051  -14.2881   25.3187 C   0  0  2  0  0  0  0  0  0  0  0  0
    7.9683  -14.1110   23.9578 N   0  0  0  0  0  0  0  0  0  0  0  0
    6.4304  -15.3095   25.2961 C   0  0  0  0  0  0  0  0  0  0  0  0
    5.4973  -15.2514   24.4595 O   0  0  0  0  0  0  0  0  0  0  0  0
    6.4025  -16.3706   26.1899 O   0  0  0  0  0  0  0  0  0  0  0  0
  1  2  1  0
  2  3  2  0
  4  2  1  0
  5  4  1  0
  6  7  1  1
  6  5  1  0
  8  6  1  0
  9  8  2  0
 11 12  1  1
 11 10  1  0
 11 13  1  0
 13 14  1  6
 14  8  1  0
 15 13  1  0
 15 16  2  0
 18 17  1  0
 19 18  1  0
 19 21  1  0
 19 20  1  1
 21 22  1  6
 22 15  1  0
 23 21  1  0
 24 23  2  0
 25 23  1  0
M  END
$$$$
