QVI.pdb
     RDKit          3D

 25 24  0  0  1  0  0  0  0  0999 V2000
   15.0362  -13.0384   18.6935 N   0  0  0  0  0  0  0  0  0  0  0  0
   15.1143  -14.4412   18.9401 C   0  0  0  0  0  0  0  0  0  0  0  0
   16.1787  -15.0120   18.6754 O   0  0  0  0  0  0  0  0  0  0  0  0
   13.9635  -15.1528   19.4810 C   0  0  0  0  0  0  0  0  0  0  0  0
   12.6289  -14.7565   18.9378 C   0  0  0  0  0  0  0  0  0  0  0  0
   11.4451  -15.4513   19.5321 C   0  0  2  0  0  0  0  0  0  0  0  0
   10.8805  -16.2511   18.4214 N   0  0  0  0  0  0  0  0  0  0  0  0
   10.4200  -14.6607   20.1758 C   0  0  0  0  0  0  0  0  0  0  0  0
   10.2044  -13.4589   19.8062 O   0  0  0  0  0  0  0  0  0  0  0  0
    7.1327  -16.4281   21.6380 C   0  0  0  0  0  0  0  0  0  0  0  0
    7.1805  -14.9410   21.3750 C   0  0  2  0  0  0  0  0  0  0  0  0
    6.9455  -14.6836   19.9180 C   0  0  0  0  0  0  0  0  0  0  0  0
    8.5270  -14.3637   21.8367 C   0  0  2  0  0  0  0  0  0  0  0  0
    9.5770  -15.1276   21.2410 N   0  0  0  0  0  0  0  0  0  0  0  0
    8.5120  -14.4617   23.3219 C   0  0  0  0  0  0  0  0  0  0  0  0
    9.4295  -15.1127   23.8834 O   0  0  0  0  0  0  0  0  0  0  0  0
    7.4629  -11.1847   26.2235 C   0  0  0  0  0  0  0  0  0  0  0  0
    6.1994  -11.8759   25.7751 C   0  0  0  0  0  0  0  0  0  0  0  0
    6.2437  -13.3411   26.1552 C   0  0  2  0  0  0  0  0  0  0  0  0
    6.3035  -13.4925   27.6605 C   0  0  0  0  0  0  0  0  0  0  0  0
    7.4853  -13.9778   25.5790 C   0  0  2  0  0  0  0  0  0  0  0  0
    7.5327  -13.8697   24.1354 N   0  0  0  0  0  0  0  0  0  0  0  0
    7.4458  -15.4207   25.9184 C   0  0  0  0  0  0  0  0  0  0  0  0
    8.1757  -15.8951   26.8218 O   0  0  0  0  0  0  0  0  0  0  0  0
    6.6081  -16.3103   25.2609 O   0  0  0  0  0  0  0  0  0  0  0  0
  1  2  1  0
  2  3  2  0
  4  2  1  0
  5  4  1  0
  6  7  1  6
  6  5  1  0
  8  6  1  0
  9  8  2  0
 11 12  1  6
 11 10  1  0
 11 13  1  0
 13 14  1  6
 14  8  1  0
 15 13  1  0
 15 16  2  0
 18 17  1  0
 19 18  1  0
 19 21  1  0
 19 20  1  1
 21 22  1  6
 22 15  1  0
 23 21  1  0
 24 23  2  0
 25 23  1  0
M  END
$$$$
