QVI.pdb
     RDKit          3D

 25 24  0  0  1  0  0  0  0  0999 V2000
   16.5961  -16.7893   21.5666 N   0  0  0  0  0  0  0  0  0  0  0  0
   15.7429  -16.9300   20.4322 C   0  0  0  0  0  0  0  0  0  0  0  0
   16.1588  -16.5106   19.3459 O   0  0  0  0  0  0  0  0  0  0  0  0
   14.4304  -17.5459   20.5774 C   0  0  0  0  0  0  0  0  0  0  0  0
   13.3701  -16.6980   21.2018 C   0  0  0  0  0  0  0  0  0  0  0  0
   12.1548  -16.4453   20.3673 C   0  0  2  0  0  0  0  0  0  0  0  0
   12.6624  -15.7507   19.1623 N   0  0  0  0  0  0  0  0  0  0  0  0
   11.0425  -15.7284   20.9496 C   0  0  0  0  0  0  0  0  0  0  0  0
   11.1432  -14.4842   21.2125 O   0  0  0  0  0  0  0  0  0  0  0  0
    7.1594  -16.3805   20.0150 C   0  0  0  0  0  0  0  0  0  0  0  0
    7.3757  -16.3541   21.5101 C   0  0  2  0  0  0  0  0  0  0  0  0
    6.1912  -15.7227   22.1752 C   0  0  0  0  0  0  0  0  0  0  0  0
    8.6734  -15.6035   21.8451 C   0  0  2  0  0  0  0  0  0  0  0  0
    9.7709  -16.3147   21.2702 N   0  0  0  0  0  0  0  0  0  0  0  0
    8.7311  -15.5554   23.3317 C   0  0  0  0  0  0  0  0  0  0  0  0
    9.4087  -16.4304   23.9284 O   0  0  0  0  0  0  0  0  0  0  0  0
    6.8474  -10.9202   25.8057 C   0  0  0  0  0  0  0  0  0  0  0  0
    7.8106  -12.0258   25.4521 C   0  0  0  0  0  0  0  0  0  0  0  0
    7.3698  -13.3257   26.0917 C   0  0  2  0  0  0  0  0  0  0  0  0
    7.5842  -13.2743   27.5897 C   0  0  0  0  0  0  0  0  0  0  0  0
    8.1964  -14.4655   25.5474 C   0  0  2  0  0  0  0  0  0  0  0  0
    8.0728  -14.5895   24.1096 N   0  0  0  0  0  0  0  0  0  0  0  0
    7.6814  -15.7185   26.1504 C   0  0  0  0  0  0  0  0  0  0  0  0
    6.5690  -16.1911   25.8141 O   0  0  0  0  0  0  0  0  0  0  0  0
    8.3965  -16.4245   27.1074 O   0  0  0  0  0  0  0  0  0  0  0  0
  1  2  1  0
  2  3  2  0
  4  2  1  0
  5  4  1  0
  6  7  1  6
  6  5  1  0
  8  6  1  0
  9  8  2  0
 11 12  1  1
 11 10  1  0
 11 13  1  0
 13 14  1  1
 14  8  1  0
 15 13  1  0
 15 16  2  0
 18 17  1  0
 19 18  1  0
 19 21  1  0
 19 20  1  1
 21 22  1  6
 22 15  1  0
 23 21  1  0
 24 23  2  0
 25 23  1  0
M  END
$$$$
