QVI.pdb
     RDKit          3D

 25 24  0  0  1  0  0  0  0  0999 V2000
   11.5865  -21.5866   20.8255 N   0  0  0  0  0  0  0  0  0  0  0  0
   12.1440  -20.8646   21.9222 C   0  0  0  0  0  0  0  0  0  0  0  0
   11.7852  -21.1843   23.0614 O   0  0  0  0  0  0  0  0  0  0  0  0
   13.0971  -19.7894   21.6798 C   0  0  0  0  0  0  0  0  0  0  0  0
   12.6019  -18.4015   21.9280 C   0  0  0  0  0  0  0  0  0  0  0  0
   11.6271  -17.8633   20.9294 C   0  0  2  0  0  0  0  0  0  0  0  0
   12.4152  -17.6913   19.6879 N   0  0  0  0  0  0  0  0  0  0  0  0
   10.8913  -16.6602   21.2478 C   0  0  0  0  0  0  0  0  0  0  0  0
   11.4750  -15.5260   21.2420 O   0  0  0  0  0  0  0  0  0  0  0  0
    7.4659  -15.5739   19.8423 C   0  0  0  0  0  0  0  0  0  0  0  0
    7.3775  -15.4985   21.3488 C   0  0  2  0  0  0  0  0  0  0  0  0
    6.5606  -14.3060   21.7422 C   0  0  0  0  0  0  0  0  0  0  0  0
    8.7854  -15.4407   21.9606 C   0  0  2  0  0  0  0  0  0  0  0  0
    9.4945  -16.6213   21.5809 N   0  0  0  0  0  0  0  0  0  0  0  0
    8.5749  -15.3405   23.4307 C   0  0  0  0  0  0  0  0  0  0  0  0
    9.0496  -16.2467   24.1617 O   0  0  0  0  0  0  0  0  0  0  0  0
    6.9964  -10.7256   27.3337 C   0  0  0  0  0  0  0  0  0  0  0  0
    7.7124  -12.0253   27.0624 C   0  0  0  0  0  0  0  0  0  0  0  0
    7.3306  -12.5555   25.6964 C   0  0  2  0  0  0  0  0  0  0  0  0
    5.9038  -13.0618   25.7085 C   0  0  0  0  0  0  0  0  0  0  0  0
    8.2271  -13.7144   25.3327 C   0  0  2  0  0  0  0  0  0  0  0  0
    7.8767  -14.2926   24.0518 N   0  0  0  0  0  0  0  0  0  0  0  0
    8.0403  -14.7640   26.3634 C   0  0  0  0  0  0  0  0  0  0  0  0
    8.4649  -14.6074   27.5335 O   0  0  0  0  0  0  0  0  0  0  0  0
    7.3931  -15.9603   26.0888 O   0  0  0  0  0  0  0  0  0  0  0  0
  1  2  1  0
  2  3  2  0
  4  2  1  0
  5  4  1  0
  6  7  1  6
  6  5  1  0
  8  6  1  0
  9  8  2  0
 11 12  1  6
 11 10  1  0
 11 13  1  0
 13 14  1  1
 14  8  1  0
 15 13  1  0
 15 16  2  0
 18 17  1  0
 19 18  1  0
 19 21  1  0
 19 20  1  1
 21 22  1  6
 22 15  1  0
 23 21  1  0
 24 23  2  0
 25 23  1  0
M  END
$$$$
