QVI.pdb
     RDKit          3D

 25 24  0  0  1  0  0  0  0  0999 V2000
   13.8954  -13.5070   18.9111 N   0  0  0  0  0  0  0  0  0  0  0  0
   13.9759  -14.7130   18.1535 C   0  0  0  0  0  0  0  0  0  0  0  0
   14.9484  -14.8555   17.4033 O   0  0  0  0  0  0  0  0  0  0  0  0
   12.9325  -15.7227   18.2750 C   0  0  0  0  0  0  0  0  0  0  0  0
   11.8863  -15.4679   19.3112 C   0  0  0  0  0  0  0  0  0  0  0  0
   10.7737  -16.4650   19.3806 C   0  0  2  0  0  0  0  0  0  0  0  0
   10.3060  -16.6062   17.9830 N   0  0  0  0  0  0  0  0  0  0  0  0
    9.6660  -16.2165   20.2759 C   0  0  0  0  0  0  0  0  0  0  0  0
    8.7337  -15.4126   19.9416 O   0  0  0  0  0  0  0  0  0  0  0  0
    8.6774  -18.9263   23.2312 C   0  0  0  0  0  0  0  0  0  0  0  0
    7.6950  -17.8871   22.7433 C   0  0  2  0  0  0  0  0  0  0  0  0
    6.9906  -18.3991   21.5243 C   0  0  0  0  0  0  0  0  0  0  0  0
    8.4209  -16.5639   22.4575 C   0  0  2  0  0  0  0  0  0  0  0  0
    9.5075  -16.8248   21.5676 N   0  0  0  0  0  0  0  0  0  0  0  0
    8.8691  -16.0628   23.7856 C   0  0  0  0  0  0  0  0  0  0  0  0
   10.0324  -16.3496   24.1667 O   0  0  0  0  0  0  0  0  0  0  0  0
    6.0293  -11.8458   25.8159 C   0  0  0  0  0  0  0  0  0  0  0  0
    7.2465  -12.6427   25.4177 C   0  0  0  0  0  0  0  0  0  0  0  0
    7.5246  -13.7186   26.4464 C   0  0  2  0  0  0  0  0  0  0  0  0
    8.1289  -13.1100   27.6941 C   0  0  0  0  0  0  0  0  0  0  0  0
    8.5188  -14.7088   25.8895 C   0  0  2  0  0  0  0  0  0  0  0  0
    8.0693  -15.2874   24.6401 N   0  0  0  0  0  0  0  0  0  0  0  0
    8.6489  -15.8116   26.8721 C   0  0  0  0  0  0  0  0  0  0  0  0
    7.7912  -16.7247   26.9403 O   0  0  0  0  0  0  0  0  0  0  0  0
    9.7150  -15.8890   27.7570 O   0  0  0  0  0  0  0  0  0  0  0  0
  1  2  1  0
  2  3  2  0
  4  2  1  0
  5  4  1  0
  6  7  1  6
  6  5  1  0
  8  6  1  0
  9  8  2  0
 11 12  1  6
 11 10  1  0
 11 13  1  0
 13 14  1  6
 14  8  1  0
 15 13  1  0
 15 16  2  0
 18 17  1  0
 19 18  1  0
 19 21  1  0
 19 20  1  1
 21 22  1  6
 22 15  1  0
 23 21  1  0
 24 23  2  0
 25 23  1  0
M  END
$$$$
