QVI.pdb
     RDKit          3D

 25 24  0  0  1  0  0  0  0  0999 V2000
   13.2001  -15.8953   18.6583 N   0  0  0  0  0  0  0  0  0  0  0  0
   12.5426  -14.6387   18.8116 C   0  0  0  0  0  0  0  0  0  0  0  0
   13.1239  -13.7627   19.4625 O   0  0  0  0  0  0  0  0  0  0  0  0
   11.2304  -14.4235   18.2159 C   0  0  0  0  0  0  0  0  0  0  0  0
   10.0629  -14.5105   19.1445 C   0  0  0  0  0  0  0  0  0  0  0  0
    9.8862  -15.8134   19.8576 C   0  0  2  0  0  0  0  0  0  0  0  0
    9.4910  -16.7715   18.8002 N   0  0  0  0  0  0  0  0  0  0  0  0
    8.9797  -15.8785   20.9820 C   0  0  0  0  0  0  0  0  0  0  0  0
    8.0409  -15.0236   21.1046 O   0  0  0  0  0  0  0  0  0  0  0  0
    7.3827  -19.1928   22.4664 C   0  0  0  0  0  0  0  0  0  0  0  0
    7.9988  -18.3797   23.5810 C   0  0  2  0  0  0  0  0  0  0  0  0
    7.1518  -18.4960   24.8111 C   0  0  0  0  0  0  0  0  0  0  0  0
    8.1562  -16.9152   23.1447 C   0  0  2  0  0  0  0  0  0  0  0  0
    9.0378  -16.8681   22.0216 N   0  0  0  0  0  0  0  0  0  0  0  0
    8.6973  -16.2031   24.3345 C   0  0  0  0  0  0  0  0  0  0  0  0
    9.8872  -16.4297   24.6719 O   0  0  0  0  0  0  0  0  0  0  0  0
    5.8992  -11.7145   25.9257 C   0  0  0  0  0  0  0  0  0  0  0  0
    7.0332  -12.6081   25.4887 C   0  0  0  0  0  0  0  0  0  0  0  0
    7.5196  -13.4415   26.6557 C   0  0  2  0  0  0  0  0  0  0  0  0
    8.2298  -12.5669   27.6670 C   0  0  0  0  0  0  0  0  0  0  0  0
    8.5067  -14.4735   26.1661 C   0  0  2  0  0  0  0  0  0  0  0  0
    7.9574  -15.2916   25.1045 N   0  0  0  0  0  0  0  0  0  0  0  0
    8.8181  -15.3695   27.3058 C   0  0  0  0  0  0  0  0  0  0  0  0
    8.0334  -16.2889   27.6419 O   0  0  0  0  0  0  0  0  0  0  0  0
    9.9814  -15.2379   28.0508 O   0  0  0  0  0  0  0  0  0  0  0  0
  1  2  1  0
  2  3  2  0
  4  2  1  0
  5  4  1  0
  6  7  1  6
  6  5  1  0
  8  6  1  0
  9  8  2  0
 11 12  1  1
 11 10  1  0
 11 13  1  0
 13 14  1  6
 14  8  1  0
 15 13  1  0
 15 16  2  0
 18 17  1  0
 19 18  1  0
 19 21  1  0
 19 20  1  1
 21 22  1  6
 22 15  1  0
 23 21  1  0
 24 23  2  0
 25 23  1  0
M  END
$$$$
