QVI.pdb
     RDKit          3D

 25 24  0  0  1  0  0  0  0  0999 V2000
    8.7854  -19.1800   19.7336 N   0  0  0  0  0  0  0  0  0  0  0  0
    7.4510  -19.0226   20.2125 C   0  0  0  0  0  0  0  0  0  0  0  0
    6.5887  -19.7912   19.7715 O   0  0  0  0  0  0  0  0  0  0  0  0
    7.1417  -17.9812   21.1836 C   0  0  0  0  0  0  0  0  0  0  0  0
    8.2979  -17.1688   21.6694 C   0  0  0  0  0  0  0  0  0  0  0  0
    8.0616  -15.6969   21.7913 C   0  0  2  0  0  0  0  0  0  0  0  0
    8.6575  -15.1165   20.5665 N   0  0  0  0  0  0  0  0  0  0  0  0
    8.5304  -15.0082   22.9730 C   0  0  0  0  0  0  0  0  0  0  0  0
    9.7234  -14.5598   23.0281 O   0  0  0  0  0  0  0  0  0  0  0  0
    6.5206  -12.3046   25.0574 C   0  0  0  0  0  0  0  0  0  0  0  0
    7.0442  -13.3759   25.9854 C   0  0  2  0  0  0  0  0  0  0  0  0
    7.4526  -12.7545   27.2858 C   0  0  0  0  0  0  0  0  0  0  0  0
    8.2151  -14.1214   25.3276 C   0  0  2  0  0  0  0  0  0  0  0  0
    7.7370  -14.7657   24.1456 N   0  0  0  0  0  0  0  0  0  0  0  0
    8.6994  -15.0839   26.3548 C   0  0  0  0  0  0  0  0  0  0  0  0
    7.9113  -15.9826   26.7447 O   0  0  0  0  0  0  0  0  0  0  0  0
   13.6375  -16.7007   25.5347 C   0  0  0  0  0  0  0  0  0  0  0  0
   12.1767  -16.6287   25.9036 C   0  0  0  0  0  0  0  0  0  0  0  0
   12.0261  -16.3299   27.3805 C   0  0  2  0  0  0  0  0  0  0  0  0
   12.5144  -17.5009   28.2067 C   0  0  0  0  0  0  0  0  0  0  0  0
   10.5688  -16.1113   27.7084 C   0  0  2  0  0  0  0  0  0  0  0  0
    9.9860  -15.0483   26.9156 N   0  0  0  0  0  0  0  0  0  0  0  0
   10.4876  -15.7038   29.1318 C   0  0  0  0  0  0  0  0  0  0  0  0
   10.5050  -16.5556   30.0527 O   0  0  0  0  0  0  0  0  0  0  0  0
   10.3891  -14.3734   29.5135 O   0  0  0  0  0  0  0  0  0  0  0  0
  1  2  1  0
  2  3  2  0
  4  2  1  0
  5  4  1  0
  6  7  1  6
  6  5  1  0
  8  6  1  0
  9  8  2  0
 11 12  1  1
 11 10  1  0
 11 13  1  0
 13 14  1  6
 14  8  1  0
 15 13  1  0
 15 16  2  0
 18 17  1  0
 19 18  1  0
 19 21  1  0
 19 20  1  1
 21 22  1  6
 22 15  1  0
 23 21  1  0
 24 23  2  0
 25 23  1  0
M  END
$$$$
