QVI.pdb
     RDKit          3D

 25 24  0  0  1  0  0  0  0  0999 V2000
   14.9481  -17.2745   18.1664 N   0  0  0  0  0  0  0  0  0  0  0  0
   14.8850  -18.2742   19.1820 C   0  0  0  0  0  0  0  0  0  0  0  0
   15.8744  -18.9999   19.3349 O   0  0  0  0  0  0  0  0  0  0  0  0
   13.6829  -18.4166   19.9929 C   0  0  0  0  0  0  0  0  0  0  0  0
   12.5639  -17.4758   19.6832 C   0  0  0  0  0  0  0  0  0  0  0  0
   11.3495  -17.5917   20.5486 C   0  0  2  0  0  0  0  0  0  0  0  0
   10.3876  -18.3799   19.7451 N   0  0  0  0  0  0  0  0  0  0  0  0
   10.7350  -16.3861   21.0577 C   0  0  0  0  0  0  0  0  0  0  0  0
   11.4568  -15.4207   21.4754 O   0  0  0  0  0  0  0  0  0  0  0  0
    6.5059  -16.1189   21.3693 C   0  0  0  0  0  0  0  0  0  0  0  0
    7.2954  -14.8564   21.1132 C   0  0  2  0  0  0  0  0  0  0  0  0
    7.3264  -14.5763   19.6419 C   0  0  0  0  0  0  0  0  0  0  0  0
    8.7133  -14.9916   21.6885 C   0  0  2  0  0  0  0  0  0  0  0  0
    9.3184  -16.1614   21.1352 N   0  0  0  0  0  0  0  0  0  0  0  0
    8.5360  -15.0754   23.1641 C   0  0  0  0  0  0  0  0  0  0  0  0
    8.8972  -16.1294   23.7467 O   0  0  0  0  0  0  0  0  0  0  0  0
    7.2699  -11.2898   27.9562 C   0  0  0  0  0  0  0  0  0  0  0  0
    7.6657  -12.6482   27.4333 C   0  0  0  0  0  0  0  0  0  0  0  0
    7.4547  -12.7117   25.9351 C   0  0  2  0  0  0  0  0  0  0  0  0
    5.9756  -12.7167   25.6117 C   0  0  0  0  0  0  0  0  0  0  0  0
    8.0487  -13.9891   25.3923 C   0  0  2  0  0  0  0  0  0  0  0  0
    7.9885  -14.0460   23.9463 N   0  0  0  0  0  0  0  0  0  0  0  0
    7.2411  -15.1159   25.9184 C   0  0  0  0  0  0  0  0  0  0  0  0
    6.2315  -15.5340   25.3023 O   0  0  0  0  0  0  0  0  0  0  0  0
    7.5580  -15.7586   27.1068 O   0  0  0  0  0  0  0  0  0  0  0  0
  1  2  1  0
  2  3  2  0
  4  2  1  0
  5  4  1  0
  6  7  1  6
  6  5  1  0
  8  6  1  0
  9  8  2  0
 11 12  1  6
 11 10  1  0
 11 13  1  0
 13 14  1  6
 14  8  1  0
 15 13  1  0
 15 16  2  0
 18 17  1  0
 19 18  1  0
 19 21  1  0
 19 20  1  1
 21 22  1  6
 22 15  1  0
 23 21  1  0
 24 23  2  0
 25 23  1  0
M  END
$$$$
