QVI.pdb
     RDKit          3D

 25 24  0  0  1  0  0  0  0  0999 V2000
   12.7675  -21.3129   21.4127 N   0  0  0  0  0  0  0  0  0  0  0  0
   13.6137  -20.1703   21.2982 C   0  0  0  0  0  0  0  0  0  0  0  0
   14.7965  -20.2961   21.6358 O   0  0  0  0  0  0  0  0  0  0  0  0
   13.0760  -18.9101   20.8022 C   0  0  0  0  0  0  0  0  0  0  0  0
   11.6370  -18.9207   20.3994 C   0  0  0  0  0  0  0  0  0  0  0  0
   11.0757  -17.6151   19.9332 C   0  0  2  0  0  0  0  0  0  0  0  0
   12.0973  -17.0740   19.0083 N   0  0  0  0  0  0  0  0  0  0  0  0
   10.6909  -16.6276   20.9166 C   0  0  0  0  0  0  0  0  0  0  0  0
   11.5496  -15.8012   21.3716 O   0  0  0  0  0  0  0  0  0  0  0  0
    7.0645  -14.7887   21.0115 C   0  0  0  0  0  0  0  0  0  0  0  0
    7.4683  -15.3165   22.3685 C   0  0  2  0  0  0  0  0  0  0  0  0
    6.9929  -14.3750   23.4324 C   0  0  0  0  0  0  0  0  0  0  0  0
    8.9909  -15.5104   22.4305 C   0  0  2  0  0  0  0  0  0  0  0  0
    9.3656  -16.4801   21.4507 N   0  0  0  0  0  0  0  0  0  0  0  0
    9.2776  -15.9544   23.8221 C   0  0  0  0  0  0  0  0  0  0  0  0
    9.3297  -17.1892   24.0526 O   0  0  0  0  0  0  0  0  0  0  0  0
   10.3765  -13.6728   29.5368 C   0  0  0  0  0  0  0  0  0  0  0  0
   10.4639  -14.7928   28.5302 C   0  0  0  0  0  0  0  0  0  0  0  0
    9.9885  -14.3136   27.1746 C   0  0  2  0  0  0  0  0  0  0  0  0
    8.5970  -13.7267   27.2823 C   0  0  0  0  0  0  0  0  0  0  0  0
    9.9234  -15.4796   26.2180 C   0  0  2  0  0  0  0  0  0  0  0  0
    9.4937  -15.0752   24.8952 N   0  0  0  0  0  0  0  0  0  0  0  0
    8.9164  -16.4327   26.7435 C   0  0  0  0  0  0  0  0  0  0  0  0
    7.7036  -16.3285   26.4398 O   0  0  0  0  0  0  0  0  0  0  0  0
    9.2608  -17.4776   27.5892 O   0  0  0  0  0  0  0  0  0  0  0  0
  1  2  1  0
  2  3  2  0
  4  2  1  0
  5  4  1  0
  6  7  1  6
  6  5  1  0
  8  6  1  0
  9  8  2  0
 11 12  1  1
 11 10  1  0
 11 13  1  0
 13 14  1  6
 14  8  1  0
 15 13  1  0
 15 16  2  0
 18 17  1  0
 19 18  1  0
 19 21  1  0
 19 20  1  1
 21 22  1  6
 22 15  1  0
 23 21  1  0
 24 23  2  0
 25 23  1  0
M  END
$$$$
