QVI.pdb
     RDKit          3D

 25 24  0  0  1  0  0  0  0  0999 V2000
    8.1047  -12.9797   17.8832 N   0  0  0  0  0  0  0  0  0  0  0  0
    8.4657  -14.1936   17.2270 C   0  0  0  0  0  0  0  0  0  0  0  0
    8.9273  -14.1120   16.0828 O   0  0  0  0  0  0  0  0  0  0  0  0
    8.2821  -15.4716   17.9025 C   0  0  0  0  0  0  0  0  0  0  0  0
    7.6594  -15.4159   19.2598 C   0  0  0  0  0  0  0  0  0  0  0  0
    7.4523  -16.7308   19.9420 C   0  0  2  0  0  0  0  0  0  0  0  0
    6.5392  -17.4794   19.0488 N   0  0  0  0  0  0  0  0  0  0  0  0
    6.9709  -16.7438   21.3053 C   0  0  0  0  0  0  0  0  0  0  0  0
    5.8061  -16.3038   21.5827 O   0  0  0  0  0  0  0  0  0  0  0  0
    6.6722  -19.5871   23.6562 C   0  0  0  0  0  0  0  0  0  0  0  0
    7.4520  -18.5495   24.4297 C   0  0  2  0  0  0  0  0  0  0  0  0
    7.0031  -18.5503   25.8589 C   0  0  0  0  0  0  0  0  0  0  0  0
    7.2757  -17.1655   23.7870 C   0  0  2  0  0  0  0  0  0  0  0  0
    7.7170  -17.2352   22.4302 N   0  0  0  0  0  0  0  0  0  0  0  0
    8.0943  -16.2372   24.6141 C   0  0  0  0  0  0  0  0  0  0  0  0
    9.3442  -16.2693   24.4816 O   0  0  0  0  0  0  0  0  0  0  0  0
    5.5522  -11.8518   26.8529 C   0  0  0  0  0  0  0  0  0  0  0  0
    6.5810  -12.6621   26.1044 C   0  0  0  0  0  0  0  0  0  0  0  0
    7.4562  -13.4216   27.0793 C   0  0  2  0  0  0  0  0  0  0  0  0
    8.3640  -12.4668   27.8255 C   0  0  0  0  0  0  0  0  0  0  0  0
    8.3311  -14.3937   26.3252 C   0  0  2  0  0  0  0  0  0  0  0  0
    7.5535  -15.3261   25.5353 N   0  0  0  0  0  0  0  0  0  0  0  0
    9.0906  -15.1805   27.3266 C   0  0  0  0  0  0  0  0  0  0  0  0
    8.5703  -16.1604   27.9123 O   0  0  0  0  0  0  0  0  0  0  0  0
   10.4019  -14.8760   27.6632 O   0  0  0  0  0  0  0  0  0  0  0  0
  1  2  1  0
  2  3  2  0
  4  2  1  0
  5  4  1  0
  6  7  1  6
  6  5  1  0
  8  6  1  0
  9  8  2  0
 11 12  1  1
 11 10  1  0
 11 13  1  0
 13 14  1  6
 14  8  1  0
 15 13  1  0
 15 16  2  0
 18 17  1  0
 19 18  1  0
 19 21  1  0
 19 20  1  6
 21 22  1  1
 22 15  1  0
 23 21  1  0
 24 23  2  0
 25 23  1  0
M  END
$$$$
