PPH.pdb
     RDKit          3D

 25 27  0  0  1  0  0  0  0  0999 V2000
    8.1012  -14.0210   21.1559 N   0  0  0  0  0  0  0  0  0  0  0  0
    8.2097  -15.4554   21.0939 C   0  0  0  0  0  0  0  0  0  0  0  0
    7.1071  -16.0251   21.9294 C   0  0  0  0  0  0  0  0  0  0  0  0
    6.3056  -14.7792   22.3403 C   0  0  0  0  0  0  0  0  0  0  0  0
    7.4032  -13.7382   22.3957 C   0  0  1  0  0  0  0  0  0  0  0  0
    8.2814  -13.9744   23.5822 C   0  0  0  0  0  0  0  0  0  0  0  0
    9.5114  -14.2544   23.3249 O   0  0  0  0  0  0  0  0  0  0  0  0
    7.8189  -13.9005   24.9076 N   0  0  0  0  0  0  0  0  0  0  0  0
    6.4362  -13.9695   25.3139 C   0  0  0  0  0  0  0  0  0  0  0  0
    6.3972  -12.7734   26.2799 C   0  0  0  0  0  0  0  0  0  0  0  0
    7.7643  -12.7943   26.9285 C   0  0  0  0  0  0  0  0  0  0  0  0
    8.5857  -13.7726   26.1051 C   0  0  1  0  0  0  0  0  0  0  0  0
    8.7790  -15.0735   26.8071 C   0  0  0  0  0  0  0  0  0  0  0  0
    7.7419  -15.7339   27.0762 O   0  0  0  0  0  0  0  0  0  0  0  0
   10.0184  -15.6160   27.1900 N   0  0  0  0  0  0  0  0  0  0  0  0
   10.1714  -16.9238   27.8037 C   0  0  1  0  0  0  0  0  0  0  0  0
   11.2275  -17.7388   27.0679 C   0  0  0  0  0  0  0  0  0  0  0  0
   11.0376  -17.7306   25.6024 C   0  0  0  0  0  0  0  0  0  0  0  0
   10.1298  -18.4615   24.8808 C   0  0  0  0  0  0  0  0  0  0  0  0
   10.2618  -18.1904   23.5807 N   0  0  0  0  0  0  0  0  0  0  0  0
   11.2415  -17.2959   23.4587 C   0  0  0  0  0  0  0  0  0  0  0  0
   11.7218  -17.0085   24.6861 N   0  0  0  0  0  0  0  0  0  0  0  0
   10.3973  -16.8422   29.2496 C   0  0  0  0  0  0  0  0  0  0  0  0
   10.4289  -17.8973   30.1136 O   0  0  0  0  0  0  0  0  0  0  0  0
   10.5795  -15.6785   29.7386 O   0  0  0  0  0  0  0  0  0  0  0  0
  1  2  1  0
  2  3  1  0
  4  3  1  0
  5  1  1  0
  5  4  1  0
  6  7  2  0
  5  6  1  1
  8  6  1  0
  9  8  1  0
  9 10  1  0
 11 10  1  0
 12  8  1  0
 12 11  1  0
 12 13  1  1
 14 13  2  0
 15 13  1  0
 16 15  1  0
 17 18  1  0
 16 17  1  6
 18 22  1  0
 19 20  1  0
 19 18  2  0
 20 21  1  0
 21 22  2  0
 23 16  1  0
 23 24  1  0
 25 23  2  0
M  END
$$$$
