PPH.pdb
     RDKit          3D

 25 27  0  0  1  0  0  0  0  0999 V2000
    8.0692  -14.1452   20.6024 N   0  0  0  0  0  0  0  0  0  0  0  0
    7.9672  -15.5706   20.4260 C   0  0  0  0  0  0  0  0  0  0  0  0
    6.8193  -16.0447   21.2601 C   0  0  0  0  0  0  0  0  0  0  0  0
    6.2190  -14.7356   21.7982 C   0  0  0  0  0  0  0  0  0  0  0  0
    7.4568  -13.8688   21.8880 C   0  0  1  0  0  0  0  0  0  0  0  0
    8.3266  -14.3235   23.0156 C   0  0  0  0  0  0  0  0  0  0  0  0
    9.5280  -14.6610   22.6986 O   0  0  0  0  0  0  0  0  0  0  0  0
    7.8858  -14.3870   24.3489 N   0  0  0  0  0  0  0  0  0  0  0  0
    6.5111  -14.5137   24.7681 C   0  0  0  0  0  0  0  0  0  0  0  0
    6.4750  -13.4197   25.8484 C   0  0  0  0  0  0  0  0  0  0  0  0
    7.8531  -13.4871   26.4701 C   0  0  0  0  0  0  0  0  0  0  0  0
    8.6714  -14.3685   25.5410 C   0  0  1  0  0  0  0  0  0  0  0  0
    8.8912  -15.7298   26.1073 C   0  0  0  0  0  0  0  0  0  0  0  0
    7.8694  -16.4423   26.2878 O   0  0  0  0  0  0  0  0  0  0  0  0
   10.1397  -16.2759   26.4540 N   0  0  0  0  0  0  0  0  0  0  0  0
   10.3168  -17.6250   26.9627 C   0  0  1  0  0  0  0  0  0  0  0  0
   11.6111  -18.2298   26.4335 C   0  0  0  0  0  0  0  0  0  0  0  0
   11.7882  -18.0206   24.9815 C   0  0  0  0  0  0  0  0  0  0  0  0
   10.9421  -18.4167   23.9783 C   0  0  0  0  0  0  0  0  0  0  0  0
   11.4419  -18.0540   22.7951 N   0  0  0  0  0  0  0  0  0  0  0  0
   12.5966  -17.4308   23.0257 C   0  0  0  0  0  0  0  0  0  0  0  0
   12.8174  -17.4049   24.3563 N   0  0  0  0  0  0  0  0  0  0  0  0
   10.1910  -17.6958   28.4213 C   0  0  0  0  0  0  0  0  0  0  0  0
   10.0146  -16.6346   29.2599 O   0  0  0  0  0  0  0  0  0  0  0  0
   10.2531  -18.8556   28.9483 O   0  0  0  0  0  0  0  0  0  0  0  0
  1  2  1  0
  2  3  1  0
  4  3  1  0
  5  1  1  0
  5  4  1  0
  6  7  2  0
  5  6  1  1
  8  6  1  0
  9  8  1  0
  9 10  1  0
 11 10  1  0
 12  8  1  0
 12 11  1  0
 12 13  1  1
 14 13  2  0
 15 13  1  0
 16 15  1  0
 17 18  1  0
 16 17  1  1
 18 22  1  0
 19 20  1  0
 19 18  2  0
 20 21  1  0
 21 22  2  0
 23 16  1  0
 23 24  1  0
 25 23  2  0
M  END
$$$$
