PPH.pdb
     RDKit          3D

 25 27  0  0  1  0  0  0  0  0999 V2000
    8.2294  -14.2576   21.2244 N   0  0  0  0  0  0  0  0  0  0  0  0
    8.1177  -15.6930   21.2266 C   0  0  0  0  0  0  0  0  0  0  0  0
    6.9614  -16.0515   22.1057 C   0  0  0  0  0  0  0  0  0  0  0  0
    6.3680  -14.6815   22.4722 C   0  0  0  0  0  0  0  0  0  0  0  0
    7.6117  -13.8187   22.4613 C   0  0  1  0  0  0  0  0  0  0  0  0
    8.4716  -14.1350   23.6427 C   0  0  0  0  0  0  0  0  0  0  0  0
    9.6334  -14.6229   23.3783 O   0  0  0  0  0  0  0  0  0  0  0  0
    8.0623  -13.9217   24.9704 N   0  0  0  0  0  0  0  0  0  0  0  0
    6.6933  -13.8610   25.4220 C   0  0  0  0  0  0  0  0  0  0  0  0
    6.7686  -12.5906   26.2854 C   0  0  0  0  0  0  0  0  0  0  0  0
    8.1533  -12.6539   26.8926 C   0  0  0  0  0  0  0  0  0  0  0  0
    8.8778  -13.7506   26.1297 C   0  0  1  0  0  0  0  0  0  0  0  0
    9.0084  -15.0004   26.9318 C   0  0  0  0  0  0  0  0  0  0  0  0
    7.9418  -15.5982   27.2306 O   0  0  0  0  0  0  0  0  0  0  0  0
   10.2192  -15.5590   27.3780 N   0  0  0  0  0  0  0  0  0  0  0  0
   10.3091  -16.8129   28.1060 C   0  0  1  0  0  0  0  0  0  0  0  0
   11.4398  -17.6716   27.5533 C   0  0  0  0  0  0  0  0  0  0  0  0
   11.4405  -17.7347   26.0770 C   0  0  0  0  0  0  0  0  0  0  0  0
   10.3986  -18.0963   25.2628 C   0  0  0  0  0  0  0  0  0  0  0  0
   10.7808  -18.0371   23.9855 N   0  0  0  0  0  0  0  0  0  0  0  0
   12.0532  -17.6426   23.9692 C   0  0  0  0  0  0  0  0  0  0  0  0
   12.4655  -17.4553   25.2400 N   0  0  0  0  0  0  0  0  0  0  0  0
   10.3790  -16.6158   29.5567 C   0  0  0  0  0  0  0  0  0  0  0  0
   10.4171  -15.4126   30.1981 O   0  0  0  0  0  0  0  0  0  0  0  0
   10.4069  -17.6665   30.2792 O   0  0  0  0  0  0  0  0  0  0  0  0
  1  2  1  0
  2  3  1  0
  4  3  1  0
  5  1  1  0
  5  4  1  0
  6  7  2  0
  5  6  1  1
  8  6  1  0
  9  8  1  0
  9 10  1  0
 11 10  1  0
 12  8  1  0
 12 11  1  0
 12 13  1  1
 14 13  2  0
 15 13  1  0
 16 15  1  0
 17 18  1  0
 16 17  1  6
 18 22  1  0
 19 20  1  0
 19 18  2  0
 20 21  1  0
 21 22  2  0
 23 16  1  0
 23 24  1  0
 25 23  2  0
M  END
$$$$
