PPH.pdb
     RDKit          3D

 25 27  0  0  1  0  0  0  0  0999 V2000
    8.3219  -14.0344   21.0986 N   0  0  0  0  0  0  0  0  0  0  0  0
    8.1115  -15.4580   21.0523 C   0  0  0  0  0  0  0  0  0  0  0  0
    6.8390  -15.7473   21.7840 C   0  0  0  0  0  0  0  0  0  0  0  0
    6.3034  -14.3446   22.1141 C   0  0  0  0  0  0  0  0  0  0  0  0
    7.5968  -13.5730   22.2671 C   0  0  1  0  0  0  0  0  0  0  0  0
    8.2898  -13.9698   23.5310 C   0  0  0  0  0  0  0  0  0  0  0  0
    9.4752  -14.4535   23.3945 O   0  0  0  0  0  0  0  0  0  0  0  0
    7.7070  -13.8328   24.8027 N   0  0  0  0  0  0  0  0  0  0  0  0
    6.2965  -13.6733   25.0614 C   0  0  0  0  0  0  0  0  0  0  0  0
    6.3530  -12.4974   26.0510 C   0  0  0  0  0  0  0  0  0  0  0  0
    7.6205  -12.7537   26.8370 C   0  0  0  0  0  0  0  0  0  0  0  0
    8.3519  -13.8474   26.0764 C   0  0  1  0  0  0  0  0  0  0  0  0
    8.2511  -15.1693   26.7582 C   0  0  0  0  0  0  0  0  0  0  0  0
    7.0931  -15.5857   27.0226 O   0  0  0  0  0  0  0  0  0  0  0  0
    9.3388  -15.9804   27.1271 N   0  0  0  0  0  0  0  0  0  0  0  0
    9.1986  -17.2633   27.7940 C   0  0  1  0  0  0  0  0  0  0  0  0
    9.1836  -18.3962   26.7754 C   0  0  0  0  0  0  0  0  0  0  0  0
   10.3070  -18.3194   25.8185 C   0  0  0  0  0  0  0  0  0  0  0  0
   10.9116  -17.1860   25.3400 C   0  0  0  0  0  0  0  0  0  0  0  0
   11.8856  -17.5171   24.4899 N   0  0  0  0  0  0  0  0  0  0  0  0
   11.9140  -18.8471   24.4165 C   0  0  0  0  0  0  0  0  0  0  0  0
   10.9550  -19.3466   25.2232 N   0  0  0  0  0  0  0  0  0  0  0  0
   10.1834  -17.4505   28.8634 C   0  0  0  0  0  0  0  0  0  0  0  0
   10.2807  -18.5408   29.6773 O   0  0  0  0  0  0  0  0  0  0  0  0
   11.0215  -16.5065   29.0450 O   0  0  0  0  0  0  0  0  0  0  0  0
  1  2  1  0
  2  3  1  0
  4  3  1  0
  5  1  1  0
  5  4  1  0
  6  7  2  0
  5  6  1  1
  8  6  1  0
  9  8  1  0
  9 10  1  0
 11 10  1  0
 12  8  1  0
 12 11  1  0
 12 13  1  1
 14 13  2  0
 15 13  1  0
 16 15  1  0
 17 18  1  0
 16 17  1  6
 18 22  1  0
 19 20  1  0
 19 18  2  0
 20 21  1  0
 21 22  2  0
 23 16  1  0
 23 24  1  0
 25 23  2  0
M  END
$$$$
