PPH.pdb
     RDKit          3D

 25 27  0  0  1  0  0  0  0  0999 V2000
    9.0973  -13.9915   21.0219 N   0  0  0  0  0  0  0  0  0  0  0  0
    8.4040  -15.2179   20.7247 C   0  0  0  0  0  0  0  0  0  0  0  0
    6.9805  -15.0429   21.1504 C   0  0  0  0  0  0  0  0  0  0  0  0
    6.9265  -13.5673   21.5785 C   0  0  0  0  0  0  0  0  0  0  0  0
    8.3378  -13.3651   22.0873 C   0  0  1  0  0  0  0  0  0  0  0  0
    8.5274  -14.0810   23.3860 C   0  0  0  0  0  0  0  0  0  0  0  0
    9.5383  -14.8759   23.4479 O   0  0  0  0  0  0  0  0  0  0  0  0
    7.6706  -13.9141   24.4878 N   0  0  0  0  0  0  0  0  0  0  0  0
    6.3202  -13.4096   24.4259 C   0  0  0  0  0  0  0  0  0  0  0  0
    6.3790  -12.3899   25.5757 C   0  0  0  0  0  0  0  0  0  0  0  0
    7.2905  -13.0475   26.5890 C   0  0  0  0  0  0  0  0  0  0  0  0
    7.9248  -14.2198   25.8590 C   0  0  1  0  0  0  0  0  0  0  0  0
    7.3383  -15.5252   26.2766 C   0  0  0  0  0  0  0  0  0  0  0  0
    6.1000  -15.6727   26.1056 O   0  0  0  0  0  0  0  0  0  0  0  0
    8.0532  -16.5954   26.8428 N   0  0  0  0  0  0  0  0  0  0  0  0
    7.4654  -17.8899   27.1412 C   0  0  1  0  0  0  0  0  0  0  0  0
    6.9663  -18.5568   25.8655 C   0  0  0  0  0  0  0  0  0  0  0  0
    8.0649  -18.9542   24.9606 C   0  0  0  0  0  0  0  0  0  0  0  0
    8.6982  -18.1693   24.0322 C   0  0  0  0  0  0  0  0  0  0  0  0
    9.6353  -18.8806   23.4019 N   0  0  0  0  0  0  0  0  0  0  0  0
    9.6116  -20.1106   23.9133 C   0  0  0  0  0  0  0  0  0  0  0  0
    8.6571  -20.1663   24.8650 N   0  0  0  0  0  0  0  0  0  0  0  0
    8.3553  -18.7405   27.9368 C   0  0  0  0  0  0  0  0  0  0  0  0
    9.6181  -18.4184   28.3395 O   0  0  0  0  0  0  0  0  0  0  0  0
    7.9039  -19.8828   28.2802 O   0  0  0  0  0  0  0  0  0  0  0  0
  1  2  1  0
  2  3  1  0
  4  3  1  0
  5  1  1  0
  5  4  1  0
  6  7  2  0
  5  6  1  1
  8  6  1  0
  9  8  1  0
  9 10  1  0
 11 10  1  0
 12  8  1  0
 12 11  1  0
 12 13  1  1
 14 13  2  0
 15 13  1  0
 16 15  1  0
 17 18  1  0
 16 17  1  6
 18 22  1  0
 19 20  1  0
 19 18  2  0
 20 21  1  0
 21 22  2  0
 23 16  1  0
 23 24  1  0
 25 23  2  0
M  END
$$$$
