PPH.pdb
     RDKit          3D

 25 27  0  0  1  0  0  0  0  0999 V2000
    6.5033  -19.0280   20.6443 N   0  0  0  0  0  0  0  0  0  0  0  0
    6.8224  -19.8052   21.8136 C   0  0  0  0  0  0  0  0  0  0  0  0
    6.2690  -19.0796   22.9991 C   0  0  0  0  0  0  0  0  0  0  0  0
    5.5015  -17.9100   22.3614 C   0  0  0  0  0  0  0  0  0  0  0  0
    6.3304  -17.6679   21.1180 C   0  0  1  0  0  0  0  0  0  0  0  0
    7.6404  -17.0463   21.4821 C   0  0  0  0  0  0  0  0  0  0  0  0
    8.6834  -17.7741   21.2814 O   0  0  0  0  0  0  0  0  0  0  0  0
    7.7550  -15.7492   22.0113 N   0  0  0  0  0  0  0  0  0  0  0  0
    6.6569  -14.9396   22.4810 C   0  0  0  0  0  0  0  0  0  0  0  0
    7.0021  -13.6151   21.7799 C   0  0  0  0  0  0  0  0  0  0  0  0
    8.5149  -13.5837   21.8020 C   0  0  0  0  0  0  0  0  0  0  0  0
    8.9406  -14.9815   22.2198 C   0  0  1  0  0  0  0  0  0  0  0  0
    9.4144  -15.0256   23.6326 C   0  0  0  0  0  0  0  0  0  0  0  0
   10.4396  -14.3500   23.9096 O   0  0  0  0  0  0  0  0  0  0  0  0
    8.8119  -15.7572   24.6712 N   0  0  0  0  0  0  0  0  0  0  0  0
    9.2624  -15.7184   26.0518 C   0  0  1  0  0  0  0  0  0  0  0  0
    8.0890  -15.4639   26.9896 C   0  0  0  0  0  0  0  0  0  0  0  0
    7.3548  -14.2237   26.6632 C   0  0  0  0  0  0  0  0  0  0  0  0
    7.6553  -12.9508   27.0738 C   0  0  0  0  0  0  0  0  0  0  0  0
    6.7598  -12.0930   26.5806 N   0  0  0  0  0  0  0  0  0  0  0  0
    5.8893  -12.7980   25.8594 C   0  0  0  0  0  0  0  0  0  0  0  0
    6.2431  -14.0991   25.9031 N   0  0  0  0  0  0  0  0  0  0  0  0
   10.0583  -16.8941   26.4157 C   0  0  0  0  0  0  0  0  0  0  0  0
   10.7958  -17.0379   27.5541 O   0  0  0  0  0  0  0  0  0  0  0  0
   10.0581  -17.8666   25.5905 O   0  0  0  0  0  0  0  0  0  0  0  0
  1  2  1  0
  2  3  1  0
  4  3  1  0
  5  1  1  0
  5  4  1  0
  6  7  2  0
  5  6  1  1
  8  6  1  0
  9  8  1  0
  9 10  1  0
 11 10  1  0
 12  8  1  0
 12 11  1  0
 12 13  1  1
 14 13  2  0
 15 13  1  0
 16 15  1  0
 17 18  1  0
 16 17  1  1
 18 22  1  0
 19 20  1  0
 19 18  2  0
 20 21  1  0
 21 22  2  0
 23 16  1  0
 23 24  1  0
 25 23  2  0
M  END
$$$$
