PPH.pdb
     RDKit          3D

 25 27  0  0  1  0  0  0  0  0999 V2000
    7.4506  -14.7674   19.8816 N   0  0  0  0  0  0  0  0  0  0  0  0
    7.8256  -16.1569   19.9242 C   0  0  0  0  0  0  0  0  0  0  0  0
    6.9611  -16.8236   20.9470 C   0  0  0  0  0  0  0  0  0  0  0  0
    5.9889  -15.7063   21.3594 C   0  0  0  0  0  0  0  0  0  0  0  0
    6.8637  -14.4843   21.1776 C   0  0  1  0  0  0  0  0  0  0  0  0
    7.9057  -14.4297   22.2482 C   0  0  0  0  0  0  0  0  0  0  0  0
    9.1269  -14.3858   21.8428 O   0  0  0  0  0  0  0  0  0  0  0  0
    7.5988  -14.4244   23.6199 N   0  0  0  0  0  0  0  0  0  0  0  0
    6.3375  -14.8257   24.1943 C   0  0  0  0  0  0  0  0  0  0  0  0
    6.1072  -13.6421   25.1490 C   0  0  0  0  0  0  0  0  0  0  0  0
    7.5005  -13.2911   25.6240 C   0  0  0  0  0  0  0  0  0  0  0  0
    8.4425  -14.0604   24.7127 C   0  0  1  0  0  0  0  0  0  0  0  0
    9.0436  -15.2418   25.3948 C   0  0  0  0  0  0  0  0  0  0  0  0
    8.4575  -16.3452   25.2427 O   0  0  0  0  0  0  0  0  0  0  0  0
   10.2037  -15.2206   26.1890 N   0  0  0  0  0  0  0  0  0  0  0  0
   10.8214  -16.4114   26.7465 C   0  0  1  0  0  0  0  0  0  0  0  0
   11.8371  -16.0347   27.8178 C   0  0  0  0  0  0  0  0  0  0  0  0
   11.2094  -15.4456   29.0188 C   0  0  0  0  0  0  0  0  0  0  0  0
   10.8413  -14.1382   29.2042 C   0  0  0  0  0  0  0  0  0  0  0  0
   10.3110  -13.9854   30.4194 N   0  0  0  0  0  0  0  0  0  0  0  0
   10.3339  -15.1765   31.0157 C   0  0  0  0  0  0  0  0  0  0  0  0
   10.8801  -16.0746   30.1699 N   0  0  0  0  0  0  0  0  0  0  0  0
    9.8346  -17.3975   27.1962 C   0  0  0  0  0  0  0  0  0  0  0  0
   10.0577  -18.7332   27.3593 O   0  0  0  0  0  0  0  0  0  0  0  0
    8.6644  -16.9624   27.4566 O   0  0  0  0  0  0  0  0  0  0  0  0
  1  2  1  0
  2  3  1  0
  4  3  1  0
  5  1  1  0
  5  4  1  0
  6  7  2  0
  5  6  1  1
  8  6  1  0
  9  8  1  0
  9 10  1  0
 11 10  1  0
 12  8  1  0
 12 11  1  0
 12 13  1  1
 14 13  2  0
 15 13  1  0
 16 15  1  0
 17 18  1  0
 16 17  1  1
 18 22  1  0
 19 20  1  0
 19 18  2  0
 20 21  1  0
 21 22  2  0
 23 16  1  0
 23 24  1  0
 25 23  2  0
M  END
$$$$
