PPH.pdb
     RDKit          3D

 25 27  0  0  1  0  0  0  0  0999 V2000
    7.0063  -17.9840   18.9843 N   0  0  0  0  0  0  0  0  0  0  0  0
    6.9949  -19.1552   19.8218 C   0  0  0  0  0  0  0  0  0  0  0  0
    6.1538  -18.8424   21.0188 C   0  0  0  0  0  0  0  0  0  0  0  0
    5.5956  -17.4472   20.6942 C   0  0  0  0  0  0  0  0  0  0  0  0
    6.7277  -16.8704   19.8711 C   0  0  1  0  0  0  0  0  0  0  0  0
    7.9001  -16.5637   20.7466 C   0  0  0  0  0  0  0  0  0  0  0  0
    8.9885  -17.1935   20.4702 O   0  0  0  0  0  0  0  0  0  0  0  0
    7.8453  -15.6479   21.8115 N   0  0  0  0  0  0  0  0  0  0  0  0
    6.6385  -15.1829   22.4510 C   0  0  0  0  0  0  0  0  0  0  0  0
    6.9284  -13.6727   22.4692 C   0  0  0  0  0  0  0  0  0  0  0  0
    8.4230  -13.5994   22.6950 C   0  0  0  0  0  0  0  0  0  0  0  0
    8.9311  -15.0171   22.4911 C   0  0  1  0  0  0  0  0  0  0  0  0
    9.2685  -15.6838   23.7811 C   0  0  0  0  0  0  0  0  0  0  0  0
    8.6655  -15.2745   24.8073 O   0  0  0  0  0  0  0  0  0  0  0  0
   10.2005  -16.7244   23.9407 N   0  0  0  0  0  0  0  0  0  0  0  0
   10.5808  -17.2760   25.2296 C   0  0  1  0  0  0  0  0  0  0  0  0
   10.1092  -18.7194   25.3531 C   0  0  0  0  0  0  0  0  0  0  0  0
    8.6813  -18.8856   25.0111 C   0  0  0  0  0  0  0  0  0  0  0  0
    7.6123  -18.2484   25.5859 C   0  0  0  0  0  0  0  0  0  0  0  0
    6.4788  -18.6618   25.0154 N   0  0  0  0  0  0  0  0  0  0  0  0
    6.8061  -19.5551   24.0828 C   0  0  0  0  0  0  0  0  0  0  0  0
    8.1474  -19.6992   24.0718 N   0  0  0  0  0  0  0  0  0  0  0  0
   12.0073  -17.0996   25.5167 C   0  0  0  0  0  0  0  0  0  0  0  0
   12.9245  -16.5278   24.6846 O   0  0  0  0  0  0  0  0  0  0  0  0
   12.4229  -17.5205   26.6467 O   0  0  0  0  0  0  0  0  0  0  0  0
  1  2  1  0
  2  3  1  0
  4  3  1  0
  5  1  1  0
  5  4  1  0
  6  7  2  0
  5  6  1  1
  8  6  1  0
  9  8  1  0
  9 10  1  0
 11 10  1  0
 12  8  1  0
 12 11  1  0
 12 13  1  1
 14 13  2  0
 15 13  1  0
 16 15  1  0
 17 18  1  0
 16 17  1  6
 18 22  1  0
 19 20  1  0
 19 18  2  0
 20 21  1  0
 21 22  2  0
 23 16  1  0
 23 24  1  0
 25 23  2  0
M  END
$$$$
