PPH.pdb
     RDKit          3D

 25 27  0  0  1  0  0  0  0  0999 V2000
    8.3152  -15.5418   19.2759 N   0  0  0  0  0  0  0  0  0  0  0  0
    8.1938  -16.9644   19.4617 C   0  0  0  0  0  0  0  0  0  0  0  0
    7.0494  -17.1986   20.3964 C   0  0  0  0  0  0  0  0  0  0  0  0
    6.4711  -15.7880   20.5952 C   0  0  0  0  0  0  0  0  0  0  0  0
    7.7203  -14.9444   20.4563 C   0  0  1  0  0  0  0  0  0  0  0  0
    8.5968  -15.1160   21.6552 C   0  0  0  0  0  0  0  0  0  0  0  0
    9.7729  -15.5888   21.4292 O   0  0  0  0  0  0  0  0  0  0  0  0
    8.1878  -14.7883   22.9595 N   0  0  0  0  0  0  0  0  0  0  0  0
    6.8290  -14.5244   23.3664 C   0  0  0  0  0  0  0  0  0  0  0  0
    7.0538  -13.2366   24.1764 C   0  0  0  0  0  0  0  0  0  0  0  0
    8.4022  -13.4560   24.8275 C   0  0  0  0  0  0  0  0  0  0  0  0
    8.9906  -14.6740   24.1346 C   0  0  1  0  0  0  0  0  0  0  0  0
    8.9319  -15.8914   24.9931 C   0  0  0  0  0  0  0  0  0  0  0  0
    7.8172  -16.4684   25.0858 O   0  0  0  0  0  0  0  0  0  0  0  0
   10.0146  -16.4407   25.7024 N   0  0  0  0  0  0  0  0  0  0  0  0
   10.1338  -17.8517   26.0267 C   0  0  1  0  0  0  0  0  0  0  0  0
   10.0619  -18.6983   24.7622 C   0  0  0  0  0  0  0  0  0  0  0  0
   11.3369  -18.7205   24.0157 C   0  0  0  0  0  0  0  0  0  0  0  0
   11.9103  -17.6847   23.3246 C   0  0  0  0  0  0  0  0  0  0  0  0
   13.0583  -18.0873   22.7759 N   0  0  0  0  0  0  0  0  0  0  0  0
   13.2291  -19.3668   23.1055 C   0  0  0  0  0  0  0  0  0  0  0  0
   12.1846  -19.7631   23.8618 N   0  0  0  0  0  0  0  0  0  0  0  0
   11.3062  -18.1394   26.8580 C   0  0  0  0  0  0  0  0  0  0  0  0
   11.5908  -19.3344   27.4509 O   0  0  0  0  0  0  0  0  0  0  0  0
   12.1305  -17.1834   27.0403 O   0  0  0  0  0  0  0  0  0  0  0  0
  1  2  1  0
  2  3  1  0
  4  3  1  0
  5  1  1  0
  5  4  1  0
  6  7  2  0
  5  6  1  1
  8  6  1  0
  9  8  1  0
  9 10  1  0
 11 10  1  0
 12  8  1  0
 12 11  1  0
 12 13  1  1
 14 13  2  0
 15 13  1  0
 16 15  1  0
 17 18  1  0
 16 17  1  6
 18 22  1  0
 19 20  1  0
 19 18  2  0
 20 21  1  0
 21 22  2  0
 23 16  1  0
 23 24  1  0
 25 23  2  0
M  END
$$$$
