PPH.pdb
     RDKit          3D

 25 27  0  0  1  0  0  0  0  0999 V2000
    7.7957  -13.9279   21.1219 N   0  0  0  0  0  0  0  0  0  0  0  0
    7.9552  -15.3548   21.0140 C   0  0  0  0  0  0  0  0  0  0  0  0
    6.9180  -15.9892   21.8858 C   0  0  0  0  0  0  0  0  0  0  0  0
    6.0913  -14.7870   22.3705 C   0  0  0  0  0  0  0  0  0  0  0  0
    7.1501  -13.7055   22.4017 C   0  0  1  0  0  0  0  0  0  0  0  0
    8.0947  -13.9385   23.5369 C   0  0  0  0  0  0  0  0  0  0  0  0
    9.3110  -14.2067   23.2106 O   0  0  0  0  0  0  0  0  0  0  0  0
    7.7057  -13.8736   24.8861 N   0  0  0  0  0  0  0  0  0  0  0  0
    6.3495  -13.9699   25.3691 C   0  0  0  0  0  0  0  0  0  0  0  0
    6.3410  -12.7747   26.3368 C   0  0  0  0  0  0  0  0  0  0  0  0
    7.7424  -12.7685   26.9079 C   0  0  0  0  0  0  0  0  0  0  0  0
    8.5356  -13.7305   26.0390 C   0  0  1  0  0  0  0  0  0  0  0  0
    8.7936  -15.0272   26.7277 C   0  0  0  0  0  0  0  0  0  0  0  0
    7.8013  -15.7784   26.9155 O   0  0  0  0  0  0  0  0  0  0  0  0
   10.0476  -15.4731   27.1813 N   0  0  0  0  0  0  0  0  0  0  0  0
   10.2879  -16.8058   27.7072 C   0  0  1  0  0  0  0  0  0  0  0  0
   11.5711  -17.3860   27.1260 C   0  0  0  0  0  0  0  0  0  0  0  0
   11.5693  -17.4114   25.6485 C   0  0  0  0  0  0  0  0  0  0  0  0
   10.4941  -17.6234   24.8251 C   0  0  0  0  0  0  0  0  0  0  0  0
   10.8850  -17.5785   23.5498 N   0  0  0  0  0  0  0  0  0  0  0  0
   12.1958  -17.3406   23.5440 C   0  0  0  0  0  0  0  0  0  0  0  0
   12.6234  -17.2369   24.8193 N   0  0  0  0  0  0  0  0  0  0  0  0
   10.2365  -16.8490   29.1714 C   0  0  0  0  0  0  0  0  0  0  0  0
   10.2935  -17.9748   29.9394 O   0  0  0  0  0  0  0  0  0  0  0  0
   10.1283  -15.7314   29.7763 O   0  0  0  0  0  0  0  0  0  0  0  0
  1  2  1  0
  2  3  1  0
  4  3  1  0
  5  1  1  0
  5  4  1  0
  6  7  2  0
  5  6  1  1
  8  6  1  0
  9  8  1  0
  9 10  1  0
 11 10  1  0
 12  8  1  0
 12 11  1  0
 12 13  1  1
 14 13  2  0
 15 13  1  0
 16 15  1  0
 17 18  1  0
 16 17  1  1
 18 22  1  0
 19 20  1  0
 19 18  2  0
 20 21  1  0
 21 22  2  0
 23 16  1  0
 23 24  1  0
 25 23  2  0
M  END
$$$$
