PPH.pdb
     RDKit          3D

 25 27  0  0  1  0  0  0  0  0999 V2000
    7.9650  -14.0429   21.2552 N   0  0  0  0  0  0  0  0  0  0  0  0
    8.0076  -15.4812   21.2060 C   0  0  0  0  0  0  0  0  0  0  0  0
    6.9440  -15.9932   22.1252 C   0  0  0  0  0  0  0  0  0  0  0  0
    6.2274  -14.7092   22.5739 C   0  0  0  0  0  0  0  0  0  0  0  0
    7.3695  -13.7162   22.5370 C   0  0  1  0  0  0  0  0  0  0  0  0
    8.3190  -13.9772   23.6619 C   0  0  0  0  0  0  0  0  0  0  0  0
    9.5149  -14.3123   23.3224 O   0  0  0  0  0  0  0  0  0  0  0  0
    7.9551  -13.8696   25.0154 N   0  0  0  0  0  0  0  0  0  0  0  0
    6.6029  -13.8720   25.5187 C   0  0  0  0  0  0  0  0  0  0  0  0
    6.6856  -12.6661   26.4695 C   0  0  0  0  0  0  0  0  0  0  0  0
    8.0929  -12.7426   27.0207 C   0  0  0  0  0  0  0  0  0  0  0  0
    8.8096  -13.7650   26.1544 C   0  0  1  0  0  0  0  0  0  0  0  0
    8.9941  -15.0665   26.8577 C   0  0  0  0  0  0  0  0  0  0  0  0
    7.9542  -15.7304   27.1069 O   0  0  0  0  0  0  0  0  0  0  0  0
   10.2279  -15.6059   27.2622 N   0  0  0  0  0  0  0  0  0  0  0  0
   10.3729  -16.9112   27.8832 C   0  0  1  0  0  0  0  0  0  0  0  0
   11.5676  -17.6523   27.2962 C   0  0  0  0  0  0  0  0  0  0  0  0
   11.5760  -17.6436   25.8185 C   0  0  0  0  0  0  0  0  0  0  0  0
   10.5447  -17.9846   24.9823 C   0  0  0  0  0  0  0  0  0  0  0  0
   10.9312  -17.8563   23.7114 N   0  0  0  0  0  0  0  0  0  0  0  0
   12.1960  -17.4379   23.7210 C   0  0  0  0  0  0  0  0  0  0  0  0
   12.5992  -17.3049   25.0015 N   0  0  0  0  0  0  0  0  0  0  0  0
   10.3913  -16.8374   29.3469 C   0  0  0  0  0  0  0  0  0  0  0  0
   10.3476  -17.9004   30.2006 O   0  0  0  0  0  0  0  0  0  0  0  0
   10.4533  -15.6729   29.8633 O   0  0  0  0  0  0  0  0  0  0  0  0
  1  2  1  0
  2  3  1  0
  4  3  1  0
  5  1  1  0
  5  4  1  0
  6  7  2  0
  5  6  1  1
  8  6  1  0
  9  8  1  0
  9 10  1  0
 11 10  1  0
 12  8  1  0
 12 11  1  0
 12 13  1  1
 14 13  2  0
 15 13  1  0
 16 15  1  0
 17 18  1  0
 16 17  1  6
 18 22  1  0
 19 20  1  0
 19 18  2  0
 20 21  1  0
 21 22  2  0
 23 16  1  0
 23 24  1  0
 25 23  2  0
M  END
$$$$
