PPH.pdb
     RDKit          3D

 25 27  0  0  1  0  0  0  0  0999 V2000
    7.9861  -14.4104   21.1662 N   0  0  0  0  0  0  0  0  0  0  0  0
    7.9839  -15.8435   21.3051 C   0  0  0  0  0  0  0  0  0  0  0  0
    6.8554  -16.2039   22.2188 C   0  0  0  0  0  0  0  0  0  0  0  0
    6.1582  -14.8544   22.4561 C   0  0  0  0  0  0  0  0  0  0  0  0
    7.3327  -13.9043   22.3584 C   0  0  1  0  0  0  0  0  0  0  0  0
    8.2103  -14.0408   23.5610 C   0  0  0  0  0  0  0  0  0  0  0  0
    9.4280  -14.3904   23.3320 O   0  0  0  0  0  0  0  0  0  0  0  0
    7.7597  -13.8066   24.8717 N   0  0  0  0  0  0  0  0  0  0  0  0
    6.3803  -13.8184   25.2946 C   0  0  0  0  0  0  0  0  0  0  0  0
    6.3557  -12.5155   26.1113 C   0  0  0  0  0  0  0  0  0  0  0  0
    7.7283  -12.4672   26.7467 C   0  0  0  0  0  0  0  0  0  0  0  0
    8.5376  -13.5416   26.0393 C   0  0  1  0  0  0  0  0  0  0  0  0
    8.7305  -14.7507   26.8898 C   0  0  0  0  0  0  0  0  0  0  0  0
    7.7040  -15.4294   27.1542 O   0  0  0  0  0  0  0  0  0  0  0  0
    9.9585  -15.1885   27.4164 N   0  0  0  0  0  0  0  0  0  0  0  0
   10.1199  -16.4201   28.1697 C   0  0  1  0  0  0  0  0  0  0  0  0
   11.2799  -17.2373   27.6150 C   0  0  0  0  0  0  0  0  0  0  0  0
   11.2377  -17.3641   26.1433 C   0  0  0  0  0  0  0  0  0  0  0  0
   10.1520  -17.1805   25.3269 C   0  0  0  0  0  0  0  0  0  0  0  0
   10.5015  -17.3878   24.0557 N   0  0  0  0  0  0  0  0  0  0  0  0
   11.7961  -17.7019   24.0456 C   0  0  0  0  0  0  0  0  0  0  0  0
   12.2552  -17.6903   25.3141 N   0  0  0  0  0  0  0  0  0  0  0  0
   10.2058  -16.1873   29.6142 C   0  0  0  0  0  0  0  0  0  0  0  0
   10.1735  -14.9707   30.2302 O   0  0  0  0  0  0  0  0  0  0  0  0
   10.3214  -17.2176   30.3570 O   0  0  0  0  0  0  0  0  0  0  0  0
  1  2  1  0
  2  3  1  0
  4  3  1  0
  5  1  1  0
  5  4  1  0
  6  7  2  0
  5  6  1  1
  8  6  1  0
  9  8  1  0
  9 10  1  0
 11 10  1  0
 12  8  1  0
 12 11  1  0
 12 13  1  1
 14 13  2  0
 15 13  1  0
 16 15  1  0
 17 18  1  0
 16 17  1  6
 18 22  1  0
 19 20  1  0
 19 18  2  0
 20 21  1  0
 21 22  2  0
 23 16  1  0
 23 24  1  0
 25 23  2  0
M  END
$$$$
