PPH.pdb
     RDKit          3D

 25 27  0  0  1  0  0  0  0  0999 V2000
    7.7168  -13.9822   20.8782 N   0  0  0  0  0  0  0  0  0  0  0  0
    7.8631  -15.4078   20.7390 C   0  0  0  0  0  0  0  0  0  0  0  0
    6.8441  -16.0518   21.6251 C   0  0  0  0  0  0  0  0  0  0  0  0
    6.0389  -14.8537   22.1538 C   0  0  0  0  0  0  0  0  0  0  0  0
    7.1059  -13.7802   22.1783 C   0  0  1  0  0  0  0  0  0  0  0  0
    8.0777  -14.0413   23.2840 C   0  0  0  0  0  0  0  0  0  0  0  0
    9.3101  -14.1650   22.9324 O   0  0  0  0  0  0  0  0  0  0  0  0
    7.6966  -14.1486   24.6327 N   0  0  0  0  0  0  0  0  0  0  0  0
    6.3610  -14.4258   25.1030 C   0  0  0  0  0  0  0  0  0  0  0  0
    6.2436  -13.3386   26.1844 C   0  0  0  0  0  0  0  0  0  0  0  0
    7.6428  -13.2501   26.7542 C   0  0  0  0  0  0  0  0  0  0  0  0
    8.5189  -14.0385   25.7947 C   0  0  1  0  0  0  0  0  0  0  0  0
    8.9097  -15.3649   26.3518 C   0  0  0  0  0  0  0  0  0  0  0  0
    7.9889  -16.2080   26.5115 O   0  0  0  0  0  0  0  0  0  0  0  0
   10.2149  -15.7449   26.7109 N   0  0  0  0  0  0  0  0  0  0  0  0
   10.5775  -17.0876   27.1302 C   0  0  1  0  0  0  0  0  0  0  0  0
   11.9903  -17.4271   26.6719 C   0  0  0  0  0  0  0  0  0  0  0  0
   12.2123  -17.1363   25.2403 C   0  0  0  0  0  0  0  0  0  0  0  0
   11.4032  -17.4829   24.1894 C   0  0  0  0  0  0  0  0  0  0  0  0
   11.9375  -17.0511   23.0452 N   0  0  0  0  0  0  0  0  0  0  0  0
   13.0780  -16.4325   23.3477 C   0  0  0  0  0  0  0  0  0  0  0  0
   13.2552  -16.4786   24.6843 N   0  0  0  0  0  0  0  0  0  0  0  0
   10.3583  -17.3066   28.5628 C   0  0  0  0  0  0  0  0  0  0  0  0
   10.4524  -18.5029   29.2113 O   0  0  0  0  0  0  0  0  0  0  0  0
   10.0520  -16.2839   29.2607 O   0  0  0  0  0  0  0  0  0  0  0  0
  1  2  1  0
  2  3  1  0
  4  3  1  0
  5  1  1  0
  5  4  1  0
  6  7  2  0
  5  6  1  1
  8  6  1  0
  9  8  1  0
  9 10  1  0
 11 10  1  0
 12  8  1  0
 12 11  1  0
 12 13  1  1
 14 13  2  0
 15 13  1  0
 16 15  1  0
 17 18  1  0
 16 17  1  1
 18 22  1  0
 19 20  1  0
 19 18  2  0
 20 21  1  0
 21 22  2  0
 23 16  1  0
 23 24  1  0
 25 23  2  0
M  END
$$$$
