PPH.pdb
     RDKit          3D

 25 27  0  0  1  0  0  0  0  0999 V2000
    8.3249  -14.1113   21.1918 N   0  0  0  0  0  0  0  0  0  0  0  0
    8.0289  -15.5166   21.0885 C   0  0  0  0  0  0  0  0  0  0  0  0
    6.7712  -15.7678   21.8587 C   0  0  0  0  0  0  0  0  0  0  0  0
    6.3329  -14.3545   22.2757 C   0  0  0  0  0  0  0  0  0  0  0  0
    7.6747  -13.6666   22.4099 C   0  0  1  0  0  0  0  0  0  0  0  0
    8.3921  -14.1636   23.6238 C   0  0  0  0  0  0  0  0  0  0  0  0
    9.5527  -14.6818   23.4186 O   0  0  0  0  0  0  0  0  0  0  0  0
    7.8561  -14.0815   24.9207 N   0  0  0  0  0  0  0  0  0  0  0  0
    6.4526  -13.9769   25.2385 C   0  0  0  0  0  0  0  0  0  0  0  0
    6.5100  -12.8274   26.2586 C   0  0  0  0  0  0  0  0  0  0  0  0
    7.8156  -13.0622   26.9871 C   0  0  0  0  0  0  0  0  0  0  0  0
    8.5514  -14.1092   26.1674 C   0  0  1  0  0  0  0  0  0  0  0  0
    8.5211  -15.4520   26.8142 C   0  0  0  0  0  0  0  0  0  0  0  0
    7.3871  -15.9325   27.0739 O   0  0  0  0  0  0  0  0  0  0  0  0
    9.6502  -16.2175   27.1552 N   0  0  0  0  0  0  0  0  0  0  0  0
    9.5787  -17.5189   27.7967 C   0  0  1  0  0  0  0  0  0  0  0  0
   10.2767  -18.5727   26.9463 C   0  0  0  0  0  0  0  0  0  0  0  0
   10.0356  -18.3916   25.4997 C   0  0  0  0  0  0  0  0  0  0  0  0
    8.9057  -18.7273   24.7999 C   0  0  0  0  0  0  0  0  0  0  0  0
    9.0625  -18.4168   23.5114 N   0  0  0  0  0  0  0  0  0  0  0  0
   10.2772  -17.8867   23.3753 C   0  0  0  0  0  0  0  0  0  0  0  0
   10.8794  -17.8666   24.5823 N   0  0  0  0  0  0  0  0  0  0  0  0
   10.0437  -17.4858   29.1863 C   0  0  0  0  0  0  0  0  0  0  0  0
    9.9708  -18.5160   30.0774 O   0  0  0  0  0  0  0  0  0  0  0  0
   10.5617  -16.3939   29.5937 O   0  0  0  0  0  0  0  0  0  0  0  0
  1  2  1  0
  2  3  1  0
  4  3  1  0
  5  1  1  0
  5  4  1  0
  6  7  2  0
  5  6  1  1
  8  6  1  0
  9  8  1  0
  9 10  1  0
 11 10  1  0
 12  8  1  0
 12 11  1  0
 12 13  1  1
 14 13  2  0
 15 13  1  0
 16 15  1  0
 17 18  1  0
 16 17  1  6
 18 22  1  0
 19 20  1  0
 19 18  2  0
 20 21  1  0
 21 22  2  0
 23 16  1  0
 23 24  1  0
 25 23  2  0
M  END
$$$$
