PPH.pdb
     RDKit          3D

 25 27  0  0  1  0  0  0  0  0999 V2000
    8.5891  -14.1140   21.0305 N   0  0  0  0  0  0  0  0  0  0  0  0
    8.0047  -15.4194   20.8640 C   0  0  0  0  0  0  0  0  0  0  0  0
    6.6706  -15.4031   21.5407 C   0  0  0  0  0  0  0  0  0  0  0  0
    6.5192  -13.9350   21.9714 C   0  0  0  0  0  0  0  0  0  0  0  0
    7.9647  -13.5580   22.2159 C   0  0  1  0  0  0  0  0  0  0  0  0
    8.4689  -14.2184   23.4587 C   0  0  0  0  0  0  0  0  0  0  0  0
    9.5640  -14.8846   23.3372 O   0  0  0  0  0  0  0  0  0  0  0  0
    7.8086  -14.1326   24.6967 N   0  0  0  0  0  0  0  0  0  0  0  0
    6.3942  -13.9103   24.8743 C   0  0  0  0  0  0  0  0  0  0  0  0
    6.4447  -12.8073   25.9449 C   0  0  0  0  0  0  0  0  0  0  0  0
    7.6404  -13.1868   26.7913 C   0  0  0  0  0  0  0  0  0  0  0  0
    8.3635  -14.2679   26.0052 C   0  0  1  0  0  0  0  0  0  0  0  0
    8.1470  -15.6240   26.5854 C   0  0  0  0  0  0  0  0  0  0  0  0
    6.9599  -15.9444   26.8542 O   0  0  0  0  0  0  0  0  0  0  0  0
    9.1563  -16.5651   26.8548 N   0  0  0  0  0  0  0  0  0  0  0  0
    8.9141  -17.8470   27.4938 C   0  0  1  0  0  0  0  0  0  0  0  0
    9.3359  -18.9889   26.5776 C   0  0  0  0  0  0  0  0  0  0  0  0
    8.8300  -18.8316   25.1982 C   0  0  0  0  0  0  0  0  0  0  0  0
    7.8234  -18.0032   24.7744 C   0  0  0  0  0  0  0  0  0  0  0  0
    7.6471  -18.1414   23.4588 N   0  0  0  0  0  0  0  0  0  0  0  0
    8.5267  -19.0469   23.0330 C   0  0  0  0  0  0  0  0  0  0  0  0
    9.2534  -19.4745   24.0861 N   0  0  0  0  0  0  0  0  0  0  0  0
    9.5006  -17.9253   28.8349 C   0  0  0  0  0  0  0  0  0  0  0  0
   10.2501  -16.9573   29.4363 O   0  0  0  0  0  0  0  0  0  0  0  0
    9.2884  -18.9965   29.4937 O   0  0  0  0  0  0  0  0  0  0  0  0
  1  2  1  0
  2  3  1  0
  4  3  1  0
  5  1  1  0
  5  4  1  0
  6  7  2  0
  5  6  1  1
  8  6  1  0
  9  8  1  0
  9 10  1  0
 11 10  1  0
 12  8  1  0
 12 11  1  0
 12 13  1  1
 14 13  2  0
 15 13  1  0
 16 15  1  0
 17 18  1  0
 16 17  1  6
 18 22  1  0
 19 20  1  0
 19 18  2  0
 20 21  1  0
 21 22  2  0
 23 16  1  0
 23 24  1  0
 25 23  2  0
M  END
$$$$
