QPI.pdb
     RDKit          3D

 25 25  0  0  1  0  0  0  0  0999 V2000
   21.2520  -19.3977  -12.5236 N   0  0  0  0  0  0  0  0  0  0  0  0
   22.0682  -18.9364  -13.5816 C   0  0  0  0  0  0  0  0  0  0  0  0
   21.5722  -18.3008  -14.5331 O   0  0  0  0  0  0  0  0  0  0  0  0
   23.5419  -19.1990  -13.5847 C   0  0  0  0  0  0  0  0  0  0  0  0
   23.9422  -19.9197  -12.3415 C   0  0  0  0  0  0  0  0  0  0  0  0
   24.8828  -21.0425  -12.5959 C   0  0  2  0  0  0  0  0  0  0  0  0
   24.1774  -22.2099  -13.1367 N   0  0  0  0  0  0  0  0  0  0  0  0
   25.6017  -21.4483  -11.3827 C   0  0  0  0  0  0  0  0  0  0  0  0
   25.1240  -22.1884  -10.4921 O   0  0  0  0  0  0  0  0  0  0  0  0
   26.9297  -20.9905  -11.1664 N   0  0  0  0  0  0  0  0  0  0  0  0
   27.7816  -20.0683  -11.8553 C   0  0  0  0  0  0  0  0  0  0  0  0
   29.0472  -20.9302  -12.0071 C   0  0  0  0  0  0  0  0  0  0  0  0
   29.1569  -21.4457  -10.5604 C   0  0  0  0  0  0  0  0  0  0  0  0
   27.7403  -21.4290  -10.0306 C   0  0  1  0  0  0  0  0  0  0  0  0
   27.6229  -20.4007   -8.9699 C   0  0  0  0  0  0  0  0  0  0  0  0
   27.1605  -19.2332   -9.2254 O   0  0  0  0  0  0  0  0  0  0  0  0
   26.2326  -22.0307   -4.0409 C   0  0  0  0  0  0  0  0  0  0  0  0
   26.2981  -21.1569   -5.3043 C   0  0  0  0  0  0  0  0  0  0  0  0
   27.6572  -20.5549   -5.3282 C   0  0  2  0  0  0  0  0  0  0  0  0
   27.9205  -19.6527   -4.1316 C   0  0  0  0  0  0  0  0  0  0  0  0
   28.0020  -19.7698   -6.5593 C   0  0  2  0  0  0  0  0  0  0  0  0
   28.0373  -20.7420   -7.6558 N   0  0  0  0  0  0  0  0  0  0  0  0
   29.2595  -19.0122   -6.4767 C   0  0  0  0  0  0  0  0  0  0  0  0
   30.5157  -19.6004   -6.5481 O   0  0  0  0  0  0  0  0  0  0  0  0
   29.2365  -17.7664   -6.3341 O   0  0  0  0  0  0  0  0  0  0  0  0
  2  1  1  0
  2  3  2  0
  4  2  1  0
  5  4  1  0
  6  5  1  0
  6  7  1  1
  8  6  1  0
  8 10  1  0
  9  8  2  0
 10 14  1  0
 10 11  1  0
 11 12  1  0
 13 12  1  0
 14 13  1  0
 14 15  1  1
 16 15  2  0
 18 17  1  0
 19 18  1  0
 19 21  1  0
 19 20  1  1
 21 22  1  6
 21 23  1  0
 22 15  1  0
 23 25  2  0
 23 24  1  0
M  END
$$$$
