QPI.pdb
     RDKit          3D

 25 25  0  0  1  0  0  0  0  0999 V2000
   19.0839   -9.9498  -20.7401 N   0  0  0  0  0  0  0  0  0  0  0  0
   19.1935  -11.3506  -20.8961 C   0  0  0  0  0  0  0  0  0  0  0  0
   18.9383  -11.8875  -21.9924 O   0  0  0  0  0  0  0  0  0  0  0  0
   19.6170  -12.2193  -19.7529 C   0  0  0  0  0  0  0  0  0  0  0  0
   19.8017  -11.3998  -18.5203 C   0  0  0  0  0  0  0  0  0  0  0  0
   20.2768  -12.1950  -17.3575 C   0  0  2  0  0  0  0  0  0  0  0  0
   19.2496  -13.1425  -16.9107 N   0  0  0  0  0  0  0  0  0  0  0  0
   20.6569  -11.3447  -16.2234 C   0  0  0  0  0  0  0  0  0  0  0  0
   19.8882  -11.0330  -15.2847 O   0  0  0  0  0  0  0  0  0  0  0  0
   21.9753  -10.8191  -16.1500 N   0  0  0  0  0  0  0  0  0  0  0  0
   23.1368  -10.9446  -16.9782 C   0  0  0  0  0  0  0  0  0  0  0  0
   24.1835  -11.3336  -15.9196 C   0  0  0  0  0  0  0  0  0  0  0  0
   23.8646  -10.2576  -14.8654 C   0  0  0  0  0  0  0  0  0  0  0  0
   22.4069   -9.9175  -15.0821 C   0  0  1  0  0  0  0  0  0  0  0  0
   22.2949   -8.5302  -15.5912 C   0  0  0  0  0  0  0  0  0  0  0  0
   22.0596   -8.2942  -16.8285 O   0  0  0  0  0  0  0  0  0  0  0  0
   18.3718   -6.9893  -16.1298 C   0  0  0  0  0  0  0  0  0  0  0  0
   19.8979   -6.8831  -16.2841 C   0  0  0  0  0  0  0  0  0  0  0  0
   20.4106   -6.3211  -15.0069 C   0  0  2  0  0  0  0  0  0  0  0  0
   19.7682   -4.9881  -14.6524 C   0  0  0  0  0  0  0  0  0  0  0  0
   21.8968   -6.1318  -14.9268 C   0  0  2  0  0  0  0  0  0  0  0  0
   22.4554   -7.4624  -14.6698 N   0  0  0  0  0  0  0  0  0  0  0  0
   22.3423   -5.1613  -13.9160 C   0  0  0  0  0  0  0  0  0  0  0  0
   22.9115   -3.9336  -14.2294 O   0  0  0  0  0  0  0  0  0  0  0  0
   22.2179   -5.4207  -12.6953 O   0  0  0  0  0  0  0  0  0  0  0  0
  2  1  1  0
  2  3  2  0
  4  2  1  0
  5  4  1  0
  6  5  1  0
  6  7  1  1
  8  6  1  0
  8 10  1  0
  9  8  2  0
 10 14  1  0
 10 11  1  0
 11 12  1  0
 13 12  1  0
 14 13  1  0
 14 15  1  6
 16 15  2  0
 18 17  1  0
 19 18  1  0
 19 21  1  0
 19 20  1  6
 21 22  1  1
 21 23  1  0
 22 15  1  0
 23 25  2  0
 23 24  1  0
M  END
$$$$
