QPI.pdb
     RDKit          3D

 25 25  0  0  1  0  0  0  0  0999 V2000
   26.5211  -21.0856   -9.0003 N   0  0  0  0  0  0  0  0  0  0  0  0
   25.3276  -20.8337   -9.7149 C   0  0  0  0  0  0  0  0  0  0  0  0
   24.6162  -19.8492   -9.4324 O   0  0  0  0  0  0  0  0  0  0  0  0
   24.8912  -21.7399  -10.8237 C   0  0  0  0  0  0  0  0  0  0  0  0
   24.9732  -21.0317  -12.1340 C   0  0  0  0  0  0  0  0  0  0  0  0
   24.5239  -21.8684  -13.2778 C   0  0  2  0  0  0  0  0  0  0  0  0
   25.3547  -23.0703  -13.4113 N   0  0  0  0  0  0  0  0  0  0  0  0
   24.5540  -21.1329  -14.5473 C   0  0  0  0  0  0  0  0  0  0  0  0
   25.4432  -21.2646  -15.4197 O   0  0  0  0  0  0  0  0  0  0  0  0
   23.5245  -20.1987  -14.8428 N   0  0  0  0  0  0  0  0  0  0  0  0
   22.4533  -19.6340  -14.0785 C   0  0  0  0  0  0  0  0  0  0  0  0
   21.2739  -19.8937  -15.0321 C   0  0  0  0  0  0  0  0  0  0  0  0
   21.9051  -19.3724  -16.3361 C   0  0  0  0  0  0  0  0  0  0  0  0
   23.3949  -19.5546  -16.1496 C   0  0  1  0  0  0  0  0  0  0  0  0
   24.0469  -18.2264  -16.0637 C   0  0  0  0  0  0  0  0  0  0  0  0
   23.8707  -17.4650  -15.0481 O   0  0  0  0  0  0  0  0  0  0  0  0
   28.9229  -18.2748  -15.9834 C   0  0  0  0  0  0  0  0  0  0  0  0
   27.4475  -17.8769  -15.8134 C   0  0  0  0  0  0  0  0  0  0  0  0
   27.1031  -17.0309  -16.9863 C   0  0  2  0  0  0  0  0  0  0  0  0
   27.9681  -15.7829  -17.0840 C   0  0  0  0  0  0  0  0  0  0  0  0
   25.6728  -16.5865  -17.0734 C   0  0  2  0  0  0  0  0  0  0  0  0
   24.8764  -17.8153  -17.1398 N   0  0  0  0  0  0  0  0  0  0  0  0
   25.3712  -15.6931  -18.2016 C   0  0  0  0  0  0  0  0  0  0  0  0
   25.1149  -16.1440  -19.4901 O   0  0  0  0  0  0  0  0  0  0  0  0
   25.3345  -14.4513  -18.0300 O   0  0  0  0  0  0  0  0  0  0  0  0
  2  1  1  0
  2  3  2  0
  4  2  1  0
  5  4  1  0
  6  5  1  0
  6  7  1  6
  8  6  1  0
  8 10  1  0
  9  8  2  0
 10 14  1  0
 10 11  1  0
 11 12  1  0
 13 12  1  0
 14 13  1  0
 14 15  1  1
 16 15  2  0
 18 17  1  0
 19 18  1  0
 19 21  1  0
 19 20  1  1
 21 22  1  6
 21 23  1  0
 22 15  1  0
 23 25  2  0
 23 24  1  0
M  END
$$$$
