QPI.pdb
     RDKit          3D

 25 25  0  0  1  0  0  0  0  0999 V2000
   22.2912  -19.2179  -14.4808 N   0  0  0  0  0  0  0  0  0  0  0  0
   21.6167  -20.2650  -13.8122 C   0  0  0  0  0  0  0  0  0  0  0  0
   20.4069  -20.4781  -14.0275 O   0  0  0  0  0  0  0  0  0  0  0  0
   22.3363  -21.1397  -12.8333 C   0  0  0  0  0  0  0  0  0  0  0  0
   23.7597  -20.7123  -12.7059 C   0  0  0  0  0  0  0  0  0  0  0  0
   24.7248  -21.7994  -13.0177 C   0  0  2  0  0  0  0  0  0  0  0  0
   24.0285  -23.0629  -13.2851 N   0  0  0  0  0  0  0  0  0  0  0  0
   25.6872  -22.0141  -11.9309 C   0  0  0  0  0  0  0  0  0  0  0  0
   25.6567  -22.9861  -11.1414 O   0  0  0  0  0  0  0  0  0  0  0  0
   26.7371  -21.0782  -11.7269 N   0  0  0  0  0  0  0  0  0  0  0  0
   27.0894  -19.8372  -12.3486 C   0  0  0  0  0  0  0  0  0  0  0  0
   28.5751  -20.0985  -12.6523 C   0  0  0  0  0  0  0  0  0  0  0  0
   29.0050  -20.6428  -11.2777 C   0  0  0  0  0  0  0  0  0  0  0  0
   27.7501  -21.2436  -10.6848 C   0  0  1  0  0  0  0  0  0  0  0  0
   27.3258  -20.4415   -9.5130 C   0  0  0  0  0  0  0  0  0  0  0  0
   26.4398  -19.5224   -9.6234 O   0  0  0  0  0  0  0  0  0  0  0  0
   29.3445  -22.3318   -4.5815 C   0  0  0  0  0  0  0  0  0  0  0  0
   28.1938  -21.9996   -5.5456 C   0  0  0  0  0  0  0  0  0  0  0  0
   28.3726  -20.5769   -5.9381 C   0  0  2  0  0  0  0  0  0  0  0  0
   28.2336  -19.6218   -4.7618 C   0  0  0  0  0  0  0  0  0  0  0  0
   27.4629  -20.0794   -7.0225 C   0  0  2  0  0  0  0  0  0  0  0  0
   27.9280  -20.7175   -8.2575 N   0  0  0  0  0  0  0  0  0  0  0  0
   27.4123  -18.6167   -7.1636 C   0  0  0  0  0  0  0  0  0  0  0  0
   28.4141  -17.8691   -7.7693 O   0  0  0  0  0  0  0  0  0  0  0  0
   26.4277  -17.9749   -6.7258 O   0  0  0  0  0  0  0  0  0  0  0  0
  2  1  1  0
  2  3  2  0
  4  2  1  0
  5  4  1  0
  6  5  1  0
  6  7  1  1
  8  6  1  0
  8 10  1  0
  9  8  2  0
 10 14  1  0
 10 11  1  0
 11 12  1  0
 13 12  1  0
 14 13  1  0
 14 15  1  1
 16 15  2  0
 18 17  1  0
 19 18  1  0
 19 21  1  0
 19 20  1  1
 21 22  1  6
 21 23  1  0
 22 15  1  0
 23 25  2  0
 23 24  1  0
M  END
$$$$
