QPI.pdb
     RDKit          3D

 25 25  0  0  1  0  0  0  0  0999 V2000
   26.1573  -16.1956  -18.2313 N   0  0  0  0  0  0  0  0  0  0  0  0
   24.7636  -16.3171  -18.4347 C   0  0  0  0  0  0  0  0  0  0  0  0
   24.1795  -15.5935  -19.2657 O   0  0  0  0  0  0  0  0  0  0  0  0
   23.9590  -17.3138  -17.6600 C   0  0  0  0  0  0  0  0  0  0  0  0
   24.7975  -17.9448  -16.6000 C   0  0  0  0  0  0  0  0  0  0  0  0
   25.3231  -19.2796  -16.9902 C   0  0  2  0  0  0  0  0  0  0  0  0
   24.3673  -19.9947  -17.8432 N   0  0  0  0  0  0  0  0  0  0  0  0
   25.6300  -20.1163  -15.8243 C   0  0  0  0  0  0  0  0  0  0  0  0
   24.9338  -21.0873  -15.4482 O   0  0  0  0  0  0  0  0  0  0  0  0
   26.7842  -19.8374  -15.0434 N   0  0  0  0  0  0  0  0  0  0  0  0
   27.8176  -18.8493  -15.1250 C   0  0  0  0  0  0  0  0  0  0  0  0
   29.0616  -19.7506  -15.0368 C   0  0  0  0  0  0  0  0  0  0  0  0
   28.6453  -20.6106  -13.8295 C   0  0  0  0  0  0  0  0  0  0  0  0
   27.1329  -20.6056  -13.8485 C   0  0  1  0  0  0  0  0  0  0  0  0
   26.6276  -19.8610  -12.6709 C   0  0  0  0  0  0  0  0  0  0  0  0
   26.1890  -18.6621  -12.7819 O   0  0  0  0  0  0  0  0  0  0  0  0
   22.5734  -20.5404  -12.7330 C   0  0  0  0  0  0  0  0  0  0  0  0
   23.8906  -19.9166  -12.2433 C   0  0  0  0  0  0  0  0  0  0  0  0
   24.3101  -20.7023  -11.0531 C   0  0  2  0  0  0  0  0  0  0  0  0
   23.2487  -20.7283   -9.9631 C   0  0  0  0  0  0  0  0  0  0  0  0
   25.5962  -20.2754  -10.4089 C   0  0  2  0  0  0  0  0  0  0  0  0
   26.6412  -20.5115  -11.4094 N   0  0  0  0  0  0  0  0  0  0  0  0
   25.9071  -20.9534   -9.1417 C   0  0  0  0  0  0  0  0  0  0  0  0
   26.3737  -22.2594   -9.0647 O   0  0  0  0  0  0  0  0  0  0  0  0
   25.7554  -20.3523   -8.0516 O   0  0  0  0  0  0  0  0  0  0  0  0
  2  1  1  0
  2  3  2  0
  4  2  1  0
  5  4  1  0
  6  5  1  0
  6  7  1  6
  8  6  1  0
  8 10  1  0
  9  8  2  0
 10 14  1  0
 10 11  1  0
 11 12  1  0
 13 12  1  0
 14 13  1  0
 14 15  1  1
 16 15  2  0
 18 17  1  0
 19 18  1  0
 19 21  1  0
 19 20  1  1
 21 22  1  6
 21 23  1  0
 22 15  1  0
 23 25  2  0
 23 24  1  0
M  END
$$$$
