QPI.pdb
     RDKit          3D

 25 25  0  0  1  0  0  0  0  0999 V2000
   22.6818  -20.6654  -14.7963 N   0  0  0  0  0  0  0  0  0  0  0  0
   22.6720  -20.1029  -13.4994 C   0  0  0  0  0  0  0  0  0  0  0  0
   21.6583  -20.1916  -12.7784 O   0  0  0  0  0  0  0  0  0  0  0  0
   23.8741  -19.3901  -12.9629 C   0  0  0  0  0  0  0  0  0  0  0  0
   24.4056  -20.1010  -11.7640 C   0  0  0  0  0  0  0  0  0  0  0  0
   25.3229  -21.2190  -12.1084 C   0  0  2  0  0  0  0  0  0  0  0  0
   24.5762  -22.3820  -12.6010 N   0  0  0  0  0  0  0  0  0  0  0  0
   26.1414  -21.6363  -10.9641 C   0  0  0  0  0  0  0  0  0  0  0  0
   25.7703  -22.4534  -10.0902 O   0  0  0  0  0  0  0  0  0  0  0  0
   27.4467  -21.0987  -10.8004 N   0  0  0  0  0  0  0  0  0  0  0  0
   28.2395  -20.1796  -11.5605 C   0  0  0  0  0  0  0  0  0  0  0  0
   29.5458  -20.9837  -11.6808 C   0  0  0  0  0  0  0  0  0  0  0  0
   29.7032  -21.4006  -10.2070 C   0  0  0  0  0  0  0  0  0  0  0  0
   28.2956  -21.4227   -9.6542 C   0  0  1  0  0  0  0  0  0  0  0  0
   28.1403  -20.3369   -8.6575 C   0  0  0  0  0  0  0  0  0  0  0  0
   27.2758  -19.4051   -8.8204 O   0  0  0  0  0  0  0  0  0  0  0  0
   25.0834  -21.2175   -6.0197 C   0  0  0  0  0  0  0  0  0  0  0  0
   26.1497  -20.2924   -6.6290 C   0  0  0  0  0  0  0  0  0  0  0  0
   27.3636  -20.4370   -5.7829 C   0  0  2  0  0  0  0  0  0  0  0  0
   27.1248  -20.0228   -4.3384 C   0  0  0  0  0  0  0  0  0  0  0  0
   28.5823  -19.7025   -6.2587 C   0  0  2  0  0  0  0  0  0  0  0  0
   28.9772  -20.3538   -7.5111 N   0  0  0  0  0  0  0  0  0  0  0  0
   29.6966  -19.6688   -5.2999 C   0  0  0  0  0  0  0  0  0  0  0  0
   30.4889  -20.7709   -5.0052 O   0  0  0  0  0  0  0  0  0  0  0  0
   29.9769  -18.6057   -4.6964 O   0  0  0  0  0  0  0  0  0  0  0  0
  2  1  1  0
  2  3  2  0
  4  2  1  0
  5  4  1  0
  6  5  1  0
  6  7  1  1
  8  6  1  0
  8 10  1  0
  9  8  2  0
 10 14  1  0
 10 11  1  0
 11 12  1  0
 13 12  1  0
 14 13  1  0
 14 15  1  1
 16 15  2  0
 18 17  1  0
 19 18  1  0
 19 21  1  0
 19 20  1  1
 21 22  1  6
 21 23  1  0
 22 15  1  0
 23 25  2  0
 23 24  1  0
M  END
$$$$
