QPI.pdb
     RDKit          3D

 25 25  0  0  1  0  0  0  0  0999 V2000
   22.5086  -18.8749  -16.3125 N   0  0  0  0  0  0  0  0  0  0  0  0
   22.3782  -19.2835  -17.6595 C   0  0  0  0  0  0  0  0  0  0  0  0
   21.8991  -18.5099  -18.5124 O   0  0  0  0  0  0  0  0  0  0  0  0
   22.8105  -20.6498  -18.0924 C   0  0  0  0  0  0  0  0  0  0  0  0
   23.6734  -21.2750  -17.0485 C   0  0  0  0  0  0  0  0  0  0  0  0
   25.1173  -21.2636  -17.4023 C   0  0  2  0  0  0  0  0  0  0  0  0
   25.4529  -22.3849  -18.2870 N   0  0  0  0  0  0  0  0  0  0  0  0
   25.9786  -21.3269  -16.2159 C   0  0  0  0  0  0  0  0  0  0  0  0
   26.5503  -22.3658  -15.8120 O   0  0  0  0  0  0  0  0  0  0  0  0
   26.2024  -20.1532  -15.4464 N   0  0  0  0  0  0  0  0  0  0  0  0
   25.7177  -18.8083  -15.5316 C   0  0  0  0  0  0  0  0  0  0  0  0
   27.0473  -18.0366  -15.4666 C   0  0  0  0  0  0  0  0  0  0  0  0
   27.6802  -18.7573  -14.2622 C   0  0  0  0  0  0  0  0  0  0  0  0
   27.0617  -20.1375  -14.2629 C   0  0  1  0  0  0  0  0  0  0  0  0
   26.1917  -20.2883  -13.0726 C   0  0  0  0  0  0  0  0  0  0  0  0
   24.9191  -20.1670  -13.1610 O   0  0  0  0  0  0  0  0  0  0  0  0
   29.1727  -20.8922   -8.4800 C   0  0  0  0  0  0  0  0  0  0  0  0
   28.1866  -21.4707   -9.5079 C   0  0  0  0  0  0  0  0  0  0  0  0
   26.9794  -20.6041   -9.4653 C   0  0  2  0  0  0  0  0  0  0  0  0
   26.1844  -20.7681   -8.1783 C   0  0  0  0  0  0  0  0  0  0  0  0
   26.0170  -20.7684  -10.6045 C   0  0  2  0  0  0  0  0  0  0  0  0
   26.8056  -20.5722  -11.8246 N   0  0  0  0  0  0  0  0  0  0  0  0
   24.8566  -19.8661  -10.5679 C   0  0  0  0  0  0  0  0  0  0  0  0
   23.5584  -20.2953  -10.3230 O   0  0  0  0  0  0  0  0  0  0  0  0
   25.0078  -18.6366  -10.7635 O   0  0  0  0  0  0  0  0  0  0  0  0
  2  1  1  0
  2  3  2  0
  4  2  1  0
  5  4  1  0
  6  5  1  0
  6  7  1  6
  8  6  1  0
  8 10  1  0
  9  8  2  0
 10 14  1  0
 10 11  1  0
 11 12  1  0
 13 12  1  0
 14 13  1  0
 14 15  1  1
 16 15  2  0
 18 17  1  0
 19 18  1  0
 19 21  1  0
 19 20  1  1
 21 22  1  6
 21 23  1  0
 22 15  1  0
 23 25  2  0
 23 24  1  0
M  END
$$$$
