QPI.pdb
     RDKit          3D

 25 25  0  0  1  0  0  0  0  0999 V2000
   23.9166  -18.9141  -16.8825 N   0  0  0  0  0  0  0  0  0  0  0  0
   24.9088  -18.2039  -17.5963 C   0  0  0  0  0  0  0  0  0  0  0  0
   24.6203  -17.5959  -18.6463 O   0  0  0  0  0  0  0  0  0  0  0  0
   26.3241  -18.1650  -17.1103 C   0  0  0  0  0  0  0  0  0  0  0  0
   26.4406  -18.8651  -15.7983 C   0  0  0  0  0  0  0  0  0  0  0  0
   27.1227  -20.1823  -15.8991 C   0  0  2  0  0  0  0  0  0  0  0  0
   26.4969  -21.0237  -16.9253 N   0  0  0  0  0  0  0  0  0  0  0  0
   27.1129  -20.9099  -14.6246 C   0  0  0  0  0  0  0  0  0  0  0  0
   26.3021  -21.8203  -14.3367 O   0  0  0  0  0  0  0  0  0  0  0  0
   28.0698  -20.5881  -13.6244 N   0  0  0  0  0  0  0  0  0  0  0  0
   29.1201  -19.6187  -13.5369 C   0  0  0  0  0  0  0  0  0  0  0  0
   30.2894  -20.5238  -13.1114 C   0  0  0  0  0  0  0  0  0  0  0  0
   29.5916  -21.2923  -11.9742 C   0  0  0  0  0  0  0  0  0  0  0  0
   28.1226  -21.2736  -12.3333 C   0  0  1  0  0  0  0  0  0  0  0  0
   27.3858  -20.4427  -11.3518 C   0  0  0  0  0  0  0  0  0  0  0  0
   27.3485  -19.1663  -11.4581 O   0  0  0  0  0  0  0  0  0  0  0  0
   22.5252  -21.3700  -10.8991 C   0  0  0  0  0  0  0  0  0  0  0  0
   23.9117  -20.7057  -10.9103 C   0  0  0  0  0  0  0  0  0  0  0  0
   24.4788  -20.8949   -9.5493 C   0  0  2  0  0  0  0  0  0  0  0  0
   23.6024  -20.2951   -8.4596 C   0  0  0  0  0  0  0  0  0  0  0  0
   25.8677  -20.3669   -9.3413 C   0  0  2  0  0  0  0  0  0  0  0  0
   26.7183  -21.0988  -10.2845 N   0  0  0  0  0  0  0  0  0  0  0  0
   26.3732  -20.4832   -7.9654 C   0  0  0  0  0  0  0  0  0  0  0  0
   26.3424  -19.4424   -7.0461 O   0  0  0  0  0  0  0  0  0  0  0  0
   26.8657  -21.5646   -7.5642 O   0  0  0  0  0  0  0  0  0  0  0  0
  2  1  1  0
  2  3  2  0
  4  2  1  0
  5  4  1  0
  6  5  1  0
  6  7  1  6
  8  6  1  0
  8 10  1  0
  9  8  2  0
 10 14  1  0
 10 11  1  0
 11 12  1  0
 13 12  1  0
 14 13  1  0
 14 15  1  1
 16 15  2  0
 18 17  1  0
 19 18  1  0
 19 21  1  0
 19 20  1  1
 21 22  1  6
 21 23  1  0
 22 15  1  0
 23 25  2  0
 23 24  1  0
M  END
$$$$
