QPI.pdb
     RDKit          3D

 25 25  0  0  1  0  0  0  0  0999 V2000
   14.7271   -9.6728  -15.7765 N   0  0  0  0  0  0  0  0  0  0  0  0
   14.3768  -10.5400  -16.8365 C   0  0  0  0  0  0  0  0  0  0  0  0
   13.1983  -10.9226  -16.9785 O   0  0  0  0  0  0  0  0  0  0  0  0
   15.4086  -11.0178  -17.8101 C   0  0  0  0  0  0  0  0  0  0  0  0
   16.7474  -10.4598  -17.4615 C   0  0  0  0  0  0  0  0  0  0  0  0
   17.8203  -10.8926  -18.3952 C   0  0  2  0  0  0  0  0  0  0  0  0
   18.0159  -12.3456  -18.3377 N   0  0  0  0  0  0  0  0  0  0  0  0
   19.1007  -10.2344  -18.1107 C   0  0  0  0  0  0  0  0  0  0  0  0
   20.1325  -10.8317  -17.7264 O   0  0  0  0  0  0  0  0  0  0  0  0
   19.2174   -8.8268  -18.2679 N   0  0  0  0  0  0  0  0  0  0  0  0
   18.2918   -7.7911  -18.6163 C   0  0  0  0  0  0  0  0  0  0  0  0
   19.0782   -7.0913  -19.7386 C   0  0  0  0  0  0  0  0  0  0  0  0
   20.4400   -6.9672  -19.0310 C   0  0  0  0  0  0  0  0  0  0  0  0
   20.4710   -8.1086  -18.0391 C   0  0  1  0  0  0  0  0  0  0  0  0
   20.4335   -7.5650  -16.6609 C   0  0  0  0  0  0  0  0  0  0  0  0
   19.3210   -7.3252  -16.0720 O   0  0  0  0  0  0  0  0  0  0  0  0
   24.1690   -9.8582  -13.5774 C   0  0  0  0  0  0  0  0  0  0  0  0
   23.7144   -8.6554  -14.4203 C   0  0  0  0  0  0  0  0  0  0  0  0
   22.3351   -8.3270  -13.9733 C   0  0  2  0  0  0  0  0  0  0  0  0
   21.3508   -9.4594  -14.2269 C   0  0  0  0  0  0  0  0  0  0  0  0
   21.7379   -7.0816  -14.5592 C   0  0  2  0  0  0  0  0  0  0  0  0
   21.6671   -7.3147  -16.0046 N   0  0  0  0  0  0  0  0  0  0  0  0
   22.4691   -5.8430  -14.2533 C   0  0  0  0  0  0  0  0  0  0  0  0
   22.3194   -5.1367  -13.0667 O   0  0  0  0  0  0  0  0  0  0  0  0
   23.2801   -5.3684  -15.0839 O   0  0  0  0  0  0  0  0  0  0  0  0
  2  1  1  0
  2  3  2  0
  4  2  1  0
  5  4  1  0
  6  5  1  0
  6  7  1  1
  8  6  1  0
  8 10  1  0
  9  8  2  0
 10 14  1  0
 10 11  1  0
 11 12  1  0
 13 12  1  0
 14 13  1  0
 14 15  1  1
 16 15  2  0
 18 17  1  0
 19 18  1  0
 19 21  1  0
 19 20  1  6
 21 22  1  6
 21 23  1  0
 22 15  1  0
 23 25  2  0
 23 24  1  0
M  END
$$$$
