QPI.pdb
     RDKit          3D

 25 25  0  0  1  0  0  0  0  0999 V2000
   22.8106  -17.8303  -16.4933 N   0  0  0  0  0  0  0  0  0  0  0  0
   22.5931  -18.3044  -15.1794 C   0  0  0  0  0  0  0  0  0  0  0  0
   21.4346  -18.4925  -14.7577 O   0  0  0  0  0  0  0  0  0  0  0  0
   23.7443  -18.5908  -14.2664 C   0  0  0  0  0  0  0  0  0  0  0  0
   25.0090  -18.0478  -14.8416 C   0  0  0  0  0  0  0  0  0  0  0  0
   25.7399  -19.0355  -15.6785 C   0  0  2  0  0  0  0  0  0  0  0  0
   24.9394  -19.4382  -16.8403 N   0  0  0  0  0  0  0  0  0  0  0  0
   26.1078  -20.2379  -14.9218 C   0  0  0  0  0  0  0  0  0  0  0  0
   25.6433  -21.3805  -15.1406 O   0  0  0  0  0  0  0  0  0  0  0  0
   27.0490  -20.1403  -13.8614 N   0  0  0  0  0  0  0  0  0  0  0  0
   27.5906  -19.0422  -13.1187 C   0  0  0  0  0  0  0  0  0  0  0  0
   29.0939  -19.3463  -13.2431 C   0  0  0  0  0  0  0  0  0  0  0  0
   29.0645  -20.8397  -12.8698 C   0  0  0  0  0  0  0  0  0  0  0  0
   27.6811  -21.3127  -13.2571 C   0  0  1  0  0  0  0  0  0  0  0  0
   26.9173  -21.6561  -12.0343 C   0  0  0  0  0  0  0  0  0  0  0  0
   27.1515  -22.7369  -11.3870 O   0  0  0  0  0  0  0  0  0  0  0  0
   27.2301  -19.5308   -7.7696 C   0  0  0  0  0  0  0  0  0  0  0  0
   26.9127  -20.5434   -8.8823 C   0  0  0  0  0  0  0  0  0  0  0  0
   25.5165  -20.2696   -9.3131 C   0  0  2  0  0  0  0  0  0  0  0  0
   24.5096  -20.4436   -8.1856 C   0  0  0  0  0  0  0  0  0  0  0  0
   25.0221  -21.0770  -10.4770 C   0  0  2  0  0  0  0  0  0  0  0  0
   25.9138  -20.7535  -11.5946 N   0  0  0  0  0  0  0  0  0  0  0  0
   23.6141  -20.8481  -10.8339 C   0  0  0  0  0  0  0  0  0  0  0  0
   23.2114  -20.2360  -12.0138 O   0  0  0  0  0  0  0  0  0  0  0  0
   22.6997  -21.2115  -10.0562 O   0  0  0  0  0  0  0  0  0  0  0  0
  2  1  1  0
  2  3  2  0
  4  2  1  0
  5  4  1  0
  6  5  1  0
  6  7  1  6
  8  6  1  0
  8 10  1  0
  9  8  2  0
 10 14  1  0
 10 11  1  0
 11 12  1  0
 13 12  1  0
 14 13  1  0
 14 15  1  1
 16 15  2  0
 18 17  1  0
 19 18  1  0
 19 21  1  0
 19 20  1  1
 21 22  1  6
 21 23  1  0
 22 15  1  0
 23 25  2  0
 23 24  1  0
M  END
$$$$
