QPI.pdb
     RDKit          3D

 25 25  0  0  1  0  0  0  0  0999 V2000
   22.2701  -19.4041  -12.3595 N   0  0  0  0  0  0  0  0  0  0  0  0
   23.1031  -19.4860  -13.4988 C   0  0  0  0  0  0  0  0  0  0  0  0
   22.6289  -19.8001  -14.6087 O   0  0  0  0  0  0  0  0  0  0  0  0
   24.5689  -19.1986  -13.4000 C   0  0  0  0  0  0  0  0  0  0  0  0
   25.0972  -19.6492  -12.0798 C   0  0  0  0  0  0  0  0  0  0  0  0
   25.5926  -21.0508  -12.0979 C   0  0  2  0  0  0  0  0  0  0  0  0
   24.4968  -21.9950  -12.3435 N   0  0  0  0  0  0  0  0  0  0  0  0
   26.2579  -21.4192  -10.8428 C   0  0  0  0  0  0  0  0  0  0  0  0
   25.7097  -22.0531   -9.9118 O   0  0  0  0  0  0  0  0  0  0  0  0
   27.6135  -21.0486  -10.6308 N   0  0  0  0  0  0  0  0  0  0  0  0
   28.5447  -20.2454  -11.3646 C   0  0  0  0  0  0  0  0  0  0  0  0
   29.7426  -21.2091  -11.4278 C   0  0  0  0  0  0  0  0  0  0  0  0
   29.7890  -21.6258   -9.9463 C   0  0  0  0  0  0  0  0  0  0  0  0
   28.3696  -21.4641   -9.4497 C   0  0  1  0  0  0  0  0  0  0  0  0
   28.3145  -20.3562   -8.4669 C   0  0  0  0  0  0  0  0  0  0  0  0
   28.0840  -19.1513   -8.8373 O   0  0  0  0  0  0  0  0  0  0  0  0
   26.0921  -21.6079   -3.7332 C   0  0  0  0  0  0  0  0  0  0  0  0
   26.4448  -20.8753   -5.0381 C   0  0  0  0  0  0  0  0  0  0  0  0
   27.8212  -20.3420   -4.8612 C   0  0  2  0  0  0  0  0  0  0  0  0
   27.9343  -19.3899   -3.6797 C   0  0  0  0  0  0  0  0  0  0  0  0
   28.4086  -19.6426   -6.0515 C   0  0  2  0  0  0  0  0  0  0  0  0
   28.5245  -20.6635   -7.0971 N   0  0  0  0  0  0  0  0  0  0  0  0
   29.6988  -18.9818   -5.8051 C   0  0  0  0  0  0  0  0  0  0  0  0
   29.8225  -17.6364   -5.4826 O   0  0  0  0  0  0  0  0  0  0  0  0
   30.7664  -19.6355   -5.8810 O   0  0  0  0  0  0  0  0  0  0  0  0
  2  1  1  0
  2  3  2  0
  4  2  1  0
  5  4  1  0
  6  5  1  0
  6  7  1  1
  8  6  1  0
  8 10  1  0
  9  8  2  0
 10 14  1  0
 10 11  1  0
 11 12  1  0
 13 12  1  0
 14 13  1  0
 14 15  1  1
 16 15  2  0
 18 17  1  0
 19 18  1  0
 19 21  1  0
 19 20  1  1
 21 22  1  6
 21 23  1  0
 22 15  1  0
 23 25  2  0
 23 24  1  0
M  END
$$$$
