TFC.pdb
     RDKit          3D

 25 25  0  0  1  0  0  0  0  0999 V2000
    8.4831  -18.7012   21.0678 C   0  0  0  0  0  0  0  0  0  0  0  0
    9.7872  -18.2937   20.4048 C   0  0  1  0  0  0  0  0  0  0  0  0
    9.8817  -18.8246   19.1383 O   0  0  0  0  0  0  0  0  0  0  0  0
    9.7975  -16.7863   20.3070 C   0  0  2  0  0  0  0  0  0  0  0  0
   10.9479  -16.3977   19.4834 N   0  0  0  0  0  0  0  0  0  0  0  0
    9.8644  -16.1165   21.6311 C   0  0  0  0  0  0  0  0  0  0  0  0
   10.9308  -16.0577   22.3028 O   0  0  0  0  0  0  0  0  0  0  0  0
    8.7175  -15.5254   22.1657 N   0  0  0  0  0  0  0  0  0  0  0  0
    8.6644  -14.8996   23.4851 C   0  0  1  0  0  0  0  0  0  0  0  0
    7.4110  -14.0106   23.4588 C   0  0  0  0  0  0  0  0  0  0  0  0
    7.2057  -13.3535   24.7611 C   0  0  0  0  0  0  0  0  0  0  0  0
    8.0075  -12.2792   25.1366 C   0  0  0  0  0  0  0  0  0  0  0  0
    7.8375  -11.6430   26.3530 C   0  0  0  0  0  0  0  0  0  0  0  0
    6.8480  -12.0981   27.1953 C   0  0  0  0  0  0  0  0  0  0  0  0
    6.0599  -13.1632   26.8124 C   0  0  0  0  0  0  0  0  0  0  0  0
    6.2104  -13.8136   25.6049 C   0  0  0  0  0  0  0  0  0  0  0  0
    8.5608  -15.8920   24.5610 C   0  0  0  0  0  0  0  0  0  0  0  0
    7.7998  -16.8777   24.4057 O   0  0  0  0  0  0  0  0  0  0  0  0
    9.2775  -15.8026   25.7799 N   0  0  0  0  0  0  0  0  0  0  0  0
    9.7061  -16.9436   26.5537 C   0  0  1  0  0  0  0  0  0  0  0  0
   11.0021  -17.5020   25.9649 C   0  0  0  0  0  0  0  0  0  0  0  0
   10.6663  -18.9922   25.0199 S   0  0  0  0  0  0  0  0  0  0  0  0
   10.0107  -16.5012   27.9470 C   0  0  0  0  0  0  0  0  0  0  0  0
   10.0784  -15.2747   28.2192 O   0  0  0  0  0  0  0  0  0  0  0  0
   10.2289  -17.3998   28.9863 O   0  0  0  0  0  0  0  0  0  0  0  0
  2  1  1  6
  3  2  1  0
  4  2  1  0
  4  6  1  0
  4  5  1  6
  6  7  2  0
  8  6  1  0
  8  9  1  0
  9 10  1  6
 10 11  1  0
 11 16  2  0
 12 11  1  0
 12 13  2  0
 13 14  1  0
 14 15  2  0
 16 15  1  0
 17  9  1  0
 17 18  2  0
 19 17  1  0
 20 19  1  0
 20 23  1  0
 20 21  1  6
 22 21  1  0
 23 25  1  0
 24 23  2  0
M  END
$$$$
