TFC.pdb
     RDKit          3D

 25 25  0  0  1  0  0  0  0  0999 V2000
    9.4330  -18.8809   19.0934 C   0  0  0  0  0  0  0  0  0  0  0  0
    9.5581  -18.2768   20.4811 C   0  0  1  0  0  0  0  0  0  0  0  0
   10.6058  -18.8433   21.1713 O   0  0  0  0  0  0  0  0  0  0  0  0
    9.8232  -16.7991   20.3128 C   0  0  2  0  0  0  0  0  0  0  0  0
   11.0614  -16.6504   19.5396 N   0  0  0  0  0  0  0  0  0  0  0  0
    9.9351  -16.0759   21.6053 C   0  0  0  0  0  0  0  0  0  0  0  0
   11.0362  -15.9349   22.2049 O   0  0  0  0  0  0  0  0  0  0  0  0
    8.7927  -15.5257   22.1909 N   0  0  0  0  0  0  0  0  0  0  0  0
    8.7792  -14.8885   23.5058 C   0  0  1  0  0  0  0  0  0  0  0  0
    7.4570  -14.1068   23.5606 C   0  0  0  0  0  0  0  0  0  0  0  0
    7.2990  -13.4323   24.8606 C   0  0  0  0  0  0  0  0  0  0  0  0
    6.3617  -13.8957   25.7798 C   0  0  0  0  0  0  0  0  0  0  0  0
    6.1917  -13.2823   27.0078 C   0  0  0  0  0  0  0  0  0  0  0  0
    6.9766  -12.1915   27.3072 C   0  0  0  0  0  0  0  0  0  0  0  0
    7.9018  -11.7415   26.3887 C   0  0  0  0  0  0  0  0  0  0  0  0
    8.0896  -12.3364   25.1579 C   0  0  0  0  0  0  0  0  0  0  0  0
    8.8338  -15.8712   24.5942 C   0  0  0  0  0  0  0  0  0  0  0  0
    7.9783  -16.7889   24.6262 O   0  0  0  0  0  0  0  0  0  0  0  0
    9.8066  -15.8454   25.6238 N   0  0  0  0  0  0  0  0  0  0  0  0
    9.9529  -16.8737   26.6265 C   0  0  1  0  0  0  0  0  0  0  0  0
   11.2774  -17.6080   26.4152 C   0  0  0  0  0  0  0  0  0  0  0  0
   11.4823  -18.0385   24.6833 S   0  0  0  0  0  0  0  0  0  0  0  0
   10.0144  -16.2349   27.9748 C   0  0  0  0  0  0  0  0  0  0  0  0
   10.0526  -14.9815   28.0782 O   0  0  0  0  0  0  0  0  0  0  0  0
   10.0318  -16.9744   29.1529 O   0  0  0  0  0  0  0  0  0  0  0  0
  2  1  1  6
  3  2  1  0
  4  2  1  0
  4  6  1  0
  4  5  1  1
  6  7  2  0
  8  6  1  0
  8  9  1  0
  9 10  1  1
 10 11  1  0
 11 16  2  0
 12 11  1  0
 12 13  2  0
 13 14  1  0
 14 15  2  0
 16 15  1  0
 17  9  1  0
 17 18  2  0
 19 17  1  0
 20 19  1  0
 20 23  1  0
 20 21  1  6
 22 21  1  0
 23 25  1  0
 24 23  2  0
M  END
$$$$
