TFC.pdb
     RDKit          3D

 25 25  0  0  1  0  0  0  0  0999 V2000
    8.2490  -18.8794   18.6204 C   0  0  0  0  0  0  0  0  0  0  0  0
    8.5961  -18.2659   19.9655 C   0  0  1  0  0  0  0  0  0  0  0  0
    9.7201  -18.8549   20.4991 O   0  0  0  0  0  0  0  0  0  0  0  0
    8.8717  -16.7979   19.7395 C   0  0  2  0  0  0  0  0  0  0  0  0
   10.0008  -16.6912   18.8086 N   0  0  0  0  0  0  0  0  0  0  0  0
    9.1694  -16.0606   20.9942 C   0  0  0  0  0  0  0  0  0  0  0  0
   10.3486  -15.8761   21.4031 O   0  0  0  0  0  0  0  0  0  0  0  0
    8.1203  -15.5463   21.7594 N   0  0  0  0  0  0  0  0  0  0  0  0
    8.3018  -14.8933   23.0540 C   0  0  1  0  0  0  0  0  0  0  0  0
    6.9579  -14.2096   23.3518 C   0  0  0  0  0  0  0  0  0  0  0  0
    6.9859  -13.5466   24.6668 C   0  0  0  0  0  0  0  0  0  0  0  0
    6.2951  -14.0972   25.7427 C   0  0  0  0  0  0  0  0  0  0  0  0
    6.3036  -13.4967   26.9887 C   0  0  0  0  0  0  0  0  0  0  0  0
    7.0171  -12.3297   27.1463 C   0  0  0  0  0  0  0  0  0  0  0  0
    7.6976  -11.7936   26.0732 C   0  0  0  0  0  0  0  0  0  0  0  0
    7.7041  -12.3740   24.8214 C   0  0  0  0  0  0  0  0  0  0  0  0
    8.6287  -15.8541   24.1138 C   0  0  0  0  0  0  0  0  0  0  0  0
    7.9219  -16.8836   24.2383 O   0  0  0  0  0  0  0  0  0  0  0  0
    9.7080  -15.6867   25.0162 N   0  0  0  0  0  0  0  0  0  0  0  0
   10.2176  -16.7310   25.8728 C   0  0  1  0  0  0  0  0  0  0  0  0
   11.7133  -16.9179   25.6156 C   0  0  0  0  0  0  0  0  0  0  0  0
   12.0191  -18.5114   24.8449 S   0  0  0  0  0  0  0  0  0  0  0  0
   10.0655  -16.3107   27.2976 C   0  0  0  0  0  0  0  0  0  0  0  0
   10.3845  -17.0982   28.2255 O   0  0  0  0  0  0  0  0  0  0  0  0
    9.5761  -15.0600   27.6604 O   0  0  0  0  0  0  0  0  0  0  0  0
  2  1  1  6
  3  2  1  0
  4  2  1  0
  4  6  1  0
  4  5  1  6
  6  7  2  0
  8  6  1  0
  8  9  1  0
  9 10  1  1
 10 11  1  0
 11 16  2  0
 12 11  1  0
 12 13  2  0
 13 14  1  0
 14 15  2  0
 16 15  1  0
 17  9  1  0
 17 18  2  0
 19 17  1  0
 20 19  1  0
 20 23  1  0
 20 21  1  6
 22 21  1  0
 23 25  1  0
 24 23  2  0
M  END
$$$$
