TFC.pdb
     RDKit          3D

 25 25  0  0  1  0  0  0  0  0999 V2000
    8.0601  -16.4502   18.8913 C   0  0  0  0  0  0  0  0  0  0  0  0
    8.6068  -15.1886   18.2466 C   0  0  1  0  0  0  0  0  0  0  0  0
    8.3167  -15.1585   16.9013 O   0  0  0  0  0  0  0  0  0  0  0  0
    7.9434  -14.0091   18.9180 C   0  0  2  0  0  0  0  0  0  0  0  0
    8.2521  -12.8113   18.1289 N   0  0  0  0  0  0  0  0  0  0  0  0
    8.3754  -13.8212   20.3267 C   0  0  0  0  0  0  0  0  0  0  0  0
    9.5285  -13.4069   20.6278 O   0  0  0  0  0  0  0  0  0  0  0  0
    7.4875  -14.1070   21.3662 N   0  0  0  0  0  0  0  0  0  0  0  0
    7.8336  -14.0067   22.7823 C   0  0  1  0  0  0  0  0  0  0  0  0
    6.5495  -13.5270   23.4774 C   0  0  0  0  0  0  0  0  0  0  0  0
    6.7819  -13.3049   24.9149 C   0  0  0  0  0  0  0  0  0  0  0  0
    7.4598  -12.1682   25.3466 C   0  0  0  0  0  0  0  0  0  0  0  0
    7.6923  -11.9338   26.6898 C   0  0  0  0  0  0  0  0  0  0  0  0
    7.2347  -12.8573   27.6027 C   0  0  0  0  0  0  0  0  0  0  0  0
    6.5643  -13.9796   27.1632 C   0  0  0  0  0  0  0  0  0  0  0  0
    6.3206  -14.2353   25.8293 C   0  0  0  0  0  0  0  0  0  0  0  0
    8.2601  -15.2964   23.3373 C   0  0  0  0  0  0  0  0  0  0  0  0
    7.5361  -16.3049   23.1537 O   0  0  0  0  0  0  0  0  0  0  0  0
    9.4552  -15.4732   24.0772 N   0  0  0  0  0  0  0  0  0  0  0  0
    9.8790  -16.7315   24.6440 C   0  0  1  0  0  0  0  0  0  0  0  0
   11.2898  -17.0620   24.1558 C   0  0  0  0  0  0  0  0  0  0  0  0
   11.5275  -16.4579   22.4809 S   0  0  0  0  0  0  0  0  0  0  0  0
    9.9475  -16.5987   26.1298 C   0  0  0  0  0  0  0  0  0  0  0  0
    9.6890  -15.4958   26.6774 O   0  0  0  0  0  0  0  0  0  0  0  0
   10.2916  -17.6600   26.9607 O   0  0  0  0  0  0  0  0  0  0  0  0
  2  1  1  1
  3  2  1  0
  4  2  1  0
  4  6  1  0
  4  5  1  6
  6  7  2  0
  8  6  1  0
  8  9  1  0
  9 10  1  1
 10 11  1  0
 11 16  2  0
 12 11  1  0
 12 13  2  0
 13 14  1  0
 14 15  2  0
 16 15  1  0
 17  9  1  0
 17 18  2  0
 19 17  1  0
 20 19  1  0
 20 23  1  0
 20 21  1  6
 22 21  1  0
 23 25  1  0
 24 23  2  0
M  END
$$$$
