TFC.pdb
     RDKit          3D

 25 25  0  0  1  0  0  0  0  0999 V2000
    8.3624  -18.4111   18.5629 C   0  0  0  0  0  0  0  0  0  0  0  0
    8.6676  -17.9386   19.9735 C   0  0  1  0  0  0  0  0  0  0  0  0
    9.6566  -18.7061   20.5460 O   0  0  0  0  0  0  0  0  0  0  0  0
    9.1470  -16.5090   19.8818 C   0  0  2  0  0  0  0  0  0  0  0  0
   10.3667  -16.4961   19.0663 N   0  0  0  0  0  0  0  0  0  0  0  0
    9.4103  -15.8960   21.2088 C   0  0  0  0  0  0  0  0  0  0  0  0
   10.5344  -15.9754   21.7761 O   0  0  0  0  0  0  0  0  0  0  0  0
    8.3903  -15.2033   21.8651 N   0  0  0  0  0  0  0  0  0  0  0  0
    8.5063  -14.6803   23.2246 C   0  0  1  0  0  0  0  0  0  0  0  0
    7.2288  -13.8560   23.4490 C   0  0  0  0  0  0  0  0  0  0  0  0
    7.1839  -13.3195   24.8202 C   0  0  0  0  0  0  0  0  0  0  0  0
    6.3501  -13.9004   25.7717 C   0  0  0  0  0  0  0  0  0  0  0  0
    6.2875  -13.4179   27.0664 C   0  0  0  0  0  0  0  0  0  0  0  0
    7.0751  -12.3390   27.4001 C   0  0  0  0  0  0  0  0  0  0  0  0
    7.8972  -11.7718   26.4490 C   0  0  0  0  0  0  0  0  0  0  0  0
    7.9769  -12.2352   25.1517 C   0  0  0  0  0  0  0  0  0  0  0  0
    8.6000  -15.7535   24.2209 C   0  0  0  0  0  0  0  0  0  0  0  0
    7.7917  -16.7115   24.1583 O   0  0  0  0  0  0  0  0  0  0  0  0
    9.5603  -15.7730   25.2623 N   0  0  0  0  0  0  0  0  0  0  0  0
    9.8032  -16.9088   26.1197 C   0  0  1  0  0  0  0  0  0  0  0  0
   11.0799  -17.6219   25.6731 C   0  0  0  0  0  0  0  0  0  0  0  0
   11.4624  -18.9745   26.7913 S   0  0  0  0  0  0  0  0  0  0  0  0
   10.0335  -16.4267   27.5142 C   0  0  0  0  0  0  0  0  0  0  0  0
   10.1829  -15.1980   27.7406 O   0  0  0  0  0  0  0  0  0  0  0  0
   10.0927  -17.2894   28.6038 O   0  0  0  0  0  0  0  0  0  0  0  0
  2  1  1  6
  3  2  1  0
  4  2  1  0
  4  6  1  0
  4  5  1  6
  6  7  2  0
  8  6  1  0
  8  9  1  0
  9 10  1  1
 10 11  1  0
 11 16  2  0
 12 11  1  0
 12 13  2  0
 13 14  1  0
 14 15  2  0
 16 15  1  0
 17  9  1  0
 17 18  2  0
 19 17  1  0
 20 19  1  0
 20 23  1  0
 20 21  1  6
 22 21  1  0
 23 25  1  0
 24 23  2  0
M  END
$$$$
