TFC.pdb
     RDKit          3D

 25 25  0  0  1  0  0  0  0  0999 V2000
    8.5012  -18.1852   18.5075 C   0  0  0  0  0  0  0  0  0  0  0  0
    8.5768  -17.6629   19.9315 C   0  0  1  0  0  0  0  0  0  0  0  0
    9.3935  -18.4575   20.7039 O   0  0  0  0  0  0  0  0  0  0  0  0
    9.1579  -16.2696   19.8759 C   0  0  2  0  0  0  0  0  0  0  0  0
   10.4427  -16.3469   19.1714 N   0  0  0  0  0  0  0  0  0  0  0  0
    9.3441  -15.6615   21.2181 C   0  0  0  0  0  0  0  0  0  0  0  0
   10.4870  -15.4274   21.6985 O   0  0  0  0  0  0  0  0  0  0  0  0
    8.2270  -15.3302   21.9882 N   0  0  0  0  0  0  0  0  0  0  0  0
    8.3050  -14.7645   23.3332 C   0  0  1  0  0  0  0  0  0  0  0  0
    7.0578  -13.8768   23.4694 C   0  0  0  0  0  0  0  0  0  0  0  0
    7.0009  -13.2517   24.8020 C   0  0  0  0  0  0  0  0  0  0  0  0
    7.7663  -12.1221   25.0780 C   0  0  0  0  0  0  0  0  0  0  0  0
    7.7329  -11.5142   26.3200 C   0  0  0  0  0  0  0  0  0  0  0  0
    6.9182  -12.0542   27.2897 C   0  0  0  0  0  0  0  0  0  0  0  0
    6.1645  -13.1735   27.0047 C   0  0  0  0  0  0  0  0  0  0  0  0
    6.1811  -13.7973   25.7739 C   0  0  0  0  0  0  0  0  0  0  0  0
    8.3037  -15.8044   24.3685 C   0  0  0  0  0  0  0  0  0  0  0  0
    7.8396  -15.5313   25.5020 O   0  0  0  0  0  0  0  0  0  0  0  0
    8.8014  -17.1147   24.1621 N   0  0  0  0  0  0  0  0  0  0  0  0
    9.9956  -17.6355   24.7842 C   0  0  1  0  0  0  0  0  0  0  0  0
   11.2014  -16.7997   24.3540 C   0  0  0  0  0  0  0  0  0  0  0  0
   12.6757  -17.3356   25.2290 S   0  0  0  0  0  0  0  0  0  0  0  0
    9.8723  -17.4996   26.2662 C   0  0  0  0  0  0  0  0  0  0  0  0
    8.9525  -16.7983   26.7613 O   0  0  0  0  0  0  0  0  0  0  0  0
   10.7456  -18.1253   27.1500 O   0  0  0  0  0  0  0  0  0  0  0  0
  2  1  1  6
  3  2  1  0
  4  2  1  0
  4  6  1  0
  4  5  1  1
  6  7  2  0
  8  6  1  0
  8  9  1  0
  9 10  1  1
 10 11  1  0
 11 16  2  0
 12 11  1  0
 12 13  2  0
 13 14  1  0
 14 15  2  0
 16 15  1  0
 17  9  1  0
 17 18  2  0
 19 17  1  0
 20 19  1  0
 20 23  1  0
 20 21  1  6
 22 21  1  0
 23 25  1  0
 24 23  2  0
M  END
$$$$
