TFC.pdb
     RDKit          3D

 25 25  0  0  1  0  0  0  0  0999 V2000
    7.2309  -18.1554   20.5972 C   0  0  0  0  0  0  0  0  0  0  0  0
    8.4757  -17.8816   19.7716 C   0  0  1  0  0  0  0  0  0  0  0  0
    8.3243  -18.3466   18.4848 O   0  0  0  0  0  0  0  0  0  0  0  0
    8.6764  -16.3849   19.7321 C   0  0  2  0  0  0  0  0  0  0  0  0
    9.7343  -16.0994   18.7562 N   0  0  0  0  0  0  0  0  0  0  0  0
    9.0293  -15.8087   21.0549 C   0  0  0  0  0  0  0  0  0  0  0  0
   10.1857  -15.9139   21.5482 O   0  0  0  0  0  0  0  0  0  0  0  0
    8.0605  -15.1230   21.7911 N   0  0  0  0  0  0  0  0  0  0  0  0
    8.2701  -14.6293   23.1503 C   0  0  1  0  0  0  0  0  0  0  0  0
    7.0451  -13.7521   23.4533 C   0  0  0  0  0  0  0  0  0  0  0  0
    7.1102  -13.2138   24.8229 C   0  0  0  0  0  0  0  0  0  0  0  0
    8.0529  -12.2426   25.1486 C   0  0  0  0  0  0  0  0  0  0  0  0
    8.1371  -11.7192   26.4261 C   0  0  0  0  0  0  0  0  0  0  0  0
    7.2601  -12.1827   27.3810 C   0  0  0  0  0  0  0  0  0  0  0  0
    6.3305  -13.1451   27.0465 C   0  0  0  0  0  0  0  0  0  0  0  0
    6.2272  -13.6821   25.7796 C   0  0  0  0  0  0  0  0  0  0  0  0
    8.3654  -15.7227   24.1243 C   0  0  0  0  0  0  0  0  0  0  0  0
    7.3892  -16.4993   24.2617 O   0  0  0  0  0  0  0  0  0  0  0  0
    9.5077  -15.9567   24.9289 N   0  0  0  0  0  0  0  0  0  0  0  0
    9.6441  -17.0693   25.8388 C   0  0  1  0  0  0  0  0  0  0  0  0
   10.9027  -17.8638   25.4887 C   0  0  0  0  0  0  0  0  0  0  0  0
   10.6971  -18.6930   23.9086 S   0  0  0  0  0  0  0  0  0  0  0  0
    9.8260  -16.5457   27.2255 C   0  0  0  0  0  0  0  0  0  0  0  0
    9.9178  -17.3433   28.1942 O   0  0  0  0  0  0  0  0  0  0  0  0
    9.9010  -15.1856   27.5077 O   0  0  0  0  0  0  0  0  0  0  0  0
  2  1  1  1
  3  2  1  0
  4  2  1  0
  4  6  1  0
  4  5  1  6
  6  7  2  0
  8  6  1  0
  8  9  1  0
  9 10  1  1
 10 11  1  0
 11 16  2  0
 12 11  1  0
 12 13  2  0
 13 14  1  0
 14 15  2  0
 16 15  1  0
 17  9  1  0
 17 18  2  0
 19 17  1  0
 20 19  1  0
 20 23  1  0
 20 21  1  6
 22 21  1  0
 23 25  1  0
 24 23  2  0
M  END
$$$$
