TFC.pdb
     RDKit          3D

 25 25  0  0  1  0  0  0  0  0999 V2000
    8.1793  -18.6706   20.9260 C   0  0  0  0  0  0  0  0  0  0  0  0
    9.2672  -18.1581   19.9985 C   0  0  1  0  0  0  0  0  0  0  0  0
    9.1305  -18.6930   18.7375 O   0  0  0  0  0  0  0  0  0  0  0  0
    9.1233  -16.6567   19.9129 C   0  0  2  0  0  0  0  0  0  0  0  0
   10.0593  -16.1736   18.8915 N   0  0  0  0  0  0  0  0  0  0  0  0
    9.3766  -15.9720   21.2065 C   0  0  0  0  0  0  0  0  0  0  0  0
   10.5319  -15.8814   21.7054 O   0  0  0  0  0  0  0  0  0  0  0  0
    8.3114  -15.4023   21.9074 N   0  0  0  0  0  0  0  0  0  0  0  0
    8.4396  -14.7976   23.2315 C   0  0  1  0  0  0  0  0  0  0  0  0
    7.1195  -14.0443   23.4595 C   0  0  0  0  0  0  0  0  0  0  0  0
    7.0673  -13.4747   24.8169 C   0  0  0  0  0  0  0  0  0  0  0  0
    7.9971  -12.5157   25.2094 C   0  0  0  0  0  0  0  0  0  0  0  0
    7.9722  -11.9637   26.4773 C   0  0  0  0  0  0  0  0  0  0  0  0
    6.9985  -12.3858   27.3545 C   0  0  0  0  0  0  0  0  0  0  0  0
    6.0828  -13.3364   26.9544 C   0  0  0  0  0  0  0  0  0  0  0  0
    6.0874  -13.9015   25.6956 C   0  0  0  0  0  0  0  0  0  0  0  0
    8.6370  -15.8052   24.2798 C   0  0  0  0  0  0  0  0  0  0  0  0
    7.7424  -16.6643   24.4715 O   0  0  0  0  0  0  0  0  0  0  0  0
    9.7915  -15.8668   25.0987 N   0  0  0  0  0  0  0  0  0  0  0  0
   10.0722  -16.9382   26.0247 C   0  0  1  0  0  0  0  0  0  0  0  0
   11.5742  -17.2241   26.0345 C   0  0  0  0  0  0  0  0  0  0  0  0
   12.0778  -17.9666   24.4784 S   0  0  0  0  0  0  0  0  0  0  0  0
    9.6983  -16.5020   27.4030 C   0  0  0  0  0  0  0  0  0  0  0  0
    9.2482  -17.3375   28.2291 O   0  0  0  0  0  0  0  0  0  0  0  0
    9.8258  -15.1845   27.8311 O   0  0  0  0  0  0  0  0  0  0  0  0
  2  1  1  1
  3  2  1  0
  4  2  1  0
  4  6  1  0
  4  5  1  6
  6  7  2  0
  8  6  1  0
  8  9  1  0
  9 10  1  1
 10 11  1  0
 11 16  2  0
 12 11  1  0
 12 13  2  0
 13 14  1  0
 14 15  2  0
 16 15  1  0
 17  9  1  0
 17 18  2  0
 19 17  1  0
 20 19  1  0
 20 23  1  0
 20 21  1  1
 22 21  1  0
 23 25  1  0
 24 23  2  0
M  END
$$$$
