TFC.pdb
     RDKit          3D

 25 25  0  0  1  0  0  0  0  0999 V2000
   12.0055  -18.4624   21.7045 C   0  0  0  0  0  0  0  0  0  0  0  0
   10.5741  -18.5043   21.1988 C   0  0  1  0  0  0  0  0  0  0  0  0
    9.7324  -19.0370   22.1489 O   0  0  0  0  0  0  0  0  0  0  0  0
   10.1510  -17.0832   20.9098 C   0  0  2  0  0  0  0  0  0  0  0  0
   11.0660  -16.5388   19.9001 N   0  0  0  0  0  0  0  0  0  0  0  0
   10.1465  -16.2189   22.1178 C   0  0  0  0  0  0  0  0  0  0  0  0
   11.2094  -15.7709   22.6290 O   0  0  0  0  0  0  0  0  0  0  0  0
    8.9333  -15.8798   22.7209 N   0  0  0  0  0  0  0  0  0  0  0  0
    8.8231  -15.0339   23.9073 C   0  0  1  0  0  0  0  0  0  0  0  0
    7.3655  -14.5468   23.9202 C   0  0  0  0  0  0  0  0  0  0  0  0
    7.1154  -13.6687   25.0762 C   0  0  0  0  0  0  0  0  0  0  0  0
    6.3261  -14.1124   26.1338 C   0  0  0  0  0  0  0  0  0  0  0  0
    6.0743  -13.3098   27.2318 C   0  0  0  0  0  0  0  0  0  0  0  0
    6.6260  -12.0486   27.2592 C   0  0  0  0  0  0  0  0  0  0  0  0
    7.4062  -11.6201   26.2057 C   0  0  0  0  0  0  0  0  0  0  0  0
    7.6714  -12.4020   25.1001 C   0  0  0  0  0  0  0  0  0  0  0  0
    9.1229  -15.7723   25.1393 C   0  0  0  0  0  0  0  0  0  0  0  0
    8.5288  -16.8562   25.3566 O   0  0  0  0  0  0  0  0  0  0  0  0
   10.0545  -15.3292   26.1104 N   0  0  0  0  0  0  0  0  0  0  0  0
   10.4569  -16.1037   27.2603 C   0  0  1  0  0  0  0  0  0  0  0  0
   11.9803  -16.2326   27.2813 C   0  0  0  0  0  0  0  0  0  0  0  0
   12.5908  -16.6787   25.6519 S   0  0  0  0  0  0  0  0  0  0  0  0
   10.0599  -15.3753   28.5020 C   0  0  0  0  0  0  0  0  0  0  0  0
    9.5306  -14.2365   28.4238 O   0  0  0  0  0  0  0  0  0  0  0  0
   10.2506  -15.9057   29.7738 O   0  0  0  0  0  0  0  0  0  0  0  0
  2  1  1  1
  3  2  1  0
  4  2  1  0
  4  6  1  0
  4  5  1  6
  6  7  2  0
  8  6  1  0
  8  9  1  0
  9 10  1  1
 10 11  1  0
 11 16  2  0
 12 11  1  0
 12 13  2  0
 13 14  1  0
 14 15  2  0
 16 15  1  0
 17  9  1  0
 17 18  2  0
 19 17  1  0
 20 19  1  0
 20 23  1  0
 20 21  1  1
 22 21  1  0
 23 25  1  0
 24 23  2  0
M  END
$$$$
