TFC.pdb
     RDKit          3D

 25 25  0  0  1  0  0  0  0  0999 V2000
    9.8875  -20.1169   20.9727 C   0  0  0  0  0  0  0  0  0  0  0  0
   10.0395  -18.9525   21.9357 C   0  0  1  0  0  0  0  0  0  0  0  0
   11.3239  -18.8848   22.4264 O   0  0  0  0  0  0  0  0  0  0  0  0
    9.7393  -17.6854   21.1700 C   0  0  2  0  0  0  0  0  0  0  0  0
   10.7002  -17.5901   20.0652 N   0  0  0  0  0  0  0  0  0  0  0  0
    9.8047  -16.4648   22.0139 C   0  0  0  0  0  0  0  0  0  0  0  0
   10.8516  -15.7669   22.1085 O   0  0  0  0  0  0  0  0  0  0  0  0
    8.6780  -16.0605   22.7335 N   0  0  0  0  0  0  0  0  0  0  0  0
    8.6555  -14.9053   23.6281 C   0  0  1  0  0  0  0  0  0  0  0  0
    7.2482  -14.9019   24.2456 C   0  0  0  0  0  0  0  0  0  0  0  0
    7.0308  -13.6877   25.0507 C   0  0  0  0  0  0  0  0  0  0  0  0
    7.6355  -12.4882   24.6849 C   0  0  0  0  0  0  0  0  0  0  0  0
    7.4492  -11.3326   25.4218 C   0  0  0  0  0  0  0  0  0  0  0  0
    6.6446  -11.3920   26.5375 C   0  0  0  0  0  0  0  0  0  0  0  0
    6.0509  -12.5859   26.8901 C   0  0  0  0  0  0  0  0  0  0  0  0
    6.2216  -13.7513   26.1712 C   0  0  0  0  0  0  0  0  0  0  0  0
    9.6722  -15.0053   24.6815 C   0  0  0  0  0  0  0  0  0  0  0  0
   10.5744  -14.1348   24.7382 O   0  0  0  0  0  0  0  0  0  0  0  0
    9.6963  -16.0387   25.6503 N   0  0  0  0  0  0  0  0  0  0  0  0
   10.4103  -15.9593   26.9026 C   0  0  1  0  0  0  0  0  0  0  0  0
    9.7292  -14.9384   27.8147 C   0  0  0  0  0  0  0  0  0  0  0  0
   10.8265  -14.4731   29.1585 S   0  0  0  0  0  0  0  0  0  0  0  0
   10.3365  -17.2824   27.5908 C   0  0  0  0  0  0  0  0  0  0  0  0
   11.3108  -17.6948   28.2718 O   0  0  0  0  0  0  0  0  0  0  0  0
    9.2161  -18.1035   27.5153 O   0  0  0  0  0  0  0  0  0  0  0  0
  2  1  1  6
  3  2  1  0
  4  2  1  0
  4  6  1  0
  4  5  1  6
  6  7  2  0
  8  6  1  0
  8  9  1  0
  9 10  1  1
 10 11  1  0
 11 16  2  0
 12 11  1  0
 12 13  2  0
 13 14  1  0
 14 15  2  0
 16 15  1  0
 17  9  1  0
 17 18  2  0
 19 17  1  0
 20 19  1  0
 20 23  1  0
 20 21  1  1
 22 21  1  0
 23 25  1  0
 24 23  2  0
M  END
$$$$
