TFC.pdb
     RDKit          3D

 25 25  0  0  1  0  0  0  0  0999 V2000
    6.3624  -19.6867   20.2372 C   0  0  0  0  0  0  0  0  0  0  0  0
    7.2208  -18.8888   21.2029 C   0  0  1  0  0  0  0  0  0  0  0  0
    8.5593  -19.0793   20.9436 O   0  0  0  0  0  0  0  0  0  0  0  0
    6.8867  -17.4283   21.0103 C   0  0  2  0  0  0  0  0  0  0  0  0
    7.2016  -17.0751   19.6214 N   0  0  0  0  0  0  0  0  0  0  0  0
    7.6171  -16.5347   21.9454 C   0  0  0  0  0  0  0  0  0  0  0  0
    8.6507  -15.8989   21.6000 O   0  0  0  0  0  0  0  0  0  0  0  0
    7.1576  -16.3805   23.2552 N   0  0  0  0  0  0  0  0  0  0  0  0
    7.8449  -15.5848   24.2700 C   0  0  1  0  0  0  0  0  0  0  0  0
    6.7739  -15.2666   25.3254 C   0  0  0  0  0  0  0  0  0  0  0  0
    7.3029  -14.3512   26.3511 C   0  0  0  0  0  0  0  0  0  0  0  0
    7.2122  -12.9735   26.1728 C   0  0  0  0  0  0  0  0  0  0  0  0
    7.7001  -12.0903   27.1189 C   0  0  0  0  0  0  0  0  0  0  0  0
    8.2841  -12.6061   28.2541 C   0  0  0  0  0  0  0  0  0  0  0  0
    8.3683  -13.9728   28.4196 C   0  0  0  0  0  0  0  0  0  0  0  0
    7.8891  -14.8733   27.4905 C   0  0  0  0  0  0  0  0  0  0  0  0
    8.9593  -16.3173   24.8820 C   0  0  0  0  0  0  0  0  0  0  0  0
    8.7549  -17.4739   25.3242 O   0  0  0  0  0  0  0  0  0  0  0  0
   10.2687  -15.7903   25.0050 N   0  0  0  0  0  0  0  0  0  0  0  0
   11.4261  -16.5720   25.3703 C   0  0  1  0  0  0  0  0  0  0  0  0
   12.6590  -16.0264   24.6492 C   0  0  0  0  0  0  0  0  0  0  0  0
   12.3492  -15.9128   22.8835 S   0  0  0  0  0  0  0  0  0  0  0  0
   11.6720  -16.4237   26.8357 C   0  0  0  0  0  0  0  0  0  0  0  0
   12.6319  -17.0291   27.3790 O   0  0  0  0  0  0  0  0  0  0  0  0
   10.8729  -15.6296   27.6518 O   0  0  0  0  0  0  0  0  0  0  0  0
  2  1  1  6
  3  2  1  0
  4  2  1  0
  4  6  1  0
  4  5  1  6
  6  7  2  0
  8  6  1  0
  8  9  1  0
  9 10  1  1
 10 11  1  0
 11 16  2  0
 12 11  1  0
 12 13  2  0
 13 14  1  0
 14 15  2  0
 16 15  1  0
 17  9  1  0
 17 18  2  0
 19 17  1  0
 20 19  1  0
 20 23  1  0
 20 21  1  6
 22 21  1  0
 23 25  1  0
 24 23  2  0
M  END
$$$$
