TFC.pdb
     RDKit          3D

 25 25  0  0  1  0  0  0  0  0999 V2000
    7.3651  -16.6965   19.5590 C   0  0  0  0  0  0  0  0  0  0  0  0
    8.2120  -15.6849   18.8070 C   0  0  1  0  0  0  0  0  0  0  0  0
    7.9038  -15.6860   17.4654 O   0  0  0  0  0  0  0  0  0  0  0  0
    7.9078  -14.3204   19.3792 C   0  0  2  0  0  0  0  0  0  0  0  0
    8.5290  -13.3185   18.5055 N   0  0  0  0  0  0  0  0  0  0  0  0
    8.3882  -14.1530   20.7748 C   0  0  0  0  0  0  0  0  0  0  0  0
    9.6122  -14.0314   21.0555 O   0  0  0  0  0  0  0  0  0  0  0  0
    7.4673  -14.1260   21.8245 N   0  0  0  0  0  0  0  0  0  0  0  0
    7.8422  -14.0232   23.2331 C   0  0  1  0  0  0  0  0  0  0  0  0
    6.6740  -13.2870   23.9077 C   0  0  0  0  0  0  0  0  0  0  0  0
    6.9636  -13.0340   25.3297 C   0  0  0  0  0  0  0  0  0  0  0  0
    8.2097  -13.3592   25.8584 C   0  0  0  0  0  0  0  0  0  0  0  0
    8.5095  -13.1329   27.1896 C   0  0  0  0  0  0  0  0  0  0  0  0
    7.5403  -12.5730   27.9914 C   0  0  0  0  0  0  0  0  0  0  0  0
    6.3095  -12.2549   27.4563 C   0  0  0  0  0  0  0  0  0  0  0  0
    5.9870  -12.4711   26.1322 C   0  0  0  0  0  0  0  0  0  0  0  0
    8.0355  -15.3411   23.8487 C   0  0  0  0  0  0  0  0  0  0  0  0
    7.1083  -16.1841   23.7807 O   0  0  0  0  0  0  0  0  0  0  0  0
    9.2210  -15.7234   24.5236 N   0  0  0  0  0  0  0  0  0  0  0  0
    9.4628  -17.0451   25.0517 C   0  0  1  0  0  0  0  0  0  0  0  0
   10.2420  -17.8697   24.0267 C   0  0  0  0  0  0  0  0  0  0  0  0
   11.7070  -16.9778   23.4928 S   0  0  0  0  0  0  0  0  0  0  0  0
   10.3192  -16.9343   26.2700 C   0  0  0  0  0  0  0  0  0  0  0  0
   10.8099  -15.8229   26.5975 O   0  0  0  0  0  0  0  0  0  0  0  0
   10.6096  -18.0257   27.0821 O   0  0  0  0  0  0  0  0  0  0  0  0
  2  1  1  1
  3  2  1  0
  4  2  1  0
  4  6  1  0
  4  5  1  6
  6  7  2  0
  8  6  1  0
  8  9  1  0
  9 10  1  1
 10 11  1  0
 11 16  2  0
 12 11  1  0
 12 13  2  0
 13 14  1  0
 14 15  2  0
 16 15  1  0
 17  9  1  0
 17 18  2  0
 19 17  1  0
 20 19  1  0
 20 23  1  0
 20 21  1  6
 22 21  1  0
 23 25  1  0
 24 23  2  0
M  END
$$$$
