TFC.pdb
     RDKit          3D

 25 25  0  0  1  0  0  0  0  0999 V2000
    7.8390  -18.1559   18.5014 C   0  0  0  0  0  0  0  0  0  0  0  0
    8.1622  -17.7360   19.9246 C   0  0  1  0  0  0  0  0  0  0  0  0
    9.0385  -18.6208   20.5112 O   0  0  0  0  0  0  0  0  0  0  0  0
    8.8099  -16.3727   19.8618 C   0  0  2  0  0  0  0  0  0  0  0  0
   10.0295  -16.4918   19.0547 N   0  0  0  0  0  0  0  0  0  0  0  0
    9.1330  -15.8183   21.2014 C   0  0  0  0  0  0  0  0  0  0  0  0
   10.2840  -15.9129   21.7095 O   0  0  0  0  0  0  0  0  0  0  0  0
    8.1412  -15.1661   21.9373 N   0  0  0  0  0  0  0  0  0  0  0  0
    8.3266  -14.6852   23.3047 C   0  0  1  0  0  0  0  0  0  0  0  0
    7.1111  -13.7870   23.5836 C   0  0  0  0  0  0  0  0  0  0  0  0
    7.1589  -13.2491   24.9541 C   0  0  0  0  0  0  0  0  0  0  0  0
    8.1012  -12.2821   25.2935 C   0  0  0  0  0  0  0  0  0  0  0  0
    8.1693  -11.7591   26.5722 C   0  0  0  0  0  0  0  0  0  0  0  0
    7.2765  -12.2188   27.5142 C   0  0  0  0  0  0  0  0  0  0  0  0
    6.3476  -13.1770   27.1663 C   0  0  0  0  0  0  0  0  0  0  0  0
    6.2602  -13.7135   25.8980 C   0  0  0  0  0  0  0  0  0  0  0  0
    8.3773  -15.7864   24.2731 C   0  0  0  0  0  0  0  0  0  0  0  0
    7.4062  -16.5784   24.3425 O   0  0  0  0  0  0  0  0  0  0  0  0
    9.4707  -16.0118   25.1454 N   0  0  0  0  0  0  0  0  0  0  0  0
    9.5390  -17.0960   26.0962 C   0  0  1  0  0  0  0  0  0  0  0  0
   10.6071  -18.0966   25.6536 C   0  0  0  0  0  0  0  0  0  0  0  0
   10.2751  -18.6645   23.9821 S   0  0  0  0  0  0  0  0  0  0  0  0
    9.9644  -16.5560   27.4219 C   0  0  0  0  0  0  0  0  0  0  0  0
   10.2546  -15.3378   27.5434 O   0  0  0  0  0  0  0  0  0  0  0  0
   10.0585  -17.3523   28.5587 O   0  0  0  0  0  0  0  0  0  0  0  0
  2  1  1  6
  3  2  1  0
  4  2  1  0
  4  6  1  0
  4  5  1  6
  6  7  2  0
  8  6  1  0
  8  9  1  0
  9 10  1  1
 10 11  1  0
 11 16  2  0
 12 11  1  0
 12 13  2  0
 13 14  1  0
 14 15  2  0
 16 15  1  0
 17  9  1  0
 17 18  2  0
 19 17  1  0
 20 19  1  0
 20 23  1  0
 20 21  1  6
 22 21  1  0
 23 25  1  0
 24 23  2  0
M  END
$$$$
