LRG.pdb
     RDKit          3D

 24 23  0  0  1  0  0  0  0  0999 V2000
    6.5333  -12.6237   19.5703 C   0  0  0  0  0  0  0  0  0  0  0  0
    7.7559  -13.3574   19.9963 C   0  0  1  0  0  0  0  0  0  0  0  0
    8.9635  -12.4626   19.8398 C   0  0  0  0  0  0  0  0  0  0  0  0
    7.7052  -14.0128   21.3296 C   0  0  0  0  0  0  0  0  0  0  0  0
    8.9419  -14.7280   21.7687 C   0  0  2  0  0  0  0  0  0  0  0  0
    9.2580  -15.8331   20.8758 N   0  0  0  0  0  0  0  0  0  0  0  0
    8.5895  -15.3590   23.0960 C   0  0  0  0  0  0  0  0  0  0  0  0
    8.1624  -14.6519   24.0496 O   0  0  0  0  0  0  0  0  0  0  0  0
    5.1515  -23.1422   23.5084 N   0  0  0  0  0  0  0  0  0  0  0  0
    4.5406  -22.0301   22.8819 C   0  0  0  0  0  0  0  0  0  0  0  0
    3.4436  -22.2422   22.2241 N   0  0  0  0  0  0  0  0  0  0  0  0
    5.1002  -20.7202   22.9647 N   0  0  0  0  0  0  0  0  0  0  0  0
    6.3225  -20.4804   23.7158 C   0  0  0  0  0  0  0  0  0  0  0  0
    6.6845  -19.0343   23.7544 C   0  0  0  0  0  0  0  0  0  0  0  0
    7.9043  -18.7317   24.5505 C   0  0  0  0  0  0  0  0  0  0  0  0
    8.4159  -17.3474   24.5637 C   0  0  2  0  0  0  0  0  0  0  0  0
    8.7364  -16.7614   23.2853 N   0  0  0  0  0  0  0  0  0  0  0  0
    9.6855  -17.3610   25.3592 C   0  0  0  0  0  0  0  0  0  0  0  0
   10.7363  -16.9717   24.8325 O   0  0  0  0  0  0  0  0  0  0  0  0
    2.9699  -21.4877   21.7213 N   0  0  0  0  0  0  0  0  0  0  0  0
    9.6601  -17.8116   26.6832 C   0  0  0  0  0  0  0  0  0  0  0  0
   10.8249  -17.8298   27.5469 C   0  0  0  0  0  0  0  0  0  0  0  0
   10.5530  -18.3836   28.8685 O   0  0  0  0  0  0  0  0  0  0  0  0
    9.4432  -18.8895   29.1443 O   0  0  0  0  0  0  0  0  0  0  0  0
  2  1  1  1
  2  3  1  0
  4  2  1  0
  4  5  1  0
  5  6  1  6
  7  5  1  0
  7  8  2  0
 10  9  1  0
 11 10  2  0
 12 10  1  0
 13 14  1  0
 13 12  1  0
 14 15  1  0
 16 15  1  6
 16 17  1  0
 17  7  1  0
 18 16  1  0
 19 18  2  0
 20 18  1  0
 21 20  1  0
 22 24  1  0
 22 21  1  0
 23 22  2  0
M  END
$$$$
