LRG.pdb
     RDKit          3D

 24 23  0  0  1  0  0  0  0  0999 V2000
    5.9051  -11.4693   26.2104 C   0  0  0  0  0  0  0  0  0  0  0  0
    6.8859  -12.5695   26.4153 C   0  0  1  0  0  0  0  0  0  0  0  0
    7.5803  -12.3875   27.7451 C   0  0  0  0  0  0  0  0  0  0  0  0
    6.3785  -13.9540   26.2257 C   0  0  0  0  0  0  0  0  0  0  0  0
    7.3679  -15.0584   26.4138 C   0  0  2  0  0  0  0  0  0  0  0  0
    8.7135  -14.5359   26.5998 N   0  0  0  0  0  0  0  0  0  0  0  0
    7.3930  -15.8015   25.0980 C   0  0  0  0  0  0  0  0  0  0  0  0
    6.3865  -16.4569   24.7116 O   0  0  0  0  0  0  0  0  0  0  0  0
    8.8986  -13.7720   18.0765 N   0  0  0  0  0  0  0  0  0  0  0  0
    8.4180  -12.9373   19.1131 C   0  0  0  0  0  0  0  0  0  0  0  0
    8.8718  -11.7237   19.1629 N   0  0  0  0  0  0  0  0  0  0  0  0
    7.4693  -13.4016   20.0725 N   0  0  0  0  0  0  0  0  0  0  0  0
    7.0274  -14.7873   20.0700 C   0  0  0  0  0  0  0  0  0  0  0  0
    7.0987  -15.4029   21.4264 C   0  0  0  0  0  0  0  0  0  0  0  0
    8.4493  -15.9028   21.7992 C   0  0  0  0  0  0  0  0  0  0  0  0
    8.6171  -16.5912   23.0940 C   0  0  2  0  0  0  0  0  0  0  0  0
    8.5555  -15.7703   24.2785 N   0  0  0  0  0  0  0  0  0  0  0  0
    9.9768  -17.2202   23.0787 C   0  0  0  0  0  0  0  0  0  0  0  0
   10.2232  -18.1140   22.2580 O   0  0  0  0  0  0  0  0  0  0  0  0
    8.5810  -11.0763   19.8996 N   0  0  0  0  0  0  0  0  0  0  0  0
   10.9438  -16.7848   23.9908 C   0  0  0  0  0  0  0  0  0  0  0  0
   12.3018  -17.2926   24.0237 C   0  0  0  0  0  0  0  0  0  0  0  0
   13.1721  -16.6738   23.0302 O   0  0  0  0  0  0  0  0  0  0  0  0
   14.4078  -16.8645   23.0413 O   0  0  0  0  0  0  0  0  0  0  0  0
  2  1  1  1
  2  3  1  0
  4  2  1  0
  4  5  1  0
  5  6  1  6
  7  5  1  0
  7  8  2  0
 10  9  1  0
 11 10  2  0
 12 10  1  0
 13 14  1  0
 13 12  1  0
 14 15  1  0
 16 15  1  6
 16 17  1  0
 17  7  1  0
 18 16  1  0
 19 18  2  0
 20 18  1  0
 21 20  1  0
 22 24  1  0
 22 21  1  0
 23 22  2  0
M  END
$$$$
