LRG.pdb
     RDKit          3D

 24 23  0  0  1  0  0  0  0  0999 V2000
    7.6056  -11.8616   25.7141 C   0  0  0  0  0  0  0  0  0  0  0  0
    6.6700  -12.7123   26.4986 C   0  0  1  0  0  0  0  0  0  0  0  0
    5.6626  -11.8367   27.2070 C   0  0  0  0  0  0  0  0  0  0  0  0
    6.0288  -13.8387   25.7704 C   0  0  0  0  0  0  0  0  0  0  0  0
    6.6883  -15.1743   25.8943 C   0  0  2  0  0  0  0  0  0  0  0  0
    7.8914  -15.0956   26.7095 N   0  0  0  0  0  0  0  0  0  0  0  0
    7.1577  -15.5197   24.4999 C   0  0  0  0  0  0  0  0  0  0  0  0
    6.3261  -15.6915   23.5667 O   0  0  0  0  0  0  0  0  0  0  0  0
    7.1648  -12.4550   17.3850 N   0  0  0  0  0  0  0  0  0  0  0  0
    7.6846  -13.7620   17.2302 C   0  0  0  0  0  0  0  0  0  0  0  0
    7.5628  -14.3203   16.0663 N   0  0  0  0  0  0  0  0  0  0  0  0
    8.3219  -14.4493   18.3061 N   0  0  0  0  0  0  0  0  0  0  0  0
    8.4421  -13.8293   19.6164 C   0  0  0  0  0  0  0  0  0  0  0  0
    9.2211  -14.6725   20.5682 C   0  0  0  0  0  0  0  0  0  0  0  0
    8.7303  -14.6207   21.9716 C   0  0  0  0  0  0  0  0  0  0  0  0
    8.9955  -15.7711   22.8575 C   0  0  2  0  0  0  0  0  0  0  0  0
    8.5467  -15.6556   24.2235 N   0  0  0  0  0  0  0  0  0  0  0  0
   10.4826  -15.9464   22.9085 C   0  0  0  0  0  0  0  0  0  0  0  0
   11.1382  -15.8794   21.8602 O   0  0  0  0  0  0  0  0  0  0  0  0
    7.9284  -15.2583   15.8848 N   0  0  0  0  0  0  0  0  0  0  0  0
   11.1035  -16.1807   24.1398 C   0  0  0  0  0  0  0  0  0  0  0  0
   11.4861  -17.4991   24.6072 C   0  0  0  0  0  0  0  0  0  0  0  0
   12.5836  -18.0840   23.8452 O   0  0  0  0  0  0  0  0  0  0  0  0
   12.4776  -18.3031   22.6187 O   0  0  0  0  0  0  0  0  0  0  0  0
  2  1  1  6
  2  3  1  0
  4  2  1  0
  4  5  1  0
  5  6  1  1
  7  5  1  0
  7  8  2  0
 10  9  1  0
 11 10  2  0
 12 10  1  0
 13 14  1  0
 13 12  1  0
 14 15  1  0
 16 15  1  6
 16 17  1  0
 17  7  1  0
 18 16  1  0
 19 18  2  0
 20 18  1  0
 21 20  1  0
 22 24  1  0
 22 21  1  0
 23 22  2  0
M  END
$$$$
