LRG.pdb
     RDKit          3D

 24 23  0  0  1  0  0  0  0  0999 V2000
    8.0185  -12.0965   27.7944 C   0  0  0  0  0  0  0  0  0  0  0  0
    7.1372  -13.2309   27.4059 C   0  0  1  0  0  0  0  0  0  0  0  0
    6.0001  -12.7193   26.5524 C   0  0  0  0  0  0  0  0  0  0  0  0
    7.8066  -14.4157   26.8072 C   0  0  0  0  0  0  0  0  0  0  0  0
    6.9159  -15.4376   26.1777 C   0  0  2  0  0  0  0  0  0  0  0  0
    6.9550  -16.6950   26.9097 N   0  0  0  0  0  0  0  0  0  0  0  0
    7.5311  -15.7277   24.8280 C   0  0  0  0  0  0  0  0  0  0  0  0
    8.4402  -16.5945   24.7099 O   0  0  0  0  0  0  0  0  0  0  0  0
    8.2993  -12.8610   17.3823 N   0  0  0  0  0  0  0  0  0  0  0  0
    8.6416  -14.1927   17.0482 C   0  0  0  0  0  0  0  0  0  0  0  0
    9.5364  -14.3671   16.1262 N   0  0  0  0  0  0  0  0  0  0  0  0
    8.0329  -15.3096   17.6949 N   0  0  0  0  0  0  0  0  0  0  0  0
    7.2612  -15.1319   18.9149 C   0  0  0  0  0  0  0  0  0  0  0  0
    8.0549  -14.4726   19.9915 C   0  0  0  0  0  0  0  0  0  0  0  0
    7.3415  -14.3572   21.2919 C   0  0  0  0  0  0  0  0  0  0  0  0
    7.7945  -15.1883   22.4243 C   0  0  2  0  0  0  0  0  0  0  0  0
    7.0906  -15.0241   23.6726 N   0  0  0  0  0  0  0  0  0  0  0  0
    9.2236  -14.8230   22.6869 C   0  0  0  0  0  0  0  0  0  0  0  0
    9.4798  -13.7926   23.3239 O   0  0  0  0  0  0  0  0  0  0  0  0
    9.8713  -15.3015   15.8791 N   0  0  0  0  0  0  0  0  0  0  0  0
   10.2425  -15.6539   22.2092 C   0  0  0  0  0  0  0  0  0  0  0  0
   11.6450  -15.2851   22.2101 C   0  0  0  0  0  0  0  0  0  0  0  0
   12.5062  -16.2952   21.6057 O   0  0  0  0  0  0  0  0  0  0  0  0
   12.0267  -17.2830   21.0075 O   0  0  0  0  0  0  0  0  0  0  0  0
  2  1  1  6
  2  3  1  0
  4  2  1  0
  4  5  1  0
  5  6  1  1
  7  5  1  0
  7  8  2  0
 10  9  1  0
 11 10  2  0
 12 10  1  0
 13 14  1  0
 13 12  1  0
 14 15  1  0
 16 15  1  6
 16 17  1  0
 17  7  1  0
 18 16  1  0
 19 18  2  0
 20 18  1  0
 21 20  1  0
 22 24  1  0
 22 21  1  0
 23 22  2  0
M  END
$$$$
