LRG.pdb
     RDKit          3D

 24 23  0  0  1  0  0  0  0  0999 V2000
    7.5478  -11.9632   25.9651 C   0  0  0  0  0  0  0  0  0  0  0  0
    6.7145  -12.8188   26.8528 C   0  0  1  0  0  0  0  0  0  0  0  0
    5.5894  -11.9968   27.4376 C   0  0  0  0  0  0  0  0  0  0  0  0
    6.2377  -14.1042   26.2780 C   0  0  0  0  0  0  0  0  0  0  0  0
    7.2588  -15.1844   26.1217 C   0  0  2  0  0  0  0  0  0  0  0  0
    8.5758  -14.7312   26.5445 N   0  0  0  0  0  0  0  0  0  0  0  0
    7.3640  -15.4233   24.6331 C   0  0  0  0  0  0  0  0  0  0  0  0
    6.4445  -16.0248   24.0130 O   0  0  0  0  0  0  0  0  0  0  0  0
    8.1267  -12.6302   17.3194 N   0  0  0  0  0  0  0  0  0  0  0  0
    8.1922  -14.0180   17.0512 C   0  0  0  0  0  0  0  0  0  0  0  0
    8.7029  -14.3847   15.9172 N   0  0  0  0  0  0  0  0  0  0  0  0
    7.7188  -14.9869   17.9856 N   0  0  0  0  0  0  0  0  0  0  0  0
    7.3669  -14.6003   19.3429 C   0  0  0  0  0  0  0  0  0  0  0  0
    8.5634  -14.2193   20.1473 C   0  0  0  0  0  0  0  0  0  0  0  0
    8.2985  -14.0755   21.6041 C   0  0  0  0  0  0  0  0  0  0  0  0
    8.5963  -15.2148   22.4939 C   0  0  2  0  0  0  0  0  0  0  0  0
    8.5047  -14.9717   23.9128 N   0  0  0  0  0  0  0  0  0  0  0  0
   10.0117  -15.6220   22.2194 C   0  0  0  0  0  0  0  0  0  0  0  0
   10.9391  -14.9534   22.6949 O   0  0  0  0  0  0  0  0  0  0  0  0
    8.8168  -15.3730   15.6792 N   0  0  0  0  0  0  0  0  0  0  0  0
   10.2597  -16.7514   21.4323 C   0  0  0  0  0  0  0  0  0  0  0  0
   11.5849  -17.1549   21.0030 C   0  0  0  0  0  0  0  0  0  0  0  0
   12.1660  -18.2017   21.8360 O   0  0  0  0  0  0  0  0  0  0  0  0
   11.5337  -18.6922   22.7968 O   0  0  0  0  0  0  0  0  0  0  0  0
  2  1  1  6
  2  3  1  0
  4  2  1  0
  4  5  1  0
  5  6  1  6
  7  5  1  0
  7  8  2  0
 10  9  1  0
 11 10  2  0
 12 10  1  0
 13 14  1  0
 13 12  1  0
 14 15  1  0
 16 15  1  6
 16 17  1  0
 17  7  1  0
 18 16  1  0
 19 18  2  0
 20 18  1  0
 21 20  1  0
 22 24  1  0
 22 21  1  0
 23 22  2  0
M  END
$$$$
