LRG.pdb
     RDKit          3D

 24 23  0  0  1  0  0  0  0  0999 V2000
   10.6509  -14.1687   29.3413 C   0  0  0  0  0  0  0  0  0  0  0  0
    9.5814  -14.9124   28.6220 C   0  0  1  0  0  0  0  0  0  0  0  0
    8.5855  -13.9340   28.0438 C   0  0  0  0  0  0  0  0  0  0  0  0
   10.0299  -15.9201   27.6252 C   0  0  0  0  0  0  0  0  0  0  0  0
    8.9694  -16.7927   27.0355 C   0  0  2  0  0  0  0  0  0  0  0  0
    9.1448  -18.1809   27.4360 N   0  0  0  0  0  0  0  0  0  0  0  0
    9.2090  -16.7612   25.5436 C   0  0  0  0  0  0  0  0  0  0  0  0
    9.9535  -17.6194   24.9948 O   0  0  0  0  0  0  0  0  0  0  0  0
    8.2329  -15.3562   18.0100 N   0  0  0  0  0  0  0  0  0  0  0  0
    8.0565  -13.9560   18.1127 C   0  0  0  0  0  0  0  0  0  0  0  0
    8.4317  -13.2303   17.1058 N   0  0  0  0  0  0  0  0  0  0  0  0
    7.4876  -13.3538   19.2744 N   0  0  0  0  0  0  0  0  0  0  0  0
    6.9086  -14.1725   20.3280 C   0  0  0  0  0  0  0  0  0  0  0  0
    7.9357  -14.9948   21.0299 C   0  0  0  0  0  0  0  0  0  0  0  0
    7.8412  -14.9523   22.5140 C   0  0  0  0  0  0  0  0  0  0  0  0
    8.7541  -15.7993   23.3062 C   0  0  2  0  0  0  0  0  0  0  0  0
    8.5962  -15.7603   24.7394 N   0  0  0  0  0  0  0  0  0  0  0  0
   10.1462  -15.3280   23.0155 C   0  0  0  0  0  0  0  0  0  0  0  0
   10.6019  -14.3596   23.6382 O   0  0  0  0  0  0  0  0  0  0  0  0
    8.4264  -12.2086   17.1545 N   0  0  0  0  0  0  0  0  0  0  0  0
   10.9065  -15.9918   22.0471 C   0  0  0  0  0  0  0  0  0  0  0  0
   12.2751  -15.6396   21.7214 C   0  0  0  0  0  0  0  0  0  0  0  0
   12.8405  -16.4548   20.6523 O   0  0  0  0  0  0  0  0  0  0  0  0
   12.2114  -17.4232   20.1728 O   0  0  0  0  0  0  0  0  0  0  0  0
  2  1  1  6
  2  3  1  0
  4  2  1  0
  4  5  1  0
  5  6  1  1
  7  5  1  0
  7  8  2  0
 10  9  1  0
 11 10  2  0
 12 10  1  0
 13 14  1  0
 13 12  1  0
 14 15  1  0
 16 15  1  6
 16 17  1  0
 17  7  1  0
 18 16  1  0
 19 18  2  0
 20 18  1  0
 21 20  1  0
 22 24  1  0
 22 21  1  0
 23 22  2  0
M  END
$$$$
