LRG.pdb
     RDKit          3D

 24 23  0  0  1  0  0  0  0  0999 V2000
   11.4643  -13.8784   29.0518 C   0  0  0  0  0  0  0  0  0  0  0  0
   10.3832  -14.7895   28.5875 C   0  0  1  0  0  0  0  0  0  0  0  0
    9.1049  -14.0053   28.4026 C   0  0  0  0  0  0  0  0  0  0  0  0
   10.6970  -15.6468   27.4141 C   0  0  0  0  0  0  0  0  0  0  0  0
    9.6331  -16.6046   26.9844 C   0  0  2  0  0  0  0  0  0  0  0  0
    9.7923  -17.8971   27.6345 N   0  0  0  0  0  0  0  0  0  0  0  0
    9.8848  -16.8493   25.5145 C   0  0  0  0  0  0  0  0  0  0  0  0
   10.6422  -17.7864   25.1402 O   0  0  0  0  0  0  0  0  0  0  0  0
    8.5471  -14.3170   17.9023 N   0  0  0  0  0  0  0  0  0  0  0  0
    8.1681  -13.1682   18.6364 C   0  0  0  0  0  0  0  0  0  0  0  0
    8.5985  -12.0201   18.2150 N   0  0  0  0  0  0  0  0  0  0  0  0
    7.3429  -13.2569   19.7971 N   0  0  0  0  0  0  0  0  0  0  0  0
    7.2650  -14.4924   20.5608 C   0  0  0  0  0  0  0  0  0  0  0  0
    8.4474  -14.6796   21.4499 C   0  0  0  0  0  0  0  0  0  0  0  0
    8.4595  -15.9731   22.1847 C   0  0  0  0  0  0  0  0  0  0  0  0
    9.5564  -16.2366   23.1365 C   0  0  2  0  0  0  0  0  0  0  0  0
    9.2688  -16.0230   24.5337 N   0  0  0  0  0  0  0  0  0  0  0  0
   10.6734  -15.3035   22.7813 C   0  0  0  0  0  0  0  0  0  0  0  0
   10.6702  -14.1517   23.2359 O   0  0  0  0  0  0  0  0  0  0  0  0
    8.3414  -11.1494   18.6863 N   0  0  0  0  0  0  0  0  0  0  0  0
   11.7006  -15.7511   21.9440 C   0  0  0  0  0  0  0  0  0  0  0  0
   12.8277  -14.9294   21.5474 C   0  0  0  0  0  0  0  0  0  0  0  0
   13.8027  -15.6445   20.7317 O   0  0  0  0  0  0  0  0  0  0  0  0
   14.8363  -15.0798   20.3119 O   0  0  0  0  0  0  0  0  0  0  0  0
  2  1  1  6
  2  3  1  0
  4  2  1  0
  4  5  1  0
  5  6  1  1
  7  5  1  0
  7  8  2  0
 10  9  1  0
 11 10  2  0
 12 10  1  0
 13 14  1  0
 13 12  1  0
 14 15  1  0
 16 15  1  6
 16 17  1  0
 17  7  1  0
 18 16  1  0
 19 18  2  0
 20 18  1  0
 21 20  1  0
 22 24  1  0
 22 21  1  0
 23 22  2  0
M  END
$$$$
