LRG.pdb
     RDKit          3D

 24 23  0  0  1  0  0  0  0  0999 V2000
    7.5098  -11.9413   27.6783 C   0  0  0  0  0  0  0  0  0  0  0  0
    7.2272  -12.5937   26.3710 C   0  0  1  0  0  0  0  0  0  0  0  0
    7.3228  -11.5702   25.2634 C   0  0  0  0  0  0  0  0  0  0  0  0
    7.9943  -13.8304   26.0676 C   0  0  0  0  0  0  0  0  0  0  0  0
    7.5721  -14.5965   24.8557 C   0  0  2  0  0  0  0  0  0  0  0  0
    6.1608  -14.9469   24.9175 N   0  0  0  0  0  0  0  0  0  0  0  0
    8.3247  -15.9052   24.9272 C   0  0  0  0  0  0  0  0  0  0  0  0
    7.9116  -16.8440   25.6619 O   0  0  0  0  0  0  0  0  0  0  0  0
    8.9643  -20.2987   19.4830 N   0  0  0  0  0  0  0  0  0  0  0  0
    8.4457  -19.1060   18.9255 C   0  0  0  0  0  0  0  0  0  0  0  0
    7.6625  -19.2170   17.8981 N   0  0  0  0  0  0  0  0  0  0  0  0
    8.7642  -17.8240   19.4651 N   0  0  0  0  0  0  0  0  0  0  0  0
    9.8392  -17.6715   20.4330 C   0  0  0  0  0  0  0  0  0  0  0  0
    9.4149  -18.0557   21.8100 C   0  0  0  0  0  0  0  0  0  0  0  0
   10.4904  -17.9480   22.8321 C   0  0  0  0  0  0  0  0  0  0  0  0
   10.1569  -17.3830   24.1542 C   0  0  2  0  0  0  0  0  0  0  0  0
    9.5112  -16.0932   24.1649 N   0  0  0  0  0  0  0  0  0  0  0  0
   11.4485  -17.2217   24.8961 C   0  0  0  0  0  0  0  0  0  0  0  0
   11.5318  -17.6228   26.0646 O   0  0  0  0  0  0  0  0  0  0  0  0
    7.2501  -18.3942   17.4516 N   0  0  0  0  0  0  0  0  0  0  0  0
   12.5375  -16.6225   24.2545 C   0  0  0  0  0  0  0  0  0  0  0  0
   13.4531  -15.7101   24.9118 C   0  0  0  0  0  0  0  0  0  0  0  0
   14.4796  -15.1827   24.0199 O   0  0  0  0  0  0  0  0  0  0  0  0
   14.2233  -14.9052   22.8279 O   0  0  0  0  0  0  0  0  0  0  0  0
  2  1  1  1
  2  3  1  0
  4  2  1  0
  4  5  1  0
  5  6  1  1
  7  5  1  0
  7  8  2  0
 10  9  1  0
 11 10  2  0
 12 10  1  0
 13 14  1  0
 13 12  1  0
 14 15  1  0
 16 15  1  6
 16 17  1  0
 17  7  1  0
 18 16  1  0
 19 18  2  0
 20 18  1  0
 21 20  1  0
 22 24  1  0
 22 21  1  0
 23 22  2  0
M  END
$$$$
