LRG.pdb
     RDKit          3D

 24 23  0  0  1  0  0  0  0  0999 V2000
    7.3800  -11.6887   26.9543 C   0  0  0  0  0  0  0  0  0  0  0  0
    6.7390  -13.0173   26.7582 C   0  0  1  0  0  0  0  0  0  0  0  0
    5.2535  -12.8367   26.5484 C   0  0  0  0  0  0  0  0  0  0  0  0
    7.3521  -13.9047   25.7351 C   0  0  0  0  0  0  0  0  0  0  0  0
    7.0482  -15.3637   25.8495 C   0  0  2  0  0  0  0  0  0  0  0  0
    7.1868  -15.8259   27.2226 N   0  0  0  0  0  0  0  0  0  0  0  0
    8.1373  -16.0618   25.0681 C   0  0  0  0  0  0  0  0  0  0  0  0
    9.3285  -16.0588   25.4841 O   0  0  0  0  0  0  0  0  0  0  0  0
    8.1293  -12.0193   19.1980 N   0  0  0  0  0  0  0  0  0  0  0  0
    8.7260  -13.1409   18.5750 C   0  0  0  0  0  0  0  0  0  0  0  0
    9.6341  -12.9142   17.6778 N   0  0  0  0  0  0  0  0  0  0  0  0
    8.3518  -14.4756   18.9135 N   0  0  0  0  0  0  0  0  0  0  0  0
    7.4201  -14.7332   20.0004 C   0  0  0  0  0  0  0  0  0  0  0  0
    7.7398  -13.9321   21.2169 C   0  0  0  0  0  0  0  0  0  0  0  0
    7.5533  -14.6663   22.4973 C   0  0  0  0  0  0  0  0  0  0  0  0
    8.0367  -16.0576   22.5926 C   0  0  2  0  0  0  0  0  0  0  0  0
    7.8305  -16.7317   23.8511 N   0  0  0  0  0  0  0  0  0  0  0  0
    9.5169  -16.0199   22.3642 C   0  0  0  0  0  0  0  0  0  0  0  0
    9.9506  -15.7519   21.2358 O   0  0  0  0  0  0  0  0  0  0  0  0
   10.1152  -13.6811   17.2015 N   0  0  0  0  0  0  0  0  0  0  0  0
   10.3821  -16.2864   23.4305 C   0  0  0  0  0  0  0  0  0  0  0  0
   11.8265  -16.2028   23.3318 C   0  0  0  0  0  0  0  0  0  0  0  0
   12.4095  -17.2586   22.5116 O   0  0  0  0  0  0  0  0  0  0  0  0
   11.6894  -18.0815   21.9051 O   0  0  0  0  0  0  0  0  0  0  0  0
  2  1  1  6
  2  3  1  0
  4  2  1  0
  4  5  1  0
  5  6  1  1
  7  5  1  0
  7  8  2  0
 10  9  1  0
 11 10  2  0
 12 10  1  0
 13 14  1  0
 13 12  1  0
 14 15  1  0
 16 15  1  1
 16 17  1  0
 17  7  1  0
 18 16  1  0
 19 18  2  0
 20 18  1  0
 21 20  1  0
 22 24  1  0
 22 21  1  0
 23 22  2  0
M  END
$$$$
