LRG.pdb
     RDKit          3D

 24 23  0  0  1  0  0  0  0  0999 V2000
    6.1981  -11.4064   25.7290 C   0  0  0  0  0  0  0  0  0  0  0  0
    6.8704  -12.6656   26.1497 C   0  0  1  0  0  0  0  0  0  0  0  0
    7.5647  -12.4506   27.4745 C   0  0  0  0  0  0  0  0  0  0  0  0
    6.0377  -13.8972   26.1396 C   0  0  0  0  0  0  0  0  0  0  0  0
    6.7516  -15.1869   26.3856 C   0  0  2  0  0  0  0  0  0  0  0  0
    8.0351  -14.9646   27.0349 N   0  0  0  0  0  0  0  0  0  0  0  0
    7.0734  -15.7342   25.0141 C   0  0  0  0  0  0  0  0  0  0  0  0
    6.1714  -16.2573   24.3038 O   0  0  0  0  0  0  0  0  0  0  0  0
    7.8378  -12.3578   17.7991 N   0  0  0  0  0  0  0  0  0  0  0  0
    8.2471  -13.6791   18.0970 C   0  0  0  0  0  0  0  0  0  0  0  0
    8.3181  -14.5198   17.1124 N   0  0  0  0  0  0  0  0  0  0  0  0
    8.5733  -14.0828   19.4262 N   0  0  0  0  0  0  0  0  0  0  0  0
    7.7793  -13.6280   20.5568 C   0  0  0  0  0  0  0  0  0  0  0  0
    8.2978  -14.1493   21.8542 C   0  0  0  0  0  0  0  0  0  0  0  0
    8.1161  -15.6142   22.0395 C   0  0  0  0  0  0  0  0  0  0  0  0
    8.7095  -16.2566   23.2285 C   0  0  2  0  0  0  0  0  0  0  0  0
    8.4012  -15.6656   24.5076 N   0  0  0  0  0  0  0  0  0  0  0  0
   10.1970  -16.1783   23.0676 C   0  0  0  0  0  0  0  0  0  0  0  0
   10.8090  -15.2117   23.5411 O   0  0  0  0  0  0  0  0  0  0  0  0
    8.6072  -15.4898   17.2603 N   0  0  0  0  0  0  0  0  0  0  0  0
   10.8676  -17.1999   22.3870 C   0  0  0  0  0  0  0  0  0  0  0  0
   12.3074  -17.2416   22.2195 C   0  0  0  0  0  0  0  0  0  0  0  0
   12.7608  -18.3686   21.4123 O   0  0  0  0  0  0  0  0  0  0  0  0
   11.9941  -19.3158   21.1317 O   0  0  0  0  0  0  0  0  0  0  0  0
  2  1  1  1
  2  3  1  0
  4  2  1  0
  4  5  1  0
  5  6  1  1
  7  5  1  0
  7  8  2  0
 10  9  1  0
 11 10  2  0
 12 10  1  0
 13 14  1  0
 13 12  1  0
 14 15  1  0
 16 15  1  6
 16 17  1  0
 17  7  1  0
 18 16  1  0
 19 18  2  0
 20 18  1  0
 21 20  1  0
 22 24  1  0
 22 21  1  0
 23 22  2  0
M  END
$$$$
