LRG.pdb
     RDKit          3D

 24 23  0  0  1  0  0  0  0  0999 V2000
    6.0598  -11.6119   25.9786 C   0  0  0  0  0  0  0  0  0  0  0  0
    7.0596  -12.7018   26.1428 C   0  0  1  0  0  0  0  0  0  0  0  0
    8.1235  -12.2693   27.1248 C   0  0  0  0  0  0  0  0  0  0  0  0
    6.5223  -14.0539   26.4484 C   0  0  0  0  0  0  0  0  0  0  0  0
    7.5169  -15.1677   26.5131 C   0  0  2  0  0  0  0  0  0  0  0  0
    8.8645  -14.6607   26.7261 N   0  0  0  0  0  0  0  0  0  0  0  0
    7.5213  -15.7810   25.1318 C   0  0  0  0  0  0  0  0  0  0  0  0
    6.5034  -16.3846   24.6942 O   0  0  0  0  0  0  0  0  0  0  0  0
    8.3571  -12.7546   20.2203 N   0  0  0  0  0  0  0  0  0  0  0  0
    7.7808  -13.2908   19.0444 C   0  0  0  0  0  0  0  0  0  0  0  0
    7.6743  -12.5052   18.0185 N   0  0  0  0  0  0  0  0  0  0  0  0
    7.3313  -14.6434   18.9776 N   0  0  0  0  0  0  0  0  0  0  0  0
    7.0125  -15.3813   20.1898 C   0  0  0  0  0  0  0  0  0  0  0  0
    7.7292  -14.8423   21.3813 C   0  0  0  0  0  0  0  0  0  0  0  0
    8.8775  -15.6746   21.8306 C   0  0  0  0  0  0  0  0  0  0  0  0
    8.7469  -16.4441   23.0834 C   0  0  2  0  0  0  0  0  0  0  0  0
    8.6768  -15.6845   24.3076 N   0  0  0  0  0  0  0  0  0  0  0  0
    9.9624  -17.3138   23.1877 C   0  0  0  0  0  0  0  0  0  0  0  0
   10.1347  -18.2183   22.3598 O   0  0  0  0  0  0  0  0  0  0  0  0
    7.2497  -12.8252   17.1446 N   0  0  0  0  0  0  0  0  0  0  0  0
   10.8813  -17.0870   24.2175 C   0  0  0  0  0  0  0  0  0  0  0  0
   12.1422  -17.7933   24.3376 C   0  0  0  0  0  0  0  0  0  0  0  0
   13.1360  -17.3678   23.3586 O   0  0  0  0  0  0  0  0  0  0  0  0
   12.8730  -17.3413   22.1364 O   0  0  0  0  0  0  0  0  0  0  0  0
  2  1  1  1
  2  3  1  0
  4  2  1  0
  4  5  1  0
  5  6  1  6
  7  5  1  0
  7  8  2  0
 10  9  1  0
 11 10  2  0
 12 10  1  0
 13 14  1  0
 13 12  1  0
 14 15  1  0
 16 15  1  6
 16 17  1  0
 17  7  1  0
 18 16  1  0
 19 18  2  0
 20 18  1  0
 21 20  1  0
 22 24  1  0
 22 21  1  0
 23 22  2  0
M  END
$$$$
