LRG.pdb
     RDKit          3D

 24 23  0  0  1  0  0  0  0  0999 V2000
    6.1990  -11.7414   26.4735 C   0  0  0  0  0  0  0  0  0  0  0  0
    7.0935  -12.9282   26.3977 C   0  0  1  0  0  0  0  0  0  0  0  0
    8.2037  -12.7911   27.4136 C   0  0  0  0  0  0  0  0  0  0  0  0
    6.4348  -14.2598   26.4543 C   0  0  0  0  0  0  0  0  0  0  0  0
    7.2868  -15.4402   26.1159 C   0  0  2  0  0  0  0  0  0  0  0  0
    8.6658  -15.2331   26.5330 N   0  0  0  0  0  0  0  0  0  0  0  0
    7.3169  -15.4923   24.6058 C   0  0  0  0  0  0  0  0  0  0  0  0
    6.3224  -15.9206   23.9583 O   0  0  0  0  0  0  0  0  0  0  0  0
    8.9352  -15.2007   17.5499 N   0  0  0  0  0  0  0  0  0  0  0  0
    8.1975  -14.0705   17.1245 C   0  0  0  0  0  0  0  0  0  0  0  0
    8.3222  -13.7061   15.8865 N   0  0  0  0  0  0  0  0  0  0  0  0
    7.3447  -13.3517   18.0145 N   0  0  0  0  0  0  0  0  0  0  0  0
    7.7593  -13.0770   19.3813 C   0  0  0  0  0  0  0  0  0  0  0  0
    7.9464  -14.3260   20.1742 C   0  0  0  0  0  0  0  0  0  0  0  0
    8.2254  -14.0965   21.6173 C   0  0  0  0  0  0  0  0  0  0  0  0
    8.5492  -15.2574   22.4694 C   0  0  2  0  0  0  0  0  0  0  0  0
    8.4707  -15.0579   23.8957 N   0  0  0  0  0  0  0  0  0  0  0  0
    9.9669  -15.6363   22.1670 C   0  0  0  0  0  0  0  0  0  0  0  0
   10.8885  -15.0685   22.7681 O   0  0  0  0  0  0  0  0  0  0  0  0
    7.8023  -12.9090   15.5111 N   0  0  0  0  0  0  0  0  0  0  0  0
   10.2233  -16.6259   21.2123 C   0  0  0  0  0  0  0  0  0  0  0  0
   11.5281  -17.2251   21.0086 C   0  0  0  0  0  0  0  0  0  0  0  0
   11.5247  -18.2852   20.0067 O   0  0  0  0  0  0  0  0  0  0  0  0
   10.4580  -18.6933   19.4976 O   0  0  0  0  0  0  0  0  0  0  0  0
  2  1  1  1
  2  3  1  0
  4  2  1  0
  4  5  1  0
  5  6  1  6
  7  5  1  0
  7  8  2  0
 10  9  1  0
 11 10  2  0
 12 10  1  0
 13 14  1  0
 13 12  1  0
 14 15  1  0
 16 15  1  6
 16 17  1  0
 17  7  1  0
 18 16  1  0
 19 18  2  0
 20 18  1  0
 21 20  1  0
 22 24  1  0
 22 21  1  0
 23 22  2  0
M  END
$$$$
