LRG.pdb
     RDKit          3D

 24 23  0  0  1  0  0  0  0  0999 V2000
   11.0908  -14.2139   29.0333 C   0  0  0  0  0  0  0  0  0  0  0  0
    9.8298  -14.8037   28.5075 C   0  0  1  0  0  0  0  0  0  0  0  0
    8.7861  -13.7206   28.3627 C   0  0  0  0  0  0  0  0  0  0  0  0
    9.9491  -15.6427   27.2860 C   0  0  0  0  0  0  0  0  0  0  0  0
    8.6927  -16.2843   26.7923 C   0  0  2  0  0  0  0  0  0  0  0  0
    8.5873  -17.6614   27.2515 N   0  0  0  0  0  0  0  0  0  0  0  0
    8.8461  -16.3616   25.2908 C   0  0  0  0  0  0  0  0  0  0  0  0
    9.4228  -17.3472   24.7543 O   0  0  0  0  0  0  0  0  0  0  0  0
    9.5843  -13.6392   18.2856 N   0  0  0  0  0  0  0  0  0  0  0  0
    8.2735  -13.5655   17.7578 C   0  0  0  0  0  0  0  0  0  0  0  0
    8.1525  -13.3783   16.4805 N   0  0  0  0  0  0  0  0  0  0  0  0
    7.1208  -13.6922   18.5892 N   0  0  0  0  0  0  0  0  0  0  0  0
    7.1940  -13.3953   20.0113 C   0  0  0  0  0  0  0  0  0  0  0  0
    8.0377  -14.3794   20.7485 C   0  0  0  0  0  0  0  0  0  0  0  0
    7.7814  -14.4264   22.2132 C   0  0  0  0  0  0  0  0  0  0  0  0
    8.5615  -15.3689   23.0388 C   0  0  2  0  0  0  0  0  0  0  0  0
    8.3406  -15.3204   24.4634 N   0  0  0  0  0  0  0  0  0  0  0  0
   10.0076  -15.0456   22.8181 C   0  0  0  0  0  0  0  0  0  0  0  0
   10.5522  -14.1859   23.5234 O   0  0  0  0  0  0  0  0  0  0  0  0
    7.2359  -13.3815   16.0264 N   0  0  0  0  0  0  0  0  0  0  0  0
   10.7168  -15.7223   21.8202 C   0  0  0  0  0  0  0  0  0  0  0  0
   12.1153  -15.4783   21.5242 C   0  0  0  0  0  0  0  0  0  0  0  0
   12.6147  -16.2732   20.4079 O   0  0  0  0  0  0  0  0  0  0  0  0
   11.8901  -17.1172   19.8370 O   0  0  0  0  0  0  0  0  0  0  0  0
  2  1  1  6
  2  3  1  0
  4  2  1  0
  4  5  1  0
  5  6  1  1
  7  5  1  0
  7  8  2  0
 10  9  1  0
 11 10  2  0
 12 10  1  0
 13 14  1  0
 13 12  1  0
 14 15  1  0
 16 15  1  6
 16 17  1  0
 17  7  1  0
 18 16  1  0
 19 18  2  0
 20 18  1  0
 21 20  1  0
 22 24  1  0
 22 21  1  0
 23 22  2  0
M  END
$$$$
