LRG.pdb
     RDKit          3D

 24 23  0  0  1  0  0  0  0  0999 V2000
    6.4077  -13.2266   19.2413 C   0  0  0  0  0  0  0  0  0  0  0  0
    7.8443  -13.5765   19.4093 C   0  0  1  0  0  0  0  0  0  0  0  0
    8.7004  -12.3801   19.0641 C   0  0  0  0  0  0  0  0  0  0  0  0
    8.2292  -14.1936   20.7059 C   0  0  0  0  0  0  0  0  0  0  0  0
    9.6774  -14.5154   20.8874 C   0  0  2  0  0  0  0  0  0  0  0  0
   10.2030  -15.2473   19.7444 N   0  0  0  0  0  0  0  0  0  0  0  0
    9.7308  -15.4772   22.0520 C   0  0  0  0  0  0  0  0  0  0  0  0
    9.1725  -15.1913   23.1467 O   0  0  0  0  0  0  0  0  0  0  0  0
    8.5153  -21.5582   18.9257 N   0  0  0  0  0  0  0  0  0  0  0  0
    7.3068  -21.1748   19.5541 C   0  0  0  0  0  0  0  0  0  0  0  0
    6.2305  -21.1745   18.8312 N   0  0  0  0  0  0  0  0  0  0  0  0
    7.2614  -20.8018   20.9306 N   0  0  0  0  0  0  0  0  0  0  0  0
    8.4866  -20.6445   21.6987 C   0  0  0  0  0  0  0  0  0  0  0  0
    8.7617  -19.2174   22.0326 C   0  0  0  0  0  0  0  0  0  0  0  0
   10.0080  -19.0036   22.8162 C   0  0  0  0  0  0  0  0  0  0  0  0
   10.4688  -17.6211   23.0505 C   0  0  2  0  0  0  0  0  0  0  0  0
   10.4135  -16.7191   21.9263 N   0  0  0  0  0  0  0  0  0  0  0  0
   11.9072  -17.7063   23.4612 C   0  0  0  0  0  0  0  0  0  0  0  0
   12.2377  -18.4971   24.3547 O   0  0  0  0  0  0  0  0  0  0  0  0
    5.3450  -20.8135   19.1946 N   0  0  0  0  0  0  0  0  0  0  0  0
   12.8507  -16.8920   22.8262 C   0  0  0  0  0  0  0  0  0  0  0  0
   14.2776  -16.9768   23.0707 C   0  0  0  0  0  0  0  0  0  0  0  0
   14.7608  -15.9742   24.0133 O   0  0  0  0  0  0  0  0  0  0  0  0
   13.9675  -15.2533   24.6572 O   0  0  0  0  0  0  0  0  0  0  0  0
  2  1  1  1
  2  3  1  0
  4  2  1  0
  4  5  1  0
  5  6  1  6
  7  5  1  0
  7  8  2  0
 10  9  1  0
 11 10  2  0
 12 10  1  0
 13 14  1  0
 13 12  1  0
 14 15  1  0
 16 15  1  6
 16 17  1  0
 17  7  1  0
 18 16  1  0
 19 18  2  0
 20 18  1  0
 21 20  1  0
 22 24  1  0
 22 21  1  0
 23 22  2  0
M  END
$$$$
