LRG.pdb
     RDKit          3D

 24 23  0  0  1  0  0  0  0  0999 V2000
    7.8637  -12.3133   27.8582 C   0  0  0  0  0  0  0  0  0  0  0  0
    6.9605  -13.3018   27.2088 C   0  0  1  0  0  0  0  0  0  0  0  0
    5.6935  -12.6114   26.7599 C   0  0  0  0  0  0  0  0  0  0  0  0
    7.5579  -14.1422   26.1378 C   0  0  0  0  0  0  0  0  0  0  0  0
    6.6324  -15.0794   25.4314 C   0  0  2  0  0  0  0  0  0  0  0  0
    6.4798  -16.3257   26.1674 N   0  0  0  0  0  0  0  0  0  0  0  0
    7.3374  -15.4445   24.1454 C   0  0  0  0  0  0  0  0  0  0  0  0
    7.6300  -16.6454   23.8923 O   0  0  0  0  0  0  0  0  0  0  0  0
    8.5251  -13.0258   17.0940 N   0  0  0  0  0  0  0  0  0  0  0  0
    8.2038  -14.3654   16.7709 C   0  0  0  0  0  0  0  0  0  0  0  0
    8.8002  -14.8936   15.7479 N   0  0  0  0  0  0  0  0  0  0  0  0
    7.2618  -15.1171   17.5348 N   0  0  0  0  0  0  0  0  0  0  0  0
    7.4872  -15.3731   18.9488 C   0  0  0  0  0  0  0  0  0  0  0  0
    7.1502  -14.1921   19.7948 C   0  0  0  0  0  0  0  0  0  0  0  0
    8.1682  -13.8745   20.8321 C   0  0  0  0  0  0  0  0  0  0  0  0
    8.3325  -14.8001   21.9699 C   0  0  2  0  0  0  0  0  0  0  0  0
    7.6803  -14.4348   23.2035 N   0  0  0  0  0  0  0  0  0  0  0  0
    9.7998  -14.8695   22.2651 C   0  0  0  0  0  0  0  0  0  0  0  0
   10.3162  -14.0034   22.9837 O   0  0  0  0  0  0  0  0  0  0  0  0
    8.5718  -15.8379   15.4275 N   0  0  0  0  0  0  0  0  0  0  0  0
   10.5591  -15.9126   21.7248 C   0  0  0  0  0  0  0  0  0  0  0  0
   11.9632  -16.1202   22.0223 C   0  0  0  0  0  0  0  0  0  0  0  0
   12.5260  -17.2895   21.3564 O   0  0  0  0  0  0  0  0  0  0  0  0
   11.9084  -18.3762   21.3214 O   0  0  0  0  0  0  0  0  0  0  0  0
  2  1  1  6
  2  3  1  0
  4  2  1  0
  4  5  1  0
  5  6  1  1
  7  5  1  0
  7  8  2  0
 10  9  1  0
 11 10  2  0
 12 10  1  0
 13 14  1  0
 13 12  1  0
 14 15  1  0
 16 15  1  6
 16 17  1  0
 17  7  1  0
 18 16  1  0
 19 18  2  0
 20 18  1  0
 21 20  1  0
 22 24  1  0
 22 21  1  0
 23 22  2  0
M  END
$$$$
