LRG.pdb
     RDKit          3D

 24 23  0  0  1  0  0  0  0  0999 V2000
    7.4663  -11.6918   26.9026 C   0  0  0  0  0  0  0  0  0  0  0  0
    6.7125  -12.8598   26.3716 C   0  0  1  0  0  0  0  0  0  0  0  0
    5.5339  -12.3750   25.5597 C   0  0  0  0  0  0  0  0  0  0  0  0
    7.5074  -13.8922   25.6558 C   0  0  0  0  0  0  0  0  0  0  0  0
    6.7367  -14.9965   25.0075 C   0  0  2  0  0  0  0  0  0  0  0  0
    6.1113  -15.8576   26.0004 N   0  0  0  0  0  0  0  0  0  0  0  0
    7.7708  -15.8524   24.3132 C   0  0  0  0  0  0  0  0  0  0  0  0
    8.0190  -17.0193   24.7239 O   0  0  0  0  0  0  0  0  0  0  0  0
    8.0333  -12.4696   17.9792 N   0  0  0  0  0  0  0  0  0  0  0  0
    7.6749  -13.6366   17.2636 C   0  0  0  0  0  0  0  0  0  0  0  0
    7.3878  -13.5028   16.0063 N   0  0  0  0  0  0  0  0  0  0  0  0
    7.6288  -14.9176   17.8903 N   0  0  0  0  0  0  0  0  0  0  0  0
    8.7482  -15.3961   18.6864 C   0  0  0  0  0  0  0  0  0  0  0  0
    8.4724  -15.3163   20.1498 C   0  0  0  0  0  0  0  0  0  0  0  0
    9.5826  -15.8108   21.0077 C   0  0  0  0  0  0  0  0  0  0  0  0
    9.2741  -16.2466   22.3837 C   0  0  2  0  0  0  0  0  0  0  0  0
    8.4782  -15.3500   23.1856 N   0  0  0  0  0  0  0  0  0  0  0  0
   10.5842  -16.4070   23.0926 C   0  0  0  0  0  0  0  0  0  0  0  0
   11.4757  -17.0919   22.5736 O   0  0  0  0  0  0  0  0  0  0  0  0
    7.1591  -14.3116   15.4233 N   0  0  0  0  0  0  0  0  0  0  0  0
   10.7770  -15.7785   24.3273 C   0  0  0  0  0  0  0  0  0  0  0  0
   12.0102  -15.8616   25.0858 C   0  0  0  0  0  0  0  0  0  0  0  0
   12.3136  -17.2122   25.5453 O   0  0  0  0  0  0  0  0  0  0  0  0
   11.5962  -18.1840   25.2222 O   0  0  0  0  0  0  0  0  0  0  0  0
  2  1  1  6
  2  3  1  0
  4  2  1  0
  4  5  1  0
  5  6  1  1
  7  5  1  0
  7  8  2  0
 10  9  1  0
 11 10  2  0
 12 10  1  0
 13 14  1  0
 13 12  1  0
 14 15  1  0
 16 15  1  6
 16 17  1  0
 17  7  1  0
 18 16  1  0
 19 18  2  0
 20 18  1  0
 21 20  1  0
 22 24  1  0
 22 21  1  0
 23 22  2  0
M  END
$$$$
