KCL.pdb
     RDKit          3D

 24 23  0  0  1  0  0  0  0  0999 V2000
   10.2169  -18.9774   19.7287 N   0  0  0  0  0  0  0  0  0  0  0  0
    9.2330  -17.9635   19.3136 C   0  0  1  0  0  0  0  0  0  0  0  0
    8.4388  -18.5566   18.2187 C   0  0  0  0  0  0  0  0  0  0  0  0
    9.1154  -19.2819   17.1428 C   0  0  0  0  0  0  0  0  0  0  0  0
    9.8161  -18.6128   16.0463 C   0  0  0  0  0  0  0  0  0  0  0  0
   10.4856  -19.4038   14.9882 C   0  0  0  0  0  0  0  0  0  0  0  0
   11.1135  -18.4283   14.0676 N   0  0  0  0  0  0  0  0  0  0  0  0
    8.3487  -17.7925   20.5551 C   0  0  0  0  0  0  0  0  0  0  0  0
    7.1269  -17.6091   20.4838 O   0  0  0  0  0  0  0  0  0  0  0  0
    8.9627  -17.8480   21.8272 N   0  0  0  0  0  0  0  0  0  0  0  0
    8.2052  -17.6887   23.0858 C   0  0  1  0  0  0  0  0  0  0  0  0
    8.6834  -18.8670   23.9365 C   0  0  0  0  0  0  0  0  0  0  0  0
   10.4424  -18.7587   24.2945 S   0  0  0  0  0  0  0  0  0  0  0  0
    8.4841  -16.3866   23.6885 C   0  0  0  0  0  0  0  0  0  0  0  0
    9.5827  -15.8266   23.4567 O   0  0  0  0  0  0  0  0  0  0  0  0
    7.5493  -11.3573   25.5413 C   0  0  0  0  0  0  0  0  0  0  0  0
    6.8932  -12.4792   26.3024 C   0  0  1  0  0  0  0  0  0  0  0  0
    5.5331  -12.0058   26.8343 C   0  0  0  0  0  0  0  0  0  0  0  0
    6.6971  -13.7314   25.5349 C   0  0  0  0  0  0  0  0  0  0  0  0
    7.9169  -14.5064   25.1810 C   0  0  2  0  0  0  0  0  0  0  0  0
    7.5518  -15.7459   24.5195 N   0  0  0  0  0  0  0  0  0  0  0  0
    8.8432  -14.7947   26.2796 C   0  0  0  0  0  0  0  0  0  0  0  0
    9.9553  -14.2153   26.4086 O   0  0  0  0  0  0  0  0  0  0  0  0
    8.5485  -15.7493   27.2730 O   0  0  0  0  0  0  0  0  0  0  0  0
  2  1  1  1
  3  4  1  0
  3  2  1  0
  5  6  1  0
  5  4  1  0
  7  6  1  0
  8  2  1  0
  8  9  2  0
 10  8  1  0
 11 10  1  0
 11 12  1  1
 13 12  1  0
 14 11  1  0
 15 14  2  0
 17 16  1  6
 17 18  1  0
 20 19  1  1
 19 17  1  0
 20 21  1  0
 21 14  1  0
 22 20  1  0
 23 22  2  0
 24 22  1  0
M  END
$$$$
