KCL.pdb
     RDKit          3D

 24 23  0  0  1  0  0  0  0  0999 V2000
   11.2300  -18.1595   19.2448 N   0  0  0  0  0  0  0  0  0  0  0  0
   10.2115  -18.3873   20.2834 C   0  0  1  0  0  0  0  0  0  0  0  0
   10.5975  -19.6177   21.0032 C   0  0  0  0  0  0  0  0  0  0  0  0
   11.9869  -20.0755   20.9632 C   0  0  0  0  0  0  0  0  0  0  0  0
   12.4353  -21.3215   21.5855 C   0  0  0  0  0  0  0  0  0  0  0  0
   13.8743  -21.6707   21.6171 C   0  0  0  0  0  0  0  0  0  0  0  0
   13.9822  -22.9414   22.3700 N   0  0  0  0  0  0  0  0  0  0  0  0
   10.3702  -17.1774   21.2128 C   0  0  0  0  0  0  0  0  0  0  0  0
   11.4262  -16.5383   21.3014 O   0  0  0  0  0  0  0  0  0  0  0  0
    9.2606  -16.7841   21.9953 N   0  0  0  0  0  0  0  0  0  0  0  0
    9.2975  -15.6178   22.9019 C   0  0  1  0  0  0  0  0  0  0  0  0
    7.8944  -15.0229   22.7680 C   0  0  0  0  0  0  0  0  0  0  0  0
    7.5923  -13.7472   23.9990 S   0  0  0  0  0  0  0  0  0  0  0  0
    9.6220  -16.0394   24.2634 C   0  0  0  0  0  0  0  0  0  0  0  0
    8.8834  -16.8745   24.8388 O   0  0  0  0  0  0  0  0  0  0  0  0
   10.8059  -14.1114   29.2026 C   0  0  0  0  0  0  0  0  0  0  0  0
    9.5956  -14.3364   28.3348 C   0  0  1  0  0  0  0  0  0  0  0  0
    8.5632  -13.2330   28.6058 C   0  0  0  0  0  0  0  0  0  0  0  0
    9.8656  -14.3917   26.8788 C   0  0  0  0  0  0  0  0  0  0  0  0
   10.7391  -15.4941   26.3939 C   0  0  2  0  0  0  0  0  0  0  0  0
   10.7414  -15.5336   24.9428 N   0  0  0  0  0  0  0  0  0  0  0  0
   10.4464  -16.8314   26.9174 C   0  0  0  0  0  0  0  0  0  0  0  0
   11.2617  -17.4851   27.6224 O   0  0  0  0  0  0  0  0  0  0  0  0
    9.2222  -17.4807   26.6632 O   0  0  0  0  0  0  0  0  0  0  0  0
  2  1  1  6
  3  4  1  0
  3  2  1  0
  5  6  1  0
  5  4  1  0
  7  6  1  0
  8  2  1  0
  8  9  2  0
 10  8  1  0
 11 10  1  0
 11 12  1  1
 13 12  1  0
 14 11  1  0
 15 14  2  0
 17 16  1  1
 17 18  1  0
 20 19  1  6
 19 17  1  0
 20 21  1  0
 21 14  1  0
 22 20  1  0
 23 22  2  0
 24 22  1  0
M  END
$$$$
