KCL.pdb
     RDKit          3D

 24 23  0  0  1  0  0  0  0  0999 V2000
    5.2299  -19.9115   21.2683 N   0  0  0  0  0  0  0  0  0  0  0  0
    5.2144  -18.4765   21.5982 C   0  0  1  0  0  0  0  0  0  0  0  0
    4.1543  -18.2776   22.6070 C   0  0  0  0  0  0  0  0  0  0  0  0
    2.7557  -18.5101   22.2447 C   0  0  0  0  0  0  0  0  0  0  0  0
    2.3351  -19.5614   21.3179 C   0  0  0  0  0  0  0  0  0  0  0  0
    0.9000  -19.7666   21.0151 C   0  0  0  0  0  0  0  0  0  0  0  0
    0.8232  -20.9441   20.1200 N   0  0  0  0  0  0  0  0  0  0  0  0
    6.5867  -18.2418   22.2420 C   0  0  0  0  0  0  0  0  0  0  0  0
    7.2027  -19.1312   22.8428 O   0  0  0  0  0  0  0  0  0  0  0  0
    7.1627  -16.9549   22.1399 N   0  0  0  0  0  0  0  0  0  0  0  0
    8.4459  -16.6024   22.7823 C   0  0  1  0  0  0  0  0  0  0  0  0
    9.2140  -15.8894   21.6677 C   0  0  0  0  0  0  0  0  0  0  0  0
   10.9414  -15.6427   22.1025 S   0  0  0  0  0  0  0  0  0  0  0  0
    8.2154  -15.7636   23.9570 C   0  0  0  0  0  0  0  0  0  0  0  0
    7.6698  -14.6431   23.8125 O   0  0  0  0  0  0  0  0  0  0  0  0
    5.8785  -12.6565   26.1122 C   0  0  0  0  0  0  0  0  0  0  0  0
    7.2106  -13.2877   25.8025 C   0  0  1  0  0  0  0  0  0  0  0  0
    8.3226  -12.2457   25.9881 C   0  0  0  0  0  0  0  0  0  0  0  0
    7.5411  -14.4882   26.6056 C   0  0  0  0  0  0  0  0  0  0  0  0
    8.8117  -15.1909   26.2810 C   0  0  2  0  0  0  0  0  0  0  0  0
    8.5884  -16.1819   25.2440 N   0  0  0  0  0  0  0  0  0  0  0  0
    9.5143  -15.8132   27.4067 C   0  0  0  0  0  0  0  0  0  0  0  0
    9.6426  -17.0612   27.5291 O   0  0  0  0  0  0  0  0  0  0  0  0
   10.0972  -15.0490   28.4368 O   0  0  0  0  0  0  0  0  0  0  0  0
  2  1  1  1
  3  4  1  0
  3  2  1  0
  5  6  1  0
  5  4  1  0
  7  6  1  0
  8  2  1  0
  8  9  2  0
 10  8  1  0
 11 10  1  0
 11 12  1  6
 13 12  1  0
 14 11  1  0
 15 14  2  0
 17 16  1  1
 17 18  1  0
 20 19  1  1
 19 17  1  0
 20 21  1  0
 21 14  1  0
 22 20  1  0
 23 22  2  0
 24 22  1  0
M  END
$$$$
