KCL.pdb
     RDKit          3D

 24 23  0  0  1  0  0  0  0  0999 V2000
    6.5682  -16.8111   19.5747 N   0  0  0  0  0  0  0  0  0  0  0  0
    7.4218  -15.8725   20.3221 C   0  0  1  0  0  0  0  0  0  0  0  0
    6.8099  -14.5348   20.1902 C   0  0  0  0  0  0  0  0  0  0  0  0
    7.5120  -13.4862   19.4493 C   0  0  0  0  0  0  0  0  0  0  0  0
    8.9669  -13.3317   19.4697 C   0  0  0  0  0  0  0  0  0  0  0  0
    9.6069  -12.1560   18.8359 C   0  0  0  0  0  0  0  0  0  0  0  0
   11.0646  -12.3027   19.0532 N   0  0  0  0  0  0  0  0  0  0  0  0
    7.2978  -16.3531   21.7735 C   0  0  0  0  0  0  0  0  0  0  0  0
    6.2410  -16.7944   22.2421 O   0  0  0  0  0  0  0  0  0  0  0  0
    8.4418  -16.2852   22.6012 N   0  0  0  0  0  0  0  0  0  0  0  0
    8.4348  -16.7329   24.0093 C   0  0  1  0  0  0  0  0  0  0  0  0
    9.2825  -18.0061   23.9786 C   0  0  0  0  0  0  0  0  0  0  0  0
   10.9570  -17.6771   23.4116 S   0  0  0  0  0  0  0  0  0  0  0  0
    8.9811  -15.6924   24.8787 C   0  0  0  0  0  0  0  0  0  0  0  0
    9.9615  -15.0164   24.4840 O   0  0  0  0  0  0  0  0  0  0  0  0
    5.9671  -12.1834   26.8212 C   0  0  0  0  0  0  0  0  0  0  0  0
    7.2215  -12.8616   26.3366 C   0  0  1  0  0  0  0  0  0  0  0  0
    8.0301  -11.8806   25.4759 C   0  0  0  0  0  0  0  0  0  0  0  0
    8.0996  -13.3988   27.4024 C   0  0  0  0  0  0  0  0  0  0  0  0
    9.0719  -14.4544   27.0102 C   0  0  2  0  0  0  0  0  0  0  0  0
    8.4343  -15.4298   26.1446 N   0  0  0  0  0  0  0  0  0  0  0  0
    9.7535  -15.1479   28.1069 C   0  0  0  0  0  0  0  0  0  0  0  0
   10.3962  -14.5424   29.0065 O   0  0  0  0  0  0  0  0  0  0  0  0
    9.7355  -16.5515   28.2278 O   0  0  0  0  0  0  0  0  0  0  0  0
  2  1  1  6
  3  4  1  0
  3  2  1  0
  5  6  1  0
  5  4  1  0
  7  6  1  0
  8  2  1  0
  8  9  2  0
 10  8  1  0
 11 10  1  0
 11 12  1  6
 13 12  1  0
 14 11  1  0
 15 14  2  0
 17 16  1  1
 17 18  1  0
 20 19  1  1
 19 17  1  0
 20 21  1  0
 21 14  1  0
 22 20  1  0
 23 22  2  0
 24 22  1  0
M  END
$$$$
