KCL.pdb
     RDKit          3D

 24 23  0  0  1  0  0  0  0  0999 V2000
    8.7355  -14.9747   19.8239 N   0  0  0  0  0  0  0  0  0  0  0  0
    8.0907  -15.7817   20.8732 C   0  0  1  0  0  0  0  0  0  0  0  0
    8.7450  -17.1058   20.8618 C   0  0  0  0  0  0  0  0  0  0  0  0
    9.2666  -17.6459   19.6058 C   0  0  0  0  0  0  0  0  0  0  0  0
   10.6821  -17.5904   19.2394 C   0  0  0  0  0  0  0  0  0  0  0  0
   11.1539  -18.1882   17.9691 C   0  0  0  0  0  0  0  0  0  0  0  0
   11.9730  -19.3659   18.3373 N   0  0  0  0  0  0  0  0  0  0  0  0
    8.4517  -15.0416   22.1673 C   0  0  0  0  0  0  0  0  0  0  0  0
    9.5777  -14.5723   22.3755 O   0  0  0  0  0  0  0  0  0  0  0  0
    7.4519  -14.8948   23.1558 N   0  0  0  0  0  0  0  0  0  0  0  0
    7.7401  -14.3829   24.5116 C   0  0  1  0  0  0  0  0  0  0  0  0
    6.3576  -14.0056   25.0472 C   0  0  0  0  0  0  0  0  0  0  0  0
    6.4587  -13.2465   26.6743 S   0  0  0  0  0  0  0  0  0  0  0  0
    8.4133  -15.4050   25.3109 C   0  0  0  0  0  0  0  0  0  0  0  0
    8.4565  -16.5849   24.8866 O   0  0  0  0  0  0  0  0  0  0  0  0
   10.8205  -13.5095   29.9032 C   0  0  0  0  0  0  0  0  0  0  0  0
   10.6882  -14.0815   28.5162 C   0  0  1  0  0  0  0  0  0  0  0  0
   11.9675  -13.7870   27.7203 C   0  0  0  0  0  0  0  0  0  0  0  0
   10.4129  -15.5363   28.4580 C   0  0  0  0  0  0  0  0  0  0  0  0
    9.8822  -16.0739   27.1762 C   0  0  2  0  0  0  0  0  0  0  0  0
    9.0145  -15.0983   26.5417 N   0  0  0  0  0  0  0  0  0  0  0  0
    9.1917  -17.3646   27.2509 C   0  0  0  0  0  0  0  0  0  0  0  0
    9.7549  -18.4215   27.6441 O   0  0  0  0  0  0  0  0  0  0  0  0
    7.8394  -17.5097   26.8831 O   0  0  0  0  0  0  0  0  0  0  0  0
  2  1  1  6
  3  4  1  0
  3  2  1  0
  5  6  1  0
  5  4  1  0
  7  6  1  0
  8  2  1  0
  8  9  2  0
 10  8  1  0
 11 10  1  0
 11 12  1  1
 13 12  1  0
 14 11  1  0
 15 14  2  0
 17 16  1  1
 17 18  1  0
 20 19  1  1
 19 17  1  0
 20 21  1  0
 21 14  1  0
 22 20  1  0
 23 22  2  0
 24 22  1  0
M  END
$$$$
