KCL.pdb
     RDKit          3D

 24 23  0  0  1  0  0  0  0  0999 V2000
    5.7481  -16.3037   20.2399 N   0  0  0  0  0  0  0  0  0  0  0  0
    6.9815  -15.6900   20.7598 C   0  0  1  0  0  0  0  0  0  0  0  0
    6.6639  -14.2817   21.0715 C   0  0  0  0  0  0  0  0  0  0  0  0
    7.1833  -13.2146   20.2154 C   0  0  0  0  0  0  0  0  0  0  0  0
    8.1083  -13.4582   19.1081 C   0  0  0  0  0  0  0  0  0  0  0  0
    8.7649  -12.3264   18.4143 C   0  0  0  0  0  0  0  0  0  0  0  0
    9.5381  -12.9112   17.2946 N   0  0  0  0  0  0  0  0  0  0  0  0
    7.2430  -16.4579   22.0616 C   0  0  0  0  0  0  0  0  0  0  0  0
    6.3378  -16.7685   22.8462 O   0  0  0  0  0  0  0  0  0  0  0  0
    8.5742  -16.8208   22.3690 N   0  0  0  0  0  0  0  0  0  0  0  0
    8.9357  -17.5621   23.5950 C   0  0  1  0  0  0  0  0  0  0  0  0
    9.5193  -18.8700   23.0569 C   0  0  0  0  0  0  0  0  0  0  0  0
   10.1193  -19.9262   24.3829 S   0  0  0  0  0  0  0  0  0  0  0  0
    9.8828  -16.7905   24.3977 C   0  0  0  0  0  0  0  0  0  0  0  0
   10.8966  -16.2992   23.8453 O   0  0  0  0  0  0  0  0  0  0  0  0
    8.7826  -13.3458   26.7610 C   0  0  0  0  0  0  0  0  0  0  0  0
    9.9002  -13.7899   27.6678 C   0  0  1  0  0  0  0  0  0  0  0  0
    9.6488  -13.2547   29.0846 C   0  0  0  0  0  0  0  0  0  0  0  0
   10.1088  -15.2551   27.7400 C   0  0  0  0  0  0  0  0  0  0  0  0
   10.7110  -15.9125   26.5489 C   0  0  2  0  0  0  0  0  0  0  0  0
    9.6851  -16.5843   25.7720 N   0  0  0  0  0  0  0  0  0  0  0  0
   11.8127  -16.8433   26.8097 C   0  0  0  0  0  0  0  0  0  0  0  0
   11.6339  -18.0695   27.0410 O   0  0  0  0  0  0  0  0  0  0  0  0
   13.1575  -16.4234   26.8202 O   0  0  0  0  0  0  0  0  0  0  0  0
  2  1  1  1
  3  4  1  0
  3  2  1  0
  5  6  1  0
  5  4  1  0
  7  6  1  0
  8  2  1  0
  8  9  2  0
 10  8  1  0
 11 10  1  0
 11 12  1  6
 13 12  1  0
 14 11  1  0
 15 14  2  0
 17 16  1  6
 17 18  1  0
 20 19  1  1
 19 17  1  0
 20 21  1  0
 21 14  1  0
 22 20  1  0
 23 22  2  0
 24 22  1  0
M  END
$$$$
