KCL.pdb
     RDKit          3D

 24 23  0  0  1  0  0  0  0  0999 V2000
    7.7071  -18.5946   21.9205 N   0  0  0  0  0  0  0  0  0  0  0  0
    9.1655  -18.7633   21.8081 C   0  0  1  0  0  0  0  0  0  0  0  0
    9.4634  -18.9993   20.3809 C   0  0  0  0  0  0  0  0  0  0  0  0
    9.1372  -20.2914   19.7763 C   0  0  0  0  0  0  0  0  0  0  0  0
    7.9301  -20.5189   18.9812 C   0  0  0  0  0  0  0  0  0  0  0  0
    7.6768  -21.8393   18.3600 C   0  0  0  0  0  0  0  0  0  0  0  0
    7.3088  -22.7585   19.4614 N   0  0  0  0  0  0  0  0  0  0  0  0
    9.7181  -17.3956   22.2287 C   0  0  0  0  0  0  0  0  0  0  0  0
   10.8572  -17.0157   21.9295 O   0  0  0  0  0  0  0  0  0  0  0  0
    8.8857  -16.5420   22.9881 N   0  0  0  0  0  0  0  0  0  0  0  0
    9.2898  -15.1756   23.3794 C   0  0  1  0  0  0  0  0  0  0  0  0
    7.9550  -14.4447   23.5365 C   0  0  0  0  0  0  0  0  0  0  0  0
    7.0662  -14.9899   25.0017 S   0  0  0  0  0  0  0  0  0  0  0  0
   10.0815  -15.2092   24.6077 C   0  0  0  0  0  0  0  0  0  0  0  0
   10.9080  -14.2916   24.8294 O   0  0  0  0  0  0  0  0  0  0  0  0
    9.0570  -14.1115   29.1948 C   0  0  0  0  0  0  0  0  0  0  0  0
    9.7961  -14.4961   27.9401 C   0  0  1  0  0  0  0  0  0  0  0  0
   10.9786  -13.5391   27.7327 C   0  0  0  0  0  0  0  0  0  0  0  0
   10.2974  -15.8901   27.9060 C   0  0  0  0  0  0  0  0  0  0  0  0
   10.8981  -16.3624   26.6295 C   0  0  2  0  0  0  0  0  0  0  0  0
    9.9387  -16.2427   25.5467 N   0  0  0  0  0  0  0  0  0  0  0  0
   11.4569  -17.7173   26.6380 C   0  0  0  0  0  0  0  0  0  0  0  0
   12.3679  -18.0781   27.4310 O   0  0  0  0  0  0  0  0  0  0  0  0
   11.0082  -18.7151   25.7503 O   0  0  0  0  0  0  0  0  0  0  0  0
  2  1  1  6
  3  4  1  0
  3  2  1  0
  5  6  1  0
  5  4  1  0
  7  6  1  0
  8  2  1  0
  8  9  2  0
 10  8  1  0
 11 10  1  0
 11 12  1  1
 13 12  1  0
 14 11  1  0
 15 14  2  0
 17 16  1  1
 17 18  1  0
 20 19  1  1
 19 17  1  0
 20 21  1  0
 21 14  1  0
 22 20  1  0
 23 22  2  0
 24 22  1  0
M  END
$$$$
