KCL.pdb
     RDKit          3D

 24 23  0  0  1  0  0  0  0  0999 V2000
    5.6435  -20.5192   22.1036 N   0  0  0  0  0  0  0  0  0  0  0  0
    5.6485  -19.7322   23.3481 C   0  0  1  0  0  0  0  0  0  0  0  0
    5.6402  -20.6957   24.4674 C   0  0  0  0  0  0  0  0  0  0  0  0
    4.5366  -21.6480   24.5961 C   0  0  0  0  0  0  0  0  0  0  0  0
    4.1698  -22.5925   23.5406 C   0  0  0  0  0  0  0  0  0  0  0  0
    3.0395  -23.5305   23.7307 C   0  0  0  0  0  0  0  0  0  0  0  0
    3.0396  -24.4327   22.5562 N   0  0  0  0  0  0  0  0  0  0  0  0
    6.9982  -19.0045   23.3068 C   0  0  0  0  0  0  0  0  0  0  0  0
    8.0742  -19.5828   23.5052 O   0  0  0  0  0  0  0  0  0  0  0  0
    7.0032  -17.6182   23.0305 N   0  0  0  0  0  0  0  0  0  0  0  0
    8.2422  -16.8132   23.0125 C   0  0  1  0  0  0  0  0  0  0  0  0
    7.9203  -15.6929   22.0215 C   0  0  0  0  0  0  0  0  0  0  0  0
    9.3226  -14.5929   21.7822 S   0  0  0  0  0  0  0  0  0  0  0  0
    8.5556  -16.3282   24.3553 C   0  0  0  0  0  0  0  0  0  0  0  0
    7.8221  -15.4550   24.8783 O   0  0  0  0  0  0  0  0  0  0  0  0
   10.3199  -13.1015   27.6802 C   0  0  0  0  0  0  0  0  0  0  0  0
   10.2132  -14.5569   28.0530 C   0  0  1  0  0  0  0  0  0  0  0  0
    9.4513  -14.6877   29.3794 C   0  0  0  0  0  0  0  0  0  0  0  0
    9.5624  -15.4209   27.0403 C   0  0  0  0  0  0  0  0  0  0  0  0
   10.4135  -15.9146   25.9243 C   0  0  2  0  0  0  0  0  0  0  0  0
    9.6571  -16.8169   25.0752 N   0  0  0  0  0  0  0  0  0  0  0  0
   11.6784  -16.5494   26.3054 C   0  0  0  0  0  0  0  0  0  0  0  0
   11.7681  -17.7685   26.6131 O   0  0  0  0  0  0  0  0  0  0  0  0
   12.8890  -15.8304   26.3545 O   0  0  0  0  0  0  0  0  0  0  0  0
  2  1  1  6
  3  4  1  0
  3  2  1  0
  5  6  1  0
  5  4  1  0
  7  6  1  0
  8  2  1  0
  8  9  2  0
 10  8  1  0
 11 10  1  0
 11 12  1  6
 13 12  1  0
 14 11  1  0
 15 14  2  0
 17 16  1  6
 17 18  1  0
 20 19  1  1
 19 17  1  0
 20 21  1  0
 21 14  1  0
 22 20  1  0
 23 22  2  0
 24 22  1  0
M  END
$$$$
