KCL.pdb
     RDKit          3D

 24 23  0  0  1  0  0  0  0  0999 V2000
    6.3774  -16.5973   20.1316 N   0  0  0  0  0  0  0  0  0  0  0  0
    7.4969  -15.8284   20.7004 C   0  0  1  0  0  0  0  0  0  0  0  0
    7.1253  -14.4014   20.6184 C   0  0  0  0  0  0  0  0  0  0  0  0
    7.2258  -13.6984   19.3389 C   0  0  0  0  0  0  0  0  0  0  0  0
    8.4448  -13.6832   18.5297 C   0  0  0  0  0  0  0  0  0  0  0  0
    8.4973  -12.9163   17.2638 C   0  0  0  0  0  0  0  0  0  0  0  0
    9.8813  -13.0434   16.7522 N   0  0  0  0  0  0  0  0  0  0  0  0
    7.5242  -16.2684   22.1696 C   0  0  0  0  0  0  0  0  0  0  0  0
    6.4940  -16.4743   22.8235 O   0  0  0  0  0  0  0  0  0  0  0  0
    8.7809  -16.4429   22.7929 N   0  0  0  0  0  0  0  0  0  0  0  0
    8.9204  -16.8781   24.1981 C   0  0  1  0  0  0  0  0  0  0  0  0
    9.9621  -17.9958   24.1191 C   0  0  0  0  0  0  0  0  0  0  0  0
   10.4287  -18.5872   25.7521 S   0  0  0  0  0  0  0  0  0  0  0  0
    9.3337  -15.7578   25.0411 C   0  0  0  0  0  0  0  0  0  0  0  0
   10.3301  -15.0732   24.7054 O   0  0  0  0  0  0  0  0  0  0  0  0
    5.8597  -12.3329   27.0114 C   0  0  0  0  0  0  0  0  0  0  0  0
    7.1034  -13.0019   26.4879 C   0  0  1  0  0  0  0  0  0  0  0  0
    7.8529  -12.0310   25.5644 C   0  0  0  0  0  0  0  0  0  0  0  0
    8.0394  -13.4932   27.5262 C   0  0  0  0  0  0  0  0  0  0  0  0
    9.1511  -14.3724   27.0738 C   0  0  2  0  0  0  0  0  0  0  0  0
    8.6418  -15.4277   26.2170 N   0  0  0  0  0  0  0  0  0  0  0  0
    9.9834  -14.9594   28.1278 C   0  0  0  0  0  0  0  0  0  0  0  0
    9.9665  -16.1878   28.4103 O   0  0  0  0  0  0  0  0  0  0  0  0
   10.8652  -14.1805   28.9029 O   0  0  0  0  0  0  0  0  0  0  0  0
  2  1  1  6
  3  4  1  0
  3  2  1  0
  5  6  1  0
  5  4  1  0
  7  6  1  0
  8  2  1  0
  8  9  2  0
 10  8  1  0
 11 10  1  0
 11 12  1  6
 13 12  1  0
 14 11  1  0
 15 14  2  0
 17 16  1  1
 17 18  1  0
 20 19  1  1
 19 17  1  0
 20 21  1  0
 21 14  1  0
 22 20  1  0
 23 22  2  0
 24 22  1  0
M  END
$$$$
