KCL.pdb
     RDKit          3D

 24 23  0  0  1  0  0  0  0  0999 V2000
    9.5654  -16.0617   19.6946 N   0  0  0  0  0  0  0  0  0  0  0  0
    9.0471  -14.7736   20.1847 C   0  0  1  0  0  0  0  0  0  0  0  0
    8.0018  -14.3404   19.2355 C   0  0  0  0  0  0  0  0  0  0  0  0
    8.1168  -14.6929   17.8199 C   0  0  0  0  0  0  0  0  0  0  0  0
    8.0807  -13.7013   16.7446 C   0  0  0  0  0  0  0  0  0  0  0  0
    8.1099  -14.1284   15.3267 C   0  0  0  0  0  0  0  0  0  0  0  0
    8.0287  -12.8932   14.5137 N   0  0  0  0  0  0  0  0  0  0  0  0
    8.4024  -15.1345   21.5289 C   0  0  0  0  0  0  0  0  0  0  0  0
    7.4614  -14.4918   22.0114 O   0  0  0  0  0  0  0  0  0  0  0  0
    8.9103  -16.2471   22.2377 N   0  0  0  0  0  0  0  0  0  0  0  0
    8.4284  -16.6232   23.5829 C   0  0  1  0  0  0  0  0  0  0  0  0
    8.9492  -18.0511   23.7575 C   0  0  0  0  0  0  0  0  0  0  0  0
    8.6279  -18.6791   25.4117 S   0  0  0  0  0  0  0  0  0  0  0  0
    8.9392  -15.6920   24.5872 C   0  0  0  0  0  0  0  0  0  0  0  0
   10.0911  -15.2141   24.4502 O   0  0  0  0  0  0  0  0  0  0  0  0
    5.4060  -12.3554   26.4676 C   0  0  0  0  0  0  0  0  0  0  0  0
    6.6982  -12.9488   25.9709 C   0  0  1  0  0  0  0  0  0  0  0  0
    7.4021  -11.9389   25.0535 C   0  0  0  0  0  0  0  0  0  0  0  0
    7.6443  -13.3741   27.0290 C   0  0  0  0  0  0  0  0  0  0  0  0
    8.7013  -14.3464   26.6408 C   0  0  2  0  0  0  0  0  0  0  0  0
    8.1715  -15.3178   25.7012 N   0  0  0  0  0  0  0  0  0  0  0  0
    9.3729  -15.0469   27.7392 C   0  0  0  0  0  0  0  0  0  0  0  0
    9.9426  -14.4453   28.6892 O   0  0  0  0  0  0  0  0  0  0  0  0
    9.4272  -16.4532   27.8048 O   0  0  0  0  0  0  0  0  0  0  0  0
  2  1  1  6
  3  4  1  0
  3  2  1  0
  5  6  1  0
  5  4  1  0
  7  6  1  0
  8  2  1  0
  8  9  2  0
 10  8  1  0
 11 10  1  0
 11 12  1  1
 13 12  1  0
 14 11  1  0
 15 14  2  0
 17 16  1  1
 17 18  1  0
 20 19  1  1
 19 17  1  0
 20 21  1  0
 21 14  1  0
 22 20  1  0
 23 22  2  0
 24 22  1  0
M  END
$$$$
