KCL.pdb
     RDKit          3D

 24 23  0  0  1  0  0  0  0  0999 V2000
    8.1228  -19.2080   19.7692 N   0  0  0  0  0  0  0  0  0  0  0  0
    7.8183  -17.7863   20.0020 C   0  0  1  0  0  0  0  0  0  0  0  0
    6.7957  -17.3965   19.0101 C   0  0  0  0  0  0  0  0  0  0  0  0
    6.7978  -18.0166   17.6846 C   0  0  0  0  0  0  0  0  0  0  0  0
    5.7768  -18.9690   17.2470 C   0  0  0  0  0  0  0  0  0  0  0  0
    5.7194  -19.4137   15.8355 C   0  0  0  0  0  0  0  0  0  0  0  0
    7.0783  -19.8900   15.4890 N   0  0  0  0  0  0  0  0  0  0  0  0
    7.2015  -17.7769   21.4063 C   0  0  0  0  0  0  0  0  0  0  0  0
    6.1891  -18.4276   21.6946 O   0  0  0  0  0  0  0  0  0  0  0  0
    7.8211  -16.9907   22.4044 N   0  0  0  0  0  0  0  0  0  0  0  0
    7.4242  -17.0497   23.8265 C   0  0  1  0  0  0  0  0  0  0  0  0
    7.5571  -18.5350   24.1683 C   0  0  0  0  0  0  0  0  0  0  0  0
    7.4164  -18.8260   25.9373 S   0  0  0  0  0  0  0  0  0  0  0  0
    8.2869  -16.1888   24.6336 C   0  0  0  0  0  0  0  0  0  0  0  0
    9.5296  -16.2379   24.4678 O   0  0  0  0  0  0  0  0  0  0  0  0
    5.7880  -12.0055   27.0429 C   0  0  0  0  0  0  0  0  0  0  0  0
    6.7751  -12.8034   26.2319 C   0  0  1  0  0  0  0  0  0  0  0  0
    7.3148  -11.9332   25.0880 C   0  0  0  0  0  0  0  0  0  0  0  0
    7.9196  -13.3533   26.9956 C   0  0  0  0  0  0  0  0  0  0  0  0
    8.6589  -14.4896   26.3825 C   0  0  2  0  0  0  0  0  0  0  0  0
    7.7587  -15.3066   25.5892 N   0  0  0  0  0  0  0  0  0  0  0  0
    9.4108  -15.3464   27.3038 C   0  0  0  0  0  0  0  0  0  0  0  0
    9.1423  -16.5654   27.4797 O   0  0  0  0  0  0  0  0  0  0  0  0
   10.4933  -14.8579   28.0617 O   0  0  0  0  0  0  0  0  0  0  0  0
  2  1  1  6
  3  4  1  0
  3  2  1  0
  5  6  1  0
  5  4  1  0
  7  6  1  0
  8  2  1  0
  8  9  2  0
 10  8  1  0
 11 10  1  0
 11 12  1  1
 13 12  1  0
 14 11  1  0
 15 14  2  0
 17 16  1  1
 17 18  1  0
 20 19  1  1
 19 17  1  0
 20 21  1  0
 21 14  1  0
 22 20  1  0
 23 22  2  0
 24 22  1  0
M  END
$$$$
