KCL.pdb
     RDKit          3D

 24 23  0  0  1  0  0  0  0  0999 V2000
    9.5246  -17.0421   20.1181 N   0  0  0  0  0  0  0  0  0  0  0  0
    8.8267  -17.5023   21.3303 C   0  0  1  0  0  0  0  0  0  0  0  0
    9.4608  -18.7728   21.7366 C   0  0  0  0  0  0  0  0  0  0  0  0
   10.6880  -19.2153   21.0734 C   0  0  0  0  0  0  0  0  0  0  0  0
   10.7976  -20.4914   20.3659 C   0  0  0  0  0  0  0  0  0  0  0  0
   12.0928  -20.9242   19.7927 C   0  0  0  0  0  0  0  0  0  0  0  0
   11.8772  -22.2834   19.2452 N   0  0  0  0  0  0  0  0  0  0  0  0
    9.1473  -16.4148   22.3634 C   0  0  0  0  0  0  0  0  0  0  0  0
   10.2687  -15.9015   22.4654 O   0  0  0  0  0  0  0  0  0  0  0  0
    8.1143  -15.9885   23.2291 N   0  0  0  0  0  0  0  0  0  0  0  0
    8.3606  -15.1135   24.3940 C   0  0  1  0  0  0  0  0  0  0  0  0
    6.9632  -14.6070   24.7562 C   0  0  0  0  0  0  0  0  0  0  0  0
    7.0270  -13.0090   25.5785 S   0  0  0  0  0  0  0  0  0  0  0  0
    9.0028  -15.8654   25.4706 C   0  0  0  0  0  0  0  0  0  0  0  0
    8.3824  -16.8124   26.0114 O   0  0  0  0  0  0  0  0  0  0  0  0
    8.8253  -13.4300   29.3317 C   0  0  0  0  0  0  0  0  0  0  0  0
    9.7012  -13.9826   28.2381 C   0  0  1  0  0  0  0  0  0  0  0  0
   11.0570  -13.2627   28.2596 C   0  0  0  0  0  0  0  0  0  0  0  0
    9.9350  -15.4447   28.2960 C   0  0  0  0  0  0  0  0  0  0  0  0
   10.7487  -16.0438   27.2040 C   0  0  2  0  0  0  0  0  0  0  0  0
   10.2980  -15.5547   25.9137 N   0  0  0  0  0  0  0  0  0  0  0  0
   10.8160  -17.5076   27.1739 C   0  0  0  0  0  0  0  0  0  0  0  0
   11.2573  -18.1934   28.1351 O   0  0  0  0  0  0  0  0  0  0  0  0
   10.3886  -18.2514   26.0563 O   0  0  0  0  0  0  0  0  0  0  0  0
  2  1  1  6
  3  4  1  0
  3  2  1  0
  5  6  1  0
  5  4  1  0
  7  6  1  0
  8  2  1  0
  8  9  2  0
 10  8  1  0
 11 10  1  0
 11 12  1  1
 13 12  1  0
 14 11  1  0
 15 14  2  0
 17 16  1  1
 17 18  1  0
 20 19  1  1
 19 17  1  0
 20 21  1  0
 21 14  1  0
 22 20  1  0
 23 22  2  0
 24 22  1  0
M  END
$$$$
