KCL.pdb
     RDKit          3D

 24 23  0  0  1  0  0  0  0  0999 V2000
    7.0212  -16.1297   18.3781 N   0  0  0  0  0  0  0  0  0  0  0  0
    7.9513  -15.4947   19.3268 C   0  0  1  0  0  0  0  0  0  0  0  0
    7.8188  -14.0346   19.1483 C   0  0  0  0  0  0  0  0  0  0  0  0
    8.9943  -13.1762   19.2987 C   0  0  0  0  0  0  0  0  0  0  0  0
   10.3586  -13.6981   19.3834 C   0  0  0  0  0  0  0  0  0  0  0  0
   11.4927  -12.7931   19.6806 C   0  0  0  0  0  0  0  0  0  0  0  0
   12.6913  -13.6520   19.8180 N   0  0  0  0  0  0  0  0  0  0  0  0
    7.3947  -15.8971   20.6983 C   0  0  0  0  0  0  0  0  0  0  0  0
    6.1814  -15.9725   20.9299 O   0  0  0  0  0  0  0  0  0  0  0  0
    8.3119  -16.1915   21.7328 N   0  0  0  0  0  0  0  0  0  0  0  0
    7.8836  -16.6338   23.0761 C   0  0  1  0  0  0  0  0  0  0  0  0
    8.3613  -18.0859   23.1381 C   0  0  0  0  0  0  0  0  0  0  0  0
   10.1356  -18.2146   22.8749 S   0  0  0  0  0  0  0  0  0  0  0  0
    8.4761  -15.7832   24.1068 C   0  0  0  0  0  0  0  0  0  0  0  0
    9.6518  -15.3705   23.9596 O   0  0  0  0  0  0  0  0  0  0  0  0
    7.1887  -12.3431   24.9499 C   0  0  0  0  0  0  0  0  0  0  0  0
    7.3031  -12.4145   26.4500 C   0  0  1  0  0  0  0  0  0  0  0  0
    6.0629  -11.7707   27.0860 C   0  0  0  0  0  0  0  0  0  0  0  0
    7.4721  -13.7779   27.0051 C   0  0  0  0  0  0  0  0  0  0  0  0
    8.4331  -14.6769   26.3110 C   0  0  2  0  0  0  0  0  0  0  0  0
    7.7610  -15.4152   25.2572 N   0  0  0  0  0  0  0  0  0  0  0  0
    9.1779  -15.6101   27.1612 C   0  0  0  0  0  0  0  0  0  0  0  0
   10.0546  -15.2356   27.9859 O   0  0  0  0  0  0  0  0  0  0  0  0
    8.9611  -17.0012   27.1105 O   0  0  0  0  0  0  0  0  0  0  0  0
  2  1  1  6
  3  4  1  0
  3  2  1  0
  5  6  1  0
  5  4  1  0
  7  6  1  0
  8  2  1  0
  8  9  2  0
 10  8  1  0
 11 10  1  0
 11 12  1  1
 13 12  1  0
 14 11  1  0
 15 14  2  0
 17 16  1  6
 17 18  1  0
 20 19  1  1
 19 17  1  0
 20 21  1  0
 21 14  1  0
 22 20  1  0
 23 22  2  0
 24 22  1  0
M  END
$$$$
