VDS.pdb
     RDKit          3D

 22 21  0  0  1  0  0  0  0  0999 V2000
   18.7109  -13.1438  -17.9177 C   0  0  0  0  0  0  0  0  0  0  0  0
   18.3060  -13.2730  -16.4924 C   0  0  2  0  0  0  0  0  0  0  0  0
   16.9689  -13.9692  -16.4030 C   0  0  0  0  0  0  0  0  0  0  0  0
   18.3632  -12.0253  -15.6700 C   0  0  2  0  0  0  0  0  0  0  0  0
   17.1274  -11.2851  -16.0080 N   0  0  0  0  0  0  0  0  0  0  0  0
   19.4885  -11.1227  -15.9606 C   0  0  0  0  0  0  0  0  0  0  0  0
   20.6621  -11.5005  -15.6191 O   0  0  0  0  0  0  0  0  0  0  0  0
   19.4314   -9.8689  -16.5837 N   0  0  0  0  0  0  0  0  0  0  0  0
   20.5926   -8.9581  -16.6997 C   0  0  1  0  0  0  0  0  0  0  0  0
   20.6473   -8.6534  -18.1819 C   0  0  0  0  0  0  0  0  0  0  0  0
   21.2875   -9.6431  -19.0197 C   0  0  0  0  0  0  0  0  0  0  0  0
   20.7240  -10.1489  -20.0060 O   0  0  0  0  0  0  0  0  0  0  0  0
   20.3918   -7.7729  -15.8493 C   0  0  0  0  0  0  0  0  0  0  0  0
   19.2631   -7.2498  -15.7141 O   0  0  0  0  0  0  0  0  0  0  0  0
   22.5784  -10.0470  -18.7161 O   0  0  0  0  0  0  0  0  0  0  0  0
   22.2742   -4.6557  -12.5733 O   0  0  0  0  0  0  0  0  0  0  0  0
   22.4994   -5.6699  -13.4685 C   0  0  0  0  0  0  0  0  0  0  0  0
   21.2524   -5.9990  -14.2569 C   0  0  2  0  0  0  0  0  0  0  0  0
   21.4423   -7.1351  -15.1239 N   0  0  0  0  0  0  0  0  0  0  0  0
   20.9204   -4.8172  -15.1126 C   0  0  0  0  0  0  0  0  0  0  0  0
   20.1027   -3.7845  -14.6677 O   0  0  0  0  0  0  0  0  0  0  0  0
   21.3709   -4.7070  -16.2806 O   0  0  0  0  0  0  0  0  0  0  0  0
  2  3  1  6
  2  4  1  0
  2  1  1  0
  4  6  1  0
  4  5  1  6
  6  8  1  0
  6  7  2  0
  8  9  1  0
  9 13  1  0
  9 10  1  6
 11 15  1  0
 11 10  1  0
 12 11  2  0
 13 14  2  0
 17 16  1  0
 18 17  1  6
 19 18  1  0
 19 13  1  0
 20 21  1  0
 20 18  1  0
 22 20  2  0
M  END
$$$$
