VDS.pdb
     RDKit          3D

 22 21  0  0  1  0  0  0  0  0999 V2000
   16.8924  -13.5820  -17.3614 C   0  0  0  0  0  0  0  0  0  0  0  0
   18.1547  -13.4886  -16.5806 C   0  0  2  0  0  0  0  0  0  0  0  0
   17.8400  -13.1703  -15.1382 C   0  0  0  0  0  0  0  0  0  0  0  0
   19.2220  -12.6071  -17.1465 C   0  0  2  0  0  0  0  0  0  0  0  0
   20.4317  -12.9075  -16.3490 N   0  0  0  0  0  0  0  0  0  0  0  0
   18.9840  -11.1602  -17.0234 C   0  0  0  0  0  0  0  0  0  0  0  0
   18.0134  -10.6551  -17.6862 O   0  0  0  0  0  0  0  0  0  0  0  0
   19.7070  -10.2445  -16.2474 N   0  0  0  0  0  0  0  0  0  0  0  0
   19.3967   -8.7984  -16.1855 C   0  0  1  0  0  0  0  0  0  0  0  0
   18.0099   -8.7672  -15.5783 C   0  0  0  0  0  0  0  0  0  0  0  0
   17.4175   -7.4611  -15.3923 C   0  0  0  0  0  0  0  0  0  0  0  0
   18.1003   -6.4361  -15.2217 O   0  0  0  0  0  0  0  0  0  0  0  0
   20.4174   -8.0964  -15.3895 C   0  0  0  0  0  0  0  0  0  0  0  0
   20.7614   -8.5085  -14.2592 O   0  0  0  0  0  0  0  0  0  0  0  0
   16.0365   -7.3418  -15.4037 O   0  0  0  0  0  0  0  0  0  0  0  0
   23.6267   -6.2787  -17.1338 O   0  0  0  0  0  0  0  0  0  0  0  0
   23.0749   -5.5170  -16.1359 C   0  0  0  0  0  0  0  0  0  0  0  0
   22.2515   -6.3589  -15.1883 C   0  0  2  0  0  0  0  0  0  0  0  0
   21.0856   -6.9144  -15.8290 N   0  0  0  0  0  0  0  0  0  0  0  0
   21.7872   -5.4784  -14.0711 C   0  0  0  0  0  0  0  0  0  0  0  0
   22.4108   -5.4642  -12.8285 O   0  0  0  0  0  0  0  0  0  0  0  0
   20.8048   -4.7071  -14.2099 O   0  0  0  0  0  0  0  0  0  0  0  0
  2  3  1  1
  2  4  1  0
  2  1  1  0
  4  6  1  0
  4  5  1  1
  6  8  1  0
  6  7  2  0
  8  9  1  0
  9 13  1  0
  9 10  1  1
 11 15  1  0
 11 10  1  0
 12 11  2  0
 13 14  2  0
 17 16  1  0
 18 17  1  6
 19 18  1  0
 19 13  1  0
 20 21  1  0
 20 18  1  0
 22 20  2  0
M  END
$$$$
