VDS.pdb
     RDKit          3D

 22 21  0  0  1  0  0  0  0  0999 V2000
   16.9293  -10.5332  -15.4973 C   0  0  0  0  0  0  0  0  0  0  0  0
   17.3197  -11.3645  -14.3275 C   0  0  2  0  0  0  0  0  0  0  0  0
   17.6032  -12.7778  -14.7778 C   0  0  0  0  0  0  0  0  0  0  0  0
   16.4121  -11.3082  -13.1402 C   0  0  2  0  0  0  0  0  0  0  0  0
   15.1597  -11.9604  -13.5824 N   0  0  0  0  0  0  0  0  0  0  0  0
   16.0461   -9.9584  -12.6825 C   0  0  0  0  0  0  0  0  0  0  0  0
   15.0914   -9.3598  -13.2880 O   0  0  0  0  0  0  0  0  0  0  0  0
   16.6283   -9.2304  -11.6363 N   0  0  0  0  0  0  0  0  0  0  0  0
   16.2138   -7.8593  -11.2625 C   0  0  1  0  0  0  0  0  0  0  0  0
   16.4215   -7.8311   -9.7629 C   0  0  0  0  0  0  0  0  0  0  0  0
   16.0828   -6.5973   -9.0889 C   0  0  0  0  0  0  0  0  0  0  0  0
   15.6431   -5.6043   -9.6944 O   0  0  0  0  0  0  0  0  0  0  0  0
   17.0178   -6.8700  -11.9995 C   0  0  0  0  0  0  0  0  0  0  0  0
   18.2660   -6.9471  -12.0459 O   0  0  0  0  0  0  0  0  0  0  0  0
   16.2532   -6.5130   -7.7158 O   0  0  0  0  0  0  0  0  0  0  0  0
   15.6599   -5.0558  -15.2836 O   0  0  0  0  0  0  0  0  0  0  0  0
   16.9968   -5.0270  -14.9798 C   0  0  0  0  0  0  0  0  0  0  0  0
   17.2235   -4.8362  -13.4976 C   0  0  2  0  0  0  0  0  0  0  0  0
   16.4556   -5.7655  -12.7069 N   0  0  0  0  0  0  0  0  0  0  0  0
   16.7843   -3.4521  -13.1366 C   0  0  0  0  0  0  0  0  0  0  0  0
   17.4460   -2.3192  -13.5970 O   0  0  0  0  0  0  0  0  0  0  0  0
   15.7895   -3.2529  -12.3951 O   0  0  0  0  0  0  0  0  0  0  0  0
  2  3  1  6
  2  4  1  0
  2  1  1  0
  4  6  1  0
  4  5  1  6
  6  8  1  0
  6  7  2  0
  8  9  1  0
  9 13  1  0
  9 10  1  1
 11 15  1  0
 11 10  1  0
 12 11  2  0
 13 14  2  0
 17 16  1  0
 18 17  1  6
 19 18  1  0
 19 13  1  0
 20 21  1  0
 20 18  1  0
 22 20  2  0
M  END
$$$$
