VDS.pdb
     RDKit          3D

 22 21  0  0  1  0  0  0  0  0999 V2000
   12.4669  -10.9489   -9.2349 C   0  0  0  0  0  0  0  0  0  0  0  0
   12.1739  -11.2290  -10.6659 C   0  0  2  0  0  0  0  0  0  0  0  0
   10.8856  -12.0087  -10.7798 C   0  0  0  0  0  0  0  0  0  0  0  0
   13.2851  -11.8302  -11.4660 C   0  0  2  0  0  0  0  0  0  0  0  0
   13.5531  -13.1387  -10.8291 N   0  0  0  0  0  0  0  0  0  0  0  0
   14.5545  -11.0861  -11.4515 C   0  0  0  0  0  0  0  0  0  0  0  0
   15.4332  -11.4189  -10.5834 O   0  0  0  0  0  0  0  0  0  0  0  0
   14.9298  -10.0321  -12.2953 N   0  0  0  0  0  0  0  0  0  0  0  0
   16.2334   -9.3363  -12.2068 C   0  0  1  0  0  0  0  0  0  0  0  0
   16.8348   -9.5513  -13.5797 C   0  0  0  0  0  0  0  0  0  0  0  0
   18.1614   -9.0162  -13.7927 C   0  0  0  0  0  0  0  0  0  0  0  0
   18.8100   -8.4595  -12.8897 O   0  0  0  0  0  0  0  0  0  0  0  0
   16.0277   -7.9212  -11.8555 C   0  0  0  0  0  0  0  0  0  0  0  0
   15.1432   -7.2323  -12.4113 O   0  0  0  0  0  0  0  0  0  0  0  0
   18.7363   -9.1255  -15.0493 O   0  0  0  0  0  0  0  0  0  0  0  0
   18.0098   -6.2796   -8.6122 O   0  0  0  0  0  0  0  0  0  0  0  0
   16.8354   -5.6756   -8.9816 C   0  0  0  0  0  0  0  0  0  0  0  0
   16.5486   -5.8762  -10.4521 C   0  0  2  0  0  0  0  0  0  0  0  0
   16.8011   -7.2313  -10.8744 N   0  0  0  0  0  0  0  0  0  0  0  0
   17.4573   -4.9753  -11.2279 C   0  0  0  0  0  0  0  0  0  0  0  0
   17.3965   -3.5902  -11.1231 O   0  0  0  0  0  0  0  0  0  0  0  0
   18.3220   -5.4368  -12.0144 O   0  0  0  0  0  0  0  0  0  0  0  0
  2  3  1  1
  2  4  1  0
  2  1  1  0
  4  6  1  0
  4  5  1  1
  6  8  1  0
  6  7  2  0
  8  9  1  0
  9 13  1  0
  9 10  1  6
 11 15  1  0
 11 10  1  0
 12 11  2  0
 13 14  2  0
 17 16  1  0
 18 17  1  1
 19 18  1  0
 19 13  1  0
 20 21  1  0
 20 18  1  0
 22 20  2  0
M  END
$$$$
