VDS.pdb
     RDKit          3D

 22 21  0  0  1  0  0  0  0  0999 V2000
   13.0919   -8.3149   -8.5879 C   0  0  0  0  0  0  0  0  0  0  0  0
   12.9636   -9.1390   -9.8194 C   0  0  2  0  0  0  0  0  0  0  0  0
   12.2344  -10.4225   -9.5006 C   0  0  0  0  0  0  0  0  0  0  0  0
   14.2187   -9.3668  -10.5999 C   0  0  2  0  0  0  0  0  0  0  0  0
   15.0009  -10.3325   -9.7968 N   0  0  0  0  0  0  0  0  0  0  0  0
   15.0741   -8.1844  -10.7886 C   0  0  0  0  0  0  0  0  0  0  0  0
   14.6613   -7.2673  -11.5792 O   0  0  0  0  0  0  0  0  0  0  0  0
   16.3163   -7.9319  -10.1913 N   0  0  0  0  0  0  0  0  0  0  0  0
   17.1426   -6.7408  -10.4913 C   0  0  1  0  0  0  0  0  0  0  0  0
   17.1831   -6.0050   -9.1685 C   0  0  0  0  0  0  0  0  0  0  0  0
   16.1062   -5.0733   -8.9166 C   0  0  0  0  0  0  0  0  0  0  0  0
   15.3854   -4.6241   -9.8248 O   0  0  0  0  0  0  0  0  0  0  0  0
   18.4648   -7.1558  -10.9891 C   0  0  0  0  0  0  0  0  0  0  0  0
   19.0315   -8.1848  -10.5577 O   0  0  0  0  0  0  0  0  0  0  0  0
   15.8641   -4.6619   -7.6152 O   0  0  0  0  0  0  0  0  0  0  0  0
   21.2478   -8.5064  -14.1871 O   0  0  0  0  0  0  0  0  0  0  0  0
   20.0984   -8.0324  -13.6084 C   0  0  0  0  0  0  0  0  0  0  0  0
   20.3919   -6.9278  -12.6193 C   0  0  2  0  0  0  0  0  0  0  0  0
   19.1951   -6.4372  -11.9825 N   0  0  0  0  0  0  0  0  0  0  0  0
   21.0149   -5.7909  -13.3665 C   0  0  0  0  0  0  0  0  0  0  0  0
   22.3899   -5.5871  -13.3971 O   0  0  0  0  0  0  0  0  0  0  0  0
   20.3152   -4.9643  -14.0040 O   0  0  0  0  0  0  0  0  0  0  0  0
  2  3  1  1
  2  4  1  0
  2  1  1  0
  4  6  1  0
  4  5  1  1
  6  8  1  0
  6  7  2  0
  8  9  1  0
  9 13  1  0
  9 10  1  1
 11 15  1  0
 11 10  1  0
 12 11  2  0
 13 14  2  0
 17 16  1  0
 18 17  1  6
 19 18  1  0
 19 13  1  0
 20 21  1  0
 20 18  1  0
 22 20  2  0
M  END
$$$$
