VDS.pdb
     RDKit          3D

 22 21  0  0  1  0  0  0  0  0999 V2000
   16.3914  -11.5196  -17.4788 C   0  0  0  0  0  0  0  0  0  0  0  0
   17.7280  -12.1697  -17.5312 C   0  0  2  0  0  0  0  0  0  0  0  0
   17.5831  -13.6540  -17.2930 C   0  0  0  0  0  0  0  0  0  0  0  0
   18.8002  -11.5524  -16.6912 C   0  0  2  0  0  0  0  0  0  0  0  0
   18.6240  -12.1446  -15.3466 N   0  0  0  0  0  0  0  0  0  0  0  0
   18.7160  -10.0928  -16.5236 C   0  0  0  0  0  0  0  0  0  0  0  0
   19.1116   -9.3557  -17.4914 O   0  0  0  0  0  0  0  0  0  0  0  0
   18.2412   -9.3931  -15.4062 N   0  0  0  0  0  0  0  0  0  0  0  0
   18.2544   -7.9168  -15.2978 C   0  0  1  0  0  0  0  0  0  0  0  0
   16.8865   -7.5987  -14.7316 C   0  0  0  0  0  0  0  0  0  0  0  0
   16.6113   -6.2059  -14.4565 C   0  0  0  0  0  0  0  0  0  0  0  0
   16.5186   -5.7591  -13.2999 O   0  0  0  0  0  0  0  0  0  0  0  0
   19.3737   -7.4829  -14.4451 C   0  0  0  0  0  0  0  0  0  0  0  0
   19.9810   -8.2885  -13.7047 O   0  0  0  0  0  0  0  0  0  0  0  0
   16.4436   -5.3315  -15.5189 O   0  0  0  0  0  0  0  0  0  0  0  0
   23.4907   -6.0380  -14.6800 O   0  0  0  0  0  0  0  0  0  0  0  0
   22.2151   -6.4674  -14.9429 C   0  0  0  0  0  0  0  0  0  0  0  0
   21.2044   -5.7735  -14.0586 C   0  0  2  0  0  0  0  0  0  0  0  0
   19.8502   -6.1388  -14.3918 N   0  0  0  0  0  0  0  0  0  0  0  0
   21.3467   -4.2980  -14.2627 C   0  0  0  0  0  0  0  0  0  0  0  0
   22.1185   -3.5031  -13.4227 O   0  0  0  0  0  0  0  0  0  0  0  0
   20.7692   -3.7092  -15.2110 O   0  0  0  0  0  0  0  0  0  0  0  0
  2  3  1  1
  2  4  1  0
  2  1  1  0
  4  6  1  0
  4  5  1  1
  6  8  1  0
  6  7  2  0
  8  9  1  0
  9 13  1  0
  9 10  1  1
 11 15  1  0
 11 10  1  0
 12 11  2  0
 13 14  2  0
 17 16  1  0
 18 17  1  6
 19 18  1  0
 19 13  1  0
 20 21  1  0
 20 18  1  0
 22 20  2  0
M  END
$$$$
