VDS.pdb
     RDKit          3D

 22 21  0  0  1  0  0  0  0  0999 V2000
   19.7250  -11.0688  -16.6423 C   0  0  0  0  0  0  0  0  0  0  0  0
   20.7680  -10.7820  -17.6630 C   0  0  2  0  0  0  0  0  0  0  0  0
   21.4001  -12.0739  -18.1234 C   0  0  0  0  0  0  0  0  0  0  0  0
   21.7793   -9.7403  -17.3046 C   0  0  2  0  0  0  0  0  0  0  0  0
   22.6805  -10.3977  -16.3324 N   0  0  0  0  0  0  0  0  0  0  0  0
   21.2477   -8.5389  -16.6416 C   0  0  0  0  0  0  0  0  0  0  0  0
   20.5667   -7.7178  -17.3476 O   0  0  0  0  0  0  0  0  0  0  0  0
   21.3977   -8.1756  -15.2966 N   0  0  0  0  0  0  0  0  0  0  0  0
   20.8322   -6.9376  -14.7145 C   0  0  1  0  0  0  0  0  0  0  0  0
   20.4533   -7.3568  -13.3096 C   0  0  0  0  0  0  0  0  0  0  0  0
   19.1614   -7.9874  -13.1521 C   0  0  0  0  0  0  0  0  0  0  0  0
   18.3624   -8.1180  -14.0958 O   0  0  0  0  0  0  0  0  0  0  0  0
   21.8268   -5.8531  -14.7705 C   0  0  0  0  0  0  0  0  0  0  0  0
   23.0441   -6.0731  -14.5816 O   0  0  0  0  0  0  0  0  0  0  0  0
   18.7949   -8.4660  -11.9039 O   0  0  0  0  0  0  0  0  0  0  0  0
   22.3239   -3.6800  -17.6396 O   0  0  0  0  0  0  0  0  0  0  0  0
   23.1962   -3.6378  -16.5823 C   0  0  0  0  0  0  0  0  0  0  0  0
   22.4676   -3.4527  -15.2709 C   0  0  2  0  0  0  0  0  0  0  0  0
   21.4950   -4.4913  -15.0390 N   0  0  0  0  0  0  0  0  0  0  0  0
   21.7412   -2.1457  -15.3256 C   0  0  0  0  0  0  0  0  0  0  0  0
   22.4049   -0.9247  -15.2813 O   0  0  0  0  0  0  0  0  0  0  0  0
   20.4886   -2.0956  -15.4146 O   0  0  0  0  0  0  0  0  0  0  0  0
  2  3  1  1
  2  4  1  0
  2  1  1  0
  4  6  1  0
  4  5  1  1
  6  8  1  0
  6  7  2  0
  8  9  1  0
  9 13  1  0
  9 10  1  1
 11 15  1  0
 11 10  1  0
 12 11  2  0
 13 14  2  0
 17 16  1  0
 18 17  1  6
 19 18  1  0
 19 13  1  0
 20 21  1  0
 20 18  1  0
 22 20  2  0
M  END
$$$$
