VDS.pdb
     RDKit          3D

 22 21  0  0  1  0  0  0  0  0999 V2000
   19.6342  -12.8804  -16.2477 C   0  0  0  0  0  0  0  0  0  0  0  0
   18.3431  -12.1876  -15.9927 C   0  0  2  0  0  0  0  0  0  0  0  0
   17.2328  -12.8863  -16.7408 C   0  0  0  0  0  0  0  0  0  0  0  0
   18.3329  -10.7060  -16.1961 C   0  0  2  0  0  0  0  0  0  0  0  0
   18.2148  -10.5196  -17.6592 N   0  0  0  0  0  0  0  0  0  0  0  0
   19.5530   -9.9978  -15.7776 C   0  0  0  0  0  0  0  0  0  0  0  0
   19.8137   -9.9431  -14.5264 O   0  0  0  0  0  0  0  0  0  0  0  0
   20.4900   -9.3618  -16.6028 N   0  0  0  0  0  0  0  0  0  0  0  0
   21.6767   -8.6403  -16.0903 C   0  0  1  0  0  0  0  0  0  0  0  0
   22.7738   -9.0528  -17.0490 C   0  0  0  0  0  0  0  0  0  0  0  0
   23.2977  -10.3914  -16.8907 C   0  0  0  0  0  0  0  0  0  0  0  0
   23.4394  -10.9259  -15.7770 O   0  0  0  0  0  0  0  0  0  0  0  0
   21.4146   -7.1915  -16.0641 C   0  0  0  0  0  0  0  0  0  0  0  0
   20.9352   -6.5966  -17.0552 O   0  0  0  0  0  0  0  0  0  0  0  0
   23.6573  -11.1103  -18.0200 O   0  0  0  0  0  0  0  0  0  0  0  0
   19.5672   -3.4294  -14.4031 O   0  0  0  0  0  0  0  0  0  0  0  0
   19.8600   -4.7555  -14.5933 C   0  0  0  0  0  0  0  0  0  0  0  0
   21.3336   -4.9645  -14.8571 C   0  0  2  0  0  0  0  0  0  0  0  0
   21.6786   -6.3622  -14.9331 N   0  0  0  0  0  0  0  0  0  0  0  0
   22.0973   -4.3630  -13.7196 C   0  0  0  0  0  0  0  0  0  0  0  0
   22.8474   -5.1339  -12.8386 O   0  0  0  0  0  0  0  0  0  0  0  0
   22.0931   -3.1238  -13.5104 O   0  0  0  0  0  0  0  0  0  0  0  0
  2  3  1  6
  2  4  1  0
  2  1  1  0
  4  6  1  0
  4  5  1  6
  6  8  1  0
  6  7  2  0
  8  9  1  0
  9 13  1  0
  9 10  1  6
 11 15  1  0
 11 10  1  0
 12 11  2  0
 13 14  2  0
 17 16  1  0
 18 17  1  1
 19 18  1  0
 19 13  1  0
 20 21  1  0
 20 18  1  0
 22 20  2  0
M  END
$$$$
