VDS.pdb
     RDKit          3D

 22 21  0  0  1  0  0  0  0  0999 V2000
   18.5957  -12.2083  -18.4216 C   0  0  0  0  0  0  0  0  0  0  0  0
   19.0480  -12.8215  -17.1443 C   0  0  2  0  0  0  0  0  0  0  0  0
   18.1414  -13.9739  -16.7826 C   0  0  0  0  0  0  0  0  0  0  0  0
   19.2743  -11.8843  -16.0012 C   0  0  2  0  0  0  0  0  0  0  0  0
   17.9200  -11.5127  -15.5348 N   0  0  0  0  0  0  0  0  0  0  0  0
   19.9649  -10.6285  -16.3349 C   0  0  0  0  0  0  0  0  0  0  0  0
   21.2082  -10.6896  -16.6297 O   0  0  0  0  0  0  0  0  0  0  0  0
   19.4131   -9.3410  -16.3730 N   0  0  0  0  0  0  0  0  0  0  0  0
   20.1900   -8.1264  -16.7084 C   0  0  1  0  0  0  0  0  0  0  0  0
   19.6736   -7.7531  -18.0820 C   0  0  0  0  0  0  0  0  0  0  0  0
   20.2640   -8.4498  -19.2033 C   0  0  0  0  0  0  0  0  0  0  0  0
   21.4898   -8.6311  -19.3067 O   0  0  0  0  0  0  0  0  0  0  0  0
   19.9758   -7.0909  -15.6837 C   0  0  0  0  0  0  0  0  0  0  0  0
   18.8642   -6.9414  -15.1289 O   0  0  0  0  0  0  0  0  0  0  0  0
   19.4366   -8.9358  -20.2037 O   0  0  0  0  0  0  0  0  0  0  0  0
   22.7291   -5.8556  -12.9419 O   0  0  0  0  0  0  0  0  0  0  0  0
   22.1248   -4.8004  -13.5758 C   0  0  0  0  0  0  0  0  0  0  0  0
   20.8130   -5.2106  -14.2050 C   0  0  2  0  0  0  0  0  0  0  0  0
   20.9935   -6.1912  -15.2463 N   0  0  0  0  0  0  0  0  0  0  0  0
   20.1944   -3.9947  -14.8198 C   0  0  0  0  0  0  0  0  0  0  0  0
   19.3818   -3.1286  -14.0968 O   0  0  0  0  0  0  0  0  0  0  0  0
   20.3849   -3.7021  -16.0271 O   0  0  0  0  0  0  0  0  0  0  0  0
  2  3  1  1
  2  4  1  0
  2  1  1  0
  4  6  1  0
  4  5  1  6
  6  8  1  0
  6  7  2  0
  8  9  1  0
  9 13  1  0
  9 10  1  6
 11 15  1  0
 11 10  1  0
 12 11  2  0
 13 14  2  0
 17 16  1  0
 18 17  1  6
 19 18  1  0
 19 13  1  0
 20 21  1  0
 20 18  1  0
 22 20  2  0
M  END
$$$$
