VDS.pdb
     RDKit          3D

 22 21  0  0  1  0  0  0  0  0999 V2000
   22.2083  -11.5625  -15.0013 C   0  0  0  0  0  0  0  0  0  0  0  0
   21.3981  -11.5925  -16.2482 C   0  0  2  0  0  0  0  0  0  0  0  0
   21.9302  -12.6580  -17.1768 C   0  0  0  0  0  0  0  0  0  0  0  0
   21.1875  -10.2810  -16.9351 C   0  0  2  0  0  0  0  0  0  0  0  0
   22.5013   -9.9402  -17.5244 N   0  0  0  0  0  0  0  0  0  0  0  0
   20.8130   -9.1578  -16.0611 C   0  0  0  0  0  0  0  0  0  0  0  0
   19.6305   -9.1479  -15.5732 O   0  0  0  0  0  0  0  0  0  0  0  0
   21.6142   -8.0711  -15.6860 N   0  0  0  0  0  0  0  0  0  0  0  0
   21.1348   -6.9524  -14.8433 C   0  0  1  0  0  0  0  0  0  0  0  0
   22.3743   -6.5396  -14.0776 C   0  0  0  0  0  0  0  0  0  0  0  0
   22.2305   -5.4182  -13.1759 C   0  0  0  0  0  0  0  0  0  0  0  0
   21.7974   -5.5440  -12.0171 O   0  0  0  0  0  0  0  0  0  0  0  0
   20.5691   -5.8887  -15.6899 C   0  0  0  0  0  0  0  0  0  0  0  0
   21.0996   -5.5677  -16.7768 O   0  0  0  0  0  0  0  0  0  0  0  0
   22.5874   -4.1527  -13.6149 O   0  0  0  0  0  0  0  0  0  0  0  0
   17.1358   -4.1082  -18.0239 O   0  0  0  0  0  0  0  0  0  0  0  0
   17.8754   -4.9791  -17.2655 C   0  0  0  0  0  0  0  0  0  0  0  0
   18.7214   -4.2467  -16.2492 C   0  0  2  0  0  0  0  0  0  0  0  0
   19.3953   -5.1510  -15.3512 N   0  0  0  0  0  0  0  0  0  0  0  0
   17.8164   -3.3777  -15.4339 C   0  0  0  0  0  0  0  0  0  0  0  0
   17.2301   -2.2267  -15.9484 O   0  0  0  0  0  0  0  0  0  0  0  0
   17.5453   -3.6538  -14.2382 O   0  0  0  0  0  0  0  0  0  0  0  0
  2  3  1  6
  2  4  1  0
  2  1  1  0
  4  6  1  0
  4  5  1  1
  6  8  1  0
  6  7  2  0
  8  9  1  0
  9 13  1  0
  9 10  1  6
 11 15  1  0
 11 10  1  0
 12 11  2  0
 13 14  2  0
 17 16  1  0
 18 17  1  6
 19 18  1  0
 19 13  1  0
 20 21  1  0
 20 18  1  0
 22 20  2  0
M  END
$$$$
