VDS.pdb
     RDKit          3D

 22 21  0  0  1  0  0  0  0  0999 V2000
   21.5664  -11.8960  -15.1470 C   0  0  0  0  0  0  0  0  0  0  0  0
   20.6576  -11.8684  -16.3240 C   0  0  2  0  0  0  0  0  0  0  0  0
   21.0527  -12.9518  -17.2991 C   0  0  0  0  0  0  0  0  0  0  0  0
   20.4654  -10.5402  -16.9837 C   0  0  2  0  0  0  0  0  0  0  0  0
   21.7404  -10.2710  -17.6847 N   0  0  0  0  0  0  0  0  0  0  0  0
   20.2358   -9.4056  -16.0751 C   0  0  0  0  0  0  0  0  0  0  0  0
   19.1124   -9.3446  -15.4663 O   0  0  0  0  0  0  0  0  0  0  0  0
   21.1205   -8.3582  -15.7854 N   0  0  0  0  0  0  0  0  0  0  0  0
   20.7781   -7.2156  -14.9088 C   0  0  1  0  0  0  0  0  0  0  0  0
   22.1037   -6.8604  -14.2688 C   0  0  0  0  0  0  0  0  0  0  0  0
   22.1030   -5.7241  -13.3743 C   0  0  0  0  0  0  0  0  0  0  0  0
   21.4410   -5.7027  -12.3220 O   0  0  0  0  0  0  0  0  0  0  0  0
   20.1844   -6.1284  -15.7049 C   0  0  0  0  0  0  0  0  0  0  0  0
   20.6768   -5.7773  -16.8004 O   0  0  0  0  0  0  0  0  0  0  0  0
   22.8676   -4.6139  -13.6976 O   0  0  0  0  0  0  0  0  0  0  0  0
   16.2490   -5.0650  -15.4589 O   0  0  0  0  0  0  0  0  0  0  0  0
   17.0254   -4.6643  -16.5158 C   0  0  0  0  0  0  0  0  0  0  0  0
   18.4330   -4.3343  -16.0746 C   0  0  2  0  0  0  0  0  0  0  0  0
   19.0244   -5.3999  -15.3045 N   0  0  0  0  0  0  0  0  0  0  0  0
   18.3724   -3.1173  -15.2060 C   0  0  0  0  0  0  0  0  0  0  0  0
   17.9227   -1.8894  -15.6783 O   0  0  0  0  0  0  0  0  0  0  0  0
   18.7287   -3.1539  -14.0014 O   0  0  0  0  0  0  0  0  0  0  0  0
  2  3  1  6
  2  4  1  0
  2  1  1  0
  4  6  1  0
  4  5  1  1
  6  8  1  0
  6  7  2  0
  8  9  1  0
  9 13  1  0
  9 10  1  6
 11 15  1  0
 11 10  1  0
 12 11  2  0
 13 14  2  0
 17 16  1  0
 18 17  1  1
 19 18  1  0
 19 13  1  0
 20 21  1  0
 20 18  1  0
 22 20  2  0
M  END
$$$$
