VDS.pdb
     RDKit          3D

 22 21  0  0  1  0  0  0  0  0999 V2000
   19.9970  -12.1828  -16.0383 C   0  0  0  0  0  0  0  0  0  0  0  0
   18.5898  -11.9632  -15.6096 C   0  0  2  0  0  0  0  0  0  0  0  0
   17.6989  -13.0160  -16.2248 C   0  0  0  0  0  0  0  0  0  0  0  0
   18.0513  -10.5788  -15.7821 C   0  0  2  0  0  0  0  0  0  0  0  0
   17.7153  -10.4732  -17.2192 N   0  0  0  0  0  0  0  0  0  0  0  0
   18.9943   -9.4880  -15.4880 C   0  0  0  0  0  0  0  0  0  0  0  0
   19.2006   -9.1900  -14.2612 O   0  0  0  0  0  0  0  0  0  0  0  0
   19.7144   -8.7173  -16.4105 N   0  0  0  0  0  0  0  0  0  0  0  0
   20.7051   -7.6884  -16.0218 C   0  0  1  0  0  0  0  0  0  0  0  0
   21.8870   -7.9887  -16.9195 C   0  0  0  0  0  0  0  0  0  0  0  0
   23.0596   -7.1619  -16.7385 C   0  0  0  0  0  0  0  0  0  0  0  0
   23.0986   -6.2284  -15.9181 O   0  0  0  0  0  0  0  0  0  0  0  0
   20.1357   -6.3432  -16.2076 C   0  0  0  0  0  0  0  0  0  0  0  0
   19.4273   -6.0655  -17.2011 O   0  0  0  0  0  0  0  0  0  0  0  0
   24.1856   -7.4153  -17.5064 O   0  0  0  0  0  0  0  0  0  0  0  0
   17.6427   -2.8139  -15.0488 O   0  0  0  0  0  0  0  0  0  0  0  0
   18.2207   -4.0575  -15.0521 C   0  0  0  0  0  0  0  0  0  0  0  0
   19.6905   -3.9835  -15.3972 C   0  0  2  0  0  0  0  0  0  0  0  0
   20.3380   -5.2673  -15.2921 N   0  0  0  0  0  0  0  0  0  0  0  0
   20.3480   -3.0553  -14.4250 C   0  0  0  0  0  0  0  0  0  0  0  0
   20.0889   -1.6894  -14.4109 O   0  0  0  0  0  0  0  0  0  0  0  0
   21.1701   -3.4749  -13.5721 O   0  0  0  0  0  0  0  0  0  0  0  0
  2  3  1  6
  2  4  1  0
  2  1  1  0
  4  6  1  0
  4  5  1  6
  6  8  1  0
  6  7  2  0
  8  9  1  0
  9 13  1  0
  9 10  1  6
 11 15  1  0
 11 10  1  0
 12 11  2  0
 13 14  2  0
 17 16  1  0
 18 17  1  1
 19 18  1  0
 19 13  1  0
 20 21  1  0
 20 18  1  0
 22 20  2  0
M  END
$$$$
