VDS.pdb
     RDKit          3D

 22 21  0  0  1  0  0  0  0  0999 V2000
   24.3944  -10.8908  -17.8247 C   0  0  0  0  0  0  0  0  0  0  0  0
   24.6208  -11.2966  -16.4119 C   0  0  2  0  0  0  0  0  0  0  0  0
   25.6531  -12.3976  -16.3565 C   0  0  0  0  0  0  0  0  0  0  0  0
   23.4000  -11.6091  -15.6068 C   0  0  2  0  0  0  0  0  0  0  0  0
   22.8409  -12.8359  -16.2166 N   0  0  0  0  0  0  0  0  0  0  0  0
   22.3345  -10.5949  -15.6468 C   0  0  0  0  0  0  0  0  0  0  0  0
   21.5864  -10.5536  -16.6836 O   0  0  0  0  0  0  0  0  0  0  0  0
   22.0293   -9.6458  -14.6621 N   0  0  0  0  0  0  0  0  0  0  0  0
   21.0120   -8.5844  -14.8347 C   0  0  1  0  0  0  0  0  0  0  0  0
   19.9371   -8.9694  -13.8402 C   0  0  0  0  0  0  0  0  0  0  0  0
   18.7976   -8.0837  -13.7483 C   0  0  0  0  0  0  0  0  0  0  0  0
   18.3522   -7.6789  -12.6603 O   0  0  0  0  0  0  0  0  0  0  0  0
   21.6138   -7.2632  -14.5881 C   0  0  0  0  0  0  0  0  0  0  0  0
   22.3474   -7.0548  -13.5960 O   0  0  0  0  0  0  0  0  0  0  0  0
   18.1744   -7.6673  -14.9144 O   0  0  0  0  0  0  0  0  0  0  0  0
   20.9045   -3.9867  -17.1470 O   0  0  0  0  0  0  0  0  0  0  0  0
   22.1229   -4.0528  -16.5210 C   0  0  0  0  0  0  0  0  0  0  0  0
   22.0444   -4.8525  -15.2407 C   0  0  2  0  0  0  0  0  0  0  0  0
   21.4165   -6.1350  -15.4393 N   0  0  0  0  0  0  0  0  0  0  0  0
   21.2156   -4.0805  -14.2629 C   0  0  0  0  0  0  0  0  0  0  0  0
   21.6949   -2.9479  -13.6144 O   0  0  0  0  0  0  0  0  0  0  0  0
   20.0402   -4.4265  -13.9837 O   0  0  0  0  0  0  0  0  0  0  0  0
  2  3  1  6
  2  4  1  0
  2  1  1  0
  4  6  1  0
  4  5  1  6
  6  8  1  0
  6  7  2  0
  8  9  1  0
  9 13  1  0
  9 10  1  1
 11 15  1  0
 11 10  1  0
 12 11  2  0
 13 14  2  0
 17 16  1  0
 18 17  1  6
 19 18  1  0
 19 13  1  0
 20 21  1  0
 20 18  1  0
 22 20  2  0
M  END
$$$$
