VDS.pdb
     RDKit          3D

 22 21  0  0  1  0  0  0  0  0999 V2000
   18.0316   -9.5882  -15.6262 C   0  0  0  0  0  0  0  0  0  0  0  0
   18.1208  -10.5492  -14.4946 C   0  0  2  0  0  0  0  0  0  0  0  0
   18.4302  -11.9303  -15.0213 C   0  0  0  0  0  0  0  0  0  0  0  0
   16.9810  -10.5428  -13.5264 C   0  0  2  0  0  0  0  0  0  0  0  0
   15.8063  -10.9802  -14.3126 N   0  0  0  0  0  0  0  0  0  0  0  0
   16.6404   -9.2309  -12.9533 C   0  0  0  0  0  0  0  0  0  0  0  0
   15.8607   -8.4696  -13.6232 O   0  0  0  0  0  0  0  0  0  0  0  0
   17.0744   -8.7006  -11.7310 N   0  0  0  0  0  0  0  0  0  0  0  0
   16.7509   -7.3312  -11.2712 C   0  0  1  0  0  0  0  0  0  0  0  0
   16.6068   -7.4938   -9.7726 C   0  0  0  0  0  0  0  0  0  0  0  0
   16.2777   -6.3010   -9.0241 C   0  0  0  0  0  0  0  0  0  0  0  0
   15.9475   -5.2365   -9.5751 O   0  0  0  0  0  0  0  0  0  0  0  0
   17.8160   -6.3980  -11.6749 C   0  0  0  0  0  0  0  0  0  0  0  0
   17.7218   -5.1683  -11.4628 O   0  0  0  0  0  0  0  0  0  0  0  0
   16.3308   -6.3405   -7.6395 O   0  0  0  0  0  0  0  0  0  0  0  0
   22.4058   -5.7104  -13.1477 O   0  0  0  0  0  0  0  0  0  0  0  0
   21.4248   -6.5675  -12.7192 C   0  0  0  0  0  0  0  0  0  0  0  0
   20.0669   -5.9034  -12.7293 C   0  0  2  0  0  0  0  0  0  0  0  0
   19.0178   -6.8067  -12.3269 N   0  0  0  0  0  0  0  0  0  0  0  0
   19.7797   -5.4587  -14.1289 C   0  0  0  0  0  0  0  0  0  0  0  0
   20.1178   -4.1912  -14.5895 O   0  0  0  0  0  0  0  0  0  0  0  0
   19.2153   -6.2191  -14.9551 O   0  0  0  0  0  0  0  0  0  0  0  0
  2  3  1  6
  2  4  1  0
  2  1  1  0
  4  6  1  0
  4  5  1  6
  6  8  1  0
  6  7  2  0
  8  9  1  0
  9 13  1  0
  9 10  1  1
 11 15  1  0
 11 10  1  0
 12 11  2  0
 13 14  2  0
 17 16  1  0
 18 17  1  6
 19 18  1  0
 19 13  1  0
 20 21  1  0
 20 18  1  0
 22 20  2  0
M  END
$$$$
