KYQ.pdb
     RDKit          3D

 31 31  0  0  1  0  0  0  0  0999 V2000
    7.8976  -12.8897   19.2938 N   0  0  0  0  0  0  0  0  0  0  0  0
    7.0534  -13.6686   20.1761 C   0  0  1  0  0  0  0  0  0  0  0  0
    6.7309  -14.9587   19.4320 C   0  0  0  0  0  0  0  0  0  0  0  0
    8.0526  -15.5423   19.0162 C   0  0  0  0  0  0  0  0  0  0  0  0
    8.0552  -16.3221   17.7526 C   0  0  0  0  0  0  0  0  0  0  0  0
    9.3586  -16.9832   17.4208 C   0  0  0  0  0  0  0  0  0  0  0  0
    9.3161  -17.6811   16.1816 N   0  0  0  0  0  0  0  0  0  0  0  0
    7.8020  -13.9329   21.4225 C   0  0  0  0  0  0  0  0  0  0  0  0
    8.9989  -14.2955   21.3491 O   0  0  0  0  0  0  0  0  0  0  0  0
    9.5930  -14.1653   30.1420 O   0  0  0  0  0  0  0  0  0  0  0  0
    8.9963  -14.0160   28.9157 C   0  0  0  0  0  0  0  0  0  0  0  0
    9.1269  -12.8142   28.2219 C   0  0  0  0  0  0  0  0  0  0  0  0
    8.5283  -12.6631   26.9909 C   0  0  0  0  0  0  0  0  0  0  0  0
    7.7909  -13.6630   26.3989 C   0  0  0  0  0  0  0  0  0  0  0  0
    7.1241  -13.5922   25.1004 C   0  0  0  0  0  0  0  0  0  0  0  0
    7.9419  -14.0667   23.9439 C   0  0  2  0  0  0  0  0  0  0  0  0
    7.2382  -13.7983   22.7090 N   0  0  0  0  0  0  0  0  0  0  0  0
    8.4543  -15.4285   24.0732 C   0  0  0  0  0  0  0  0  0  0  0  0
    7.7589  -16.4730   23.9699 O   0  0  0  0  0  0  0  0  0  0  0  0
    7.6577  -14.8767   27.0969 C   0  0  0  0  0  0  0  0  0  0  0  0
    8.2543  -15.0346   28.3296 C   0  0  0  0  0  0  0  0  0  0  0  0
   14.8994  -18.9582   23.6382 N   0  0  0  0  0  0  0  0  0  0  0  0
   13.9161  -18.0364   23.2443 C   0  0  0  0  0  0  0  0  0  0  0  0
   14.1892  -17.1193   22.4253 O   0  0  0  0  0  0  0  0  0  0  0  0
   12.5349  -18.1827   23.8317 C   0  0  0  0  0  0  0  0  0  0  0  0
   11.8074  -16.8831   23.8286 C   0  0  0  0  0  0  0  0  0  0  0  0
   10.3991  -16.9578   24.4093 C   0  0  2  0  0  0  0  0  0  0  0  0
    9.8426  -15.6074   24.3338 N   0  0  0  0  0  0  0  0  0  0  0  0
   10.5099  -17.3081   25.8401 C   0  0  0  0  0  0  0  0  0  0  0  0
   10.4747  -16.4329   26.7430 O   0  0  0  0  0  0  0  0  0  0  0  0
   10.6576  -18.6295   26.2415 O   0  0  0  0  0  0  0  0  0  0  0  0
  2  1  1  6
  2  3  1  0
  3  4  1  0
  5  4  1  0
  5  6  1  0
  7  6  1  0
  8  2  1  0
  8  9  2  0
 10 11  1  0
 11 12  2  0
 12 13  1  0
 14 15  1  0
 14 13  2  0
 16 17  1  0
 16 15  1  1
 17  8  1  0
 18 16  1  0
 19 18  2  0
 20 14  1  0
 21 20  2  0
 21 11  1  0
 22 23  1  0
 23 25  1  0
 23 24  2  0
 25 26  1  0
 27 26  1  1
 27 28  1  0
 28 18  1  0
 29 27  1  0
 29 31  1  0
 30 29  2  0
M  END
$$$$
