KYQ.pdb
     RDKit          3D

 31 31  0  0  1  0  0  0  0  0999 V2000
    8.2181  -18.1196   20.7439 N   0  0  0  0  0  0  0  0  0  0  0  0
    9.6007  -17.7451   20.9580 C   0  0  1  0  0  0  0  0  0  0  0  0
   10.1057  -17.1931   19.6306 C   0  0  0  0  0  0  0  0  0  0  0  0
    9.8750  -18.2760   18.6134 C   0  0  0  0  0  0  0  0  0  0  0  0
    9.0766  -17.8945   17.4210 C   0  0  0  0  0  0  0  0  0  0  0  0
    8.9072  -18.9792   16.4007 C   0  0  0  0  0  0  0  0  0  0  0  0
    8.2009  -18.5373   15.2474 N   0  0  0  0  0  0  0  0  0  0  0  0
    9.6459  -16.7227   22.0241 C   0  0  0  0  0  0  0  0  0  0  0  0
   10.7479  -16.2135   22.3334 O   0  0  0  0  0  0  0  0  0  0  0  0
    7.5997  -12.6569   17.9202 O   0  0  0  0  0  0  0  0  0  0  0  0
    7.5688  -13.0352   19.2386 C   0  0  0  0  0  0  0  0  0  0  0  0
    6.6421  -13.9840   19.6670 C   0  0  0  0  0  0  0  0  0  0  0  0
    6.6102  -14.3644   20.9902 C   0  0  0  0  0  0  0  0  0  0  0  0
    7.4677  -13.8419   21.9313 C   0  0  0  0  0  0  0  0  0  0  0  0
    7.5064  -14.1861   23.3510 C   0  0  0  0  0  0  0  0  0  0  0  0
    8.5069  -15.2323   23.7200 C   0  0  2  0  0  0  0  0  0  0  0  0
    8.5029  -16.2808   22.7236 N   0  0  0  0  0  0  0  0  0  0  0  0
    8.4236  -15.6999   25.1014 C   0  0  0  0  0  0  0  0  0  0  0  0
    8.3291  -14.9531   26.1107 O   0  0  0  0  0  0  0  0  0  0  0  0
    8.4037  -12.8844   21.5015 C   0  0  0  0  0  0  0  0  0  0  0  0
    8.4411  -12.4990   20.1783 C   0  0  0  0  0  0  0  0  0  0  0  0
    6.7475  -21.5051   26.4621 N   0  0  0  0  0  0  0  0  0  0  0  0
    7.0299  -21.0685   27.7664 C   0  0  0  0  0  0  0  0  0  0  0  0
    6.8280  -21.8251   28.7530 O   0  0  0  0  0  0  0  0  0  0  0  0
    7.5783  -19.6747   27.9416 C   0  0  0  0  0  0  0  0  0  0  0  0
    7.6600  -18.9598   26.6376 C   0  0  0  0  0  0  0  0  0  0  0  0
    8.3556  -17.6046   26.7143 C   0  0  2  0  0  0  0  0  0  0  0  0
    8.4476  -17.1028   25.3437 N   0  0  0  0  0  0  0  0  0  0  0  0
    9.7349  -17.8226   27.1960 C   0  0  0  0  0  0  0  0  0  0  0  0
    9.9931  -17.9981   28.4146 O   0  0  0  0  0  0  0  0  0  0  0  0
   10.8049  -17.8422   26.3106 O   0  0  0  0  0  0  0  0  0  0  0  0
  2  1  1  6
  2  3  1  0
  3  4  1  0
  5  4  1  0
  5  6  1  0
  7  6  1  0
  8  2  1  0
  8  9  2  0
 10 11  1  0
 11 12  2  0
 12 13  1  0
 14 15  1  0
 14 13  2  0
 16 17  1  0
 16 15  1  6
 17  8  1  0
 18 16  1  0
 19 18  2  0
 20 14  1  0
 21 20  2  0
 21 11  1  0
 22 23  1  0
 23 25  1  0
 23 24  2  0
 25 26  1  0
 27 26  1  6
 27 28  1  0
 28 18  1  0
 29 27  1  0
 29 31  1  0
 30 29  2  0
M  END
$$$$
