KYQ.pdb
     RDKit          3D

 31 31  0  0  1  0  0  0  0  0999 V2000
    9.9543  -16.4501   18.6872 N   0  0  0  0  0  0  0  0  0  0  0  0
    8.7289  -16.3945   19.4572 C   0  0  1  0  0  0  0  0  0  0  0  0
    8.2438  -17.8324   19.5951 C   0  0  0  0  0  0  0  0  0  0  0  0
    7.8593  -18.2776   18.2114 C   0  0  0  0  0  0  0  0  0  0  0  0
    7.3293  -19.6595   18.0923 C   0  0  0  0  0  0  0  0  0  0  0  0
    7.0005  -20.0918   16.6954 C   0  0  0  0  0  0  0  0  0  0  0  0
    6.5197  -21.4296   16.6376 N   0  0  0  0  0  0  0  0  0  0  0  0
    9.0334  -15.7951   20.7733 C   0  0  0  0  0  0  0  0  0  0  0  0
   10.1023  -16.1024   21.3499 O   0  0  0  0  0  0  0  0  0  0  0  0
    7.0084  -11.9220   28.5616 O   0  0  0  0  0  0  0  0  0  0  0  0
    7.0835  -12.2869   27.2412 C   0  0  0  0  0  0  0  0  0  0  0  0
    8.0559  -11.7206   26.4188 C   0  0  0  0  0  0  0  0  0  0  0  0
    8.1322  -12.0861   25.0932 C   0  0  0  0  0  0  0  0  0  0  0  0
    7.2761  -13.0036   24.5281 C   0  0  0  0  0  0  0  0  0  0  0  0
    7.2842  -13.4508   23.1368 C   0  0  0  0  0  0  0  0  0  0  0  0
    8.2882  -14.5106   22.8200 C   0  0  2  0  0  0  0  0  0  0  0  0
    8.1772  -14.8837   21.4269 N   0  0  0  0  0  0  0  0  0  0  0  0
    8.3103  -15.6329   23.7547 C   0  0  0  0  0  0  0  0  0  0  0  0
    7.4015  -16.4973   23.8647 O   0  0  0  0  0  0  0  0  0  0  0  0
    6.2941  -13.5765   25.3559 C   0  0  0  0  0  0  0  0  0  0  0  0
    6.2121  -13.2151   26.6838 C   0  0  0  0  0  0  0  0  0  0  0  0
   12.2966  -19.6314   23.7886 N   0  0  0  0  0  0  0  0  0  0  0  0
   12.8237  -18.3717   24.1157 C   0  0  0  0  0  0  0  0  0  0  0  0
   14.0352  -18.1071   23.8945 O   0  0  0  0  0  0  0  0  0  0  0  0
   11.8961  -17.3570   24.7354 C   0  0  0  0  0  0  0  0  0  0  0  0
   10.5165  -17.9012   24.8732 C   0  0  0  0  0  0  0  0  0  0  0  0
    9.5259  -16.9305   25.5076 C   0  0  2  0  0  0  0  0  0  0  0  0
    9.4376  -15.7774   24.6125 N   0  0  0  0  0  0  0  0  0  0  0  0
   10.1012  -16.4544   26.7822 C   0  0  0  0  0  0  0  0  0  0  0  0
   10.5436  -15.2843   26.9155 O   0  0  0  0  0  0  0  0  0  0  0  0
   10.1733  -17.2908   27.8887 O   0  0  0  0  0  0  0  0  0  0  0  0
  2  1  1  6
  2  3  1  0
  3  4  1  0
  5  4  1  0
  5  6  1  0
  7  6  1  0
  8  2  1  0
  8  9  2  0
 10 11  1  0
 11 12  2  0
 12 13  1  0
 14 15  1  0
 14 13  2  0
 16 17  1  0
 16 15  1  1
 17  8  1  0
 18 16  1  0
 19 18  2  0
 20 14  1  0
 21 20  2  0
 21 11  1  0
 22 23  1  0
 23 25  1  0
 23 24  2  0
 25 26  1  0
 27 26  1  6
 27 28  1  0
 28 18  1  0
 29 27  1  0
 29 31  1  0
 30 29  2  0
M  END
$$$$
