KYQ.pdb
     RDKit          3D

 31 31  0  0  1  0  0  0  0  0999 V2000
    9.8502  -16.6584   18.9948 N   0  0  0  0  0  0  0  0  0  0  0  0
    8.5805  -16.5827   19.6876 C   0  0  1  0  0  0  0  0  0  0  0  0
    8.0360  -18.0049   19.7409 C   0  0  0  0  0  0  0  0  0  0  0  0
    7.6302  -18.3494   18.3348 C   0  0  0  0  0  0  0  0  0  0  0  0
    8.5666  -19.2181   17.5777 C   0  0  0  0  0  0  0  0  0  0  0  0
    8.0805  -19.6432   16.2252 C   0  0  0  0  0  0  0  0  0  0  0  0
    8.9779  -20.5392   15.5801 N   0  0  0  0  0  0  0  0  0  0  0  0
    8.8210  -16.0417   21.0416 C   0  0  0  0  0  0  0  0  0  0  0  0
    9.7442  -16.5263   21.7361 O   0  0  0  0  0  0  0  0  0  0  0  0
    7.0698  -11.3764   28.4726 O   0  0  0  0  0  0  0  0  0  0  0  0
    7.1131  -11.8718   27.1940 C   0  0  0  0  0  0  0  0  0  0  0  0
    8.2344  -11.6427   26.3984 C   0  0  0  0  0  0  0  0  0  0  0  0
    8.2789  -12.1395   25.1147 C   0  0  0  0  0  0  0  0  0  0  0  0
    7.2475  -12.8675   24.5667 C   0  0  0  0  0  0  0  0  0  0  0  0
    7.2086  -13.4325   23.2195 C   0  0  0  0  0  0  0  0  0  0  0  0
    8.1460  -14.5718   22.9854 C   0  0  2  0  0  0  0  0  0  0  0  0
    8.0597  -14.9959   21.6052 N   0  0  0  0  0  0  0  0  0  0  0  0
    8.0546  -15.6518   23.9648 C   0  0  0  0  0  0  0  0  0  0  0  0
    7.1398  -16.5160   24.0014 O   0  0  0  0  0  0  0  0  0  0  0  0
    6.1150  -13.1001   25.3675 C   0  0  0  0  0  0  0  0  0  0  0  0
    6.0638  -12.6056   26.6534 C   0  0  0  0  0  0  0  0  0  0  0  0
   10.8629  -19.8582   23.0565 N   0  0  0  0  0  0  0  0  0  0  0  0
   10.8248  -20.2560   24.4026 C   0  0  0  0  0  0  0  0  0  0  0  0
   11.2497  -21.3904   24.7477 O   0  0  0  0  0  0  0  0  0  0  0  0
   10.2621  -19.2853   25.4103 C   0  0  0  0  0  0  0  0  0  0  0  0
    9.9003  -17.9910   24.7683 C   0  0  0  0  0  0  0  0  0  0  0  0
    9.2299  -16.9961   25.7100 C   0  0  2  0  0  0  0  0  0  0  0  0
    9.0690  -15.7515   24.9590 N   0  0  0  0  0  0  0  0  0  0  0  0
   10.1594  -16.7200   26.8243 C   0  0  0  0  0  0  0  0  0  0  0  0
   11.0091  -15.7942   26.7669 O   0  0  0  0  0  0  0  0  0  0  0  0
   10.1261  -17.4806   27.9860 O   0  0  0  0  0  0  0  0  0  0  0  0
  2  1  1  6
  2  3  1  0
  3  4  1  0
  5  4  1  0
  5  6  1  0
  7  6  1  0
  8  2  1  0
  8  9  2  0
 10 11  1  0
 11 12  2  0
 12 13  1  0
 14 15  1  0
 14 13  2  0
 16 17  1  0
 16 15  1  1
 17  8  1  0
 18 16  1  0
 19 18  2  0
 20 14  1  0
 21 20  2  0
 21 11  1  0
 22 23  1  0
 23 25  1  0
 23 24  2  0
 25 26  1  0
 27 26  1  6
 27 28  1  0
 28 18  1  0
 29 27  1  0
 29 31  1  0
 30 29  2  0
M  END
$$$$
