KYQ.pdb
     RDKit          3D

 31 31  0  0  1  0  0  0  0  0999 V2000
    7.9424  -17.8422   19.5851 N   0  0  0  0  0  0  0  0  0  0  0  0
    9.1631  -17.0819   19.4128 C   0  0  1  0  0  0  0  0  0  0  0  0
    9.0365  -16.3657   18.0738 C   0  0  0  0  0  0  0  0  0  0  0  0
    8.7570  -17.4342   17.0537 C   0  0  0  0  0  0  0  0  0  0  0  0
    9.1279  -17.1138   15.6520 C   0  0  0  0  0  0  0  0  0  0  0  0
    8.6805  -18.1192   14.6346 C   0  0  0  0  0  0  0  0  0  0  0  0
    9.6723  -19.1040   14.3685 N   0  0  0  0  0  0  0  0  0  0  0  0
    9.2768  -16.1245   20.5327 C   0  0  0  0  0  0  0  0  0  0  0  0
   10.2715  -15.3647   20.5859 O   0  0  0  0  0  0  0  0  0  0  0  0
    6.8949  -11.2598   27.5660 O   0  0  0  0  0  0  0  0  0  0  0  0
    6.9553  -12.2034   26.5719 C   0  0  0  0  0  0  0  0  0  0  0  0
    7.1494  -13.5444   26.8986 C   0  0  0  0  0  0  0  0  0  0  0  0
    7.2102  -14.4924   25.9015 C   0  0  0  0  0  0  0  0  0  0  0  0
    7.0859  -14.1734   24.5686 C   0  0  0  0  0  0  0  0  0  0  0  0
    7.1361  -15.1096   23.4475 C   0  0  0  0  0  0  0  0  0  0  0  0
    8.4245  -15.1208   22.6916 C   0  0  2  0  0  0  0  0  0  0  0  0
    8.3158  -16.0153   21.5600 N   0  0  0  0  0  0  0  0  0  0  0  0
    9.6159  -15.3159   23.5140 C   0  0  0  0  0  0  0  0  0  0  0  0
   10.3962  -14.3986   23.8814 O   0  0  0  0  0  0  0  0  0  0  0  0
    6.8898  -12.8210   24.2364 C   0  0  0  0  0  0  0  0  0  0  0  0
    6.8280  -11.8668   25.2295 C   0  0  0  0  0  0  0  0  0  0  0  0
    9.8484  -16.9564   29.3941 N   0  0  0  0  0  0  0  0  0  0  0  0
   10.7128  -16.0826   28.7151 C   0  0  0  0  0  0  0  0  0  0  0  0
   10.9525  -14.9341   29.1732 O   0  0  0  0  0  0  0  0  0  0  0  0
   11.3376  -16.5643   27.4299 C   0  0  0  0  0  0  0  0  0  0  0  0
   10.4063  -16.3928   26.2803 C   0  0  0  0  0  0  0  0  0  0  0  0
   10.9822  -16.8422   24.9415 C   0  0  2  0  0  0  0  0  0  0  0  0
    9.9331  -16.6358   23.9436 N   0  0  0  0  0  0  0  0  0  0  0  0
   11.2382  -18.2952   25.0158 C   0  0  0  0  0  0  0  0  0  0  0  0
   10.5478  -19.1254   24.3704 O   0  0  0  0  0  0  0  0  0  0  0  0
   12.2612  -18.7995   25.8085 O   0  0  0  0  0  0  0  0  0  0  0  0
  2  1  1  1
  2  3  1  0
  3  4  1  0
  5  4  1  0
  5  6  1  0
  7  6  1  0
  8  2  1  0
  8  9  2  0
 10 11  1  0
 11 12  2  0
 12 13  1  0
 14 15  1  0
 14 13  2  0
 16 17  1  0
 16 15  1  1
 17  8  1  0
 18 16  1  0
 19 18  2  0
 20 14  1  0
 21 20  2  0
 21 11  1  0
 22 23  1  0
 23 25  1  0
 23 24  2  0
 25 26  1  0
 27 26  1  1
 27 28  1  0
 28 18  1  0
 29 27  1  0
 29 31  1  0
 30 29  2  0
M  END
$$$$
