KYQ.pdb
     RDKit          3D

 31 31  0  0  1  0  0  0  0  0999 V2000
   10.2874  -17.0652   19.4663 N   0  0  0  0  0  0  0  0  0  0  0  0
    9.2949  -17.4473   20.4495 C   0  0  1  0  0  0  0  0  0  0  0  0
    9.6374  -18.8703   20.8735 C   0  0  0  0  0  0  0  0  0  0  0  0
    9.9170  -19.6278   19.6051 C   0  0  0  0  0  0  0  0  0  0  0  0
   11.2242  -20.3288   19.5363 C   0  0  0  0  0  0  0  0  0  0  0  0
   11.3892  -21.2437   18.3608 C   0  0  0  0  0  0  0  0  0  0  0  0
   12.7005  -21.7890   18.2742 N   0  0  0  0  0  0  0  0  0  0  0  0
    9.3797  -16.5064   21.5859 C   0  0  0  0  0  0  0  0  0  0  0  0
   10.5035  -16.0866   21.9466 O   0  0  0  0  0  0  0  0  0  0  0  0
    6.7197  -10.6652   27.7266 O   0  0  0  0  0  0  0  0  0  0  0  0
    6.7691  -11.6077   26.7308 C   0  0  0  0  0  0  0  0  0  0  0  0
    6.2157  -12.8695   26.9412 C   0  0  0  0  0  0  0  0  0  0  0  0
    6.2648  -13.8163   25.9424 C   0  0  0  0  0  0  0  0  0  0  0  0
    6.8465  -13.5723   24.7193 C   0  0  0  0  0  0  0  0  0  0  0  0
    6.9429  -14.5127   23.6049 C   0  0  0  0  0  0  0  0  0  0  0  0
    8.3013  -15.0944   23.3853 C   0  0  2  0  0  0  0  0  0  0  0  0
    8.2515  -16.0473   22.2982 N   0  0  0  0  0  0  0  0  0  0  0  0
    8.9634  -15.5785   24.5941 C   0  0  0  0  0  0  0  0  0  0  0  0
    9.2687  -14.8633   25.5843 O   0  0  0  0  0  0  0  0  0  0  0  0
    7.4057  -12.2999   24.5045 C   0  0  0  0  0  0  0  0  0  0  0  0
    7.3600  -11.3473   25.5001 C   0  0  0  0  0  0  0  0  0  0  0  0
    6.8468  -20.1427   27.1523 N   0  0  0  0  0  0  0  0  0  0  0  0
    8.0546  -20.3233   27.8454 C   0  0  0  0  0  0  0  0  0  0  0  0
    8.0934  -21.0204   28.8938 O   0  0  0  0  0  0  0  0  0  0  0  0
    9.2913  -19.6590   27.2948 C   0  0  0  0  0  0  0  0  0  0  0  0
    8.9871  -18.9019   26.0487 C   0  0  0  0  0  0  0  0  0  0  0  0
    9.6710  -17.5412   25.9656 C   0  0  2  0  0  0  0  0  0  0  0  0
    9.2942  -16.9609   24.6772 N   0  0  0  0  0  0  0  0  0  0  0  0
   11.1313  -17.7617   25.9380 C   0  0  0  0  0  0  0  0  0  0  0  0
   11.8086  -17.8597   26.9936 O   0  0  0  0  0  0  0  0  0  0  0  0
   11.8137  -17.8703   24.7331 O   0  0  0  0  0  0  0  0  0  0  0  0
  2  1  1  6
  2  3  1  0
  3  4  1  0
  5  4  1  0
  5  6  1  0
  7  6  1  0
  8  2  1  0
  8  9  2  0
 10 11  1  0
 11 12  2  0
 12 13  1  0
 14 15  1  0
 14 13  2  0
 16 17  1  0
 16 15  1  1
 17  8  1  0
 18 16  1  0
 19 18  2  0
 20 14  1  0
 21 20  2  0
 21 11  1  0
 22 23  1  0
 23 25  1  0
 23 24  2  0
 25 26  1  0
 27 26  1  6
 27 28  1  0
 28 18  1  0
 29 27  1  0
 29 31  1  0
 30 29  2  0
M  END
$$$$
