KYQ.pdb
     RDKit          3D

 31 31  0  0  1  0  0  0  0  0999 V2000
    8.0092  -15.6172   19.1349 N   0  0  0  0  0  0  0  0  0  0  0  0
    7.4302  -16.0973   20.3726 C   0  0  1  0  0  0  0  0  0  0  0  0
    7.4729  -17.6190   20.3038 C   0  0  0  0  0  0  0  0  0  0  0  0
    6.5728  -18.0106   19.1649 C   0  0  0  0  0  0  0  0  0  0  0  0
    6.4325  -19.4671   18.9127 C   0  0  0  0  0  0  0  0  0  0  0  0
    5.5577  -19.8256   17.7498 C   0  0  0  0  0  0  0  0  0  0  0  0
    5.5430  -21.2242   17.4893 N   0  0  0  0  0  0  0  0  0  0  0  0
    8.2400  -15.5813   21.4959 C   0  0  0  0  0  0  0  0  0  0  0  0
    9.4853  -15.5224   21.3725 O   0  0  0  0  0  0  0  0  0  0  0  0
   10.0435  -13.6302   29.9979 O   0  0  0  0  0  0  0  0  0  0  0  0
    9.4393  -13.8023   28.7783 C   0  0  0  0  0  0  0  0  0  0  0  0
    9.3471  -12.7305   27.8919 C   0  0  0  0  0  0  0  0  0  0  0  0
    8.7406  -12.9021   26.6674 C   0  0  0  0  0  0  0  0  0  0  0  0
    8.2092  -14.1069   26.2671 C   0  0  0  0  0  0  0  0  0  0  0  0
    7.5513  -14.3801   24.9911 C   0  0  0  0  0  0  0  0  0  0  0  0
    8.4257  -14.9984   23.9496 C   0  0  2  0  0  0  0  0  0  0  0  0
    7.6834  -15.1447   22.7168 N   0  0  0  0  0  0  0  0  0  0  0  0
    9.1385  -16.1982   24.3812 C   0  0  0  0  0  0  0  0  0  0  0  0
    8.6535  -17.3600   24.3921 O   0  0  0  0  0  0  0  0  0  0  0  0
    8.3010  -15.1898   27.1597 C   0  0  0  0  0  0  0  0  0  0  0  0
    8.9068  -15.0250   28.3871 C   0  0  0  0  0  0  0  0  0  0  0  0
   13.5655  -17.7355   21.6099 N   0  0  0  0  0  0  0  0  0  0  0  0
   14.1544  -18.3350   22.7349 C   0  0  0  0  0  0  0  0  0  0  0  0
   15.0585  -19.2014   22.5995 O   0  0  0  0  0  0  0  0  0  0  0  0
   13.6699  -17.9081   24.0977 C   0  0  0  0  0  0  0  0  0  0  0  0
   12.5625  -16.9178   23.9903 C   0  0  0  0  0  0  0  0  0  0  0  0
   11.3565  -17.2365   24.8677 C   0  0  2  0  0  0  0  0  0  0  0  0
   10.4849  -16.0629   24.8243 N   0  0  0  0  0  0  0  0  0  0  0  0
   11.8270  -17.3832   26.2602 C   0  0  0  0  0  0  0  0  0  0  0  0
   11.6547  -16.4797   27.1185 O   0  0  0  0  0  0  0  0  0  0  0  0
   12.4821  -18.5359   26.6741 O   0  0  0  0  0  0  0  0  0  0  0  0
  2  1  1  6
  2  3  1  0
  3  4  1  0
  5  4  1  0
  5  6  1  0
  7  6  1  0
  8  2  1  0
  8  9  2  0
 10 11  1  0
 11 12  2  0
 12 13  1  0
 14 15  1  0
 14 13  2  0
 16 17  1  0
 16 15  1  1
 17  8  1  0
 18 16  1  0
 19 18  2  0
 20 14  1  0
 21 20  2  0
 21 11  1  0
 22 23  1  0
 23 25  1  0
 23 24  2  0
 25 26  1  0
 27 26  1  6
 27 28  1  0
 28 18  1  0
 29 27  1  0
 29 31  1  0
 30 29  2  0
M  END
$$$$
