KYQ.pdb
     RDKit          3D

 31 31  0  0  1  0  0  0  0  0999 V2000
    8.0848  -16.2560   18.8927 N   0  0  0  0  0  0  0  0  0  0  0  0
    9.4538  -16.2276   19.3647 C   0  0  1  0  0  0  0  0  0  0  0  0
   10.2368  -15.3932   18.3584 C   0  0  0  0  0  0  0  0  0  0  0  0
    9.5910  -15.6361   17.0225 C   0  0  0  0  0  0  0  0  0  0  0  0
    8.9017  -14.4735   16.4078 C   0  0  0  0  0  0  0  0  0  0  0  0
    8.4747  -14.6721   14.9850 C   0  0  0  0  0  0  0  0  0  0  0  0
    7.8611  -13.5131   14.4331 N   0  0  0  0  0  0  0  0  0  0  0  0
    9.4696  -15.6138   20.7089 C   0  0  0  0  0  0  0  0  0  0  0  0
   10.5708  -15.3574   21.2485 O   0  0  0  0  0  0  0  0  0  0  0  0
    6.6936  -12.0786   28.3676 O   0  0  0  0  0  0  0  0  0  0  0  0
    6.7968  -12.5496   27.0832 C   0  0  0  0  0  0  0  0  0  0  0  0
    6.2013  -13.7617   26.7384 C   0  0  0  0  0  0  0  0  0  0  0  0
    6.3043  -14.2355   25.4494 C   0  0  0  0  0  0  0  0  0  0  0  0
    6.9816  -13.5556   24.4629 C   0  0  0  0  0  0  0  0  0  0  0  0
    7.1406  -13.9801   23.0736 C   0  0  0  0  0  0  0  0  0  0  0  0
    8.2739  -14.9215   22.8268 C   0  0  2  0  0  0  0  0  0  0  0  0
    8.2992  -15.2953   21.4297 N   0  0  0  0  0  0  0  0  0  0  0  0
    8.3555  -16.0409   23.7618 C   0  0  0  0  0  0  0  0  0  0  0  0
    7.5013  -16.9604   23.8616 O   0  0  0  0  0  0  0  0  0  0  0  0
    7.5833  -12.3323   24.8083 C   0  0  0  0  0  0  0  0  0  0  0  0
    7.4841  -11.8522   26.0968 C   0  0  0  0  0  0  0  0  0  0  0  0
   11.4099  -20.3449   23.1525 N   0  0  0  0  0  0  0  0  0  0  0  0
   12.2693  -19.2848   23.4831 C   0  0  0  0  0  0  0  0  0  0  0  0
   13.4557  -19.2662   23.0605 O   0  0  0  0  0  0  0  0  0  0  0  0
   11.7259  -18.1802   24.3542 C   0  0  0  0  0  0  0  0  0  0  0  0
   10.2755  -18.3757   24.6305 C   0  0  0  0  0  0  0  0  0  0  0  0
    9.6546  -17.2832   25.4948 C   0  0  2  0  0  0  0  0  0  0  0  0
    9.4800  -16.1152   24.6322 N   0  0  0  0  0  0  0  0  0  0  0  0
   10.6302  -16.9149   26.5410 C   0  0  0  0  0  0  0  0  0  0  0  0
   10.9640  -17.7175   27.4503 O   0  0  0  0  0  0  0  0  0  0  0  0
   11.2188  -15.6570   26.5564 O   0  0  0  0  0  0  0  0  0  0  0  0
  2  1  1  6
  2  3  1  0
  3  4  1  0
  5  4  1  0
  5  6  1  0
  7  6  1  0
  8  2  1  0
  8  9  2  0
 10 11  1  0
 11 12  2  0
 12 13  1  0
 14 15  1  0
 14 13  2  0
 16 17  1  0
 16 15  1  1
 17  8  1  0
 18 16  1  0
 19 18  2  0
 20 14  1  0
 21 20  2  0
 21 11  1  0
 22 23  1  0
 23 25  1  0
 23 24  2  0
 25 26  1  0
 27 26  1  6
 27 28  1  0
 28 18  1  0
 29 27  1  0
 29 31  1  0
 30 29  2  0
M  END
$$$$
