KYQ.pdb
     RDKit          3D

 31 31  0  0  1  0  0  0  0  0999 V2000
    7.8599  -12.8780   19.5909 N   0  0  0  0  0  0  0  0  0  0  0  0
    7.8190  -14.2591   20.0252 C   0  0  1  0  0  0  0  0  0  0  0  0
    8.5521  -15.0652   18.9600 C   0  0  0  0  0  0  0  0  0  0  0  0
    7.6337  -15.1179   17.7707 C   0  0  0  0  0  0  0  0  0  0  0  0
    8.0949  -15.9405   16.6238 C   0  0  0  0  0  0  0  0  0  0  0  0
    7.2247  -15.8700   15.4056 C   0  0  0  0  0  0  0  0  0  0  0  0
    7.8126  -16.5083   14.2780 N   0  0  0  0  0  0  0  0  0  0  0  0
    8.4917  -14.3542   21.3375 C   0  0  0  0  0  0  0  0  0  0  0  0
    9.6221  -13.8338   21.4817 O   0  0  0  0  0  0  0  0  0  0  0  0
    6.0790  -10.4128   27.2906 O   0  0  0  0  0  0  0  0  0  0  0  0
    6.4553  -11.5864   26.6880 C   0  0  0  0  0  0  0  0  0  0  0  0
    7.7548  -11.7337   26.2060 C   0  0  0  0  0  0  0  0  0  0  0  0
    8.1336  -12.9114   25.6008 C   0  0  0  0  0  0  0  0  0  0  0  0
    7.2727  -13.9737   25.4451 C   0  0  0  0  0  0  0  0  0  0  0  0
    7.5869  -15.2564   24.8193 C   0  0  0  0  0  0  0  0  0  0  0  0
    8.5975  -15.1923   23.7210 C   0  0  2  0  0  0  0  0  0  0  0  0
    7.9260  -15.0066   22.4534 N   0  0  0  0  0  0  0  0  0  0  0  0
    9.5891  -16.2648   23.7373 C   0  0  0  0  0  0  0  0  0  0  0  0
    9.3617  -17.4616   23.4192 O   0  0  0  0  0  0  0  0  0  0  0  0
    5.9609  -13.8276   25.9306 C   0  0  0  0  0  0  0  0  0  0  0  0
    5.5750  -12.6513   26.5375 C   0  0  0  0  0  0  0  0  0  0  0  0
   15.4223  -15.0402   22.7458 N   0  0  0  0  0  0  0  0  0  0  0  0
   15.6461  -16.3460   23.2112 C   0  0  0  0  0  0  0  0  0  0  0  0
   16.7733  -16.8908   23.0732 O   0  0  0  0  0  0  0  0  0  0  0  0
   14.4993  -17.0655   23.8754 C   0  0  0  0  0  0  0  0  0  0  0  0
   13.2973  -16.1911   23.9710 C   0  0  0  0  0  0  0  0  0  0  0  0
   11.9757  -16.9518   23.9952 C   0  0  2  0  0  0  0  0  0  0  0  0
   10.9188  -15.9512   24.1385 N   0  0  0  0  0  0  0  0  0  0  0  0
   11.9518  -17.7932   25.2091 C   0  0  0  0  0  0  0  0  0  0  0  0
   11.3572  -17.4312   26.2568 O   0  0  0  0  0  0  0  0  0  0  0  0
   12.5911  -19.0260   25.2351 O   0  0  0  0  0  0  0  0  0  0  0  0
  2  1  1  6
  2  3  1  0
  3  4  1  0
  5  4  1  0
  5  6  1  0
  7  6  1  0
  8  2  1  0
  8  9  2  0
 10 11  1  0
 11 12  2  0
 12 13  1  0
 14 15  1  0
 14 13  2  0
 16 17  1  0
 16 15  1  1
 17  8  1  0
 18 16  1  0
 19 18  2  0
 20 14  1  0
 21 20  2  0
 21 11  1  0
 22 23  1  0
 23 25  1  0
 23 24  2  0
 25 26  1  0
 27 26  1  1
 27 28  1  0
 28 18  1  0
 29 27  1  0
 29 31  1  0
 30 29  2  0
M  END
$$$$
