KYQ.pdb
     RDKit          3D

 31 31  0  0  1  0  0  0  0  0999 V2000
   10.2567  -17.0095   18.8332 N   0  0  0  0  0  0  0  0  0  0  0  0
    9.1490  -17.2016   19.7464 C   0  0  1  0  0  0  0  0  0  0  0  0
    9.2093  -18.6572   20.1930 C   0  0  0  0  0  0  0  0  0  0  0  0
    9.2824  -19.4772   18.9348 C   0  0  0  0  0  0  0  0  0  0  0  0
    8.0062  -20.0766   18.4694 C   0  0  0  0  0  0  0  0  0  0  0  0
    8.1256  -20.9601   17.2646 C   0  0  0  0  0  0  0  0  0  0  0  0
    6.8664  -21.4555   16.8249 N   0  0  0  0  0  0  0  0  0  0  0  0
    9.3195  -16.2761   20.8857 C   0  0  0  0  0  0  0  0  0  0  0  0
   10.4661  -16.0946   21.3568 O   0  0  0  0  0  0  0  0  0  0  0  0
    6.9029  -11.3312   27.8930 O   0  0  0  0  0  0  0  0  0  0  0  0
    6.9308  -12.0376   26.7172 C   0  0  0  0  0  0  0  0  0  0  0  0
    6.3995  -13.3253   26.6683 C   0  0  0  0  0  0  0  0  0  0  0  0
    6.4270  -14.0354   25.4887 C   0  0  0  0  0  0  0  0  0  0  0  0
    6.9656  -13.5245   24.3298 C   0  0  0  0  0  0  0  0  0  0  0  0
    7.0365  -14.2027   23.0373 C   0  0  0  0  0  0  0  0  0  0  0  0
    8.3068  -14.9468   22.7836 C   0  0  2  0  0  0  0  0  0  0  0  0
    8.2500  -15.5750   21.4819 N   0  0  0  0  0  0  0  0  0  0  0  0
    8.7290  -15.8270   23.8703 C   0  0  0  0  0  0  0  0  0  0  0  0
    8.3488  -17.0176   24.0226 O   0  0  0  0  0  0  0  0  0  0  0  0
    7.5024  -12.2255   24.3765 C   0  0  0  0  0  0  0  0  0  0  0  0
    7.4780  -11.5090   25.5542 C   0  0  0  0  0  0  0  0  0  0  0  0
    7.5338  -19.1259   27.6209 N   0  0  0  0  0  0  0  0  0  0  0  0
    8.8645  -18.8318   27.9593 C   0  0  0  0  0  0  0  0  0  0  0  0
    9.2400  -18.8553   29.1613 O   0  0  0  0  0  0  0  0  0  0  0  0
    9.8183  -18.4900   26.8423 C   0  0  0  0  0  0  0  0  0  0  0  0
    9.2856  -17.3849   25.9977 C   0  0  0  0  0  0  0  0  0  0  0  0
   10.2590  -16.2272   25.8024 C   0  0  2  0  0  0  0  0  0  0  0  0
    9.6405  -15.3178   24.8385 N   0  0  0  0  0  0  0  0  0  0  0  0
   11.4874  -16.7599   25.1784 C   0  0  0  0  0  0  0  0  0  0  0  0
   12.6294  -16.3344   25.4903 O   0  0  0  0  0  0  0  0  0  0  0  0
   11.4229  -17.7597   24.2164 O   0  0  0  0  0  0  0  0  0  0  0  0
  2  1  1  6
  2  3  1  0
  3  4  1  0
  5  4  1  0
  5  6  1  0
  7  6  1  0
  8  2  1  0
  8  9  2  0
 10 11  1  0
 11 12  2  0
 12 13  1  0
 14 15  1  0
 14 13  2  0
 16 17  1  0
 16 15  1  1
 17  8  1  0
 18 16  1  0
 19 18  2  0
 20 14  1  0
 21 20  2  0
 21 11  1  0
 22 23  1  0
 23 25  1  0
 23 24  2  0
 25 26  1  0
 27 26  1  6
 27 28  1  0
 28 18  1  0
 29 27  1  0
 29 31  1  0
 30 29  2  0
M  END
$$$$
