KYQ.pdb
     RDKit          3D

 31 31  0  0  1  0  0  0  0  0999 V2000
    8.8757  -17.4518   19.6794 N   0  0  0  0  0  0  0  0  0  0  0  0
   10.1852  -17.2260   20.2557 C   0  0  1  0  0  0  0  0  0  0  0  0
   11.1039  -16.8525   19.0988 C   0  0  0  0  0  0  0  0  0  0  0  0
   10.7496  -17.7788   17.9687 C   0  0  0  0  0  0  0  0  0  0  0  0
   11.0221  -17.2741   16.5991 C   0  0  0  0  0  0  0  0  0  0  0  0
   10.7214  -18.2441   15.4969 C   0  0  0  0  0  0  0  0  0  0  0  0
   11.8640  -18.5367   14.7012 N   0  0  0  0  0  0  0  0  0  0  0  0
   10.0773  -16.1291   21.2400 C   0  0  0  0  0  0  0  0  0  0  0  0
   11.1226  -15.5720   21.6482 O   0  0  0  0  0  0  0  0  0  0  0  0
    6.4228  -11.7266   28.0484 O   0  0  0  0  0  0  0  0  0  0  0  0
    6.7008  -12.3063   26.8364 C   0  0  0  0  0  0  0  0  0  0  0  0
    7.6446  -11.7270   25.9901 C   0  0  0  0  0  0  0  0  0  0  0  0
    7.9244  -12.3080   24.7732 C   0  0  0  0  0  0  0  0  0  0  0  0
    7.3039  -13.4583   24.3423 C   0  0  0  0  0  0  0  0  0  0  0  0
    7.5379  -14.1430   23.0726 C   0  0  0  0  0  0  0  0  0  0  0  0
    8.6676  -15.1205   23.0812 C   0  0  2  0  0  0  0  0  0  0  0  0
    8.8473  -15.6665   21.7538 N   0  0  0  0  0  0  0  0  0  0  0  0
    8.6095  -16.1149   24.1496 C   0  0  0  0  0  0  0  0  0  0  0  0
    7.7920  -17.0710   24.2008 O   0  0  0  0  0  0  0  0  0  0  0  0
    6.3512  -14.0448   25.1944 C   0  0  0  0  0  0  0  0  0  0  0  0
    6.0663  -13.4684   26.4140 C   0  0  0  0  0  0  0  0  0  0  0  0
   11.2379  -20.4088   24.0363 N   0  0  0  0  0  0  0  0  0  0  0  0
   12.1741  -19.4119   24.3551 C   0  0  0  0  0  0  0  0  0  0  0  0
   13.3787  -19.5293   24.0062 O   0  0  0  0  0  0  0  0  0  0  0  0
   11.6899  -18.2077   25.1228 C   0  0  0  0  0  0  0  0  0  0  0  0
   10.2306  -18.2998   25.4059 C   0  0  0  0  0  0  0  0  0  0  0  0
    9.6710  -17.1100   26.1787 C   0  0  2  0  0  0  0  0  0  0  0  0
    9.5414  -16.0121   25.2213 N   0  0  0  0  0  0  0  0  0  0  0  0
   10.6743  -16.7012   27.1829 C   0  0  0  0  0  0  0  0  0  0  0  0
   11.0225  -17.4622   28.1221 O   0  0  0  0  0  0  0  0  0  0  0  0
   11.2743  -15.4500   27.1233 O   0  0  0  0  0  0  0  0  0  0  0  0
  2  1  1  6
  2  3  1  0
  3  4  1  0
  5  4  1  0
  5  6  1  0
  7  6  1  0
  8  2  1  0
  8  9  2  0
 10 11  1  0
 11 12  2  0
 12 13  1  0
 14 15  1  0
 14 13  2  0
 16 17  1  0
 16 15  1  6
 17  8  1  0
 18 16  1  0
 19 18  2  0
 20 14  1  0
 21 20  2  0
 21 11  1  0
 22 23  1  0
 23 25  1  0
 23 24  2  0
 25 26  1  0
 27 26  1  6
 27 28  1  0
 28 18  1  0
 29 27  1  0
 29 31  1  0
 30 29  2  0
M  END
$$$$
