KYQ.pdb
     RDKit          3D

 31 31  0  0  1  0  0  0  0  0999 V2000
    8.5735  -18.5501   20.7346 N   0  0  0  0  0  0  0  0  0  0  0  0
    9.2672  -17.4157   20.1606 C   0  0  1  0  0  0  0  0  0  0  0  0
    8.4510  -16.9823   18.9491 C   0  0  0  0  0  0  0  0  0  0  0  0
    9.0494  -17.6928   17.7669 C   0  0  0  0  0  0  0  0  0  0  0  0
    9.6501  -16.8286   16.7194 C   0  0  0  0  0  0  0  0  0  0  0  0
   10.0324  -17.5395   15.4567 C   0  0  0  0  0  0  0  0  0  0  0  0
   10.2863  -16.6428   14.3816 N   0  0  0  0  0  0  0  0  0  0  0  0
    9.3357  -16.3479   21.1800 C   0  0  0  0  0  0  0  0  0  0  0  0
   10.3079  -15.5578   21.1702 O   0  0  0  0  0  0  0  0  0  0  0  0
    6.4948  -11.0406   27.7814 O   0  0  0  0  0  0  0  0  0  0  0  0
    6.6188  -11.9283   26.7428 C   0  0  0  0  0  0  0  0  0  0  0  0
    7.0428  -11.4798   25.4931 C   0  0  0  0  0  0  0  0  0  0  0  0
    7.1676  -12.3701   24.4498 C   0  0  0  0  0  0  0  0  0  0  0  0
    6.8878  -13.7109   24.5837 C   0  0  0  0  0  0  0  0  0  0  0  0
    6.9927  -14.7245   23.5362 C   0  0  0  0  0  0  0  0  0  0  0  0
    8.3880  -15.1183   23.1762 C   0  0  2  0  0  0  0  0  0  0  0  0
    8.3550  -16.1645   22.1778 N   0  0  0  0  0  0  0  0  0  0  0  0
    9.2625  -15.3863   24.3152 C   0  0  0  0  0  0  0  0  0  0  0  0
    9.3474  -14.6655   25.3440 O   0  0  0  0  0  0  0  0  0  0  0  0
    6.4598  -14.1659   25.8436 C   0  0  0  0  0  0  0  0  0  0  0  0
    6.3327  -13.2801   26.8924 C   0  0  0  0  0  0  0  0  0  0  0  0
    7.2378  -19.3254   27.4044 N   0  0  0  0  0  0  0  0  0  0  0  0
    8.6091  -19.0912   27.5956 C   0  0  0  0  0  0  0  0  0  0  0  0
    9.1270  -19.2145   28.7372 O   0  0  0  0  0  0  0  0  0  0  0  0
    9.4312  -18.6905   26.3966 C   0  0  0  0  0  0  0  0  0  0  0  0
    9.9651  -17.3082   26.5466 C   0  0  0  0  0  0  0  0  0  0  0  0
   10.9172  -16.8854   25.4326 C   0  0  2  0  0  0  0  0  0  0  0  0
   10.0865  -16.5469   24.2776 N   0  0  0  0  0  0  0  0  0  0  0  0
   11.7349  -18.0570   25.0576 C   0  0  0  0  0  0  0  0  0  0  0  0
   11.5280  -18.6994   23.9960 O   0  0  0  0  0  0  0  0  0  0  0  0
   12.7716  -18.4936   25.8724 O   0  0  0  0  0  0  0  0  0  0  0  0
  2  1  1  1
  2  3  1  0
  3  4  1  0
  5  4  1  0
  5  6  1  0
  7  6  1  0
  8  2  1  0
  8  9  2  0
 10 11  1  0
 11 12  2  0
 12 13  1  0
 14 15  1  0
 14 13  2  0
 16 17  1  0
 16 15  1  1
 17  8  1  0
 18 16  1  0
 19 18  2  0
 20 14  1  0
 21 20  2  0
 21 11  1  0
 22 23  1  0
 23 25  1  0
 23 24  2  0
 25 26  1  0
 27 26  1  1
 27 28  1  0
 28 18  1  0
 29 27  1  0
 29 31  1  0
 30 29  2  0
M  END
$$$$
