THM.pdb
     RDKit          3D

 26 26  0  0  1  0  0  0  0  0999 V2000
    9.5611  -11.9065   18.7777 C   0  0  0  0  0  0  0  0  0  0  0  0
    9.2009  -13.0052   19.7412 C   0  0  1  0  0  0  0  0  0  0  0  0
    8.2735  -12.5805   20.6915 O   0  0  0  0  0  0  0  0  0  0  0  0
    8.5766  -14.1929   19.0336 C   0  0  2  0  0  0  0  0  0  0  0  0
    7.4028  -13.7179   18.3399 N   0  0  0  0  0  0  0  0  0  0  0  0
    8.1857  -15.2454   20.0589 C   0  0  0  0  0  0  0  0  0  0  0  0
    6.9896  -15.2756   20.4389 O   0  0  0  0  0  0  0  0  0  0  0  0
    9.1239  -16.1451   20.5592 N   0  0  0  0  0  0  0  0  0  0  0  0
    8.8718  -17.1527   21.6372 C   0  0  1  0  0  0  0  0  0  0  0  0
    9.9056  -18.1699   21.4672 C   0  0  0  0  0  0  0  0  0  0  0  0
   10.0804  -19.2409   22.4300 C   0  0  0  0  0  0  0  0  0  0  0  0
    9.3255  -19.7812   23.4314 C   0  0  0  0  0  0  0  0  0  0  0  0
    9.9935  -20.8378   23.9303 N   0  0  0  0  0  0  0  0  0  0  0  0
   11.1419  -20.9760   23.2721 C   0  0  0  0  0  0  0  0  0  0  0  0
   11.2071  -20.0223   22.3666 N   0  0  0  0  0  0  0  0  0  0  0  0
    9.0989  -16.3284   22.8846 C   0  0  0  0  0  0  0  0  0  0  0  0
   10.2538  -15.7549   23.0415 O   0  0  0  0  0  0  0  0  0  0  0  0
    6.5778  -10.4913   26.1568 C   0  0  0  0  0  0  0  0  0  0  0  0
    6.2718  -12.2735   26.3434 S   0  0  0  0  0  0  0  0  0  0  0  0
    7.6972  -13.1640   25.6262 C   0  0  0  0  0  0  0  0  0  0  0  0
    7.4944  -14.6424   25.7475 C   0  0  0  0  0  0  0  0  0  0  0  0
    8.6600  -15.3894   25.1577 C   0  0  2  0  0  0  0  0  0  0  0  0
    8.2075  -16.0912   23.9216 N   0  0  0  0  0  0  0  0  0  0  0  0
    9.1134  -16.4294   26.0918 C   0  0  0  0  0  0  0  0  0  0  0  0
   10.3034  -16.2116   26.8125 O   0  0  0  0  0  0  0  0  0  0  0  0
    8.5250  -17.5220   26.3137 O   0  0  0  0  0  0  0  0  0  0  0  0
  2  3  1  0
  2  1  1  6
  4  6  1  0
  4  2  1  0
  4  5  1  1
  6  7  2  0
  8  6  1  0
  8  9  1  0
  9 10  1  6
 11 15  1  0
 11 10  1  0
 12 11  2  0
 13 12  1  0
 13 14  1  0
 14 15  2  0
 16 23  1  0
 16  9  1  0
 17 16  2  0
 18 19  1  0
 19 20  1  0
 20 21  1  0
 22 21  1  1
 22 24  1  0
 22 23  1  0
 24 25  1  0
 26 24  2  0
M  END
$$$$
