THM.pdb
     RDKit          3D

 26 26  0  0  1  0  0  0  0  0999 V2000
   12.0536  -19.7147   21.3468 C   0  0  0  0  0  0  0  0  0  0  0  0
   13.0583  -18.9309   20.5459 C   0  0  1  0  0  0  0  0  0  0  0  0
   13.6023  -19.6883   19.5095 O   0  0  0  0  0  0  0  0  0  0  0  0
   12.4344  -17.7077   19.9014 C   0  0  2  0  0  0  0  0  0  0  0  0
   13.4531  -17.0710   19.1003 N   0  0  0  0  0  0  0  0  0  0  0  0
   11.9518  -16.7552   20.9838 C   0  0  0  0  0  0  0  0  0  0  0  0
   12.8051  -16.0213   21.5398 O   0  0  0  0  0  0  0  0  0  0  0  0
   10.6079  -16.6997   21.3457 N   0  0  0  0  0  0  0  0  0  0  0  0
   10.0008  -15.6999   22.2800 C   0  0  1  0  0  0  0  0  0  0  0  0
    8.6199  -15.5399   21.8332 C   0  0  0  0  0  0  0  0  0  0  0  0
    8.2706  -14.6231   20.7645 C   0  0  0  0  0  0  0  0  0  0  0  0
    8.9660  -13.8245   19.9023 C   0  0  0  0  0  0  0  0  0  0  0  0
    8.0840  -13.2623   19.0552 N   0  0  0  0  0  0  0  0  0  0  0  0
    6.8592  -13.6846   19.3597 C   0  0  0  0  0  0  0  0  0  0  0  0
    6.9567  -14.5039   20.3858 N   0  0  0  0  0  0  0  0  0  0  0  0
   10.0792  -16.4305   23.6018 C   0  0  0  0  0  0  0  0  0  0  0  0
   10.0604  -17.7293   23.5892 O   0  0  0  0  0  0  0  0  0  0  0  0
    9.5581  -12.9106   29.7116 C   0  0  0  0  0  0  0  0  0  0  0  0
   10.8987  -13.9262   29.0218 S   0  0  0  0  0  0  0  0  0  0  0  0
   10.1770  -15.0083   27.7382 C   0  0  0  0  0  0  0  0  0  0  0  0
   11.2576  -15.7868   27.0543 C   0  0  0  0  0  0  0  0  0  0  0  0
   10.6750  -16.7034   26.0126 C   0  0  2  0  0  0  0  0  0  0  0  0
   10.1739  -15.8815   24.8730 N   0  0  0  0  0  0  0  0  0  0  0  0
    9.5129  -17.4142   26.5637 C   0  0  0  0  0  0  0  0  0  0  0  0
    8.2347  -17.1000   26.0632 O   0  0  0  0  0  0  0  0  0  0  0  0
    9.5528  -18.2980   27.4618 O   0  0  0  0  0  0  0  0  0  0  0  0
  2  3  1  0
  2  1  1  6
  4  6  1  0
  4  2  1  0
  4  5  1  6
  6  7  2  0
  8  6  1  0
  8  9  1  0
  9 10  1  6
 11 15  1  0
 11 10  1  0
 12 11  2  0
 13 12  1  0
 13 14  1  0
 14 15  2  0
 16 23  1  0
 16  9  1  0
 17 16  2  0
 18 19  1  0
 19 20  1  0
 20 21  1  0
 22 21  1  1
 22 24  1  0
 22 23  1  0
 24 25  1  0
 26 24  2  0
M  END
$$$$
