THM.pdb
     RDKit          3D

 26 26  0  0  1  0  0  0  0  0999 V2000
    9.9196  -12.1342   17.9626 C   0  0  0  0  0  0  0  0  0  0  0  0
    9.5058  -12.9965   19.1247 C   0  0  1  0  0  0  0  0  0  0  0  0
    8.7355  -12.2908   20.0478 O   0  0  0  0  0  0  0  0  0  0  0  0
    8.6652  -14.1777   18.6786 C   0  0  2  0  0  0  0  0  0  0  0  0
    7.4635  -13.6527   18.0745 N   0  0  0  0  0  0  0  0  0  0  0  0
    8.3112  -15.0322   19.8854 C   0  0  0  0  0  0  0  0  0  0  0  0
    7.1989  -14.8375   20.4337 O   0  0  0  0  0  0  0  0  0  0  0  0
    9.1923  -15.9982   20.3657 N   0  0  0  0  0  0  0  0  0  0  0  0
    8.9087  -16.9535   21.4828 C   0  0  1  0  0  0  0  0  0  0  0  0
    9.8982  -18.0183   21.3435 C   0  0  0  0  0  0  0  0  0  0  0  0
   10.0332  -19.0625   22.3415 C   0  0  0  0  0  0  0  0  0  0  0  0
    9.3782  -19.3992   23.4914 C   0  0  0  0  0  0  0  0  0  0  0  0
    9.9101  -20.5471   23.9506 N   0  0  0  0  0  0  0  0  0  0  0  0
   10.8764  -20.9395   23.1239 C   0  0  0  0  0  0  0  0  0  0  0  0
   10.9610  -20.0559   22.1514 N   0  0  0  0  0  0  0  0  0  0  0  0
    9.1807  -16.0933   22.6964 C   0  0  0  0  0  0  0  0  0  0  0  0
   10.1757  -15.2595   22.6493 O   0  0  0  0  0  0  0  0  0  0  0  0
    5.2482  -12.9072   27.5236 C   0  0  0  0  0  0  0  0  0  0  0  0
    6.5576  -12.0928   26.5609 S   0  0  0  0  0  0  0  0  0  0  0  0
    7.9315  -13.2819   26.3670 C   0  0  0  0  0  0  0  0  0  0  0  0
    7.7030  -14.1402   25.1617 C   0  0  0  0  0  0  0  0  0  0  0  0
    8.8507  -15.0928   24.9617 C   0  0  2  0  0  0  0  0  0  0  0  0
    8.4850  -16.0717   23.8971 N   0  0  0  0  0  0  0  0  0  0  0  0
    9.0780  -15.8687   26.1889 C   0  0  0  0  0  0  0  0  0  0  0  0
    9.8162  -15.2752   27.2310 O   0  0  0  0  0  0  0  0  0  0  0  0
    8.6657  -17.0408   26.4016 O   0  0  0  0  0  0  0  0  0  0  0  0
  2  3  1  0
  2  1  1  6
  4  6  1  0
  4  2  1  0
  4  5  1  1
  6  7  2  0
  8  6  1  0
  8  9  1  0
  9 10  1  6
 11 15  1  0
 11 10  1  0
 12 11  2  0
 13 12  1  0
 13 14  1  0
 14 15  2  0
 16 23  1  0
 16  9  1  0
 17 16  2  0
 18 19  1  0
 19 20  1  0
 20 21  1  0
 22 21  1  1
 22 24  1  0
 22 23  1  0
 24 25  1  0
 26 24  2  0
M  END
$$$$
