THM.pdb
     RDKit          3D

 26 26  0  0  1  0  0  0  0  0999 V2000
    9.8904  -12.3163   18.4908 C   0  0  0  0  0  0  0  0  0  0  0  0
    9.3930  -13.1755   19.6219 C   0  0  1  0  0  0  0  0  0  0  0  0
    8.8403  -12.4131   20.6501 O   0  0  0  0  0  0  0  0  0  0  0  0
    8.3079  -14.1330   19.1672 C   0  0  2  0  0  0  0  0  0  0  0  0
    7.2108  -13.3401   18.6651 N   0  0  0  0  0  0  0  0  0  0  0  0
    7.8463  -14.9730   20.3475 C   0  0  0  0  0  0  0  0  0  0  0  0
    6.7448  -14.6839   20.8757 O   0  0  0  0  0  0  0  0  0  0  0  0
    8.6203  -16.0276   20.8259 N   0  0  0  0  0  0  0  0  0  0  0  0
    8.2465  -16.9367   21.9549 C   0  0  1  0  0  0  0  0  0  0  0  0
    9.1063  -18.1081   21.8110 C   0  0  0  0  0  0  0  0  0  0  0  0
    9.2365  -19.0875   22.8732 C   0  0  0  0  0  0  0  0  0  0  0  0
   10.2079  -19.4239   23.7721 C   0  0  0  0  0  0  0  0  0  0  0  0
    9.7086  -20.3718   24.5868 N   0  0  0  0  0  0  0  0  0  0  0  0
    8.4555  -20.6383   24.2266 C   0  0  0  0  0  0  0  0  0  0  0  0
    8.1584  -19.8727   23.1974 N   0  0  0  0  0  0  0  0  0  0  0  0
    8.6326  -16.1047   23.1573 C   0  0  0  0  0  0  0  0  0  0  0  0
    9.6468  -15.3004   23.0492 O   0  0  0  0  0  0  0  0  0  0  0  0
    6.1638  -11.2964   26.2294 C   0  0  0  0  0  0  0  0  0  0  0  0
    6.5062  -12.3696   27.6562 S   0  0  0  0  0  0  0  0  0  0  0  0
    7.8270  -13.5368   27.1742 C   0  0  0  0  0  0  0  0  0  0  0  0
    7.4266  -14.2867   25.9419 C   0  0  0  0  0  0  0  0  0  0  0  0
    8.5439  -15.1812   25.4770 C   0  0  2  0  0  0  0  0  0  0  0  0
    8.0269  -16.0816   24.4059 N   0  0  0  0  0  0  0  0  0  0  0  0
    8.9852  -16.0466   26.5796 C   0  0  0  0  0  0  0  0  0  0  0  0
    8.6945  -17.4228   26.5102 O   0  0  0  0  0  0  0  0  0  0  0  0
    9.6129  -15.6654   27.6042 O   0  0  0  0  0  0  0  0  0  0  0  0
  2  3  1  0
  2  1  1  6
  4  6  1  0
  4  2  1  0
  4  5  1  1
  6  7  2  0
  8  6  1  0
  8  9  1  0
  9 10  1  6
 11 15  1  0
 11 10  1  0
 12 11  2  0
 13 12  1  0
 13 14  1  0
 14 15  2  0
 16 23  1  0
 16  9  1  0
 17 16  2  0
 18 19  1  0
 19 20  1  0
 20 21  1  0
 22 21  1  1
 22 24  1  0
 22 23  1  0
 24 25  1  0
 26 24  2  0
M  END
$$$$
