THM.pdb
     RDKit          3D

 26 26  0  0  1  0  0  0  0  0999 V2000
    9.4226  -12.2804   18.3609 C   0  0  0  0  0  0  0  0  0  0  0  0
    9.1225  -13.2253   19.4932 C   0  0  1  0  0  0  0  0  0  0  0  0
    8.4433  -12.5921   20.5331 O   0  0  0  0  0  0  0  0  0  0  0  0
    8.2441  -14.3787   19.0468 C   0  0  2  0  0  0  0  0  0  0  0  0
    7.0204  -13.8168   18.5258 N   0  0  0  0  0  0  0  0  0  0  0  0
    7.9406  -15.2747   20.2372 C   0  0  0  0  0  0  0  0  0  0  0  0
    6.8393  -15.1201   20.8196 O   0  0  0  0  0  0  0  0  0  0  0  0
    8.8546  -16.2341   20.6663 N   0  0  0  0  0  0  0  0  0  0  0  0
    8.6318  -17.2084   21.7808 C   0  0  1  0  0  0  0  0  0  0  0  0
    9.7201  -18.1761   21.6738 C   0  0  0  0  0  0  0  0  0  0  0  0
    9.9357  -19.1894   22.6893 C   0  0  0  0  0  0  0  0  0  0  0  0
    9.1890  -19.7320   23.6957 C   0  0  0  0  0  0  0  0  0  0  0  0
    9.9086  -20.7197   24.2596 N   0  0  0  0  0  0  0  0  0  0  0  0
   11.0813  -20.8127   23.6373 C   0  0  0  0  0  0  0  0  0  0  0  0
   11.1110  -19.8983   22.6904 N   0  0  0  0  0  0  0  0  0  0  0  0
    8.7893  -16.3228   22.9964 C   0  0  0  0  0  0  0  0  0  0  0  0
    9.7742  -15.4761   23.0177 O   0  0  0  0  0  0  0  0  0  0  0  0
    7.2218  -10.8063   27.2385 C   0  0  0  0  0  0  0  0  0  0  0  0
    6.2402  -12.2521   26.7376 S   0  0  0  0  0  0  0  0  0  0  0  0
    7.3265  -13.7195   26.8137 C   0  0  0  0  0  0  0  0  0  0  0  0
    7.0670  -14.6133   25.6411 C   0  0  0  0  0  0  0  0  0  0  0  0
    8.3168  -15.3551   25.2507 C   0  0  2  0  0  0  0  0  0  0  0  0
    7.9940  -16.2893   24.1334 N   0  0  0  0  0  0  0  0  0  0  0  0
    8.7797  -16.1830   26.3732 C   0  0  0  0  0  0  0  0  0  0  0  0
    9.4020  -15.5467   27.4645 O   0  0  0  0  0  0  0  0  0  0  0  0
    8.6701  -17.4363   26.4533 O   0  0  0  0  0  0  0  0  0  0  0  0
  2  3  1  0
  2  1  1  6
  4  6  1  0
  4  2  1  0
  4  5  1  1
  6  7  2  0
  8  6  1  0
  8  9  1  0
  9 10  1  1
 11 15  1  0
 11 10  1  0
 12 11  2  0
 13 12  1  0
 13 14  1  0
 14 15  2  0
 16 23  1  0
 16  9  1  0
 17 16  2  0
 18 19  1  0
 19 20  1  0
 20 21  1  0
 22 21  1  1
 22 24  1  0
 22 23  1  0
 24 25  1  0
 26 24  2  0
M  END
$$$$
