THM.pdb
     RDKit          3D

 26 26  0  0  1  0  0  0  0  0999 V2000
    8.6385  -12.7272   19.3181 C   0  0  0  0  0  0  0  0  0  0  0  0
    8.1045  -13.4687   18.1222 C   0  0  1  0  0  0  0  0  0  0  0  0
    8.3666  -12.7927   16.9314 O   0  0  0  0  0  0  0  0  0  0  0  0
    8.7339  -14.8418   17.9833 C   0  0  2  0  0  0  0  0  0  0  0  0
    8.2202  -15.4351   16.7713 N   0  0  0  0  0  0  0  0  0  0  0  0
    8.3556  -15.6963   19.1827 C   0  0  0  0  0  0  0  0  0  0  0  0
    7.1758  -16.1198   19.2500 O   0  0  0  0  0  0  0  0  0  0  0  0
    9.2874  -15.9982   20.1729 N   0  0  0  0  0  0  0  0  0  0  0  0
    9.0379  -16.8718   21.3627 C   0  0  1  0  0  0  0  0  0  0  0  0
   10.1291  -17.8422   21.3674 C   0  0  0  0  0  0  0  0  0  0  0  0
   10.3716  -18.7042   22.5087 C   0  0  0  0  0  0  0  0  0  0  0  0
   11.3659  -18.8338   23.4356 C   0  0  0  0  0  0  0  0  0  0  0  0
   10.9838  -19.7681   24.3258 N   0  0  0  0  0  0  0  0  0  0  0  0
    9.7815  -20.2264   23.9856 C   0  0  0  0  0  0  0  0  0  0  0  0
    9.4012  -19.5949   22.8946 N   0  0  0  0  0  0  0  0  0  0  0  0
    9.1651  -15.8827   22.4996 C   0  0  0  0  0  0  0  0  0  0  0  0
   10.1510  -15.0374   22.4726 O   0  0  0  0  0  0  0  0  0  0  0  0
    6.4844  -10.9885   27.9043 C   0  0  0  0  0  0  0  0  0  0  0  0
    6.0775  -12.2964   26.7092 S   0  0  0  0  0  0  0  0  0  0  0  0
    7.6434  -13.0697   26.1713 C   0  0  0  0  0  0  0  0  0  0  0  0
    7.3789  -14.0670   25.0866 C   0  0  0  0  0  0  0  0  0  0  0  0
    8.6545  -14.7444   24.6641 C   0  0  2  0  0  0  0  0  0  0  0  0
    8.3399  -15.7495   23.6076 N   0  0  0  0  0  0  0  0  0  0  0  0
    9.2267  -15.4867   25.7961 C   0  0  0  0  0  0  0  0  0  0  0  0
   10.0741  -14.8016   26.6881 O   0  0  0  0  0  0  0  0  0  0  0  0
    9.0265  -16.7052   26.0496 O   0  0  0  0  0  0  0  0  0  0  0  0
  2  3  1  0
  2  1  1  1
  4  6  1  0
  4  2  1  0
  4  5  1  6
  6  7  2  0
  8  6  1  0
  8  9  1  0
  9 10  1  1
 11 15  1  0
 11 10  1  0
 12 11  2  0
 13 12  1  0
 13 14  1  0
 14 15  2  0
 16 23  1  0
 16  9  1  0
 17 16  2  0
 18 19  1  0
 19 20  1  0
 20 21  1  0
 22 21  1  1
 22 24  1  0
 22 23  1  0
 24 25  1  0
 26 24  2  0
M  END
$$$$
