THM.pdb
     RDKit          3D

 26 26  0  0  1  0  0  0  0  0999 V2000
   10.6421  -13.5880   18.2151 C   0  0  0  0  0  0  0  0  0  0  0  0
    9.8964  -14.0478   19.4388 C   0  0  1  0  0  0  0  0  0  0  0  0
    9.9846  -13.1242   20.4794 O   0  0  0  0  0  0  0  0  0  0  0  0
    8.4178  -14.2388   19.1591 C   0  0  2  0  0  0  0  0  0  0  0  0
    7.8880  -12.9652   18.7326 N   0  0  0  0  0  0  0  0  0  0  0  0
    7.7169  -14.6960   20.4285 C   0  0  0  0  0  0  0  0  0  0  0  0
    7.0094  -13.8583   21.0399 O   0  0  0  0  0  0  0  0  0  0  0  0
    7.8558  -16.0005   20.8965 N   0  0  0  0  0  0  0  0  0  0  0  0
    7.1362  -16.5820   22.0734 C   0  0  1  0  0  0  0  0  0  0  0  0
    7.2683  -18.0294   21.9326 C   0  0  0  0  0  0  0  0  0  0  0  0
    6.9190  -18.9309   23.0142 C   0  0  0  0  0  0  0  0  0  0  0  0
    6.3948  -18.7895   24.2672 C   0  0  0  0  0  0  0  0  0  0  0  0
    6.2064  -20.0199   24.7791 N   0  0  0  0  0  0  0  0  0  0  0  0
    6.5953  -20.9264   23.8858 C   0  0  0  0  0  0  0  0  0  0  0  0
    7.0259  -20.2854   22.8193 N   0  0  0  0  0  0  0  0  0  0  0  0
    7.9612  -16.0553   23.2262 C   0  0  0  0  0  0  0  0  0  0  0  0
    9.2546  -16.0500   23.1056 O   0  0  0  0  0  0  0  0  0  0  0  0
    6.5008  -10.1029   25.9620 C   0  0  0  0  0  0  0  0  0  0  0  0
    6.6436  -11.7033   26.8122 S   0  0  0  0  0  0  0  0  0  0  0  0
    7.5536  -12.8428   25.7110 C   0  0  0  0  0  0  0  0  0  0  0  0
    7.7961  -14.1463   26.4062 C   0  0  0  0  0  0  0  0  0  0  0  0
    8.4780  -15.1217   25.4851 C   0  0  2  0  0  0  0  0  0  0  0  0
    7.5073  -15.5567   24.4393 N   0  0  0  0  0  0  0  0  0  0  0  0
    8.8652  -16.3279   26.2299 C   0  0  0  0  0  0  0  0  0  0  0  0
   10.0735  -16.3111   26.9530 O   0  0  0  0  0  0  0  0  0  0  0  0
    8.2036  -17.3996   26.2840 O   0  0  0  0  0  0  0  0  0  0  0  0
  2  3  1  0
  2  1  1  6
  4  6  1  0
  4  2  1  0
  4  5  1  1
  6  7  2  0
  8  6  1  0
  8  9  1  0
  9 10  1  6
 11 15  1  0
 11 10  1  0
 12 11  2  0
 13 12  1  0
 13 14  1  0
 14 15  2  0
 16 23  1  0
 16  9  1  0
 17 16  2  0
 18 19  1  0
 19 20  1  0
 20 21  1  0
 22 21  1  1
 22 24  1  0
 22 23  1  0
 24 25  1  0
 26 24  2  0
M  END
$$$$
