THM.pdb
     RDKit          3D

 26 26  0  0  1  0  0  0  0  0999 V2000
    9.9042  -14.1024   18.1101 C   0  0  0  0  0  0  0  0  0  0  0  0
    9.3174  -14.4913   19.4403 C   0  0  1  0  0  0  0  0  0  0  0  0
    9.6792  -13.5997   20.4492 O   0  0  0  0  0  0  0  0  0  0  0  0
    7.8010  -14.5060   19.4045 C   0  0  2  0  0  0  0  0  0  0  0  0
    7.3605  -13.1682   19.0869 N   0  0  0  0  0  0  0  0  0  0  0  0
    7.2661  -14.9212   20.7659 C   0  0  0  0  0  0  0  0  0  0  0  0
    6.7498  -14.0328   21.4870 O   0  0  0  0  0  0  0  0  0  0  0  0
    7.3468  -16.2431   21.1975 N   0  0  0  0  0  0  0  0  0  0  0  0
    6.8515  -16.7589   22.5126 C   0  0  1  0  0  0  0  0  0  0  0  0
    7.0116  -18.2088   22.4460 C   0  0  0  0  0  0  0  0  0  0  0  0
    6.8769  -19.0411   23.6265 C   0  0  0  0  0  0  0  0  0  0  0  0
    7.6101  -20.0393   24.2015 C   0  0  0  0  0  0  0  0  0  0  0  0
    7.0167  -20.3738   25.3622 N   0  0  0  0  0  0  0  0  0  0  0  0
    5.9360  -19.6159   25.5320 C   0  0  0  0  0  0  0  0  0  0  0  0
    5.8400  -18.8095   24.4955 N   0  0  0  0  0  0  0  0  0  0  0  0
    7.8342  -16.1321   23.4760 C   0  0  0  0  0  0  0  0  0  0  0  0
    9.0666  -15.9880   23.0914 O   0  0  0  0  0  0  0  0  0  0  0  0
    5.6841  -10.7296   26.7417 C   0  0  0  0  0  0  0  0  0  0  0  0
    6.3143  -12.3044   27.3956 S   0  0  0  0  0  0  0  0  0  0  0  0
    7.4688  -13.0005   26.1620 C   0  0  0  0  0  0  0  0  0  0  0  0
    8.0845  -14.2602   26.6867 C   0  0  0  0  0  0  0  0  0  0  0  0
    8.6882  -15.0639   25.5668 C   0  0  2  0  0  0  0  0  0  0  0  0
    7.5888  -15.6712   24.7620 N   0  0  0  0  0  0  0  0  0  0  0  0
    9.4744  -16.1774   26.1159 C   0  0  0  0  0  0  0  0  0  0  0  0
   10.7024  -15.8876   26.7413 O   0  0  0  0  0  0  0  0  0  0  0  0
    9.1464  -17.3940   26.0793 O   0  0  0  0  0  0  0  0  0  0  0  0
  2  3  1  0
  2  1  1  6
  4  6  1  0
  4  2  1  0
  4  5  1  1
  6  7  2  0
  8  6  1  0
  8  9  1  0
  9 10  1  6
 11 15  1  0
 11 10  1  0
 12 11  2  0
 13 12  1  0
 13 14  1  0
 14 15  2  0
 16 23  1  0
 16  9  1  0
 17 16  2  0
 18 19  1  0
 19 20  1  0
 20 21  1  0
 22 21  1  1
 22 24  1  0
 22 23  1  0
 24 25  1  0
 26 24  2  0
M  END
$$$$
