THM.pdb
     RDKit          3D

 26 26  0  0  1  0  0  0  0  0999 V2000
    4.8406  -19.2524   22.8598 C   0  0  0  0  0  0  0  0  0  0  0  0
    6.0820  -18.4173   22.6963 C   0  0  1  0  0  0  0  0  0  0  0  0
    7.1926  -19.0143   23.2910 O   0  0  0  0  0  0  0  0  0  0  0  0
    6.4356  -18.2134   21.2354 C   0  0  2  0  0  0  0  0  0  0  0  0
    6.6411  -19.5179   20.6516 N   0  0  0  0  0  0  0  0  0  0  0  0
    7.7097  -17.3900   21.1326 C   0  0  0  0  0  0  0  0  0  0  0  0
    8.7949  -18.0064   20.9981 O   0  0  0  0  0  0  0  0  0  0  0  0
    7.6728  -15.9986   21.1862 N   0  0  0  0  0  0  0  0  0  0  0  0
    8.8686  -15.0981   21.1966 C   0  0  1  0  0  0  0  0  0  0  0  0
    8.4871  -13.9371   20.3973 C   0  0  0  0  0  0  0  0  0  0  0  0
    8.6099  -13.9389   18.9519 C   0  0  0  0  0  0  0  0  0  0  0  0
    9.2744  -14.7000   18.0332 C   0  0  0  0  0  0  0  0  0  0  0  0
    8.9240  -14.2699   16.8070 N   0  0  0  0  0  0  0  0  0  0  0  0
    8.0608  -13.2645   16.9295 C   0  0  0  0  0  0  0  0  0  0  0  0
    7.8626  -13.0550   18.2142 N   0  0  0  0  0  0  0  0  0  0  0  0
    8.9784  -14.7537   22.6651 C   0  0  0  0  0  0  0  0  0  0  0  0
    8.9041  -13.5039   23.0114 O   0  0  0  0  0  0  0  0  0  0  0  0
    7.3671  -11.3436   27.1247 C   0  0  0  0  0  0  0  0  0  0  0  0
    6.2821  -12.7786   26.8635 S   0  0  0  0  0  0  0  0  0  0  0  0
    7.3389  -14.2646   26.7437 C   0  0  0  0  0  0  0  0  0  0  0  0
    7.6033  -14.5936   25.3073 C   0  0  0  0  0  0  0  0  0  0  0  0
    8.9958  -15.1371   25.1337 C   0  0  2  0  0  0  0  0  0  0  0  0
    9.1523  -15.6238   23.7323 N   0  0  0  0  0  0  0  0  0  0  0  0
    9.1926  -16.3008   26.0094 C   0  0  0  0  0  0  0  0  0  0  0  0
    9.4004  -16.0785   27.3843 O   0  0  0  0  0  0  0  0  0  0  0  0
    9.1931  -17.5055   25.6381 O   0  0  0  0  0  0  0  0  0  0  0  0
  2  3  1  0
  2  1  1  6
  4  6  1  0
  4  2  1  0
  4  5  1  1
  6  7  2  0
  8  6  1  0
  8  9  1  0
  9 10  1  6
 11 15  1  0
 11 10  1  0
 12 11  2  0
 13 12  1  0
 13 14  1  0
 14 15  2  0
 16 23  1  0
 16  9  1  0
 17 16  2  0
 18 19  1  0
 19 20  1  0
 20 21  1  0
 22 21  1  6
 22 24  1  0
 22 23  1  0
 24 25  1  0
 26 24  2  0
M  END
$$$$
