THM.pdb
     RDKit          3D

 26 26  0  0  1  0  0  0  0  0999 V2000
    8.9568  -11.9867   18.3382 C   0  0  0  0  0  0  0  0  0  0  0  0
    8.8599  -13.0675   19.3811 C   0  0  1  0  0  0  0  0  0  0  0  0
    7.7503  -12.8951   20.2073 O   0  0  0  0  0  0  0  0  0  0  0  0
    8.7197  -14.4425   18.7561 C   0  0  2  0  0  0  0  0  0  0  0  0
    7.5537  -14.4166   17.9051 N   0  0  0  0  0  0  0  0  0  0  0  0
    8.5419  -15.4814   19.8521 C   0  0  0  0  0  0  0  0  0  0  0  0
    7.3713  -15.8265   20.1462 O   0  0  0  0  0  0  0  0  0  0  0  0
    9.6415  -16.0309   20.5071 N   0  0  0  0  0  0  0  0  0  0  0  0
    9.5856  -17.1152   21.5376 C   0  0  1  0  0  0  0  0  0  0  0  0
   10.8258  -17.8689   21.3757 C   0  0  0  0  0  0  0  0  0  0  0  0
   11.2015  -18.9183   22.3042 C   0  0  0  0  0  0  0  0  0  0  0  0
   10.6188  -19.5143   23.3858 C   0  0  0  0  0  0  0  0  0  0  0  0
   11.4254  -20.5111   23.7946 N   0  0  0  0  0  0  0  0  0  0  0  0
   12.4937  -20.5581   23.0024 C   0  0  0  0  0  0  0  0  0  0  0  0
   12.3720  -19.6058   22.1012 N   0  0  0  0  0  0  0  0  0  0  0  0
    9.5812  -16.3160   22.8215 C   0  0  0  0  0  0  0  0  0  0  0  0
   10.3899  -15.3042   22.9194 O   0  0  0  0  0  0  0  0  0  0  0  0
    6.3727  -11.1323   26.8166 C   0  0  0  0  0  0  0  0  0  0  0  0
    6.0969  -12.8107   26.1753 S   0  0  0  0  0  0  0  0  0  0  0  0
    7.7296  -13.5454   25.8099 C   0  0  0  0  0  0  0  0  0  0  0  0
    7.5665  -14.9639   25.3596 C   0  0  0  0  0  0  0  0  0  0  0  0
    8.9075  -15.6032   25.1192 C   0  0  2  0  0  0  0  0  0  0  0  0
    8.8004  -16.5235   23.9500 N   0  0  0  0  0  0  0  0  0  0  0  0
    9.2830  -16.4302   26.2745 C   0  0  0  0  0  0  0  0  0  0  0  0
   10.2242  -15.9184   27.1885 O   0  0  0  0  0  0  0  0  0  0  0  0
    8.8324  -17.5793   26.5305 O   0  0  0  0  0  0  0  0  0  0  0  0
  2  3  1  0
  2  1  1  6
  4  6  1  0
  4  2  1  0
  4  5  1  6
  6  7  2  0
  8  6  1  0
  8  9  1  0
  9 10  1  1
 11 15  1  0
 11 10  1  0
 12 11  2  0
 13 12  1  0
 13 14  1  0
 14 15  2  0
 16 23  1  0
 16  9  1  0
 17 16  2  0
 18 19  1  0
 19 20  1  0
 20 21  1  0
 22 21  1  1
 22 24  1  0
 22 23  1  0
 24 25  1  0
 26 24  2  0
M  END
$$$$
