THM.pdb
     RDKit          3D

 26 26  0  0  1  0  0  0  0  0999 V2000
    5.6830  -18.8508   25.2890 C   0  0  0  0  0  0  0  0  0  0  0  0
    5.9250  -20.0623   24.4295 C   0  0  1  0  0  0  0  0  0  0  0  0
    5.0684  -21.1122   24.7573 O   0  0  0  0  0  0  0  0  0  0  0  0
    5.6963  -19.7652   22.9596 C   0  0  2  0  0  0  0  0  0  0  0  0
    5.8084  -21.0126   22.2413 N   0  0  0  0  0  0  0  0  0  0  0  0
    6.7514  -18.7856   22.4706 C   0  0  0  0  0  0  0  0  0  0  0  0
    7.9564  -19.1177   22.5873 O   0  0  0  0  0  0  0  0  0  0  0  0
    6.3919  -17.5613   21.9122 N   0  0  0  0  0  0  0  0  0  0  0  0
    7.3444  -16.4862   21.4904 C   0  0  1  0  0  0  0  0  0  0  0  0
    6.5681  -15.5938   20.6341 C   0  0  0  0  0  0  0  0  0  0  0  0
    7.1735  -14.4412   19.9942 C   0  0  0  0  0  0  0  0  0  0  0  0
    7.1139  -13.0883   20.1700 C   0  0  0  0  0  0  0  0  0  0  0  0
    7.9851  -12.5205   19.3157 N   0  0  0  0  0  0  0  0  0  0  0  0
    8.5884  -13.4752   18.6118 C   0  0  0  0  0  0  0  0  0  0  0  0
    8.1100  -14.6356   19.0098 N   0  0  0  0  0  0  0  0  0  0  0  0
    7.6789  -15.8380   22.8152 C   0  0  0  0  0  0  0  0  0  0  0  0
    6.7421  -15.1862   23.4355 O   0  0  0  0  0  0  0  0  0  0  0  0
    6.6336  -11.4806   26.9565 C   0  0  0  0  0  0  0  0  0  0  0  0
    6.8682  -13.2289   27.3958 S   0  0  0  0  0  0  0  0  0  0  0  0
    8.4197  -13.7984   26.6163 C   0  0  0  0  0  0  0  0  0  0  0  0
    8.1195  -14.7972   25.5422 C   0  0  0  0  0  0  0  0  0  0  0  0
    9.2041  -14.7987   24.4990 C   0  0  2  0  0  0  0  0  0  0  0  0
    8.8952  -15.8470   23.4836 N   0  0  0  0  0  0  0  0  0  0  0  0
   10.4879  -15.1687   25.1109 C   0  0  0  0  0  0  0  0  0  0  0  0
   11.0725  -14.2798   26.0336 O   0  0  0  0  0  0  0  0  0  0  0  0
   11.1296  -16.2295   24.8831 O   0  0  0  0  0  0  0  0  0  0  0  0
  2  3  1  0
  2  1  1  1
  4  6  1  0
  4  2  1  0
  4  5  1  6
  6  7  2  0
  8  6  1  0
  8  9  1  0
  9 10  1  6
 11 15  1  0
 11 10  1  0
 12 11  2  0
 13 12  1  0
 13 14  1  0
 14 15  2  0
 16 23  1  0
 16  9  1  0
 17 16  2  0
 18 19  1  0
 19 20  1  0
 20 21  1  0
 22 21  1  1
 22 24  1  0
 22 23  1  0
 24 25  1  0
 26 24  2  0
M  END
$$$$
