THM.pdb
     RDKit          3D

 26 26  0  0  1  0  0  0  0  0999 V2000
    9.0502  -12.7399   20.2239 C   0  0  0  0  0  0  0  0  0  0  0  0
    8.3464  -13.1449   18.9568 C   0  0  1  0  0  0  0  0  0  0  0  0
    8.8880  -12.5156   17.8369 O   0  0  0  0  0  0  0  0  0  0  0  0
    8.4543  -14.6368   18.7045 C   0  0  2  0  0  0  0  0  0  0  0  0
    7.7062  -14.9302   17.5050 N   0  0  0  0  0  0  0  0  0  0  0  0
    7.8656  -15.3941   19.8842 C   0  0  0  0  0  0  0  0  0  0  0  0
    6.6258  -15.3199   20.0666 O   0  0  0  0  0  0  0  0  0  0  0  0
    8.6755  -16.1445   20.7333 N   0  0  0  0  0  0  0  0  0  0  0  0
    8.1963  -16.9615   21.8926 C   0  0  1  0  0  0  0  0  0  0  0  0
    9.0855  -18.1186   21.9458 C   0  0  0  0  0  0  0  0  0  0  0  0
    9.0623  -19.0412   23.0651 C   0  0  0  0  0  0  0  0  0  0  0  0
    8.2759  -19.2121   24.1684 C   0  0  0  0  0  0  0  0  0  0  0  0
    8.6968  -20.3176   24.8102 N   0  0  0  0  0  0  0  0  0  0  0  0
    9.7209  -20.8442   24.1430 C   0  0  0  0  0  0  0  0  0  0  0  0
    9.9512  -20.0867   23.0909 N   0  0  0  0  0  0  0  0  0  0  0  0
    8.4363  -16.0187   23.0503 C   0  0  0  0  0  0  0  0  0  0  0  0
    9.5858  -15.4186   23.1272 O   0  0  0  0  0  0  0  0  0  0  0  0
    6.1954  -10.3701   25.9114 C   0  0  0  0  0  0  0  0  0  0  0  0
    6.1464  -11.7737   27.0656 S   0  0  0  0  0  0  0  0  0  0  0  0
    7.4840  -12.9283   26.5996 C   0  0  0  0  0  0  0  0  0  0  0  0
    6.9378  -14.0321   25.7484 C   0  0  0  0  0  0  0  0  0  0  0  0
    8.0455  -14.9279   25.2637 C   0  0  2  0  0  0  0  0  0  0  0  0
    7.5624  -15.6943   24.0786 N   0  0  0  0  0  0  0  0  0  0  0  0
    8.3798  -15.9166   26.2983 C   0  0  0  0  0  0  0  0  0  0  0  0
    9.4754  -15.6581   27.1445 O   0  0  0  0  0  0  0  0  0  0  0  0
    7.7653  -16.9977   26.5046 O   0  0  0  0  0  0  0  0  0  0  0  0
  2  3  1  0
  2  1  1  1
  4  6  1  0
  4  2  1  0
  4  5  1  6
  6  7  2  0
  8  6  1  0
  8  9  1  0
  9 10  1  1
 11 15  1  0
 11 10  1  0
 12 11  2  0
 13 12  1  0
 13 14  1  0
 14 15  2  0
 16 23  1  0
 16  9  1  0
 17 16  2  0
 18 19  1  0
 19 20  1  0
 20 21  1  0
 22 21  1  1
 22 24  1  0
 22 23  1  0
 24 25  1  0
 26 24  2  0
M  END
$$$$
