THM.pdb
     RDKit          3D

 26 26  0  0  1  0  0  0  0  0999 V2000
   10.7991  -13.9427   17.8358 C   0  0  0  0  0  0  0  0  0  0  0  0
    9.9528  -14.3015   19.0275 C   0  0  1  0  0  0  0  0  0  0  0  0
   10.0257  -13.3331   20.0278 O   0  0  0  0  0  0  0  0  0  0  0  0
    8.4866  -14.4285   18.6597 C   0  0  2  0  0  0  0  0  0  0  0  0
    8.0339  -13.1291   18.2226 N   0  0  0  0  0  0  0  0  0  0  0  0
    7.6949  -14.8730   19.8794 C   0  0  0  0  0  0  0  0  0  0  0  0
    6.9707  -14.0203   20.4489 O   0  0  0  0  0  0  0  0  0  0  0  0
    7.7715  -16.1824   20.3481 N   0  0  0  0  0  0  0  0  0  0  0  0
    7.0036  -16.7357   21.5080 C   0  0  1  0  0  0  0  0  0  0  0  0
    7.2078  -18.1806   21.4548 C   0  0  0  0  0  0  0  0  0  0  0  0
    6.8090  -19.0430   22.5510 C   0  0  0  0  0  0  0  0  0  0  0  0
    6.1756  -18.8651   23.7476 C   0  0  0  0  0  0  0  0  0  0  0  0
    5.9995  -20.0762   24.3076 N   0  0  0  0  0  0  0  0  0  0  0  0
    6.5019  -21.0061   23.4989 C   0  0  0  0  0  0  0  0  0  0  0  0
    6.9918  -20.3987   22.4383 N   0  0  0  0  0  0  0  0  0  0  0  0
    7.7285  -16.1118   22.6794 C   0  0  0  0  0  0  0  0  0  0  0  0
    8.9958  -15.8558   22.5534 O   0  0  0  0  0  0  0  0  0  0  0  0
    6.9970  -10.4946   28.0119 C   0  0  0  0  0  0  0  0  0  0  0  0
    6.1804  -11.6589   26.8797 S   0  0  0  0  0  0  0  0  0  0  0  0
    7.4646  -12.7578   26.1851 C   0  0  0  0  0  0  0  0  0  0  0  0
    6.8356  -13.7912   25.3031 C   0  0  0  0  0  0  0  0  0  0  0  0
    7.8779  -14.7273   24.7536 C   0  0  2  0  0  0  0  0  0  0  0  0
    7.2039  -15.7611   23.9156 N   0  0  0  0  0  0  0  0  0  0  0  0
    8.5403  -15.4417   25.8539 C   0  0  0  0  0  0  0  0  0  0  0  0
    8.0700  -16.7228   26.2015 O   0  0  0  0  0  0  0  0  0  0  0  0
    9.5107  -15.0067   26.5308 O   0  0  0  0  0  0  0  0  0  0  0  0
  2  3  1  0
  2  1  1  6
  4  6  1  0
  4  2  1  0
  4  5  1  1
  6  7  2  0
  8  6  1  0
  8  9  1  0
  9 10  1  1
 11 15  1  0
 11 10  1  0
 12 11  2  0
 13 12  1  0
 13 14  1  0
 14 15  2  0
 16 23  1  0
 16  9  1  0
 17 16  2  0
 18 19  1  0
 19 20  1  0
 20 21  1  0
 22 21  1  1
 22 24  1  0
 22 23  1  0
 24 25  1  0
 26 24  2  0
M  END
$$$$
