THM.pdb
     RDKit          3D

 26 26  0  0  1  0  0  0  0  0999 V2000
    8.6322  -12.4124   20.7544 C   0  0  0  0  0  0  0  0  0  0  0  0
    7.9965  -12.8922   19.4774 C   0  0  1  0  0  0  0  0  0  0  0  0
    8.1211  -11.9571   18.4509 O   0  0  0  0  0  0  0  0  0  0  0  0
    8.6395  -14.1704   18.9734 C   0  0  2  0  0  0  0  0  0  0  0  0
    7.9672  -14.5426   17.7511 N   0  0  0  0  0  0  0  0  0  0  0  0
    8.4726  -15.2660   20.0144 C   0  0  0  0  0  0  0  0  0  0  0  0
    7.3624  -15.8486   20.0772 O   0  0  0  0  0  0  0  0  0  0  0  0
    9.5170  -15.6109   20.8689 N   0  0  0  0  0  0  0  0  0  0  0  0
    9.4823  -16.7125   21.8820 C   0  0  1  0  0  0  0  0  0  0  0  0
   10.5955  -17.5923   21.5370 C   0  0  0  0  0  0  0  0  0  0  0  0
   10.4223  -18.7156   20.6355 C   0  0  0  0  0  0  0  0  0  0  0  0
    9.3689  -19.2766   19.9720 C   0  0  0  0  0  0  0  0  0  0  0  0
    9.8477  -20.2654   19.1946 N   0  0  0  0  0  0  0  0  0  0  0  0
   11.1673  -20.3401   19.3501 C   0  0  0  0  0  0  0  0  0  0  0  0
   11.5264  -19.4135   20.2138 N   0  0  0  0  0  0  0  0  0  0  0  0
    9.7451  -15.9558   23.1647 C   0  0  0  0  0  0  0  0  0  0  0  0
   10.1245  -14.7163   23.0815 O   0  0  0  0  0  0  0  0  0  0  0  0
    7.0946  -10.8291   26.3282 C   0  0  0  0  0  0  0  0  0  0  0  0
    6.6000  -12.5586   26.0660 S   0  0  0  0  0  0  0  0  0  0  0  0
    8.0461  -13.6152   26.4289 C   0  0  0  0  0  0  0  0  0  0  0  0
    8.2606  -14.5937   25.3163 C   0  0  0  0  0  0  0  0  0  0  0  0
    9.4549  -15.4651   25.5971 C   0  0  2  0  0  0  0  0  0  0  0  0
    9.6298  -16.4227   24.4667 N   0  0  0  0  0  0  0  0  0  0  0  0
    9.2144  -16.2726   26.8012 C   0  0  0  0  0  0  0  0  0  0  0  0
    9.6031  -15.7487   28.0492 O   0  0  0  0  0  0  0  0  0  0  0  0
    8.6815  -17.4148   26.8231 O   0  0  0  0  0  0  0  0  0  0  0  0
  2  3  1  0
  2  1  1  1
  4  6  1  0
  4  2  1  0
  4  5  1  6
  6  7  2  0
  8  6  1  0
  8  9  1  0
  9 10  1  6
 11 15  1  0
 11 10  1  0
 12 11  2  0
 13 12  1  0
 13 14  1  0
 14 15  2  0
 16 23  1  0
 16  9  1  0
 17 16  2  0
 18 19  1  0
 19 20  1  0
 20 21  1  0
 22 21  1  6
 22 24  1  0
 22 23  1  0
 24 25  1  0
 26 24  2  0
M  END
$$$$
