THM.pdb
     RDKit          3D

 26 26  0  0  1  0  0  0  0  0999 V2000
    4.1989  -19.4849   20.8103 C   0  0  0  0  0  0  0  0  0  0  0  0
    5.5046  -18.7547   20.6459 C   0  0  1  0  0  0  0  0  0  0  0  0
    5.3333  -17.5142   20.0332 O   0  0  0  0  0  0  0  0  0  0  0  0
    6.1714  -18.4850   21.9814 C   0  0  2  0  0  0  0  0  0  0  0  0
    5.2963  -17.6207   22.7376 N   0  0  0  0  0  0  0  0  0  0  0  0
    7.5088  -17.7994   21.7507 C   0  0  0  0  0  0  0  0  0  0  0  0
    8.3994  -18.4440   21.1446 O   0  0  0  0  0  0  0  0  0  0  0  0
    7.7372  -16.5001   22.1973 N   0  0  0  0  0  0  0  0  0  0  0  0
    9.0148  -15.7374   22.0331 C   0  0  1  0  0  0  0  0  0  0  0  0
    8.6590  -14.5436   21.2713 C   0  0  0  0  0  0  0  0  0  0  0  0
    8.4588  -14.5928   19.8353 C   0  0  0  0  0  0  0  0  0  0  0  0
    8.4621  -15.5744   18.8861 C   0  0  0  0  0  0  0  0  0  0  0  0
    8.1147  -15.0165   17.7115 N   0  0  0  0  0  0  0  0  0  0  0  0
    7.8934  -13.7173   17.8962 C   0  0  0  0  0  0  0  0  0  0  0  0
    8.0964  -13.4488   19.1692 N   0  0  0  0  0  0  0  0  0  0  0  0
    9.3572  -15.4032   23.4677 C   0  0  0  0  0  0  0  0  0  0  0  0
   10.3867  -14.6440   23.6940 O   0  0  0  0  0  0  0  0  0  0  0  0
    7.1139  -11.3597   27.3565 C   0  0  0  0  0  0  0  0  0  0  0  0
    6.2266  -12.7846   26.6587 S   0  0  0  0  0  0  0  0  0  0  0  0
    7.4367  -13.8045   25.7449 C   0  0  0  0  0  0  0  0  0  0  0  0
    8.2393  -14.6309   26.7011 C   0  0  0  0  0  0  0  0  0  0  0  0
    9.2447  -15.4726   25.9625 C   0  0  2  0  0  0  0  0  0  0  0  0
    8.6953  -15.8108   24.6175 N   0  0  0  0  0  0  0  0  0  0  0  0
    9.4477  -16.7456   26.6681 C   0  0  0  0  0  0  0  0  0  0  0  0
    9.0983  -17.9407   26.0103 O   0  0  0  0  0  0  0  0  0  0  0  0
    9.9153  -16.8718   27.8320 O   0  0  0  0  0  0  0  0  0  0  0  0
  2  3  1  0
  2  1  1  1
  4  6  1  0
  4  2  1  0
  4  5  1  1
  6  7  2  0
  8  6  1  0
  8  9  1  0
  9 10  1  6
 11 15  1  0
 11 10  1  0
 12 11  2  0
 13 12  1  0
 13 14  1  0
 14 15  2  0
 16 23  1  0
 16  9  1  0
 17 16  2  0
 18 19  1  0
 19 20  1  0
 20 21  1  0
 22 21  1  1
 22 24  1  0
 22 23  1  0
 24 25  1  0
 26 24  2  0
M  END
$$$$
