THM.pdb
     RDKit          3D

 26 26  0  0  1  0  0  0  0  0999 V2000
    8.6336  -12.3029   18.4652 C   0  0  0  0  0  0  0  0  0  0  0  0
    8.6161  -13.3382   19.5574 C   0  0  1  0  0  0  0  0  0  0  0  0
    7.5206  -13.1814   20.4053 O   0  0  0  0  0  0  0  0  0  0  0  0
    8.5276  -14.7456   18.9983 C   0  0  2  0  0  0  0  0  0  0  0  0
    7.3326  -14.8185   18.1913 N   0  0  0  0  0  0  0  0  0  0  0  0
    8.4441  -15.7416   20.1441 C   0  0  0  0  0  0  0  0  0  0  0  0
    7.3030  -16.1043   20.5216 O   0  0  0  0  0  0  0  0  0  0  0  0
    9.5954  -16.2344   20.7538 N   0  0  0  0  0  0  0  0  0  0  0  0
    9.6269  -17.1684   21.9232 C   0  0  1  0  0  0  0  0  0  0  0  0
   10.8514  -17.9479   21.7645 C   0  0  0  0  0  0  0  0  0  0  0  0
   10.8802  -19.1600   20.9680 C   0  0  0  0  0  0  0  0  0  0  0  0
   10.1192  -20.2912   20.8909 C   0  0  0  0  0  0  0  0  0  0  0  0
   10.5903  -21.0394   19.8761 N   0  0  0  0  0  0  0  0  0  0  0  0
   11.6212  -20.4116   19.3155 C   0  0  0  0  0  0  0  0  0  0  0  0
   11.8064  -19.2796   19.9622 N   0  0  0  0  0  0  0  0  0  0  0  0
    9.7258  -16.2025   23.0826 C   0  0  0  0  0  0  0  0  0  0  0  0
   10.6743  -15.3151   23.0653 O   0  0  0  0  0  0  0  0  0  0  0  0
    6.4534  -11.1287   27.8747 C   0  0  0  0  0  0  0  0  0  0  0  0
    6.2626  -12.3992   26.5886 S   0  0  0  0  0  0  0  0  0  0  0  0
    7.8569  -13.2780   26.4295 C   0  0  0  0  0  0  0  0  0  0  0  0
    7.7821  -14.2832   25.3226 C   0  0  0  0  0  0  0  0  0  0  0  0
    9.0829  -15.0287   25.1922 C   0  0  2  0  0  0  0  0  0  0  0  0
    8.9096  -16.1317   24.2029 N   0  0  0  0  0  0  0  0  0  0  0  0
    9.4292  -15.6606   26.4730 C   0  0  0  0  0  0  0  0  0  0  0  0
    9.5204  -17.0649   26.5254 O   0  0  0  0  0  0  0  0  0  0  0  0
    9.6572  -15.0513   27.5527 O   0  0  0  0  0  0  0  0  0  0  0  0
  2  3  1  0
  2  1  1  6
  4  6  1  0
  4  2  1  0
  4  5  1  6
  6  7  2  0
  8  6  1  0
  8  9  1  0
  9 10  1  6
 11 15  1  0
 11 10  1  0
 12 11  2  0
 13 12  1  0
 13 14  1  0
 14 15  2  0
 16 23  1  0
 16  9  1  0
 17 16  2  0
 18 19  1  0
 19 20  1  0
 20 21  1  0
 22 21  1  1
 22 24  1  0
 22 23  1  0
 24 25  1  0
 26 24  2  0
M  END
$$$$
