THM.pdb
     RDKit          3D

 26 26  0  0  1  0  0  0  0  0999 V2000
    5.3837  -19.7509   22.8853 C   0  0  0  0  0  0  0  0  0  0  0  0
    6.5497  -18.8113   22.7346 C   0  0  1  0  0  0  0  0  0  0  0  0
    7.6923  -19.2938   23.3714 O   0  0  0  0  0  0  0  0  0  0  0  0
    6.9241  -18.6068   21.2790 C   0  0  2  0  0  0  0  0  0  0  0  0
    7.2224  -19.9042   20.7202 N   0  0  0  0  0  0  0  0  0  0  0  0
    8.1476  -17.7082   21.1919 C   0  0  0  0  0  0  0  0  0  0  0  0
    9.2579  -18.2517   20.9736 O   0  0  0  0  0  0  0  0  0  0  0  0
    8.0390  -16.3285   21.3494 N   0  0  0  0  0  0  0  0  0  0  0  0
    9.1636  -15.3488   21.2213 C   0  0  1  0  0  0  0  0  0  0  0  0
    8.5949  -14.1929   20.5337 C   0  0  0  0  0  0  0  0  0  0  0  0
    8.4974  -14.1441   19.0871 C   0  0  0  0  0  0  0  0  0  0  0  0
    8.8251  -14.9840   18.0615 C   0  0  0  0  0  0  0  0  0  0  0  0
    8.4043  -14.4208   16.9139 N   0  0  0  0  0  0  0  0  0  0  0  0
    7.8230  -13.2558   17.1892 C   0  0  0  0  0  0  0  0  0  0  0  0
    7.8717  -13.0768   18.4928 N   0  0  0  0  0  0  0  0  0  0  0  0
    9.4680  -15.0426   22.6706 C   0  0  0  0  0  0  0  0  0  0  0  0
   10.0100  -13.8973   22.9570 O   0  0  0  0  0  0  0  0  0  0  0  0
    6.9009  -11.6048   27.8398 C   0  0  0  0  0  0  0  0  0  0  0  0
    7.3433  -12.2375   26.1940 S   0  0  0  0  0  0  0  0  0  0  0  0
    6.9461  -14.0208   26.1549 C   0  0  0  0  0  0  0  0  0  0  0  0
    7.4354  -14.6290   24.8774 C   0  0  0  0  0  0  0  0  0  0  0  0
    8.7951  -15.2450   25.0681 C   0  0  2  0  0  0  0  0  0  0  0  0
    9.2368  -15.8479   23.7771 N   0  0  0  0  0  0  0  0  0  0  0  0
    8.7162  -16.3428   26.0418 C   0  0  0  0  0  0  0  0  0  0  0  0
    8.7071  -16.0239   27.4135 O   0  0  0  0  0  0  0  0  0  0  0  0
    8.6545  -17.5698   25.7593 O   0  0  0  0  0  0  0  0  0  0  0  0
  2  3  1  0
  2  1  1  6
  4  6  1  0
  4  2  1  0
  4  5  1  1
  6  7  2  0
  8  6  1  0
  8  9  1  0
  9 10  1  6
 11 15  1  0
 11 10  1  0
 12 11  2  0
 13 12  1  0
 13 14  1  0
 14 15  2  0
 16 23  1  0
 16  9  1  0
 17 16  2  0
 18 19  1  0
 19 20  1  0
 20 21  1  0
 22 21  1  6
 22 24  1  0
 22 23  1  0
 24 25  1  0
 26 24  2  0
M  END
$$$$
