THM.pdb
     RDKit          3D

 26 26  0  0  1  0  0  0  0  0999 V2000
    8.3067  -12.0046   19.2808 C   0  0  0  0  0  0  0  0  0  0  0  0
    8.3079  -13.1066   20.3058 C   0  0  1  0  0  0  0  0  0  0  0  0
    7.1539  -13.0909   21.0879 O   0  0  0  0  0  0  0  0  0  0  0  0
    8.3691  -14.4775   19.6593 C   0  0  2  0  0  0  0  0  0  0  0  0
    7.2544  -14.5781   18.7471 N   0  0  0  0  0  0  0  0  0  0  0  0
    8.2624  -15.5491   20.7326 C   0  0  0  0  0  0  0  0  0  0  0  0
    7.1335  -16.0567   20.9419 O   0  0  0  0  0  0  0  0  0  0  0  0
    9.3803  -15.9532   21.4587 N   0  0  0  0  0  0  0  0  0  0  0  0
    9.3943  -17.0193   22.5095 C   0  0  1  0  0  0  0  0  0  0  0  0
   10.5485  -17.8574   22.1967 C   0  0  0  0  0  0  0  0  0  0  0  0
   10.4464  -18.9753   21.2779 C   0  0  0  0  0  0  0  0  0  0  0  0
    9.5222  -19.9498   21.0308 C   0  0  0  0  0  0  0  0  0  0  0  0
    9.9474  -20.6660   19.9737 N   0  0  0  0  0  0  0  0  0  0  0  0
   11.1078  -20.1700   19.5511 C   0  0  0  0  0  0  0  0  0  0  0  0
   11.4196  -19.1524   20.3264 N   0  0  0  0  0  0  0  0  0  0  0  0
    9.6177  -16.2070   23.7654 C   0  0  0  0  0  0  0  0  0  0  0  0
   10.6818  -15.4655   23.8377 O   0  0  0  0  0  0  0  0  0  0  0  0
    6.6907  -11.5048   27.3049 C   0  0  0  0  0  0  0  0  0  0  0  0
    6.0518  -12.7121   26.1054 S   0  0  0  0  0  0  0  0  0  0  0  0
    7.4692  -13.6775   25.4742 C   0  0  0  0  0  0  0  0  0  0  0  0
    8.0231  -14.5477   26.5591 C   0  0  0  0  0  0  0  0  0  0  0  0
    9.2183  -15.3175   26.0655 C   0  0  2  0  0  0  0  0  0  0  0  0
    8.8095  -16.1424   24.8918 N   0  0  0  0  0  0  0  0  0  0  0  0
    9.6743  -16.2543   27.1019 C   0  0  0  0  0  0  0  0  0  0  0  0
   10.3279  -15.7344   28.2358 O   0  0  0  0  0  0  0  0  0  0  0  0
    9.5326  -17.5065   27.0713 O   0  0  0  0  0  0  0  0  0  0  0  0
  2  3  1  0
  2  1  1  6
  4  6  1  0
  4  2  1  0
  4  5  1  6
  6  7  2  0
  8  6  1  0
  8  9  1  0
  9 10  1  6
 11 15  1  0
 11 10  1  0
 12 11  2  0
 13 12  1  0
 13 14  1  0
 14 15  2  0
 16 23  1  0
 16  9  1  0
 17 16  2  0
 18 19  1  0
 19 20  1  0
 20 21  1  0
 22 21  1  1
 22 24  1  0
 22 23  1  0
 24 25  1  0
 26 24  2  0
M  END
$$$$
