QIG.pdb
     RDKit          3D

 22 21  0  0  1  0  0  0  0  0999 V2000
   17.8145  -12.5706  -21.1495 N   0  0  0  0  0  0  0  0  0  0  0  0
   18.8734  -11.9124  -20.4533 C   0  0  0  0  0  0  0  0  0  0  0  0
   18.8069  -10.6623  -20.4056 O   0  0  0  0  0  0  0  0  0  0  0  0
   19.9804  -12.6423  -19.8308 C   0  0  0  0  0  0  0  0  0  0  0  0
   20.6151  -12.0114  -18.6350 C   0  0  0  0  0  0  0  0  0  0  0  0
   21.8145  -12.7537  -18.1761 C   0  0  2  0  0  0  0  0  0  0  0  0
   21.5962  -14.1231  -17.8151 N   0  0  0  0  0  0  0  0  0  0  0  0
   22.5594  -12.0223  -17.0980 C   0  0  0  0  0  0  0  0  0  0  0  0
   22.2804  -12.2547  -15.8977 O   0  0  0  0  0  0  0  0  0  0  0  0
   26.0926  -12.5396  -15.4368 C   0  0  0  0  0  0  0  0  0  0  0  0
   26.2699  -11.8686  -16.7838 C   0  0  0  0  0  0  0  0  0  0  0  0
   25.7825  -10.4322  -16.6214 C   0  0  2  0  0  0  0  0  0  0  0  0
   26.6066   -9.7424  -15.5850 C   0  0  0  0  0  0  0  0  0  0  0  0
   24.3081  -10.4058  -16.2881 C   0  0  2  0  0  0  0  0  0  0  0  0
   23.5711  -11.0738  -17.3766 N   0  0  0  0  0  0  0  0  0  0  0  0
   23.8521   -9.0013  -16.2077 C   0  0  0  0  0  0  0  0  0  0  0  0
   24.1770   -8.2041  -17.1648 O   0  0  0  0  0  0  0  0  0  0  0  0
   23.0773   -8.4459  -15.1634 N   0  0  0  0  0  0  0  0  0  0  0  0
   22.7473   -7.0090  -15.2338 C   0  0  0  0  0  0  0  0  0  0  0  0
   21.7969   -6.6693  -14.1462 C   0  0  0  0  0  0  0  0  0  0  0  0
   21.2323   -7.6580  -13.3750 O   0  0  0  0  0  0  0  0  0  0  0  0
   21.4965   -5.4720  -13.9168 O   0  0  0  0  0  0  0  0  0  0  0  0
  1  2  1  0
  2  3  2  0
  4  2  1  0
  5  4  1  0
  6  5  1  0
  6  7  1  1
  8  6  1  0
  8  9  2  0
 10 11  1  0
 11 12  1  0
 12 14  1  0
 12 13  1  1
 14 15  1  6
 14 16  1  0
 15  8  1  0
 16 18  1  0
 17 16  2  0
 18 19  1  0
 19 20  1  0
 20 21  1  0
 22 20  2  0
M  END
$$$$
