QIG.pdb
     RDKit          3D

 22 21  0  0  1  0  0  0  0  0999 V2000
   18.8644  -22.1811  -14.2785 N   0  0  0  0  0  0  0  0  0  0  0  0
   19.6437  -22.6306  -15.3875 C   0  0  0  0  0  0  0  0  0  0  0  0
   19.2347  -23.6649  -15.9641 O   0  0  0  0  0  0  0  0  0  0  0  0
   20.8543  -21.9364  -15.8328 C   0  0  0  0  0  0  0  0  0  0  0  0
   21.2286  -20.6938  -15.0933 C   0  0  0  0  0  0  0  0  0  0  0  0
   21.5288  -20.9569  -13.6648 C   0  0  2  0  0  0  0  0  0  0  0  0
   20.5045  -20.5810  -12.7360 N   0  0  0  0  0  0  0  0  0  0  0  0
   22.8622  -20.4057  -13.2518 C   0  0  0  0  0  0  0  0  0  0  0  0
   23.0236  -19.1627  -13.2131 O   0  0  0  0  0  0  0  0  0  0  0  0
   24.6446  -21.0568   -8.6979 C   0  0  0  0  0  0  0  0  0  0  0  0
   24.3851  -20.4965  -10.0817 C   0  0  0  0  0  0  0  0  0  0  0  0
   25.4493  -21.0919  -10.9984 C   0  0  2  0  0  0  0  0  0  0  0  0
   26.8041  -20.7131  -10.4980 C   0  0  0  0  0  0  0  0  0  0  0  0
   25.2259  -20.6525  -12.4275 C   0  0  2  0  0  0  0  0  0  0  0  0
   23.9554  -21.2321  -12.9012 N   0  0  0  0  0  0  0  0  0  0  0  0
   26.3215  -21.1725  -13.2738 C   0  0  0  0  0  0  0  0  0  0  0  0
   26.4089  -22.4467  -13.4346 O   0  0  0  0  0  0  0  0  0  0  0  0
   27.2936  -20.3876  -13.9359 N   0  0  0  0  0  0  0  0  0  0  0  0
   28.3172  -21.0844  -14.7392 C   0  0  0  0  0  0  0  0  0  0  0  0
   27.9505  -21.0085  -16.1750 C   0  0  0  0  0  0  0  0  0  0  0  0
   28.8683  -20.5936  -17.1114 O   0  0  0  0  0  0  0  0  0  0  0  0
   26.7951  -21.3229  -16.5526 O   0  0  0  0  0  0  0  0  0  0  0  0
  1  2  1  0
  2  3  2  0
  4  2  1  0
  5  4  1  0
  6  5  1  0
  6  7  1  1
  8  6  1  0
  8  9  2  0
 10 11  1  0
 11 12  1  0
 12 14  1  0
 12 13  1  1
 14 15  1  6
 14 16  1  0
 15  8  1  0
 16 18  1  0
 17 16  2  0
 18 19  1  0
 19 20  1  0
 20 21  1  0
 22 20  2  0
M  END
$$$$
