QIG.pdb
     RDKit          3D

 22 21  0  0  1  0  0  0  0  0999 V2000
   16.6077  -12.7436  -13.2765 N   0  0  0  0  0  0  0  0  0  0  0  0
   15.5336  -13.2614  -14.0622 C   0  0  0  0  0  0  0  0  0  0  0  0
   15.5903  -14.4829  -14.3346 O   0  0  0  0  0  0  0  0  0  0  0  0
   14.4268  -12.4250  -14.5325 C   0  0  0  0  0  0  0  0  0  0  0  0
   14.4244  -10.9989  -14.0884 C   0  0  0  0  0  0  0  0  0  0  0  0
   13.6000  -10.7884  -12.8735 C   0  0  2  0  0  0  0  0  0  0  0  0
   12.1959  -11.0294  -13.0269 N   0  0  0  0  0  0  0  0  0  0  0  0
   13.8532   -9.4529  -12.2374 C   0  0  0  0  0  0  0  0  0  0  0  0
   13.1812   -8.4619  -12.6100 O   0  0  0  0  0  0  0  0  0  0  0  0
   13.3376   -8.1979   -7.3873 C   0  0  0  0  0  0  0  0  0  0  0  0
   13.4336   -8.0360   -8.8908 C   0  0  0  0  0  0  0  0  0  0  0  0
   14.9174   -7.9049   -9.2201 C   0  0  2  0  0  0  0  0  0  0  0  0
   15.4615   -6.6717   -8.5778 C   0  0  0  0  0  0  0  0  0  0  0  0
   15.1322   -7.9107  -10.7166 C   0  0  2  0  0  0  0  0  0  0  0  0
   14.8245   -9.2592  -11.2274 N   0  0  0  0  0  0  0  0  0  0  0  0
   16.5516   -7.6135  -11.0059 C   0  0  0  0  0  0  0  0  0  0  0  0
   17.4423   -8.4354  -10.5722 O   0  0  0  0  0  0  0  0  0  0  0  0
   17.0276   -6.4956  -11.7293 N   0  0  0  0  0  0  0  0  0  0  0  0
   18.4837   -6.3741  -11.9382 C   0  0  0  0  0  0  0  0  0  0  0  0
   18.8197   -6.8035  -13.3182 C   0  0  0  0  0  0  0  0  0  0  0  0
   20.0995   -6.6667  -13.8024 O   0  0  0  0  0  0  0  0  0  0  0  0
   17.9370   -7.2980  -14.0617 O   0  0  0  0  0  0  0  0  0  0  0  0
  1  2  1  0
  2  3  2  0
  4  2  1  0
  5  4  1  0
  6  5  1  0
  6  7  1  6
  8  6  1  0
  8  9  2  0
 10 11  1  0
 11 12  1  0
 12 14  1  0
 12 13  1  6
 14 15  1  1
 14 16  1  0
 15  8  1  0
 16 18  1  0
 17 16  2  0
 18 19  1  0
 19 20  1  0
 20 21  1  0
 22 20  2  0
M  END
$$$$
