QIG.pdb
     RDKit          3D

 22 21  0  0  1  0  0  0  0  0999 V2000
   27.4630  -17.4246  -15.9535 N   0  0  0  0  0  0  0  0  0  0  0  0
   28.1907  -18.0561  -17.0074 C   0  0  0  0  0  0  0  0  0  0  0  0
   29.1288  -17.3905  -17.5039 O   0  0  0  0  0  0  0  0  0  0  0  0
   27.8680  -19.4000  -17.4927 C   0  0  0  0  0  0  0  0  0  0  0  0
   26.8063  -20.1462  -16.7530 C   0  0  0  0  0  0  0  0  0  0  0  0
   27.3376  -20.8452  -15.5575 C   0  0  2  0  0  0  0  0  0  0  0  0
   28.2722  -21.8993  -15.8193 N   0  0  0  0  0  0  0  0  0  0  0  0
   26.2472  -21.3059  -14.6352 C   0  0  0  0  0  0  0  0  0  0  0  0
   25.6981  -22.4137  -14.8443 O   0  0  0  0  0  0  0  0  0  0  0  0
   26.6937  -20.4796   -9.4428 C   0  0  0  0  0  0  0  0  0  0  0  0
   26.3878  -21.1366  -10.7736 C   0  0  0  0  0  0  0  0  0  0  0  0
   25.0414  -20.5844  -11.2316 C   0  0  2  0  0  0  0  0  0  0  0  0
   23.9802  -21.0001  -10.2671 C   0  0  0  0  0  0  0  0  0  0  0  0
   24.7360  -21.0316  -12.6431 C   0  0  2  0  0  0  0  0  0  0  0  0
   25.8061  -20.5402  -13.5306 N   0  0  0  0  0  0  0  0  0  0  0  0
   23.4559  -20.4321  -13.0776 C   0  0  0  0  0  0  0  0  0  0  0  0
   23.3355  -19.1520  -13.0155 O   0  0  0  0  0  0  0  0  0  0  0  0
   22.3369  -21.1453  -13.5662 N   0  0  0  0  0  0  0  0  0  0  0  0
   21.1310  -20.3768  -13.9318 C   0  0  0  0  0  0  0  0  0  0  0  0
   20.0708  -20.6162  -12.9216 C   0  0  0  0  0  0  0  0  0  0  0  0
   18.8696  -19.9508  -12.9957 O   0  0  0  0  0  0  0  0  0  0  0  0
   20.2587  -21.4310  -11.9851 O   0  0  0  0  0  0  0  0  0  0  0  0
  1  2  1  0
  2  3  2  0
  4  2  1  0
  5  4  1  0
  6  5  1  0
  6  7  1  6
  8  6  1  0
  8  9  2  0
 10 11  1  0
 11 12  1  0
 12 14  1  0
 12 13  1  1
 14 15  1  6
 14 16  1  0
 15  8  1  0
 16 18  1  0
 17 16  2  0
 18 19  1  0
 19 20  1  0
 20 21  1  0
 22 20  2  0
M  END
$$$$
