QIG.pdb
     RDKit          3D

 22 21  0  0  1  0  0  0  0  0999 V2000
   15.0473  -21.0443   -0.0619 N   0  0  0  0  0  0  0  0  0  0  0  0
   15.5886  -21.9079    0.9382 C   0  0  0  0  0  0  0  0  0  0  0  0
   16.3164  -22.8401    0.5249 O   0  0  0  0  0  0  0  0  0  0  0  0
   15.3143  -21.7292    2.3660 C   0  0  0  0  0  0  0  0  0  0  0  0
   15.7192  -20.4253    2.9716 C   0  0  0  0  0  0  0  0  0  0  0  0
   17.1636  -20.3835    3.3060 C   0  0  2  0  0  0  0  0  0  0  0  0
   17.6018  -21.3343    4.2844 N   0  0  0  0  0  0  0  0  0  0  0  0
   17.6290  -18.9991    3.6509 C   0  0  0  0  0  0  0  0  0  0  0  0
   17.9289  -18.7342    4.8394 O   0  0  0  0  0  0  0  0  0  0  0  0
   21.1032  -16.2801    0.7004 C   0  0  0  0  0  0  0  0  0  0  0  0
   20.3078  -16.8922    1.8356 C   0  0  0  0  0  0  0  0  0  0  0  0
   19.0455  -16.0488    1.9860 C   0  0  2  0  0  0  0  0  0  0  0  0
   19.4253  -14.6280    2.2436 C   0  0  0  0  0  0  0  0  0  0  0  0
   18.1591  -16.6085    3.0753 C   0  0  2  0  0  0  0  0  0  0  0  0
   17.7456  -17.9698    2.6877 N   0  0  0  0  0  0  0  0  0  0  0  0
   16.9480  -15.7687    3.1972 C   0  0  0  0  0  0  0  0  0  0  0  0
   16.0990  -15.7876    2.2298 O   0  0  0  0  0  0  0  0  0  0  0  0
   16.6296  -14.9379    4.2962 N   0  0  0  0  0  0  0  0  0  0  0  0
   15.3560  -14.1932    4.2560 C   0  0  0  0  0  0  0  0  0  0  0  0
   15.1712  -13.4663    5.5363 C   0  0  0  0  0  0  0  0  0  0  0  0
   14.1522  -12.5547    5.6836 O   0  0  0  0  0  0  0  0  0  0  0  0
   15.9451  -13.6757    6.5026 O   0  0  0  0  0  0  0  0  0  0  0  0
  1  2  1  0
  2  3  2  0
  4  2  1  0
  5  4  1  0
  6  5  1  0
  6  7  1  1
  8  6  1  0
  8  9  2  0
 10 11  1  0
 11 12  1  0
 12 14  1  0
 12 13  1  1
 14 15  1  6
 14 16  1  0
 15  8  1  0
 16 18  1  0
 17 16  2  0
 18 19  1  0
 19 20  1  0
 20 21  1  0
 22 20  2  0
M  END
$$$$
