QIG.pdb
     RDKit          3D

 22 21  0  0  1  0  0  0  0  0999 V2000
   25.2759  -17.1312  -14.5100 N   0  0  0  0  0  0  0  0  0  0  0  0
   25.2336  -18.4187  -15.1263 C   0  0  0  0  0  0  0  0  0  0  0  0
   26.0778  -18.6247  -16.0287 O   0  0  0  0  0  0  0  0  0  0  0  0
   24.2633  -19.4457  -14.7398 C   0  0  0  0  0  0  0  0  0  0  0  0
   24.2485  -19.8514  -13.3024 C   0  0  0  0  0  0  0  0  0  0  0  0
   25.5147  -20.5030  -12.8876 C   0  0  2  0  0  0  0  0  0  0  0  0
   26.0042  -21.5236  -13.7662 N   0  0  0  0  0  0  0  0  0  0  0  0
   25.4678  -20.9880  -11.4683 C   0  0  0  0  0  0  0  0  0  0  0  0
   25.2947  -22.2099  -11.2460 O   0  0  0  0  0  0  0  0  0  0  0  0
   27.8231  -20.4633   -6.2697 C   0  0  0  0  0  0  0  0  0  0  0  0
   26.3729  -20.2535   -6.6557 C   0  0  0  0  0  0  0  0  0  0  0  0
   26.3754  -19.7389   -8.0919 C   0  0  2  0  0  0  0  0  0  0  0  0
   25.8991  -18.3240   -8.1132 C   0  0  0  0  0  0  0  0  0  0  0  0
   25.5411  -20.6349   -8.9788 C   0  0  2  0  0  0  0  0  0  0  0  0
   25.6110  -20.1215  -10.3593 N   0  0  0  0  0  0  0  0  0  0  0  0
   24.1321  -20.5864   -8.5325 C   0  0  0  0  0  0  0  0  0  0  0  0
   23.4320  -19.5541   -8.8508 O   0  0  0  0  0  0  0  0  0  0  0  0
   23.4718  -21.5858   -7.7811 N   0  0  0  0  0  0  0  0  0  0  0  0
   22.0962  -21.3119   -7.3214 C   0  0  0  0  0  0  0  0  0  0  0  0
   21.5799  -22.4925   -6.5856 C   0  0  0  0  0  0  0  0  0  0  0  0
   20.3831  -22.4293   -5.9112 O   0  0  0  0  0  0  0  0  0  0  0  0
   22.2314  -23.5657   -6.5703 O   0  0  0  0  0  0  0  0  0  0  0  0
  1  2  1  0
  2  3  2  0
  4  2  1  0
  5  4  1  0
  6  5  1  0
  6  7  1  6
  8  6  1  0
  8  9  2  0
 10 11  1  0
 11 12  1  0
 12 14  1  0
 12 13  1  1
 14 15  1  6
 14 16  1  0
 15  8  1  0
 16 18  1  0
 17 16  2  0
 18 19  1  0
 19 20  1  0
 20 21  1  0
 22 20  2  0
M  END
$$$$
