QIG.pdb
     RDKit          3D

 22 21  0  0  1  0  0  0  0  0999 V2000
   22.4133   -9.0631  -21.0261 N   0  0  0  0  0  0  0  0  0  0  0  0
   21.2794   -9.5292  -21.7582 C   0  0  0  0  0  0  0  0  0  0  0  0
   21.4953   -9.8832  -22.9404 O   0  0  0  0  0  0  0  0  0  0  0  0
   19.9366   -9.5909  -21.1760 C   0  0  0  0  0  0  0  0  0  0  0  0
   19.7957   -9.1408  -19.7588 C   0  0  0  0  0  0  0  0  0  0  0  0
   19.8355  -10.2728  -18.8013 C   0  0  2  0  0  0  0  0  0  0  0  0
   18.7806  -11.2337  -18.9323 N   0  0  0  0  0  0  0  0  0  0  0  0
   19.9740   -9.8123  -17.3797 C   0  0  0  0  0  0  0  0  0  0  0  0
   18.9825   -9.8837  -16.6154 O   0  0  0  0  0  0  0  0  0  0  0  0
   23.4074  -11.7502  -14.3173 C   0  0  0  0  0  0  0  0  0  0  0  0
   22.1719  -11.0893  -14.8943 C   0  0  0  0  0  0  0  0  0  0  0  0
   22.3886   -9.5838  -14.7755 C   0  0  2  0  0  0  0  0  0  0  0  0
   22.5163   -9.2127  -13.3350 C   0  0  0  0  0  0  0  0  0  0  0  0
   21.2719   -8.8305  -15.4617 C   0  0  2  0  0  0  0  0  0  0  0  0
   21.1833   -9.2962  -16.8579 N   0  0  0  0  0  0  0  0  0  0  0  0
   21.5916   -7.3866  -15.4696 C   0  0  0  0  0  0  0  0  0  0  0  0
   22.7414   -7.0242  -15.9209 O   0  0  0  0  0  0  0  0  0  0  0  0
   20.7368   -6.3519  -15.0247 N   0  0  0  0  0  0  0  0  0  0  0  0
   21.2110   -4.9596  -15.1489 C   0  0  0  0  0  0  0  0  0  0  0  0
   21.7210   -4.4953  -13.8352 C   0  0  0  0  0  0  0  0  0  0  0  0
   22.2112   -3.2191  -13.6854 O   0  0  0  0  0  0  0  0  0  0  0  0
   21.7110   -5.2640  -12.8426 O   0  0  0  0  0  0  0  0  0  0  0  0
  1  2  1  0
  2  3  2  0
  4  2  1  0
  5  4  1  0
  6  5  1  0
  6  7  1  1
  8  6  1  0
  8  9  2  0
 10 11  1  0
 11 12  1  0
 12 14  1  0
 12 13  1  1
 14 15  1  6
 14 16  1  0
 15  8  1  0
 16 18  1  0
 17 16  2  0
 18 19  1  0
 19 20  1  0
 20 21  1  0
 22 20  2  0
M  END
$$$$
