QIG.pdb
     RDKit          3D

 22 21  0  0  1  0  0  0  0  0999 V2000
   12.8818  -19.4195  -15.7361 N   0  0  0  0  0  0  0  0  0  0  0  0
   14.1405  -19.6766  -15.1126 C   0  0  0  0  0  0  0  0  0  0  0  0
   14.6907  -20.7618  -15.4109 O   0  0  0  0  0  0  0  0  0  0  0  0
   14.7614  -18.7384  -14.1745 C   0  0  0  0  0  0  0  0  0  0  0  0
   14.0009  -17.4899  -13.8682 C   0  0  0  0  0  0  0  0  0  0  0  0
   14.7516  -16.2666  -14.2423 C   0  0  2  0  0  0  0  0  0  0  0  0
   16.0877  -16.1781  -13.7322 N   0  0  0  0  0  0  0  0  0  0  0  0
   13.9786  -15.0130  -13.9542 C   0  0  0  0  0  0  0  0  0  0  0  0
   12.7970  -14.9167  -14.3631 O   0  0  0  0  0  0  0  0  0  0  0  0
   13.2193  -14.1461   -9.7071 C   0  0  0  0  0  0  0  0  0  0  0  0
   12.5739  -13.4314  -10.8770 C   0  0  0  0  0  0  0  0  0  0  0  0
   13.6421  -12.5189  -11.4718 C   0  0  2  0  0  0  0  0  0  0  0  0
   13.3464  -11.1025  -11.1035 C   0  0  0  0  0  0  0  0  0  0  0  0
   13.7325  -12.7119  -12.9685 C   0  0  2  0  0  0  0  0  0  0  0  0
   14.5272  -13.9248  -13.2359 N   0  0  0  0  0  0  0  0  0  0  0  0
   14.4305  -11.5539  -13.5675 C   0  0  0  0  0  0  0  0  0  0  0  0
   13.7576  -10.4725  -13.7545 O   0  0  0  0  0  0  0  0  0  0  0  0
   15.7898  -11.5229  -13.9557 N   0  0  0  0  0  0  0  0  0  0  0  0
   16.3122  -10.2778  -14.5519 C   0  0  0  0  0  0  0  0  0  0  0  0
   17.0657   -9.5189  -13.5234 C   0  0  0  0  0  0  0  0  0  0  0  0
   17.8315   -8.4323  -13.8755 O   0  0  0  0  0  0  0  0  0  0  0  0
   17.0128   -9.8610  -12.3165 O   0  0  0  0  0  0  0  0  0  0  0  0
  1  2  1  0
  2  3  2  0
  4  2  1  0
  5  4  1  0
  6  5  1  0
  6  7  1  1
  8  6  1  0
  8  9  2  0
 10 11  1  0
 11 12  1  0
 12 14  1  0
 12 13  1  6
 14 15  1  1
 14 16  1  0
 15  8  1  0
 16 18  1  0
 17 16  2  0
 18 19  1  0
 19 20  1  0
 20 21  1  0
 22 20  2  0
M  END
$$$$
