QIG.pdb
     RDKit          3D

 22 21  0  0  1  0  0  0  0  0999 V2000
   20.8936  -18.1437  -14.5527 N   0  0  0  0  0  0  0  0  0  0  0  0
   21.7503  -18.7677  -15.5097 C   0  0  0  0  0  0  0  0  0  0  0  0
   21.2909  -19.7849  -16.0787 O   0  0  0  0  0  0  0  0  0  0  0  0
   23.0908  -18.2622  -15.8151 C   0  0  0  0  0  0  0  0  0  0  0  0
   23.4967  -16.9866  -15.1525 C   0  0  0  0  0  0  0  0  0  0  0  0
   23.1155  -15.7931  -15.9464 C   0  0  2  0  0  0  0  0  0  0  0  0
   23.4972  -15.8185  -17.3273 N   0  0  0  0  0  0  0  0  0  0  0  0
   23.5424  -14.5124  -15.2908 C   0  0  0  0  0  0  0  0  0  0  0  0
   23.3765  -14.3739  -14.0556 O   0  0  0  0  0  0  0  0  0  0  0  0
   28.1727  -12.3450  -16.0363 C   0  0  0  0  0  0  0  0  0  0  0  0
   26.8658  -12.7830  -15.4067 C   0  0  0  0  0  0  0  0  0  0  0  0
   25.8274  -11.7310  -15.7843 C   0  0  2  0  0  0  0  0  0  0  0  0
   26.2163  -10.4155  -15.1951 C   0  0  0  0  0  0  0  0  0  0  0  0
   24.4472  -12.1660  -15.3471 C   0  0  2  0  0  0  0  0  0  0  0  0
   24.1285  -13.4442  -16.0095 N   0  0  0  0  0  0  0  0  0  0  0  0
   23.4582  -11.1554  -15.7802 C   0  0  0  0  0  0  0  0  0  0  0  0
   23.4021  -10.8618  -17.0322 O   0  0  0  0  0  0  0  0  0  0  0  0
   22.5521  -10.4751  -14.9342 N   0  0  0  0  0  0  0  0  0  0  0  0
   21.7322   -9.3971  -15.5209 C   0  0  0  0  0  0  0  0  0  0  0  0
   21.9109   -8.1563  -14.7270 C   0  0  0  0  0  0  0  0  0  0  0  0
   21.3016   -6.9849  -15.1113 O   0  0  0  0  0  0  0  0  0  0  0  0
   22.6225   -8.1616  -13.6926 O   0  0  0  0  0  0  0  0  0  0  0  0
  1  2  1  0
  2  3  2  0
  4  2  1  0
  5  4  1  0
  6  5  1  0
  6  7  1  6
  8  6  1  0
  8  9  2  0
 10 11  1  0
 11 12  1  0
 12 14  1  0
 12 13  1  1
 14 15  1  6
 14 16  1  0
 15  8  1  0
 16 18  1  0
 17 16  2  0
 18 19  1  0
 19 20  1  0
 20 21  1  0
 22 20  2  0
M  END
$$$$
