QIG.pdb
     RDKit          3D

 22 21  0  0  1  0  0  0  0  0999 V2000
   24.5919  -19.2787  -18.4105 N   0  0  0  0  0  0  0  0  0  0  0  0
   25.9199  -18.8415  -18.7012 C   0  0  0  0  0  0  0  0  0  0  0  0
   26.1391  -18.4976  -19.8857 O   0  0  0  0  0  0  0  0  0  0  0  0
   26.9747  -18.7969  -17.6857 C   0  0  0  0  0  0  0  0  0  0  0  0
   26.5652  -19.0752  -16.2766 C   0  0  0  0  0  0  0  0  0  0  0  0
   27.4654  -20.0472  -15.6096 C   0  0  2  0  0  0  0  0  0  0  0  0
   28.1690  -20.9407  -16.4813 N   0  0  0  0  0  0  0  0  0  0  0  0
   26.7774  -20.7975  -14.5070 C   0  0  0  0  0  0  0  0  0  0  0  0
   26.4010  -21.9759  -14.7127 O   0  0  0  0  0  0  0  0  0  0  0  0
   28.7438  -20.8005   -9.7372 C   0  0  0  0  0  0  0  0  0  0  0  0
   28.0142  -21.3106  -10.9634 C   0  0  0  0  0  0  0  0  0  0  0  0
   26.5880  -20.7765  -10.8742 C   0  0  2  0  0  0  0  0  0  0  0  0
   25.8910  -21.4125   -9.7171 C   0  0  0  0  0  0  0  0  0  0  0  0
   25.8537  -21.0022  -12.1763 C   0  0  2  0  0  0  0  0  0  0  0  0
   26.5313  -20.2307  -13.2345 N   0  0  0  0  0  0  0  0  0  0  0  0
   24.4681  -20.5017  -12.0470 C   0  0  0  0  0  0  0  0  0  0  0  0
   24.2897  -19.2295  -11.9651 O   0  0  0  0  0  0  0  0  0  0  0  0
   23.3037  -21.3030  -12.0088 N   0  0  0  0  0  0  0  0  0  0  0  0
   22.0056  -20.6302  -11.8065 C   0  0  0  0  0  0  0  0  0  0  0  0
   21.1419  -20.8628  -12.9904 C   0  0  0  0  0  0  0  0  0  0  0  0
   19.7885  -20.6276  -12.9272 O   0  0  0  0  0  0  0  0  0  0  0  0
   21.6381  -21.2782  -14.0664 O   0  0  0  0  0  0  0  0  0  0  0  0
  1  2  1  0
  2  3  2  0
  4  2  1  0
  5  4  1  0
  6  5  1  0
  6  7  1  6
  8  6  1  0
  8  9  2  0
 10 11  1  0
 11 12  1  0
 12 14  1  0
 12 13  1  1
 14 15  1  6
 14 16  1  0
 15  8  1  0
 16 18  1  0
 17 16  2  0
 18 19  1  0
 19 20  1  0
 20 21  1  0
 22 20  2  0
M  END
$$$$
