QIG.pdb
     RDKit          3D

 22 21  0  0  1  0  0  0  0  0999 V2000
   12.4477  -20.7843   -4.6708 N   0  0  0  0  0  0  0  0  0  0  0  0
   11.7402  -20.4769   -5.8725 C   0  0  0  0  0  0  0  0  0  0  0  0
   11.2073  -19.3442   -5.9228 O   0  0  0  0  0  0  0  0  0  0  0  0
   11.6318  -21.4217   -6.9867 C   0  0  0  0  0  0  0  0  0  0  0  0
   12.3218  -22.7364   -6.8244 C   0  0  0  0  0  0  0  0  0  0  0  0
   13.3031  -22.9951   -7.9062 C   0  0  2  0  0  0  0  0  0  0  0  0
   12.7510  -23.1627   -9.2178 N   0  0  0  0  0  0  0  0  0  0  0  0
   14.2424  -24.1154   -7.5677 C   0  0  0  0  0  0  0  0  0  0  0  0
   13.9328  -25.2886   -7.8844 O   0  0  0  0  0  0  0  0  0  0  0  0
   19.1037  -24.0551   -8.9234 C   0  0  0  0  0  0  0  0  0  0  0  0
   17.7394  -24.5982   -8.5493 C   0  0  0  0  0  0  0  0  0  0  0  0
   17.7368  -24.7594   -7.0322 C   0  0  2  0  0  0  0  0  0  0  0  0
   18.7006  -25.8321   -6.6452 C   0  0  0  0  0  0  0  0  0  0  0  0
   16.3388  -25.0405   -6.5302 C   0  0  2  0  0  0  0  0  0  0  0  0
   15.4724  -23.9065   -6.9010 N   0  0  0  0  0  0  0  0  0  0  0  0
   16.3634  -25.1476   -5.0554 C   0  0  0  0  0  0  0  0  0  0  0  0
   16.7257  -24.1135   -4.3798 O   0  0  0  0  0  0  0  0  0  0  0  0
   16.0165  -26.2965   -4.3076 N   0  0  0  0  0  0  0  0  0  0  0  0
   16.1354  -26.2289   -2.8380 C   0  0  0  0  0  0  0  0  0  0  0  0
   17.4506  -26.7782   -2.4256 C   0  0  0  0  0  0  0  0  0  0  0  0
   17.7795  -26.8838   -1.0945 O   0  0  0  0  0  0  0  0  0  0  0  0
   18.2806  -27.1540   -3.2895 O   0  0  0  0  0  0  0  0  0  0  0  0
  1  2  1  0
  2  3  2  0
  4  2  1  0
  5  4  1  0
  6  5  1  0
  6  7  1  6
  8  6  1  0
  8  9  2  0
 10 11  1  0
 11 12  1  0
 12 14  1  0
 12 13  1  6
 14 15  1  1
 14 16  1  0
 15  8  1  0
 16 18  1  0
 17 16  2  0
 18 19  1  0
 19 20  1  0
 20 21  1  0
 22 20  2  0
M  END
$$$$
