QIG.pdb
     RDKit          3D

 22 21  0  0  1  0  0  0  0  0999 V2000
   20.5652  -26.9546  -11.6347 N   0  0  0  0  0  0  0  0  0  0  0  0
   19.8473  -27.6456  -10.6118 C   0  0  0  0  0  0  0  0  0  0  0  0
   20.3372  -28.7358  -10.2364 O   0  0  0  0  0  0  0  0  0  0  0  0
   18.6079  -27.1250  -10.0299 C   0  0  0  0  0  0  0  0  0  0  0  0
   18.1477  -25.7880  -10.5112 C   0  0  0  0  0  0  0  0  0  0  0  0
   18.5610  -24.6896   -9.6041 C   0  0  2  0  0  0  0  0  0  0  0  0
   17.9402  -24.6846   -8.3126 N   0  0  0  0  0  0  0  0  0  0  0  0
   18.4605  -23.3424  -10.2576 C   0  0  0  0  0  0  0  0  0  0  0  0
   17.4798  -22.6071   -9.9931 O   0  0  0  0  0  0  0  0  0  0  0  0
   21.8641  -19.7488   -9.5973 C   0  0  0  0  0  0  0  0  0  0  0  0
   20.5791  -20.4995   -9.8823 C   0  0  0  0  0  0  0  0  0  0  0  0
   20.5240  -20.7091  -11.3925 C   0  0  2  0  0  0  0  0  0  0  0  0
   20.5536  -19.3837  -12.0792 C   0  0  0  0  0  0  0  0  0  0  0  0
   19.3065  -21.5209  -11.7722 C   0  0  2  0  0  0  0  0  0  0  0  0
   19.4306  -22.8599  -11.1671 N   0  0  0  0  0  0  0  0  0  0  0  0
   19.2626  -21.6743  -13.2424 C   0  0  0  0  0  0  0  0  0  0  0  0
   20.1595  -22.4095  -13.8009 O   0  0  0  0  0  0  0  0  0  0  0  0
   18.3098  -21.0827  -14.1035 N   0  0  0  0  0  0  0  0  0  0  0  0
   18.4485  -21.3149  -15.5545 C   0  0  0  0  0  0  0  0  0  0  0  0
   17.3944  -20.5598  -16.2760 C   0  0  0  0  0  0  0  0  0  0  0  0
   17.3798  -20.5167  -17.6504 O   0  0  0  0  0  0  0  0  0  0  0  0
   16.5013  -19.9498  -15.6382 O   0  0  0  0  0  0  0  0  0  0  0  0
  1  2  1  0
  2  3  2  0
  4  2  1  0
  5  4  1  0
  6  5  1  0
  6  7  1  1
  8  6  1  0
  8  9  2  0
 10 11  1  0
 11 12  1  0
 12 14  1  0
 12 13  1  6
 14 15  1  1
 14 16  1  0
 15  8  1  0
 16 18  1  0
 17 16  2  0
 18 19  1  0
 19 20  1  0
 20 21  1  0
 22 20  2  0
M  END
$$$$
