GCT.pdb
     RDKit          3D

 18 17  0  0  1  0  0  0  0  0999 V2000
   20.7298  -20.6967  -11.2982 N   0  0  0  0  0  0  0  0  0  0  0  0
   21.3678  -20.9794  -12.5690 C   0  0  0  0  0  0  0  0  0  0  0  0
   22.7415  -20.4393  -12.5586 C   0  0  0  0  0  0  0  0  0  0  0  0
   22.9463  -19.2369  -12.8514 O   0  0  0  0  0  0  0  0  0  0  0  0
   23.8725  -21.2530  -12.2200 N   0  0  0  0  0  0  0  0  0  0  0  0
   25.2261  -20.7196  -12.2809 C   0  0  1  0  0  0  0  0  0  0  0  0
   26.0415  -21.4936  -11.2731 C   0  0  0  0  0  0  0  0  0  0  0  0
   25.4659  -21.0403   -9.6164 S   0  0  0  0  0  0  0  0  0  0  0  0
   25.7732  -20.9573  -13.6344 C   0  0  0  0  0  0  0  0  0  0  0  0
   25.4982  -22.0532  -14.2231 O   0  0  0  0  0  0  0  0  0  0  0  0
   28.3424  -19.0527  -17.4479 C   0  0  0  0  0  0  0  0  0  0  0  0
   27.7274  -18.9215  -16.0780 C   0  0  1  0  0  0  0  0  0  0  0  0
   26.7474  -17.9355  -16.1572 O   0  0  0  0  0  0  0  0  0  0  0  0
   27.0689  -20.1914  -15.6158 C   0  0  2  0  0  0  0  0  0  0  0  0
   26.5903  -19.9850  -14.2662 N   0  0  0  0  0  0  0  0  0  0  0  0
   27.9564  -21.3722  -15.6716 C   0  0  0  0  0  0  0  0  0  0  0  0
   27.9912  -22.1383  -16.6569 O   0  0  0  0  0  0  0  0  0  0  0  0
   28.7911  -21.6598  -14.6002 O   0  0  0  0  0  0  0  0  0  0  0  0
  1  2  1  0
  3  2  1  0
  4  3  2  0
  5  3  1  0
  6  5  1  0
  7  8  1  0
  6  7  1  1
  9  6  1  0
  9 15  1  0
 10  9  2  0
 12 11  1  6
 12 14  1  0
 12 13  1  0
 14 15  1  1
 14 16  1  0
 16 18  1  0
 17 16  2  0
M  END
$$$$
