GCT.pdb
     RDKit          3D

 18 17  0  0  1  0  0  0  0  0999 V2000
   19.2686  -14.2840  -16.3343 N   0  0  0  0  0  0  0  0  0  0  0  0
   18.5108  -13.0899  -16.6530 C   0  0  0  0  0  0  0  0  0  0  0  0
   19.4338  -11.9465  -16.7928 C   0  0  0  0  0  0  0  0  0  0  0  0
   20.6538  -12.0888  -16.5384 O   0  0  0  0  0  0  0  0  0  0  0  0
   18.9795  -10.6542  -17.2167 N   0  0  0  0  0  0  0  0  0  0  0  0
   19.9193   -9.5648  -17.4418 C   0  0  1  0  0  0  0  0  0  0  0  0
   19.5470   -8.9393  -18.7647 C   0  0  0  0  0  0  0  0  0  0  0  0
   20.6867   -7.5666  -19.0782 S   0  0  0  0  0  0  0  0  0  0  0  0
   19.7555   -8.5623  -16.3667 C   0  0  0  0  0  0  0  0  0  0  0  0
   18.5872   -8.3376  -15.9105 O   0  0  0  0  0  0  0  0  0  0  0  0
   21.8070   -5.9479  -12.7640 C   0  0  0  0  0  0  0  0  0  0  0  0
   21.8711   -6.9650  -13.8745 C   0  0  1  0  0  0  0  0  0  0  0  0
   21.8290   -8.2254  -13.2841 O   0  0  0  0  0  0  0  0  0  0  0  0
   20.7092   -6.8600  -14.8226 C   0  0  2  0  0  0  0  0  0  0  0  0
   20.8768   -7.8616  -15.8530 N   0  0  0  0  0  0  0  0  0  0  0  0
   20.5590   -5.5198  -15.4280 C   0  0  0  0  0  0  0  0  0  0  0  0
   19.7224   -4.6890  -15.0172 O   0  0  0  0  0  0  0  0  0  0  0  0
   21.3675   -5.1492  -16.4940 O   0  0  0  0  0  0  0  0  0  0  0  0
  1  2  1  0
  3  2  1  0
  4  3  2  0
  5  3  1  0
  6  5  1  0
  7  8  1  0
  6  7  1  6
  9  6  1  0
  9 15  1  0
 10  9  2  0
 12 11  1  1
 12 14  1  0
 12 13  1  0
 14 15  1  6
 14 16  1  0
 16 18  1  0
 17 16  2  0
M  END
$$$$
