GCT.pdb
     RDKit          3D

 18 17  0  0  1  0  0  0  0  0999 V2000
   15.3429  -11.7167  -13.0932 N   0  0  0  0  0  0  0  0  0  0  0  0
   15.8513  -11.4230  -11.7677 C   0  0  0  0  0  0  0  0  0  0  0  0
   15.2096  -10.1955  -11.2576 C   0  0  0  0  0  0  0  0  0  0  0  0
   14.5828   -9.4421  -12.0404 O   0  0  0  0  0  0  0  0  0  0  0  0
   15.2772   -9.8246   -9.8741 N   0  0  0  0  0  0  0  0  0  0  0  0
   14.5077   -8.7003   -9.3600 C   0  0  1  0  0  0  0  0  0  0  0  0
   13.9319   -9.1403   -8.0353 C   0  0  0  0  0  0  0  0  0  0  0  0
   12.6633  -10.3917   -8.3613 S   0  0  0  0  0  0  0  0  0  0  0  0
   15.4205   -7.5579   -9.1378 C   0  0  0  0  0  0  0  0  0  0  0  0
   16.4455   -7.7265   -8.4000 O   0  0  0  0  0  0  0  0  0  0  0  0
   17.6917   -5.7997  -11.2296 C   0  0  0  0  0  0  0  0  0  0  0  0
   16.6897   -4.7761  -10.7601 C   0  0  1  0  0  0  0  0  0  0  0  0
   15.7034   -4.6834  -11.7386 O   0  0  0  0  0  0  0  0  0  0  0  0
   16.0251   -5.1671   -9.4697 C   0  0  2  0  0  0  0  0  0  0  0  0
   15.1604   -6.2968   -9.7329 N   0  0  0  0  0  0  0  0  0  0  0  0
   15.2597   -4.0692   -8.8421 C   0  0  0  0  0  0  0  0  0  0  0  0
   14.0126   -4.0714   -8.7812 O   0  0  0  0  0  0  0  0  0  0  0  0
   15.9312   -2.9851   -8.2934 O   0  0  0  0  0  0  0  0  0  0  0  0
  1  2  1  0
  3  2  1  0
  4  3  2  0
  5  3  1  0
  6  5  1  0
  7  8  1  0
  6  7  1  1
  9  6  1  0
  9 15  1  0
 10  9  2  0
 12 11  1  6
 12 14  1  0
 12 13  1  0
 14 15  1  6
 14 16  1  0
 16 18  1  0
 17 16  2  0
M  END
$$$$
