GCT.pdb
     RDKit          3D

 18 17  0  0  1  0  0  0  0  0999 V2000
   19.1904  -12.2076  -16.7730 N   0  0  0  0  0  0  0  0  0  0  0  0
   19.0248  -10.7842  -16.9923 C   0  0  0  0  0  0  0  0  0  0  0  0
   19.8068  -10.0390  -15.9864 C   0  0  0  0  0  0  0  0  0  0  0  0
   19.2658   -9.6707  -14.9164 O   0  0  0  0  0  0  0  0  0  0  0  0
   21.1885   -9.7140  -16.1902 N   0  0  0  0  0  0  0  0  0  0  0  0
   21.9726   -9.0780  -15.1409 C   0  0  1  0  0  0  0  0  0  0  0  0
   23.3780   -9.6159  -15.2653 C   0  0  0  0  0  0  0  0  0  0  0  0
   23.4755  -11.1584  -14.3205 S   0  0  0  0  0  0  0  0  0  0  0  0
   21.9887   -7.6176  -15.3746 C   0  0  0  0  0  0  0  0  0  0  0  0
   22.4267   -7.1795  -16.4880 O   0  0  0  0  0  0  0  0  0  0  0  0
   19.3910   -5.4003  -15.8971 C   0  0  0  0  0  0  0  0  0  0  0  0
   20.1141   -4.8217  -14.7078 C   0  0  1  0  0  0  0  0  0  0  0  0
   19.4437   -5.2528  -13.5661 O   0  0  0  0  0  0  0  0  0  0  0  0
   21.5388   -5.2920  -14.6124 C   0  0  2  0  0  0  0  0  0  0  0  0
   21.5268   -6.7197  -14.3783 N   0  0  0  0  0  0  0  0  0  0  0  0
   22.3193   -4.6053  -13.5616 C   0  0  0  0  0  0  0  0  0  0  0  0
   22.6008   -3.3904  -13.6222 O   0  0  0  0  0  0  0  0  0  0  0  0
   22.7664   -5.3174  -12.4570 O   0  0  0  0  0  0  0  0  0  0  0  0
  1  2  1  0
  3  2  1  0
  4  3  2  0
  5  3  1  0
  6  5  1  0
  7  8  1  0
  6  7  1  6
  9  6  1  0
  9 15  1  0
 10  9  2  0
 12 11  1  6
 12 14  1  0
 12 13  1  0
 14 15  1  1
 14 16  1  0
 16 18  1  0
 17 16  2  0
M  END
$$$$
