GCT.pdb
     RDKit          3D

 18 17  0  0  1  0  0  0  0  0999 V2000
   19.9909  -12.3697  -18.2097 N   0  0  0  0  0  0  0  0  0  0  0  0
   20.4675  -12.1392  -16.8601 C   0  0  0  0  0  0  0  0  0  0  0  0
   20.0423  -10.7985  -16.4124 C   0  0  0  0  0  0  0  0  0  0  0  0
   19.7549   -9.9160  -17.2562 O   0  0  0  0  0  0  0  0  0  0  0  0
   19.9435  -10.4603  -15.0225 N   0  0  0  0  0  0  0  0  0  0  0  0
   19.4434   -9.1595  -14.6002 C   0  0  1  0  0  0  0  0  0  0  0  0
   18.5410   -9.4072  -13.4152 C   0  0  0  0  0  0  0  0  0  0  0  0
   17.0261  -10.1972  -14.0173 S   0  0  0  0  0  0  0  0  0  0  0  0
   20.5865   -8.3232  -14.1741 C   0  0  0  0  0  0  0  0  0  0  0  0
   21.4283   -8.8090  -13.3503 O   0  0  0  0  0  0  0  0  0  0  0  0
   23.2695   -7.1972  -16.2245 C   0  0  0  0  0  0  0  0  0  0  0  0
   22.6666   -5.9536  -15.6227 C   0  0  1  0  0  0  0  0  0  0  0  0
   21.7568   -5.4461  -16.5467 O   0  0  0  0  0  0  0  0  0  0  0  0
   21.9227   -6.2311  -14.3463 C   0  0  2  0  0  0  0  0  0  0  0  0
   20.7436   -7.0039  -14.6712 N   0  0  0  0  0  0  0  0  0  0  0  0
   21.5480   -5.0099  -13.6025 C   0  0  0  0  0  0  0  0  0  0  0  0
   20.3730   -4.5906  -13.5513 O   0  0  0  0  0  0  0  0  0  0  0  0
   22.5219   -4.2858  -12.9284 O   0  0  0  0  0  0  0  0  0  0  0  0
  1  2  1  0
  3  2  1  0
  4  3  2  0
  5  3  1  0
  6  5  1  0
  7  8  1  0
  6  7  1  1
  9  6  1  0
  9 15  1  0
 10  9  2  0
 12 11  1  6
 12 14  1  0
 12 13  1  0
 14 15  1  6
 14 16  1  0
 16 18  1  0
 17 16  2  0
M  END
$$$$
