GCT.pdb
     RDKit          3D

 18 17  0  0  1  0  0  0  0  0999 V2000
   20.7466  -13.6618  -20.2742 N   0  0  0  0  0  0  0  0  0  0  0  0
   21.1133  -12.2593  -20.2829 C   0  0  0  0  0  0  0  0  0  0  0  0
   21.2188  -11.7717  -18.8936 C   0  0  0  0  0  0  0  0  0  0  0  0
   20.1917  -11.6822  -18.1792 O   0  0  0  0  0  0  0  0  0  0  0  0
   22.4755  -11.3892  -18.3189 N   0  0  0  0  0  0  0  0  0  0  0  0
   22.5623  -10.9357  -16.9379 C   0  0  1  0  0  0  0  0  0  0  0  0
   23.9556  -11.2683  -16.4604 C   0  0  0  0  0  0  0  0  0  0  0  0
   24.1119  -10.7053  -14.7458 S   0  0  0  0  0  0  0  0  0  0  0  0
   22.3739   -9.4690  -16.9035 C   0  0  0  0  0  0  0  0  0  0  0  0
   23.1270   -8.7370  -17.6249 O   0  0  0  0  0  0  0  0  0  0  0  0
   19.9484   -7.5081  -18.1728 C   0  0  0  0  0  0  0  0  0  0  0  0
   19.9501   -7.0807  -16.7273 C   0  0  1  0  0  0  0  0  0  0  0  0
   18.9008   -7.7456  -16.0982 O   0  0  0  0  0  0  0  0  0  0  0  0
   21.2226   -7.4491  -16.0169 C   0  0  2  0  0  0  0  0  0  0  0  0
   21.3749   -8.8863  -16.0822 N   0  0  0  0  0  0  0  0  0  0  0  0
   21.2702   -6.9903  -14.6126 C   0  0  0  0  0  0  0  0  0  0  0  0
   21.3073   -5.7811  -14.3036 O   0  0  0  0  0  0  0  0  0  0  0  0
   21.2747   -7.9205  -13.5820 O   0  0  0  0  0  0  0  0  0  0  0  0
  1  2  1  0
  3  2  1  0
  4  3  2  0
  5  3  1  0
  6  5  1  0
  7  8  1  0
  6  7  1  6
  9  6  1  0
  9 15  1  0
 10  9  2  0
 12 11  1  6
 12 14  1  0
 12 13  1  0
 14 15  1  1
 14 16  1  0
 16 18  1  0
 17 16  2  0
M  END
$$$$
