GCT.pdb
     RDKit          3D

 18 17  0  0  1  0  0  0  0  0999 V2000
   18.6217  -11.3610  -18.4551 N   0  0  0  0  0  0  0  0  0  0  0  0
   18.0587  -10.2860  -17.6620 C   0  0  0  0  0  0  0  0  0  0  0  0
   19.0132   -9.9076  -16.6014 C   0  0  0  0  0  0  0  0  0  0  0  0
   18.5993   -9.6534  -15.4449 O   0  0  0  0  0  0  0  0  0  0  0  0
   20.4228   -9.8180  -16.8482 N   0  0  0  0  0  0  0  0  0  0  0  0
   21.3422   -9.3914  -15.8026 C   0  0  1  0  0  0  0  0  0  0  0  0
   22.6644  -10.0617  -16.0897 C   0  0  0  0  0  0  0  0  0  0  0  0
   23.8589   -9.5046  -14.8471 S   0  0  0  0  0  0  0  0  0  0  0  0
   21.5128   -7.9245  -15.8853 C   0  0  0  0  0  0  0  0  0  0  0  0
   21.9712   -7.4202  -16.9618 O   0  0  0  0  0  0  0  0  0  0  0  0
   19.4666   -5.4450  -16.3954 C   0  0  0  0  0  0  0  0  0  0  0  0
   20.1099   -4.9797  -15.1141 C   0  0  1  0  0  0  0  0  0  0  0  0
   19.2367   -5.2923  -14.0755 O   0  0  0  0  0  0  0  0  0  0  0  0
   21.4181   -5.6681  -14.8408 C   0  0  2  0  0  0  0  0  0  0  0  0
   21.1744   -7.0931  -14.7869 N   0  0  0  0  0  0  0  0  0  0  0  0
   22.0784   -5.2121  -13.5994 C   0  0  0  0  0  0  0  0  0  0  0  0
   22.5355   -4.0576  -13.4688 O   0  0  0  0  0  0  0  0  0  0  0  0
   22.2064   -6.0826  -12.5256 O   0  0  0  0  0  0  0  0  0  0  0  0
  1  2  1  0
  3  2  1  0
  4  3  2  0
  5  3  1  0
  6  5  1  0
  7  8  1  0
  6  7  1  6
  9  6  1  0
  9 15  1  0
 10  9  2  0
 12 11  1  6
 12 14  1  0
 12 13  1  0
 14 15  1  1
 14 16  1  0
 16 18  1  0
 17 16  2  0
M  END
$$$$
