GCT.pdb
     RDKit          3D

 18 17  0  0  1  0  0  0  0  0999 V2000
   35.1584  -25.3727  -17.3981 N   0  0  0  0  0  0  0  0  0  0  0  0
   34.8131  -26.5578  -16.6379 C   0  0  0  0  0  0  0  0  0  0  0  0
   35.8926  -27.5560  -16.7691 C   0  0  0  0  0  0  0  0  0  0  0  0
   36.8803  -27.3205  -17.5056 O   0  0  0  0  0  0  0  0  0  0  0  0
   35.8539  -28.8089  -16.0728 N   0  0  0  0  0  0  0  0  0  0  0  0
   36.9334  -29.7767  -16.2088 C   0  0  1  0  0  0  0  0  0  0  0  0
   37.4928  -29.9978  -14.8238 C   0  0  0  0  0  0  0  0  0  0  0  0
   38.7934  -31.2536  -14.9363 S   0  0  0  0  0  0  0  0  0  0  0  0
   36.3742  -31.0486  -16.7159 C   0  0  0  0  0  0  0  0  0  0  0  0
   35.3387  -31.5313  -16.1518 O   0  0  0  0  0  0  0  0  0  0  0  0
   36.2463  -34.3688  -20.3584 C   0  0  0  0  0  0  0  0  0  0  0  0
   36.8688  -33.1558  -19.7156 C   0  0  1  0  0  0  0  0  0  0  0  0
   36.4362  -32.0413  -20.4295 O   0  0  0  0  0  0  0  0  0  0  0  0
   36.4467  -32.9797  -18.2835 C   0  0  2  0  0  0  0  0  0  0  0  0
   36.9789  -31.7209  -17.8089 N   0  0  0  0  0  0  0  0  0  0  0  0
   36.8753  -34.0847  -17.4003 C   0  0  0  0  0  0  0  0  0  0  0  0
   38.0487  -34.1968  -16.9886 O   0  0  0  0  0  0  0  0  0  0  0  0
   35.9562  -35.0454  -17.0007 O   0  0  0  0  0  0  0  0  0  0  0  0
  1  2  1  0
  3  2  1  0
  4  3  2  0
  5  3  1  0
  6  5  1  0
  7  8  1  0
  6  7  1  1
  9  6  1  0
  9 15  1  0
 10  9  2  0
 12 11  1  6
 12 14  1  0
 12 13  1  0
 14 15  1  1
 14 16  1  0
 16 18  1  0
 17 16  2  0
M  END
$$$$
