GCT.pdb
     RDKit          3D

 18 17  0  0  1  0  0  0  0  0999 V2000
   17.6240  -10.8489  -16.4985 N   0  0  0  0  0  0  0  0  0  0  0  0
   18.6802   -9.9233  -16.8583 C   0  0  0  0  0  0  0  0  0  0  0  0
   18.8555   -8.9352  -15.7759 C   0  0  0  0  0  0  0  0  0  0  0  0
   17.9168   -8.1596  -15.4747 O   0  0  0  0  0  0  0  0  0  0  0  0
   20.0823   -8.8262  -15.0415 N   0  0  0  0  0  0  0  0  0  0  0  0
   20.2829   -7.7612  -14.0689 C   0  0  1  0  0  0  0  0  0  0  0  0
   20.9968   -8.3802  -12.8912 C   0  0  0  0  0  0  0  0  0  0  0  0
   21.2517   -7.0894  -11.6462 S   0  0  0  0  0  0  0  0  0  0  0  0
   21.1468   -6.7217  -14.6694 C   0  0  0  0  0  0  0  0  0  0  0  0
   22.3139   -7.0470  -15.0637 O   0  0  0  0  0  0  0  0  0  0  0  0
   20.4132   -4.5012  -17.6033 C   0  0  0  0  0  0  0  0  0  0  0  0
   20.7592   -3.6312  -16.4221 C   0  0  1  0  0  0  0  0  0  0  0  0
   19.5601   -3.2154  -15.8491 O   0  0  0  0  0  0  0  0  0  0  0  0
   21.5425   -4.3675  -15.3713 C   0  0  2  0  0  0  0  0  0  0  0  0
   20.6869   -5.3865  -14.8034 N   0  0  0  0  0  0  0  0  0  0  0  0
   22.0740   -3.4905  -14.3067 C   0  0  0  0  0  0  0  0  0  0  0  0
   21.7127   -3.5883  -13.1155 O   0  0  0  0  0  0  0  0  0  0  0  0
   23.0105   -2.5146  -14.6194 O   0  0  0  0  0  0  0  0  0  0  0  0
  1  2  1  0
  3  2  1  0
  4  3  2  0
  5  3  1  0
  6  5  1  0
  7  8  1  0
  6  7  1  1
  9  6  1  0
  9 15  1  0
 10  9  2  0
 12 11  1  6
 12 14  1  0
 12 13  1  0
 14 15  1  1
 14 16  1  0
 16 18  1  0
 17 16  2  0
M  END
$$$$
