GCT.pdb
     RDKit          3D

 18 17  0  0  1  0  0  0  0  0999 V2000
   19.4321  -12.6687  -18.5369 N   0  0  0  0  0  0  0  0  0  0  0  0
   19.8501  -11.2892  -18.6920 C   0  0  0  0  0  0  0  0  0  0  0  0
   20.3815  -10.7908  -17.4083 C   0  0  0  0  0  0  0  0  0  0  0  0
   19.6750  -10.8422  -16.3731 O   0  0  0  0  0  0  0  0  0  0  0  0
   21.7006  -10.2394  -17.2978 N   0  0  0  0  0  0  0  0  0  0  0  0
   22.1942   -9.7227  -16.0291 C   0  0  1  0  0  0  0  0  0  0  0  0
   23.5800  -10.2917  -15.8404 C   0  0  0  0  0  0  0  0  0  0  0  0
   24.2626   -9.6130  -14.3059 S   0  0  0  0  0  0  0  0  0  0  0  0
   22.2816   -8.2487  -16.1147 C   0  0  0  0  0  0  0  0  0  0  0  0
   23.0076   -7.7292  -17.0238 O   0  0  0  0  0  0  0  0  0  0  0  0
   19.9001   -5.8407  -17.0141 C   0  0  0  0  0  0  0  0  0  0  0  0
   20.3433   -5.4247  -15.6348 C   0  0  1  0  0  0  0  0  0  0  0  0
   19.4085   -5.9241  -14.7317 O   0  0  0  0  0  0  0  0  0  0  0  0
   21.6881   -5.9863  -15.2657 C   0  0  2  0  0  0  0  0  0  0  0  0
   21.5722   -7.4269  -15.2016 N   0  0  0  0  0  0  0  0  0  0  0  0
   22.2212   -5.4563  -13.9929 C   0  0  0  0  0  0  0  0  0  0  0  0
   22.4412   -6.1853  -13.0034 O   0  0  0  0  0  0  0  0  0  0  0  0
   22.4951   -4.1009  -13.8700 O   0  0  0  0  0  0  0  0  0  0  0  0
  1  2  1  0
  3  2  1  0
  4  3  2  0
  5  3  1  0
  6  5  1  0
  7  8  1  0
  6  7  1  6
  9  6  1  0
  9 15  1  0
 10  9  2  0
 12 11  1  6
 12 14  1  0
 12 13  1  0
 14 15  1  1
 14 16  1  0
 16 18  1  0
 17 16  2  0
M  END
$$$$
