GCT.pdb
     RDKit          3D

 18 17  0  0  1  0  0  0  0  0999 V2000
   17.3773  -10.8267  -16.6674 N   0  0  0  0  0  0  0  0  0  0  0  0
   17.7663   -9.4699  -16.9982 C   0  0  0  0  0  0  0  0  0  0  0  0
   18.7906   -9.0067  -16.0416 C   0  0  0  0  0  0  0  0  0  0  0  0
   18.4527   -8.6199  -14.8973 O   0  0  0  0  0  0  0  0  0  0  0  0
   20.1843   -8.9817  -16.3778 N   0  0  0  0  0  0  0  0  0  0  0  0
   21.1746   -8.4788  -15.4361 C   0  0  1  0  0  0  0  0  0  0  0  0
   22.4657   -9.2005  -15.7400 C   0  0  0  0  0  0  0  0  0  0  0  0
   23.1199   -9.8614  -14.1855 S   0  0  0  0  0  0  0  0  0  0  0  0
   21.3617   -7.0299  -15.6673 C   0  0  0  0  0  0  0  0  0  0  0  0
   21.7416   -6.6366  -16.8181 O   0  0  0  0  0  0  0  0  0  0  0  0
   19.2076   -4.4253  -16.0444 C   0  0  0  0  0  0  0  0  0  0  0  0
   20.0639   -3.9699  -14.8906 C   0  0  1  0  0  0  0  0  0  0  0  0
   19.3684   -4.2596  -13.7195 O   0  0  0  0  0  0  0  0  0  0  0  0
   21.3845   -4.6859  -14.8328 C   0  0  2  0  0  0  0  0  0  0  0  0
   21.1245   -6.0942  -14.6279 N   0  0  0  0  0  0  0  0  0  0  0  0
   22.2903   -4.1723  -13.7836 C   0  0  0  0  0  0  0  0  0  0  0  0
   22.6073   -4.8480  -12.7826 O   0  0  0  0  0  0  0  0  0  0  0  0
   22.8205   -2.8941  -13.8941 O   0  0  0  0  0  0  0  0  0  0  0  0
  1  2  1  0
  3  2  1  0
  4  3  2  0
  5  3  1  0
  6  5  1  0
  7  8  1  0
  6  7  1  6
  9  6  1  0
  9 15  1  0
 10  9  2  0
 12 11  1  6
 12 14  1  0
 12 13  1  0
 14 15  1  1
 14 16  1  0
 16 18  1  0
 17 16  2  0
M  END
$$$$
