GCT.pdb
     RDKit          3D

 18 17  0  0  1  0  0  0  0  0999 V2000
   20.6820  -11.5611  -18.6020 N   0  0  0  0  0  0  0  0  0  0  0  0
   21.7060  -10.8876  -17.8278 C   0  0  0  0  0  0  0  0  0  0  0  0
   21.1275   -9.6906  -17.1863 C   0  0  0  0  0  0  0  0  0  0  0  0
   21.0747   -8.6053  -17.8128 O   0  0  0  0  0  0  0  0  0  0  0  0
   20.6136   -9.7225  -15.8480 N   0  0  0  0  0  0  0  0  0  0  0  0
   19.9681   -8.5553  -15.2639 C   0  0  1  0  0  0  0  0  0  0  0  0
   18.9843   -9.0717  -14.2415 C   0  0  0  0  0  0  0  0  0  0  0  0
   17.7199  -10.0326  -15.1129 S   0  0  0  0  0  0  0  0  0  0  0  0
   20.9918   -7.7340  -14.5818 C   0  0  0  0  0  0  0  0  0  0  0  0
   21.7697   -8.2955  -13.7434 O   0  0  0  0  0  0  0  0  0  0  0  0
   23.7953   -6.0996  -16.0443 C   0  0  0  0  0  0  0  0  0  0  0  0
   23.0346   -5.0170  -15.3221 C   0  0  1  0  0  0  0  0  0  0  0  0
   22.2217   -4.3862  -16.2603 O   0  0  0  0  0  0  0  0  0  0  0  0
   22.1499   -5.5592  -14.2343 C   0  0  2  0  0  0  0  0  0  0  0  0
   21.1060   -6.3464  -14.8536 N   0  0  0  0  0  0  0  0  0  0  0  0
   21.5617   -4.5117  -13.3732 C   0  0  0  0  0  0  0  0  0  0  0  0
   20.3439   -4.2365  -13.3897 O   0  0  0  0  0  0  0  0  0  0  0  0
   22.3741   -3.7942  -12.5058 O   0  0  0  0  0  0  0  0  0  0  0  0
  1  2  1  0
  3  2  1  0
  4  3  2  0
  5  3  1  0
  6  5  1  0
  7  8  1  0
  6  7  1  1
  9  6  1  0
  9 15  1  0
 10  9  2  0
 12 11  1  6
 12 14  1  0
 12 13  1  0
 14 15  1  6
 14 16  1  0
 16 18  1  0
 17 16  2  0
M  END
$$$$
