GCT.pdb
     RDKit          3D

 18 17  0  0  1  0  0  0  0  0999 V2000
   15.1355   -7.7696   -7.9198 N   0  0  0  0  0  0  0  0  0  0  0  0
   15.3918   -6.7157   -8.8816 C   0  0  0  0  0  0  0  0  0  0  0  0
   16.4021   -7.1753   -9.8547 C   0  0  0  0  0  0  0  0  0  0  0  0
   17.4042   -7.8201   -9.4631 O   0  0  0  0  0  0  0  0  0  0  0  0
   16.2788   -6.9071  -11.2579 N   0  0  0  0  0  0  0  0  0  0  0  0
   17.2425   -7.4389  -12.2112 C   0  0  1  0  0  0  0  0  0  0  0  0
   16.4441   -8.0574  -13.3337 C   0  0  0  0  0  0  0  0  0  0  0  0
   17.6070   -8.7863  -14.5159 S   0  0  0  0  0  0  0  0  0  0  0  0
   18.0507   -6.3223  -12.7474 C   0  0  0  0  0  0  0  0  0  0  0  0
   17.4756   -5.2125  -12.9945 O   0  0  0  0  0  0  0  0  0  0  0  0
   22.2732   -6.8321  -13.4850 C   0  0  0  0  0  0  0  0  0  0  0  0
   21.6512   -5.5804  -12.9206 C   0  0  1  0  0  0  0  0  0  0  0  0
   22.4267   -4.5050  -13.3459 O   0  0  0  0  0  0  0  0  0  0  0  0
   20.2474   -5.3604  -13.4114 C   0  0  2  0  0  0  0  0  0  0  0  0
   19.4401   -6.4824  -12.9845 N   0  0  0  0  0  0  0  0  0  0  0  0
   20.1533   -5.1874  -14.8764 C   0  0  0  0  0  0  0  0  0  0  0  0
   19.9863   -6.1489  -15.6553 O   0  0  0  0  0  0  0  0  0  0  0  0
   20.2516   -3.9178  -15.4295 O   0  0  0  0  0  0  0  0  0  0  0  0
  1  2  1  0
  3  2  1  0
  4  3  2  0
  5  3  1  0
  6  5  1  0
  7  8  1  0
  6  7  1  6
  9  6  1  0
  9 15  1  0
 10  9  2  0
 12 11  1  6
 12 14  1  0
 12 13  1  0
 14 15  1  6
 14 16  1  0
 16 18  1  0
 17 16  2  0
M  END
$$$$
