GCT.pdb
     RDKit          3D

 18 17  0  0  1  0  0  0  0  0999 V2000
   16.9346  -12.1406  -15.8831 N   0  0  0  0  0  0  0  0  0  0  0  0
   17.6649  -11.0932  -16.5695 C   0  0  0  0  0  0  0  0  0  0  0  0
   18.6267  -10.4741  -15.6365 C   0  0  0  0  0  0  0  0  0  0  0  0
   18.2812  -10.2129  -14.4593 O   0  0  0  0  0  0  0  0  0  0  0  0
   19.9670  -10.1537  -16.0328 N   0  0  0  0  0  0  0  0  0  0  0  0
   20.9004   -9.5422  -15.0973 C   0  0  1  0  0  0  0  0  0  0  0  0
   22.1930  -10.3146  -15.2092 C   0  0  0  0  0  0  0  0  0  0  0  0
   23.3946   -9.5671  -14.0784 S   0  0  0  0  0  0  0  0  0  0  0  0
   21.1355   -8.1398  -15.5043 C   0  0  0  0  0  0  0  0  0  0  0  0
   21.5652   -7.9066  -16.6809 O   0  0  0  0  0  0  0  0  0  0  0  0
   18.9246   -5.5023  -16.0911 C   0  0  0  0  0  0  0  0  0  0  0  0
   19.8587   -4.9623  -15.0385 C   0  0  1  0  0  0  0  0  0  0  0  0
   19.2288   -5.1190  -13.8066 O   0  0  0  0  0  0  0  0  0  0  0  0
   21.1643   -5.7059  -14.9877 C   0  0  2  0  0  0  0  0  0  0  0  0
   20.8891   -7.0729  -14.6024 N   0  0  0  0  0  0  0  0  0  0  0  0
   22.1534   -5.1023  -14.0699 C   0  0  0  0  0  0  0  0  0  0  0  0
   22.6138   -5.7148  -13.0841 O   0  0  0  0  0  0  0  0  0  0  0  0
   22.6017   -3.8074  -14.2926 O   0  0  0  0  0  0  0  0  0  0  0  0
  1  2  1  0
  3  2  1  0
  4  3  2  0
  5  3  1  0
  6  5  1  0
  7  8  1  0
  6  7  1  6
  9  6  1  0
  9 15  1  0
 10  9  2  0
 12 11  1  6
 12 14  1  0
 12 13  1  0
 14 15  1  1
 14 16  1  0
 16 18  1  0
 17 16  2  0
M  END
$$$$
