GCT.pdb
     RDKit          3D

 18 17  0  0  1  0  0  0  0  0999 V2000
   19.0408  -11.8883  -17.5746 N   0  0  0  0  0  0  0  0  0  0  0  0
   19.5054  -10.5633  -17.9353 C   0  0  0  0  0  0  0  0  0  0  0  0
   20.2240   -9.9678  -16.7916 C   0  0  0  0  0  0  0  0  0  0  0  0
   19.6657   -9.8877  -15.6713 O   0  0  0  0  0  0  0  0  0  0  0  0
   21.5622   -9.4679  -16.9155 N   0  0  0  0  0  0  0  0  0  0  0  0
   22.2474   -8.8678  -15.7794 C   0  0  1  0  0  0  0  0  0  0  0  0
   23.7097   -9.2155  -15.9237 C   0  0  0  0  0  0  0  0  0  0  0  0
   24.0260  -10.7231  -14.9706 S   0  0  0  0  0  0  0  0  0  0  0  0
   22.0882   -7.3988  -15.8465 C   0  0  0  0  0  0  0  0  0  0  0  0
   22.3195   -6.8067  -16.9507 O   0  0  0  0  0  0  0  0  0  0  0  0
   19.4348   -5.4611  -16.0901 C   0  0  0  0  0  0  0  0  0  0  0  0
   20.0839   -4.8962  -14.8525 C   0  0  1  0  0  0  0  0  0  0  0  0
   19.4528   -5.4740  -13.7539 O   0  0  0  0  0  0  0  0  0  0  0  0
   21.5490   -5.2222  -14.7679 C   0  0  2  0  0  0  0  0  0  0  0  0
   21.6871   -6.6609  -14.7033 N   0  0  0  0  0  0  0  0  0  0  0  0
   22.2307   -4.5883  -13.6196 C   0  0  0  0  0  0  0  0  0  0  0  0
   22.6908   -5.2492  -12.6654 O   0  0  0  0  0  0  0  0  0  0  0  0
   22.3763   -3.2083  -13.5791 O   0  0  0  0  0  0  0  0  0  0  0  0
  1  2  1  0
  3  2  1  0
  4  3  2  0
  5  3  1  0
  6  5  1  0
  7  8  1  0
  6  7  1  6
  9  6  1  0
  9 15  1  0
 10  9  2  0
 12 11  1  6
 12 14  1  0
 12 13  1  0
 14 15  1  1
 14 16  1  0
 16 18  1  0
 17 16  2  0
M  END
$$$$
