PIY.pdb
     RDKit          3D

 28 29  0  0  1  0  0  0  0  0999 V2000
   28.4688  -21.0721  -15.6721 N   0  0  0  0  0  0  0  0  0  0  0  0
   27.7066  -21.1011  -16.9045 C   0  0  0  0  0  0  0  0  0  0  0  0
   26.8865  -19.8414  -16.9496 C   0  0  0  0  0  0  0  0  0  0  0  0
   27.3641  -19.0172  -15.7763 C   0  0  0  0  0  0  0  0  0  0  0  0
   27.8479  -20.0878  -14.8242 C   0  0  1  0  0  0  0  0  0  0  0  0
   26.7408  -20.7263  -14.0887 C   0  0  0  0  0  0  0  0  0  0  0  0
   26.2234  -21.8069  -14.4814 O   0  0  0  0  0  0  0  0  0  0  0  0
   26.9818  -20.6284   -8.7225 C   0  0  0  0  0  0  0  0  0  0  0  0
   26.6616  -21.0867  -10.1079 C   0  0  0  0  0  0  0  0  0  0  0  0
   25.3888  -20.5674  -10.6716 C   0  0  2  0  0  0  0  0  0  0  0  0
   24.2212  -21.1919   -9.9144 C   0  0  0  0  0  0  0  0  0  0  0  0
   25.1596  -20.8355  -12.1242 C   0  0  2  0  0  0  0  0  0  0  0  0
   26.1960  -20.1566  -12.8946 N   0  0  0  0  0  0  0  0  0  0  0  0
   23.7945  -20.5395  -12.6084 C   0  0  0  0  0  0  0  0  0  0  0  0
   23.3235  -19.3520  -12.5919 O   0  0  0  0  0  0  0  0  0  0  0  0
   16.0528  -20.9447  -16.7638 O   0  0  0  0  0  0  0  0  0  0  0  0
   17.2776  -21.2683  -16.2124 C   0  0  0  0  0  0  0  0  0  0  0  0
   17.2968  -21.9643  -15.0245 C   0  0  0  0  0  0  0  0  0  0  0  0
   18.5268  -22.2924  -14.4654 C   0  0  0  0  0  0  0  0  0  0  0  0
   19.7175  -21.9517  -15.0478 C   0  0  0  0  0  0  0  0  0  0  0  0
   21.0242  -22.3028  -14.4585 C   0  0  0  0  0  0  0  0  0  0  0  0
   21.6029  -21.1743  -13.5989 C   0  0  2  0  0  0  0  0  0  0  0  0
   22.9232  -21.5368  -13.1213 N   0  0  0  0  0  0  0  0  0  0  0  0
   20.7186  -21.0174  -12.4260 C   0  0  0  0  0  0  0  0  0  0  0  0
   19.7829  -19.9900  -12.3321 O   0  0  0  0  0  0  0  0  0  0  0  0
   19.6705  -21.2468  -16.2506 C   0  0  0  0  0  0  0  0  0  0  0  0
   18.4567  -20.9118  -16.8214 C   0  0  0  0  0  0  0  0  0  0  0  0
   20.7638  -21.8068  -11.4432 O   0  0  0  0  0  0  0  0  0  0  0  0
  1  5  1  0
  2  1  1  0
  2  3  1  0
  3  4  1  0
  5  4  1  0
  5  6  1  6
  6  7  2  0
  9  8  1  0
 10  9  1  0
 10 12  1  0
 10 11  1  1
 12 13  1  6
 13  6  1  0
 14 23  1  0
 14 12  1  0
 15 14  2  0
 16 17  1  0
 17 27  2  0
 17 18  1  0
 18 19  2  0
 19 20  1  0
 20 21  1  0
 22 21  1  6
 22 23  1  0
 22 24  1  0
 24 25  1  0
 26 20  2  0
 27 26  1  0
 28 24  2  0
M  END
$$$$
