PIY.pdb
     RDKit          3D

 28 29  0  0  1  0  0  0  0  0999 V2000
   28.6993  -20.7314  -15.3399 N   0  0  0  0  0  0  0  0  0  0  0  0
   28.8391  -21.8649  -16.2321 C   0  0  0  0  0  0  0  0  0  0  0  0
   27.5881  -21.9327  -17.0638 C   0  0  0  0  0  0  0  0  0  0  0  0
   26.8212  -20.6749  -16.7267 C   0  0  0  0  0  0  0  0  0  0  0  0
   27.3009  -20.3889  -15.3214 C   0  0  1  0  0  0  0  0  0  0  0  0
   26.6211  -21.2256  -14.3154 C   0  0  0  0  0  0  0  0  0  0  0  0
   25.9060  -22.2092  -14.6487 O   0  0  0  0  0  0  0  0  0  0  0  0
   25.6196  -21.0526   -8.1268 C   0  0  0  0  0  0  0  0  0  0  0  0
   25.1686  -21.3764   -9.5138 C   0  0  0  0  0  0  0  0  0  0  0  0
   26.1058  -20.9799  -10.5963 C   0  0  2  0  0  0  0  0  0  0  0  0
   26.3935  -19.4866  -10.4791 C   0  0  0  0  0  0  0  0  0  0  0  0
   25.6323  -21.2243  -11.9929 C   0  0  2  0  0  0  0  0  0  0  0  0
   26.7356  -20.9680  -12.9127 N   0  0  0  0  0  0  0  0  0  0  0  0
   24.3922  -20.5123  -12.3679 C   0  0  0  0  0  0  0  0  0  0  0  0
   24.4171  -19.3086  -12.7954 O   0  0  0  0  0  0  0  0  0  0  0  0
   18.0933  -18.5525  -17.6873 O   0  0  0  0  0  0  0  0  0  0  0  0
   19.1178  -19.0742  -16.9210 C   0  0  0  0  0  0  0  0  0  0  0  0
   20.0467  -18.2062  -16.3923 C   0  0  0  0  0  0  0  0  0  0  0  0
   21.0796  -18.7261  -15.6205 C   0  0  0  0  0  0  0  0  0  0  0  0
   21.2097  -20.0645  -15.3654 C   0  0  0  0  0  0  0  0  0  0  0  0
   22.3027  -20.6182  -14.5426 C   0  0  0  0  0  0  0  0  0  0  0  0
   21.9984  -20.5546  -13.0424 C   0  0  2  0  0  0  0  0  0  0  0  0
   23.1048  -21.1059  -12.2843 N   0  0  0  0  0  0  0  0  0  0  0  0
   20.8106  -21.3985  -12.7986 C   0  0  0  0  0  0  0  0  0  0  0  0
   19.5427  -20.8580  -12.5977 O   0  0  0  0  0  0  0  0  0  0  0  0
   20.2557  -20.9225  -15.9126 C   0  0  0  0  0  0  0  0  0  0  0  0
   19.2217  -20.4236  -16.6827 C   0  0  0  0  0  0  0  0  0  0  0  0
   20.8806  -22.6572  -12.7583 O   0  0  0  0  0  0  0  0  0  0  0  0
  1  5  1  0
  2  1  1  0
  2  3  1  0
  3  4  1  0
  5  4  1  0
  5  6  1  1
  6  7  2  0
  9  8  1  0
 10  9  1  0
 10 12  1  0
 10 11  1  6
 12 13  1  6
 13  6  1  0
 14 23  1  0
 14 12  1  0
 15 14  2  0
 16 17  1  0
 17 27  2  0
 17 18  1  0
 18 19  2  0
 19 20  1  0
 20 21  1  0
 22 21  1  6
 22 23  1  0
 22 24  1  0
 24 25  1  0
 26 20  2  0
 27 26  1  0
 28 24  2  0
M  END
$$$$
