PIY.pdb
     RDKit          3D

 28 29  0  0  1  0  0  0  0  0999 V2000
   28.6190  -20.9901  -14.7872 N   0  0  0  0  0  0  0  0  0  0  0  0
   27.6881  -20.7329  -15.8679 C   0  0  0  0  0  0  0  0  0  0  0  0
   27.1079  -19.3646  -15.6383 C   0  0  0  0  0  0  0  0  0  0  0  0
   27.8946  -18.7910  -14.4825 C   0  0  0  0  0  0  0  0  0  0  0  0
   28.3171  -20.0424  -13.7461 C   0  0  1  0  0  0  0  0  0  0  0  0
   27.2368  -20.5901  -12.9051 C   0  0  0  0  0  0  0  0  0  0  0  0
   26.4924  -21.5233  -13.3110 O   0  0  0  0  0  0  0  0  0  0  0  0
   27.5768  -19.6671   -7.5251 C   0  0  0  0  0  0  0  0  0  0  0  0
   27.2331  -20.4470   -8.7521 C   0  0  0  0  0  0  0  0  0  0  0  0
   25.9596  -20.0632   -9.4140 C   0  0  2  0  0  0  0  0  0  0  0  0
   24.7950  -20.6557   -8.6272 C   0  0  0  0  0  0  0  0  0  0  0  0
   25.7994  -20.5091  -10.8317 C   0  0  2  0  0  0  0  0  0  0  0  0
   26.9758  -20.0944  -11.5885 N   0  0  0  0  0  0  0  0  0  0  0  0
   24.5299  -20.1089  -11.4750 C   0  0  0  0  0  0  0  0  0  0  0  0
   24.3402  -18.9164  -11.8923 O   0  0  0  0  0  0  0  0  0  0  0  0
   23.4255  -17.3821  -17.8563 O   0  0  0  0  0  0  0  0  0  0  0  0
   23.1710  -18.3246  -16.8785 C   0  0  0  0  0  0  0  0  0  0  0  0
   22.1175  -18.1074  -16.0190 C   0  0  0  0  0  0  0  0  0  0  0  0
   21.8571  -19.0526  -15.0333 C   0  0  0  0  0  0  0  0  0  0  0  0
   22.6051  -20.1890  -14.8835 C   0  0  0  0  0  0  0  0  0  0  0  0
   22.3279  -21.1960  -13.8408 C   0  0  0  0  0  0  0  0  0  0  0  0
   22.2858  -20.5890  -12.4347 C   0  0  2  0  0  0  0  0  0  0  0  0
   23.4482  -21.0070  -11.6751 N   0  0  0  0  0  0  0  0  0  0  0  0
   21.0832  -21.1213  -11.7618 C   0  0  0  0  0  0  0  0  0  0  0  0
   19.7938  -20.7835  -12.1660 O   0  0  0  0  0  0  0  0  0  0  0  0
   23.6666  -20.3853  -15.7669 C   0  0  0  0  0  0  0  0  0  0  0  0
   23.9406  -19.4561  -16.7533 C   0  0  0  0  0  0  0  0  0  0  0  0
   21.1591  -21.9119  -10.7819 O   0  0  0  0  0  0  0  0  0  0  0  0
  1  5  1  0
  2  1  1  0
  2  3  1  0
  3  4  1  0
  5  4  1  0
  5  6  1  1
  6  7  2  0
  9  8  1  0
 10  9  1  0
 10 12  1  0
 10 11  1  1
 12 13  1  6
 13  6  1  0
 14 23  1  0
 14 12  1  0
 15 14  2  0
 16 17  1  0
 17 27  2  0
 17 18  1  0
 18 19  2  0
 19 20  1  0
 20 21  1  0
 22 21  1  6
 22 23  1  0
 22 24  1  0
 24 25  1  0
 26 20  2  0
 27 26  1  0
 28 24  2  0
M  END
$$$$
