PIY.pdb
     RDKit          3D

 28 29  0  0  1  0  0  0  0  0999 V2000
   26.5194  -18.7213  -15.9194 N   0  0  0  0  0  0  0  0  0  0  0  0
   26.9676  -17.5416  -15.2067 C   0  0  0  0  0  0  0  0  0  0  0  0
   28.4402  -17.7090  -14.9519 C   0  0  0  0  0  0  0  0  0  0  0  0
   28.8347  -18.9505  -15.7179 C   0  0  0  0  0  0  0  0  0  0  0  0
   27.5361  -19.7250  -15.7396 C   0  0  1  0  0  0  0  0  0  0  0  0
   27.2840  -20.4331  -14.4710 C   0  0  0  0  0  0  0  0  0  0  0  0
   28.1701  -21.1443  -13.9243 O   0  0  0  0  0  0  0  0  0  0  0  0
   29.3361  -20.7469  -10.9952 C   0  0  0  0  0  0  0  0  0  0  0  0
   28.2593  -21.0662  -11.9803 C   0  0  0  0  0  0  0  0  0  0  0  0
   26.8874  -20.6638  -11.5760 C   0  0  2  0  0  0  0  0  0  0  0  0
   26.5545  -21.3164  -10.2382 C   0  0  0  0  0  0  0  0  0  0  0  0
   25.7922  -21.0311  -12.5246 C   0  0  2  0  0  0  0  0  0  0  0  0
   26.0258  -20.3520  -13.7947 N   0  0  0  0  0  0  0  0  0  0  0  0
   24.4218  -20.8307  -12.0076 C   0  0  0  0  0  0  0  0  0  0  0  0
   24.0404  -19.7012  -11.5482 O   0  0  0  0  0  0  0  0  0  0  0  0
   16.3598  -18.5924  -11.9018 O   0  0  0  0  0  0  0  0  0  0  0  0
   17.6833  -18.9745  -11.7959 C   0  0  0  0  0  0  0  0  0  0  0  0
   18.5056  -18.7937  -12.8854 C   0  0  0  0  0  0  0  0  0  0  0  0
   19.8384  -19.1765  -12.7840 C   0  0  0  0  0  0  0  0  0  0  0  0
   20.3649  -19.7250  -11.6460 C   0  0  0  0  0  0  0  0  0  0  0  0
   21.7803  -20.1279  -11.5346 C   0  0  0  0  0  0  0  0  0  0  0  0
   22.0368  -21.5320  -12.0916 C   0  0  2  0  0  0  0  0  0  0  0  0
   23.4450  -21.8614  -11.9872 N   0  0  0  0  0  0  0  0  0  0  0  0
   21.6768  -21.5091  -13.5242 C   0  0  0  0  0  0  0  0  0  0  0  0
   20.4959  -22.0711  -14.0035 O   0  0  0  0  0  0  0  0  0  0  0  0
   19.5110  -19.8977  -10.5567 C   0  0  0  0  0  0  0  0  0  0  0  0
   18.1827  -19.5230  -10.6391 C   0  0  0  0  0  0  0  0  0  0  0  0
   22.4215  -20.9788  -14.3932 O   0  0  0  0  0  0  0  0  0  0  0  0
  1  5  1  0
  2  1  1  0
  2  3  1  0
  3  4  1  0
  5  4  1  0
  5  6  1  1
  6  7  2  0
  9  8  1  0
 10  9  1  0
 10 12  1  0
 10 11  1  1
 12 13  1  6
 13  6  1  0
 14 23  1  0
 14 12  1  0
 15 14  2  0
 16 17  1  0
 17 27  2  0
 17 18  1  0
 18 19  2  0
 19 20  1  0
 20 21  1  0
 22 21  1  6
 22 23  1  0
 22 24  1  0
 24 25  1  0
 26 20  2  0
 27 26  1  0
 28 24  2  0
M  END
$$$$
