PIY.pdb
     RDKit          3D

 28 29  0  0  1  0  0  0  0  0999 V2000
   26.9043  -17.4942  -17.1601 N   0  0  0  0  0  0  0  0  0  0  0  0
   25.5174  -17.6332  -17.5570 C   0  0  0  0  0  0  0  0  0  0  0  0
   24.6753  -17.2345  -16.3766 C   0  0  0  0  0  0  0  0  0  0  0  0
   25.6521  -16.6875  -15.3615 C   0  0  0  0  0  0  0  0  0  0  0  0
   26.9191  -17.4303  -15.7217 C   0  0  1  0  0  0  0  0  0  0  0  0
   26.9354  -18.8040  -15.1863 C   0  0  0  0  0  0  0  0  0  0  0  0
   26.7145  -19.8029  -15.9234 O   0  0  0  0  0  0  0  0  0  0  0  0
   30.6159  -20.1749  -11.4390 C   0  0  0  0  0  0  0  0  0  0  0  0
   29.6400  -20.2236  -12.5692 C   0  0  0  0  0  0  0  0  0  0  0  0
   28.2345  -20.5126  -12.1841 C   0  0  2  0  0  0  0  0  0  0  0  0
   28.1599  -21.9221  -11.6060 C   0  0  0  0  0  0  0  0  0  0  0  0
   27.2267  -20.4393  -13.2856 C   0  0  2  0  0  0  0  0  0  0  0  0
   27.2017  -19.0770  -13.8072 N   0  0  0  0  0  0  0  0  0  0  0  0
   25.8826  -20.9489  -12.9402 C   0  0  0  0  0  0  0  0  0  0  0  0
   25.6771  -22.1894  -12.7141 O   0  0  0  0  0  0  0  0  0  0  0  0
   26.6976  -20.5580   -6.7294 O   0  0  0  0  0  0  0  0  0  0  0  0
   25.8128  -20.3879   -7.7769 C   0  0  0  0  0  0  0  0  0  0  0  0
   25.9504  -19.2745   -8.5752 C   0  0  0  0  0  0  0  0  0  0  0  0
   25.0627  -19.0987   -9.6307 C   0  0  0  0  0  0  0  0  0  0  0  0
   24.0589  -19.9869   -9.9075 C   0  0  0  0  0  0  0  0  0  0  0  0
   23.1182  -19.8047  -11.0301 C   0  0  0  0  0  0  0  0  0  0  0  0
   23.5111  -20.6234  -12.2641 C   0  0  2  0  0  0  0  0  0  0  0  0
   24.7419  -20.1098  -12.8334 N   0  0  0  0  0  0  0  0  0  0  0  0
   22.4376  -20.4531  -13.2646 C   0  0  0  0  0  0  0  0  0  0  0  0
   22.6671  -19.8745  -14.5106 O   0  0  0  0  0  0  0  0  0  0  0  0
   23.9410  -21.1064   -9.0838 C   0  0  0  0  0  0  0  0  0  0  0  0
   24.8146  -21.2979   -8.0295 C   0  0  0  0  0  0  0  0  0  0  0  0
   21.2520  -20.8226  -13.0438 O   0  0  0  0  0  0  0  0  0  0  0  0
  1  5  1  0
  2  1  1  0
  2  3  1  0
  3  4  1  0
  5  4  1  0
  5  6  1  1
  6  7  2  0
  9  8  1  0
 10  9  1  0
 10 12  1  0
 10 11  1  6
 12 13  1  1
 13  6  1  0
 14 23  1  0
 14 12  1  0
 15 14  2  0
 16 17  1  0
 17 27  2  0
 17 18  1  0
 18 19  2  0
 19 20  1  0
 20 21  1  0
 22 21  1  1
 22 23  1  0
 22 24  1  0
 24 25  1  0
 26 20  2  0
 27 26  1  0
 28 24  2  0
M  END
$$$$
