PIY.pdb
     RDKit          3D

 28 29  0  0  1  0  0  0  0  0999 V2000
   28.6371  -21.2041  -15.5203 N   0  0  0  0  0  0  0  0  0  0  0  0
   28.0061  -20.6790  -16.7147 C   0  0  0  0  0  0  0  0  0  0  0  0
   27.5953  -19.2638  -16.4147 C   0  0  0  0  0  0  0  0  0  0  0  0
   28.1917  -18.9583  -15.0602 C   0  0  0  0  0  0  0  0  0  0  0  0
   28.2607  -20.3341  -14.4364 C   0  0  1  0  0  0  0  0  0  0  0  0
   26.9578  -20.7751  -13.9051 C   0  0  0  0  0  0  0  0  0  0  0  0
   26.2076  -21.5517  -14.5562 O   0  0  0  0  0  0  0  0  0  0  0  0
   26.4528  -20.9958   -8.4665 C   0  0  0  0  0  0  0  0  0  0  0  0
   26.2846  -21.3598   -9.9057 C   0  0  0  0  0  0  0  0  0  0  0  0
   25.1949  -20.6454  -10.6195 C   0  0  2  0  0  0  0  0  0  0  0  0
   23.8514  -21.1623  -10.1153 C   0  0  0  0  0  0  0  0  0  0  0  0
   25.1857  -20.7867  -12.1075 C   0  0  2  0  0  0  0  0  0  0  0  0
   26.4764  -20.3477  -12.6273 N   0  0  0  0  0  0  0  0  0  0  0  0
   24.0415  -20.1469  -12.7908 C   0  0  0  0  0  0  0  0  0  0  0  0
   24.0635  -18.9112  -13.1144 O   0  0  0  0  0  0  0  0  0  0  0  0
   18.0150  -17.8954  -18.4912 O   0  0  0  0  0  0  0  0  0  0  0  0
   19.0249  -18.4460  -17.7257 C   0  0  0  0  0  0  0  0  0  0  0  0
   19.0128  -19.8054  -17.5070 C   0  0  0  0  0  0  0  0  0  0  0  0
   20.0267  -20.3646  -16.7374 C   0  0  0  0  0  0  0  0  0  0  0  0
   21.0350  -19.6188  -16.1893 C   0  0  0  0  0  0  0  0  0  0  0  0
   22.1148  -20.2108  -15.3758 C   0  0  0  0  0  0  0  0  0  0  0  0
   21.8036  -20.1812  -13.8760 C   0  0  2  0  0  0  0  0  0  0  0  0
   22.8556  -20.8487  -13.1341 N   0  0  0  0  0  0  0  0  0  0  0  0
   20.5499  -20.9356  -13.6722 C   0  0  0  0  0  0  0  0  0  0  0  0
   20.5212  -22.3266  -13.6056 O   0  0  0  0  0  0  0  0  0  0  0  0
   21.0242  -18.2442  -16.4258 C   0  0  0  0  0  0  0  0  0  0  0  0
   20.0240  -17.6705  -17.1886 C   0  0  0  0  0  0  0  0  0  0  0  0
   19.4346  -20.3596  -13.5480 O   0  0  0  0  0  0  0  0  0  0  0  0
  1  5  1  0
  2  1  1  0
  2  3  1  0
  3  4  1  0
  5  4  1  0
  5  6  1  6
  6  7  2  0
  9  8  1  0
 10  9  1  0
 10 12  1  0
 10 11  1  1
 12 13  1  6
 13  6  1  0
 14 23  1  0
 14 12  1  0
 15 14  2  0
 16 17  1  0
 17 27  2  0
 17 18  1  0
 18 19  2  0
 19 20  1  0
 20 21  1  0
 22 21  1  6
 22 23  1  0
 22 24  1  0
 24 25  1  0
 26 20  2  0
 27 26  1  0
 28 24  2  0
M  END
$$$$
