PIY.pdb
     RDKit          3D

 28 29  0  0  1  0  0  0  0  0999 V2000
   26.5045  -19.1535  -14.9327 N   0  0  0  0  0  0  0  0  0  0  0  0
   27.4399  -18.3989  -14.1227 C   0  0  0  0  0  0  0  0  0  0  0  0
   28.6934  -19.2218  -14.0085 C   0  0  0  0  0  0  0  0  0  0  0  0
   28.4863  -20.3889  -14.9460 C   0  0  0  0  0  0  0  0  0  0  0  0
   26.9792  -20.5127  -14.9556 C   0  0  1  0  0  0  0  0  0  0  0  0
   26.4663  -21.2141  -13.7643 C   0  0  0  0  0  0  0  0  0  0  0  0
   26.7814  -22.4092  -13.5149 O   0  0  0  0  0  0  0  0  0  0  0  0
   26.3645  -19.5499   -8.7124 C   0  0  0  0  0  0  0  0  0  0  0  0
   26.3085  -20.3486   -9.9739 C   0  0  0  0  0  0  0  0  0  0  0  0
   24.9461  -20.5843  -10.5176 C   0  0  2  0  0  0  0  0  0  0  0  0
   24.1359  -21.3756   -9.4959 C   0  0  0  0  0  0  0  0  0  0  0  0
   24.8781  -21.3385  -11.8063 C   0  0  2  0  0  0  0  0  0  0  0  0
   25.5872  -20.5794  -12.8308 N   0  0  0  0  0  0  0  0  0  0  0  0
   23.5190  -21.7421  -12.2253 C   0  0  0  0  0  0  0  0  0  0  0  0
   22.7304  -22.3566  -11.4299 O   0  0  0  0  0  0  0  0  0  0  0  0
   17.1422  -16.3234  -13.5283 O   0  0  0  0  0  0  0  0  0  0  0  0
   18.3043  -17.0628  -13.4207 C   0  0  0  0  0  0  0  0  0  0  0  0
   19.2100  -17.0125  -14.4566 C   0  0  0  0  0  0  0  0  0  0  0  0
   20.3811  -17.7548  -14.3533 C   0  0  0  0  0  0  0  0  0  0  0  0
   20.6692  -18.5323  -13.2645 C   0  0  0  0  0  0  0  0  0  0  0  0
   21.9137  -19.3175  -13.1506 C   0  0  0  0  0  0  0  0  0  0  0  0
   21.7537  -20.7500  -13.6698 C   0  0  2  0  0  0  0  0  0  0  0  0
   22.9990  -21.4777  -13.5201 N   0  0  0  0  0  0  0  0  0  0  0  0
   21.4446  -20.6629  -15.1118 C   0  0  0  0  0  0  0  0  0  0  0  0
   20.1424  -20.5249  -15.5863 O   0  0  0  0  0  0  0  0  0  0  0  0
   19.7353  -18.5661  -12.2289 C   0  0  0  0  0  0  0  0  0  0  0  0
   18.5653  -17.8346  -12.3141 C   0  0  0  0  0  0  0  0  0  0  0  0
   22.3453  -20.7098  -15.9935 O   0  0  0  0  0  0  0  0  0  0  0  0
  1  5  1  0
  2  1  1  0
  2  3  1  0
  3  4  1  0
  5  4  1  0
  5  6  1  1
  6  7  2  0
  9  8  1  0
 10  9  1  0
 10 12  1  0
 10 11  1  1
 12 13  1  6
 13  6  1  0
 14 23  1  0
 14 12  1  0
 15 14  2  0
 16 17  1  0
 17 27  2  0
 17 18  1  0
 18 19  2  0
 19 20  1  0
 20 21  1  0
 22 21  1  6
 22 23  1  0
 22 24  1  0
 24 25  1  0
 26 20  2  0
 27 26  1  0
 28 24  2  0
M  END
$$$$
