PIY.pdb
     RDKit          3D

 28 29  0  0  1  0  0  0  0  0999 V2000
   22.5543  -16.3027  -15.2790 N   0  0  0  0  0  0  0  0  0  0  0  0
   22.5888  -15.9006  -16.6710 C   0  0  0  0  0  0  0  0  0  0  0  0
   21.8374  -16.9423  -17.4532 C   0  0  0  0  0  0  0  0  0  0  0  0
   21.2209  -17.8487  -16.4129 C   0  0  0  0  0  0  0  0  0  0  0  0
   22.1860  -17.6946  -15.2590 C   0  0  1  0  0  0  0  0  0  0  0  0
   23.4025  -18.5095  -15.4324 C   0  0  0  0  0  0  0  0  0  0  0  0
   23.3406  -19.7415  -15.6932 O   0  0  0  0  0  0  0  0  0  0  0  0
   27.8390  -17.6083  -18.2317 C   0  0  0  0  0  0  0  0  0  0  0  0
   26.7055  -18.1029  -17.3936 C   0  0  0  0  0  0  0  0  0  0  0  0
   27.0071  -18.2665  -15.9480 C   0  0  2  0  0  0  0  0  0  0  0  0
   28.1716  -19.2393  -15.7927 C   0  0  0  0  0  0  0  0  0  0  0  0
   25.8897  -18.7855  -15.1017 C   0  0  2  0  0  0  0  0  0  0  0  0
   24.7136  -17.9487  -15.3148 N   0  0  0  0  0  0  0  0  0  0  0  0
   26.2179  -18.9647  -13.6714 C   0  0  0  0  0  0  0  0  0  0  0  0
   26.5160  -17.9712  -12.9256 O   0  0  0  0  0  0  0  0  0  0  0  0
   26.7344  -19.4921   -5.2920 O   0  0  0  0  0  0  0  0  0  0  0  0
   26.4103  -19.5505   -6.6338 C   0  0  0  0  0  0  0  0  0  0  0  0
   26.7217  -18.4709   -7.4296 C   0  0  0  0  0  0  0  0  0  0  0  0
   26.3977  -18.5245   -8.7806 C   0  0  0  0  0  0  0  0  0  0  0  0
   25.7825  -19.6062   -9.3503 C   0  0  0  0  0  0  0  0  0  0  0  0
   25.4417  -19.6673  -10.7850 C   0  0  0  0  0  0  0  0  0  0  0  0
   26.5378  -20.3360  -11.6209 C   0  0  2  0  0  0  0  0  0  0  0  0
   26.2224  -20.2330  -13.0325 N   0  0  0  0  0  0  0  0  0  0  0  0
   26.5548  -21.7681  -11.2587 C   0  0  0  0  0  0  0  0  0  0  0  0
   27.4913  -22.3009  -10.3760 O   0  0  0  0  0  0  0  0  0  0  0  0
   25.4777  -20.6867   -8.5225 C   0  0  0  0  0  0  0  0  0  0  0  0
   25.7923  -20.6512   -7.1767 C   0  0  0  0  0  0  0  0  0  0  0  0
   25.7207  -22.5880  -11.7309 O   0  0  0  0  0  0  0  0  0  0  0  0
  1  5  1  0
  2  1  1  0
  2  3  1  0
  3  4  1  0
  5  4  1  0
  5  6  1  6
  6  7  2  0
  9  8  1  0
 10  9  1  0
 10 12  1  0
 10 11  1  6
 12 13  1  1
 13  6  1  0
 14 23  1  0
 14 12  1  0
 15 14  2  0
 16 17  1  0
 17 27  2  0
 17 18  1  0
 18 19  2  0
 19 20  1  0
 20 21  1  0
 22 21  1  1
 22 23  1  0
 22 24  1  0
 24 25  1  0
 26 20  2  0
 27 26  1  0
 28 24  2  0
M  END
$$$$
