PIY.pdb
     RDKit          3D

 28 29  0  0  1  0  0  0  0  0999 V2000
   27.5793  -23.0039  -18.4052 N   0  0  0  0  0  0  0  0  0  0  0  0
   28.7139  -23.8784  -18.1852 C   0  0  0  0  0  0  0  0  0  0  0  0
   28.3298  -24.8384  -17.0932 C   0  0  0  0  0  0  0  0  0  0  0  0
   26.8621  -24.5822  -16.8404 C   0  0  0  0  0  0  0  0  0  0  0  0
   26.7269  -23.1334  -17.2520 C   0  0  1  0  0  0  0  0  0  0  0  0
   27.1994  -22.2068  -16.2067 C   0  0  0  0  0  0  0  0  0  0  0  0
   28.2429  -22.4413  -15.5390 O   0  0  0  0  0  0  0  0  0  0  0  0
   27.1434  -17.4594  -17.1164 C   0  0  0  0  0  0  0  0  0  0  0  0
   27.7229  -18.3609  -16.0755 C   0  0  0  0  0  0  0  0  0  0  0  0
   26.7828  -18.7847  -15.0060 C   0  0  2  0  0  0  0  0  0  0  0  0
   27.1273  -18.0394  -13.7206 C   0  0  0  0  0  0  0  0  0  0  0  0
   26.7810  -20.2429  -14.6773 C   0  0  2  0  0  0  0  0  0  0  0  0
   26.5025  -20.9968  -15.8949 N   0  0  0  0  0  0  0  0  0  0  0  0
   25.9091  -20.6297  -13.5478 C   0  0  0  0  0  0  0  0  0  0  0  0
   24.6412  -20.7123  -13.6815 O   0  0  0  0  0  0  0  0  0  0  0  0
   27.4481  -17.9028   -6.1759 O   0  0  0  0  0  0  0  0  0  0  0  0
   27.1783  -18.8729   -7.1220 C   0  0  0  0  0  0  0  0  0  0  0  0
   26.1171  -19.7226   -6.9036 C   0  0  0  0  0  0  0  0  0  0  0  0
   25.8413  -20.7005   -7.8525 C   0  0  0  0  0  0  0  0  0  0  0  0
   26.5815  -20.8521   -8.9937 C   0  0  0  0  0  0  0  0  0  0  0  0
   26.2879  -21.8865  -10.0047 C   0  0  0  0  0  0  0  0  0  0  0  0
   25.5006  -21.3348  -11.1977 C   0  0  2  0  0  0  0  0  0  0  0  0
   26.4097  -20.9353  -12.2544 N   0  0  0  0  0  0  0  0  0  0  0  0
   24.7826  -20.1308  -10.7317 C   0  0  0  0  0  0  0  0  0  0  0  0
   23.5627  -20.2043  -10.0634 O   0  0  0  0  0  0  0  0  0  0  0  0
   27.6510  -19.9788   -9.1912 C   0  0  0  0  0  0  0  0  0  0  0  0
   27.9403  -19.0002   -8.2584 C   0  0  0  0  0  0  0  0  0  0  0  0
   25.2360  -18.9681  -10.9149 O   0  0  0  0  0  0  0  0  0  0  0  0
  1  5  1  0
  2  1  1  0
  2  3  1  0
  3  4  1  0
  5  4  1  0
  5  6  1  1
  6  7  2  0
  9  8  1  0
 10  9  1  0
 10 12  1  0
 10 11  1  1
 12 13  1  6
 13  6  1  0
 14 23  1  0
 14 12  1  0
 15 14  2  0
 16 17  1  0
 17 27  2  0
 17 18  1  0
 18 19  2  0
 19 20  1  0
 20 21  1  0
 22 21  1  1
 22 23  1  0
 22 24  1  0
 24 25  1  0
 26 20  2  0
 27 26  1  0
 28 24  2  0
M  END
$$$$
