PIY.pdb
     RDKit          3D

 28 29  0  0  1  0  0  0  0  0999 V2000
   28.9291  -21.4002  -16.3003 N   0  0  0  0  0  0  0  0  0  0  0  0
   28.1343  -21.0639  -17.4647 C   0  0  0  0  0  0  0  0  0  0  0  0
   27.6124  -19.6687  -17.2585 C   0  0  0  0  0  0  0  0  0  0  0  0
   28.3038  -19.1688  -16.0111 C   0  0  0  0  0  0  0  0  0  0  0  0
   28.5734  -20.4592  -15.2702 C   0  0  1  0  0  0  0  0  0  0  0  0
   27.3805  -20.9595  -14.5625 C   0  0  0  0  0  0  0  0  0  0  0  0
   26.6596  -21.8732  -15.0475 O   0  0  0  0  0  0  0  0  0  0  0  0
   25.3136  -21.2366   -8.7365 C   0  0  0  0  0  0  0  0  0  0  0  0
   25.0695  -21.4320  -10.1974 C   0  0  0  0  0  0  0  0  0  0  0  0
   26.1162  -20.8813  -11.0965 C   0  0  2  0  0  0  0  0  0  0  0  0
   26.3054  -19.3999  -10.7863 C   0  0  0  0  0  0  0  0  0  0  0  0
   25.8414  -20.9881  -12.5620 C   0  0  2  0  0  0  0  0  0  0  0  0
   26.9780  -20.4375  -13.2925 N   0  0  0  0  0  0  0  0  0  0  0  0
   24.5470  -20.4238  -12.9997 C   0  0  0  0  0  0  0  0  0  0  0  0
   24.4125  -19.1783  -13.2501 O   0  0  0  0  0  0  0  0  0  0  0  0
   17.1944  -18.9949  -17.3742 O   0  0  0  0  0  0  0  0  0  0  0  0
   18.3340  -19.5405  -16.8152 C   0  0  0  0  0  0  0  0  0  0  0  0
   19.5294  -18.8802  -16.9910 C   0  0  0  0  0  0  0  0  0  0  0  0
   20.6793  -19.4250  -16.4305 C   0  0  0  0  0  0  0  0  0  0  0  0
   20.6703  -20.5897  -15.7119 C   0  0  0  0  0  0  0  0  0  0  0  0
   21.8888  -21.1675  -15.1121 C   0  0  0  0  0  0  0  0  0  0  0  0
   22.1711  -20.6170  -13.7105 C   0  0  2  0  0  0  0  0  0  0  0  0
   23.3792  -21.2130  -13.1736 N   0  0  0  0  0  0  0  0  0  0  0  0
   21.0410  -21.0147  -12.8461 C   0  0  0  0  0  0  0  0  0  0  0  0
   19.9646  -20.1680  -12.5927 O   0  0  0  0  0  0  0  0  0  0  0  0
   19.4467  -21.2390  -15.5484 C   0  0  0  0  0  0  0  0  0  0  0  0
   18.2930  -20.7123  -16.0986 C   0  0  0  0  0  0  0  0  0  0  0  0
   20.9900  -22.1451  -12.2889 O   0  0  0  0  0  0  0  0  0  0  0  0
  1  5  1  0
  2  1  1  0
  2  3  1  0
  3  4  1  0
  5  4  1  0
  5  6  1  6
  6  7  2  0
  9  8  1  0
 10  9  1  0
 10 12  1  0
 10 11  1  1
 12 13  1  6
 13  6  1  0
 14 23  1  0
 14 12  1  0
 15 14  2  0
 16 17  1  0
 17 27  2  0
 17 18  1  0
 18 19  2  0
 19 20  1  0
 20 21  1  0
 22 21  1  6
 22 23  1  0
 22 24  1  0
 24 25  1  0
 26 20  2  0
 27 26  1  0
 28 24  2  0
M  END
$$$$
