PIY.pdb
     RDKit          3D

 28 29  0  0  1  0  0  0  0  0999 V2000
   28.5585  -21.7036  -19.0441 N   0  0  0  0  0  0  0  0  0  0  0  0
   29.5158  -21.5401  -17.9683 C   0  0  0  0  0  0  0  0  0  0  0  0
   29.2112  -22.5929  -16.9386 C   0  0  0  0  0  0  0  0  0  0  0  0
   28.1582  -23.4722  -17.5725 C   0  0  0  0  0  0  0  0  0  0  0  0
   27.4843  -22.5090  -18.5237 C   0  0  1  0  0  0  0  0  0  0  0  0
   26.5195  -21.6282  -17.8401 C   0  0  0  0  0  0  0  0  0  0  0  0
   26.7872  -20.4211  -17.5930 O   0  0  0  0  0  0  0  0  0  0  0  0
   21.8461  -20.7379  -19.7718 C   0  0  0  0  0  0  0  0  0  0  0  0
   23.0776  -20.6046  -18.9364 C   0  0  0  0  0  0  0  0  0  0  0  0
   23.0017  -21.2235  -17.5879 C   0  0  2  0  0  0  0  0  0  0  0  0
   21.9444  -20.4923  -16.7669 C   0  0  0  0  0  0  0  0  0  0  0  0
   24.2643  -21.2050  -16.7881 C   0  0  2  0  0  0  0  0  0  0  0  0
   25.2327  -22.0934  -17.4217 N   0  0  0  0  0  0  0  0  0  0  0  0
   24.0955  -21.4726  -15.3440 C   0  0  0  0  0  0  0  0  0  0  0  0
   23.7104  -22.6136  -14.9174 O   0  0  0  0  0  0  0  0  0  0  0  0
   24.2205  -20.8452   -6.5590 O   0  0  0  0  0  0  0  0  0  0  0  0
   24.4199  -20.6260   -7.9085 C   0  0  0  0  0  0  0  0  0  0  0  0
   25.5685  -21.1165   -8.4882 C   0  0  0  0  0  0  0  0  0  0  0  0
   25.7740  -20.8986   -9.8458 C   0  0  0  0  0  0  0  0  0  0  0  0
   24.8814  -20.2170  -10.6281 C   0  0  0  0  0  0  0  0  0  0  0  0
   25.0952  -19.9885  -12.0704 C   0  0  0  0  0  0  0  0  0  0  0  0
   24.1535  -20.8243  -12.9433 C   0  0  2  0  0  0  0  0  0  0  0  0
   24.3478  -20.4977  -14.3426 N   0  0  0  0  0  0  0  0  0  0  0  0
   22.7708  -20.4570  -12.5749 C   0  0  0  0  0  0  0  0  0  0  0  0
   21.9842  -21.2555  -11.7481 O   0  0  0  0  0  0  0  0  0  0  0  0
   23.7260  -19.7304  -10.0166 C   0  0  0  0  0  0  0  0  0  0  0  0
   23.5047  -19.9374   -8.6677 C   0  0  0  0  0  0  0  0  0  0  0  0
   22.2261  -19.3982  -12.9910 O   0  0  0  0  0  0  0  0  0  0  0  0
  1  5  1  0
  2  1  1  0
  2  3  1  0
  3  4  1  0
  5  4  1  0
  5  6  1  1
  6  7  2  0
  9  8  1  0
 10  9  1  0
 10 12  1  0
 10 11  1  1
 12 13  1  6
 13  6  1  0
 14 23  1  0
 14 12  1  0
 15 14  2  0
 16 17  1  0
 17 27  2  0
 17 18  1  0
 18 19  2  0
 19 20  1  0
 20 21  1  0
 22 21  1  1
 22 23  1  0
 22 24  1  0
 24 25  1  0
 26 20  2  0
 27 26  1  0
 28 24  2  0
M  END
$$$$
