PIY.pdb
     RDKit          3D

 28 29  0  0  1  0  0  0  0  0999 V2000
   27.9234  -19.8795  -16.1904 N   0  0  0  0  0  0  0  0  0  0  0  0
   29.3249  -20.0539  -15.8646 C   0  0  0  0  0  0  0  0  0  0  0  0
   29.6938  -21.4652  -16.2303 C   0  0  0  0  0  0  0  0  0  0  0  0
   28.4837  -22.0161  -16.9487 C   0  0  0  0  0  0  0  0  0  0  0  0
   27.3660  -21.1986  -16.3411 C   0  0  1  0  0  0  0  0  0  0  0  0
   26.9637  -21.6978  -15.0133 C   0  0  0  0  0  0  0  0  0  0  0  0
   26.5624  -22.8814  -14.8465 O   0  0  0  0  0  0  0  0  0  0  0  0
   29.1406  -20.8321  -10.2036 C   0  0  0  0  0  0  0  0  0  0  0  0
   28.3106  -21.3657  -11.3255 C   0  0  0  0  0  0  0  0  0  0  0  0
   26.9530  -20.7749  -11.4492 C   0  0  2  0  0  0  0  0  0  0  0  0
   26.1150  -21.2052  -10.2495 C   0  0  0  0  0  0  0  0  0  0  0  0
   26.1852  -21.1521  -12.6750 C   0  0  2  0  0  0  0  0  0  0  0  0
   27.0068  -20.8699  -13.8472 N   0  0  0  0  0  0  0  0  0  0  0  0
   24.8290  -20.5712  -12.7685 C   0  0  0  0  0  0  0  0  0  0  0  0
   24.6450  -19.3073  -12.7994 O   0  0  0  0  0  0  0  0  0  0  0  0
   16.2885  -19.4516  -14.5502 O   0  0  0  0  0  0  0  0  0  0  0  0
   17.5771  -19.9371  -14.4365 C   0  0  0  0  0  0  0  0  0  0  0  0
   17.8032  -21.0008  -13.5921 C   0  0  0  0  0  0  0  0  0  0  0  0
   19.0981  -21.4931  -13.4740 C   0  0  0  0  0  0  0  0  0  0  0  0
   20.1555  -20.9634  -14.1628 C   0  0  0  0  0  0  0  0  0  0  0  0
   21.5300  -21.4872  -14.0426 C   0  0  0  0  0  0  0  0  0  0  0  0
   22.3573  -20.7308  -12.9982 C   0  0  2  0  0  0  0  0  0  0  0  0
   23.6518  -21.3630  -12.8327 N   0  0  0  0  0  0  0  0  0  0  0  0
   21.6345  -20.8240  -11.7132 C   0  0  0  0  0  0  0  0  0  0  0  0
   20.7396  -19.8440  -11.2903 O   0  0  0  0  0  0  0  0  0  0  0  0
   19.8997  -19.8864  -15.0116 C   0  0  0  0  0  0  0  0  0  0  0  0
   18.6185  -19.3834  -15.1416 C   0  0  0  0  0  0  0  0  0  0  0  0
   21.7895  -21.7982  -10.9271 O   0  0  0  0  0  0  0  0  0  0  0  0
  1  5  1  0
  2  1  1  0
  2  3  1  0
  3  4  1  0
  5  4  1  0
  5  6  1  1
  6  7  2  0
  9  8  1  0
 10  9  1  0
 10 12  1  0
 10 11  1  1
 12 13  1  6
 13  6  1  0
 14 23  1  0
 14 12  1  0
 15 14  2  0
 16 17  1  0
 17 27  2  0
 17 18  1  0
 18 19  2  0
 19 20  1  0
 20 21  1  0
 22 21  1  6
 22 23  1  0
 22 24  1  0
 24 25  1  0
 26 20  2  0
 27 26  1  0
 28 24  2  0
M  END
$$$$
