LKY.pdb
     RDKit          3D

 30 30  0  0  1  0  0  0  0  0999 V2000
   22.1374  -25.5692  -14.9691 C   0  0  0  0  0  0  0  0  0  0  0  0
   23.0917  -24.4924  -15.3566 C   0  0  1  0  0  0  0  0  0  0  0  0
   23.5217  -23.7447  -14.1151 C   0  0  0  0  0  0  0  0  0  0  0  0
   24.3130  -24.9759  -16.0748 C   0  0  0  0  0  0  0  0  0  0  0  0
   25.3149  -23.9157  -16.3776 C   0  0  2  0  0  0  0  0  0  0  0  0
   24.8416  -22.8773  -17.2398 N   0  0  0  0  0  0  0  0  0  0  0  0
   26.5074  -24.5716  -16.9808 C   0  0  0  0  0  0  0  0  0  0  0  0
   26.4703  -24.9025  -18.2152 O   0  0  0  0  0  0  0  0  0  0  0  0
   27.6765  -24.8405  -16.2373 N   0  0  0  0  0  0  0  0  0  0  0  0
   28.8216  -25.4649  -16.8439 C   0  0  1  0  0  0  0  0  0  0  0  0
   30.1320  -25.0171  -16.2298 C   0  0  0  0  0  0  0  0  0  0  0  0
   31.2631  -25.7407  -16.9157 C   0  0  0  0  0  0  0  0  0  0  0  0
   32.5883  -25.3323  -16.2841 C   0  0  0  0  0  0  0  0  0  0  0  0
   33.6931  -25.8998  -17.1780 C   0  0  0  0  0  0  0  0  0  0  0  0
   34.9621  -25.4967  -16.6082 N   0  0  0  0  0  0  0  0  0  0  0  0
   28.7203  -26.9353  -16.5923 C   0  0  0  0  0  0  0  0  0  0  0  0
   28.2925  -27.3864  -15.4917 O   0  0  0  0  0  0  0  0  0  0  0  0
   25.7462  -34.8175  -17.0304 O   0  0  0  0  0  0  0  0  0  0  0  0
   26.1179  -33.4787  -17.1087 C   0  0  0  0  0  0  0  0  0  0  0  0
   26.1819  -32.6761  -15.9880 C   0  0  0  0  0  0  0  0  0  0  0  0
   26.5523  -31.3518  -16.0840 C   0  0  0  0  0  0  0  0  0  0  0  0
   26.8777  -30.7609  -17.3031 C   0  0  0  0  0  0  0  0  0  0  0  0
   27.2541  -29.3306  -17.3490 C   0  0  0  0  0  0  0  0  0  0  0  0
   28.7692  -29.2360  -17.4781 C   0  0  2  0  0  0  0  0  0  0  0  0
   29.1090  -27.8235  -17.6011 N   0  0  0  0  0  0  0  0  0  0  0  0
   29.3174  -30.0117  -18.5963 C   0  0  0  0  0  0  0  0  0  0  0  0
   29.8284  -31.2923  -18.5231 O   0  0  0  0  0  0  0  0  0  0  0  0
   26.8118  -31.5666  -18.4183 C   0  0  0  0  0  0  0  0  0  0  0  0
   26.4380  -32.9029  -18.3200 C   0  0  0  0  0  0  0  0  0  0  0  0
   29.3373  -29.4758  -19.7567 O   0  0  0  0  0  0  0  0  0  0  0  0
  2  4  1  0
  2  1  1  1
  3  2  1  0
  4  5  1  0
  5  7  1  0
  5  6  1  6
  7  8  2  0
  9  7  1  0
  9 10  1  0
 10 16  1  0
 10 11  1  1
 11 12  1  0
 12 13  1  0
 13 14  1  0
 15 14  1  0
 16 17  2  0
 18 19  1  0
 19 29  2  0
 19 20  1  0
 20 21  2  0
 21 22  1  0
 22 23  1  0
 24 23  1  6
 24 26  1  0
 25 24  1  0
 25 16  1  0
 26 30  2  0
 26 27  1  0
 28 22  2  0
 29 28  1  0
M  END
$$$$
