LKY.pdb
     RDKit          3D

 30 30  0  0  1  0  0  0  0  0999 V2000
   26.4285  -16.4065  -22.2981 C   0  0  0  0  0  0  0  0  0  0  0  0
   26.2639  -16.1648  -20.8369 C   0  0  1  0  0  0  0  0  0  0  0  0
   25.4787  -14.8891  -20.6339 C   0  0  0  0  0  0  0  0  0  0  0  0
   25.5809  -17.2736  -20.0986 C   0  0  0  0  0  0  0  0  0  0  0  0
   25.2686  -16.9698  -18.6739 C   0  0  2  0  0  0  0  0  0  0  0  0
   26.4012  -16.6055  -17.8802 N   0  0  0  0  0  0  0  0  0  0  0  0
   24.6010  -18.1639  -18.0870 C   0  0  0  0  0  0  0  0  0  0  0  0
   23.5331  -18.6045  -18.6347 O   0  0  0  0  0  0  0  0  0  0  0  0
   25.1061  -18.8259  -16.9474 N   0  0  0  0  0  0  0  0  0  0  0  0
   24.4575  -19.9924  -16.4111 C   0  0  1  0  0  0  0  0  0  0  0  0
   25.4162  -20.9270  -15.7023 C   0  0  0  0  0  0  0  0  0  0  0  0
   26.1931  -21.7025  -16.7361 C   0  0  0  0  0  0  0  0  0  0  0  0
   27.6536  -21.7975  -16.3121 C   0  0  0  0  0  0  0  0  0  0  0  0
   28.3655  -22.6343  -17.3774 C   0  0  0  0  0  0  0  0  0  0  0  0
   29.7885  -22.5363  -17.1266 N   0  0  0  0  0  0  0  0  0  0  0  0
   23.4798  -19.5308  -15.3783 C   0  0  0  0  0  0  0  0  0  0  0  0
   23.8137  -18.7098  -14.4770 O   0  0  0  0  0  0  0  0  0  0  0  0
   18.0619  -17.1105  -19.4109 O   0  0  0  0  0  0  0  0  0  0  0  0
   18.7939  -17.3318  -18.2481 C   0  0  0  0  0  0  0  0  0  0  0  0
   20.1526  -17.0976  -18.1897 C   0  0  0  0  0  0  0  0  0  0  0  0
   20.8619  -17.3222  -17.0294 C   0  0  0  0  0  0  0  0  0  0  0  0
   20.2518  -17.7917  -15.8681 C   0  0  0  0  0  0  0  0  0  0  0  0
   21.0654  -18.0291  -14.6551 C   0  0  0  0  0  0  0  0  0  0  0  0
   21.1954  -19.5332  -14.4501 C   0  0  2  0  0  0  0  0  0  0  0  0
   22.1705  -20.0224  -15.4174 N   0  0  0  0  0  0  0  0  0  0  0  0
   19.9251  -20.2582  -14.5658 C   0  0  0  0  0  0  0  0  0  0  0  0
   19.6081  -21.1921  -15.5319 O   0  0  0  0  0  0  0  0  0  0  0  0
   18.8956  -18.0239  -15.9323 C   0  0  0  0  0  0  0  0  0  0  0  0
   18.1809  -17.7968  -17.1039 C   0  0  0  0  0  0  0  0  0  0  0  0
   19.0089  -20.0214  -13.7063 O   0  0  0  0  0  0  0  0  0  0  0  0
  2  4  1  0
  2  1  1  6
  3  2  1  0
  4  5  1  0
  5  7  1  0
  5  6  1  1
  7  8  2  0
  9  7  1  0
  9 10  1  0
 10 16  1  0
 10 11  1  1
 11 12  1  0
 12 13  1  0
 13 14  1  0
 15 14  1  0
 16 17  2  0
 18 19  1  0
 19 29  2  0
 19 20  1  0
 20 21  2  0
 21 22  1  0
 22 23  1  0
 24 23  1  6
 24 26  1  0
 25 24  1  0
 25 16  1  0
 26 30  2  0
 26 27  1  0
 28 22  2  0
 29 28  1  0
M  END
$$$$
