LKY.pdb
     RDKit          3D

 30 30  0  0  1  0  0  0  0  0999 V2000
   20.5618  -17.1660  -18.7100 C   0  0  0  0  0  0  0  0  0  0  0  0
   19.6564  -16.3536  -17.8494 C   0  0  1  0  0  0  0  0  0  0  0  0
   18.9680  -17.2655  -16.8596 C   0  0  0  0  0  0  0  0  0  0  0  0
   20.3388  -15.2538  -17.0971 C   0  0  0  0  0  0  0  0  0  0  0  0
   20.7340  -14.0843  -17.9312 C   0  0  2  0  0  0  0  0  0  0  0  0
   21.5584  -14.4053  -19.0550 N   0  0  0  0  0  0  0  0  0  0  0  0
   21.4342  -13.1096  -17.0505 C   0  0  0  0  0  0  0  0  0  0  0  0
   20.9148  -12.8172  -15.9195 O   0  0  0  0  0  0  0  0  0  0  0  0
   22.6509  -12.4977  -17.4209 N   0  0  0  0  0  0  0  0  0  0  0  0
   23.3041  -11.5494  -16.5589 C   0  0  1  0  0  0  0  0  0  0  0  0
   24.7512  -11.3082  -16.9366 C   0  0  0  0  0  0  0  0  0  0  0  0
   25.5653  -12.5131  -16.5379 C   0  0  0  0  0  0  0  0  0  0  0  0
   27.0332  -12.2692  -16.8663 C   0  0  0  0  0  0  0  0  0  0  0  0
   27.7926  -13.5273  -16.4395 C   0  0  0  0  0  0  0  0  0  0  0  0
   29.1719  -13.3612  -16.8486 N   0  0  0  0  0  0  0  0  0  0  0  0
   22.6041  -10.2378  -16.7178 C   0  0  0  0  0  0  0  0  0  0  0  0
   22.3681   -9.7524  -17.8608 O   0  0  0  0  0  0  0  0  0  0  0  0
   17.3442   -3.6446  -16.9875 O   0  0  0  0  0  0  0  0  0  0  0  0
   18.0634   -4.8325  -16.8956 C   0  0  0  0  0  0  0  0  0  0  0  0
   17.5588   -5.9381  -16.2419 C   0  0  0  0  0  0  0  0  0  0  0  0
   18.2851   -7.1069  -16.1607 C   0  0  0  0  0  0  0  0  0  0  0  0
   19.5516   -7.2322  -16.7275 C   0  0  0  0  0  0  0  0  0  0  0  0
   20.2924   -8.5064  -16.5967 C   0  0  0  0  0  0  0  0  0  0  0  0
   21.5140   -8.2644  -15.7189 C   0  0  2  0  0  0  0  0  0  0  0  0
   22.2052   -9.5398  -15.5726 N   0  0  0  0  0  0  0  0  0  0  0  0
   21.1965   -7.6812  -14.4106 C   0  0  0  0  0  0  0  0  0  0  0  0
   21.1375   -6.3339  -14.1147 O   0  0  0  0  0  0  0  0  0  0  0  0
   20.0503   -6.1253  -17.3784 C   0  0  0  0  0  0  0  0  0  0  0  0
   19.3164   -4.9465  -17.4598 C   0  0  0  0  0  0  0  0  0  0  0  0
   20.9488   -8.4709  -13.4363 O   0  0  0  0  0  0  0  0  0  0  0  0
  2  4  1  0
  2  1  1  1
  3  2  1  0
  4  5  1  0
  5  7  1  0
  5  6  1  6
  7  8  2  0
  9  7  1  0
  9 10  1  0
 10 16  1  0
 10 11  1  6
 11 12  1  0
 12 13  1  0
 13 14  1  0
 15 14  1  0
 16 17  2  0
 18 19  1  0
 19 29  2  0
 19 20  1  0
 20 21  2  0
 21 22  1  0
 22 23  1  0
 24 23  1  6
 24 26  1  0
 25 24  1  0
 25 16  1  0
 26 30  2  0
 26 27  1  0
 28 22  2  0
 29 28  1  0
M  END
$$$$
