LKY.pdb
     RDKit          3D

 30 30  0  0  1  0  0  0  0  0999 V2000
   21.2171  -13.5505  -22.9867 C   0  0  0  0  0  0  0  0  0  0  0  0
   21.1986  -13.6498  -21.5000 C   0  0  1  0  0  0  0  0  0  0  0  0
   22.0186  -14.8468  -21.0759 C   0  0  0  0  0  0  0  0  0  0  0  0
   21.7156  -12.4364  -20.7917 C   0  0  0  0  0  0  0  0  0  0  0  0
   21.5450  -12.4626  -19.3118 C   0  0  2  0  0  0  0  0  0  0  0  0
   20.6599  -13.4783  -18.8318 N   0  0  0  0  0  0  0  0  0  0  0  0
   21.0590  -11.1223  -18.8834 C   0  0  0  0  0  0  0  0  0  0  0  0
   21.7498  -10.0903  -19.1867 O   0  0  0  0  0  0  0  0  0  0  0  0
   19.8625  -10.9522  -18.1542 N   0  0  0  0  0  0  0  0  0  0  0  0
   19.3957   -9.6448  -17.7775 C   0  0  1  0  0  0  0  0  0  0  0  0
   17.8847   -9.5361  -17.7752 C   0  0  0  0  0  0  0  0  0  0  0  0
   17.4998   -8.1147  -17.4510 C   0  0  0  0  0  0  0  0  0  0  0  0
   15.9830   -7.9741  -17.4929 C   0  0  0  0  0  0  0  0  0  0  0  0
   15.6732   -6.4953  -17.2501 C   0  0  0  0  0  0  0  0  0  0  0  0
   14.2465   -6.3169  -17.4231 N   0  0  0  0  0  0  0  0  0  0  0  0
   19.8372   -9.3955  -16.3710 C   0  0  0  0  0  0  0  0  0  0  0  0
   19.6578  -10.2564  -15.4629 O   0  0  0  0  0  0  0  0  0  0  0  0
   23.3033   -2.8391  -17.6359 O   0  0  0  0  0  0  0  0  0  0  0  0
   23.0757   -4.0143  -16.9260 C   0  0  0  0  0  0  0  0  0  0  0  0
   22.8480   -4.0081  -15.5650 C   0  0  0  0  0  0  0  0  0  0  0  0
   22.6241   -5.1818  -14.8778 C   0  0  0  0  0  0  0  0  0  0  0  0
   22.6159   -6.4216  -15.5135 C   0  0  0  0  0  0  0  0  0  0  0  0
   22.3850   -7.6510  -14.7231 C   0  0  0  0  0  0  0  0  0  0  0  0
   20.8871   -7.9276  -14.6908 C   0  0  2  0  0  0  0  0  0  0  0  0
   20.4610   -8.1819  -16.0618 N   0  0  0  0  0  0  0  0  0  0  0  0
   20.0992   -6.8494  -14.0830 C   0  0  0  0  0  0  0  0  0  0  0  0
   19.2648   -5.9765  -14.7523 O   0  0  0  0  0  0  0  0  0  0  0  0
   22.8441   -6.4218  -16.8719 C   0  0  0  0  0  0  0  0  0  0  0  0
   23.0697   -5.2366  -17.5642 C   0  0  0  0  0  0  0  0  0  0  0  0
   20.1747   -6.6793  -12.8182 O   0  0  0  0  0  0  0  0  0  0  0  0
  2  4  1  0
  2  1  1  6
  3  2  1  0
  4  5  1  0
  5  7  1  0
  5  6  1  6
  7  8  2  0
  9  7  1  0
  9 10  1  0
 10 16  1  0
 10 11  1  1
 11 12  1  0
 12 13  1  0
 13 14  1  0
 15 14  1  0
 16 17  2  0
 18 19  1  0
 19 29  2  0
 19 20  1  0
 20 21  2  0
 21 22  1  0
 22 23  1  0
 24 23  1  6
 24 26  1  0
 25 24  1  0
 25 16  1  0
 26 30  2  0
 26 27  1  0
 28 22  2  0
 29 28  1  0
M  END
$$$$
