LKY.pdb
     RDKit          3D

 30 30  0  0  1  0  0  0  0  0999 V2000
   26.6998  -14.3858  -18.4717 C   0  0  0  0  0  0  0  0  0  0  0  0
   26.8244  -15.8013  -18.0229 C   0  0  1  0  0  0  0  0  0  0  0  0
   28.2896  -16.1502  -17.8941 C   0  0  0  0  0  0  0  0  0  0  0  0
   26.1418  -16.1019  -16.7249 C   0  0  0  0  0  0  0  0  0  0  0  0
   26.2295  -17.5251  -16.2931 C   0  0  2  0  0  0  0  0  0  0  0  0
   26.9874  -18.3671  -17.1662 N   0  0  0  0  0  0  0  0  0  0  0  0
   24.8426  -18.0495  -16.1605 C   0  0  0  0  0  0  0  0  0  0  0  0
   23.9584  -17.3179  -15.5972 O   0  0  0  0  0  0  0  0  0  0  0  0
   24.4707  -19.3257  -16.6348 N   0  0  0  0  0  0  0  0  0  0  0  0
   23.1587  -19.8618  -16.3894 C   0  0  1  0  0  0  0  0  0  0  0  0
   22.8265  -21.0400  -17.2819 C   0  0  0  0  0  0  0  0  0  0  0  0
   21.3809  -21.4149  -17.0745 C   0  0  0  0  0  0  0  0  0  0  0  0
   21.0250  -22.5934  -17.9726 C   0  0  0  0  0  0  0  0  0  0  0  0
   19.5245  -22.8390  -17.7992 C   0  0  0  0  0  0  0  0  0  0  0  0
   19.1449  -23.8807  -18.7310 N   0  0  0  0  0  0  0  0  0  0  0  0
   23.1369  -20.3780  -14.9864 C   0  0  0  0  0  0  0  0  0  0  0  0
   24.1454  -20.9469  -14.4791 O   0  0  0  0  0  0  0  0  0  0  0  0
   22.3380  -21.2788   -6.5271 O   0  0  0  0  0  0  0  0  0  0  0  0
   22.3267  -20.8538   -7.8523 C   0  0  0  0  0  0  0  0  0  0  0  0
   23.4832  -20.7816   -8.6016 C   0  0  0  0  0  0  0  0  0  0  0  0
   23.4535  -20.3585   -9.9131 C   0  0  0  0  0  0  0  0  0  0  0  0
   22.2684  -19.9859  -10.5439 C   0  0  0  0  0  0  0  0  0  0  0  0
   22.2977  -19.5253  -11.9497 C   0  0  0  0  0  0  0  0  0  0  0  0
   21.9505  -20.7047  -12.8495 C   0  0  2  0  0  0  0  0  0  0  0  0
   21.9726  -20.2243  -14.2260 N   0  0  0  0  0  0  0  0  0  0  0  0
   20.6649  -21.3350  -12.5293 C   0  0  0  0  0  0  0  0  0  0  0  0
   20.4730  -22.3961  -11.6671 O   0  0  0  0  0  0  0  0  0  0  0  0
   21.1172  -20.0597   -9.7911 C   0  0  0  0  0  0  0  0  0  0  0  0
   21.1486  -20.4870   -8.4677 C   0  0  0  0  0  0  0  0  0  0  0  0
   19.6085  -20.8802  -13.0873 O   0  0  0  0  0  0  0  0  0  0  0  0
  2  4  1  0
  2  1  1  1
  3  2  1  0
  4  5  1  0
  5  7  1  0
  5  6  1  6
  7  8  2  0
  9  7  1  0
  9 10  1  0
 10 16  1  0
 10 11  1  6
 11 12  1  0
 12 13  1  0
 13 14  1  0
 15 14  1  0
 16 17  2  0
 18 19  1  0
 19 29  2  0
 19 20  1  0
 20 21  2  0
 21 22  1  0
 22 23  1  0
 24 23  1  1
 24 26  1  0
 25 24  1  0
 25 16  1  0
 26 30  2  0
 26 27  1  0
 28 22  2  0
 29 28  1  0
M  END
$$$$
