LKY.pdb
     RDKit          3D

 30 30  0  0  1  0  0  0  0  0999 V2000
   26.1821  -20.6468   -8.6862 C   0  0  0  0  0  0  0  0  0  0  0  0
   26.1162  -21.4560   -9.9356 C   0  0  1  0  0  0  0  0  0  0  0  0
   24.8811  -22.3266   -9.8944 C   0  0  0  0  0  0  0  0  0  0  0  0
   26.0946  -20.6486  -11.1961 C   0  0  0  0  0  0  0  0  0  0  0  0
   25.9819  -21.4524  -12.4455 C   0  0  2  0  0  0  0  0  0  0  0  0
   27.1842  -22.1232  -12.8330 N   0  0  0  0  0  0  0  0  0  0  0  0
   25.5344  -20.5431  -13.5360 C   0  0  0  0  0  0  0  0  0  0  0  0
   26.3051  -19.5896  -13.8984 O   0  0  0  0  0  0  0  0  0  0  0  0
   24.2895  -20.6975  -14.1828 N   0  0  0  0  0  0  0  0  0  0  0  0
   23.9104  -19.8558  -15.2859 C   0  0  1  0  0  0  0  0  0  0  0  0
   23.9188  -20.5846  -16.6140 C   0  0  0  0  0  0  0  0  0  0  0  0
   23.5812  -19.6044  -17.7089 C   0  0  0  0  0  0  0  0  0  0  0  0
   23.6167  -20.3129  -19.0575 C   0  0  0  0  0  0  0  0  0  0  0  0
   23.3995  -19.2369  -20.1237 C   0  0  0  0  0  0  0  0  0  0  0  0
   23.3686  -19.9009  -21.4103 N   0  0  0  0  0  0  0  0  0  0  0  0
   22.4994  -19.4180  -15.0557 C   0  0  0  0  0  0  0  0  0  0  0  0
   21.5972  -20.2452  -14.7401 O   0  0  0  0  0  0  0  0  0  0  0  0
   15.4774  -14.4863  -13.5785 O   0  0  0  0  0  0  0  0  0  0  0  0
   16.7858  -14.9360  -13.7292 C   0  0  0  0  0  0  0  0  0  0  0  0
   17.6454  -14.3734  -14.6504 C   0  0  0  0  0  0  0  0  0  0  0  0
   18.9384  -14.8314  -14.7861 C   0  0  0  0  0  0  0  0  0  0  0  0
   19.4397  -15.8739  -14.0096 C   0  0  0  0  0  0  0  0  0  0  0  0
   20.8316  -16.3348  -14.2085 C   0  0  0  0  0  0  0  0  0  0  0  0
   20.7992  -17.6328  -15.0055 C   0  0  2  0  0  0  0  0  0  0  0  0
   22.1794  -18.0630  -15.1945 N   0  0  0  0  0  0  0  0  0  0  0  0
   20.0988  -17.5212  -16.2899 C   0  0  0  0  0  0  0  0  0  0  0  0
   18.7600  -17.7767  -16.5099 O   0  0  0  0  0  0  0  0  0  0  0  0
   18.5771  -16.4318  -13.0919 C   0  0  0  0  0  0  0  0  0  0  0  0
   17.2725  -15.9686  -12.9559 C   0  0  0  0  0  0  0  0  0  0  0  0
   20.7665  -17.1569  -17.3174 O   0  0  0  0  0  0  0  0  0  0  0  0
  2  4  1  0
  2  1  1  1
  3  2  1  0
  4  5  1  0
  5  7  1  0
  5  6  1  6
  7  8  2  0
  9  7  1  0
  9 10  1  0
 10 16  1  0
 10 11  1  6
 11 12  1  0
 12 13  1  0
 13 14  1  0
 15 14  1  0
 16 17  2  0
 18 19  1  0
 19 29  2  0
 19 20  1  0
 20 21  2  0
 21 22  1  0
 22 23  1  0
 24 23  1  6
 24 26  1  0
 25 24  1  0
 25 16  1  0
 26 30  2  0
 26 27  1  0
 28 22  2  0
 29 28  1  0
M  END
$$$$
