LKY.pdb
     RDKit          3D

 30 30  0  0  1  0  0  0  0  0999 V2000
   28.8470  -18.7830   -6.0737 C   0  0  0  0  0  0  0  0  0  0  0  0
   27.9685  -19.9863   -6.0539 C   0  0  1  0  0  0  0  0  0  0  0  0
   27.2674  -20.0627   -4.7168 C   0  0  0  0  0  0  0  0  0  0  0  0
   26.9389  -20.0196   -7.1401 C   0  0  0  0  0  0  0  0  0  0  0  0
   27.3194  -20.8305   -8.3306 C   0  0  2  0  0  0  0  0  0  0  0  0
   28.6984  -20.7381   -8.6986 N   0  0  0  0  0  0  0  0  0  0  0  0
   26.4609  -20.4028   -9.4692 C   0  0  0  0  0  0  0  0  0  0  0  0
   26.2731  -19.1533   -9.6640 O   0  0  0  0  0  0  0  0  0  0  0  0
   25.8477  -21.3288  -10.3402 N   0  0  0  0  0  0  0  0  0  0  0  0
   25.2299  -20.9048  -11.5680 C   0  0  1  0  0  0  0  0  0  0  0  0
   25.6208  -21.7645  -12.7525 C   0  0  0  0  0  0  0  0  0  0  0  0
   26.8411  -21.1668  -13.4058 C   0  0  0  0  0  0  0  0  0  0  0  0
   27.1689  -21.9383  -14.6784 C   0  0  0  0  0  0  0  0  0  0  0  0
   28.4282  -21.2984  -15.2668 C   0  0  0  0  0  0  0  0  0  0  0  0
   28.7619  -22.0269  -16.4731 N   0  0  0  0  0  0  0  0  0  0  0  0
   23.7516  -21.0588  -11.4064 C   0  0  0  0  0  0  0  0  0  0  0  0
   23.2597  -21.9907  -10.7082 O   0  0  0  0  0  0  0  0  0  0  0  0
   15.1795  -19.4253  -11.9059 O   0  0  0  0  0  0  0  0  0  0  0  0
   16.5648  -19.2924  -11.9126 C   0  0  0  0  0  0  0  0  0  0  0  0
   17.2797  -19.1994  -13.0893 C   0  0  0  0  0  0  0  0  0  0  0  0
   18.6518  -19.0680  -13.0771 C   0  0  0  0  0  0  0  0  0  0  0  0
   19.3805  -19.0226  -11.8905 C   0  0  0  0  0  0  0  0  0  0  0  0
   20.8540  -18.8954  -11.9375 C   0  0  0  0  0  0  0  0  0  0  0  0
   21.4589  -20.2931  -11.8938 C   0  0  2  0  0  0  0  0  0  0  0  0
   22.9019  -20.1485  -12.0444 N   0  0  0  0  0  0  0  0  0  0  0  0
   20.9104  -21.2071  -12.9019 C   0  0  0  0  0  0  0  0  0  0  0  0
   21.3435  -21.3314  -14.2069 O   0  0  0  0  0  0  0  0  0  0  0  0
   18.6617  -19.1161  -10.7192 C   0  0  0  0  0  0  0  0  0  0  0  0
   17.2771  -19.2486  -10.7328 C   0  0  0  0  0  0  0  0  0  0  0  0
   19.9399  -21.9694  -12.5682 O   0  0  0  0  0  0  0  0  0  0  0  0
  2  4  1  0
  2  1  1  1
  3  2  1  0
  4  5  1  0
  5  7  1  0
  5  6  1  6
  7  8  2  0
  9  7  1  0
  9 10  1  0
 10 16  1  0
 10 11  1  6
 11 12  1  0
 12 13  1  0
 13 14  1  0
 15 14  1  0
 16 17  2  0
 18 19  1  0
 19 29  2  0
 19 20  1  0
 20 21  2  0
 21 22  1  0
 22 23  1  0
 24 23  1  6
 24 26  1  0
 25 24  1  0
 25 16  1  0
 26 30  2  0
 26 27  1  0
 28 22  2  0
 29 28  1  0
M  END
$$$$
