LKY.pdb
     RDKit          3D

 30 30  0  0  1  0  0  0  0  0999 V2000
   28.4089  -18.1924   -4.4202 C   0  0  0  0  0  0  0  0  0  0  0  0
   28.3382  -19.4364   -5.2374 C   0  0  1  0  0  0  0  0  0  0  0  0
   28.0757  -20.6119   -4.3240 C   0  0  0  0  0  0  0  0  0  0  0  0
   27.2923  -19.4155   -6.3082 C   0  0  0  0  0  0  0  0  0  0  0  0
   27.2185  -20.6577   -7.1274 C   0  0  2  0  0  0  0  0  0  0  0  0
   28.4378  -21.4024   -7.1917 N   0  0  0  0  0  0  0  0  0  0  0  0
   26.7842  -20.2762   -8.4993 C   0  0  0  0  0  0  0  0  0  0  0  0
   25.9654  -19.3044   -8.6386 O   0  0  0  0  0  0  0  0  0  0  0  0
   27.2451  -20.9502   -9.6505 N   0  0  0  0  0  0  0  0  0  0  0  0
   26.8069  -20.5686  -10.9663 C   0  0  1  0  0  0  0  0  0  0  0  0
   27.7088  -21.0947  -12.0640 C   0  0  0  0  0  0  0  0  0  0  0  0
   27.2100  -20.5813  -13.3911 C   0  0  0  0  0  0  0  0  0  0  0  0
   28.0986  -21.1107  -14.5101 C   0  0  0  0  0  0  0  0  0  0  0  0
   27.6738  -20.3839  -15.7880 C   0  0  0  0  0  0  0  0  0  0  0  0
   28.6042  -20.7615  -16.8316 N   0  0  0  0  0  0  0  0  0  0  0  0
   25.4647  -21.1874  -11.1925 C   0  0  0  0  0  0  0  0  0  0  0  0
   25.2484  -22.4044  -10.9276 O   0  0  0  0  0  0  0  0  0  0  0  0
   16.9097  -22.2987  -11.6996 O   0  0  0  0  0  0  0  0  0  0  0  0
   18.1829  -21.7572  -11.5493 C   0  0  0  0  0  0  0  0  0  0  0  0
   18.7095  -20.8735  -12.4690 C   0  0  0  0  0  0  0  0  0  0  0  0
   19.9725  -20.3467  -12.3041 C   0  0  0  0  0  0  0  0  0  0  0  0
   20.7746  -20.6748  -11.2131 C   0  0  0  0  0  0  0  0  0  0  0  0
   22.1289  -20.0904  -11.0947 C   0  0  0  0  0  0  0  0  0  0  0  0
   23.1024  -20.9728  -11.8660 C   0  0  2  0  0  0  0  0  0  0  0  0
   24.4323  -20.3963  -11.7081 N   0  0  0  0  0  0  0  0  0  0  0  0
   22.7599  -21.1334  -13.2836 C   0  0  0  0  0  0  0  0  0  0  0  0
   23.1602  -20.3070  -14.3146 O   0  0  0  0  0  0  0  0  0  0  0  0
   20.2440  -21.5575  -10.2985 C   0  0  0  0  0  0  0  0  0  0  0  0
   18.9692  -22.0883  -10.4660 C   0  0  0  0  0  0  0  0  0  0  0  0
   22.0226  -22.1209  -13.6233 O   0  0  0  0  0  0  0  0  0  0  0  0
  2  4  1  0
  2  1  1  1
  3  2  1  0
  4  5  1  0
  5  7  1  0
  5  6  1  6
  7  8  2  0
  9  7  1  0
  9 10  1  0
 10 16  1  0
 10 11  1  6
 11 12  1  0
 12 13  1  0
 13 14  1  0
 15 14  1  0
 16 17  2  0
 18 19  1  0
 19 29  2  0
 19 20  1  0
 20 21  2  0
 21 22  1  0
 22 23  1  0
 24 23  1  6
 24 26  1  0
 25 24  1  0
 25 16  1  0
 26 30  2  0
 26 27  1  0
 28 22  2  0
 29 28  1  0
M  END
$$$$
