LKY.pdb
     RDKit          3D

 30 30  0  0  1  0  0  0  0  0999 V2000
   25.3977  -12.9980  -15.5163 C   0  0  0  0  0  0  0  0  0  0  0  0
   23.9612  -13.2804  -15.7938 C   0  0  1  0  0  0  0  0  0  0  0  0
   23.3267  -13.8705  -14.5551 C   0  0  0  0  0  0  0  0  0  0  0  0
   23.1660  -12.0857  -16.2198 C   0  0  0  0  0  0  0  0  0  0  0  0
   21.7388  -12.3719  -16.5374 C   0  0  2  0  0  0  0  0  0  0  0  0
   21.5408  -13.2845  -17.6207 N   0  0  0  0  0  0  0  0  0  0  0  0
   21.0678  -11.0770  -16.8361 C   0  0  0  0  0  0  0  0  0  0  0  0
   21.4785  -10.3848  -17.8293 O   0  0  0  0  0  0  0  0  0  0  0  0
   19.9946  -10.5877  -16.0609 N   0  0  0  0  0  0  0  0  0  0  0  0
   19.2886   -9.3908  -16.4321 C   0  0  1  0  0  0  0  0  0  0  0  0
   17.8150   -9.4434  -16.0844 C   0  0  0  0  0  0  0  0  0  0  0  0
   17.0271   -9.7017  -17.3438 C   0  0  0  0  0  0  0  0  0  0  0  0
   16.3234  -11.0492  -17.2387 C   0  0  0  0  0  0  0  0  0  0  0  0
   15.5784  -11.2586  -18.5588 C   0  0  0  0  0  0  0  0  0  0  0  0
   14.9414  -12.5577  -18.4961 N   0  0  0  0  0  0  0  0  0  0  0  0
   19.8670   -8.2616  -15.6410 C   0  0  0  0  0  0  0  0  0  0  0  0
   20.0957   -8.3751  -14.4030 O   0  0  0  0  0  0  0  0  0  0  0  0
   22.5398   -0.0374  -14.0912 O   0  0  0  0  0  0  0  0  0  0  0  0
   22.3327   -1.2972  -14.6450 C   0  0  0  0  0  0  0  0  0  0  0  0
   21.5993   -1.4707  -15.8010 C   0  0  0  0  0  0  0  0  0  0  0  0
   21.4043   -2.7262  -16.3357 C   0  0  0  0  0  0  0  0  0  0  0  0
   21.9310   -3.8725  -15.7443 C   0  0  0  0  0  0  0  0  0  0  0  0
   21.6774   -5.1966  -16.3540 C   0  0  0  0  0  0  0  0  0  0  0  0
   20.6353   -5.9221  -15.5120 C   0  0  2  0  0  0  0  0  0  0  0  0
   20.1583   -7.0578  -16.2919 N   0  0  0  0  0  0  0  0  0  0  0  0
   19.5214   -5.0683  -15.0842 C   0  0  0  0  0  0  0  0  0  0  0  0
   18.4113   -4.7433  -15.8379 O   0  0  0  0  0  0  0  0  0  0  0  0
   22.6619   -3.6933  -14.5905 C   0  0  0  0  0  0  0  0  0  0  0  0
   22.8580   -2.4258  -14.0521 C   0  0  0  0  0  0  0  0  0  0  0  0
   19.5572   -4.5644  -13.9099 O   0  0  0  0  0  0  0  0  0  0  0  0
  2  4  1  0
  2  1  1  1
  3  2  1  0
  4  5  1  0
  5  7  1  0
  5  6  1  6
  7  8  2  0
  9  7  1  0
  9 10  1  0
 10 16  1  0
 10 11  1  1
 11 12  1  0
 12 13  1  0
 13 14  1  0
 15 14  1  0
 16 17  2  0
 18 19  1  0
 19 29  2  0
 19 20  1  0
 20 21  2  0
 21 22  1  0
 22 23  1  0
 24 23  1  6
 24 26  1  0
 25 24  1  0
 25 16  1  0
 26 30  2  0
 26 27  1  0
 28 22  2  0
 29 28  1  0
M  END
$$$$
