LKY.pdb
     RDKit          3D

 30 30  0  0  1  0  0  0  0  0999 V2000
   26.7503  -13.0516  -16.7932 C   0  0  0  0  0  0  0  0  0  0  0  0
   25.3061  -12.7094  -16.9260 C   0  0  1  0  0  0  0  0  0  0  0  0
   24.4767  -13.9038  -16.5130 C   0  0  0  0  0  0  0  0  0  0  0  0
   24.8743  -11.5222  -16.1228 C   0  0  0  0  0  0  0  0  0  0  0  0
   23.4685  -11.0903  -16.3610 C   0  0  2  0  0  0  0  0  0  0  0  0
   22.8703  -11.6329  -17.5414 N   0  0  0  0  0  0  0  0  0  0  0  0
   23.4505   -9.6030  -16.4211 C   0  0  0  0  0  0  0  0  0  0  0  0
   24.1173   -8.9430  -15.5527 O   0  0  0  0  0  0  0  0  0  0  0  0
   22.7231   -8.8970  -17.4033 N   0  0  0  0  0  0  0  0  0  0  0  0
   22.6671   -7.4597  -17.4035 C   0  0  1  0  0  0  0  0  0  0  0  0
   22.1200   -6.8910  -18.6967 C   0  0  0  0  0  0  0  0  0  0  0  0
   22.1837   -5.3860  -18.6316 C   0  0  0  0  0  0  0  0  0  0  0  0
   21.5794   -4.7939  -19.8990 C   0  0  0  0  0  0  0  0  0  0  0  0
   21.6918   -3.2733  -19.7691 C   0  0  0  0  0  0  0  0  0  0  0  0
   21.0550   -2.6903  -20.9318 N   0  0  0  0  0  0  0  0  0  0  0  0
   21.7167   -7.0446  -16.3265 C   0  0  0  0  0  0  0  0  0  0  0  0
   20.5974   -7.6140  -16.1816 O   0  0  0  0  0  0  0  0  0  0  0  0
   17.6552   -5.8605   -9.0934 O   0  0  0  0  0  0  0  0  0  0  0  0
   18.5633   -6.0926  -10.1221 C   0  0  0  0  0  0  0  0  0  0  0  0
   19.8822   -5.6972  -10.0295 C   0  0  0  0  0  0  0  0  0  0  0  0
   20.7681   -5.9355  -11.0582 C   0  0  0  0  0  0  0  0  0  0  0  0
   20.3834   -6.5803  -12.2318 C   0  0  0  0  0  0  0  0  0  0  0  0
   21.3736   -6.7964  -13.3100 C   0  0  0  0  0  0  0  0  0  0  0  0
   21.2208   -5.6789  -14.3342 C   0  0  2  0  0  0  0  0  0  0  0  0
   22.0813   -6.0038  -15.4655 N   0  0  0  0  0  0  0  0  0  0  0  0
   21.5241   -4.3449  -13.8043 C   0  0  0  0  0  0  0  0  0  0  0  0
   20.6034   -3.4269  -13.3397 O   0  0  0  0  0  0  0  0  0  0  0  0
   19.0658   -6.9724  -12.3189 C   0  0  0  0  0  0  0  0  0  0  0  0
   18.1728   -6.7315  -11.2800 C   0  0  0  0  0  0  0  0  0  0  0  0
   22.7459   -3.9716  -13.7584 O   0  0  0  0  0  0  0  0  0  0  0  0
  2  4  1  0
  2  1  1  1
  3  2  1  0
  4  5  1  0
  5  7  1  0
  5  6  1  6
  7  8  2  0
  9  7  1  0
  9 10  1  0
 10 16  1  0
 10 11  1  6
 11 12  1  0
 12 13  1  0
 13 14  1  0
 15 14  1  0
 16 17  2  0
 18 19  1  0
 19 29  2  0
 19 20  1  0
 20 21  2  0
 21 22  1  0
 22 23  1  0
 24 23  1  1
 24 26  1  0
 25 24  1  0
 25 16  1  0
 26 30  2  0
 26 27  1  0
 28 22  2  0
 29 28  1  0
M  END
$$$$
