LKY.pdb
     RDKit          3D

 30 30  0  0  1  0  0  0  0  0999 V2000
   21.0024  -14.2775  -15.2960 C   0  0  0  0  0  0  0  0  0  0  0  0
   22.2437  -13.8496  -16.0008 C   0  0  1  0  0  0  0  0  0  0  0  0
   22.0629  -14.0571  -17.4872 C   0  0  0  0  0  0  0  0  0  0  0  0
   22.6344  -12.4251  -15.7573 C   0  0  0  0  0  0  0  0  0  0  0  0
   23.8310  -11.9712  -16.5201 C   0  0  2  0  0  0  0  0  0  0  0  0
   25.0821  -12.4046  -15.9793 N   0  0  0  0  0  0  0  0  0  0  0  0
   23.7948  -10.4845  -16.5864 C   0  0  0  0  0  0  0  0  0  0  0  0
   24.4253   -9.8126  -15.7002 O   0  0  0  0  0  0  0  0  0  0  0  0
   23.0888   -9.7918  -17.5933 N   0  0  0  0  0  0  0  0  0  0  0  0
   23.0774   -8.3544  -17.6449 C   0  0  1  0  0  0  0  0  0  0  0  0
   22.5580   -7.8156  -18.9621 C   0  0  0  0  0  0  0  0  0  0  0  0
   22.5831   -6.3087  -18.9150 C   0  0  0  0  0  0  0  0  0  0  0  0
   22.0271   -5.7477  -20.2181 C   0  0  0  0  0  0  0  0  0  0  0  0
   22.0655   -4.2232  -20.0906 C   0  0  0  0  0  0  0  0  0  0  0  0
   23.4364   -3.8049  -20.2976 N   0  0  0  0  0  0  0  0  0  0  0  0
   22.1323   -7.8722  -16.5915 C   0  0  0  0  0  0  0  0  0  0  0  0
   21.0139   -8.4310  -16.4055 O   0  0  0  0  0  0  0  0  0  0  0  0
   18.1104   -6.3390   -9.4088 O   0  0  0  0  0  0  0  0  0  0  0  0
   19.0587   -6.5450  -10.4064 C   0  0  0  0  0  0  0  0  0  0  0  0
   18.9964   -7.6321  -11.2541 C   0  0  0  0  0  0  0  0  0  0  0  0
   19.9443   -7.8204  -12.2370 C   0  0  0  0  0  0  0  0  0  0  0  0
   21.0026   -6.9338  -12.4241 C   0  0  0  0  0  0  0  0  0  0  0  0
   21.9999   -7.1937  -13.4859 C   0  0  0  0  0  0  0  0  0  0  0  0
   21.6291   -6.3626  -14.7078 C   0  0  2  0  0  0  0  0  0  0  0  0
   22.5011   -6.7793  -15.7995 N   0  0  0  0  0  0  0  0  0  0  0  0
   21.7130   -4.9147  -14.4863 C   0  0  0  0  0  0  0  0  0  0  0  0
   20.6696   -4.0868  -14.1229 O   0  0  0  0  0  0  0  0  0  0  0  0
   21.0599   -5.8507  -11.5749 C   0  0  0  0  0  0  0  0  0  0  0  0
   20.1026   -5.6618  -10.5836 C   0  0  0  0  0  0  0  0  0  0  0  0
   22.8450   -4.3404  -14.6384 O   0  0  0  0  0  0  0  0  0  0  0  0
  2  4  1  0
  2  1  1  1
  3  2  1  0
  4  5  1  0
  5  7  1  0
  5  6  1  1
  7  8  2  0
  9  7  1  0
  9 10  1  0
 10 16  1  0
 10 11  1  6
 11 12  1  0
 12 13  1  0
 13 14  1  0
 15 14  1  0
 16 17  2  0
 18 19  1  0
 19 29  2  0
 19 20  1  0
 20 21  2  0
 21 22  1  0
 22 23  1  0
 24 23  1  1
 24 26  1  0
 25 24  1  0
 25 16  1  0
 26 30  2  0
 26 27  1  0
 28 22  2  0
 29 28  1  0
M  END
$$$$
