GHA.pdb
     RDKit          3D

 20 20  0  0  1  0  0  0  0  0999 V2000
    6.0263  -18.8780   19.8399 N   0  0  0  0  0  0  0  0  0  0  0  0
    5.8804  -17.6665   20.6232 C   0  0  0  0  0  0  0  0  0  0  0  0
    7.2408  -17.0923   20.8717 C   0  0  0  0  0  0  0  0  0  0  0  0
    8.2768  -17.7670   20.6114 O   0  0  0  0  0  0  0  0  0  0  0  0
    7.4305  -15.7982   21.3971 N   0  0  0  0  0  0  0  0  0  0  0  0
    8.7236  -15.1519   21.5497 C   0  0  1  0  0  0  0  0  0  0  0  0
    8.5946  -13.8026   20.9081 C   0  0  0  0  0  0  0  0  0  0  0  0
    8.3565  -13.8354   19.4604 C   0  0  0  0  0  0  0  0  0  0  0  0
    7.2151  -13.2476   18.9084 C   0  0  0  0  0  0  0  0  0  0  0  0
    7.2547  -13.4243   17.5868 N   0  0  0  0  0  0  0  0  0  0  0  0
    8.3742  -14.1001   17.2767 C   0  0  0  0  0  0  0  0  0  0  0  0
    9.0217  -14.3354   18.4314 N   0  0  0  0  0  0  0  0  0  0  0  0
    9.0023  -15.0823   23.0071 C   0  0  0  0  0  0  0  0  0  0  0  0
   10.0621  -14.5982   23.4872 O   0  0  0  0  0  0  0  0  0  0  0  0
    7.1309  -14.9419   26.1441 C   0  0  0  0  0  0  0  0  0  0  0  0
    8.3118  -15.4982   25.3726 C   0  0  2  0  0  0  0  0  0  0  0  0
    8.0580  -15.5735   23.9593 N   0  0  0  0  0  0  0  0  0  0  0  0
    8.7341  -16.8097   25.9346 C   0  0  0  0  0  0  0  0  0  0  0  0
    8.6711  -17.7995   25.1509 O   0  0  0  0  0  0  0  0  0  0  0  0
    9.1743  -16.9843   27.2242 O   0  0  0  0  0  0  0  0  0  0  0  0
  2  1  1  0
  2  3  1  0
  3  4  2  0
  5  3  1  0
  5  6  1  0
  6 13  1  0
  6  7  1  1
  8  9  2  0
  8  7  1  0
 10  9  1  0
 11 12  2  0
 11 10  1  0
 12  8  1  0
 13 14  2  0
 16 15  1  1
 16 18  1  0
 17 16  1  0
 17 13  1  0
 18 20  1  0
 19 18  2  0
M  END
$$$$
