GHA.pdb
     RDKit          3D

 20 20  0  0  1  0  0  0  0  0999 V2000
   11.0242  -17.8846   13.6461 N   0  0  0  0  0  0  0  0  0  0  0  0
   10.7431  -18.5982   14.8767 C   0  0  0  0  0  0  0  0  0  0  0  0
   10.8041  -17.6278   16.0155 C   0  0  0  0  0  0  0  0  0  0  0  0
   11.8152  -16.8861   16.1700 O   0  0  0  0  0  0  0  0  0  0  0  0
    9.7595  -17.4955   16.9525 N   0  0  0  0  0  0  0  0  0  0  0  0
    9.8060  -16.6345   18.1228 C   0  0  1  0  0  0  0  0  0  0  0  0
    8.4790  -15.9385   18.1824 C   0  0  0  0  0  0  0  0  0  0  0  0
    8.2321  -14.9999   17.0817 C   0  0  0  0  0  0  0  0  0  0  0  0
    8.6332  -13.6644   17.1750 C   0  0  0  0  0  0  0  0  0  0  0  0
    8.2867  -13.0467   16.0446 N   0  0  0  0  0  0  0  0  0  0  0  0
    7.6821  -13.9348   15.2372 C   0  0  0  0  0  0  0  0  0  0  0  0
    7.6633  -15.1091   15.8918 N   0  0  0  0  0  0  0  0  0  0  0  0
   10.0595  -17.5117   19.2945 C   0  0  0  0  0  0  0  0  0  0  0  0
    9.4638  -18.6062   19.4820 O   0  0  0  0  0  0  0  0  0  0  0  0
   12.8454  -17.9854   21.6986 C   0  0  0  0  0  0  0  0  0  0  0  0
   11.3703  -18.0494   21.3531 C   0  0  2  0  0  0  0  0  0  0  0  0
   11.0157  -17.1475   20.2908 N   0  0  0  0  0  0  0  0  0  0  0  0
   10.5378  -17.8360   22.5679 C   0  0  0  0  0  0  0  0  0  0  0  0
    9.8463  -16.7781   22.5923 O   0  0  0  0  0  0  0  0  0  0  0  0
   10.4904  -18.7097   23.6270 O   0  0  0  0  0  0  0  0  0  0  0  0
  2  1  1  0
  2  3  1  0
  3  4  2  0
  5  3  1  0
  5  6  1  0
  6 13  1  0
  6  7  1  1
  8  9  2  0
  8  7  1  0
 10  9  1  0
 11 12  2  0
 11 10  1  0
 12  8  1  0
 13 14  2  0
 16 15  1  1
 16 18  1  0
 17 16  1  0
 17 13  1  0
 18 20  1  0
 19 18  2  0
M  END
$$$$
