GHA.pdb
     RDKit          3D

 20 20  0  0  1  0  0  0  0  0999 V2000
    6.3975  -19.9372   19.9144 N   0  0  0  0  0  0  0  0  0  0  0  0
    6.1226  -18.6420   20.5053 C   0  0  0  0  0  0  0  0  0  0  0  0
    7.3887  -17.8425   20.5126 C   0  0  0  0  0  0  0  0  0  0  0  0
    8.4961  -18.3964   20.2616 O   0  0  0  0  0  0  0  0  0  0  0  0
    7.4089  -16.4614   20.7936 N   0  0  0  0  0  0  0  0  0  0  0  0
    8.5970  -15.6258   20.7364 C   0  0  1  0  0  0  0  0  0  0  0  0
    8.1290  -14.2617   20.3254 C   0  0  0  0  0  0  0  0  0  0  0  0
    7.9546  -14.0864   18.8788 C   0  0  0  0  0  0  0  0  0  0  0  0
    8.3093  -15.1014   17.9860 C   0  0  0  0  0  0  0  0  0  0  0  0
    8.0471  -14.6768   16.7490 N   0  0  0  0  0  0  0  0  0  0  0  0
    7.5405  -13.4340   16.8192 C   0  0  0  0  0  0  0  0  0  0  0  0
    7.4962  -13.1026   18.1216 N   0  0  0  0  0  0  0  0  0  0  0  0
    9.2084  -15.6512   22.0900 C   0  0  0  0  0  0  0  0  0  0  0  0
    8.5559  -15.4469   23.1485 O   0  0  0  0  0  0  0  0  0  0  0  0
   10.7156  -17.3152   24.2760 C   0  0  0  0  0  0  0  0  0  0  0  0
   11.1811  -16.0568   23.5696 C   0  0  2  0  0  0  0  0  0  0  0  0
   10.6014  -15.9152   22.2613 N   0  0  0  0  0  0  0  0  0  0  0  0
   12.6674  -15.9966   23.5311 C   0  0  0  0  0  0  0  0  0  0  0  0
   13.1972  -16.0050   22.3834 O   0  0  0  0  0  0  0  0  0  0  0  0
   13.4606  -15.9345   24.6510 O   0  0  0  0  0  0  0  0  0  0  0  0
  2  1  1  0
  2  3  1  0
  3  4  2  0
  5  3  1  0
  5  6  1  0
  6 13  1  0
  6  7  1  1
  8  9  2  0
  8  7  1  0
 10  9  1  0
 11 12  2  0
 11 10  1  0
 12  8  1  0
 13 14  2  0
 16 15  1  6
 16 18  1  0
 17 16  1  0
 17 13  1  0
 18 20  1  0
 19 18  2  0
M  END
$$$$
