GHA.pdb
     RDKit          3D

 20 20  0  0  1  0  0  0  0  0999 V2000
    6.6145  -19.1900   13.8136 N   0  0  0  0  0  0  0  0  0  0  0  0
    6.6109  -19.2640   15.2617 C   0  0  0  0  0  0  0  0  0  0  0  0
    7.8504  -18.6002   15.7765 C   0  0  0  0  0  0  0  0  0  0  0  0
    8.7439  -18.2052   14.9753 O   0  0  0  0  0  0  0  0  0  0  0  0
    8.0783  -18.3868   17.1510 N   0  0  0  0  0  0  0  0  0  0  0  0
    9.2752  -17.7735   17.7027 C   0  0  1  0  0  0  0  0  0  0  0  0
    8.8240  -16.5175   18.3865 C   0  0  0  0  0  0  0  0  0  0  0  0
    8.4232  -15.4376   17.4772 C   0  0  0  0  0  0  0  0  0  0  0  0
    9.3542  -14.4979   17.0263 C   0  0  0  0  0  0  0  0  0  0  0  0
    8.7233  -13.6412   16.2217 N   0  0  0  0  0  0  0  0  0  0  0  0
    7.4301  -13.9981   16.1429 C   0  0  0  0  0  0  0  0  0  0  0  0
    7.2777  -15.0893   16.9135 N   0  0  0  0  0  0  0  0  0  0  0  0
    9.8774  -18.7623   18.6334 C   0  0  0  0  0  0  0  0  0  0  0  0
    9.2012  -19.4551   19.4401 O   0  0  0  0  0  0  0  0  0  0  0  0
   13.2124  -20.4671   19.0091 C   0  0  0  0  0  0  0  0  0  0  0  0
   11.8772  -19.9669   19.5251 C   0  0  2  0  0  0  0  0  0  0  0  0
   11.2884  -18.9812   18.6594 N   0  0  0  0  0  0  0  0  0  0  0  0
   12.0064  -19.4757   20.9238 C   0  0  0  0  0  0  0  0  0  0  0  0
   11.8100  -18.2398   21.1021 O   0  0  0  0  0  0  0  0  0  0  0  0
   12.3192  -20.2806   21.9922 O   0  0  0  0  0  0  0  0  0  0  0  0
  2  1  1  0
  2  3  1  0
  3  4  2  0
  5  3  1  0
  5  6  1  0
  6 13  1  0
  6  7  1  1
  8  9  2  0
  8  7  1  0
 10  9  1  0
 11 12  2  0
 11 10  1  0
 12  8  1  0
 13 14  2  0
 16 15  1  6
 16 18  1  0
 17 16  1  0
 17 13  1  0
 18 20  1  0
 19 18  2  0
M  END
$$$$
