GHA.pdb
     RDKit          3D

 20 20  0  0  1  0  0  0  0  0999 V2000
    8.1269  -12.7620   17.5889 N   0  0  0  0  0  0  0  0  0  0  0  0
    9.1740  -13.3540   18.3986 C   0  0  0  0  0  0  0  0  0  0  0  0
    8.5377  -14.2054   19.4534 C   0  0  0  0  0  0  0  0  0  0  0  0
    7.2868  -14.1780   19.6285 O   0  0  0  0  0  0  0  0  0  0  0  0
    9.2857  -15.0619   20.2863 N   0  0  0  0  0  0  0  0  0  0  0  0
    8.7132  -15.9338   21.2988 C   0  0  1  0  0  0  0  0  0  0  0  0
    9.3002  -17.2929   21.0600 C   0  0  0  0  0  0  0  0  0  0  0  0
    8.6749  -18.0442   19.9654 C   0  0  0  0  0  0  0  0  0  0  0  0
    7.6415  -17.4834   19.2100 C   0  0  0  0  0  0  0  0  0  0  0  0
    7.2652  -18.3764   18.2934 N   0  0  0  0  0  0  0  0  0  0  0  0
    8.0169  -19.4813   18.4355 C   0  0  0  0  0  0  0  0  0  0  0  0
    8.8618  -19.2511   19.4558 N   0  0  0  0  0  0  0  0  0  0  0  0
    9.0808  -15.3616   22.6194 C   0  0  0  0  0  0  0  0  0  0  0  0
   10.2491  -14.9916   22.9128 O   0  0  0  0  0  0  0  0  0  0  0  0
    7.3323  -13.8438   25.5449 C   0  0  0  0  0  0  0  0  0  0  0  0
    8.4518  -14.6652   24.9356 C   0  0  2  0  0  0  0  0  0  0  0  0
    8.1024  -15.1990   23.6469 N   0  0  0  0  0  0  0  0  0  0  0  0
    8.8953  -15.7277   25.8783 C   0  0  0  0  0  0  0  0  0  0  0  0
    8.7112  -16.9204   25.5023 O   0  0  0  0  0  0  0  0  0  0  0  0
    9.4762  -15.4760   27.0975 O   0  0  0  0  0  0  0  0  0  0  0  0
  2  1  1  0
  2  3  1  0
  3  4  2  0
  5  3  1  0
  5  6  1  0
  6 13  1  0
  6  7  1  1
  8  9  2  0
  8  7  1  0
 10  9  1  0
 11 12  2  0
 11 10  1  0
 12  8  1  0
 13 14  2  0
 16 15  1  1
 16 18  1  0
 17 16  1  0
 17 13  1  0
 18 20  1  0
 19 18  2  0
M  END
$$$$
