GHA.pdb
     RDKit          3D

 20 20  0  0  1  0  0  0  0  0999 V2000
    6.4123  -18.4705   18.7726 N   0  0  0  0  0  0  0  0  0  0  0  0
    5.8746  -18.3721   20.1157 C   0  0  0  0  0  0  0  0  0  0  0  0
    6.8809  -17.6811   20.9830 C   0  0  0  0  0  0  0  0  0  0  0  0
    8.0414  -18.1605   21.1222 O   0  0  0  0  0  0  0  0  0  0  0  0
    6.5907  -16.4869   21.6731 N   0  0  0  0  0  0  0  0  0  0  0  0
    7.5375  -15.7667   22.5086 C   0  0  1  0  0  0  0  0  0  0  0  0
    7.3065  -14.3094   22.2411 C   0  0  0  0  0  0  0  0  0  0  0  0
    7.8270  -13.8352   20.9535 C   0  0  0  0  0  0  0  0  0  0  0  0
    6.9623  -13.3746   19.9568 C   0  0  0  0  0  0  0  0  0  0  0  0
    7.6974  -13.0101   18.9051 N   0  0  0  0  0  0  0  0  0  0  0  0
    8.9933  -13.2201   19.1927 C   0  0  0  0  0  0  0  0  0  0  0  0
    9.0412  -13.7202   20.4399 N   0  0  0  0  0  0  0  0  0  0  0  0
    7.2555  -16.1552   23.9144 C   0  0  0  0  0  0  0  0  0  0  0  0
    6.1618  -15.9162   24.4928 O   0  0  0  0  0  0  0  0  0  0  0  0
    7.2225  -18.6962   25.9415 C   0  0  0  0  0  0  0  0  0  0  0  0
    7.9236  -17.3531   26.0034 C   0  0  2  0  0  0  0  0  0  0  0  0
    8.2359  -16.8361   24.6985 N   0  0  0  0  0  0  0  0  0  0  0  0
    9.1264  -17.4295   26.8761 C   0  0  0  0  0  0  0  0  0  0  0  0
   10.2154  -17.0463   26.3611 O   0  0  0  0  0  0  0  0  0  0  0  0
    9.1043  -17.8830   28.1727 O   0  0  0  0  0  0  0  0  0  0  0  0
  2  1  1  0
  2  3  1  0
  3  4  2  0
  5  3  1  0
  5  6  1  0
  6 13  1  0
  6  7  1  1
  8  9  2  0
  8  7  1  0
 10  9  1  0
 11 12  2  0
 11 10  1  0
 12  8  1  0
 13 14  2  0
 16 15  1  6
 16 18  1  0
 17 16  1  0
 17 13  1  0
 18 20  1  0
 19 18  2  0
M  END
$$$$
