GHA.pdb
     RDKit          3D

 20 20  0  0  1  0  0  0  0  0999 V2000
   10.5381  -18.1026   17.3342 N   0  0  0  0  0  0  0  0  0  0  0  0
    9.8390  -18.4901   18.5441 C   0  0  0  0  0  0  0  0  0  0  0  0
    9.8679  -17.3390   19.5013 C   0  0  0  0  0  0  0  0  0  0  0  0
   10.9365  -16.6924   19.6917 O   0  0  0  0  0  0  0  0  0  0  0  0
    8.7291  -16.9272   20.2227 N   0  0  0  0  0  0  0  0  0  0  0  0
    8.7280  -15.8862   21.2373 C   0  0  1  0  0  0  0  0  0  0  0  0
    7.5125  -15.0481   20.9747 C   0  0  0  0  0  0  0  0  0  0  0  0
    7.5358  -14.3216   19.6999 C   0  0  0  0  0  0  0  0  0  0  0  0
    8.1450  -13.0678   19.6005 C   0  0  0  0  0  0  0  0  0  0  0  0
    8.0195  -12.6435   18.3422 N   0  0  0  0  0  0  0  0  0  0  0  0
    7.3557  -13.5761   17.6381 C   0  0  0  0  0  0  0  0  0  0  0  0
    7.0756  -14.5810   18.4865 N   0  0  0  0  0  0  0  0  0  0  0  0
    8.6941  -16.5687   22.5563 C   0  0  0  0  0  0  0  0  0  0  0  0
    7.8895  -17.4977   22.8348 O   0  0  0  0  0  0  0  0  0  0  0  0
   10.7656  -16.4712   25.7409 C   0  0  0  0  0  0  0  0  0  0  0  0
    9.5890  -16.8676   24.8704 C   0  0  2  0  0  0  0  0  0  0  0  0
    9.5953  -16.1952   23.5994 N   0  0  0  0  0  0  0  0  0  0  0  0
    8.3072  -16.6702   25.6000 C   0  0  0  0  0  0  0  0  0  0  0  0
    7.6083  -15.6792   25.2432 O   0  0  0  0  0  0  0  0  0  0  0  0
    7.8665  -17.4909   26.6097 O   0  0  0  0  0  0  0  0  0  0  0  0
  2  1  1  0
  2  3  1  0
  3  4  2  0
  5  3  1  0
  5  6  1  0
  6 13  1  0
  6  7  1  6
  8  9  2  0
  8  7  1  0
 10  9  1  0
 11 12  2  0
 11 10  1  0
 12  8  1  0
 13 14  2  0
 16 15  1  1
 16 18  1  0
 17 16  1  0
 17 13  1  0
 18 20  1  0
 19 18  2  0
M  END
$$$$
