GHA.pdb
     RDKit          3D

 20 20  0  0  1  0  0  0  0  0999 V2000
    9.8159  -18.3252   16.9567 N   0  0  0  0  0  0  0  0  0  0  0  0
    9.0332  -18.4005   18.1750 C   0  0  0  0  0  0  0  0  0  0  0  0
    9.5941  -17.4255   19.1634 C   0  0  0  0  0  0  0  0  0  0  0  0
   10.7397  -16.9232   18.9863 O   0  0  0  0  0  0  0  0  0  0  0  0
    8.8878  -17.0273   20.3164 N   0  0  0  0  0  0  0  0  0  0  0  0
    9.3959  -16.1021   21.3159 C   0  0  1  0  0  0  0  0  0  0  0  0
    8.3550  -15.0327   21.4628 C   0  0  0  0  0  0  0  0  0  0  0  0
    8.1018  -14.2557   20.2438 C   0  0  0  0  0  0  0  0  0  0  0  0
    8.7655  -13.0477   20.0131 C   0  0  0  0  0  0  0  0  0  0  0  0
    8.3484  -12.5615   18.8431 N   0  0  0  0  0  0  0  0  0  0  0  0
    7.4472  -13.4109   18.3211 C   0  0  0  0  0  0  0  0  0  0  0  0
    7.3181  -14.4277   19.1914 N   0  0  0  0  0  0  0  0  0  0  0  0
    9.6098  -16.8850   22.5600 C   0  0  0  0  0  0  0  0  0  0  0  0
    8.8096  -17.7686   22.9683 O   0  0  0  0  0  0  0  0  0  0  0  0
   12.4824  -18.0386   24.4688 C   0  0  0  0  0  0  0  0  0  0  0  0
   11.0580  -17.5193   24.4954 C   0  0  2  0  0  0  0  0  0  0  0  0
   10.7628  -16.6685   23.3744 N   0  0  0  0  0  0  0  0  0  0  0  0
   10.7672  -16.8531   25.7938 C   0  0  0  0  0  0  0  0  0  0  0  0
   10.4836  -15.6225   25.7389 O   0  0  0  0  0  0  0  0  0  0  0  0
   10.7929  -17.4965   27.0073 O   0  0  0  0  0  0  0  0  0  0  0  0
  2  1  1  0
  2  3  1  0
  3  4  2  0
  5  3  1  0
  5  6  1  0
  6 13  1  0
  6  7  1  1
  8  9  2  0
  8  7  1  0
 10  9  1  0
 11 12  2  0
 11 10  1  0
 12  8  1  0
 13 14  2  0
 16 15  1  1
 16 18  1  0
 17 16  1  0
 17 13  1  0
 18 20  1  0
 19 18  2  0
M  END
$$$$
