GHA.pdb
     RDKit          3D

 20 20  0  0  1  0  0  0  0  0999 V2000
    7.2771  -19.5403   18.6634 N   0  0  0  0  0  0  0  0  0  0  0  0
    6.8919  -18.9102   19.9112 C   0  0  0  0  0  0  0  0  0  0  0  0
    7.9855  -17.9783   20.3326 C   0  0  0  0  0  0  0  0  0  0  0  0
    9.1410  -18.0806   19.8320 O   0  0  0  0  0  0  0  0  0  0  0  0
    7.7858  -16.9617   21.2884 N   0  0  0  0  0  0  0  0  0  0  0  0
    8.8119  -16.0306   21.7282 C   0  0  1  0  0  0  0  0  0  0  0  0
    8.1150  -14.7254   21.9719 C   0  0  0  0  0  0  0  0  0  0  0  0
    7.8167  -13.9567   20.7579 C   0  0  0  0  0  0  0  0  0  0  0  0
    8.2752  -14.3835   19.5086 C   0  0  0  0  0  0  0  0  0  0  0  0
    7.8629  -13.5058   18.5928 N   0  0  0  0  0  0  0  0  0  0  0  0
    7.1614  -12.5391   19.2087 C   0  0  0  0  0  0  0  0  0  0  0  0
    7.1501  -12.8386   20.5195 N   0  0  0  0  0  0  0  0  0  0  0  0
    9.4207  -16.6067   22.9547 C   0  0  0  0  0  0  0  0  0  0  0  0
    8.7678  -16.8436   24.0061 O   0  0  0  0  0  0  0  0  0  0  0  0
   11.8974  -18.9569   23.8606 C   0  0  0  0  0  0  0  0  0  0  0  0
   11.3950  -17.5571   24.1563 C   0  0  2  0  0  0  0  0  0  0  0  0
   10.8114  -16.9280   23.0024 N   0  0  0  0  0  0  0  0  0  0  0  0
   12.4752  -16.7286   24.7572 C   0  0  0  0  0  0  0  0  0  0  0  0
   12.9654  -15.8281   24.0177 O   0  0  0  0  0  0  0  0  0  0  0  0
   12.9460  -16.8952   26.0370 O   0  0  0  0  0  0  0  0  0  0  0  0
  2  1  1  0
  2  3  1  0
  3  4  2  0
  5  3  1  0
  5  6  1  0
  6 13  1  0
  6  7  1  1
  8  9  2  0
  8  7  1  0
 10  9  1  0
 11 12  2  0
 11 10  1  0
 12  8  1  0
 13 14  2  0
 16 15  1  6
 16 18  1  0
 17 16  1  0
 17 13  1  0
 18 20  1  0
 19 18  2  0
M  END
$$$$
