GHA.pdb
     RDKit          3D

 20 20  0  0  1  0  0  0  0  0999 V2000
    7.9850  -13.0303   17.1143 N   0  0  0  0  0  0  0  0  0  0  0  0
    8.9691  -13.6563   17.9758 C   0  0  0  0  0  0  0  0  0  0  0  0
    8.2508  -14.4603   19.0150 C   0  0  0  0  0  0  0  0  0  0  0  0
    6.9893  -14.4384   19.0812 O   0  0  0  0  0  0  0  0  0  0  0  0
    8.9306  -15.2647   19.9517 N   0  0  0  0  0  0  0  0  0  0  0  0
    8.2813  -16.0561   20.9838 C   0  0  1  0  0  0  0  0  0  0  0  0
    8.5519  -17.4910   20.6424 C   0  0  0  0  0  0  0  0  0  0  0  0
    7.6863  -18.0425   19.5935 C   0  0  0  0  0  0  0  0  0  0  0  0
    8.1348  -18.1435   18.2737 C   0  0  0  0  0  0  0  0  0  0  0  0
    7.1542  -18.6738   17.5413 N   0  0  0  0  0  0  0  0  0  0  0  0
    6.1014  -18.9137   18.3413 C   0  0  0  0  0  0  0  0  0  0  0  0
    6.4527  -18.5214   19.5784 N   0  0  0  0  0  0  0  0  0  0  0  0
    8.8733  -15.6420   22.2818 C   0  0  0  0  0  0  0  0  0  0  0  0
   10.1106  -15.4826   22.4592 O   0  0  0  0  0  0  0  0  0  0  0  0
    7.6446  -14.2243   25.5402 C   0  0  0  0  0  0  0  0  0  0  0  0
    8.6119  -15.0236   24.6890 C   0  0  2  0  0  0  0  0  0  0  0  0
    8.0470  -15.3983   23.4209 N   0  0  0  0  0  0  0  0  0  0  0  0
    9.1234  -16.2007   25.4420 C   0  0  0  0  0  0  0  0  0  0  0  0
    9.6453  -15.9599   26.5678 O   0  0  0  0  0  0  0  0  0  0  0  0
    9.0550  -17.4932   24.9813 O   0  0  0  0  0  0  0  0  0  0  0  0
  2  1  1  0
  2  3  1  0
  3  4  2  0
  5  3  1  0
  5  6  1  0
  6 13  1  0
  6  7  1  6
  8  9  2  0
  8  7  1  0
 10  9  1  0
 11 12  2  0
 11 10  1  0
 12  8  1  0
 13 14  2  0
 16 15  1  1
 16 18  1  0
 17 16  1  0
 17 13  1  0
 18 20  1  0
 19 18  2  0
M  END
$$$$
