GHA.pdb
     RDKit          3D

 20 20  0  0  1  0  0  0  0  0999 V2000
    8.2748  -12.9671   17.4871 N   0  0  0  0  0  0  0  0  0  0  0  0
    9.0418  -13.7956   18.3969 C   0  0  0  0  0  0  0  0  0  0  0  0
    8.1211  -14.3221   19.4540 C   0  0  0  0  0  0  0  0  0  0  0  0
    6.9310  -13.9052   19.5307 O   0  0  0  0  0  0  0  0  0  0  0  0
    8.5267  -15.2885   20.3965 N   0  0  0  0  0  0  0  0  0  0  0  0
    7.7187  -15.7346   21.5196 C   0  0  1  0  0  0  0  0  0  0  0  0
    7.8261  -17.2301   21.5436 C   0  0  0  0  0  0  0  0  0  0  0  0
    7.0628  -17.9139   20.4931 C   0  0  0  0  0  0  0  0  0  0  0  0
    6.3897  -17.1866   19.5076 C   0  0  0  0  0  0  0  0  0  0  0  0
    5.7865  -18.0525   18.6917 N   0  0  0  0  0  0  0  0  0  0  0  0
    6.0486  -19.2996   19.1183 C   0  0  0  0  0  0  0  0  0  0  0  0
    6.8237  -19.1845   20.2109 N   0  0  0  0  0  0  0  0  0  0  0  0
    8.2755  -15.0885   22.7358 C   0  0  0  0  0  0  0  0  0  0  0  0
    9.5108  -14.9480   22.9414 O   0  0  0  0  0  0  0  0  0  0  0  0
    7.0045  -12.9968   25.5874 C   0  0  0  0  0  0  0  0  0  0  0  0
    7.9442  -14.0122   24.9667 C   0  0  2  0  0  0  0  0  0  0  0  0
    7.4152  -14.5822   23.7572 N   0  0  0  0  0  0  0  0  0  0  0  0
    8.3174  -15.0563   25.9591 C   0  0  0  0  0  0  0  0  0  0  0  0
    7.9289  -16.2322   25.7057 O   0  0  0  0  0  0  0  0  0  0  0  0
    9.0412  -14.8051   27.0995 O   0  0  0  0  0  0  0  0  0  0  0  0
  2  1  1  0
  2  3  1  0
  3  4  2  0
  5  3  1  0
  5  6  1  0
  6 13  1  0
  6  7  1  1
  8  9  2  0
  8  7  1  0
 10  9  1  0
 11 12  2  0
 11 10  1  0
 12  8  1  0
 13 14  2  0
 16 15  1  1
 16 18  1  0
 17 16  1  0
 17 13  1  0
 18 20  1  0
 19 18  2  0
M  END
$$$$
