RWF.pdb
     RDKit          3D

 37 39  0  0  1  0  0  0  0  0999 V2000
   29.5345  -24.1634  -17.3089 N   0  0  0  0  0  0  0  0  0  0  0  0
   29.7199  -22.7708  -17.5158 C   0  0  0  0  0  0  0  0  0  0  0  0
   29.7609  -22.3287  -18.7321 N   0  0  0  0  0  0  0  0  0  0  0  0
   29.8621  -21.8497  -16.4382 N   0  0  0  0  0  0  0  0  0  0  0  0
   29.7864  -22.3151  -15.0532 C   0  0  0  0  0  0  0  0  0  0  0  0
   28.3641  -22.4602  -14.5991 C   0  0  0  0  0  0  0  0  0  0  0  0
   28.0499  -21.6417  -13.3617 C   0  0  0  0  0  0  0  0  0  0  0  0
   26.5840  -21.8371  -13.0705 C   0  0  2  0  0  0  0  0  0  0  0  0
   25.8364  -20.8318  -13.7693 N   0  0  0  0  0  0  0  0  0  0  0  0
   26.2505  -21.8034  -11.6408 C   0  0  0  0  0  0  0  0  0  0  0  0
   26.5921  -22.7572  -10.8733 O   0  0  0  0  0  0  0  0  0  0  0  0
   29.8623  -21.3151  -18.9407 N   0  0  0  0  0  0  0  0  0  0  0  0
   25.5426  -20.7371  -11.0213 C   0  0  1  0  0  0  0  0  0  0  0  0
   25.1850  -20.7334   -9.6151 C   0  0  0  0  0  0  0  0  0  0  0  0
   25.7739  -19.4743   -9.0121 C   0  0  0  0  0  0  0  0  0  0  0  0
   27.1452  -19.7072   -8.4844 C   0  0  0  0  0  0  0  0  0  0  0  0
   28.2915  -19.9738   -9.2169 N   0  0  0  0  0  0  0  0  0  0  0  0
   29.3291  -20.1217   -8.3463 C   0  0  0  0  0  0  0  0  0  0  0  0
   28.9095  -19.9642   -7.0951 C   0  0  0  0  0  0  0  0  0  0  0  0
   29.5729  -20.0189   -5.8879 C   0  0  0  0  0  0  0  0  0  0  0  0
   28.8947  -19.8154   -4.7104 C   0  0  0  0  0  0  0  0  0  0  0  0
   27.5454  -19.5573   -4.7660 C   0  0  0  0  0  0  0  0  0  0  0  0
   26.8876  -19.5036   -5.9698 C   0  0  0  0  0  0  0  0  0  0  0  0
   27.5428  -19.7039   -7.1652 C   0  0  0  0  0  0  0  0  0  0  0  0
   23.7152  -20.8235   -9.4234 O   0  0  0  0  0  0  0  0  0  0  0  0
   23.2174  -20.5954   -8.2905 N   0  0  0  0  0  0  0  0  0  0  0  0
   22.8075  -21.1606  -10.4659 C   0  0  1  0  0  0  0  0  0  0  0  0
   21.3708  -20.9062  -10.3774 C   0  0  0  0  0  0  0  0  0  0  0  0
   21.0793  -19.4528  -10.6379 C   0  0  0  0  0  0  0  0  0  0  0  0
   21.2773  -19.0495  -12.0476 C   0  0  0  0  0  0  0  0  0  0  0  0
   22.4684  -18.4261  -12.4408 C   0  0  0  0  0  0  0  0  0  0  0  0
   22.6476  -18.0573  -13.7578 C   0  0  0  0  0  0  0  0  0  0  0  0
   21.6726  -18.2847  -14.7296 C   0  0  0  0  0  0  0  0  0  0  0  0
   20.5154  -18.8969  -14.3188 C   0  0  0  0  0  0  0  0  0  0  0  0
   20.3330  -19.2657  -13.0086 C   0  0  0  0  0  0  0  0  0  0  0  0
   20.6434  -21.8433  -11.2274 O   0  0  0  0  0  0  0  0  0  0  0  0
   21.2391  -22.5765  -12.0866 O   0  0  0  0  0  0  0  0  0  0  0  0
  2  1  1  0
  3  2  2  0
  4  2  1  0
  5  4  1  0
  6  7  1  0
  6  5  1  0
  8 10  1  0
  8  7  1  0
  8  9  1  6
 10 12  1  0
 11 10  2  0
 12 13  1  0
 13 24  1  0
 13 14  1  1
 14 15  1  0
 15 23  1  0
 15 16  2  0
 16 17  1  0
 18 17  1  0
 18 19  2  0
 20 19  1  0
 21 20  2  0
 22 23  2  0
 22 21  1  0
 23 18  1  0
 24 25  2  0
 26 27  1  0
 26 24  1  0
 27 35  1  0
 27 28  1  1
 29 28  1  0
 30 29  2  0
 31 30  1  0
 32 31  2  0
 32 33  1  0
 33 34  2  0
 34 29  1  0
 35 36  2  0
 35 37  1  0
M  END
$$$$
