RWF.pdb
     RDKit          3D

 37 39  0  0  1  0  0  0  0  0999 V2000
   25.7280  -25.3492  -15.7717 N   0  0  0  0  0  0  0  0  0  0  0  0
   24.9466  -25.5576  -16.9390 C   0  0  0  0  0  0  0  0  0  0  0  0
   23.7808  -26.1063  -16.8102 N   0  0  0  0  0  0  0  0  0  0  0  0
   25.3985  -25.1867  -18.2382 N   0  0  0  0  0  0  0  0  0  0  0  0
   25.9204  -23.8421  -18.4834 C   0  0  0  0  0  0  0  0  0  0  0  0
   25.3618  -22.8493  -17.5073 C   0  0  0  0  0  0  0  0  0  0  0  0
   25.7872  -21.4238  -17.8019 C   0  0  0  0  0  0  0  0  0  0  0  0
   24.7259  -20.8270  -18.6902 C   0  0  2  0  0  0  0  0  0  0  0  0
   25.3650  -20.0989  -19.7482 N   0  0  0  0  0  0  0  0  0  0  0  0
   23.7794  -19.9539  -17.9844 C   0  0  0  0  0  0  0  0  0  0  0  0
   24.1254  -18.7879  -17.6152 O   0  0  0  0  0  0  0  0  0  0  0  0
   23.1701  -26.2883  -17.6318 N   0  0  0  0  0  0  0  0  0  0  0  0
   22.4452  -20.3300  -17.6681 C   0  0  2  0  0  0  0  0  0  0  0  0
   21.5490  -19.4958  -16.8894 C   0  0  0  0  0  0  0  0  0  0  0  0
   20.2871  -19.3170  -17.7086 C   0  0  0  0  0  0  0  0  0  0  0  0
   20.4546  -18.2728  -18.7550 C   0  0  0  0  0  0  0  0  0  0  0  0
   20.8792  -16.9656  -18.5747 N   0  0  0  0  0  0  0  0  0  0  0  0
   20.8911  -16.3497  -19.7899 C   0  0  0  0  0  0  0  0  0  0  0  0
   20.4969  -17.1918  -20.7396 C   0  0  0  0  0  0  0  0  0  0  0  0
   20.3467  -17.0388  -22.1013 C   0  0  0  0  0  0  0  0  0  0  0  0
   19.9151  -18.0877  -22.8769 C   0  0  0  0  0  0  0  0  0  0  0  0
   19.6383  -19.2870  -22.2641 C   0  0  0  0  0  0  0  0  0  0  0  0
   19.7888  -19.4361  -20.9077 C   0  0  0  0  0  0  0  0  0  0  0  0
   20.2197  -18.4013  -20.1065 C   0  0  0  0  0  0  0  0  0  0  0  0
   21.2813  -20.0802  -15.5508 O   0  0  0  0  0  0  0  0  0  0  0  0
   20.8630  -21.2632  -15.4574 N   0  0  0  0  0  0  0  0  0  0  0  0
   21.4718  -19.3702  -14.3325 C   0  0  1  0  0  0  0  0  0  0  0  0
   21.1675  -19.9469  -13.0244 C   0  0  0  0  0  0  0  0  0  0  0  0
   21.5649  -18.9961  -11.9275 C   0  0  0  0  0  0  0  0  0  0  0  0
   21.1563  -19.4412  -10.5769 C   0  0  0  0  0  0  0  0  0  0  0  0
   19.8688  -19.1598  -10.1024 C   0  0  0  0  0  0  0  0  0  0  0  0
   19.4936  -19.5823   -8.8441 C   0  0  0  0  0  0  0  0  0  0  0  0
   20.3608  -20.2905   -8.0118 C   0  0  0  0  0  0  0  0  0  0  0  0
   21.6159  -20.5536   -8.4999 C   0  0  0  0  0  0  0  0  0  0  0  0
   21.9934  -20.1349   -9.7522 C   0  0  0  0  0  0  0  0  0  0  0  0
   19.7774  -20.3892  -12.9837 O   0  0  0  0  0  0  0  0  0  0  0  0
   19.4369  -21.4946  -12.4424 O   0  0  0  0  0  0  0  0  0  0  0  0
  2  1  1  0
  3  2  2  0
  4  2  1  0
  5  4  1  0
  6  7  1  0
  6  5  1  0
  8 10  1  0
  8  7  1  0
  8  9  1  6
 10 12  1  0
 11 10  2  0
 12 13  1  0
 13 24  1  0
 13 14  1  6
 14 15  1  0
 15 23  1  0
 15 16  2  0
 16 17  1  0
 18 17  1  0
 18 19  2  0
 20 19  1  0
 21 20  2  0
 22 23  2  0
 22 21  1  0
 23 18  1  0
 24 25  2  0
 26 27  1  0
 26 24  1  0
 27 35  1  0
 27 28  1  1
 29 28  1  0
 30 29  2  0
 31 30  1  0
 32 31  2  0
 32 33  1  0
 33 34  2  0
 34 29  1  0
 35 36  2  0
 35 37  1  0
M  END
$$$$
