RWF.pdb
     RDKit          3D

 37 39  0  0  1  0  0  0  0  0999 V2000
   25.0651  -19.2860  -19.5779 N   0  0  0  0  0  0  0  0  0  0  0  0
   25.7071  -20.3076  -20.3267 C   0  0  0  0  0  0  0  0  0  0  0  0
   26.0329  -20.0590  -21.5550 N   0  0  0  0  0  0  0  0  0  0  0  0
   26.0023  -21.5883  -19.7767 N   0  0  0  0  0  0  0  0  0  0  0  0
   25.5712  -21.9275  -18.4204 C   0  0  0  0  0  0  0  0  0  0  0  0
   26.4441  -21.2781  -17.3876 C   0  0  0  0  0  0  0  0  0  0  0  0
   26.6967  -22.1635  -16.1826 C   0  0  0  0  0  0  0  0  0  0  0  0
   25.8423  -21.6287  -15.0619 C   0  0  2  0  0  0  0  0  0  0  0  0
   25.5418  -20.2514  -15.3273 N   0  0  0  0  0  0  0  0  0  0  0  0
   26.4523  -21.7594  -13.7326 C   0  0  0  0  0  0  0  0  0  0  0  0
   26.6429  -22.9055  -13.2172 O   0  0  0  0  0  0  0  0  0  0  0  0
   26.5328  -20.7592  -22.1389 N   0  0  0  0  0  0  0  0  0  0  0  0
   26.8647  -20.6518  -12.9422 C   0  0  1  0  0  0  0  0  0  0  0  0
   27.4277  -20.7920  -11.6122 C   0  0  0  0  0  0  0  0  0  0  0  0
   28.3253  -19.5930  -11.3831 C   0  0  0  0  0  0  0  0  0  0  0  0
   29.0219  -19.6709  -10.0709 C   0  0  0  0  0  0  0  0  0  0  0  0
   28.7206  -18.9624   -8.9182 N   0  0  0  0  0  0  0  0  0  0  0  0
   29.6028  -19.3315   -7.9478 C   0  0  0  0  0  0  0  0  0  0  0  0
   30.4536  -20.2387   -8.4165 C   0  0  0  0  0  0  0  0  0  0  0  0
   31.5075  -20.9035   -7.8270 C   0  0  0  0  0  0  0  0  0  0  0  0
   32.2460  -21.8134   -8.5444 C   0  0  0  0  0  0  0  0  0  0  0  0
   31.9094  -22.0428   -9.8576 C   0  0  0  0  0  0  0  0  0  0  0  0
   30.8593  -21.3790  -10.4418 C   0  0  0  0  0  0  0  0  0  0  0  0
   30.1023  -20.4617   -9.7459 C   0  0  0  0  0  0  0  0  0  0  0  0
   26.3682  -20.9163  -10.5792 O   0  0  0  0  0  0  0  0  0  0  0  0
   25.2153  -20.4675  -10.8089 N   0  0  0  0  0  0  0  0  0  0  0  0
   26.5770  -21.5264   -9.3108 C   0  0  2  0  0  0  0  0  0  0  0  0
   25.5181  -21.6580   -8.3119 C   0  0  0  0  0  0  0  0  0  0  0  0
   26.0500  -22.3194   -7.0690 C   0  0  0  0  0  0  0  0  0  0  0  0
   27.0263  -21.4922   -6.3260 C   0  0  0  0  0  0  0  0  0  0  0  0
   28.3223  -21.3132   -6.8262 C   0  0  0  0  0  0  0  0  0  0  0  0
   29.2253  -20.5367   -6.1303 C   0  0  0  0  0  0  0  0  0  0  0  0
   28.8927  -19.9126   -4.9276 C   0  0  0  0  0  0  0  0  0  0  0  0
   27.6172  -20.1035   -4.4592 C   0  0  0  0  0  0  0  0  0  0  0  0
   26.7150  -20.8757   -5.1491 C   0  0  0  0  0  0  0  0  0  0  0  0
   24.8711  -20.3680   -8.0956 O   0  0  0  0  0  0  0  0  0  0  0  0
   24.1093  -20.1553   -7.0930 O   0  0  0  0  0  0  0  0  0  0  0  0
  2  1  1  0
  3  2  2  0
  4  2  1  0
  5  4  1  0
  6  7  1  0
  6  5  1  0
  8 10  1  0
  8  7  1  0
  8  9  1  6
 10 12  1  0
 11 10  2  0
 12 13  1  0
 13 24  1  0
 13 14  1  1
 14 15  1  0
 15 23  1  0
 15 16  2  0
 16 17  1  0
 18 17  1  0
 18 19  2  0
 20 19  1  0
 21 20  2  0
 22 23  2  0
 22 21  1  0
 23 18  1  0
 24 25  2  0
 26 27  1  0
 26 24  1  0
 27 35  1  0
 27 28  1  6
 29 28  1  0
 30 29  2  0
 31 30  1  0
 32 31  2  0
 32 33  1  0
 33 34  2  0
 34 29  1  0
 35 36  2  0
 35 37  1  0
M  END
$$$$
