RWF.pdb
     RDKit          3D

 37 39  0  0  1  0  0  0  0  0999 V2000
   30.2727  -23.2566  -15.6672 N   0  0  0  0  0  0  0  0  0  0  0  0
   29.8002  -23.5520  -16.9734 C   0  0  0  0  0  0  0  0  0  0  0  0
   29.6872  -24.7941  -17.3215 N   0  0  0  0  0  0  0  0  0  0  0  0
   29.4493  -22.5355  -17.9079 N   0  0  0  0  0  0  0  0  0  0  0  0
   29.2241  -21.1622  -17.4564 C   0  0  0  0  0  0  0  0  0  0  0  0
   28.0621  -21.0780  -16.5114 C   0  0  0  0  0  0  0  0  0  0  0  0
   27.7220  -19.6543  -16.1147 C   0  0  0  0  0  0  0  0  0  0  0  0
   26.6398  -19.1869  -17.0539 C   0  0  2  0  0  0  0  0  0  0  0  0
   27.1000  -18.0154  -17.7421 N   0  0  0  0  0  0  0  0  0  0  0  0
   25.3579  -18.9071  -16.3944 C   0  0  0  0  0  0  0  0  0  0  0  0
   25.2842  -18.0495  -15.4592 O   0  0  0  0  0  0  0  0  0  0  0  0
   29.2856  -25.0684  -18.2405 N   0  0  0  0  0  0  0  0  0  0  0  0
   24.1377  -19.5512  -16.7375 C   0  0  2  0  0  0  0  0  0  0  0  0
   22.9346  -19.4527  -15.9322 C   0  0  0  0  0  0  0  0  0  0  0  0
   21.8530  -18.8744  -16.8217 C   0  0  0  0  0  0  0  0  0  0  0  0
   21.8729  -17.3869  -16.8149 C   0  0  0  0  0  0  0  0  0  0  0  0
   22.6354  -16.5547  -17.6196 N   0  0  0  0  0  0  0  0  0  0  0  0
   22.3514  -15.2639  -17.2886 C   0  0  0  0  0  0  0  0  0  0  0  0
   21.4478  -15.2239  -16.3148 C   0  0  0  0  0  0  0  0  0  0  0  0
   20.8528  -14.1707  -15.6538 C   0  0  0  0  0  0  0  0  0  0  0  0
   19.9286  -14.4023  -14.6637 C   0  0  0  0  0  0  0  0  0  0  0  0
   19.6140  -15.7035  -14.3506 C   0  0  0  0  0  0  0  0  0  0  0  0
   20.2083  -16.7503  -15.0107 C   0  0  0  0  0  0  0  0  0  0  0  0
   21.1380  -16.5468  -16.0070 C   0  0  0  0  0  0  0  0  0  0  0  0
   22.5543  -20.7659  -15.3528 O   0  0  0  0  0  0  0  0  0  0  0  0
   23.2556  -21.7824  -15.5941 N   0  0  0  0  0  0  0  0  0  0  0  0
   21.4167  -20.9557  -14.5195 C   0  0  1  0  0  0  0  0  0  0  0  0
   21.5161  -21.1266  -13.0713 C   0  0  0  0  0  0  0  0  0  0  0  0
   22.2474  -19.9641  -12.4558 C   0  0  0  0  0  0  0  0  0  0  0  0
   22.4837  -20.1117  -11.0026 C   0  0  0  0  0  0  0  0  0  0  0  0
   21.5242  -19.6665  -10.0845 C   0  0  0  0  0  0  0  0  0  0  0  0
   21.7496  -19.8119   -8.7314 C   0  0  0  0  0  0  0  0  0  0  0  0
   22.9154  -20.3946   -8.2336 C   0  0  0  0  0  0  0  0  0  0  0  0
   23.8393  -20.8225   -9.1534 C   0  0  0  0  0  0  0  0  0  0  0  0
   23.6187  -20.6797  -10.5013 C   0  0  0  0  0  0  0  0  0  0  0  0
   20.1970  -21.3941  -12.5073 O   0  0  0  0  0  0  0  0  0  0  0  0
   19.9392  -22.4749  -11.8779 O   0  0  0  0  0  0  0  0  0  0  0  0
  2  1  1  0
  3  2  2  0
  4  2  1  0
  5  4  1  0
  6  7  1  0
  6  5  1  0
  8 10  1  0
  8  7  1  0
  8  9  1  1
 10 12  1  0
 11 10  2  0
 12 13  1  0
 13 24  1  0
 13 14  1  6
 14 15  1  0
 15 23  1  0
 15 16  2  0
 16 17  1  0
 18 17  1  0
 18 19  2  0
 20 19  1  0
 21 20  2  0
 22 23  2  0
 22 21  1  0
 23 18  1  0
 24 25  2  0
 26 27  1  0
 26 24  1  0
 27 35  1  0
 27 28  1  1
 29 28  1  0
 30 29  2  0
 31 30  1  0
 32 31  2  0
 32 33  1  0
 33 34  2  0
 34 29  1  0
 35 36  2  0
 35 37  1  0
M  END
$$$$
