RWF.pdb
     RDKit          3D

 37 39  0  0  1  0  0  0  0  0999 V2000
   27.9981  -22.0672  -22.9064 N   0  0  0  0  0  0  0  0  0  0  0  0
   26.8903  -22.6384  -22.2259 C   0  0  0  0  0  0  0  0  0  0  0  0
   26.1178  -23.4481  -22.8772 N   0  0  0  0  0  0  0  0  0  0  0  0
   26.6014  -22.3526  -20.8603 N   0  0  0  0  0  0  0  0  0  0  0  0
   26.1751  -21.0116  -20.4600 C   0  0  0  0  0  0  0  0  0  0  0  0
   27.3433  -20.1606  -20.0579 C   0  0  0  0  0  0  0  0  0  0  0  0
   27.7597  -20.3682  -18.6146 C   0  0  0  0  0  0  0  0  0  0  0  0
   26.7638  -19.6242  -17.7623 C   0  0  2  0  0  0  0  0  0  0  0  0
   27.3250  -18.3555  -17.3974 N   0  0  0  0  0  0  0  0  0  0  0  0
   26.3498  -20.3523  -16.5561 C   0  0  0  0  0  0  0  0  0  0  0  0
   25.8969  -21.5371  -16.6381 O   0  0  0  0  0  0  0  0  0  0  0  0
   25.3099  -23.9168  -22.4203 N   0  0  0  0  0  0  0  0  0  0  0  0
   26.4200  -19.8087  -15.2441 C   0  0  1  0  0  0  0  0  0  0  0  0
   25.9274  -20.5041  -14.0697 C   0  0  0  0  0  0  0  0  0  0  0  0
   26.9513  -20.2987  -12.9720 C   0  0  0  0  0  0  0  0  0  0  0  0
   26.5336  -20.9510  -11.7019 C   0  0  0  0  0  0  0  0  0  0  0  0
   26.4969  -22.3097  -11.4295 N   0  0  0  0  0  0  0  0  0  0  0  0
   26.0548  -22.4767  -10.1516 C   0  0  0  0  0  0  0  0  0  0  0  0
   25.8060  -21.2980   -9.5901 C   0  0  0  0  0  0  0  0  0  0  0  0
   25.3501  -20.9539   -8.3356 C   0  0  0  0  0  0  0  0  0  0  0  0
   25.1736  -19.6342   -7.9962 C   0  0  0  0  0  0  0  0  0  0  0  0
   25.4617  -18.6709   -8.9340 C   0  0  0  0  0  0  0  0  0  0  0  0
   25.9155  -19.0169  -10.1826 C   0  0  0  0  0  0  0  0  0  0  0  0
   26.1013  -20.3320  -10.5494 C   0  0  0  0  0  0  0  0  0  0  0  0
   24.5737  -20.0329  -13.6817 O   0  0  0  0  0  0  0  0  0  0  0  0
   24.1395  -18.9406  -14.1306 N   0  0  0  0  0  0  0  0  0  0  0  0
   23.7113  -20.7557  -12.8108 C   0  0  1  0  0  0  0  0  0  0  0  0
   22.2586  -20.5945  -12.8225 C   0  0  0  0  0  0  0  0  0  0  0  0
   21.7151  -20.8450  -14.2035 C   0  0  0  0  0  0  0  0  0  0  0  0
   21.6744  -19.6360  -15.0554 C   0  0  0  0  0  0  0  0  0  0  0  0
   22.3438  -19.6188  -16.2857 C   0  0  0  0  0  0  0  0  0  0  0  0
   22.2973  -18.4896  -17.0766 C   0  0  0  0  0  0  0  0  0  0  0  0
   21.5982  -17.3450  -16.6924 C   0  0  0  0  0  0  0  0  0  0  0  0
   20.9510  -17.3874  -15.4833 C   0  0  0  0  0  0  0  0  0  0  0  0
   20.9946  -18.5097  -14.6930 C   0  0  0  0  0  0  0  0  0  0  0  0
   21.6570  -21.4027  -11.7668 O   0  0  0  0  0  0  0  0  0  0  0  0
   21.9944  -22.6190  -11.5734 O   0  0  0  0  0  0  0  0  0  0  0  0
  2  1  1  0
  3  2  2  0
  4  2  1  0
  5  4  1  0
  6  7  1  0
  6  5  1  0
  8 10  1  0
  8  7  1  0
  8  9  1  1
 10 12  1  0
 11 10  2  0
 12 13  1  0
 13 24  1  0
 13 14  1  6
 14 15  1  0
 15 23  1  0
 15 16  2  0
 16 17  1  0
 18 17  1  0
 18 19  2  0
 20 19  1  0
 21 20  2  0
 22 23  2  0
 22 21  1  0
 23 18  1  0
 24 25  2  0
 26 27  1  0
 26 24  1  0
 27 35  1  0
 27 28  1  1
 29 28  1  0
 30 29  2  0
 31 30  1  0
 32 31  2  0
 32 33  1  0
 33 34  2  0
 34 29  1  0
 35 36  2  0
 35 37  1  0
M  END
$$$$
