RWF.pdb
     RDKit          3D

 37 39  0  0  1  0  0  0  0  0999 V2000
   31.6631  -24.9328  -19.5579 N   0  0  0  0  0  0  0  0  0  0  0  0
   31.1093  -25.6516  -18.4655 C   0  0  0  0  0  0  0  0  0  0  0  0
   31.1107  -26.9455  -18.5152 N   0  0  0  0  0  0  0  0  0  0  0  0
   30.5554  -25.0022  -17.3247 N   0  0  0  0  0  0  0  0  0  0  0  0
   30.6213  -23.5461  -17.1984 C   0  0  0  0  0  0  0  0  0  0  0  0
   29.2683  -22.9187  -17.3595 C   0  0  0  0  0  0  0  0  0  0  0  0
   28.7446  -22.3003  -16.0776 C   0  0  0  0  0  0  0  0  0  0  0  0
   27.3791  -21.7431  -16.3885 C   0  0  2  0  0  0  0  0  0  0  0  0
   27.4868  -20.8565  -17.5110 N   0  0  0  0  0  0  0  0  0  0  0  0
   26.7487  -21.0458  -15.2604 C   0  0  0  0  0  0  0  0  0  0  0  0
   27.3827  -20.8670  -14.1734 O   0  0  0  0  0  0  0  0  0  0  0  0
   30.7363  -27.5215  -17.7348 N   0  0  0  0  0  0  0  0  0  0  0  0
   25.4233  -20.5319  -15.2925 C   0  0  2  0  0  0  0  0  0  0  0  0
   24.8018  -19.8686  -14.1615 C   0  0  0  0  0  0  0  0  0  0  0  0
   23.5978  -19.1193  -14.6948 C   0  0  0  0  0  0  0  0  0  0  0  0
   22.5297  -20.0491  -15.1509 C   0  0  0  0  0  0  0  0  0  0  0  0
   21.7246  -20.8539  -14.3599 N   0  0  0  0  0  0  0  0  0  0  0  0
   20.8816  -21.5468  -15.1757 C   0  0  0  0  0  0  0  0  0  0  0  0
   21.1030  -21.2293  -16.4472 C   0  0  0  0  0  0  0  0  0  0  0  0
   20.5153  -21.6570  -17.6186 C   0  0  0  0  0  0  0  0  0  0  0  0
   20.9360  -21.1632  -18.8298 C   0  0  0  0  0  0  0  0  0  0  0  0
   21.9520  -20.2370  -18.8441 C   0  0  0  0  0  0  0  0  0  0  0  0
   22.5353  -19.8132  -17.6758 C   0  0  0  0  0  0  0  0  0  0  0  0
   22.1332  -20.2917  -16.4479 C   0  0  0  0  0  0  0  0  0  0  0  0
   24.4443  -20.8325  -13.0899 O   0  0  0  0  0  0  0  0  0  0  0  0
   24.5976  -22.0665  -13.2825 N   0  0  0  0  0  0  0  0  0  0  0  0
   23.9249  -20.4414  -11.8243 C   0  0  1  0  0  0  0  0  0  0  0  0
   24.1888  -21.1877  -10.5956 C   0  0  0  0  0  0  0  0  0  0  0  0
   25.6506  -21.1176  -10.2439 C   0  0  0  0  0  0  0  0  0  0  0  0
   25.9282  -20.3641   -9.0012 C   0  0  0  0  0  0  0  0  0  0  0  0
   25.8546  -21.0051   -7.7579 C   0  0  0  0  0  0  0  0  0  0  0  0
   26.1195  -20.2972   -6.6041 C   0  0  0  0  0  0  0  0  0  0  0  0
   26.4634  -18.9453   -6.6274 C   0  0  0  0  0  0  0  0  0  0  0  0
   26.5288  -18.3408   -7.8575 C   0  0  0  0  0  0  0  0  0  0  0  0
   26.2660  -19.0420   -9.0087 C   0  0  0  0  0  0  0  0  0  0  0  0
   23.2791  -20.7528   -9.5408 O   0  0  0  0  0  0  0  0  0  0  0  0
   23.1218  -21.4247   -8.4663 O   0  0  0  0  0  0  0  0  0  0  0  0
  2  1  1  0
  3  2  2  0
  4  2  1  0
  5  4  1  0
  6  7  1  0
  6  5  1  0
  8 10  1  0
  8  7  1  0
  8  9  1  6
 10 12  1  0
 11 10  2  0
 12 13  1  0
 13 24  1  0
 13 14  1  6
 14 15  1  0
 15 23  1  0
 15 16  2  0
 16 17  1  0
 18 17  1  0
 18 19  2  0
 20 19  1  0
 21 20  2  0
 22 23  2  0
 22 21  1  0
 23 18  1  0
 24 25  2  0
 26 27  1  0
 26 24  1  0
 27 35  1  0
 27 28  1  1
 29 28  1  0
 30 29  2  0
 31 30  1  0
 32 31  2  0
 32 33  1  0
 33 34  2  0
 34 29  1  0
 35 36  2  0
 35 37  1  0
M  END
$$$$
