RWF.pdb
     RDKit          3D

 37 39  0  0  1  0  0  0  0  0999 V2000
   28.6362  -18.3451  -18.6778 N   0  0  0  0  0  0  0  0  0  0  0  0
   29.3386  -17.5728  -17.7151 C   0  0  0  0  0  0  0  0  0  0  0  0
   29.8088  -16.4207  -18.0736 N   0  0  0  0  0  0  0  0  0  0  0  0
   29.5430  -18.0193  -16.3777 N   0  0  0  0  0  0  0  0  0  0  0  0
   28.8584  -19.2146  -15.8848 C   0  0  0  0  0  0  0  0  0  0  0  0
   27.3676  -19.0577  -15.9434 C   0  0  0  0  0  0  0  0  0  0  0  0
   26.6926  -19.2999  -14.6072 C   0  0  0  0  0  0  0  0  0  0  0  0
   27.2742  -20.5736  -14.0495 C   0  0  2  0  0  0  0  0  0  0  0  0
   27.1479  -21.6089  -15.0344 N   0  0  0  0  0  0  0  0  0  0  0  0
   26.6600  -21.0072  -12.7881 C   0  0  0  0  0  0  0  0  0  0  0  0
   25.5687  -21.6588  -12.7893 O   0  0  0  0  0  0  0  0  0  0  0  0
   30.3194  -15.8086  -17.4060 N   0  0  0  0  0  0  0  0  0  0  0  0
   27.2181  -20.7420  -11.5075 C   0  0  2  0  0  0  0  0  0  0  0  0
   26.5102  -20.9932  -10.2660 C   0  0  0  0  0  0  0  0  0  0  0  0
   27.4999  -20.7732   -9.1401 C   0  0  0  0  0  0  0  0  0  0  0  0
   26.8293  -20.7685   -7.8121 C   0  0  0  0  0  0  0  0  0  0  0  0
   25.5742  -21.2703   -7.5047 N   0  0  0  0  0  0  0  0  0  0  0  0
   25.3454  -21.0632   -6.1777 C   0  0  0  0  0  0  0  0  0  0  0  0
   26.3864  -20.4555   -5.6178 C   0  0  0  0  0  0  0  0  0  0  0  0
   26.6251  -20.0427   -4.3244 C   0  0  0  0  0  0  0  0  0  0  0  0
   27.8082  -19.4252   -3.9973 C   0  0  0  0  0  0  0  0  0  0  0  0
   28.7427  -19.2305   -4.9868 C   0  0  0  0  0  0  0  0  0  0  0  0
   28.5019  -19.6426   -6.2740 C   0  0  0  0  0  0  0  0  0  0  0  0
   27.3246  -20.2641   -6.6295 C   0  0  0  0  0  0  0  0  0  0  0  0
   25.3041  -20.1361  -10.1401 O   0  0  0  0  0  0  0  0  0  0  0  0
   25.3882  -18.9013  -10.3670 N   0  0  0  0  0  0  0  0  0  0  0  0
   24.0237  -20.6335   -9.7690 C   0  0  2  0  0  0  0  0  0  0  0  0
   22.8098  -20.3389  -10.5281 C   0  0  0  0  0  0  0  0  0  0  0  0
   23.0605  -20.5068  -12.0026 C   0  0  0  0  0  0  0  0  0  0  0  0
   22.5264  -19.4002  -12.8268 C   0  0  0  0  0  0  0  0  0  0  0  0
   22.7772  -19.3639  -14.2044 C   0  0  0  0  0  0  0  0  0  0  0  0
   22.2719  -18.3316  -14.9670 C   0  0  0  0  0  0  0  0  0  0  0  0
   21.5082  -17.3052  -14.4105 C   0  0  0  0  0  0  0  0  0  0  0  0
   21.2767  -17.3639  -13.0593 C   0  0  0  0  0  0  0  0  0  0  0  0
   21.7778  -18.3900  -12.2965 C   0  0  0  0  0  0  0  0  0  0  0  0
   21.6900  -21.1120  -10.0008 O   0  0  0  0  0  0  0  0  0  0  0  0
   20.6006  -20.5563   -9.6333 O   0  0  0  0  0  0  0  0  0  0  0  0
  2  1  1  0
  3  2  2  0
  4  2  1  0
  5  4  1  0
  6  7  1  0
  6  5  1  0
  8 10  1  0
  8  7  1  0
  8  9  1  6
 10 12  1  0
 11 10  2  0
 12 13  1  0
 13 24  1  0
 13 14  1  1
 14 15  1  0
 15 23  1  0
 15 16  2  0
 16 17  1  0
 18 17  1  0
 18 19  2  0
 20 19  1  0
 21 20  2  0
 22 23  2  0
 22 21  1  0
 23 18  1  0
 24 25  2  0
 26 27  1  0
 26 24  1  0
 27 35  1  0
 27 28  1  1
 29 28  1  0
 30 29  2  0
 31 30  1  0
 32 31  2  0
 32 33  1  0
 33 34  2  0
 34 29  1  0
 35 36  2  0
 35 37  1  0
M  END
$$$$
