RWF.pdb
     RDKit          3D

 37 39  0  0  1  0  0  0  0  0999 V2000
   29.8954  -26.6253  -17.4817 N   0  0  0  0  0  0  0  0  0  0  0  0
   29.2884  -26.1057  -18.6556 C   0  0  0  0  0  0  0  0  0  0  0  0
   29.4163  -26.7687  -19.7605 N   0  0  0  0  0  0  0  0  0  0  0  0
   28.5493  -24.8877  -18.6595 N   0  0  0  0  0  0  0  0  0  0  0  0
   28.1056  -24.2883  -17.4008 C   0  0  0  0  0  0  0  0  0  0  0  0
   27.3456  -25.2721  -16.5613 C   0  0  0  0  0  0  0  0  0  0  0  0
   26.7545  -24.6522  -15.3098 C   0  0  0  0  0  0  0  0  0  0  0  0
   25.5418  -23.8687  -15.7424 C   0  0  2  0  0  0  0  0  0  0  0  0
   25.9717  -22.7522  -16.5340 N   0  0  0  0  0  0  0  0  0  0  0  0
   24.7070  -23.3993  -14.6293 C   0  0  0  0  0  0  0  0  0  0  0  0
   24.2937  -24.2108  -13.7426 O   0  0  0  0  0  0  0  0  0  0  0  0
   28.9984  -26.4307  -20.6506 N   0  0  0  0  0  0  0  0  0  0  0  0
   24.3076  -22.0452  -14.4598 C   0  0  1  0  0  0  0  0  0  0  0  0
   23.5663  -21.5753  -13.3043 C   0  0  0  0  0  0  0  0  0  0  0  0
   24.2193  -20.2841  -12.8549 C   0  0  0  0  0  0  0  0  0  0  0  0
   25.5307  -20.5314  -12.1975 C   0  0  0  0  0  0  0  0  0  0  0  0
   26.7637  -20.6766  -12.8142 N   0  0  0  0  0  0  0  0  0  0  0  0
   27.7011  -20.8890  -11.8485 C   0  0  0  0  0  0  0  0  0  0  0  0
   27.1353  -20.8877  -10.6459 C   0  0  0  0  0  0  0  0  0  0  0  0
   27.6588  -21.0577   -9.3820 C   0  0  0  0  0  0  0  0  0  0  0  0
   26.8426  -21.0107   -8.2777 C   0  0  0  0  0  0  0  0  0  0  0  0
   25.4982  -20.7912   -8.4638 C   0  0  0  0  0  0  0  0  0  0  0  0
   24.9798  -20.6224   -9.7238 C   0  0  0  0  0  0  0  0  0  0  0  0
   25.7752  -20.6649  -10.8482 C   0  0  0  0  0  0  0  0  0  0  0  0
   22.1230  -21.4074  -13.6108 O   0  0  0  0  0  0  0  0  0  0  0  0
   21.7716  -20.8999  -14.7072 N   0  0  0  0  0  0  0  0  0  0  0  0
   21.0821  -21.7933  -12.7208 C   0  0  1  0  0  0  0  0  0  0  0  0
   19.6655  -21.6281  -13.0406 C   0  0  0  0  0  0  0  0  0  0  0  0
   18.9158  -22.9055  -12.7730 C   0  0  0  0  0  0  0  0  0  0  0  0
   18.8167  -23.2477  -11.3369 C   0  0  0  0  0  0  0  0  0  0  0  0
   17.7867  -22.7104  -10.5545 C   0  0  0  0  0  0  0  0  0  0  0  0
   17.6981  -23.0379   -9.2175 C   0  0  0  0  0  0  0  0  0  0  0  0
   18.6097  -23.8976   -8.6040 C   0  0  0  0  0  0  0  0  0  0  0  0
   19.6090  -24.4106   -9.3920 C   0  0  0  0  0  0  0  0  0  0  0  0
   19.7006  -24.0872  -10.7236 C   0  0  0  0  0  0  0  0  0  0  0  0
   19.1344  -20.4482  -12.3658 O   0  0  0  0  0  0  0  0  0  0  0  0
   19.7877  -19.8439  -11.4500 O   0  0  0  0  0  0  0  0  0  0  0  0
  2  1  1  0
  3  2  2  0
  4  2  1  0
  5  4  1  0
  6  7  1  0
  6  5  1  0
  8 10  1  0
  8  7  1  0
  8  9  1  1
 10 12  1  0
 11 10  2  0
 12 13  1  0
 13 24  1  0
 13 14  1  1
 14 15  1  0
 15 23  1  0
 15 16  2  0
 16 17  1  0
 18 17  1  0
 18 19  2  0
 20 19  1  0
 21 20  2  0
 22 23  2  0
 22 21  1  0
 23 18  1  0
 24 25  2  0
 26 27  1  0
 26 24  1  0
 27 35  1  0
 27 28  1  6
 29 28  1  0
 30 29  2  0
 31 30  1  0
 32 31  2  0
 32 33  1  0
 33 34  2  0
 34 29  1  0
 35 36  2  0
 35 37  1  0
M  END
$$$$
