RWF.pdb
     RDKit          3D

 37 39  0  0  1  0  0  0  0  0999 V2000
   23.7569  -31.5937  -17.2645 N   0  0  0  0  0  0  0  0  0  0  0  0
   23.1005  -30.5571  -16.5495 C   0  0  0  0  0  0  0  0  0  0  0  0
   21.9120  -30.7839  -16.0882 N   0  0  0  0  0  0  0  0  0  0  0  0
   23.7004  -29.2846  -16.3245 N   0  0  0  0  0  0  0  0  0  0  0  0
   25.0934  -29.0468  -16.7031 C   0  0  0  0  0  0  0  0  0  0  0  0
   25.1910  -28.1812  -17.9244 C   0  0  0  0  0  0  0  0  0  0  0  0
   24.7010  -26.7655  -17.6889 C   0  0  0  0  0  0  0  0  0  0  0  0
   25.9244  -25.8894  -17.6028 C   0  0  2  0  0  0  0  0  0  0  0  0
   27.0822  -26.7253  -17.4661 N   0  0  0  0  0  0  0  0  0  0  0  0
   25.8822  -24.9123  -16.5076 C   0  0  0  0  0  0  0  0  0  0  0  0
   26.4784  -25.1442  -15.4092 O   0  0  0  0  0  0  0  0  0  0  0  0
   21.3836  -30.0588  -15.5626 N   0  0  0  0  0  0  0  0  0  0  0  0
   25.1942  -23.6703  -16.5852 C   0  0  1  0  0  0  0  0  0  0  0  0
   25.3052  -22.6371  -15.5724 C   0  0  0  0  0  0  0  0  0  0  0  0
   26.0472  -21.4767  -16.2037 C   0  0  0  0  0  0  0  0  0  0  0  0
   27.3836  -21.2755  -15.5818 C   0  0  0  0  0  0  0  0  0  0  0  0
   28.5450  -21.9864  -15.8416 N   0  0  0  0  0  0  0  0  0  0  0  0
   29.5383  -21.4815  -15.0576 C   0  0  0  0  0  0  0  0  0  0  0  0
   29.0762  -20.4852  -14.3092 C   0  0  0  0  0  0  0  0  0  0  0  0
   29.6867  -19.6751  -13.3757 C   0  0  0  0  0  0  0  0  0  0  0  0
   28.9715  -18.6971  -12.7278 C   0  0  0  0  0  0  0  0  0  0  0  0
   27.6391  -18.5474  -13.0321 C   0  0  0  0  0  0  0  0  0  0  0  0
   27.0339  -19.3558  -13.9621 C   0  0  0  0  0  0  0  0  0  0  0  0
   27.7271  -20.3441  -14.6264 C   0  0  0  0  0  0  0  0  0  0  0  0
   23.9746  -22.2429  -15.0440 O   0  0  0  0  0  0  0  0  0  0  0  0
   23.0738  -21.8654  -15.8373 N   0  0  0  0  0  0  0  0  0  0  0  0
   23.6422  -22.2643  -13.6607 C   0  0  2  0  0  0  0  0  0  0  0  0
   22.7095  -21.3151  -13.0561 C   0  0  0  0  0  0  0  0  0  0  0  0
   23.4601  -20.1751  -12.4219 C   0  0  0  0  0  0  0  0  0  0  0  0
   24.3093  -20.5832  -11.2810 C   0  0  0  0  0  0  0  0  0  0  0  0
   25.6609  -20.8897  -11.4837 C   0  0  0  0  0  0  0  0  0  0  0  0
   26.4474  -21.2647  -10.4144 C   0  0  0  0  0  0  0  0  0  0  0  0
   25.9407  -21.3522   -9.1174 C   0  0  0  0  0  0  0  0  0  0  0  0
   24.6141  -21.0467   -8.9455 C   0  0  0  0  0  0  0  0  0  0  0  0
   23.8277  -20.6728  -10.0074 C   0  0  0  0  0  0  0  0  0  0  0  0
   21.6959  -20.9209  -14.0291 O   0  0  0  0  0  0  0  0  0  0  0  0
   20.6896  -20.2057  -13.7024 O   0  0  0  0  0  0  0  0  0  0  0  0
  2  1  1  0
  3  2  2  0
  4  2  1  0
  5  4  1  0
  6  7  1  0
  6  5  1  0
  8 10  1  0
  8  7  1  0
  8  9  1  1
 10 12  1  0
 11 10  2  0
 12 13  1  0
 13 24  1  0
 13 14  1  1
 14 15  1  0
 15 23  1  0
 15 16  2  0
 16 17  1  0
 18 17  1  0
 18 19  2  0
 20 19  1  0
 21 20  2  0
 22 23  2  0
 22 21  1  0
 23 18  1  0
 24 25  2  0
 26 27  1  0
 26 24  1  0
 27 35  1  0
 27 28  1  6
 29 28  1  0
 30 29  2  0
 31 30  1  0
 32 31  2  0
 32 33  1  0
 33 34  2  0
 34 29  1  0
 35 36  2  0
 35 37  1  0
M  END
$$$$
