RWF.pdb
     RDKit          3D

 37 39  0  0  1  0  0  0  0  0999 V2000
   22.5879  -24.1121  -19.6183 N   0  0  0  0  0  0  0  0  0  0  0  0
   23.2192  -25.1986  -18.9567 C   0  0  0  0  0  0  0  0  0  0  0  0
   22.4816  -26.0224  -18.2830 N   0  0  0  0  0  0  0  0  0  0  0  0
   24.6270  -25.4113  -19.0080 N   0  0  0  0  0  0  0  0  0  0  0  0
   25.4715  -24.5694  -19.8556 C   0  0  0  0  0  0  0  0  0  0  0  0
   26.1255  -23.4747  -19.0653 C   0  0  0  0  0  0  0  0  0  0  0  0
   26.5843  -23.9269  -17.6924 C   0  0  0  0  0  0  0  0  0  0  0  0
   27.1602  -22.7158  -17.0045 C   0  0  2  0  0  0  0  0  0  0  0  0
   28.5834  -22.8702  -16.9124 N   0  0  0  0  0  0  0  0  0  0  0  0
   26.5983  -22.4636  -15.6715 C   0  0  0  0  0  0  0  0  0  0  0  0
   26.5003  -23.4035  -14.8215 O   0  0  0  0  0  0  0  0  0  0  0  0
   22.8959  -26.8065  -17.7403 N   0  0  0  0  0  0  0  0  0  0  0  0
   26.1344  -21.1909  -15.2394 C   0  0  1  0  0  0  0  0  0  0  0  0
   25.5810  -20.9545  -13.9190 C   0  0  0  0  0  0  0  0  0  0  0  0
   26.3439  -19.7897  -13.3216 C   0  0  0  0  0  0  0  0  0  0  0  0
   27.5921  -20.2380  -12.6478 C   0  0  0  0  0  0  0  0  0  0  0  0
   28.8595  -20.3258  -13.2026 N   0  0  0  0  0  0  0  0  0  0  0  0
   29.7140  -20.7808  -12.2439 C   0  0  0  0  0  0  0  0  0  0  0  0
   29.0626  -20.9895  -11.1044 C   0  0  0  0  0  0  0  0  0  0  0  0
   29.4848  -21.4395   -9.8717 C   0  0  0  0  0  0  0  0  0  0  0  0
   28.5930  -21.5695   -8.8346 C   0  0  0  0  0  0  0  0  0  0  0  0
   27.2763  -21.2412   -9.0558 C   0  0  0  0  0  0  0  0  0  0  0  0
   26.8589  -20.7934  -10.2845 C   0  0  0  0  0  0  0  0  0  0  0  0
   27.7316  -20.6538  -11.3417 C   0  0  0  0  0  0  0  0  0  0  0  0
   24.1176  -20.7089  -13.9744 O   0  0  0  0  0  0  0  0  0  0  0  0
   23.6588  -19.8401  -14.7605 N   0  0  0  0  0  0  0  0  0  0  0  0
   23.1735  -21.4109  -13.1742 C   0  0  2  0  0  0  0  0  0  0  0  0
   21.7949  -20.9589  -12.9967 C   0  0  0  0  0  0  0  0  0  0  0  0
   21.7045  -19.9931  -11.8458 C   0  0  0  0  0  0  0  0  0  0  0  0
   22.3333  -20.4892  -10.6018 C   0  0  0  0  0  0  0  0  0  0  0  0
   23.5650  -19.9721  -10.1807 C   0  0  0  0  0  0  0  0  0  0  0  0
   24.1426  -20.4362   -9.0173 C   0  0  0  0  0  0  0  0  0  0  0  0
   23.5379  -21.4170   -8.2306 C   0  0  0  0  0  0  0  0  0  0  0  0
   22.3320  -21.9071   -8.6647 C   0  0  0  0  0  0  0  0  0  0  0  0
   21.7535  -21.4476   -9.8224 C   0  0  0  0  0  0  0  0  0  0  0  0
   21.2644  -20.4619  -14.2620 O   0  0  0  0  0  0  0  0  0  0  0  0
   20.0783  -19.9992  -14.3608 O   0  0  0  0  0  0  0  0  0  0  0  0
  2  1  1  0
  3  2  2  0
  4  2  1  0
  5  4  1  0
  6  7  1  0
  6  5  1  0
  8 10  1  0
  8  7  1  0
  8  9  1  1
 10 12  1  0
 11 10  2  0
 12 13  1  0
 13 24  1  0
 13 14  1  1
 14 15  1  0
 15 23  1  0
 15 16  2  0
 16 17  1  0
 18 17  1  0
 18 19  2  0
 20 19  1  0
 21 20  2  0
 22 23  2  0
 22 21  1  0
 23 18  1  0
 24 25  2  0
 26 27  1  0
 26 24  1  0
 27 35  1  0
 27 28  1  1
 29 28  1  0
 30 29  2  0
 31 30  1  0
 32 31  2  0
 32 33  1  0
 33 34  2  0
 34 29  1  0
 35 36  2  0
 35 37  1  0
M  END
$$$$
