RWF.pdb
     RDKit          3D

 37 39  0  0  1  0  0  0  0  0999 V2000
   33.4315  -25.2521  -16.8739 N   0  0  0  0  0  0  0  0  0  0  0  0
   32.3337  -26.0165  -17.3503 C   0  0  0  0  0  0  0  0  0  0  0  0
   32.3891  -27.3060  -17.2455 N   0  0  0  0  0  0  0  0  0  0  0  0
   31.1815  -25.4174  -17.9363 N   0  0  0  0  0  0  0  0  0  0  0  0
   31.0549  -23.9611  -17.9955 C   0  0  0  0  0  0  0  0  0  0  0  0
   30.7779  -23.3780  -16.6414 C   0  0  0  0  0  0  0  0  0  0  0  0
   29.7920  -22.2263  -16.6818 C   0  0  0  0  0  0  0  0  0  0  0  0
   28.5365  -22.7031  -15.9977 C   0  0  2  0  0  0  0  0  0  0  0  0
   27.5791  -23.0773  -16.9983 N   0  0  0  0  0  0  0  0  0  0  0  0
   27.9443  -21.7177  -15.0841 C   0  0  0  0  0  0  0  0  0  0  0  0
   28.6632  -21.1167  -14.2253 O   0  0  0  0  0  0  0  0  0  0  0  0
   31.7021  -27.9220  -17.7248 N   0  0  0  0  0  0  0  0  0  0  0  0
   26.5660  -21.3687  -15.0869 C   0  0  1  0  0  0  0  0  0  0  0  0
   26.0029  -20.3530  -14.2169 C   0  0  0  0  0  0  0  0  0  0  0  0
   25.0574  -19.5224  -15.0605 C   0  0  0  0  0  0  0  0  0  0  0  0
   25.6372  -18.1918  -15.3871 C   0  0  0  0  0  0  0  0  0  0  0  0
   25.1604  -16.9504  -14.9958 N   0  0  0  0  0  0  0  0  0  0  0  0
   25.9848  -15.9954  -15.5102 C   0  0  0  0  0  0  0  0  0  0  0  0
   26.9645  -16.5580  -16.2103 C   0  0  0  0  0  0  0  0  0  0  0  0
   28.0246  -16.0190  -16.9076 C   0  0  0  0  0  0  0  0  0  0  0  0
   28.9163  -16.8355  -17.5603 C   0  0  0  0  0  0  0  0  0  0  0  0
   28.7259  -18.1958  -17.5010 C   0  0  0  0  0  0  0  0  0  0  0  0
   27.6692  -18.7295  -16.8059 C   0  0  0  0  0  0  0  0  0  0  0  0
   26.7602  -17.9343  -16.1426 C   0  0  0  0  0  0  0  0  0  0  0  0
   25.3339  -20.9537  -13.0350 O   0  0  0  0  0  0  0  0  0  0  0  0
   24.7909  -22.0846  -13.1317 N   0  0  0  0  0  0  0  0  0  0  0  0
   25.2644  -20.3163  -11.7648 C   0  0  1  0  0  0  0  0  0  0  0  0
   24.5967  -20.9187  -10.6125 C   0  0  0  0  0  0  0  0  0  0  0  0
   25.0749  -20.2791   -9.3368 C   0  0  0  0  0  0  0  0  0  0  0  0
   26.5317  -20.4117   -9.1143 C   0  0  0  0  0  0  0  0  0  0  0  0
   27.2024  -19.5048   -8.2839 C   0  0  0  0  0  0  0  0  0  0  0  0
   28.5598  -19.6378   -8.0775 C   0  0  0  0  0  0  0  0  0  0  0  0
   29.3029  -20.6572   -8.6736 C   0  0  0  0  0  0  0  0  0  0  0  0
   28.6224  -21.5323   -9.4822 C   0  0  0  0  0  0  0  0  0  0  0  0
   27.2711  -21.4035   -9.6902 C   0  0  0  0  0  0  0  0  0  0  0  0
   23.1505  -20.9014  -10.8068 O   0  0  0  0  0  0  0  0  0  0  0  0
   22.6005  -20.1928  -11.7157 O   0  0  0  0  0  0  0  0  0  0  0  0
  2  1  1  0
  3  2  2  0
  4  2  1  0
  5  4  1  0
  6  7  1  0
  6  5  1  0
  8 10  1  0
  8  7  1  0
  8  9  1  6
 10 12  1  0
 11 10  2  0
 12 13  1  0
 13 24  1  0
 13 14  1  1
 14 15  1  0
 15 23  1  0
 15 16  2  0
 16 17  1  0
 18 17  1  0
 18 19  2  0
 20 19  1  0
 21 20  2  0
 22 23  2  0
 22 21  1  0
 23 18  1  0
 24 25  2  0
 26 27  1  0
 26 24  1  0
 27 35  1  0
 27 28  1  1
 29 28  1  0
 30 29  2  0
 31 30  1  0
 32 31  2  0
 32 33  1  0
 33 34  2  0
 34 29  1  0
 35 36  2  0
 35 37  1  0
M  END
$$$$
