WPK.pdb
     RDKit          3D

 31 33  0  0  1  0  0  0  0  0999 V2000
    5.8924  -17.7268   24.4736 N   0  0  0  0  0  0  0  0  0  0  0  0
    6.5074  -16.5136   23.9978 C   0  0  1  0  0  0  0  0  0  0  0  0
    7.3282  -15.9366   25.1210 C   0  0  0  0  0  0  0  0  0  0  0  0
    6.6801  -14.8236   25.8036 C   0  0  0  0  0  0  0  0  0  0  0  0
    5.4174  -14.8338   26.3455 C   0  0  0  0  0  0  0  0  0  0  0  0
    5.1895  -13.6236   26.8847 N   0  0  0  0  0  0  0  0  0  0  0  0
    6.2409  -12.8142   26.7251 C   0  0  0  0  0  0  0  0  0  0  0  0
    6.4837  -11.5085   27.0961 C   0  0  0  0  0  0  0  0  0  0  0  0
    7.6842  -10.9079   26.7963 C   0  0  0  0  0  0  0  0  0  0  0  0
    8.6387  -11.6371   26.1182 C   0  0  0  0  0  0  0  0  0  0  0  0
    8.3893  -12.9332   25.7536 C   0  0  0  0  0  0  0  0  0  0  0  0
    7.1951  -13.5709   26.0371 C   0  0  0  0  0  0  0  0  0  0  0  0
    7.2763  -16.6652   22.7486 C   0  0  0  0  0  0  0  0  0  0  0  0
    7.4241  -17.8401   22.2940 O   0  0  0  0  0  0  0  0  0  0  0  0
    7.8681  -15.6065   22.0078 N   0  0  0  0  0  0  0  0  0  0  0  0
    7.7805  -14.1913   22.2825 C   0  0  0  0  0  0  0  0  0  0  0  0
    8.3653  -13.4828   21.0652 C   0  0  0  0  0  0  0  0  0  0  0  0
    8.3345  -14.5800   19.9892 C   0  0  0  0  0  0  0  0  0  0  0  0
    8.6771  -15.7831   20.8341 C   0  0  1  0  0  0  0  0  0  0  0  0
   10.1284  -15.7486   21.1119 C   0  0  0  0  0  0  0  0  0  0  0  0
   10.5007  -14.9077   21.9895 O   0  0  0  0  0  0  0  0  0  0  0  0
   11.0830  -16.5563   20.4892 N   0  0  0  0  0  0  0  0  0  0  0  0
   12.2480  -17.1459   21.2680 C   0  0  1  0  0  0  0  0  0  0  0  0
   11.8518  -18.5271   21.5336 C   0  0  0  0  0  0  0  0  0  0  0  0
   12.5730  -19.4064   22.4668 C   0  0  0  0  0  0  0  0  0  0  0  0
   12.0511  -20.7841   22.5386 C   0  0  0  0  0  0  0  0  0  0  0  0
   12.8214  -21.6378   23.5520 C   0  0  0  0  0  0  0  0  0  0  0  0
   11.8126  -22.3984   24.2895 N   0  0  0  0  0  0  0  0  0  0  0  0
   13.4707  -16.7388   20.6631 C   0  0  0  0  0  0  0  0  0  0  0  0
   14.7400  -16.7312   21.2033 O   0  0  0  0  0  0  0  0  0  0  0  0
   13.4288  -16.3016   19.4507 O   0  0  0  0  0  0  0  0  0  0  0  0
  2  1  1  1
  2 13  1  0
  2  3  1  0
  3  4  1  0
  4  5  2  0
  5  6  1  0
  7  8  2  0
  7  6  1  0
  9  8  1  0
 10  9  2  0
 11 10  1  0
 11 12  2  0
 12  4  1  0
 12  7  1  0
 13 14  2  0
 13 15  1  0
 15 19  1  0
 15 16  1  0
 16 17  1  0
 18 17  1  0
 19 18  1  0
 19 20  1  1
 21 20  2  0
 22 20  1  0
 23 29  1  0
 23 22  1  0
 23 24  1  6
 25 24  1  0
 26 25  1  0
 27 26  1  0
 27 28  1  0
 29 30  1  0
 31 29  2  0
M  END
$$$$
