WPK.pdb
     RDKit          3D

 31 33  0  0  1  0  0  0  0  0999 V2000
    5.6993  -18.1604   24.9710 N   0  0  0  0  0  0  0  0  0  0  0  0
    5.7632  -17.1255   23.9701 C   0  0  1  0  0  0  0  0  0  0  0  0
    5.4809  -15.8086   24.6440 C   0  0  0  0  0  0  0  0  0  0  0  0
    6.5264  -15.3927   25.5706 C   0  0  0  0  0  0  0  0  0  0  0  0
    7.4177  -16.2223   26.2074 C   0  0  0  0  0  0  0  0  0  0  0  0
    8.2187  -15.4595   26.9715 N   0  0  0  0  0  0  0  0  0  0  0  0
    7.8995  -14.1657   26.8702 C   0  0  0  0  0  0  0  0  0  0  0  0
    8.4171  -13.0245   27.4458 C   0  0  0  0  0  0  0  0  0  0  0  0
    7.8820  -11.7909   27.1568 C   0  0  0  0  0  0  0  0  0  0  0  0
    6.8189  -11.7186   26.2808 C   0  0  0  0  0  0  0  0  0  0  0  0
    6.3111  -12.8568   25.7137 C   0  0  0  0  0  0  0  0  0  0  0  0
    6.8222  -14.1143   25.9796 C   0  0  0  0  0  0  0  0  0  0  0  0
    7.0111  -17.1088   23.1846 C   0  0  0  0  0  0  0  0  0  0  0  0
    7.5467  -18.2271   22.9172 O   0  0  0  0  0  0  0  0  0  0  0  0
    7.6681  -15.9454   22.7000 N   0  0  0  0  0  0  0  0  0  0  0  0
    7.3516  -14.5703   23.0076 C   0  0  0  0  0  0  0  0  0  0  0  0
    8.1748  -13.7174   22.0480 C   0  0  0  0  0  0  0  0  0  0  0  0
    8.5698  -14.7244   20.9560 C   0  0  0  0  0  0  0  0  0  0  0  0
    8.7899  -15.9543   21.8029 C   0  0  1  0  0  0  0  0  0  0  0  0
   10.0907  -15.8100   22.4897 C   0  0  0  0  0  0  0  0  0  0  0  0
   10.1353  -14.9282   23.4041 O   0  0  0  0  0  0  0  0  0  0  0  0
   11.2352  -16.5583   22.2039 N   0  0  0  0  0  0  0  0  0  0  0  0
   12.4779  -16.4648   23.0747 C   0  0  1  0  0  0  0  0  0  0  0  0
   12.6178  -17.7960   23.6609 C   0  0  0  0  0  0  0  0  0  0  0  0
   11.5020  -18.5209   24.2883 C   0  0  0  0  0  0  0  0  0  0  0  0
   11.8403  -19.8763   24.7616 C   0  0  0  0  0  0  0  0  0  0  0  0
   10.6557  -20.5528   25.4603 C   0  0  0  0  0  0  0  0  0  0  0  0
   11.1157  -21.8911   25.8311 N   0  0  0  0  0  0  0  0  0  0  0  0
   13.4945  -15.7623   22.3677 C   0  0  0  0  0  0  0  0  0  0  0  0
   13.5495  -15.4428   21.0269 O   0  0  0  0  0  0  0  0  0  0  0  0
   14.5255  -15.3624   23.0310 O   0  0  0  0  0  0  0  0  0  0  0  0
  2  1  1  1
  2 13  1  0
  2  3  1  0
  3  4  1  0
  4  5  2  0
  5  6  1  0
  7  8  2  0
  7  6  1  0
  9  8  1  0
 10  9  2  0
 11 10  1  0
 11 12  2  0
 12  4  1  0
 12  7  1  0
 13 14  2  0
 13 15  1  0
 15 19  1  0
 15 16  1  0
 16 17  1  0
 18 17  1  0
 19 18  1  0
 19 20  1  1
 21 20  2  0
 22 20  1  0
 23 29  1  0
 23 22  1  0
 23 24  1  6
 25 24  1  0
 26 25  1  0
 27 26  1  0
 27 28  1  0
 29 30  1  0
 31 29  2  0
M  END
$$$$
