WPK.pdb
     RDKit          3D

 31 33  0  0  1  0  0  0  0  0999 V2000
    6.1505  -17.5598   24.6142 N   0  0  0  0  0  0  0  0  0  0  0  0
    6.6324  -16.3588   23.9802 C   0  0  1  0  0  0  0  0  0  0  0  0
    7.5248  -15.6420   24.9589 C   0  0  0  0  0  0  0  0  0  0  0  0
    6.8407  -14.6016   25.7167 C   0  0  0  0  0  0  0  0  0  0  0  0
    5.6181  -14.7225   26.3319 C   0  0  0  0  0  0  0  0  0  0  0  0
    5.3363  -13.5495   26.9251 N   0  0  0  0  0  0  0  0  0  0  0  0
    6.3140  -12.6592   26.7313 C   0  0  0  0  0  0  0  0  0  0  0  0
    6.4834  -11.3507   27.1320 C   0  0  0  0  0  0  0  0  0  0  0  0
    7.6161  -10.6533   26.7823 C   0  0  0  0  0  0  0  0  0  0  0  0
    8.5775  -11.2882   26.0239 C   0  0  0  0  0  0  0  0  0  0  0  0
    8.4012  -12.5879   25.6304 C   0  0  0  0  0  0  0  0  0  0  0  0
    7.2764  -13.3214   25.9622 C   0  0  0  0  0  0  0  0  0  0  0  0
    7.2768  -16.5729   22.6711 C   0  0  0  0  0  0  0  0  0  0  0  0
    7.3617  -17.7669   22.2515 O   0  0  0  0  0  0  0  0  0  0  0  0
    7.8129  -15.5551   21.8366 N   0  0  0  0  0  0  0  0  0  0  0  0
    7.7641  -14.1284   22.0561 C   0  0  0  0  0  0  0  0  0  0  0  0
    8.2481  -13.4805   20.7631 C   0  0  0  0  0  0  0  0  0  0  0  0
    8.1125  -14.6218   19.7426 C   0  0  0  0  0  0  0  0  0  0  0  0
    8.5149  -15.7927   20.6061 C   0  0  1  0  0  0  0  0  0  0  0  0
    9.9851  -15.7668   20.7557 C   0  0  0  0  0  0  0  0  0  0  0  0
   10.4436  -14.8698   21.5309 O   0  0  0  0  0  0  0  0  0  0  0  0
   10.8710  -16.6386   20.1179 N   0  0  0  0  0  0  0  0  0  0  0  0
   12.0954  -17.1845   20.8349 C   0  0  1  0  0  0  0  0  0  0  0  0
   11.6260  -18.4039   21.4890 C   0  0  0  0  0  0  0  0  0  0  0  0
   12.3956  -19.1091   22.5256 C   0  0  0  0  0  0  0  0  0  0  0  0
   11.7693  -20.3514   23.0155 C   0  0  0  0  0  0  0  0  0  0  0  0
   12.6405  -21.0612   24.0579 C   0  0  0  0  0  0  0  0  0  0  0  0
   12.8034  -22.4345   23.5811 N   0  0  0  0  0  0  0  0  0  0  0  0
   13.2243  -17.0916   19.9725 C   0  0  0  0  0  0  0  0  0  0  0  0
   14.5605  -17.0125   20.3059 O   0  0  0  0  0  0  0  0  0  0  0  0
   13.0124  -17.0641   18.7007 O   0  0  0  0  0  0  0  0  0  0  0  0
  2  1  1  1
  2 13  1  0
  2  3  1  0
  3  4  1  0
  4  5  2  0
  5  6  1  0
  7  8  2  0
  7  6  1  0
  9  8  1  0
 10  9  2  0
 11 10  1  0
 11 12  2  0
 12  4  1  0
 12  7  1  0
 13 14  2  0
 13 15  1  0
 15 19  1  0
 15 16  1  0
 16 17  1  0
 18 17  1  0
 19 18  1  0
 19 20  1  1
 21 20  2  0
 22 20  1  0
 23 29  1  0
 23 22  1  0
 23 24  1  6
 25 24  1  0
 26 25  1  0
 27 26  1  0
 27 28  1  0
 29 30  1  0
 31 29  2  0
M  END
$$$$
