WPK.pdb
     RDKit          3D

 31 33  0  0  1  0  0  0  0  0999 V2000
    6.4063  -17.9677   25.5853 N   0  0  0  0  0  0  0  0  0  0  0  0
    6.1030  -17.1848   24.4141 C   0  0  1  0  0  0  0  0  0  0  0  0
    5.7641  -15.7878   24.8633 C   0  0  0  0  0  0  0  0  0  0  0  0
    6.7726  -15.1951   25.7330 C   0  0  0  0  0  0  0  0  0  0  0  0
    7.8861  -15.8302   26.2278 C   0  0  0  0  0  0  0  0  0  0  0  0
    8.5632  -14.9481   26.9833 N   0  0  0  0  0  0  0  0  0  0  0  0
    7.9507  -13.7607   27.0114 C   0  0  0  0  0  0  0  0  0  0  0  0
    8.2492  -12.5663   27.6325 C   0  0  0  0  0  0  0  0  0  0  0  0
    7.4229  -11.4765   27.4867 C   0  0  0  0  0  0  0  0  0  0  0  0
    6.2915  -11.6024   26.7077 C   0  0  0  0  0  0  0  0  0  0  0  0
    6.0027  -12.7921   26.0944 C   0  0  0  0  0  0  0  0  0  0  0  0
    6.8089  -13.9094   26.2174 C   0  0  0  0  0  0  0  0  0  0  0  0
    7.1456  -17.2120   23.3717 C   0  0  0  0  0  0  0  0  0  0  0  0
    7.6139  -18.3447   23.0449 O   0  0  0  0  0  0  0  0  0  0  0  0
    7.6734  -16.0764   22.6996 N   0  0  0  0  0  0  0  0  0  0  0  0
    7.4013  -14.6869   22.9845 C   0  0  0  0  0  0  0  0  0  0  0  0
    8.0028  -13.8888   21.8325 C   0  0  0  0  0  0  0  0  0  0  0  0
    8.1897  -14.9573   20.7434 C   0  0  0  0  0  0  0  0  0  0  0  0
    8.5945  -16.1332   21.5989 C   0  0  1  0  0  0  0  0  0  0  0  0
   10.0033  -15.9416   22.0029 C   0  0  0  0  0  0  0  0  0  0  0  0
   10.1820  -15.3223   23.0985 O   0  0  0  0  0  0  0  0  0  0  0  0
   11.1123  -16.3843   21.2779 N   0  0  0  0  0  0  0  0  0  0  0  0
   12.3019  -17.0302   21.9701 C   0  0  1  0  0  0  0  0  0  0  0  0
   12.1721  -18.4549   21.6726 C   0  0  0  0  0  0  0  0  0  0  0  0
   13.0544  -19.4814   22.2486 C   0  0  0  0  0  0  0  0  0  0  0  0
   12.7543  -20.8598   21.8178 C   0  0  0  0  0  0  0  0  0  0  0  0
   13.8086  -21.8576   22.3099 C   0  0  0  0  0  0  0  0  0  0  0  0
   13.0695  -23.0358   22.7632 N   0  0  0  0  0  0  0  0  0  0  0  0
   13.4640  -16.2406   21.7401 C   0  0  0  0  0  0  0  0  0  0  0  0
   14.6048  -16.1401   22.5089 O   0  0  0  0  0  0  0  0  0  0  0  0
   13.4899  -15.4961   20.6874 O   0  0  0  0  0  0  0  0  0  0  0  0
  2  1  1  1
  2 13  1  0
  2  3  1  0
  3  4  1  0
  4  5  2  0
  5  6  1  0
  7  8  2  0
  7  6  1  0
  9  8  1  0
 10  9  2  0
 11 10  1  0
 11 12  2  0
 12  4  1  0
 12  7  1  0
 13 14  2  0
 13 15  1  0
 15 19  1  0
 15 16  1  0
 16 17  1  0
 18 17  1  0
 19 18  1  0
 19 20  1  1
 21 20  2  0
 22 20  1  0
 23 29  1  0
 23 22  1  0
 23 24  1  6
 25 24  1  0
 26 25  1  0
 27 26  1  0
 27 28  1  0
 29 30  1  0
 31 29  2  0
M  END
$$$$
