WPK.pdb
     RDKit          3D

 31 33  0  0  1  0  0  0  0  0999 V2000
    6.0174  -17.5418   24.3572 N   0  0  0  0  0  0  0  0  0  0  0  0
    6.5796  -16.3488   23.7766 C   0  0  1  0  0  0  0  0  0  0  0  0
    7.4258  -15.6755   24.8249 C   0  0  0  0  0  0  0  0  0  0  0  0
    6.7062  -14.6696   25.5962 C   0  0  0  0  0  0  0  0  0  0  0  0
    5.4661  -14.8246   26.1673 C   0  0  0  0  0  0  0  0  0  0  0  0
    5.1524  -13.6761   26.7916 N   0  0  0  0  0  0  0  0  0  0  0  0
    6.1255  -12.7696   26.6606 C   0  0  0  0  0  0  0  0  0  0  0  0
    6.2674  -11.4744   27.1119 C   0  0  0  0  0  0  0  0  0  0  0  0
    7.4025  -10.7535   26.8233 C   0  0  0  0  0  0  0  0  0  0  0  0
    8.3947  -11.3515   26.0745 C   0  0  0  0  0  0  0  0  0  0  0  0
    8.2457  -12.6382   25.6304 C   0  0  0  0  0  0  0  0  0  0  0  0
    7.1194  -13.3945   25.9001 C   0  0  0  0  0  0  0  0  0  0  0  0
    7.3046  -16.5659   22.5109 C   0  0  0  0  0  0  0  0  0  0  0  0
    7.4323  -17.7626   22.1101 O   0  0  0  0  0  0  0  0  0  0  0  0
    7.8747  -15.5483   21.6990 N   0  0  0  0  0  0  0  0  0  0  0  0
    7.8517  -14.1240   21.9373 C   0  0  0  0  0  0  0  0  0  0  0  0
    8.3695  -13.4690   20.6611 C   0  0  0  0  0  0  0  0  0  0  0  0
    8.2268  -14.5935   19.6230 C   0  0  0  0  0  0  0  0  0  0  0  0
    8.5913  -15.7839   20.4766 C   0  0  1  0  0  0  0  0  0  0  0  0
   10.0591  -15.7905   20.6495 C   0  0  0  0  0  0  0  0  0  0  0  0
   10.5142  -14.9836   21.5199 O   0  0  0  0  0  0  0  0  0  0  0  0
   10.9463  -16.6020   19.9382 N   0  0  0  0  0  0  0  0  0  0  0  0
   12.1047  -17.3020   20.6304 C   0  0  1  0  0  0  0  0  0  0  0  0
   11.6864  -18.6988   20.7267 C   0  0  0  0  0  0  0  0  0  0  0  0
   12.1348  -19.6016   21.7981 C   0  0  0  0  0  0  0  0  0  0  0  0
   11.6755  -20.9962   21.6570 C   0  0  0  0  0  0  0  0  0  0  0  0
   12.2199  -21.8956   22.7723 C   0  0  0  0  0  0  0  0  0  0  0  0
   11.3184  -23.0456   22.8405 N   0  0  0  0  0  0  0  0  0  0  0  0
   13.3313  -16.8435   20.0718 C   0  0  0  0  0  0  0  0  0  0  0  0
   14.6063  -16.9463   20.5881 O   0  0  0  0  0  0  0  0  0  0  0  0
   13.2877  -16.2351   18.9356 O   0  0  0  0  0  0  0  0  0  0  0  0
  2  1  1  1
  2 13  1  0
  2  3  1  0
  3  4  1  0
  4  5  2  0
  5  6  1  0
  7  8  2  0
  7  6  1  0
  9  8  1  0
 10  9  2  0
 11 10  1  0
 11 12  2  0
 12  4  1  0
 12  7  1  0
 13 14  2  0
 13 15  1  0
 15 19  1  0
 15 16  1  0
 16 17  1  0
 18 17  1  0
 19 18  1  0
 19 20  1  1
 21 20  2  0
 22 20  1  0
 23 29  1  0
 23 22  1  0
 23 24  1  6
 25 24  1  0
 26 25  1  0
 27 26  1  0
 27 28  1  0
 29 30  1  0
 31 29  2  0
M  END
$$$$
