WPK.pdb
     RDKit          3D

 31 33  0  0  1  0  0  0  0  0999 V2000
    6.0307  -17.1237   23.9484 N   0  0  0  0  0  0  0  0  0  0  0  0
    6.6596  -15.9959   23.3088 C   0  0  1  0  0  0  0  0  0  0  0  0
    7.6824  -15.4326   24.2599 C   0  0  0  0  0  0  0  0  0  0  0  0
    7.0991  -14.6804   25.3638 C   0  0  0  0  0  0  0  0  0  0  0  0
    6.1114  -15.1237   26.2100 C   0  0  0  0  0  0  0  0  0  0  0  0
    5.8513  -14.1424   27.0912 N   0  0  0  0  0  0  0  0  0  0  0  0
    6.6196  -13.0719   26.8681 C   0  0  0  0  0  0  0  0  0  0  0  0
    6.7217  -11.8452   27.4894 C   0  0  0  0  0  0  0  0  0  0  0  0
    7.6210  -10.9064   27.0403 C   0  0  0  0  0  0  0  0  0  0  0  0
    8.4174  -11.2165   25.9576 C   0  0  0  0  0  0  0  0  0  0  0  0
    8.3095  -12.4371   25.3466 C   0  0  0  0  0  0  0  0  0  0  0  0
    7.4176  -13.4063   25.7691 C   0  0  0  0  0  0  0  0  0  0  0  0
    7.2176  -16.2808   21.9738 C   0  0  0  0  0  0  0  0  0  0  0  0
    7.1272  -17.4716   21.5463 O   0  0  0  0  0  0  0  0  0  0  0  0
    7.8499  -15.3349   21.1224 N   0  0  0  0  0  0  0  0  0  0  0  0
    8.0238  -13.9213   21.3623 C   0  0  0  0  0  0  0  0  0  0  0  0
    8.5247  -13.3239   20.0516 C   0  0  0  0  0  0  0  0  0  0  0  0
    8.1659  -14.4115   19.0264 C   0  0  0  0  0  0  0  0  0  0  0  0
    8.4395  -15.6465   19.8501 C   0  0  1  0  0  0  0  0  0  0  0  0
    9.9036  -15.8387   19.9139 C   0  0  0  0  0  0  0  0  0  0  0  0
   10.5411  -14.9841   20.6060 O   0  0  0  0  0  0  0  0  0  0  0  0
   10.6051  -16.8675   19.2807 N   0  0  0  0  0  0  0  0  0  0  0  0
   12.0487  -17.1783   19.6425 C   0  0  1  0  0  0  0  0  0  0  0  0
   12.0359  -18.5870   20.0303 C   0  0  0  0  0  0  0  0  0  0  0  0
   11.2438  -19.1051   21.1565 C   0  0  0  0  0  0  0  0  0  0  0  0
   11.3243  -20.5662   21.3420 C   0  0  0  0  0  0  0  0  0  0  0  0
   10.5422  -21.0323   22.5750 C   0  0  0  0  0  0  0  0  0  0  0  0
   10.7372  -22.4800   22.6538 N   0  0  0  0  0  0  0  0  0  0  0  0
   12.9115  -16.5965   18.6710 C   0  0  0  0  0  0  0  0  0  0  0  0
   14.2569  -16.3094   18.7735 O   0  0  0  0  0  0  0  0  0  0  0  0
   12.4045  -16.2692   17.5314 O   0  0  0  0  0  0  0  0  0  0  0  0
  2  1  1  1
  2 13  1  0
  2  3  1  0
  3  4  1  0
  4  5  2  0
  5  6  1  0
  7  8  2  0
  7  6  1  0
  9  8  1  0
 10  9  2  0
 11 10  1  0
 11 12  2  0
 12  4  1  0
 12  7  1  0
 13 14  2  0
 13 15  1  0
 15 19  1  0
 15 16  1  0
 16 17  1  0
 18 17  1  0
 19 18  1  0
 19 20  1  1
 21 20  2  0
 22 20  1  0
 23 29  1  0
 23 22  1  0
 23 24  1  6
 25 24  1  0
 26 25  1  0
 27 26  1  0
 27 28  1  0
 29 30  1  0
 31 29  2  0
M  END
$$$$
