WPK.pdb
     RDKit          3D

 31 33  0  0  1  0  0  0  0  0999 V2000
    6.6567  -18.1219   25.6665 N   0  0  0  0  0  0  0  0  0  0  0  0
    6.3198  -17.3445   24.5009 C   0  0  1  0  0  0  0  0  0  0  0  0
    5.8446  -15.9928   24.9646 C   0  0  0  0  0  0  0  0  0  0  0  0
    6.7919  -15.3104   25.8373 C   0  0  0  0  0  0  0  0  0  0  0  0
    7.9522  -15.8445   26.3439 C   0  0  0  0  0  0  0  0  0  0  0  0
    8.5454  -14.9030   27.0982 N   0  0  0  0  0  0  0  0  0  0  0  0
    7.8329  -13.7725   27.1145 C   0  0  0  0  0  0  0  0  0  0  0  0
    8.0229  -12.5532   27.7299 C   0  0  0  0  0  0  0  0  0  0  0  0
    7.1071  -11.5395   27.5713 C   0  0  0  0  0  0  0  0  0  0  0  0
    5.9965  -11.7668   26.7854 C   0  0  0  0  0  0  0  0  0  0  0  0
    5.8156  -12.9805   26.1779 C   0  0  0  0  0  0  0  0  0  0  0  0
    6.7139  -14.0236   26.3136 C   0  0  0  0  0  0  0  0  0  0  0  0
    7.3912  -17.2575   23.4914 C   0  0  0  0  0  0  0  0  0  0  0  0
    8.0835  -18.3001   23.2846 O   0  0  0  0  0  0  0  0  0  0  0  0
    7.7170  -16.1037   22.7282 N   0  0  0  0  0  0  0  0  0  0  0  0
    7.0749  -14.8111   22.7798 C   0  0  0  0  0  0  0  0  0  0  0  0
    7.6236  -14.0141   21.6009 C   0  0  0  0  0  0  0  0  0  0  0  0
    8.2221  -15.1088   20.7032 C   0  0  0  0  0  0  0  0  0  0  0  0
    8.7737  -16.0377   21.7574 C   0  0  1  0  0  0  0  0  0  0  0  0
   10.0188  -15.4419   22.2859 C   0  0  0  0  0  0  0  0  0  0  0  0
    9.8705  -14.6082   23.2340 O   0  0  0  0  0  0  0  0  0  0  0  0
   11.3047  -15.7295   21.8220 N   0  0  0  0  0  0  0  0  0  0  0  0
   12.3716  -16.2901   22.7487 C   0  0  1  0  0  0  0  0  0  0  0  0
   11.7351  -17.4376   23.3914 C   0  0  0  0  0  0  0  0  0  0  0  0
   12.4570  -18.3717   24.2692 C   0  0  0  0  0  0  0  0  0  0  0  0
   11.8449  -18.5620   25.5977 C   0  0  0  0  0  0  0  0  0  0  0  0
   12.5395  -19.6705   26.3964 C   0  0  0  0  0  0  0  0  0  0  0  0
   11.9732  -19.6132   27.7440 N   0  0  0  0  0  0  0  0  0  0  0  0
   13.6208  -16.3133   22.0661 C   0  0  0  0  0  0  0  0  0  0  0  0
   13.8825  -16.6618   20.7574 O   0  0  0  0  0  0  0  0  0  0  0  0
   14.6768  -15.9807   22.7273 O   0  0  0  0  0  0  0  0  0  0  0  0
  2  1  1  1
  2 13  1  0
  2  3  1  0
  3  4  1  0
  4  5  2  0
  5  6  1  0
  7  8  2  0
  7  6  1  0
  9  8  1  0
 10  9  2  0
 11 10  1  0
 11 12  2  0
 12  4  1  0
 12  7  1  0
 13 14  2  0
 13 15  1  0
 15 19  1  0
 15 16  1  0
 16 17  1  0
 18 17  1  0
 19 18  1  0
 19 20  1  1
 21 20  2  0
 22 20  1  0
 23 29  1  0
 23 22  1  0
 23 24  1  6
 25 24  1  0
 26 25  1  0
 27 26  1  0
 27 28  1  0
 29 30  1  0
 31 29  2  0
M  END
$$$$
