WPK.pdb
     RDKit          3D

 31 33  0  0  1  0  0  0  0  0999 V2000
    5.8432  -17.6840   24.4332 N   0  0  0  0  0  0  0  0  0  0  0  0
    6.5761  -16.5183   24.0084 C   0  0  1  0  0  0  0  0  0  0  0  0
    7.3961  -16.0336   25.1750 C   0  0  0  0  0  0  0  0  0  0  0  0
    6.7356  -14.9992   25.9613 C   0  0  0  0  0  0  0  0  0  0  0  0
    5.5549  -15.1390   26.6501 C   0  0  0  0  0  0  0  0  0  0  0  0
    5.2831  -13.9652   27.2465 N   0  0  0  0  0  0  0  0  0  0  0  0
    6.2274  -13.0565   26.9848 C   0  0  0  0  0  0  0  0  0  0  0  0
    6.3914  -11.7399   27.3605 C   0  0  0  0  0  0  0  0  0  0  0  0
    7.4854  -11.0225   26.9359 C   0  0  0  0  0  0  0  0  0  0  0  0
    8.4136  -11.6457   26.1281 C   0  0  0  0  0  0  0  0  0  0  0  0
    8.2430  -12.9535   25.7598 C   0  0  0  0  0  0  0  0  0  0  0  0
    7.1567  -13.7071   26.1665 C   0  0  0  0  0  0  0  0  0  0  0  0
    7.3794  -16.7107   22.7868 C   0  0  0  0  0  0  0  0  0  0  0  0
    7.5013  -17.8952   22.3498 O   0  0  0  0  0  0  0  0  0  0  0  0
    8.0312  -15.6816   22.0547 N   0  0  0  0  0  0  0  0  0  0  0  0
    8.0073  -14.2638   22.3287 C   0  0  0  0  0  0  0  0  0  0  0  0
    8.6420  -13.5843   21.1199 C   0  0  0  0  0  0  0  0  0  0  0  0
    8.5740  -14.6791   20.0432 C   0  0  0  0  0  0  0  0  0  0  0  0
    8.8472  -15.8969   20.8923 C   0  0  1  0  0  0  0  0  0  0  0  0
   10.2944  -15.9314   21.1903 C   0  0  0  0  0  0  0  0  0  0  0  0
   10.7136  -15.0343   21.9874 O   0  0  0  0  0  0  0  0  0  0  0  0
   11.1987  -16.8585   20.6664 N   0  0  0  0  0  0  0  0  0  0  0  0
   12.5409  -17.1158   21.3322 C   0  0  1  0  0  0  0  0  0  0  0  0
   12.6220  -18.5702   21.4475 C   0  0  0  0  0  0  0  0  0  0  0  0
   11.7368  -19.3596   22.3178 C   0  0  0  0  0  0  0  0  0  0  0  0
   11.8986  -20.8204   22.1936 C   0  0  0  0  0  0  0  0  0  0  0  0
   11.2100  -21.5735   23.3373 C   0  0  0  0  0  0  0  0  0  0  0  0
    9.8668  -21.8976   22.8570 N   0  0  0  0  0  0  0  0  0  0  0  0
   13.5272  -16.2776   20.7392 C   0  0  0  0  0  0  0  0  0  0  0  0
   13.5516  -15.7395   19.4693 O   0  0  0  0  0  0  0  0  0  0  0  0
   14.5584  -15.9639   21.4471 O   0  0  0  0  0  0  0  0  0  0  0  0
  2  1  1  1
  2 13  1  0
  2  3  1  0
  3  4  1  0
  4  5  2  0
  5  6  1  0
  7  8  2  0
  7  6  1  0
  9  8  1  0
 10  9  2  0
 11 10  1  0
 11 12  2  0
 12  4  1  0
 12  7  1  0
 13 14  2  0
 13 15  1  0
 15 19  1  0
 15 16  1  0
 16 17  1  0
 18 17  1  0
 19 18  1  0
 19 20  1  1
 21 20  2  0
 22 20  1  0
 23 29  1  0
 23 22  1  0
 23 24  1  6
 25 24  1  0
 26 25  1  0
 27 26  1  0
 27 28  1  0
 29 30  1  0
 31 29  2  0
M  END
$$$$
