WPK.pdb
     RDKit          3D

 31 33  0  0  1  0  0  0  0  0999 V2000
    7.0132  -16.9100   25.1259 N   0  0  0  0  0  0  0  0  0  0  0  0
    6.9351  -15.9996   24.0116 C   0  0  1  0  0  0  0  0  0  0  0  0
    7.5080  -14.6775   24.4500 C   0  0  0  0  0  0  0  0  0  0  0  0
    6.7394  -14.0315   25.5067 C   0  0  0  0  0  0  0  0  0  0  0  0
    5.5399  -14.4684   26.0150 C   0  0  0  0  0  0  0  0  0  0  0  0
    5.1579  -13.6051   26.9721 N   0  0  0  0  0  0  0  0  0  0  0  0
    6.0473  -12.6187   27.1207 C   0  0  0  0  0  0  0  0  0  0  0  0
    6.1001  -11.5215   27.9542 C   0  0  0  0  0  0  0  0  0  0  0  0
    7.1599  -10.6470   27.8930 C   0  0  0  0  0  0  0  0  0  0  0  0
    8.1673  -10.8895   26.9825 C   0  0  0  0  0  0  0  0  0  0  0  0
    8.1070  -11.9815   26.1586 C   0  0  0  0  0  0  0  0  0  0  0  0
    7.0582  -12.8828   26.1907 C   0  0  0  0  0  0  0  0  0  0  0  0
    7.5451  -16.5012   22.7663 C   0  0  0  0  0  0  0  0  0  0  0  0
    7.6193  -17.7589   22.6189 O   0  0  0  0  0  0  0  0  0  0  0  0
    8.0592  -15.6959   21.7141 N   0  0  0  0  0  0  0  0  0  0  0  0
    8.0666  -14.2536   21.6404 C   0  0  0  0  0  0  0  0  0  0  0  0
    8.4895  -13.9006   20.2183 C   0  0  0  0  0  0  0  0  0  0  0  0
    8.2575  -15.2177   19.4607 C   0  0  0  0  0  0  0  0  0  0  0  0
    8.6769  -16.2060   20.5218 C   0  0  1  0  0  0  0  0  0  0  0  0
   10.1537  -16.2118   20.5833 C   0  0  0  0  0  0  0  0  0  0  0  0
   10.6848  -15.2045   21.1482 O   0  0  0  0  0  0  0  0  0  0  0  0
   10.9730  -17.2228   20.0750 N   0  0  0  0  0  0  0  0  0  0  0  0
   12.2326  -17.6604   20.8051 C   0  0  1  0  0  0  0  0  0  0  0  0
   11.9223  -18.9978   21.3055 C   0  0  0  0  0  0  0  0  0  0  0  0
   11.1406  -19.2388   22.5282 C   0  0  0  0  0  0  0  0  0  0  0  0
   10.7876  -20.6518   22.7616 C   0  0  0  0  0  0  0  0  0  0  0  0
   10.0852  -20.8531   24.1090 C   0  0  0  0  0  0  0  0  0  0  0  0
    9.6923  -22.2615   24.1536 N   0  0  0  0  0  0  0  0  0  0  0  0
   13.3717  -17.3140   20.0246 C   0  0  0  0  0  0  0  0  0  0  0  0
   13.4241  -16.9109   18.7064 O   0  0  0  0  0  0  0  0  0  0  0  0
   14.5314  -17.3830   20.5843 O   0  0  0  0  0  0  0  0  0  0  0  0
  2  1  1  1
  2 13  1  0
  2  3  1  0
  3  4  1  0
  4  5  2  0
  5  6  1  0
  7  8  2  0
  7  6  1  0
  9  8  1  0
 10  9  2  0
 11 10  1  0
 11 12  2  0
 12  4  1  0
 12  7  1  0
 13 14  2  0
 13 15  1  0
 15 19  1  0
 15 16  1  0
 16 17  1  0
 18 17  1  0
 19 18  1  0
 19 20  1  1
 21 20  2  0
 22 20  1  0
 23 29  1  0
 23 22  1  0
 23 24  1  6
 25 24  1  0
 26 25  1  0
 27 26  1  0
 27 28  1  0
 29 30  1  0
 31 29  2  0
M  END
$$$$
