WPK.pdb
     RDKit          3D

 31 33  0  0  1  0  0  0  0  0999 V2000
    6.3291  -18.2527   24.6491 N   0  0  0  0  0  0  0  0  0  0  0  0
    6.7942  -16.9862   24.1427 C   0  0  1  0  0  0  0  0  0  0  0  0
    7.5576  -16.2972   25.2429 C   0  0  0  0  0  0  0  0  0  0  0  0
    6.8338  -15.1847   25.8455 C   0  0  0  0  0  0  0  0  0  0  0  0
    5.5429  -15.2210   26.3148 C   0  0  0  0  0  0  0  0  0  0  0  0
    5.2434  -14.0013   26.7945 N   0  0  0  0  0  0  0  0  0  0  0  0
    6.2743  -13.1609   26.6648 C   0  0  0  0  0  0  0  0  0  0  0  0
    6.4511  -11.8351   26.9999 C   0  0  0  0  0  0  0  0  0  0  0  0
    7.6460  -11.2029   26.7465 C   0  0  0  0  0  0  0  0  0  0  0  0
    8.6623  -11.9209   26.1514 C   0  0  0  0  0  0  0  0  0  0  0  0
    8.4783  -13.2372   25.8220 C   0  0  0  0  0  0  0  0  0  0  0  0
    7.2918  -13.9069   26.0609 C   0  0  0  0  0  0  0  0  0  0  0  0
    7.5590  -17.0726   22.8848 C   0  0  0  0  0  0  0  0  0  0  0  0
    7.9003  -18.2281   22.4882 O   0  0  0  0  0  0  0  0  0  0  0  0
    7.9486  -15.9707   22.0762 N   0  0  0  0  0  0  0  0  0  0  0  0
    7.6183  -14.5791   22.2763 C   0  0  0  0  0  0  0  0  0  0  0  0
    8.0568  -13.8496   21.0109 C   0  0  0  0  0  0  0  0  0  0  0  0
    8.2061  -14.9945   19.9962 C   0  0  0  0  0  0  0  0  0  0  0  0
    8.7630  -16.0700   20.8971 C   0  0  1  0  0  0  0  0  0  0  0  0
   10.1889  -15.7682   21.1424 C   0  0  0  0  0  0  0  0  0  0  0  0
   10.4221  -14.9251   22.0647 O   0  0  0  0  0  0  0  0  0  0  0  0
   11.2593  -16.3340   20.4455 N   0  0  0  0  0  0  0  0  0  0  0  0
   12.4105  -17.0064   21.1762 C   0  0  1  0  0  0  0  0  0  0  0  0
   11.7868  -18.0987   21.9198 C   0  0  0  0  0  0  0  0  0  0  0  0
   12.4117  -18.7369   23.0888 C   0  0  0  0  0  0  0  0  0  0  0  0
   11.5642  -19.7343   23.7689 C   0  0  0  0  0  0  0  0  0  0  0  0
   12.2374  -20.2992   25.0246 C   0  0  0  0  0  0  0  0  0  0  0  0
   11.1527  -20.7447   25.8992 N   0  0  0  0  0  0  0  0  0  0  0  0
   13.5168  -17.1364   20.2897 C   0  0  0  0  0  0  0  0  0  0  0  0
   14.8626  -17.0098   20.5649 O   0  0  0  0  0  0  0  0  0  0  0  0
   13.2710  -17.3971   19.0508 O   0  0  0  0  0  0  0  0  0  0  0  0
  2  1  1  1
  2 13  1  0
  2  3  1  0
  3  4  1  0
  4  5  2  0
  5  6  1  0
  7  8  2  0
  7  6  1  0
  9  8  1  0
 10  9  2  0
 11 10  1  0
 11 12  2  0
 12  4  1  0
 12  7  1  0
 13 14  2  0
 13 15  1  0
 15 19  1  0
 15 16  1  0
 16 17  1  0
 18 17  1  0
 19 18  1  0
 19 20  1  1
 21 20  2  0
 22 20  1  0
 23 29  1  0
 23 22  1  0
 23 24  1  6
 25 24  1  0
 26 25  1  0
 27 26  1  0
 27 28  1  0
 29 30  1  0
 31 29  2  0
M  END
$$$$
