WPK.pdb
     RDKit          3D

 31 33  0  0  1  0  0  0  0  0999 V2000
    6.1762  -17.7445   24.6855 N   0  0  0  0  0  0  0  0  0  0  0  0
    6.6683  -16.5167   24.1139 C   0  0  1  0  0  0  0  0  0  0  0  0
    7.4248  -15.7755   25.1846 C   0  0  0  0  0  0  0  0  0  0  0  0
    6.6420  -14.7315   25.8342 C   0  0  0  0  0  0  0  0  0  0  0  0
    5.3512  -14.8552   26.2890 C   0  0  0  0  0  0  0  0  0  0  0  0
    4.9876  -13.6772   26.8251 N   0  0  0  0  0  0  0  0  0  0  0  0
    5.9759  -12.7812   26.7465 C   0  0  0  0  0  0  0  0  0  0  0  0
    6.0835  -11.4664   27.1479 C   0  0  0  0  0  0  0  0  0  0  0  0
    7.2469  -10.7637   26.9371 C   0  0  0  0  0  0  0  0  0  0  0  0
    8.3021  -11.3999   26.3171 C   0  0  0  0  0  0  0  0  0  0  0  0
    8.1868  -12.7058   25.9218 C   0  0  0  0  0  0  0  0  0  0  0  0
    7.0337  -13.4448   26.1163 C   0  0  0  0  0  0  0  0  0  0  0  0
    7.4513  -16.6874   22.8760 C   0  0  0  0  0  0  0  0  0  0  0  0
    7.7007  -17.8738   22.5029 O   0  0  0  0  0  0  0  0  0  0  0  0
    7.9527  -15.6353   22.0626 N   0  0  0  0  0  0  0  0  0  0  0  0
    7.7359  -14.2178   22.2343 C   0  0  0  0  0  0  0  0  0  0  0  0
    8.2662  -13.5483   20.9708 C   0  0  0  0  0  0  0  0  0  0  0  0
    8.3442  -14.7180   19.9767 C   0  0  0  0  0  0  0  0  0  0  0  0
    8.7854  -15.8217   20.9071 C   0  0  1  0  0  0  0  0  0  0  0  0
   10.2251  -15.6367   21.1860 C   0  0  0  0  0  0  0  0  0  0  0  0
   10.5083  -14.7484   22.0501 O   0  0  0  0  0  0  0  0  0  0  0  0
   11.2580  -16.3541   20.5778 N   0  0  0  0  0  0  0  0  0  0  0  0
   12.3479  -17.0211   21.4015 C   0  0  1  0  0  0  0  0  0  0  0  0
   11.9278  -18.4166   21.5070 C   0  0  0  0  0  0  0  0  0  0  0  0
   12.7175  -19.4449   22.2022 C   0  0  0  0  0  0  0  0  0  0  0  0
   12.1607  -20.8080   22.1159 C   0  0  0  0  0  0  0  0  0  0  0  0
   12.9856  -21.8173   22.9222 C   0  0  0  0  0  0  0  0  0  0  0  0
   12.2740  -23.0916   22.8235 N   0  0  0  0  0  0  0  0  0  0  0  0
   13.6203  -16.5734   20.9461 C   0  0  0  0  0  0  0  0  0  0  0  0
   14.0089  -16.2358   19.6664 O   0  0  0  0  0  0  0  0  0  0  0  0
   14.5686  -16.4653   21.8134 O   0  0  0  0  0  0  0  0  0  0  0  0
  2  1  1  1
  2 13  1  0
  2  3  1  0
  3  4  1  0
  4  5  2  0
  5  6  1  0
  7  8  2  0
  7  6  1  0
  9  8  1  0
 10  9  2  0
 11 10  1  0
 11 12  2  0
 12  4  1  0
 12  7  1  0
 13 14  2  0
 13 15  1  0
 15 19  1  0
 15 16  1  0
 16 17  1  0
 18 17  1  0
 19 18  1  0
 19 20  1  1
 21 20  2  0
 22 20  1  0
 23 29  1  0
 23 22  1  0
 23 24  1  6
 25 24  1  0
 26 25  1  0
 27 26  1  0
 27 28  1  0
 29 30  1  0
 31 29  2  0
M  END
$$$$
