WPK.pdb
     RDKit          3D

 31 33  0  0  1  0  0  0  0  0999 V2000
    6.5966  -17.3206   23.7625 N   0  0  0  0  0  0  0  0  0  0  0  0
    7.0138  -16.0848   23.1498 C   0  0  1  0  0  0  0  0  0  0  0  0
    7.9288  -15.3741   24.1120 C   0  0  0  0  0  0  0  0  0  0  0  0
    7.2311  -14.7670   25.2385 C   0  0  0  0  0  0  0  0  0  0  0  0
    6.4959  -15.4350   26.1879 C   0  0  0  0  0  0  0  0  0  0  0  0
    6.0172  -14.5258   27.0548 N   0  0  0  0  0  0  0  0  0  0  0  0
    6.4009  -13.2891   26.7240 C   0  0  0  0  0  0  0  0  0  0  0  0
    6.1704  -12.0531   27.2901 C   0  0  0  0  0  0  0  0  0  0  0  0
    6.7009  -10.9160   26.7268 C   0  0  0  0  0  0  0  0  0  0  0  0
    7.4669  -11.0370   25.5861 C   0  0  0  0  0  0  0  0  0  0  0  0
    7.6908  -12.2684   25.0306 C   0  0  0  0  0  0  0  0  0  0  0  0
    7.1746  -13.4338   25.5678 C   0  0  0  0  0  0  0  0  0  0  0  0
    7.6035  -16.2351   21.8066 C   0  0  0  0  0  0  0  0  0  0  0  0
    7.7360  -17.4136   21.3566 O   0  0  0  0  0  0  0  0  0  0  0  0
    8.0380  -15.1714   20.9701 N   0  0  0  0  0  0  0  0  0  0  0  0
    8.0324  -13.7600   21.2762 C   0  0  0  0  0  0  0  0  0  0  0  0
    8.3525  -13.0385   19.9712 C   0  0  0  0  0  0  0  0  0  0  0  0
    8.0749  -14.1177   18.9125 C   0  0  0  0  0  0  0  0  0  0  0  0
    8.5733  -15.3382   19.6476 C   0  0  1  0  0  0  0  0  0  0  0  0
   10.0507  -15.3251   19.6073 C   0  0  0  0  0  0  0  0  0  0  0  0
   10.6169  -14.5502   20.4408 O   0  0  0  0  0  0  0  0  0  0  0  0
   10.8355  -16.0864   18.7378 N   0  0  0  0  0  0  0  0  0  0  0  0
   11.8524  -17.0871   19.2629 C   0  0  1  0  0  0  0  0  0  0  0  0
   11.0994  -17.9219   20.1963 C   0  0  0  0  0  0  0  0  0  0  0  0
   11.7356  -18.8824   21.1111 C   0  0  0  0  0  0  0  0  0  0  0  0
   10.8049  -19.5592   22.0338 C   0  0  0  0  0  0  0  0  0  0  0  0
   11.5150  -20.6043   22.9013 C   0  0  0  0  0  0  0  0  0  0  0  0
   10.6409  -20.8368   24.0510 N   0  0  0  0  0  0  0  0  0  0  0  0
   12.6428  -17.5651   18.1796 C   0  0  0  0  0  0  0  0  0  0  0  0
   13.9737  -17.9279   18.1769 O   0  0  0  0  0  0  0  0  0  0  0  0
   12.0797  -17.6790   17.0251 O   0  0  0  0  0  0  0  0  0  0  0  0
  2  1  1  1
  2 13  1  0
  2  3  1  0
  3  4  1  0
  4  5  2  0
  5  6  1  0
  7  8  2  0
  7  6  1  0
  9  8  1  0
 10  9  2  0
 11 10  1  0
 11 12  2  0
 12  4  1  0
 12  7  1  0
 13 14  2  0
 13 15  1  0
 15 19  1  0
 15 16  1  0
 16 17  1  0
 18 17  1  0
 19 18  1  0
 19 20  1  1
 21 20  2  0
 22 20  1  0
 23 29  1  0
 23 22  1  0
 23 24  1  6
 25 24  1  0
 26 25  1  0
 27 26  1  0
 27 28  1  0
 29 30  1  0
 31 29  2  0
M  END
$$$$
