RYA.pdb
     RDKit          3D

 29 29  0  0  1  0  0  0  0  0999 V2000
    9.4367  -14.4757   15.7514 N   0  0  0  0  0  0  0  0  0  0  0  0
    8.0637  -14.1786   15.5468 C   0  0  0  0  0  0  0  0  0  0  0  0
    7.5071  -14.2607   14.3739 N   0  0  0  0  0  0  0  0  0  0  0  0
    7.2567  -13.7772   16.6463 N   0  0  0  0  0  0  0  0  0  0  0  0
    7.9274  -13.5757   17.9393 C   0  0  0  0  0  0  0  0  0  0  0  0
    8.9485  -14.6374   18.1262 C   0  0  0  0  0  0  0  0  0  0  0  0
    9.7405  -14.5907   19.3757 C   0  0  0  0  0  0  0  0  0  0  0  0
    9.5941  -15.7496   20.3042 C   0  0  2  0  0  0  0  0  0  0  0  0
    8.2780  -16.3198   20.0861 N   0  0  0  0  0  0  0  0  0  0  0  0
    9.5506  -15.1717   21.6960 C   0  0  0  0  0  0  0  0  0  0  0  0
   10.5953  -14.5188   22.0380 O   0  0  0  0  0  0  0  0  0  0  0  0
    6.4879  -14.0765   14.3270 O   0  0  0  0  0  0  0  0  0  0  0  0
    6.5518  -11.8340   29.2649 C   0  0  0  0  0  0  0  0  0  0  0  0
    6.6977  -12.4115   27.9972 C   0  0  0  0  0  0  0  0  0  0  0  0
    6.0584  -13.5871   27.7072 C   0  0  0  0  0  0  0  0  0  0  0  0
    6.2097  -14.1443   26.4577 C   0  0  0  0  0  0  0  0  0  0  0  0
    6.9874  -13.5504   25.4926 C   0  0  0  0  0  0  0  0  0  0  0  0
    7.1408  -14.1651   24.1730 C   0  0  1  0  0  0  0  0  0  0  0  0
    8.5084  -14.7531   23.9079 N   0  0  0  0  0  0  0  0  0  0  0  0
    8.4504  -15.3285   22.5678 C   0  0  0  0  0  0  0  0  0  0  0  0
    8.8186  -15.7787   24.9100 O   0  0  0  0  0  0  0  0  0  0  0  0
    8.9271  -15.5120   26.1332 C   0  0  0  0  0  0  0  0  0  0  0  0
    7.6274  -12.3720   25.7861 C   0  0  0  0  0  0  0  0  0  0  0  0
    7.4762  -11.8165   27.0313 C   0  0  0  0  0  0  0  0  0  0  0  0
    9.2008  -19.5265   24.8334 C   0  0  2  0  0  0  0  0  0  0  0  0
    9.3682  -18.1717   25.5274 N   0  0  0  0  0  0  0  0  0  0  0  0
    9.0218  -17.1617   24.5720 C   0  0  0  0  0  0  0  0  0  0  0  0
   10.7340  -18.0160   26.0678 O   0  0  0  0  0  0  0  0  0  0  0  0
   10.9953  -18.1761   27.2853 O   0  0  0  0  0  0  0  0  0  0  0  0
  1  2  1  0
  2  3  2  0
  4  5  1  0
  4  2  1  0
  6  5  1  0
  7  6  1  0
  8 10  1  0
  8  7  1  0
  8  9  1  6
 10 11  2  0
 12 13  1  0
 13 23  2  0
 13 14  1  0
 14 15  2  0
 15 16  1  0
 16 17  1  0
 18 17  1  6
 19 18  1  0
 19 10  1  0
 20 18  1  0
 20 21  2  0
 22 16  2  0
 23 22  1  0
 25 24  1  1
 25 27  1  0
 25 26  1  0
 26 20  1  0
 27 29  1  0
 28 27  2  0
M  END
$$$$
