RYA.pdb
     RDKit          3D

 29 29  0  0  1  0  0  0  0  0999 V2000
    9.6602  -15.2068   14.7344 N   0  0  0  0  0  0  0  0  0  0  0  0
    8.4400  -14.5855   14.3594 C   0  0  0  0  0  0  0  0  0  0  0  0
    7.7878  -14.9351   13.2895 N   0  0  0  0  0  0  0  0  0  0  0  0
    7.8993  -13.5473   15.1662 N   0  0  0  0  0  0  0  0  0  0  0  0
    8.5383  -13.2996   16.4672 C   0  0  0  0  0  0  0  0  0  0  0  0
    8.2735  -14.4525   17.3646 C   0  0  0  0  0  0  0  0  0  0  0  0
    8.7877  -14.3541   18.7490 C   0  0  0  0  0  0  0  0  0  0  0  0
    8.9081  -15.6318   19.5104 C   0  0  2  0  0  0  0  0  0  0  0  0
    7.6269  -16.3079   19.4331 N   0  0  0  0  0  0  0  0  0  0  0  0
    9.0665  -15.2458   20.9591 C   0  0  0  0  0  0  0  0  0  0  0  0
   10.2428  -14.8671   21.2872 O   0  0  0  0  0  0  0  0  0  0  0  0
    6.9338  -14.3916   13.0651 O   0  0  0  0  0  0  0  0  0  0  0  0
    7.0321  -12.3463   29.0434 C   0  0  0  0  0  0  0  0  0  0  0  0
    7.0160  -12.8084   27.7212 C   0  0  0  0  0  0  0  0  0  0  0  0
    7.6509  -12.0919   26.7421 C   0  0  0  0  0  0  0  0  0  0  0  0
    7.6280  -12.5568   25.4467 C   0  0  0  0  0  0  0  0  0  0  0  0
    6.9831  -13.7229   25.1104 C   0  0  0  0  0  0  0  0  0  0  0  0
    6.9645  -14.1942   23.7246 C   0  0  1  0  0  0  0  0  0  0  0  0
    8.2458  -14.8539   23.2670 N   0  0  0  0  0  0  0  0  0  0  0  0
    8.0097  -15.2921   21.8950 C   0  0  0  0  0  0  0  0  0  0  0  0
    8.5655  -15.9911   24.1370 O   0  0  0  0  0  0  0  0  0  0  0  0
    7.8049  -16.9850   24.2507 C   0  0  0  0  0  0  0  0  0  0  0  0
    6.3473  -14.4391   26.0939 C   0  0  0  0  0  0  0  0  0  0  0  0
    6.3705  -13.9759   27.3849 C   0  0  0  0  0  0  0  0  0  0  0  0
   11.6114  -17.4908   25.4091 C   0  0  1  0  0  0  0  0  0  0  0  0
   10.1408  -17.1915   25.7140 N   0  0  0  0  0  0  0  0  0  0  0  0
    9.7678  -16.0564   24.9233 C   0  0  0  0  0  0  0  0  0  0  0  0
    9.9287  -16.9862   27.1612 O   0  0  0  0  0  0  0  0  0  0  0  0
    9.7099  -15.8516   27.6523 O   0  0  0  0  0  0  0  0  0  0  0  0
  1  2  1  0
  2  3  2  0
  4  5  1  0
  4  2  1  0
  6  5  1  0
  7  6  1  0
  8 10  1  0
  8  7  1  0
  8  9  1  1
 10 11  2  0
 12 13  1  0
 13 23  2  0
 13 14  1  0
 14 15  2  0
 15 16  1  0
 16 17  1  0
 18 17  1  6
 19 18  1  0
 19 10  1  0
 20 18  1  0
 20 21  2  0
 22 16  2  0
 23 22  1  0
 25 24  1  6
 25 27  1  0
 25 26  1  0
 26 20  1  0
 27 29  1  0
 28 27  2  0
M  END
$$$$
