RYA.pdb
     RDKit          3D

 29 29  0  0  1  0  0  0  0  0999 V2000
    7.8232  -12.5311   17.3193 N   0  0  0  0  0  0  0  0  0  0  0  0
    8.1813  -13.6904   16.5823 C   0  0  0  0  0  0  0  0  0  0  0  0
    8.7203  -13.6180   15.4006 N   0  0  0  0  0  0  0  0  0  0  0  0
    7.9508  -14.9789   17.1372 N   0  0  0  0  0  0  0  0  0  0  0  0
    7.0284  -15.0683   18.2789 C   0  0  0  0  0  0  0  0  0  0  0  0
    7.8174  -15.1854   19.5313 C   0  0  0  0  0  0  0  0  0  0  0  0
    7.6046  -16.4040   20.3441 C   0  0  0  0  0  0  0  0  0  0  0  0
    6.8639  -16.2310   21.6278 C   0  0  2  0  0  0  0  0  0  0  0  0
    5.8234  -15.2456   21.4018 N   0  0  0  0  0  0  0  0  0  0  0  0
    7.8277  -15.5780   22.5858 C   0  0  0  0  0  0  0  0  0  0  0  0
    8.2904  -14.4517   22.1958 O   0  0  0  0  0  0  0  0  0  0  0  0
    8.9560  -14.5161   14.9392 O   0  0  0  0  0  0  0  0  0  0  0  0
    5.3738  -10.6510   26.4784 C   0  0  0  0  0  0  0  0  0  0  0  0
    6.1568  -11.8069   26.3653 C   0  0  0  0  0  0  0  0  0  0  0  0
    7.4843  -11.7011   26.0465 C   0  0  0  0  0  0  0  0  0  0  0  0
    8.2430  -12.8445   25.9385 C   0  0  0  0  0  0  0  0  0  0  0  0
    7.7015  -14.0912   26.1425 C   0  0  0  0  0  0  0  0  0  0  0  0
    8.5254  -15.2944   26.0143 C   0  0  2  0  0  0  0  0  0  0  0  0
    9.1801  -15.4677   24.6624 N   0  0  0  0  0  0  0  0  0  0  0  0
    8.2017  -16.1504   23.8216 C   0  0  0  0  0  0  0  0  0  0  0  0
   10.4073  -16.2606   24.7950 O   0  0  0  0  0  0  0  0  0  0  0  0
   11.3525  -15.9154   25.5478 C   0  0  0  0  0  0  0  0  0  0  0  0
    6.3704  -14.1943   26.4619 C   0  0  0  0  0  0  0  0  0  0  0  0
    5.6145  -13.0546   26.5698 C   0  0  0  0  0  0  0  0  0  0  0  0
   11.5293  -19.6119   23.4770 C   0  0  2  0  0  0  0  0  0  0  0  0
   11.7913  -18.3034   24.2283 N   0  0  0  0  0  0  0  0  0  0  0  0
   10.6229  -17.4880   24.0772 C   0  0  0  0  0  0  0  0  0  0  0  0
   13.0232  -17.6488   23.7429 O   0  0  0  0  0  0  0  0  0  0  0  0
   12.9976  -16.6003   23.0528 O   0  0  0  0  0  0  0  0  0  0  0  0
  1  2  1  0
  2  3  2  0
  4  5  1  0
  4  2  1  0
  6  5  1  0
  7  6  1  0
  8 10  1  0
  8  7  1  0
  8  9  1  6
 10 11  2  0
 12 13  1  0
 13 23  2  0
 13 14  1  0
 14 15  2  0
 15 16  1  0
 16 17  1  0
 18 17  1  6
 19 18  1  0
 19 10  1  0
 20 18  1  0
 20 21  2  0
 22 16  2  0
 23 22  1  0
 25 24  1  1
 25 27  1  0
 25 26  1  0
 26 20  1  0
 27 29  1  0
 28 27  2  0
M  END
$$$$
