RYA.pdb
     RDKit          3D

 29 29  0  0  1  0  0  0  0  0999 V2000
    7.5962  -13.7214   17.3811 N   0  0  0  0  0  0  0  0  0  0  0  0
    8.5350  -13.8728   16.3270 C   0  0  0  0  0  0  0  0  0  0  0  0
    8.8443  -12.8908   15.5318 N   0  0  0  0  0  0  0  0  0  0  0  0
    9.1665  -15.1295   16.1190 N   0  0  0  0  0  0  0  0  0  0  0  0
    8.5771  -16.3007   16.7846 C   0  0  0  0  0  0  0  0  0  0  0  0
    8.5665  -16.0703   18.2514 C   0  0  0  0  0  0  0  0  0  0  0  0
    8.0899  -17.1854   19.0999 C   0  0  0  0  0  0  0  0  0  0  0  0
    8.9962  -17.6223   20.2019 C   0  0  2  0  0  0  0  0  0  0  0  0
    8.3111  -18.6646   20.9428 N   0  0  0  0  0  0  0  0  0  0  0  0
    9.0940  -16.4574   21.1540 C   0  0  0  0  0  0  0  0  0  0  0  0
    9.8575  -15.5090   20.7637 O   0  0  0  0  0  0  0  0  0  0  0  0
    9.5523  -13.0877   14.8005 O   0  0  0  0  0  0  0  0  0  0  0  0
    6.2991  -11.2540   27.7580 C   0  0  0  0  0  0  0  0  0  0  0  0
    6.5016  -12.1017   26.6615 C   0  0  0  0  0  0  0  0  0  0  0  0
    6.9354  -11.5825   25.4710 C   0  0  0  0  0  0  0  0  0  0  0  0
    7.1308  -12.4261   24.4010 C   0  0  0  0  0  0  0  0  0  0  0  0
    6.9010  -13.7777   24.4970 C   0  0  0  0  0  0  0  0  0  0  0  0
    7.1075  -14.6551   23.3436 C   0  0  1  0  0  0  0  0  0  0  0  0
    8.5105  -15.2038   23.2134 N   0  0  0  0  0  0  0  0  0  0  0  0
    8.4035  -16.4005   22.3847 C   0  0  0  0  0  0  0  0  0  0  0  0
    9.0503  -15.5258   24.5390 O   0  0  0  0  0  0  0  0  0  0  0  0
    9.2851  -14.6428   25.4018 C   0  0  0  0  0  0  0  0  0  0  0  0
    6.4660  -14.2954   25.6916 C   0  0  0  0  0  0  0  0  0  0  0  0
    6.2717  -13.4547   26.7581 C   0  0  0  0  0  0  0  0  0  0  0  0
    9.1960  -18.3558   26.8123 C   0  0  2  0  0  0  0  0  0  0  0  0
    9.9851  -17.1979   26.1943 N   0  0  0  0  0  0  0  0  0  0  0  0
    9.3515  -16.8702   24.9518 C   0  0  0  0  0  0  0  0  0  0  0  0
   11.4124  -17.5473   26.0439 O   0  0  0  0  0  0  0  0  0  0  0  0
   11.9602  -17.6591   24.9198 O   0  0  0  0  0  0  0  0  0  0  0  0
  1  2  1  0
  2  3  2  0
  4  5  1  0
  4  2  1  0
  6  5  1  0
  7  6  1  0
  8 10  1  0
  8  7  1  0
  8  9  1  1
 10 11  2  0
 12 13  1  0
 13 23  2  0
 13 14  1  0
 14 15  2  0
 15 16  1  0
 16 17  1  0
 18 17  1  6
 19 18  1  0
 19 10  1  0
 20 18  1  0
 20 21  2  0
 22 16  2  0
 23 22  1  0
 25 24  1  1
 25 27  1  0
 25 26  1  0
 26 20  1  0
 27 29  1  0
 28 27  2  0
M  END
$$$$
