RYA.pdb
     RDKit          3D

 29 29  0  0  1  0  0  0  0  0999 V2000
    9.0883  -15.3122   16.4186 N   0  0  0  0  0  0  0  0  0  0  0  0
    8.3732  -14.1224   16.1212 C   0  0  0  0  0  0  0  0  0  0  0  0
    8.0310  -13.8081   14.9061 N   0  0  0  0  0  0  0  0  0  0  0  0
    8.0113  -13.2350   17.1714 N   0  0  0  0  0  0  0  0  0  0  0  0
    8.3111  -13.6580   18.5474 C   0  0  0  0  0  0  0  0  0  0  0  0
    7.0760  -14.2006   19.1677 C   0  0  0  0  0  0  0  0  0  0  0  0
    7.2520  -15.2109   20.2349 C   0  0  0  0  0  0  0  0  0  0  0  0
    8.5932  -15.2691   20.8863 C   0  0  2  0  0  0  0  0  0  0  0  0
    9.1960  -16.5399   20.5307 N   0  0  0  0  0  0  0  0  0  0  0  0
    8.3380  -15.3522   22.3698 C   0  0  0  0  0  0  0  0  0  0  0  0
    7.1962  -14.9139   22.7425 O   0  0  0  0  0  0  0  0  0  0  0  0
    7.4650  -12.9475   14.7884 O   0  0  0  0  0  0  0  0  0  0  0  0
   10.3498  -15.5691   31.0049 C   0  0  0  0  0  0  0  0  0  0  0  0
   10.3574  -15.6665   29.6076 C   0  0  0  0  0  0  0  0  0  0  0  0
   10.1367  -16.8778   29.0085 C   0  0  0  0  0  0  0  0  0  0  0  0
   10.1466  -16.9601   27.6346 C   0  0  0  0  0  0  0  0  0  0  0  0
   10.3729  -15.8564   26.8476 C   0  0  0  0  0  0  0  0  0  0  0  0
   10.3872  -15.9687   25.3882 C   0  0  2  0  0  0  0  0  0  0  0  0
    9.0645  -15.6665   24.7208 N   0  0  0  0  0  0  0  0  0  0  0  0
    9.2748  -15.8707   23.2910 C   0  0  0  0  0  0  0  0  0  0  0  0
    8.6619  -14.2843   25.0033 O   0  0  0  0  0  0  0  0  0  0  0  0
    9.3133  -13.2953   24.5830 C   0  0  0  0  0  0  0  0  0  0  0  0
   10.5941  -14.6433   27.4508 C   0  0  0  0  0  0  0  0  0  0  0  0
   10.5839  -14.5612   28.8202 C   0  0  0  0  0  0  0  0  0  0  0  0
    5.9308  -12.2035   25.3655 C   0  0  1  0  0  0  0  0  0  0  0  0
    7.1578  -12.6225   26.1805 N   0  0  0  0  0  0  0  0  0  0  0  0
    7.4966  -13.9556   25.7793 C   0  0  0  0  0  0  0  0  0  0  0  0
    6.9010  -12.4997   27.6298 O   0  0  0  0  0  0  0  0  0  0  0  0
    6.6113  -11.4033   28.1686 O   0  0  0  0  0  0  0  0  0  0  0  0
  1  2  1  0
  2  3  2  0
  4  5  1  0
  4  2  1  0
  6  5  1  0
  7  6  1  0
  8 10  1  0
  8  7  1  0
  8  9  1  6
 10 11  2  0
 12 13  1  0
 13 23  2  0
 13 14  1  0
 14 15  2  0
 15 16  1  0
 16 17  1  0
 18 17  1  1
 19 18  1  0
 19 10  1  0
 20 18  1  0
 20 21  2  0
 22 16  2  0
 23 22  1  0
 25 24  1  6
 25 27  1  0
 25 26  1  0
 26 20  1  0
 27 29  1  0
 28 27  2  0
M  END
$$$$
