RYA.pdb
     RDKit          3D

 29 29  0  0  1  0  0  0  0  0999 V2000
    8.3771  -15.1185   15.6137 N   0  0  0  0  0  0  0  0  0  0  0  0
    7.9438  -13.7684   15.6837 C   0  0  0  0  0  0  0  0  0  0  0  0
    7.7669  -13.0441   14.6177 N   0  0  0  0  0  0  0  0  0  0  0  0
    7.6905  -13.1730   16.9496 N   0  0  0  0  0  0  0  0  0  0  0  0
    7.2779  -14.0629   18.0450 C   0  0  0  0  0  0  0  0  0  0  0  0
    8.3359  -15.0809   18.2671 C   0  0  0  0  0  0  0  0  0  0  0  0
    8.8319  -15.2384   19.6527 C   0  0  0  0  0  0  0  0  0  0  0  0
    8.6371  -14.0770   20.5691 C   0  0  2  0  0  0  0  0  0  0  0  0
    9.5830  -13.0491   20.1776 N   0  0  0  0  0  0  0  0  0  0  0  0
    9.0900  -14.5350   21.9321 C   0  0  0  0  0  0  0  0  0  0  0  0
   10.3443  -14.4139   22.1487 O   0  0  0  0  0  0  0  0  0  0  0  0
    7.4387  -12.0715   14.7635 O   0  0  0  0  0  0  0  0  0  0  0  0
    6.4428  -10.0411   27.0496 C   0  0  0  0  0  0  0  0  0  0  0  0
    6.7146  -11.3332   26.5820 C   0  0  0  0  0  0  0  0  0  0  0  0
    5.7301  -12.0527   25.9591 C   0  0  0  0  0  0  0  0  0  0  0  0
    6.0101  -13.3212   25.5039 C   0  0  0  0  0  0  0  0  0  0  0  0
    7.2539  -13.8849   25.6591 C   0  0  0  0  0  0  0  0  0  0  0  0
    7.5270  -15.2389   25.1745 C   0  0  2  0  0  0  0  0  0  0  0  0
    8.7154  -15.3472   24.2459 N   0  0  0  0  0  0  0  0  0  0  0  0
    8.2121  -15.0592   22.9065 C   0  0  0  0  0  0  0  0  0  0  0  0
    9.2882  -16.6960   24.3161 O   0  0  0  0  0  0  0  0  0  0  0  0
    8.6460  -17.7180   23.9662 C   0  0  0  0  0  0  0  0  0  0  0  0
    8.2389  -13.1613   26.2840 C   0  0  0  0  0  0  0  0  0  0  0  0
    7.9599  -11.8970   26.7373 C   0  0  0  0  0  0  0  0  0  0  0  0
   12.6478  -18.1765   24.4877 C   0  0  1  0  0  0  0  0  0  0  0  0
   11.1813  -18.2646   24.9202 N   0  0  0  0  0  0  0  0  0  0  0  0
   10.6222  -16.9521   24.7885 C   0  0  0  0  0  0  0  0  0  0  0  0
   11.0618  -18.8125   26.2866 O   0  0  0  0  0  0  0  0  0  0  0  0
   10.5496  -18.1588   27.2283 O   0  0  0  0  0  0  0  0  0  0  0  0
  1  2  1  0
  2  3  2  0
  4  5  1  0
  4  2  1  0
  6  5  1  0
  7  6  1  0
  8 10  1  0
  8  7  1  0
  8  9  1  6
 10 11  2  0
 12 13  1  0
 13 23  2  0
 13 14  1  0
 14 15  2  0
 15 16  1  0
 16 17  1  0
 18 17  1  1
 19 18  1  0
 19 10  1  0
 20 18  1  0
 20 21  2  0
 22 16  2  0
 23 22  1  0
 25 24  1  6
 25 27  1  0
 25 26  1  0
 26 20  1  0
 27 29  1  0
 28 27  2  0
M  END
$$$$
