RYA.pdb
     RDKit          3D

 29 29  0  0  1  0  0  0  0  0999 V2000
    4.8637  -21.4821   21.8831 N   0  0  0  0  0  0  0  0  0  0  0  0
    5.6756  -22.0199   20.8501 C   0  0  0  0  0  0  0  0  0  0  0  0
    5.2807  -23.0125   20.1078 N   0  0  0  0  0  0  0  0  0  0  0  0
    6.9631  -21.4689   20.6049 N   0  0  0  0  0  0  0  0  0  0  0  0
    7.4080  -20.3743   21.4802 C   0  0  0  0  0  0  0  0  0  0  0  0
    8.7397  -19.9007   21.0253 C   0  0  0  0  0  0  0  0  0  0  0  0
    9.3706  -18.8197   21.8152 C   0  0  0  0  0  0  0  0  0  0  0  0
    9.4214  -17.4699   21.1811 C   0  0  2  0  0  0  0  0  0  0  0  0
   10.7293  -17.3237   20.5706 N   0  0  0  0  0  0  0  0  0  0  0  0
    9.3969  -16.4722   22.3110 C   0  0  0  0  0  0  0  0  0  0  0  0
   10.5377  -16.2258   22.8331 O   0  0  0  0  0  0  0  0  0  0  0  0
    5.9410  -23.3423   19.3796 O   0  0  0  0  0  0  0  0  0  0  0  0
    6.3330  -10.5277   28.1319 C   0  0  0  0  0  0  0  0  0  0  0  0
    6.5029  -11.4112   27.0583 C   0  0  0  0  0  0  0  0  0  0  0  0
    5.7384  -12.5446   26.9821 C   0  0  0  0  0  0  0  0  0  0  0  0
    5.9149  -13.4046   25.9220 C   0  0  0  0  0  0  0  0  0  0  0  0
    6.8402  -13.1547   24.9370 C   0  0  0  0  0  0  0  0  0  0  0  0
    7.0168  -14.0876   23.8228 C   0  0  1  0  0  0  0  0  0  0  0  0
    8.2881  -14.9041   23.8811 N   0  0  0  0  0  0  0  0  0  0  0  0
    8.2160  -15.8481   22.7703 C   0  0  0  0  0  0  0  0  0  0  0  0
    8.3772  -15.6064   25.1661 O   0  0  0  0  0  0  0  0  0  0  0  0
    8.7034  -15.0225   26.2300 C   0  0  0  0  0  0  0  0  0  0  0  0
    7.6054  -12.0177   25.0160 C   0  0  0  0  0  0  0  0  0  0  0  0
    7.4291  -11.1605   26.0724 C   0  0  0  0  0  0  0  0  0  0  0  0
    7.4617  -19.0343   26.3981 C   0  0  2  0  0  0  0  0  0  0  0  0
    8.2587  -17.7336   26.5338 N   0  0  0  0  0  0  0  0  0  0  0  0
    8.0996  -17.0104   25.3072 C   0  0  0  0  0  0  0  0  0  0  0  0
    9.6712  -18.0076   26.8675 O   0  0  0  0  0  0  0  0  0  0  0  0
   10.6035  -17.8092   26.0504 O   0  0  0  0  0  0  0  0  0  0  0  0
  1  2  1  0
  2  3  2  0
  4  5  1  0
  4  2  1  0
  6  5  1  0
  7  6  1  0
  8 10  1  0
  8  7  1  0
  8  9  1  1
 10 11  2  0
 12 13  1  0
 13 23  2  0
 13 14  1  0
 14 15  2  0
 15 16  1  0
 16 17  1  0
 18 17  1  6
 19 18  1  0
 19 10  1  0
 20 18  1  0
 20 21  2  0
 22 16  2  0
 23 22  1  0
 25 24  1  1
 25 27  1  0
 25 26  1  0
 26 20  1  0
 27 29  1  0
 28 27  2  0
M  END
$$$$
