RYA.pdb
     RDKit          3D

 29 29  0  0  1  0  0  0  0  0999 V2000
    7.3182  -12.7884   16.6834 N   0  0  0  0  0  0  0  0  0  0  0  0
    7.9825  -13.9505   16.2106 C   0  0  0  0  0  0  0  0  0  0  0  0
    8.7768  -13.9207   15.1808 N   0  0  0  0  0  0  0  0  0  0  0  0
    7.7855  -15.1942   16.8706 N   0  0  0  0  0  0  0  0  0  0  0  0
    6.9067  -15.2022   18.0496 C   0  0  0  0  0  0  0  0  0  0  0  0
    7.2917  -16.3316   18.9333 C   0  0  0  0  0  0  0  0  0  0  0  0
    8.0808  -15.9973   20.1400 C   0  0  0  0  0  0  0  0  0  0  0  0
    7.7952  -14.6814   20.7829 C   0  0  2  0  0  0  0  0  0  0  0  0
    8.3352  -13.6479   19.9198 N   0  0  0  0  0  0  0  0  0  0  0  0
    8.6348  -14.6324   22.0341 C   0  0  0  0  0  0  0  0  0  0  0  0
    9.8860  -14.4627   21.8335 O   0  0  0  0  0  0  0  0  0  0  0  0
    9.2567  -14.8064   14.9357 O   0  0  0  0  0  0  0  0  0  0  0  0
   10.7941  -15.2583   30.6104 C   0  0  0  0  0  0  0  0  0  0  0  0
   10.1604  -15.0299   29.3823 C   0  0  0  0  0  0  0  0  0  0  0  0
    9.4367  -16.0319   28.7931 C   0  0  0  0  0  0  0  0  0  0  0  0
    8.8186  -15.7947   27.5864 C   0  0  0  0  0  0  0  0  0  0  0  0
    8.9097  -14.5765   26.9566 C   0  0  0  0  0  0  0  0  0  0  0  0
    8.2509  -14.3490   25.6693 C   0  0  1  0  0  0  0  0  0  0  0  0
    9.0016  -14.8908   24.4738 N   0  0  0  0  0  0  0  0  0  0  0  0
    8.0987  -14.7617   23.3344 C   0  0  0  0  0  0  0  0  0  0  0  0
    9.3670  -16.2932   24.7018 O   0  0  0  0  0  0  0  0  0  0  0  0
    8.5072  -17.1884   24.8984 C   0  0  0  0  0  0  0  0  0  0  0  0
    9.6361  -13.5738   27.5494 C   0  0  0  0  0  0  0  0  0  0  0  0
   10.2517  -13.8102   28.7523 C   0  0  0  0  0  0  0  0  0  0  0  0
   11.9208  -18.5119   23.6353 C   0  0  1  0  0  0  0  0  0  0  0  0
   11.1077  -18.1235   24.8737 N   0  0  0  0  0  0  0  0  0  0  0  0
   10.7306  -16.7501   24.7180 C   0  0  0  0  0  0  0  0  0  0  0  0
   11.8702  -18.3796   26.1125 O   0  0  0  0  0  0  0  0  0  0  0  0
   12.2434  -19.5317   26.4437 O   0  0  0  0  0  0  0  0  0  0  0  0
  1  2  1  0
  2  3  2  0
  4  5  1  0
  4  2  1  0
  6  5  1  0
  7  6  1  0
  8 10  1  0
  8  7  1  0
  8  9  1  6
 10 11  2  0
 12 13  1  0
 13 23  2  0
 13 14  1  0
 14 15  2  0
 15 16  1  0
 16 17  1  0
 18 17  1  6
 19 18  1  0
 19 10  1  0
 20 18  1  0
 20 21  2  0
 22 16  2  0
 23 22  1  0
 25 24  1  6
 25 27  1  0
 25 26  1  0
 26 20  1  0
 27 29  1  0
 28 27  2  0
M  END
$$$$
