RYA.pdb
     RDKit          3D

 29 29  0  0  1  0  0  0  0  0999 V2000
    6.7517  -12.6209   19.8989 N   0  0  0  0  0  0  0  0  0  0  0  0
    7.5511  -13.2925   18.9371 C   0  0  0  0  0  0  0  0  0  0  0  0
    8.7918  -12.9663   18.7216 N   0  0  0  0  0  0  0  0  0  0  0  0
    6.9951  -14.3572   18.1764 N   0  0  0  0  0  0  0  0  0  0  0  0
    7.7871  -15.5906   18.0600 C   0  0  0  0  0  0  0  0  0  0  0  0
    7.4156  -16.5112   19.1642 C   0  0  0  0  0  0  0  0  0  0  0  0
    8.5008  -16.9293   20.0797 C   0  0  0  0  0  0  0  0  0  0  0  0
    9.6362  -15.9763   20.2507 C   0  0  2  0  0  0  0  0  0  0  0  0
   10.7490  -16.4784   19.4669 N   0  0  0  0  0  0  0  0  0  0  0  0
   10.0759  -16.0980   21.6876 C   0  0  0  0  0  0  0  0  0  0  0  0
   11.0182  -16.9380   21.8904 O   0  0  0  0  0  0  0  0  0  0  0  0
    9.2845  -13.4777   17.9661 O   0  0  0  0  0  0  0  0  0  0  0  0
   10.5808  -14.6501   30.4237 C   0  0  0  0  0  0  0  0  0  0  0  0
   10.2525  -14.6179   29.0624 C   0  0  0  0  0  0  0  0  0  0  0  0
   11.1951  -14.2406   28.1437 C   0  0  0  0  0  0  0  0  0  0  0  0
   10.8600  -14.2133   26.8090 C   0  0  0  0  0  0  0  0  0  0  0  0
    9.6018  -14.5550   26.3742 C   0  0  0  0  0  0  0  0  0  0  0  0
    9.2649  -14.5107   24.9504 C   0  0  1  0  0  0  0  0  0  0  0  0
   10.0573  -15.4655   24.0862 N   0  0  0  0  0  0  0  0  0  0  0  0
    9.5036  -15.3507   22.7407 C   0  0  0  0  0  0  0  0  0  0  0  0
    9.9253  -16.8346   24.5966 O   0  0  0  0  0  0  0  0  0  0  0  0
    8.8207  -17.4324   24.6393 C   0  0  0  0  0  0  0  0  0  0  0  0
    8.6586  -14.9326   27.2975 C   0  0  0  0  0  0  0  0  0  0  0  0
    8.9929  -14.9602   28.6277 C   0  0  0  0  0  0  0  0  0  0  0  0
   12.0241  -19.7690   25.0123 C   0  0  1  0  0  0  0  0  0  0  0  0
   10.9289  -18.9076   25.6477 N   0  0  0  0  0  0  0  0  0  0  0  0
   11.0439  -17.5949   25.0853 C   0  0  0  0  0  0  0  0  0  0  0  0
   11.0310  -18.9191   27.1212 O   0  0  0  0  0  0  0  0  0  0  0  0
   11.6107  -18.0069   27.7600 O   0  0  0  0  0  0  0  0  0  0  0  0
  1  2  1  0
  2  3  2  0
  4  5  1  0
  4  2  1  0
  6  5  1  0
  7  6  1  0
  8 10  1  0
  8  7  1  0
  8  9  1  6
 10 11  2  0
 12 13  1  0
 13 23  2  0
 13 14  1  0
 14 15  2  0
 15 16  1  0
 16 17  1  0
 18 17  1  6
 19 18  1  0
 19 10  1  0
 20 18  1  0
 20 21  2  0
 22 16  2  0
 23 22  1  0
 25 24  1  6
 25 27  1  0
 25 26  1  0
 26 20  1  0
 27 29  1  0
 28 27  2  0
M  END
$$$$
