RYA.pdb
     RDKit          3D

 29 29  0  0  1  0  0  0  0  0999 V2000
    7.6262  -12.3854   17.6142 N   0  0  0  0  0  0  0  0  0  0  0  0
    7.5434  -13.5504   16.8073 C   0  0  0  0  0  0  0  0  0  0  0  0
    8.2871  -13.7140   15.7526 N   0  0  0  0  0  0  0  0  0  0  0  0
    6.6248  -14.5809   17.1474 N   0  0  0  0  0  0  0  0  0  0  0  0
    6.7188  -15.1514   18.4994 C   0  0  0  0  0  0  0  0  0  0  0  0
    8.0649  -15.7518   18.6795 C   0  0  0  0  0  0  0  0  0  0  0  0
    8.6490  -15.6880   20.0379 C   0  0  0  0  0  0  0  0  0  0  0  0
    8.4700  -14.4081   20.7838 C   0  0  2  0  0  0  0  0  0  0  0  0
    9.2278  -13.3868   20.0856 N   0  0  0  0  0  0  0  0  0  0  0  0
    9.1718  -14.5889   22.1058 C   0  0  0  0  0  0  0  0  0  0  0  0
   10.4481  -14.6187   22.0353 O   0  0  0  0  0  0  0  0  0  0  0  0
    8.1395  -14.5836   15.2076 O   0  0  0  0  0  0  0  0  0  0  0  0
   10.4964  -15.3041   30.8430 C   0  0  0  0  0  0  0  0  0  0  0  0
    9.9714  -15.0942   29.5615 C   0  0  0  0  0  0  0  0  0  0  0  0
   10.0963  -13.8668   28.9675 C   0  0  0  0  0  0  0  0  0  0  0  0
    9.5763  -13.6735   27.7078 C   0  0  0  0  0  0  0  0  0  0  0  0
    8.9338  -14.6820   27.0303 C   0  0  0  0  0  0  0  0  0  0  0  0
    8.3811  -14.4516   25.6945 C   0  0  1  0  0  0  0  0  0  0  0  0
    9.2521  -14.9418   24.5599 N   0  0  0  0  0  0  0  0  0  0  0  0
    8.4896  -14.7168   23.3358 C   0  0  0  0  0  0  0  0  0  0  0  0
    9.5570  -16.3658   24.7379 O   0  0  0  0  0  0  0  0  0  0  0  0
    8.6607  -17.2459   24.7727 C   0  0  0  0  0  0  0  0  0  0  0  0
    8.8099  -15.9115   27.6282 C   0  0  0  0  0  0  0  0  0  0  0  0
    9.3286  -16.1041   28.8835 C   0  0  0  0  0  0  0  0  0  0  0  0
   12.4102  -18.5151   24.0631 C   0  0  1  0  0  0  0  0  0  0  0  0
   11.2244  -18.2533   24.9962 N   0  0  0  0  0  0  0  0  0  0  0  0
   10.8985  -16.8625   24.8857 C   0  0  0  0  0  0  0  0  0  0  0  0
   11.5340  -18.6692   26.3793 O   0  0  0  0  0  0  0  0  0  0  0  0
   11.7024  -17.8398   27.3067 O   0  0  0  0  0  0  0  0  0  0  0  0
  1  2  1  0
  2  3  2  0
  4  5  1  0
  4  2  1  0
  6  5  1  0
  7  6  1  0
  8 10  1  0
  8  7  1  0
  8  9  1  6
 10 11  2  0
 12 13  1  0
 13 23  2  0
 13 14  1  0
 14 15  2  0
 15 16  1  0
 16 17  1  0
 18 17  1  6
 19 18  1  0
 19 10  1  0
 20 18  1  0
 20 21  2  0
 22 16  2  0
 23 22  1  0
 25 24  1  6
 25 27  1  0
 25 26  1  0
 26 20  1  0
 27 29  1  0
 28 27  2  0
M  END
$$$$
