RYA.pdb
     RDKit          3D

 29 29  0  0  1  0  0  0  0  0999 V2000
    8.2830  -12.1970   17.1498 N   0  0  0  0  0  0  0  0  0  0  0  0
    7.8769  -13.4896   16.7259 C   0  0  0  0  0  0  0  0  0  0  0  0
    7.5680  -13.7449   15.4883 N   0  0  0  0  0  0  0  0  0  0  0  0
    7.7996  -14.5502   17.6696 N   0  0  0  0  0  0  0  0  0  0  0  0
    8.4484  -14.3441   18.9730 C   0  0  0  0  0  0  0  0  0  0  0  0
    7.4689  -13.7411   19.9120 C   0  0  0  0  0  0  0  0  0  0  0  0
    7.4129  -14.3110   21.2768 C   0  0  0  0  0  0  0  0  0  0  0  0
    8.2290  -15.5355   21.5245 C   0  0  2  0  0  0  0  0  0  0  0  0
    7.3100  -16.6244   21.7970 N   0  0  0  0  0  0  0  0  0  0  0  0
    8.9604  -15.2993   22.8214 C   0  0  0  0  0  0  0  0  0  0  0  0
    9.9398  -14.4812   22.7430 O   0  0  0  0  0  0  0  0  0  0  0  0
    7.3967  -14.7382   15.2453 O   0  0  0  0  0  0  0  0  0  0  0  0
    5.6285  -10.6368   26.2418 C   0  0  0  0  0  0  0  0  0  0  0  0
    6.3362  -11.8452   26.2723 C   0  0  0  0  0  0  0  0  0  0  0  0
    5.6734  -13.0271   26.0756 C   0  0  0  0  0  0  0  0  0  0  0  0
    6.3803  -14.2078   26.1078 C   0  0  0  0  0  0  0  0  0  0  0  0
    7.7359  -14.2308   26.3329 C   0  0  0  0  0  0  0  0  0  0  0  0
    8.4662  -15.4988   26.3712 C   0  0  2  0  0  0  0  0  0  0  0  0
    9.4285  -15.7057   25.2234 N   0  0  0  0  0  0  0  0  0  0  0  0
    8.6058  -15.9237   24.0377 C   0  0  0  0  0  0  0  0  0  0  0  0
   10.2886  -16.8640   25.4896 O   0  0  0  0  0  0  0  0  0  0  0  0
   10.9657  -16.9704   26.5429 C   0  0  0  0  0  0  0  0  0  0  0  0
    8.3977  -13.0444   26.5300 C   0  0  0  0  0  0  0  0  0  0  0  0
    7.6932  -11.8677   26.4976 C   0  0  0  0  0  0  0  0  0  0  0  0
   10.9984  -20.1130   23.7134 C   0  0  2  0  0  0  0  0  0  0  0  0
   11.3475  -19.0417   24.7506 N   0  0  0  0  0  0  0  0  0  0  0  0
   10.4231  -17.9619   24.5705 C   0  0  0  0  0  0  0  0  0  0  0  0
   12.7590  -18.6240   24.6296 O   0  0  0  0  0  0  0  0  0  0  0  0
   13.7094  -19.3621   24.9876 O   0  0  0  0  0  0  0  0  0  0  0  0
  1  2  1  0
  2  3  2  0
  4  5  1  0
  4  2  1  0
  6  5  1  0
  7  6  1  0
  8 10  1  0
  8  7  1  0
  8  9  1  1
 10 11  2  0
 12 13  1  0
 13 23  2  0
 13 14  1  0
 14 15  2  0
 15 16  1  0
 16 17  1  0
 18 17  1  6
 19 18  1  0
 19 10  1  0
 20 18  1  0
 20 21  2  0
 22 16  2  0
 23 22  1  0
 25 24  1  1
 25 27  1  0
 25 26  1  0
 26 20  1  0
 27 29  1  0
 28 27  2  0
M  END
$$$$
