RYA.pdb
     RDKit          3D

 29 29  0  0  1  0  0  0  0  0999 V2000
    7.8502  -12.2799   16.0062 N   0  0  0  0  0  0  0  0  0  0  0  0
    8.0962  -13.6475   16.2967 C   0  0  0  0  0  0  0  0  0  0  0  0
    8.5291  -14.4779   15.3939 N   0  0  0  0  0  0  0  0  0  0  0  0
    7.8679  -14.1425   17.6098 N   0  0  0  0  0  0  0  0  0  0  0  0
    7.3503  -13.1958   18.6088 C   0  0  0  0  0  0  0  0  0  0  0  0
    7.1061  -13.9199   19.8819 C   0  0  0  0  0  0  0  0  0  0  0  0
    8.2841  -14.1811   20.7391 C   0  0  0  0  0  0  0  0  0  0  0  0
    8.5612  -15.6074   21.0788 C   0  0  2  0  0  0  0  0  0  0  0  0
    7.2856  -16.2951   21.1480 N   0  0  0  0  0  0  0  0  0  0  0  0
    9.0903  -15.6094   22.4905 C   0  0  0  0  0  0  0  0  0  0  0  0
   10.2345  -15.0574   22.6347 O   0  0  0  0  0  0  0  0  0  0  0  0
    8.6338  -15.4683   15.6824 O   0  0  0  0  0  0  0  0  0  0  0  0
    6.5120  -10.3677   26.4391 C   0  0  0  0  0  0  0  0  0  0  0  0
    6.8310  -11.7240   26.2957 C   0  0  0  0  0  0  0  0  0  0  0  0
    8.1364  -12.1287   26.3797 C   0  0  0  0  0  0  0  0  0  0  0  0
    8.4367  -13.4644   26.2372 C   0  0  0  0  0  0  0  0  0  0  0  0
    7.4587  -14.4035   26.0123 C   0  0  0  0  0  0  0  0  0  0  0  0
    7.8019  -15.8179   25.8556 C   0  0  2  0  0  0  0  0  0  0  0  0
    8.9609  -16.0845   24.9218 N   0  0  0  0  0  0  0  0  0  0  0  0
    8.3907  -16.1717   23.5811 C   0  0  0  0  0  0  0  0  0  0  0  0
    9.6298  -17.3361   25.2937 O   0  0  0  0  0  0  0  0  0  0  0  0
    9.0216  -18.4347   25.3417 C   0  0  0  0  0  0  0  0  0  0  0  0
    6.1509  -13.9949   25.9284 C   0  0  0  0  0  0  0  0  0  0  0  0
    5.8516  -12.6637   26.0708 C   0  0  0  0  0  0  0  0  0  0  0  0
   13.1627  -18.4610   25.7238 C   0  0  1  0  0  0  0  0  0  0  0  0
   11.6799  -18.5948   26.0826 N   0  0  0  0  0  0  0  0  0  0  0  0
   11.0263  -17.4026   25.6306 C   0  0  0  0  0  0  0  0  0  0  0  0
   11.5026  -18.8421   27.5280 O   0  0  0  0  0  0  0  0  0  0  0  0
   11.9431  -19.8746   28.0903 O   0  0  0  0  0  0  0  0  0  0  0  0
  1  2  1  0
  2  3  2  0
  4  5  1  0
  4  2  1  0
  6  5  1  0
  7  6  1  0
  8 10  1  0
  8  7  1  0
  8  9  1  1
 10 11  2  0
 12 13  1  0
 13 23  2  0
 13 14  1  0
 14 15  2  0
 15 16  1  0
 16 17  1  0
 18 17  1  6
 19 18  1  0
 19 10  1  0
 20 18  1  0
 20 21  2  0
 22 16  2  0
 23 22  1  0
 25 24  1  6
 25 27  1  0
 25 26  1  0
 26 20  1  0
 27 29  1  0
 28 27  2  0
M  END
$$$$
