RYA.pdb
     RDKit          3D

 29 29  0  0  1  0  0  0  0  0999 V2000
    8.3455  -12.6250   16.5643 N   0  0  0  0  0  0  0  0  0  0  0  0
    8.3383  -14.0143   16.2725 C   0  0  0  0  0  0  0  0  0  0  0  0
    8.5919  -14.4707   15.0810 N   0  0  0  0  0  0  0  0  0  0  0  0
    8.0471  -14.9504   17.3021 N   0  0  0  0  0  0  0  0  0  0  0  0
    7.4713  -14.4262   18.5494 C   0  0  0  0  0  0  0  0  0  0  0  0
    8.0700  -15.1481   19.7006 C   0  0  0  0  0  0  0  0  0  0  0  0
    9.2668  -15.9735   19.4228 C   0  0  0  0  0  0  0  0  0  0  0  0
    9.8229  -16.7521   20.5679 C   0  0  2  0  0  0  0  0  0  0  0  0
    8.9193  -17.8580   20.8232 N   0  0  0  0  0  0  0  0  0  0  0  0
    9.7106  -15.8602   21.7781 C   0  0  0  0  0  0  0  0  0  0  0  0
   10.5940  -14.9385   21.8484 O   0  0  0  0  0  0  0  0  0  0  0  0
    8.5534  -15.4994   14.9573 O   0  0  0  0  0  0  0  0  0  0  0  0
    6.1598  -10.9079   28.0677 C   0  0  0  0  0  0  0  0  0  0  0  0
    6.4399  -11.7902   27.0165 C   0  0  0  0  0  0  0  0  0  0  0  0
    7.2591  -11.3924   25.9941 C   0  0  0  0  0  0  0  0  0  0  0  0
    7.5267  -12.2689   24.9671 C   0  0  0  0  0  0  0  0  0  0  0  0
    6.9917  -13.5346   24.9413 C   0  0  0  0  0  0  0  0  0  0  0  0
    7.2833  -14.4473   23.8347 C   0  0  1  0  0  0  0  0  0  0  0  0
    8.6577  -15.0759   23.8829 N   0  0  0  0  0  0  0  0  0  0  0  0
    8.7142  -16.0152   22.7671 C   0  0  0  0  0  0  0  0  0  0  0  0
    8.8519  -15.7648   25.1635 O   0  0  0  0  0  0  0  0  0  0  0  0
    8.7665  -15.1693   26.2668 C   0  0  0  0  0  0  0  0  0  0  0  0
    6.1706  -13.9307   25.9676 C   0  0  0  0  0  0  0  0  0  0  0  0
    5.9042  -13.0572   26.9913 C   0  0  0  0  0  0  0  0  0  0  0  0
    8.7064  -19.2203   26.3866 C   0  0  2  0  0  0  0  0  0  0  0  0
    9.3869  -17.8524   26.4920 N   0  0  0  0  0  0  0  0  0  0  0  0
    9.1538  -17.1679   25.2552 C   0  0  0  0  0  0  0  0  0  0  0  0
   10.8211  -17.9954   26.8153 O   0  0  0  0  0  0  0  0  0  0  0  0
   11.2180  -18.5263   27.8816 O   0  0  0  0  0  0  0  0  0  0  0  0
  1  2  1  0
  2  3  2  0
  4  5  1  0
  4  2  1  0
  6  5  1  0
  7  6  1  0
  8 10  1  0
  8  7  1  0
  8  9  1  1
 10 11  2  0
 12 13  1  0
 13 23  2  0
 13 14  1  0
 14 15  2  0
 15 16  1  0
 16 17  1  0
 18 17  1  6
 19 18  1  0
 19 10  1  0
 20 18  1  0
 20 21  2  0
 22 16  2  0
 23 22  1  0
 25 24  1  1
 25 27  1  0
 25 26  1  0
 26 20  1  0
 27 29  1  0
 28 27  2  0
M  END
$$$$
