RYA.pdb
     RDKit          3D

 29 29  0  0  1  0  0  0  0  0999 V2000
    8.9636  -14.6561   15.1500 N   0  0  0  0  0  0  0  0  0  0  0  0
    8.6140  -13.9027   16.3013 C   0  0  0  0  0  0  0  0  0  0  0  0
    9.0068  -12.6737   16.4676 N   0  0  0  0  0  0  0  0  0  0  0  0
    7.8102  -14.4934   17.3143 N   0  0  0  0  0  0  0  0  0  0  0  0
    7.9763  -15.9346   17.5546 C   0  0  0  0  0  0  0  0  0  0  0  0
    9.3095  -16.1740   18.1629 C   0  0  0  0  0  0  0  0  0  0  0  0
    9.5022  -15.7098   19.5550 C   0  0  0  0  0  0  0  0  0  0  0  0
    9.4335  -16.7501   20.6227 C   0  0  2  0  0  0  0  0  0  0  0  0
    8.1200  -17.3618   20.5517 N   0  0  0  0  0  0  0  0  0  0  0  0
    9.4559  -16.0089   21.9353 C   0  0  0  0  0  0  0  0  0  0  0  0
   10.5363  -15.3666   22.1697 O   0  0  0  0  0  0  0  0  0  0  0  0
    8.6832  -12.1925   17.3270 O   0  0  0  0  0  0  0  0  0  0  0  0
    6.2794  -10.7222   28.1720 C   0  0  0  0  0  0  0  0  0  0  0  0
    6.4681  -11.6446   27.1349 C   0  0  0  0  0  0  0  0  0  0  0  0
    7.2276  -11.3013   26.0486 C   0  0  0  0  0  0  0  0  0  0  0  0
    7.4056  -12.2168   25.0362 C   0  0  0  0  0  0  0  0  0  0  0  0
    6.8394  -13.4681   25.0878 C   0  0  0  0  0  0  0  0  0  0  0  0
    7.0352  -14.4230   23.9957 C   0  0  1  0  0  0  0  0  0  0  0  0
    8.3915  -15.0911   23.9794 N   0  0  0  0  0  0  0  0  0  0  0  0
    8.3773  -16.0120   22.8472 C   0  0  0  0  0  0  0  0  0  0  0  0
    8.6154  -15.8074   25.2400 O   0  0  0  0  0  0  0  0  0  0  0  0
    8.8679  -15.2103   26.3166 C   0  0  0  0  0  0  0  0  0  0  0  0
    6.0783  -13.8095   26.1780 C   0  0  0  0  0  0  0  0  0  0  0  0
    5.9013  -12.8972   27.1870 C   0  0  0  0  0  0  0  0  0  0  0  0
    7.9973  -19.3088   26.3881 C   0  0  2  0  0  0  0  0  0  0  0  0
    8.6917  -17.9567   26.5756 N   0  0  0  0  0  0  0  0  0  0  0  0
    8.5637  -17.2410   25.3411 C   0  0  0  0  0  0  0  0  0  0  0  0
   10.0949  -18.1340   27.0014 O   0  0  0  0  0  0  0  0  0  0  0  0
   11.0631  -17.8267   26.2635 O   0  0  0  0  0  0  0  0  0  0  0  0
  1  2  1  0
  2  3  2  0
  4  5  1  0
  4  2  1  0
  6  5  1  0
  7  6  1  0
  8 10  1  0
  8  7  1  0
  8  9  1  6
 10 11  2  0
 12 13  1  0
 13 23  2  0
 13 14  1  0
 14 15  2  0
 15 16  1  0
 16 17  1  0
 18 17  1  6
 19 18  1  0
 19 10  1  0
 20 18  1  0
 20 21  2  0
 22 16  2  0
 23 22  1  0
 25 24  1  1
 25 27  1  0
 25 26  1  0
 26 20  1  0
 27 29  1  0
 28 27  2  0
M  END
$$$$
