RYA.pdb
     RDKit          3D

 29 29  0  0  1  0  0  0  0  0999 V2000
    6.6424  -18.0504   20.1589 N   0  0  0  0  0  0  0  0  0  0  0  0
    7.4930  -18.7599   19.2708 C   0  0  0  0  0  0  0  0  0  0  0  0
    7.7742  -20.0184   19.4420 N   0  0  0  0  0  0  0  0  0  0  0  0
    8.0641  -18.0902   18.1542 N   0  0  0  0  0  0  0  0  0  0  0  0
    7.8349  -16.6419   18.0447 C   0  0  0  0  0  0  0  0  0  0  0  0
    8.8956  -15.9251   18.7970 C   0  0  0  0  0  0  0  0  0  0  0  0
    8.8108  -14.4478   18.8287 C   0  0  0  0  0  0  0  0  0  0  0  0
    7.9094  -13.8513   19.8574 C   0  0  2  0  0  0  0  0  0  0  0  0
    7.9861  -12.4090   19.7210 N   0  0  0  0  0  0  0  0  0  0  0  0
    8.5351  -14.1574   21.1945 C   0  0  0  0  0  0  0  0  0  0  0  0
    9.6438  -13.5605   21.4165 O   0  0  0  0  0  0  0  0  0  0  0  0
    7.4142  -20.4637   20.3063 O   0  0  0  0  0  0  0  0  0  0  0  0
    6.1535  -10.5346   26.9076 C   0  0  0  0  0  0  0  0  0  0  0  0
    6.5018  -11.7466   26.2978 C   0  0  0  0  0  0  0  0  0  0  0  0
    7.6549  -12.3868   26.6657 C   0  0  0  0  0  0  0  0  0  0  0  0
    7.9858  -13.5772   26.0591 C   0  0  0  0  0  0  0  0  0  0  0  0
    7.1878  -14.1402   25.0921 C   0  0  0  0  0  0  0  0  0  0  0  0
    7.5636  -15.4030   24.4543 C   0  0  2  0  0  0  0  0  0  0  0  0
    8.6441  -15.2803   23.4037 N   0  0  0  0  0  0  0  0  0  0  0  0
    7.9564  -15.0320   22.1405 C   0  0  0  0  0  0  0  0  0  0  0  0
    9.4302  -16.5175   23.3428 O   0  0  0  0  0  0  0  0  0  0  0  0
    8.9371  -17.6091   22.9629 C   0  0  0  0  0  0  0  0  0  0  0  0
    6.0324  -13.4960   24.7250 C   0  0  0  0  0  0  0  0  0  0  0  0
    5.7025  -12.3098   25.3300 C   0  0  0  0  0  0  0  0  0  0  0  0
   12.9743  -17.3894   23.0888 C   0  0  1  0  0  0  0  0  0  0  0  0
   11.6058  -17.7731   23.6591 N   0  0  0  0  0  0  0  0  0  0  0  0
   10.8191  -16.5768   23.7114 C   0  0  0  0  0  0  0  0  0  0  0  0
   11.7434  -18.4355   24.9722 O   0  0  0  0  0  0  0  0  0  0  0  0
   12.4040  -19.4923   25.1236 O   0  0  0  0  0  0  0  0  0  0  0  0
  1  2  1  0
  2  3  2  0
  4  5  1  0
  4  2  1  0
  6  5  1  0
  7  6  1  0
  8 10  1  0
  8  7  1  0
  8  9  1  6
 10 11  2  0
 12 13  1  0
 13 23  2  0
 13 14  1  0
 14 15  2  0
 15 16  1  0
 16 17  1  0
 18 17  1  1
 19 18  1  0
 19 10  1  0
 20 18  1  0
 20 21  2  0
 22 16  2  0
 23 22  1  0
 25 24  1  6
 25 27  1  0
 25 26  1  0
 26 20  1  0
 27 29  1  0
 28 27  2  0
M  END
$$$$
