RYA.pdb
     RDKit          3D

 29 29  0  0  1  0  0  0  0  0999 V2000
    8.5066  -15.7104   14.2732 N   0  0  0  0  0  0  0  0  0  0  0  0
    9.6648  -15.9498   15.0585 C   0  0  0  0  0  0  0  0  0  0  0  0
   10.8644  -15.8663   14.5625 N   0  0  0  0  0  0  0  0  0  0  0  0
    9.5283  -16.2925   16.4316 N   0  0  0  0  0  0  0  0  0  0  0  0
    8.1665  -16.5083   16.9425 C   0  0  0  0  0  0  0  0  0  0  0  0
    7.7533  -15.3235   17.7363 C   0  0  0  0  0  0  0  0  0  0  0  0
    8.3039  -15.2110   19.1056 C   0  0  0  0  0  0  0  0  0  0  0  0
    7.8295  -14.0574   19.9247 C   0  0  2  0  0  0  0  0  0  0  0  0
    8.3862  -12.8508   19.3424 N   0  0  0  0  0  0  0  0  0  0  0  0
    8.4964  -14.1932   21.2699 C   0  0  0  0  0  0  0  0  0  0  0  0
    9.6603  -13.6694   21.3464 O   0  0  0  0  0  0  0  0  0  0  0  0
   11.6516  -16.0531   15.2109 O   0  0  0  0  0  0  0  0  0  0  0  0
    5.9566   -9.8955   26.7417 C   0  0  0  0  0  0  0  0  0  0  0  0
    6.3402  -11.1455   26.2393 C   0  0  0  0  0  0  0  0  0  0  0  0
    7.5152  -11.2694   25.5473 C   0  0  0  0  0  0  0  0  0  0  0  0
    7.8809  -12.5032   25.0589 C   0  0  0  0  0  0  0  0  0  0  0  0
    7.0958  -13.6153   25.2480 C   0  0  0  0  0  0  0  0  0  0  0  0
    7.5005  -14.9162   24.7125 C   0  0  2  0  0  0  0  0  0  0  0  0
    8.5837  -14.8539   23.6594 N   0  0  0  0  0  0  0  0  0  0  0  0
    7.8978  -14.8444   22.3711 C   0  0  0  0  0  0  0  0  0  0  0  0
    9.4689  -16.0178   23.7778 O   0  0  0  0  0  0  0  0  0  0  0  0
   10.0649  -16.3030   24.8468 C   0  0  0  0  0  0  0  0  0  0  0  0
    5.9183  -13.4882   25.9420 C   0  0  0  0  0  0  0  0  0  0  0  0
    5.5540  -12.2585   26.4290 C   0  0  0  0  0  0  0  0  0  0  0  0
   10.5694  -18.7600   21.4273 C   0  0  2  0  0  0  0  0  0  0  0  0
   10.7171  -17.9486   22.7178 N   0  0  0  0  0  0  0  0  0  0  0  0
    9.7222  -16.9181   22.6852 C   0  0  0  0  0  0  0  0  0  0  0  0
   12.0907  -17.4254   22.8629 O   0  0  0  0  0  0  0  0  0  0  0  0
   12.3593  -16.2050   22.7418 O   0  0  0  0  0  0  0  0  0  0  0  0
  1  2  1  0
  2  3  2  0
  4  5  1  0
  4  2  1  0
  6  5  1  0
  7  6  1  0
  8 10  1  0
  8  7  1  0
  8  9  1  6
 10 11  2  0
 12 13  1  0
 13 23  2  0
 13 14  1  0
 14 15  2  0
 15 16  1  0
 16 17  1  0
 18 17  1  1
 19 18  1  0
 19 10  1  0
 20 18  1  0
 20 21  2  0
 22 16  2  0
 23 22  1  0
 25 24  1  1
 25 27  1  0
 25 26  1  0
 26 20  1  0
 27 29  1  0
 28 27  2  0
M  END
$$$$
