VVA.pdb
     RDKit          3D

 20 19  0  0  1  0  0  0  0  0999 V2000
   24.6665  -13.1402  -14.9886 C   0  0  0  0  0  0  0  0  0  0  0  0
   23.8648  -11.9541  -15.5162 C   0  0  1  0  0  0  0  0  0  0  0  0
   24.6904  -11.3206  -16.6040 C   0  0  0  0  0  0  0  0  0  0  0  0
   22.5568  -12.4831  -16.0753 C   0  0  2  0  0  0  0  0  0  0  0  0
   22.7739  -13.5283  -17.0379 N   0  0  0  0  0  0  0  0  0  0  0  0
   21.7372  -11.3785  -16.5909 C   0  0  0  0  0  0  0  0  0  0  0  0
   21.8593  -11.0542  -17.7920 O   0  0  0  0  0  0  0  0  0  0  0  0
   18.2514  -11.0357  -17.1947 C   0  0  0  0  0  0  0  0  0  0  0  0
   18.5226   -9.9325  -16.1748 C   0  0  2  0  0  0  0  0  0  0  0  0
   17.6614   -8.7242  -16.4705 C   0  0  0  0  0  0  0  0  0  0  0  0
   19.9927   -9.6000  -16.2704 C   0  0  2  0  0  0  0  0  0  0  0  0
   20.8193  -10.6668  -15.7956 N   0  0  0  0  0  0  0  0  0  0  0  0
   20.3353   -8.3574  -15.5621 C   0  0  0  0  0  0  0  0  0  0  0  0
   20.2895   -8.2957  -14.3137 O   0  0  0  0  0  0  0  0  0  0  0  0
   21.7023   -5.0181  -16.5099 C   0  0  0  0  0  0  0  0  0  0  0  0
   20.9666   -5.9511  -15.5435 C   0  0  2  0  0  0  0  0  0  0  0  0
   20.7313   -7.1760  -16.2502 N   0  0  0  0  0  0  0  0  0  0  0  0
   19.6984   -5.3391  -15.0855 C   0  0  0  0  0  0  0  0  0  0  0  0
   18.6551   -5.4802  -15.7661 O   0  0  0  0  0  0  0  0  0  0  0  0
   19.6208   -4.6055  -13.9154 O   0  0  0  0  0  0  0  0  0  0  0  0
  2  1  1  6
  3  2  1  0
  4  2  1  0
  4  5  1  6
  6 12  1  0
  6  4  1  0
  7  6  2  0
  9  8  1  6
  9 11  1  0
 10  9  1  0
 11 12  1  1
 13 11  1  0
 13 14  2  0
 16 17  1  0
 16 15  1  6
 17 13  1  0
 18 16  1  0
 19 18  2  0
 20 18  1  0
M  END
$$$$
