VVA.pdb
     RDKit          3D

 20 19  0  0  1  0  0  0  0  0999 V2000
   16.8275  -11.6344  -18.8829 C   0  0  0  0  0  0  0  0  0  0  0  0
   17.7185  -10.8575  -17.9185 C   0  0  1  0  0  0  0  0  0  0  0  0
   16.8054  -10.0316  -17.0524 C   0  0  0  0  0  0  0  0  0  0  0  0
   18.4897  -11.8605  -17.0805 C   0  0  2  0  0  0  0  0  0  0  0  0
   17.6135  -12.7980  -16.4330 N   0  0  0  0  0  0  0  0  0  0  0  0
   19.3881  -11.1653  -16.1492 C   0  0  0  0  0  0  0  0  0  0  0  0
   18.9831  -10.9334  -14.9894 O   0  0  0  0  0  0  0  0  0  0  0  0
   22.7530  -12.2690  -15.1811 C   0  0  0  0  0  0  0  0  0  0  0  0
   22.9670  -10.8279  -15.6375 C   0  0  2  0  0  0  0  0  0  0  0  0
   23.9630  -10.1356  -14.7332 C   0  0  0  0  0  0  0  0  0  0  0  0
   21.6179  -10.1505  -15.5948 C   0  0  2  0  0  0  0  0  0  0  0  0
   20.6854  -10.7471  -16.5010 N   0  0  0  0  0  0  0  0  0  0  0  0
   21.7056   -8.7059  -15.8570 C   0  0  0  0  0  0  0  0  0  0  0  0
   22.0666   -8.2764  -16.9749 O   0  0  0  0  0  0  0  0  0  0  0  0
   20.2504   -5.7212  -15.4312 C   0  0  0  0  0  0  0  0  0  0  0  0
   21.6129   -6.3377  -15.1007 C   0  0  2  0  0  0  0  0  0  0  0  0
   21.3888   -7.7341  -14.8664 N   0  0  0  0  0  0  0  0  0  0  0  0
   22.2139   -5.6806  -13.9176 C   0  0  0  0  0  0  0  0  0  0  0  0
   22.1008   -6.2075  -12.7857 O   0  0  0  0  0  0  0  0  0  0  0  0
   22.9067   -4.4876  -14.0165 O   0  0  0  0  0  0  0  0  0  0  0  0
  2  1  1  6
  3  2  1  0
  4  2  1  0
  4  5  1  1
  6 12  1  0
  6  4  1  0
  7  6  2  0
  9  8  1  1
  9 11  1  0
 10  9  1  0
 11 12  1  6
 13 11  1  0
 13 14  2  0
 16 17  1  0
 16 15  1  1
 17 13  1  0
 18 16  1  0
 19 18  2  0
 20 18  1  0
M  END
$$$$
