VVA.pdb
     RDKit          3D

 20 19  0  0  1  0  0  0  0  0999 V2000
   24.3106  -12.0285  -20.1265 C   0  0  0  0  0  0  0  0  0  0  0  0
   23.3622  -10.9321  -19.6513 C   0  0  1  0  0  0  0  0  0  0  0  0
   22.6848  -10.3814  -20.8776 C   0  0  0  0  0  0  0  0  0  0  0  0
   22.3470  -11.5626  -18.7158 C   0  0  2  0  0  0  0  0  0  0  0  0
   21.6485  -12.6504  -19.3442 N   0  0  0  0  0  0  0  0  0  0  0  0
   21.4512  -10.5361  -18.1665 C   0  0  0  0  0  0  0  0  0  0  0  0
   20.4742  -10.1666  -18.8532 O   0  0  0  0  0  0  0  0  0  0  0  0
   20.8230  -10.0834  -14.1613 C   0  0  0  0  0  0  0  0  0  0  0  0
   19.8943   -9.5423  -15.2456 C   0  0  2  0  0  0  0  0  0  0  0  0
   19.0145  -10.6506  -15.7811 C   0  0  0  0  0  0  0  0  0  0  0  0
   20.7752   -8.9643  -16.3277 C   0  0  2  0  0  0  0  0  0  0  0  0
   21.6409   -9.9480  -16.9018 N   0  0  0  0  0  0  0  0  0  0  0  0
   21.5715   -7.8221  -15.8540 C   0  0  0  0  0  0  0  0  0  0  0  0
   22.6961   -7.9942  -15.3342 O   0  0  0  0  0  0  0  0  0  0  0  0
   21.2749   -4.1072  -16.0709 C   0  0  0  0  0  0  0  0  0  0  0  0
   21.9202   -5.3818  -15.5189 C   0  0  2  0  0  0  0  0  0  0  0  0
   21.1109   -6.4795  -15.9605 N   0  0  0  0  0  0  0  0  0  0  0  0
   22.0029   -5.3312  -14.0412 C   0  0  0  0  0  0  0  0  0  0  0  0
   21.0866   -5.8309  -13.3469 O   0  0  0  0  0  0  0  0  0  0  0  0
   23.0711   -4.7435  -13.3880 O   0  0  0  0  0  0  0  0  0  0  0  0
  2  1  1  6
  3  2  1  0
  4  2  1  0
  4  5  1  6
  6 12  1  0
  6  4  1  0
  7  6  2  0
  9  8  1  1
  9 11  1  0
 10  9  1  0
 11 12  1  1
 13 11  1  0
 13 14  2  0
 16 17  1  0
 16 15  1  1
 17 13  1  0
 18 16  1  0
 19 18  2  0
 20 18  1  0
M  END
$$$$
