VVA.pdb
     RDKit          3D

 20 19  0  0  1  0  0  0  0  0999 V2000
   11.9416  -12.7988  -12.3062 C   0  0  0  0  0  0  0  0  0  0  0  0
   12.9349  -11.9212  -11.5506 C   0  0  1  0  0  0  0  0  0  0  0  0
   13.0484  -12.4897  -10.1613 C   0  0  0  0  0  0  0  0  0  0  0  0
   14.2689  -11.9952  -12.2705 C   0  0  2  0  0  0  0  0  0  0  0  0
   14.7767  -13.3392  -12.3126 N   0  0  0  0  0  0  0  0  0  0  0  0
   15.2163  -11.0334  -11.6917 C   0  0  0  0  0  0  0  0  0  0  0  0
   16.0403  -11.4422  -10.8452 O   0  0  0  0  0  0  0  0  0  0  0  0
   17.8790   -9.3005  -13.1758 C   0  0  0  0  0  0  0  0  0  0  0  0
   17.0568   -8.1429  -12.6148 C   0  0  2  0  0  0  0  0  0  0  0  0
   17.9715   -7.0672  -12.0716 C   0  0  0  0  0  0  0  0  0  0  0  0
   16.1748   -8.7172  -11.5317 C   0  0  2  0  0  0  0  0  0  0  0  0
   15.2406   -9.6711  -12.0455 N   0  0  0  0  0  0  0  0  0  0  0  0
   15.4553   -7.6763  -10.7818 C   0  0  0  0  0  0  0  0  0  0  0  0
   14.5205   -7.0343  -11.3094 O   0  0  0  0  0  0  0  0  0  0  0  0
   15.4818   -6.3789   -7.2820 C   0  0  0  0  0  0  0  0  0  0  0  0
   15.1627   -6.2378   -8.7734 C   0  0  2  0  0  0  0  0  0  0  0  0
   15.7804   -7.3493   -9.4352 N   0  0  0  0  0  0  0  0  0  0  0  0
   15.6662   -4.9481   -9.2986 C   0  0  0  0  0  0  0  0  0  0  0  0
   16.8426   -4.8630   -9.7231 O   0  0  0  0  0  0  0  0  0  0  0  0
   14.8736   -3.8152   -9.3390 O   0  0  0  0  0  0  0  0  0  0  0  0
  2  1  1  6
  3  2  1  0
  4  2  1  0
  4  5  1  1
  6 12  1  0
  6  4  1  0
  7  6  2  0
  9  8  1  1
  9 11  1  0
 10  9  1  0
 11 12  1  6
 13 11  1  0
 13 14  2  0
 16 17  1  0
 16 15  1  1
 17 13  1  0
 18 16  1  0
 19 18  2  0
 20 18  1  0
M  END
$$$$
