VVA.pdb
     RDKit          3D

 20 19  0  0  1  0  0  0  0  0999 V2000
   21.5119  -17.2449  -14.7185 C   0  0  0  0  0  0  0  0  0  0  0  0
   21.3224  -18.7476  -14.9021 C   0  0  1  0  0  0  0  0  0  0  0  0
   19.9983  -18.9377  -15.5927 C   0  0  0  0  0  0  0  0  0  0  0  0
   22.4575  -19.2614  -15.7686 C   0  0  2  0  0  0  0  0  0  0  0  0
   22.4761  -18.6211  -17.0554 N   0  0  0  0  0  0  0  0  0  0  0  0
   22.4160  -20.7275  -15.8491 C   0  0  0  0  0  0  0  0  0  0  0  0
   21.6612  -21.2584  -16.6923 O   0  0  0  0  0  0  0  0  0  0  0  0
   25.3150  -22.9764  -16.2909 C   0  0  0  0  0  0  0  0  0  0  0  0
   24.5914  -23.5601  -15.0799 C   0  0  2  0  0  0  0  0  0  0  0  0
   24.5775  -25.0710  -15.1575 C   0  0  0  0  0  0  0  0  0  0  0  0
   23.1915  -22.9933  -15.0915 C   0  0  2  0  0  0  0  0  0  0  0  0
   23.1871  -21.5644  -15.0205 N   0  0  0  0  0  0  0  0  0  0  0  0
   22.3533  -23.5436  -14.0155 C   0  0  0  0  0  0  0  0  0  0  0  0
   22.7319  -23.5080  -12.8240 O   0  0  0  0  0  0  0  0  0  0  0  0
   18.8528  -24.0127  -13.4518 C   0  0  0  0  0  0  0  0  0  0  0  0
   20.2492  -24.5873  -13.1955 C   0  0  2  0  0  0  0  0  0  0  0  0
   21.0849  -24.1373  -14.2699 N   0  0  0  0  0  0  0  0  0  0  0  0
   20.2046  -26.0659  -13.1281 C   0  0  0  0  0  0  0  0  0  0  0  0
   20.6384  -26.7482  -14.0861 O   0  0  0  0  0  0  0  0  0  0  0  0
   19.6938  -26.7330  -12.0294 O   0  0  0  0  0  0  0  0  0  0  0  0
  2  1  1  6
  3  2  1  0
  4  2  1  0
  4  5  1  6
  6 12  1  0
  6  4  1  0
  7  6  2  0
  9  8  1  6
  9 11  1  0
 10  9  1  0
 11 12  1  1
 13 11  1  0
 13 14  2  0
 16 17  1  0
 16 15  1  6
 17 13  1  0
 18 16  1  0
 19 18  2  0
 20 18  1  0
M  END
$$$$
