VVA.pdb
     RDKit          3D

 20 19  0  0  1  0  0  0  0  0999 V2000
   18.4365  -12.1756  -18.5550 C   0  0  0  0  0  0  0  0  0  0  0  0
   18.0954  -13.4930  -17.8652 C   0  0  1  0  0  0  0  0  0  0  0  0
   17.6199  -14.4354  -18.9385 C   0  0  0  0  0  0  0  0  0  0  0  0
   19.3585  -14.0205  -17.2098 C   0  0  2  0  0  0  0  0  0  0  0  0
   19.1611  -15.3307  -16.6524 N   0  0  0  0  0  0  0  0  0  0  0  0
   19.8754  -13.0471  -16.2387 C   0  0  0  0  0  0  0  0  0  0  0  0
   19.2704  -12.9066  -15.1539 O   0  0  0  0  0  0  0  0  0  0  0  0
   23.3667  -12.8449  -14.9222 C   0  0  0  0  0  0  0  0  0  0  0  0
   23.0654  -11.4355  -15.4256 C   0  0  2  0  0  0  0  0  0  0  0  0
   23.6258  -10.4072  -14.4677 C   0  0  0  0  0  0  0  0  0  0  0  0
   21.5636  -11.3235  -15.5400 C   0  0  2  0  0  0  0  0  0  0  0  0
   21.0216  -12.2639  -16.4720 N   0  0  0  0  0  0  0  0  0  0  0  0
   21.1268   -9.9655  -15.8986 C   0  0  0  0  0  0  0  0  0  0  0  0
   21.4994   -9.4316  -16.9665 O   0  0  0  0  0  0  0  0  0  0  0  0
   18.4782   -7.6414  -14.8721 C   0  0  0  0  0  0  0  0  0  0  0  0
   19.8946   -7.8598  -15.4123 C   0  0  2  0  0  0  0  0  0  0  0  0
   20.2691   -9.1982  -15.0609 N   0  0  0  0  0  0  0  0  0  0  0  0
   20.8337   -6.8679  -14.8405 C   0  0  0  0  0  0  0  0  0  0  0  0
   20.7636   -5.6665  -15.1917 O   0  0  0  0  0  0  0  0  0  0  0  0
   21.8013   -7.2235  -13.9183 O   0  0  0  0  0  0  0  0  0  0  0  0
  2  1  1  6
  3  2  1  0
  4  2  1  0
  4  5  1  1
  6 12  1  0
  6  4  1  0
  7  6  2  0
  9  8  1  1
  9 11  1  0
 10  9  1  0
 11 12  1  6
 13 11  1  0
 13 14  2  0
 16 17  1  0
 16 15  1  1
 17 13  1  0
 18 16  1  0
 19 18  2  0
 20 18  1  0
M  END
$$$$
