VVA.pdb
     RDKit          3D

 20 19  0  0  1  0  0  0  0  0999 V2000
   24.4996  -12.6597  -15.0804 C   0  0  0  0  0  0  0  0  0  0  0  0
   24.4343  -13.7480  -16.1477 C   0  0  1  0  0  0  0  0  0  0  0  0
   25.1071  -14.9644  -15.5702 C   0  0  0  0  0  0  0  0  0  0  0  0
   22.9723  -14.0319  -16.4395 C   0  0  2  0  0  0  0  0  0  0  0  0
   22.8127  -15.1822  -17.2866 N   0  0  0  0  0  0  0  0  0  0  0  0
   22.3121  -12.8284  -16.9626 C   0  0  0  0  0  0  0  0  0  0  0  0
   22.6601  -12.3951  -18.0823 O   0  0  0  0  0  0  0  0  0  0  0  0
   19.1240  -12.1533  -18.2540 C   0  0  0  0  0  0  0  0  0  0  0  0
   19.1751  -11.2325  -17.0373 C   0  0  2  0  0  0  0  0  0  0  0  0
   18.4293   -9.9474  -17.3227 C   0  0  0  0  0  0  0  0  0  0  0  0
   20.6341  -10.9719  -16.7469 C   0  0  2  0  0  0  0  0  0  0  0  0
   21.3047  -12.1388  -16.2618 N   0  0  0  0  0  0  0  0  0  0  0  0
   20.8296   -9.8617  -15.8022 C   0  0  0  0  0  0  0  0  0  0  0  0
   20.5027   -9.9755  -14.6003 O   0  0  0  0  0  0  0  0  0  0  0  0
   22.3960   -6.4755  -15.9236 C   0  0  0  0  0  0  0  0  0  0  0  0
   21.4593   -7.5096  -15.2920 C   0  0  2  0  0  0  0  0  0  0  0  0
   21.3933   -8.6168  -16.2003 N   0  0  0  0  0  0  0  0  0  0  0  0
   20.1193   -6.9271  -15.0515 C   0  0  0  0  0  0  0  0  0  0  0  0
   19.2538   -6.9558  -15.9579 O   0  0  0  0  0  0  0  0  0  0  0  0
   19.7815   -6.3429  -13.8441 O   0  0  0  0  0  0  0  0  0  0  0  0
  2  1  1  1
  3  2  1  0
  4  2  1  0
  4  5  1  6
  6 12  1  0
  6  4  1  0
  7  6  2  0
  9  8  1  6
  9 11  1  0
 10  9  1  0
 11 12  1  1
 13 11  1  0
 13 14  2  0
 16 17  1  0
 16 15  1  6
 17 13  1  0
 18 16  1  0
 19 18  2  0
 20 18  1  0
M  END
$$$$
