VVA.pdb
     RDKit          3D

 20 19  0  0  1  0  0  0  0  0999 V2000
   20.3750  -17.6876  -13.1719 C   0  0  0  0  0  0  0  0  0  0  0  0
   20.5612  -19.0030  -13.9220 C   0  0  1  0  0  0  0  0  0  0  0  0
   19.9006  -20.0729  -13.0942 C   0  0  0  0  0  0  0  0  0  0  0  0
   19.8808  -18.8737  -15.2724 C   0  0  2  0  0  0  0  0  0  0  0  0
   19.8758  -20.1208  -15.9871 N   0  0  0  0  0  0  0  0  0  0  0  0
   20.4699  -17.7670  -16.0378 C   0  0  0  0  0  0  0  0  0  0  0  0
   21.5618  -17.9557  -16.6166 O   0  0  0  0  0  0  0  0  0  0  0  0
   19.4326  -16.1476  -19.0642 C   0  0  0  0  0  0  0  0  0  0  0  0
   19.4293  -15.0167  -18.0386 C   0  0  2  0  0  0  0  0  0  0  0  0
   19.8593  -13.7201  -18.6890 C   0  0  0  0  0  0  0  0  0  0  0  0
   20.3781  -15.4231  -16.9360 C   0  0  2  0  0  0  0  0  0  0  0  0
   19.8626  -16.5021  -16.1508 N   0  0  0  0  0  0  0  0  0  0  0  0
   20.7332  -14.2986  -16.0570 C   0  0  0  0  0  0  0  0  0  0  0  0
   19.8743  -13.7591  -15.3250 O   0  0  0  0  0  0  0  0  0  0  0  0
   23.9079  -12.6119  -15.0537 C   0  0  0  0  0  0  0  0  0  0  0  0
   22.3794  -12.6922  -15.1093 C   0  0  2  0  0  0  0  0  0  0  0  0
   22.0542  -13.7723  -15.9939 N   0  0  0  0  0  0  0  0  0  0  0  0
   21.8030  -11.4131  -15.5832 C   0  0  0  0  0  0  0  0  0  0  0  0
   21.6862  -11.1981  -16.8127 O   0  0  0  0  0  0  0  0  0  0  0  0
   21.3819  -10.4307  -14.7052 O   0  0  0  0  0  0  0  0  0  0  0  0
  2  1  1  1
  3  2  1  0
  4  2  1  0
  4  5  1  6
  6 12  1  0
  6  4  1  0
  7  6  2  0
  9  8  1  6
  9 11  1  0
 10  9  1  0
 11 12  1  1
 13 11  1  0
 13 14  2  0
 16 17  1  0
 16 15  1  6
 17 13  1  0
 18 16  1  0
 19 18  2  0
 20 18  1  0
M  END
$$$$
