VVA.pdb
     RDKit          3D

 20 19  0  0  1  0  0  0  0  0999 V2000
   20.6072   -9.7206  -19.9535 C   0  0  0  0  0  0  0  0  0  0  0  0
   20.0802  -11.1356  -19.7348 C   0  0  1  0  0  0  0  0  0  0  0  0
   20.2096  -11.8559  -21.0504 C   0  0  0  0  0  0  0  0  0  0  0  0
   20.9402  -11.7980  -18.6743 C   0  0  2  0  0  0  0  0  0  0  0  0
   20.6625  -13.2042  -18.5663 N   0  0  0  0  0  0  0  0  0  0  0  0
   20.8199  -11.0816  -17.3975 C   0  0  0  0  0  0  0  0  0  0  0  0
   19.7463  -11.1682  -16.7630 O   0  0  0  0  0  0  0  0  0  0  0  0
   24.2281   -9.9182  -15.2935 C   0  0  0  0  0  0  0  0  0  0  0  0
   22.8821  -10.2210  -14.6398 C   0  0  2  0  0  0  0  0  0  0  0  0
   22.7286  -11.7107  -14.4251 C   0  0  0  0  0  0  0  0  0  0  0  0
   21.8158   -9.6830  -15.5642 C   0  0  2  0  0  0  0  0  0  0  0  0
   21.8575  -10.3011  -16.8538 N   0  0  0  0  0  0  0  0  0  0  0  0
   21.8873   -8.2217  -15.7148 C   0  0  0  0  0  0  0  0  0  0  0  0
   22.7465   -7.6931  -16.4542 O   0  0  0  0  0  0  0  0  0  0  0  0
   19.6938   -5.3516  -14.9825 C   0  0  0  0  0  0  0  0  0  0  0  0
   21.1010   -5.9222  -15.1829 C   0  0  2  0  0  0  0  0  0  0  0  0
   20.9950   -7.3443  -15.0365 N   0  0  0  0  0  0  0  0  0  0  0  0
   22.0463   -5.3465  -14.1992 C   0  0  0  0  0  0  0  0  0  0  0  0
   22.4765   -4.1794  -14.3553 O   0  0  0  0  0  0  0  0  0  0  0  0
   22.4795   -6.0603  -13.0964 O   0  0  0  0  0  0  0  0  0  0  0  0
  2  1  1  6
  3  2  1  0
  4  2  1  0
  4  5  1  1
  6 12  1  0
  6  4  1  0
  7  6  2  0
  9  8  1  6
  9 11  1  0
 10  9  1  0
 11 12  1  6
 13 11  1  0
 13 14  2  0
 16 17  1  0
 16 15  1  1
 17 13  1  0
 18 16  1  0
 19 18  2  0
 20 18  1  0
M  END
$$$$
