VVA.pdb
     RDKit          3D

 20 19  0  0  1  0  0  0  0  0999 V2000
   23.7823  -16.9896  -18.8763 C   0  0  0  0  0  0  0  0  0  0  0  0
   23.8939  -18.0785  -17.8135 C   0  0  1  0  0  0  0  0  0  0  0  0
   22.8533  -19.1154  -18.1424 C   0  0  0  0  0  0  0  0  0  0  0  0
   25.2877  -18.6733  -17.8954 C   0  0  2  0  0  0  0  0  0  0  0  0
   25.5327  -19.2800  -19.1753 N   0  0  0  0  0  0  0  0  0  0  0  0
   25.5227  -19.5829  -16.7661 C   0  0  0  0  0  0  0  0  0  0  0  0
   25.1862  -20.7810  -16.8842 O   0  0  0  0  0  0  0  0  0  0  0  0
   28.7606  -20.1565  -14.8739 C   0  0  0  0  0  0  0  0  0  0  0  0
   27.7185  -19.7786  -13.8240 C   0  0  2  0  0  0  0  0  0  0  0  0
   27.9169  -20.6023  -12.5705 C   0  0  0  0  0  0  0  0  0  0  0  0
   26.3636  -20.0304  -14.4420 C   0  0  2  0  0  0  0  0  0  0  0  0
   26.1097  -19.1688  -15.5555 N   0  0  0  0  0  0  0  0  0  0  0  0
   25.2697  -19.9109  -13.4661 C   0  0  0  0  0  0  0  0  0  0  0  0
   25.0304  -18.8221  -12.8991 O   0  0  0  0  0  0  0  0  0  0  0  0
   22.4938  -22.0856  -12.2611 C   0  0  0  0  0  0  0  0  0  0  0  0
   23.4449  -20.8970  -12.0924 C   0  0  2  0  0  0  0  0  0  0  0  0
   24.4374  -21.0127  -13.1204 N   0  0  0  0  0  0  0  0  0  0  0  0
   24.0590  -20.9025  -10.7450 C   0  0  0  0  0  0  0  0  0  0  0  0
   23.5328  -20.2455   -9.8160 O   0  0  0  0  0  0  0  0  0  0  0  0
   25.2104  -21.6174  -10.4688 O   0  0  0  0  0  0  0  0  0  0  0  0
  2  1  1  6
  3  2  1  0
  4  2  1  0
  4  5  1  6
  6 12  1  0
  6  4  1  0
  7  6  2  0
  9  8  1  6
  9 11  1  0
 10  9  1  0
 11 12  1  6
 13 11  1  0
 13 14  2  0
 16 17  1  0
 16 15  1  1
 17 13  1  0
 18 16  1  0
 19 18  2  0
 20 18  1  0
M  END
$$$$
