VVA.pdb
     RDKit          3D

 20 19  0  0  1  0  0  0  0  0999 V2000
   19.1868  -12.0573  -19.1681 C   0  0  0  0  0  0  0  0  0  0  0  0
   18.9868  -13.5284  -18.8164 C   0  0  1  0  0  0  0  0  0  0  0  0
   18.8406  -14.2706  -20.1178 C   0  0  0  0  0  0  0  0  0  0  0  0
   20.2166  -14.0025  -18.0642 C   0  0  2  0  0  0  0  0  0  0  0  0
   20.1385  -15.4020  -17.7454 N   0  0  0  0  0  0  0  0  0  0  0  0
   20.4585  -13.1516  -16.8915 C   0  0  0  0  0  0  0  0  0  0  0  0
   19.7444  -13.3137  -15.8783 O   0  0  0  0  0  0  0  0  0  0  0  0
   23.4823  -12.8675  -14.9152 C   0  0  0  0  0  0  0  0  0  0  0  0
   23.2064  -11.4215  -15.3202 C   0  0  2  0  0  0  0  0  0  0  0  0
   23.5169  -10.4884  -14.1705 C   0  0  0  0  0  0  0  0  0  0  0  0
   21.7503  -11.3477  -15.7141 C   0  0  2  0  0  0  0  0  0  0  0  0
   21.4576  -12.1606  -16.8543 N   0  0  0  0  0  0  0  0  0  0  0  0
   21.3047   -9.9684  -15.9639 C   0  0  0  0  0  0  0  0  0  0  0  0
   21.7986   -9.2918  -16.8927 O   0  0  0  0  0  0  0  0  0  0  0  0
   18.4565   -7.8537  -14.9449 C   0  0  0  0  0  0  0  0  0  0  0  0
   19.9070   -7.9839  -15.4191 C   0  0  2  0  0  0  0  0  0  0  0  0
   20.3021   -9.3397  -15.1729 N   0  0  0  0  0  0  0  0  0  0  0  0
   20.7817   -7.0274  -14.7030 C   0  0  0  0  0  0  0  0  0  0  0  0
   21.3427   -7.3720  -13.6363 O   0  0  0  0  0  0  0  0  0  0  0  0
   21.0063   -5.7468  -15.1752 O   0  0  0  0  0  0  0  0  0  0  0  0
  2  1  1  6
  3  2  1  0
  4  2  1  0
  4  5  1  1
  6 12  1  0
  6  4  1  0
  7  6  2  0
  9  8  1  1
  9 11  1  0
 10  9  1  0
 11 12  1  6
 13 11  1  0
 13 14  2  0
 16 17  1  0
 16 15  1  1
 17 13  1  0
 18 16  1  0
 19 18  2  0
 20 18  1  0
M  END
$$$$
