ISR.pdb
     RDKit          3D

 26 25  0  0  1  0  0  0  0  0999 V2000
    8.0933  -11.6590   19.2763 C   0  0  0  0  0  0  0  0  0  0  0  0
    7.2845  -12.9243   18.9674 C   0  0  0  0  0  0  0  0  0  0  0  0
    8.0087  -14.0667   19.6050 C   0  0  2  0  0  0  0  0  0  0  0  0
    9.4237  -14.1383   19.0642 C   0  0  0  0  0  0  0  0  0  0  0  0
    7.3417  -15.3954   19.3823 C   0  0  2  0  0  0  0  0  0  0  0  0
    5.9648  -15.4245   19.7248 N   0  0  0  0  0  0  0  0  0  0  0  0
    8.1162  -16.4328   20.0749 C   0  0  0  0  0  0  0  0  0  0  0  0
    7.9108  -16.6147   21.3028 O   0  0  0  0  0  0  0  0  0  0  0  0
   11.7158  -17.8655   18.6627 O   0  0  0  0  0  0  0  0  0  0  0  0
   10.8210  -18.8491   19.0755 C   0  0  0  0  0  0  0  0  0  0  0  0
    9.8548  -18.2673   20.0899 C   0  0  2  0  0  0  0  0  0  0  0  0
    9.0858  -17.2332   19.4025 N   0  0  0  0  0  0  0  0  0  0  0  0
   10.6021  -17.5945   21.1884 C   0  0  0  0  0  0  0  0  0  0  0  0
   11.0078  -16.3947   21.0980 O   0  0  0  0  0  0  0  0  0  0  0  0
    6.6616  -13.7912   26.5394 N   0  0  0  0  0  0  0  0  0  0  0  0
    7.9276  -13.6456   27.1700 C   0  0  0  0  0  0  0  0  0  0  0  0
    8.1389  -12.7876   28.1190 N   0  0  0  0  0  0  0  0  0  0  0  0
    8.9799  -14.5011   26.7057 N   0  0  0  0  0  0  0  0  0  0  0  0
    8.7034  -15.2346   25.4659 C   0  0  0  0  0  0  0  0  0  0  0  0
    9.8788  -16.1628   25.2593 C   0  0  0  0  0  0  0  0  0  0  0  0
    9.7900  -16.9276   23.9900 C   0  0  0  0  0  0  0  0  0  0  0  0
   11.1171  -17.5365   23.6297 C   0  0  2  0  0  0  0  0  0  0  0  0
   10.8770  -18.3088   22.3835 N   0  0  0  0  0  0  0  0  0  0  0  0
   11.5396  -18.4662   24.6905 C   0  0  0  0  0  0  0  0  0  0  0  0
   11.8424  -18.0023   25.8190 O   0  0  0  0  0  0  0  0  0  0  0  0
   11.6173  -19.8132   24.5111 O   0  0  0  0  0  0  0  0  0  0  0  0
  2  3  1  0
  2  1  1  0
  3  4  1  6
  5  6  1  1
  5  3  1  0
  7  5  1  0
  8  7  2  0
 10  9  1  0
 11 10  1  6
 11 12  1  0
 12  7  1  0
 13 23  1  0
 13 11  1  0
 14 13  2  0
 16 15  1  0
 17 16  2  0
 18 16  1  0
 19 18  1  0
 20 19  1  0
 20 21  1  0
 22 21  1  1
 22 23  1  0
 24 26  1  0
 24 22  1  0
 25 24  2  0
M  END
$$$$
