ISR.pdb
     RDKit          3D

 26 25  0  0  1  0  0  0  0  0999 V2000
    7.6582  -11.4621   20.2351 C   0  0  0  0  0  0  0  0  0  0  0  0
    7.5505  -12.7806   19.4603 C   0  0  0  0  0  0  0  0  0  0  0  0
    7.9855  -13.8663   20.3922 C   0  0  2  0  0  0  0  0  0  0  0  0
    9.4173  -13.6207   20.8273 C   0  0  0  0  0  0  0  0  0  0  0  0
    7.8955  -15.2410   19.7907 C   0  0  2  0  0  0  0  0  0  0  0  0
    6.6262  -15.5580   19.2408 N   0  0  0  0  0  0  0  0  0  0  0  0
    8.3368  -16.2219   20.7902 C   0  0  0  0  0  0  0  0  0  0  0  0
    7.5719  -16.4802   21.7552 O   0  0  0  0  0  0  0  0  0  0  0  0
   12.1550  -17.7420   20.6663 O   0  0  0  0  0  0  0  0  0  0  0  0
   11.1677  -18.6642   21.0026 C   0  0  0  0  0  0  0  0  0  0  0  0
    9.9872  -17.9441   21.6261 C   0  0  2  0  0  0  0  0  0  0  0  0
    9.5961  -16.8846   20.7000 N   0  0  0  0  0  0  0  0  0  0  0  0
   10.3976  -17.2818   22.8952 C   0  0  0  0  0  0  0  0  0  0  0  0
   11.1446  -16.2552   22.9145 O   0  0  0  0  0  0  0  0  0  0  0  0
    5.1919  -13.1994   26.2992 N   0  0  0  0  0  0  0  0  0  0  0  0
    6.3757  -12.5166   25.9066 C   0  0  0  0  0  0  0  0  0  0  0  0
    6.4926  -11.2273   25.9775 N   0  0  0  0  0  0  0  0  0  0  0  0
    7.4540  -13.3263   25.4203 N   0  0  0  0  0  0  0  0  0  0  0  0
    7.6439  -14.6104   26.1032 C   0  0  0  0  0  0  0  0  0  0  0  0
    8.7860  -15.2976   25.3897 C   0  0  0  0  0  0  0  0  0  0  0  0
    9.1672  -16.5848   26.0234 C   0  0  0  0  0  0  0  0  0  0  0  0
   10.4043  -17.1571   25.3877 C   0  0  2  0  0  0  0  0  0  0  0  0
    9.9446  -17.8069   24.1334 N   0  0  0  0  0  0  0  0  0  0  0  0
   10.9843  -18.1838   26.2695 C   0  0  0  0  0  0  0  0  0  0  0  0
   11.5206  -17.8249   27.3484 O   0  0  0  0  0  0  0  0  0  0  0  0
   10.9672  -19.5126   25.9751 O   0  0  0  0  0  0  0  0  0  0  0  0
  2  3  1  0
  2  1  1  0
  3  4  1  6
  5  6  1  1
  5  3  1  0
  7  5  1  0
  8  7  2  0
 10  9  1  0
 11 10  1  6
 11 12  1  0
 12  7  1  0
 13 23  1  0
 13 11  1  0
 14 13  2  0
 16 15  1  0
 17 16  2  0
 18 16  1  0
 19 18  1  0
 20 19  1  0
 20 21  1  0
 22 21  1  1
 22 23  1  0
 24 26  1  0
 24 22  1  0
 25 24  2  0
M  END
$$$$
