ISR.pdb
     RDKit          3D

 26 25  0  0  1  0  0  0  0  0999 V2000
    7.4787  -11.9606   18.3687 C   0  0  0  0  0  0  0  0  0  0  0  0
    7.6798  -13.4761   18.4841 C   0  0  0  0  0  0  0  0  0  0  0  0
    8.3093  -13.7285   19.8168 C   0  0  2  0  0  0  0  0  0  0  0  0
    9.6684  -13.0581   19.8734 C   0  0  0  0  0  0  0  0  0  0  0  0
    8.4808  -15.1889   20.1293 C   0  0  2  0  0  0  0  0  0  0  0  0
    7.2912  -15.9550   20.0206 N   0  0  0  0  0  0  0  0  0  0  0  0
    9.1144  -15.3169   21.4476 C   0  0  0  0  0  0  0  0  0  0  0  0
   10.2811  -14.8704   21.5980 O   0  0  0  0  0  0  0  0  0  0  0  0
    7.2343  -17.4530   24.3882 O   0  0  0  0  0  0  0  0  0  0  0  0
    7.9651  -16.3639   24.8553 C   0  0  0  0  0  0  0  0  0  0  0  0
    9.0709  -16.0312   23.8717 C   0  0  2  0  0  0  0  0  0  0  0  0
    8.4519  -15.9272   22.5529 N   0  0  0  0  0  0  0  0  0  0  0  0
   10.0543  -17.1473   23.8030 C   0  0  0  0  0  0  0  0  0  0  0  0
    9.8520  -18.1884   23.1047 O   0  0  0  0  0  0  0  0  0  0  0  0
   15.6459  -14.2698   20.4250 N   0  0  0  0  0  0  0  0  0  0  0  0
   14.4081  -14.6252   19.8223 C   0  0  0  0  0  0  0  0  0  0  0  0
   14.0857  -14.2550   18.6222 N   0  0  0  0  0  0  0  0  0  0  0  0
   13.5152  -15.4238   20.6095 N   0  0  0  0  0  0  0  0  0  0  0  0
   14.0915  -16.0163   21.8211 C   0  0  0  0  0  0  0  0  0  0  0  0
   12.9891  -16.8394   22.4481 C   0  0  0  0  0  0  0  0  0  0  0  0
   13.4289  -17.5465   23.6771 C   0  0  0  0  0  0  0  0  0  0  0  0
   12.2589  -18.1514   24.4030 C   0  0  2  0  0  0  0  0  0  0  0  0
   11.2641  -17.0565   24.5392 N   0  0  0  0  0  0  0  0  0  0  0  0
   12.6788  -18.5814   25.7472 C   0  0  0  0  0  0  0  0  0  0  0  0
   12.2997  -17.9152   26.7437 O   0  0  0  0  0  0  0  0  0  0  0  0
   13.4607  -19.6734   25.9681 O   0  0  0  0  0  0  0  0  0  0  0  0
  2  3  1  0
  2  1  1  0
  3  4  1  6
  5  6  1  1
  5  3  1  0
  7  5  1  0
  8  7  2  0
 10  9  1  0
 11 10  1  1
 11 12  1  0
 12  7  1  0
 13 23  1  0
 13 11  1  0
 14 13  2  0
 16 15  1  0
 17 16  2  0
 18 16  1  0
 19 18  1  0
 20 19  1  0
 20 21  1  0
 22 21  1  6
 22 23  1  0
 24 26  1  0
 24 22  1  0
 25 24  2  0
M  END
$$$$
