ISR.pdb
     RDKit          3D

 26 25  0  0  1  0  0  0  0  0999 V2000
    8.8033  -15.7356   15.3982 C   0  0  0  0  0  0  0  0  0  0  0  0
    8.0989  -14.6413   16.2087 C   0  0  0  0  0  0  0  0  0  0  0  0
    8.7284  -14.6350   17.5650 C   0  0  2  0  0  0  0  0  0  0  0  0
    8.6379  -16.0205   18.1751 C   0  0  0  0  0  0  0  0  0  0  0  0
    8.0982  -13.6516   18.5113 C   0  0  2  0  0  0  0  0  0  0  0  0
    8.1789  -12.2988   18.0900 N   0  0  0  0  0  0  0  0  0  0  0  0
    8.6631  -13.8587   19.8506 C   0  0  0  0  0  0  0  0  0  0  0  0
    9.8864  -13.6241   20.0281 O   0  0  0  0  0  0  0  0  0  0  0  0
    7.7206  -14.9738   24.5087 O   0  0  0  0  0  0  0  0  0  0  0  0
    7.2524  -14.7509   23.2165 C   0  0  0  0  0  0  0  0  0  0  0  0
    8.4209  -14.4683   22.2916 C   0  0  2  0  0  0  0  0  0  0  0  0
    7.8728  -14.3140   20.9465 N   0  0  0  0  0  0  0  0  0  0  0  0
    9.3436  -15.6365   22.2530 C   0  0  0  0  0  0  0  0  0  0  0  0
    9.0526  -16.7117   21.6433 O   0  0  0  0  0  0  0  0  0  0  0  0
   15.3299  -13.6191   19.5086 N   0  0  0  0  0  0  0  0  0  0  0  0
   14.7738  -14.5898   18.6309 C   0  0  0  0  0  0  0  0  0  0  0  0
   14.7621  -14.4394   17.3431 N   0  0  0  0  0  0  0  0  0  0  0  0
   14.2167  -15.7624   19.2386 N   0  0  0  0  0  0  0  0  0  0  0  0
   14.2677  -15.8053   20.7039 C   0  0  0  0  0  0  0  0  0  0  0  0
   12.8953  -16.2497   21.1563 C   0  0  0  0  0  0  0  0  0  0  0  0
   12.8003  -16.4096   22.6292 C   0  0  0  0  0  0  0  0  0  0  0  0
   11.4073  -16.7956   23.0442 C   0  0  2  0  0  0  0  0  0  0  0  0
   10.5953  -15.5581   22.9170 N   0  0  0  0  0  0  0  0  0  0  0  0
   11.4103  -17.2187   24.4546 C   0  0  0  0  0  0  0  0  0  0  0  0
   10.8222  -16.5028   25.3044 O   0  0  0  0  0  0  0  0  0  0  0  0
   12.0199  -18.3556   24.8885 O   0  0  0  0  0  0  0  0  0  0  0  0
  2  3  1  0
  2  1  1  0
  3  4  1  1
  5  6  1  6
  5  3  1  0
  7  5  1  0
  8  7  2  0
 10  9  1  0
 11 10  1  1
 11 12  1  0
 12  7  1  0
 13 23  1  0
 13 11  1  0
 14 13  2  0
 16 15  1  0
 17 16  2  0
 18 16  1  0
 19 18  1  0
 20 19  1  0
 20 21  1  0
 22 21  1  1
 22 23  1  0
 24 26  1  0
 24 22  1  0
 25 24  2  0
M  END
$$$$
