ISR.pdb
     RDKit          3D

 26 25  0  0  1  0  0  0  0  0999 V2000
    7.1412  -11.3233   26.3667 C   0  0  0  0  0  0  0  0  0  0  0  0
    6.3653  -12.6446   26.3150 C   0  0  0  0  0  0  0  0  0  0  0  0
    7.3735  -13.7302   26.1121 C   0  0  2  0  0  0  0  0  0  0  0  0
    8.1041  -13.5085   24.8018 C   0  0  0  0  0  0  0  0  0  0  0  0
    6.7729  -15.1082   26.0999 C   0  0  2  0  0  0  0  0  0  0  0  0
    5.7843  -15.3253   27.0947 N   0  0  0  0  0  0  0  0  0  0  0  0
    7.8582  -16.0953   26.1599 C   0  0  0  0  0  0  0  0  0  0  0  0
    8.2363  -16.5026   27.2886 O   0  0  0  0  0  0  0  0  0  0  0  0
    7.9283  -19.2874   25.1507 O   0  0  0  0  0  0  0  0  0  0  0  0
    9.0510  -18.7813   25.8001 C   0  0  0  0  0  0  0  0  0  0  0  0
    9.5774  -17.5754   25.0454 C   0  0  2  0  0  0  0  0  0  0  0  0
    8.4907  -16.6013   24.9865 N   0  0  0  0  0  0  0  0  0  0  0  0
    9.9039  -17.9471   23.6408 C   0  0  0  0  0  0  0  0  0  0  0  0
    9.0362  -18.4232   22.8453 O   0  0  0  0  0  0  0  0  0  0  0  0
    7.0895  -13.5142   18.8514 N   0  0  0  0  0  0  0  0  0  0  0  0
    8.3767  -12.9628   18.6051 C   0  0  0  0  0  0  0  0  0  0  0  0
    8.5454  -11.8368   17.9847 N   0  0  0  0  0  0  0  0  0  0  0  0
    9.5006  -13.7159   19.0789 N   0  0  0  0  0  0  0  0  0  0  0  0
    9.3607  -14.2918   20.4206 C   0  0  0  0  0  0  0  0  0  0  0  0
   10.6412  -15.0512   20.6842 C   0  0  0  0  0  0  0  0  0  0  0  0
   10.6073  -15.8079   21.9610 C   0  0  0  0  0  0  0  0  0  0  0  0
   11.4230  -17.0679   21.8667 C   0  0  2  0  0  0  0  0  0  0  0  0
   11.2278  -17.7679   23.1624 N   0  0  0  0  0  0  0  0  0  0  0  0
   12.8477  -16.7256   21.7217 C   0  0  0  0  0  0  0  0  0  0  0  0
   13.5593  -16.6385   22.7545 O   0  0  0  0  0  0  0  0  0  0  0  0
   13.4392  -16.4991   20.5169 O   0  0  0  0  0  0  0  0  0  0  0  0
  2  3  1  0
  2  1  1  0
  3  4  1  6
  5  6  1  1
  5  3  1  0
  7  5  1  0
  8  7  2  0
 10  9  1  0
 11 10  1  1
 11 12  1  0
 12  7  1  0
 13 23  1  0
 13 11  1  0
 14 13  2  0
 16 15  1  0
 17 16  2  0
 18 16  1  0
 19 18  1  0
 20 19  1  0
 20 21  1  0
 22 21  1  1
 22 23  1  0
 24 26  1  0
 24 22  1  0
 25 24  2  0
M  END
$$$$
