ISR.pdb
     RDKit          3D

 26 25  0  0  1  0  0  0  0  0999 V2000
    7.9149  -11.5611   19.4626 C   0  0  0  0  0  0  0  0  0  0  0  0
    7.8556  -12.8318   18.6068 C   0  0  0  0  0  0  0  0  0  0  0  0
    8.4096  -13.9417   19.4419 C   0  0  2  0  0  0  0  0  0  0  0  0
    9.8685  -13.6668   19.7517 C   0  0  0  0  0  0  0  0  0  0  0  0
    8.3035  -15.2911   18.7880 C   0  0  2  0  0  0  0  0  0  0  0  0
    6.9977  -15.6263   18.3446 N   0  0  0  0  0  0  0  0  0  0  0  0
    8.8660  -16.2993   19.6952 C   0  0  0  0  0  0  0  0  0  0  0  0
    8.2164  -16.6051   20.7284 O   0  0  0  0  0  0  0  0  0  0  0  0
   12.6020  -18.0046   18.9474 O   0  0  0  0  0  0  0  0  0  0  0  0
   11.6130  -18.8026   19.5162 C   0  0  0  0  0  0  0  0  0  0  0  0
   10.6746  -17.9425   20.3412 C   0  0  2  0  0  0  0  0  0  0  0  0
   10.1161  -16.9364   19.4416 N   0  0  0  0  0  0  0  0  0  0  0  0
   11.4342  -17.2110   21.3926 C   0  0  0  0  0  0  0  0  0  0  0  0
   12.0264  -16.1118   21.1616 O   0  0  0  0  0  0  0  0  0  0  0  0
   10.3409  -15.7936   29.9490 N   0  0  0  0  0  0  0  0  0  0  0  0
    9.8562  -14.9230   28.9348 C   0  0  0  0  0  0  0  0  0  0  0  0
    9.0698  -13.9244   29.1908 N   0  0  0  0  0  0  0  0  0  0  0  0
   10.2797  -15.1992   27.5934 N   0  0  0  0  0  0  0  0  0  0  0  0
   10.8871  -16.5165   27.3763 C   0  0  0  0  0  0  0  0  0  0  0  0
   11.7639  -16.3752   26.1528 C   0  0  0  0  0  0  0  0  0  0  0  0
   11.2040  -17.0637   24.9627 C   0  0  0  0  0  0  0  0  0  0  0  0
   12.1172  -16.9246   23.7759 C   0  0  2  0  0  0  0  0  0  0  0  0
   11.5064  -17.7509   22.7031 N   0  0  0  0  0  0  0  0  0  0  0  0
   13.4425  -17.4760   24.1037 C   0  0  0  0  0  0  0  0  0  0  0  0
   14.2130  -16.8080   24.8390 O   0  0  0  0  0  0  0  0  0  0  0  0
   13.8788  -18.6827   23.6499 O   0  0  0  0  0  0  0  0  0  0  0  0
  2  3  1  0
  2  1  1  0
  3  4  1  6
  5  6  1  1
  5  3  1  0
  7  5  1  0
  8  7  2  0
 10  9  1  0
 11 10  1  6
 11 12  1  0
 12  7  1  0
 13 23  1  0
 13 11  1  0
 14 13  2  0
 16 15  1  0
 17 16  2  0
 18 16  1  0
 19 18  1  0
 20 19  1  0
 20 21  1  0
 22 21  1  1
 22 23  1  0
 24 26  1  0
 24 22  1  0
 25 24  2  0
M  END
$$$$
