ISR.pdb
     RDKit          3D

 26 25  0  0  1  0  0  0  0  0999 V2000
   15.8372  -19.2049   17.3005 C   0  0  0  0  0  0  0  0  0  0  0  0
   14.3977  -18.7350   17.0606 C   0  0  0  0  0  0  0  0  0  0  0  0
   14.0663  -17.7781   18.1608 C   0  0  2  0  0  0  0  0  0  0  0  0
   14.2810  -18.4508   19.5029 C   0  0  0  0  0  0  0  0  0  0  0  0
   12.6544  -17.2655   18.1012 C   0  0  2  0  0  0  0  0  0  0  0  0
   12.2617  -16.7771   16.8278 N   0  0  0  0  0  0  0  0  0  0  0  0
   12.4687  -16.2725   19.1667 C   0  0  0  0  0  0  0  0  0  0  0  0
   12.9951  -15.1382   19.0275 O   0  0  0  0  0  0  0  0  0  0  0  0
    9.7276  -16.9231   22.1941 O   0  0  0  0  0  0  0  0  0  0  0  0
   10.0354  -15.6308   21.7774 C   0  0  0  0  0  0  0  0  0  0  0  0
   11.4994  -15.5549   21.3879 C   0  0  2  0  0  0  0  0  0  0  0  0
   11.7158  -16.5536   20.3444 N   0  0  0  0  0  0  0  0  0  0  0  0
   12.3611  -15.9376   22.5406 C   0  0  0  0  0  0  0  0  0  0  0  0
   12.3633  -15.2882   23.6317 O   0  0  0  0  0  0  0  0  0  0  0  0
   13.3203  -21.3748   20.2189 N   0  0  0  0  0  0  0  0  0  0  0  0
   14.7213  -21.1657   20.0958 C   0  0  0  0  0  0  0  0  0  0  0  0
   15.3527  -21.3181   18.9737 N   0  0  0  0  0  0  0  0  0  0  0  0
   15.4198  -20.7723   21.2842 N   0  0  0  0  0  0  0  0  0  0  0  0
   14.7388  -21.0663   22.5496 C   0  0  0  0  0  0  0  0  0  0  0  0
   13.9569  -19.8212   22.9017 C   0  0  0  0  0  0  0  0  0  0  0  0
   14.8306  -18.6507   23.1674 C   0  0  0  0  0  0  0  0  0  0  0  0
   14.0240  -17.4609   23.6096 C   0  0  2  0  0  0  0  0  0  0  0  0
   13.2145  -17.0659   22.4282 N   0  0  0  0  0  0  0  0  0  0  0  0
   14.9278  -16.3520   23.9583 C   0  0  0  0  0  0  0  0  0  0  0  0
   14.9524  -15.3342   23.2208 O   0  0  0  0  0  0  0  0  0  0  0  0
   15.7427  -16.3717   25.0482 O   0  0  0  0  0  0  0  0  0  0  0  0
  2  3  1  0
  2  1  1  0
  3  4  1  1
  5  6  1  6
  5  3  1  0
  7  5  1  0
  8  7  2  0
 10  9  1  0
 11 10  1  1
 11 12  1  0
 12  7  1  0
 13 23  1  0
 13 11  1  0
 14 13  2  0
 16 15  1  0
 17 16  2  0
 18 16  1  0
 19 18  1  0
 20 19  1  0
 20 21  1  0
 22 21  1  6
 22 23  1  0
 24 26  1  0
 24 22  1  0
 25 24  2  0
M  END
$$$$
