ISR.pdb
     RDKit          3D

 26 25  0  0  1  0  0  0  0  0999 V2000
    6.9952  -11.0199   26.7551 C   0  0  0  0  0  0  0  0  0  0  0  0
    6.2309  -12.3420   26.6203 C   0  0  0  0  0  0  0  0  0  0  0  0
    7.2184  -13.3675   26.1628 C   0  0  2  0  0  0  0  0  0  0  0  0
    7.7577  -12.9825   24.7987 C   0  0  0  0  0  0  0  0  0  0  0  0
    6.6435  -14.7540   26.0780 C   0  0  2  0  0  0  0  0  0  0  0  0
    5.8611  -15.1335   27.1995 N   0  0  0  0  0  0  0  0  0  0  0  0
    7.7333  -15.6996   25.8059 C   0  0  0  0  0  0  0  0  0  0  0  0
    8.6918  -15.7595   26.6186 O   0  0  0  0  0  0  0  0  0  0  0  0
    9.1601  -19.7619   23.7825 O   0  0  0  0  0  0  0  0  0  0  0  0
    8.1817  -18.8397   24.1443 C   0  0  0  0  0  0  0  0  0  0  0  0
    8.8206  -17.4854   24.3857 C   0  0  2  0  0  0  0  0  0  0  0  0
    7.7369  -16.5446   24.6575 N   0  0  0  0  0  0  0  0  0  0  0  0
    9.5080  -17.0113   23.1527 C   0  0  0  0  0  0  0  0  0  0  0  0
    8.8710  -16.5631   22.1499 O   0  0  0  0  0  0  0  0  0  0  0  0
    8.3998  -14.8420   18.3198 N   0  0  0  0  0  0  0  0  0  0  0  0
    8.5958  -13.4547   18.5622 C   0  0  0  0  0  0  0  0  0  0  0  0
    7.7625  -12.5507   18.1501 N   0  0  0  0  0  0  0  0  0  0  0  0
    9.7732  -13.0895   19.2937 N   0  0  0  0  0  0  0  0  0  0  0  0
   10.7396  -14.1685   19.5241 C   0  0  0  0  0  0  0  0  0  0  0  0
   10.3128  -14.8440   20.8076 C   0  0  0  0  0  0  0  0  0  0  0  0
   11.4624  -15.2183   21.6691 C   0  0  0  0  0  0  0  0  0  0  0  0
   11.5813  -16.7121   21.7961 C   0  0  2  0  0  0  0  0  0  0  0  0
   10.9247  -17.0569   23.0833 N   0  0  0  0  0  0  0  0  0  0  0  0
   13.0022  -17.0909   21.8714 C   0  0  0  0  0  0  0  0  0  0  0  0
   13.5363  -17.6449   20.8773 O   0  0  0  0  0  0  0  0  0  0  0  0
   13.7739  -16.8681   22.9702 O   0  0  0  0  0  0  0  0  0  0  0  0
  2  3  1  0
  2  1  1  0
  3  4  1  6
  5  6  1  1
  5  3  1  0
  7  5  1  0
  8  7  2  0
 10  9  1  0
 11 10  1  6
 11 12  1  0
 12  7  1  0
 13 23  1  0
 13 11  1  0
 14 13  2  0
 16 15  1  0
 17 16  2  0
 18 16  1  0
 19 18  1  0
 20 19  1  0
 20 21  1  0
 22 21  1  1
 22 23  1  0
 24 26  1  0
 24 22  1  0
 25 24  2  0
M  END
$$$$
