ISR.pdb
     RDKit          3D

 26 25  0  0  1  0  0  0  0  0999 V2000
    8.0913  -11.5503   20.0332 C   0  0  0  0  0  0  0  0  0  0  0  0
    8.1738  -12.4612   18.8028 C   0  0  0  0  0  0  0  0  0  0  0  0
    8.4429  -13.8435   19.3056 C   0  0  2  0  0  0  0  0  0  0  0  0
    7.2816  -14.3090   20.1626 C   0  0  0  0  0  0  0  0  0  0  0  0
    9.7074  -13.9501   20.1115 C   0  0  2  0  0  0  0  0  0  0  0  0
   10.7680  -13.1283   19.6491 N   0  0  0  0  0  0  0  0  0  0  0  0
   10.0899  -15.3648   20.2023 C   0  0  0  0  0  0  0  0  0  0  0  0
    9.1972  -16.2115   20.4656 O   0  0  0  0  0  0  0  0  0  0  0  0
   14.0934  -16.5828   19.7914 O   0  0  0  0  0  0  0  0  0  0  0  0
   13.0744  -17.4011   19.3114 C   0  0  0  0  0  0  0  0  0  0  0  0
   11.8239  -17.2029   20.1467 C   0  0  2  0  0  0  0  0  0  0  0  0
   11.4318  -15.8033   20.0025 N   0  0  0  0  0  0  0  0  0  0  0  0
   12.1253  -17.4230   21.5883 C   0  0  0  0  0  0  0  0  0  0  0  0
   12.2553  -16.4629   22.4091 O   0  0  0  0  0  0  0  0  0  0  0  0
   12.9034  -24.2645   25.1973 N   0  0  0  0  0  0  0  0  0  0  0  0
   11.6742  -23.9061   25.8155 C   0  0  0  0  0  0  0  0  0  0  0  0
   11.0771  -24.6717   26.6749 N   0  0  0  0  0  0  0  0  0  0  0  0
   11.1118  -22.6412   25.4433 N   0  0  0  0  0  0  0  0  0  0  0  0
   11.7534  -21.4612   26.0327 C   0  0  0  0  0  0  0  0  0  0  0  0
   12.7002  -20.9314   24.9798 C   0  0  0  0  0  0  0  0  0  0  0  0
   11.9922  -20.3539   23.8097 C   0  0  0  0  0  0  0  0  0  0  0  0
   12.4539  -18.9491   23.5355 C   0  0  2  0  0  0  0  0  0  0  0  0
   12.2749  -18.7478   22.0746 N   0  0  0  0  0  0  0  0  0  0  0  0
   13.8850  -18.8261   23.8600 C   0  0  0  0  0  0  0  0  0  0  0  0
   14.7314  -18.9958   22.9461 O   0  0  0  0  0  0  0  0  0  0  0  0
   14.3418  -18.5334   25.1082 O   0  0  0  0  0  0  0  0  0  0  0  0
  2  3  1  0
  2  1  1  0
  3  4  1  1
  5  6  1  6
  5  3  1  0
  7  5  1  0
  8  7  2  0
 10  9  1  0
 11 10  1  6
 11 12  1  0
 12  7  1  0
 13 23  1  0
 13 11  1  0
 14 13  2  0
 16 15  1  0
 17 16  2  0
 18 16  1  0
 19 18  1  0
 20 19  1  0
 20 21  1  0
 22 21  1  6
 22 23  1  0
 24 26  1  0
 24 22  1  0
 25 24  2  0
M  END
$$$$
