ISR.pdb
     RDKit          3D

 26 25  0  0  1  0  0  0  0  0999 V2000
    7.8593  -11.5672   20.6582 C   0  0  0  0  0  0  0  0  0  0  0  0
    8.4004  -12.6443   19.7108 C   0  0  0  0  0  0  0  0  0  0  0  0
    8.2518  -13.9545   20.4161 C   0  0  2  0  0  0  0  0  0  0  0  0
    8.9842  -13.9046   21.7431 C   0  0  0  0  0  0  0  0  0  0  0  0
    8.7722  -15.1214   19.6241 C   0  0  2  0  0  0  0  0  0  0  0  0
    8.1748  -15.2751   18.3459 N   0  0  0  0  0  0  0  0  0  0  0  0
    8.6639  -16.3336   20.4454 C   0  0  0  0  0  0  0  0  0  0  0  0
    7.5452  -16.9033   20.5288 O   0  0  0  0  0  0  0  0  0  0  0  0
   11.9904  -17.8056   22.4279 O   0  0  0  0  0  0  0  0  0  0  0  0
   11.1242  -18.7299   21.8501 C   0  0  0  0  0  0  0  0  0  0  0  0
    9.7157  -18.1674   21.8309 C   0  0  2  0  0  0  0  0  0  0  0  0
    9.7800  -16.8793   21.1452 N   0  0  0  0  0  0  0  0  0  0  0  0
    9.2482  -17.8975   23.2188 C   0  0  0  0  0  0  0  0  0  0  0  0
    9.4506  -16.7865   23.7994 O   0  0  0  0  0  0  0  0  0  0  0  0
    5.1415  -23.2359   28.6586 N   0  0  0  0  0  0  0  0  0  0  0  0
    6.4285  -22.8187   29.0959 C   0  0  0  0  0  0  0  0  0  0  0  0
    7.1032  -23.4664   29.9939 N   0  0  0  0  0  0  0  0  0  0  0  0
    6.9593  -21.6315   28.4928 N   0  0  0  0  0  0  0  0  0  0  0  0
    6.0521  -20.9167   27.5886 C   0  0  0  0  0  0  0  0  0  0  0  0
    6.8085  -19.6949   27.1187 C   0  0  0  0  0  0  0  0  0  0  0  0
    7.2098  -19.7818   25.6921 C   0  0  0  0  0  0  0  0  0  0  0  0
    8.0482  -18.5992   25.2915 C   0  0  2  0  0  0  0  0  0  0  0  0
    8.5507  -18.9094   23.9284 N   0  0  0  0  0  0  0  0  0  0  0  0
    9.1969  -18.4749   26.2042 C   0  0  0  0  0  0  0  0  0  0  0  0
   10.2353  -19.1428   25.9676 O   0  0  0  0  0  0  0  0  0  0  0  0
    9.1929  -17.6654   27.2984 O   0  0  0  0  0  0  0  0  0  0  0  0
  2  3  1  0
  2  1  1  0
  3  4  1  1
  5  6  1  6
  5  3  1  0
  7  5  1  0
  8  7  2  0
 10  9  1  0
 11 10  1  1
 11 12  1  0
 12  7  1  0
 13 23  1  0
 13 11  1  0
 14 13  2  0
 16 15  1  0
 17 16  2  0
 18 16  1  0
 19 18  1  0
 20 19  1  0
 20 21  1  0
 22 21  1  1
 22 23  1  0
 24 26  1  0
 24 22  1  0
 25 24  2  0
M  END
$$$$
