ISR.pdb
     RDKit          3D

 26 25  0  0  1  0  0  0  0  0999 V2000
    7.4203  -12.3754   20.5106 C   0  0  0  0  0  0  0  0  0  0  0  0
    6.8203  -12.5367   21.9122 C   0  0  0  0  0  0  0  0  0  0  0  0
    7.4070  -13.7836   22.4927 C   0  0  2  0  0  0  0  0  0  0  0  0
    7.1485  -14.9507   21.5595 C   0  0  0  0  0  0  0  0  0  0  0  0
    6.8603  -14.1246   23.8509 C   0  0  2  0  0  0  0  0  0  0  0  0
    6.5134  -12.9989   24.6424 N   0  0  0  0  0  0  0  0  0  0  0  0
    7.8073  -15.0189   24.5286 C   0  0  0  0  0  0  0  0  0  0  0  0
    8.8288  -14.5159   25.0638 O   0  0  0  0  0  0  0  0  0  0  0  0
    6.8276  -18.9408   25.0164 O   0  0  0  0  0  0  0  0  0  0  0  0
    7.7413  -18.4148   25.9258 C   0  0  0  0  0  0  0  0  0  0  0  0
    8.5533  -17.3207   25.2591 C   0  0  2  0  0  0  0  0  0  0  0  0
    7.6049  -16.4286   24.5972 N   0  0  0  0  0  0  0  0  0  0  0  0
    9.4219  -17.8971   24.1957 C   0  0  0  0  0  0  0  0  0  0  0  0
    9.0027  -18.1051   23.0153 O   0  0  0  0  0  0  0  0  0  0  0  0
   10.4402  -15.0335   18.0013 N   0  0  0  0  0  0  0  0  0  0  0  0
   11.1769  -14.7190   19.1760 C   0  0  0  0  0  0  0  0  0  0  0  0
   12.0444  -13.7562   19.2177 N   0  0  0  0  0  0  0  0  0  0  0  0
   10.9169  -15.5241   20.3332 N   0  0  0  0  0  0  0  0  0  0  0  0
   11.1020  -16.9685   20.1582 C   0  0  0  0  0  0  0  0  0  0  0  0
   10.7006  -17.6027   21.4707 C   0  0  0  0  0  0  0  0  0  0  0  0
   11.8245  -17.6819   22.4373 C   0  0  0  0  0  0  0  0  0  0  0  0
   11.6159  -18.7999   23.4213 C   0  0  2  0  0  0  0  0  0  0  0  0
   10.7676  -18.2300   24.4994 N   0  0  0  0  0  0  0  0  0  0  0  0
   12.9105  -19.2004   23.9973 C   0  0  0  0  0  0  0  0  0  0  0  0
   13.2213  -18.7822   25.1414 O   0  0  0  0  0  0  0  0  0  0  0  0
   13.7940  -20.0088   23.3503 O   0  0  0  0  0  0  0  0  0  0  0  0
  2  3  1  0
  2  1  1  0
  3  4  1  6
  5  6  1  1
  5  3  1  0
  7  5  1  0
  8  7  2  0
 10  9  1  0
 11 10  1  6
 11 12  1  0
 12  7  1  0
 13 23  1  0
 13 11  1  0
 14 13  2  0
 16 15  1  0
 17 16  2  0
 18 16  1  0
 19 18  1  0
 20 19  1  0
 20 21  1  0
 22 21  1  6
 22 23  1  0
 24 26  1  0
 24 22  1  0
 25 24  2  0
M  END
$$$$
