ISR.pdb
     RDKit          3D

 26 25  0  0  1  0  0  0  0  0999 V2000
    8.7669  -12.2827   18.8302 C   0  0  0  0  0  0  0  0  0  0  0  0
    7.5781  -13.1657   19.2272 C   0  0  0  0  0  0  0  0  0  0  0  0
    8.0806  -14.1325   20.2513 C   0  0  2  0  0  0  0  0  0  0  0  0
    9.1733  -14.9930   19.6466 C   0  0  0  0  0  0  0  0  0  0  0  0
    7.0087  -15.0327   20.7994 C   0  0  2  0  0  0  0  0  0  0  0  0
    5.6892  -14.5328   20.6467 N   0  0  0  0  0  0  0  0  0  0  0  0
    7.3313  -15.3529   22.1955 C   0  0  0  0  0  0  0  0  0  0  0  0
    7.1560  -14.4655   23.0700 O   0  0  0  0  0  0  0  0  0  0  0  0
    6.6056  -18.5345   23.8651 O   0  0  0  0  0  0  0  0  0  0  0  0
    7.2077  -17.5868   24.6883 C   0  0  0  0  0  0  0  0  0  0  0  0
    8.3267  -16.8931   23.9350 C   0  0  2  0  0  0  0  0  0  0  0  0
    7.8332  -16.6291   22.5858 N   0  0  0  0  0  0  0  0  0  0  0  0
    9.4985  -17.8017   23.7986 C   0  0  0  0  0  0  0  0  0  0  0  0
    9.5054  -18.7849   22.9951 O   0  0  0  0  0  0  0  0  0  0  0  0
   15.0744  -14.1796   21.3035 N   0  0  0  0  0  0  0  0  0  0  0  0
   14.1852  -14.8722   20.4367 C   0  0  0  0  0  0  0  0  0  0  0  0
   13.7548  -14.3602   19.3259 N   0  0  0  0  0  0  0  0  0  0  0  0
   13.7764  -16.1831   20.8482 N   0  0  0  0  0  0  0  0  0  0  0  0
   14.0303  -16.5170   22.2537 C   0  0  0  0  0  0  0  0  0  0  0  0
   12.8404  -17.3300   22.7109 C   0  0  0  0  0  0  0  0  0  0  0  0
   12.9751  -17.8077   24.1101 C   0  0  0  0  0  0  0  0  0  0  0  0
   11.7533  -18.5703   24.5429 C   0  0  2  0  0  0  0  0  0  0  0  0
   10.6546  -17.5715   24.5888 N   0  0  0  0  0  0  0  0  0  0  0  0
   11.9608  -19.1106   25.8968 C   0  0  0  0  0  0  0  0  0  0  0  0
   11.3412  -18.5909   26.8594 O   0  0  0  0  0  0  0  0  0  0  0  0
   12.7939  -20.1539   26.1614 O   0  0  0  0  0  0  0  0  0  0  0  0
  2  3  1  0
  2  1  1  0
  3  4  1  6
  5  6  1  1
  5  3  1  0
  7  5  1  0
  8  7  2  0
 10  9  1  0
 11 10  1  1
 11 12  1  0
 12  7  1  0
 13 23  1  0
 13 11  1  0
 14 13  2  0
 16 15  1  0
 17 16  2  0
 18 16  1  0
 19 18  1  0
 20 19  1  0
 20 21  1  0
 22 21  1  1
 22 23  1  0
 24 26  1  0
 24 22  1  0
 25 24  2  0
M  END
$$$$
