ISR.pdb
     RDKit          3D

 26 25  0  0  1  0  0  0  0  0999 V2000
    8.8327  -11.9164   19.8654 C   0  0  0  0  0  0  0  0  0  0  0  0
    8.3723  -13.1528   19.0843 C   0  0  0  0  0  0  0  0  0  0  0  0
    8.6210  -14.3367   19.9633 C   0  0  2  0  0  0  0  0  0  0  0  0
   10.0956  -14.4138   20.3090 C   0  0  0  0  0  0  0  0  0  0  0  0
    8.2049  -15.6403   19.3410 C   0  0  2  0  0  0  0  0  0  0  0  0
    6.8781  -15.6521   18.8375 N   0  0  0  0  0  0  0  0  0  0  0  0
    8.4513  -16.7213   20.3037 C   0  0  0  0  0  0  0  0  0  0  0  0
    7.7425  -16.7726   21.3419 O   0  0  0  0  0  0  0  0  0  0  0  0
   10.3790  -19.8960   19.1255 O   0  0  0  0  0  0  0  0  0  0  0  0
    9.8199  -20.0544   20.3907 C   0  0  0  0  0  0  0  0  0  0  0  0
    9.7817  -18.7160   21.1034 C   0  0  2  0  0  0  0  0  0  0  0  0
    9.4617  -17.7061   20.0979 N   0  0  0  0  0  0  0  0  0  0  0  0
   11.1282  -18.3796   21.6434 C   0  0  0  0  0  0  0  0  0  0  0  0
   12.1795  -18.4434   20.9342 O   0  0  0  0  0  0  0  0  0  0  0  0
   15.1168  -14.1599   19.3983 N   0  0  0  0  0  0  0  0  0  0  0  0
   13.7338  -14.3730   19.1460 C   0  0  0  0  0  0  0  0  0  0  0  0
   13.1402  -13.9170   18.0873 N   0  0  0  0  0  0  0  0  0  0  0  0
   13.0095  -15.1260   20.1274 N   0  0  0  0  0  0  0  0  0  0  0  0
   13.2001  -14.7063   21.5198 C   0  0  0  0  0  0  0  0  0  0  0  0
   13.6888  -15.9299   22.2613 C   0  0  0  0  0  0  0  0  0  0  0  0
   12.8490  -16.2601   23.4401 C   0  0  0  0  0  0  0  0  0  0  0  0
   12.6168  -17.7425   23.5425 C   0  0  2  0  0  0  0  0  0  0  0  0
   11.2543  -17.9719   22.9969 N   0  0  0  0  0  0  0  0  0  0  0  0
   12.6366  -18.1501   24.9573 C   0  0  0  0  0  0  0  0  0  0  0  0
   13.7397  -18.2045   25.5580 O   0  0  0  0  0  0  0  0  0  0  0  0
   11.5126  -18.4713   25.6544 O   0  0  0  0  0  0  0  0  0  0  0  0
  2  3  1  0
  2  1  1  0
  3  4  1  6
  5  6  1  1
  5  3  1  0
  7  5  1  0
  8  7  2  0
 10  9  1  0
 11 10  1  6
 11 12  1  0
 12  7  1  0
 13 23  1  0
 13 11  1  0
 14 13  2  0
 16 15  1  0
 17 16  2  0
 18 16  1  0
 19 18  1  0
 20 19  1  0
 20 21  1  0
 22 21  1  1
 22 23  1  0
 24 26  1  0
 24 22  1  0
 25 24  2  0
M  END
$$$$
