ISR.pdb
     RDKit          3D

 26 25  0  0  1  0  0  0  0  0999 V2000
    8.8749  -12.2570   18.6333 C   0  0  0  0  0  0  0  0  0  0  0  0
    7.9017  -13.3547   19.0788 C   0  0  0  0  0  0  0  0  0  0  0  0
    8.3756  -13.8374   20.4124 C   0  0  2  0  0  0  0  0  0  0  0  0
    9.7951  -14.3572   20.2911 C   0  0  0  0  0  0  0  0  0  0  0  0
    7.5147  -14.9235   20.9948 C   0  0  2  0  0  0  0  0  0  0  0  0
    6.1358  -14.5980   21.0758 N   0  0  0  0  0  0  0  0  0  0  0  0
    8.0756  -15.3245   22.2911 C   0  0  0  0  0  0  0  0  0  0  0  0
    7.9380  -14.5465   23.2703 O   0  0  0  0  0  0  0  0  0  0  0  0
    8.0363  -18.8545   23.6567 O   0  0  0  0  0  0  0  0  0  0  0  0
    8.4501  -17.8143   24.4846 C   0  0  0  0  0  0  0  0  0  0  0  0
    9.4115  -16.9142   23.7321 C   0  0  2  0  0  0  0  0  0  0  0  0
    8.7655  -16.5592   22.4711 N   0  0  0  0  0  0  0  0  0  0  0  0
   10.6546  -17.6587   23.3885 C   0  0  0  0  0  0  0  0  0  0  0  0
   10.6673  -18.6048   22.5417 O   0  0  0  0  0  0  0  0  0  0  0  0
   15.9091  -13.5783   20.0438 N   0  0  0  0  0  0  0  0  0  0  0  0
   14.7768  -14.1170   19.3733 C   0  0  0  0  0  0  0  0  0  0  0  0
   14.4252  -13.7376   18.1844 N   0  0  0  0  0  0  0  0  0  0  0  0
   14.0264  -15.1146   20.0780 N   0  0  0  0  0  0  0  0  0  0  0  0
   14.5893  -15.5455   21.3621 C   0  0  0  0  0  0  0  0  0  0  0  0
   13.6120  -16.5495   21.9301 C   0  0  0  0  0  0  0  0  0  0  0  0
   14.0992  -17.1792   23.1831 C   0  0  0  0  0  0  0  0  0  0  0  0
   13.0792  -18.1316   23.7438 C   0  0  2  0  0  0  0  0  0  0  0  0
   11.8748  -17.3081   24.0228 N   0  0  0  0  0  0  0  0  0  0  0  0
   13.5728  -18.6958   25.0112 C   0  0  0  0  0  0  0  0  0  0  0  0
   14.5657  -19.4665   24.9867 O   0  0  0  0  0  0  0  0  0  0  0  0
   13.0060  -18.4214   26.2179 O   0  0  0  0  0  0  0  0  0  0  0  0
  2  3  1  0
  2  1  1  0
  3  4  1  6
  5  6  1  1
  5  3  1  0
  7  5  1  0
  8  7  2  0
 10  9  1  0
 11 10  1  1
 11 12  1  0
 12  7  1  0
 13 23  1  0
 13 11  1  0
 14 13  2  0
 16 15  1  0
 17 16  2  0
 18 16  1  0
 19 18  1  0
 20 19  1  0
 20 21  1  0
 22 21  1  1
 22 23  1  0
 24 26  1  0
 24 22  1  0
 25 24  2  0
M  END
$$$$
