ISR.pdb
     RDKit          3D

 26 25  0  0  1  0  0  0  0  0999 V2000
    8.8501  -16.3701   14.6056 C   0  0  0  0  0  0  0  0  0  0  0  0
    8.1819  -15.1563   15.2619 C   0  0  0  0  0  0  0  0  0  0  0  0
    8.8250  -14.9800   16.6004 C   0  0  2  0  0  0  0  0  0  0  0  0
    8.7029  -16.2644   17.3974 C   0  0  0  0  0  0  0  0  0  0  0  0
    8.2313  -13.8574   17.4049 C   0  0  2  0  0  0  0  0  0  0  0  0
    8.3055  -12.5855   16.7796 N   0  0  0  0  0  0  0  0  0  0  0  0
    8.8387  -13.8638   18.7416 C   0  0  0  0  0  0  0  0  0  0  0  0
   10.0648  -13.6006   18.8442 O   0  0  0  0  0  0  0  0  0  0  0  0
    6.7167  -15.2339   21.9902 O   0  0  0  0  0  0  0  0  0  0  0  0
    7.5245  -14.1285   22.2431 C   0  0  0  0  0  0  0  0  0  0  0  0
    8.6731  -14.0981   21.2528 C   0  0  2  0  0  0  0  0  0  0  0  0
    8.0862  -14.1570   19.9166 N   0  0  0  0  0  0  0  0  0  0  0  0
    9.5216  -15.3120   21.4082 C   0  0  0  0  0  0  0  0  0  0  0  0
    9.2409  -16.4135   20.8423 O   0  0  0  0  0  0  0  0  0  0  0  0
   16.3869  -13.6514   19.0127 N   0  0  0  0  0  0  0  0  0  0  0  0
   15.2432  -13.7754   18.1772 C   0  0  0  0  0  0  0  0  0  0  0  0
   15.2101  -13.3101   16.9674 N   0  0  0  0  0  0  0  0  0  0  0  0
   14.1076  -14.4479   18.7368 N   0  0  0  0  0  0  0  0  0  0  0  0
   14.2875  -14.9811   20.0913 C   0  0  0  0  0  0  0  0  0  0  0  0
   12.9426  -15.5354   20.5035 C   0  0  0  0  0  0  0  0  0  0  0  0
   12.9237  -16.0087   21.9105 C   0  0  0  0  0  0  0  0  0  0  0  0
   11.5459  -16.4571   22.3134 C   0  0  2  0  0  0  0  0  0  0  0  0
   10.6877  -15.2485   22.2145 N   0  0  0  0  0  0  0  0  0  0  0  0
   11.5635  -16.9137   23.7132 C   0  0  0  0  0  0  0  0  0  0  0  0
   11.0076  -16.2048   24.5901 O   0  0  0  0  0  0  0  0  0  0  0  0
   12.1535  -18.0746   24.1093 O   0  0  0  0  0  0  0  0  0  0  0  0
  2  3  1  0
  2  1  1  0
  3  4  1  1
  5  6  1  6
  5  3  1  0
  7  5  1  0
  8  7  2  0
 10  9  1  0
 11 10  1  1
 11 12  1  0
 12  7  1  0
 13 23  1  0
 13 11  1  0
 14 13  2  0
 16 15  1  0
 17 16  2  0
 18 16  1  0
 19 18  1  0
 20 19  1  0
 20 21  1  0
 22 21  1  1
 22 23  1  0
 24 26  1  0
 24 22  1  0
 25 24  2  0
M  END
$$$$
