ISP.pdb
     RDKit          3D

 22 22  0  0  1  0  0  0  0  0999 V2000
    8.2489  -12.6287   17.8283 C   0  0  0  0  0  0  0  0  0  0  0  0
    8.4654  -13.9391   18.5511 C   0  0  0  0  0  0  0  0  0  0  0  0
    7.6750  -14.0018   19.8607 C   0  0  2  0  0  0  0  0  0  0  0  0
    8.2431  -12.9094   20.7329 C   0  0  0  0  0  0  0  0  0  0  0  0
    7.8418  -15.3719   20.4928 C   0  0  2  0  0  0  0  0  0  0  0  0
    7.1592  -16.3758   19.6509 N   0  0  0  0  0  0  0  0  0  0  0  0
    7.2094  -15.4768   21.8290 C   0  0  0  0  0  0  0  0  0  0  0  0
    6.0056  -15.9004   21.9731 O   0  0  0  0  0  0  0  0  0  0  0  0
    7.9865  -17.5451   24.7861 O   0  0  0  0  0  0  0  0  0  0  0  0
    6.8815  -16.8311   24.3750 C   0  0  0  0  0  0  0  0  0  0  0  0
    7.1984  -15.3260   24.3490 C   0  0  2  0  0  0  0  0  0  0  0  0
    7.8447  -15.1333   23.0547 N   0  0  0  0  0  0  0  0  0  0  0  0
    8.1247  -15.0083   25.4890 C   0  0  0  0  0  0  0  0  0  0  0  0
    9.0000  -15.8991   25.6770 O   0  0  0  0  0  0  0  0  0  0  0  0
    7.9976  -13.8358   26.2400 N   0  0  0  0  0  0  0  0  0  0  0  0
    7.1877  -12.6601   25.8372 C   0  0  0  0  0  0  0  0  0  0  0  0
    6.3464  -12.5147   27.0744 C   0  0  0  0  0  0  0  0  0  0  0  0
    7.1752  -13.0999   28.2145 C   0  0  0  0  0  0  0  0  0  0  0  0
    8.5025  -13.3992   27.4848 C   0  0  1  0  0  0  0  0  0  0  0  0
    9.3660  -14.2362   28.2800 C   0  0  0  0  0  0  0  0  0  0  0  0
   10.3954  -13.8789   29.0697 O   0  0  0  0  0  0  0  0  0  0  0  0
    9.1198  -15.5014   28.2287 O   0  0  0  0  0  0  0  0  0  0  0  0
  2  1  1  0
  2  3  1  0
  3  5  1  0
  3  4  1  1
  5  7  1  0
  5  6  1  6
  7  8  2  0
 10  9  1  0
 11 10  1  1
 12 11  1  0
 12  7  1  0
 13 14  2  0
 13 11  1  0
 15 13  1  0
 16 15  1  0
 17 16  1  0
 18 17  1  0
 18 19  1  0
 19 20  1  1
 19 15  1  0
 20 21  1  0
 22 20  2  0
M  END
$$$$
