ISP.pdb
     RDKit          3D

 22 22  0  0  1  0  0  0  0  0999 V2000
    8.6986  -20.5310   18.7026 C   0  0  0  0  0  0  0  0  0  0  0  0
    7.8618  -20.0569   19.8694 C   0  0  0  0  0  0  0  0  0  0  0  0
    8.5953  -20.2321   21.2017 C   0  0  2  0  0  0  0  0  0  0  0  0
    8.7728  -21.7204   21.3771 C   0  0  0  0  0  0  0  0  0  0  0  0
    7.7697  -19.6271   22.3228 C   0  0  2  0  0  0  0  0  0  0  0  0
    6.4058  -20.1927   22.2742 N   0  0  0  0  0  0  0  0  0  0  0  0
    7.5975  -18.1609   22.1922 C   0  0  0  0  0  0  0  0  0  0  0  0
    6.5506  -17.6514   21.6502 O   0  0  0  0  0  0  0  0  0  0  0  0
   10.1156  -15.6086   23.9986 O   0  0  0  0  0  0  0  0  0  0  0  0
    8.9027  -15.0782   23.6146 C   0  0  0  0  0  0  0  0  0  0  0  0
    8.3979  -15.7710   22.3372 C   0  0  2  0  0  0  0  0  0  0  0  0
    8.5389  -17.1921   22.6385 N   0  0  0  0  0  0  0  0  0  0  0  0
    9.2698  -15.3548   21.1860 C   0  0  0  0  0  0  0  0  0  0  0  0
   10.4029  -15.9124   21.1979 O   0  0  0  0  0  0  0  0  0  0  0  0
    8.8342  -14.4413   20.2214 N   0  0  0  0  0  0  0  0  0  0  0  0
    7.4404  -13.9495   20.0943 C   0  0  0  0  0  0  0  0  0  0  0  0
    7.7056  -12.4702   20.1248 C   0  0  0  0  0  0  0  0  0  0  0  0
    9.1232  -12.2887   19.5893 C   0  0  0  0  0  0  0  0  0  0  0  0
    9.4636  -13.7356   19.1721 C   0  0  1  0  0  0  0  0  0  0  0  0
   10.8712  -13.8907   18.9015 C   0  0  0  0  0  0  0  0  0  0  0  0
   11.8141  -14.4914   19.6504 O   0  0  0  0  0  0  0  0  0  0  0  0
   11.2854  -13.3848   17.7896 O   0  0  0  0  0  0  0  0  0  0  0  0
  2  1  1  0
  2  3  1  0
  3  5  1  0
  3  4  1  1
  5  7  1  0
  5  6  1  6
  7  8  2  0
 10  9  1  0
 11 10  1  1
 12 11  1  0
 12  7  1  0
 13 14  2  0
 13 11  1  0
 15 13  1  0
 16 15  1  0
 17 16  1  0
 18 17  1  0
 18 19  1  0
 19 20  1  1
 19 15  1  0
 20 21  1  0
 22 20  2  0
M  END
$$$$
