ISP.pdb
     RDKit          3D

 22 22  0  0  1  0  0  0  0  0999 V2000
    6.5399  -11.3286   27.1813 C   0  0  0  0  0  0  0  0  0  0  0  0
    5.9517  -12.5532   26.5174 C   0  0  0  0  0  0  0  0  0  0  0  0
    7.0191  -13.3674   25.7817 C   0  0  2  0  0  0  0  0  0  0  0  0
    7.5120  -12.4797   24.6654 C   0  0  0  0  0  0  0  0  0  0  0  0
    6.4071  -14.6517   25.2521 C   0  0  2  0  0  0  0  0  0  0  0  0
    5.9029  -15.4484   26.3895 N   0  0  0  0  0  0  0  0  0  0  0  0
    7.3878  -15.5214   24.5605 C   0  0  0  0  0  0  0  0  0  0  0  0
    8.1109  -16.3654   25.2041 O   0  0  0  0  0  0  0  0  0  0  0  0
    6.7271  -16.6576   20.9466 O   0  0  0  0  0  0  0  0  0  0  0  0
    8.0863  -16.4495   21.0430 C   0  0  0  0  0  0  0  0  0  0  0  0
    8.5260  -16.4709   22.5170 C   0  0  2  0  0  0  0  0  0  0  0  0
    7.6257  -15.5176   23.1579 N   0  0  0  0  0  0  0  0  0  0  0  0
    9.9597  -16.0277   22.5992 C   0  0  0  0  0  0  0  0  0  0  0  0
   10.2307  -15.0829   21.8061 O   0  0  0  0  0  0  0  0  0  0  0  0
   10.8689  -16.6255   23.4770 N   0  0  0  0  0  0  0  0  0  0  0  0
   10.4948  -17.3316   24.7268 C   0  0  0  0  0  0  0  0  0  0  0  0
   11.1986  -18.6373   24.4830 C   0  0  0  0  0  0  0  0  0  0  0  0
   12.3716  -18.3141   23.5618 C   0  0  0  0  0  0  0  0  0  0  0  0
   12.2734  -16.7747   23.4956 C   0  0  1  0  0  0  0  0  0  0  0  0
   13.0995  -16.2369   22.4435 C   0  0  0  0  0  0  0  0  0  0  0  0
   13.0506  -16.4832   21.1215 O   0  0  0  0  0  0  0  0  0  0  0  0
   14.0114  -15.4053   22.8191 O   0  0  0  0  0  0  0  0  0  0  0  0
  2  1  1  0
  2  3  1  0
  3  5  1  0
  3  4  1  6
  5  7  1  0
  5  6  1  1
  7  8  2  0
 10  9  1  0
 11 10  1  6
 12 11  1  0
 12  7  1  0
 13 14  2  0
 13 11  1  0
 15 13  1  0
 16 15  1  0
 17 16  1  0
 18 17  1  0
 18 19  1  0
 19 20  1  6
 19 15  1  0
 20 21  1  0
 22 20  2  0
M  END
$$$$
