ISP.pdb
     RDKit          3D

 22 22  0  0  1  0  0  0  0  0999 V2000
    8.1375  -12.4148   18.4532 C   0  0  0  0  0  0  0  0  0  0  0  0
    8.1027  -13.8331   18.9762 C   0  0  0  0  0  0  0  0  0  0  0  0
    7.7196  -13.8821   20.4576 C   0  0  2  0  0  0  0  0  0  0  0  0
    8.7970  -13.1142   21.1833 C   0  0  0  0  0  0  0  0  0  0  0  0
    7.6487  -15.3265   20.9194 C   0  0  2  0  0  0  0  0  0  0  0  0
    6.5653  -16.0126   20.1859 N   0  0  0  0  0  0  0  0  0  0  0  0
    7.3057  -15.4621   22.3548 C   0  0  0  0  0  0  0  0  0  0  0  0
    6.0941  -15.3666   22.7696 O   0  0  0  0  0  0  0  0  0  0  0  0
    7.7190  -18.0522   24.8210 O   0  0  0  0  0  0  0  0  0  0  0  0
    6.9824  -16.8986   24.9835 C   0  0  0  0  0  0  0  0  0  0  0  0
    7.8806  -15.6626   24.8048 C   0  0  2  0  0  0  0  0  0  0  0  0
    8.2475  -15.7057   23.3928 N   0  0  0  0  0  0  0  0  0  0  0  0
    9.0805  -15.8049   25.6985 C   0  0  0  0  0  0  0  0  0  0  0  0
    9.6919  -16.8977   25.5340 O   0  0  0  0  0  0  0  0  0  0  0  0
    9.4490  -14.8069   26.6056 N   0  0  0  0  0  0  0  0  0  0  0  0
    9.0815  -13.3752   26.4795 C   0  0  0  0  0  0  0  0  0  0  0  0
    8.4616  -13.1678   27.8332 C   0  0  0  0  0  0  0  0  0  0  0  0
    9.1237  -14.1867   28.7565 C   0  0  0  0  0  0  0  0  0  0  0  0
   10.1853  -14.7889   27.8109 C   0  0  1  0  0  0  0  0  0  0  0  0
   10.7589  -15.9931   28.3582 C   0  0  0  0  0  0  0  0  0  0  0  0
   11.9469  -16.1618   28.9673 O   0  0  0  0  0  0  0  0  0  0  0  0
   10.0355  -17.0557   28.2501 O   0  0  0  0  0  0  0  0  0  0  0  0
  2  1  1  0
  2  3  1  0
  3  5  1  0
  3  4  1  1
  5  7  1  0
  5  6  1  6
  7  8  2  0
 10  9  1  0
 11 10  1  6
 12 11  1  0
 12  7  1  0
 13 14  2  0
 13 11  1  0
 15 13  1  0
 16 15  1  0
 17 16  1  0
 18 17  1  0
 18 19  1  0
 19 20  1  1
 19 15  1  0
 20 21  1  0
 22 20  2  0
M  END
$$$$
