ISP.pdb
     RDKit          3D

 22 22  0  0  1  0  0  0  0  0999 V2000
    6.5056  -11.2706   27.1807 C   0  0  0  0  0  0  0  0  0  0  0  0
    5.8885  -12.5144   26.5821 C   0  0  0  0  0  0  0  0  0  0  0  0
    6.9185  -13.3437   25.8107 C   0  0  2  0  0  0  0  0  0  0  0  0
    7.4215  -12.4457   24.7072 C   0  0  0  0  0  0  0  0  0  0  0  0
    6.2586  -14.5957   25.2617 C   0  0  2  0  0  0  0  0  0  0  0  0
    5.7611  -15.4103   26.3893 N   0  0  0  0  0  0  0  0  0  0  0  0
    7.1977  -15.4715   24.5218 C   0  0  0  0  0  0  0  0  0  0  0  0
    7.9529  -16.3143   25.1289 O   0  0  0  0  0  0  0  0  0  0  0  0
    8.2657  -14.8992   20.5750 O   0  0  0  0  0  0  0  0  0  0  0  0
    7.9316  -16.1868   20.9360 C   0  0  0  0  0  0  0  0  0  0  0  0
    8.2372  -16.4194   22.4256 C   0  0  2  0  0  0  0  0  0  0  0  0
    7.3583  -15.4752   23.1082 N   0  0  0  0  0  0  0  0  0  0  0  0
    9.6874  -16.1129   22.6741 C   0  0  0  0  0  0  0  0  0  0  0  0
    9.9861  -14.9097   22.4332 O   0  0  0  0  0  0  0  0  0  0  0  0
   10.5820  -17.0877   23.1259 N   0  0  0  0  0  0  0  0  0  0  0  0
   10.1946  -18.2982   23.8909 C   0  0  0  0  0  0  0  0  0  0  0  0
   10.8405  -19.3441   23.0257 C   0  0  0  0  0  0  0  0  0  0  0  0
   12.0143  -18.6516   22.3388 C   0  0  0  0  0  0  0  0  0  0  0  0
   11.9792  -17.2698   23.0266 C   0  0  1  0  0  0  0  0  0  0  0  0
   12.8136  -16.3157   22.3394 C   0  0  0  0  0  0  0  0  0  0  0  0
   13.9996  -15.8044   22.7173 O   0  0  0  0  0  0  0  0  0  0  0  0
   12.3631  -15.8931   21.2070 O   0  0  0  0  0  0  0  0  0  0  0  0
  2  1  1  0
  2  3  1  0
  3  5  1  0
  3  4  1  6
  5  7  1  0
  5  6  1  1
  7  8  2  0
 10  9  1  0
 11 10  1  6
 12 11  1  0
 12  7  1  0
 13 14  2  0
 13 11  1  0
 15 13  1  0
 16 15  1  0
 17 16  1  0
 18 17  1  0
 18 19  1  0
 19 20  1  6
 19 15  1  0
 20 21  1  0
 22 20  2  0
M  END
$$$$
