ISP.pdb
     RDKit          3D

 22 22  0  0  1  0  0  0  0  0999 V2000
    6.6254  -11.5346   27.6024 C   0  0  0  0  0  0  0  0  0  0  0  0
    5.9236  -12.6169   26.8136 C   0  0  0  0  0  0  0  0  0  0  0  0
    6.9159  -13.4888   26.0396 C   0  0  2  0  0  0  0  0  0  0  0  0
    7.5988  -12.5619   25.0641 C   0  0  0  0  0  0  0  0  0  0  0  0
    6.1702  -14.6043   25.3297 C   0  0  2  0  0  0  0  0  0  0  0  0
    5.5802  -15.5065   26.3398 N   0  0  0  0  0  0  0  0  0  0  0  0
    7.0531  -15.4582   24.5005 C   0  0  0  0  0  0  0  0  0  0  0  0
    7.6873  -16.4568   25.0004 O   0  0  0  0  0  0  0  0  0  0  0  0
    8.8070  -16.3801   20.0474 O   0  0  0  0  0  0  0  0  0  0  0  0
    7.9716  -15.6812   20.8921 C   0  0  0  0  0  0  0  0  0  0  0  0
    8.1864  -16.1313   22.3473 C   0  0  2  0  0  0  0  0  0  0  0  0
    7.2851  -15.2726   23.1091 N   0  0  0  0  0  0  0  0  0  0  0  0
    9.6246  -15.8992   22.7168 C   0  0  0  0  0  0  0  0  0  0  0  0
   10.0124  -14.7216   22.4760 O   0  0  0  0  0  0  0  0  0  0  0  0
   10.4183  -16.9093   23.2685 N   0  0  0  0  0  0  0  0  0  0  0  0
    9.9011  -18.0443   24.0714 C   0  0  0  0  0  0  0  0  0  0  0  0
   10.5117  -19.1805   23.2994 C   0  0  0  0  0  0  0  0  0  0  0  0
   11.7689  -18.6137   22.6458 C   0  0  0  0  0  0  0  0  0  0  0  0
   11.8012  -17.1969   23.2584 C   0  0  1  0  0  0  0  0  0  0  0  0
   12.7401  -16.3451   22.5718 C   0  0  0  0  0  0  0  0  0  0  0  0
   13.8760  -15.7930   23.0363 O   0  0  0  0  0  0  0  0  0  0  0  0
   12.4537  -16.0737   21.3437 O   0  0  0  0  0  0  0  0  0  0  0  0
  2  1  1  0
  2  3  1  0
  3  5  1  0
  3  4  1  6
  5  7  1  0
  5  6  1  1
  7  8  2  0
 10  9  1  0
 11 10  1  6
 12 11  1  0
 12  7  1  0
 13 14  2  0
 13 11  1  0
 15 13  1  0
 16 15  1  0
 17 16  1  0
 18 17  1  0
 18 19  1  0
 19 20  1  6
 19 15  1  0
 20 21  1  0
 22 20  2  0
M  END
$$$$
