ISP.pdb
     RDKit          3D

 22 22  0  0  1  0  0  0  0  0999 V2000
    5.8911  -11.4808   27.4892 C   0  0  0  0  0  0  0  0  0  0  0  0
    6.0946  -12.9390   27.1449 C   0  0  0  0  0  0  0  0  0  0  0  0
    7.1269  -13.1196   26.0289 C   0  0  2  0  0  0  0  0  0  0  0  0
    6.5560  -12.4091   24.8262 C   0  0  0  0  0  0  0  0  0  0  0  0
    7.3372  -14.5992   25.7622 C   0  0  2  0  0  0  0  0  0  0  0  0
    7.8199  -15.2464   26.9994 N   0  0  0  0  0  0  0  0  0  0  0  0
    8.3791  -14.8638   24.7419 C   0  0  0  0  0  0  0  0  0  0  0  0
    9.6301  -14.8077   25.0265 O   0  0  0  0  0  0  0  0  0  0  0  0
    9.3001  -17.5216   23.0455 O   0  0  0  0  0  0  0  0  0  0  0  0
   10.0625  -16.3975   22.8108 C   0  0  0  0  0  0  0  0  0  0  0  0
    9.1662  -15.2273   22.3709 C   0  0  2  0  0  0  0  0  0  0  0  0
    8.1164  -15.1987   23.3844 N   0  0  0  0  0  0  0  0  0  0  0  0
    8.6161  -15.5279   21.0050 C   0  0  0  0  0  0  0  0  0  0  0  0
    8.4813  -16.7648   20.7882 O   0  0  0  0  0  0  0  0  0  0  0  0
    8.2985  -14.5139   20.0964 N   0  0  0  0  0  0  0  0  0  0  0  0
    7.9012  -13.1359   20.4757 C   0  0  0  0  0  0  0  0  0  0  0  0
    8.9003  -12.3659   19.6579 C   0  0  0  0  0  0  0  0  0  0  0  0
    9.2446  -13.2592   18.4693 C   0  0  0  0  0  0  0  0  0  0  0  0
    8.2572  -14.4260   18.6872 C   0  0  1  0  0  0  0  0  0  0  0  0
    8.5831  -15.5570   17.8546 C   0  0  0  0  0  0  0  0  0  0  0  0
    9.6392  -16.3872   17.9330 O   0  0  0  0  0  0  0  0  0  0  0  0
    7.7491  -15.8092   16.9034 O   0  0  0  0  0  0  0  0  0  0  0  0
  2  1  1  0
  2  3  1  0
  3  5  1  0
  3  4  1  6
  5  7  1  0
  5  6  1  1
  7  8  2  0
 10  9  1  0
 11 10  1  1
 12 11  1  0
 12  7  1  0
 13 14  2  0
 13 11  1  0
 15 13  1  0
 16 15  1  0
 17 16  1  0
 18 17  1  0
 18 19  1  0
 19 20  1  6
 19 15  1  0
 20 21  1  0
 22 20  2  0
M  END
$$$$
