ISP.pdb
     RDKit          3D

 22 22  0  0  1  0  0  0  0  0999 V2000
    8.3956  -12.7848   18.0326 C   0  0  0  0  0  0  0  0  0  0  0  0
    8.2842  -14.1734   18.6204 C   0  0  0  0  0  0  0  0  0  0  0  0
    7.7124  -14.1442   20.0402 C   0  0  2  0  0  0  0  0  0  0  0  0
    8.7132  -13.3751   20.8673 C   0  0  0  0  0  0  0  0  0  0  0  0
    7.5335  -15.5635   20.5482 C   0  0  2  0  0  0  0  0  0  0  0  0
    6.4953  -16.2356   19.7400 N   0  0  0  0  0  0  0  0  0  0  0  0
    7.0496  -15.6237   21.9476 C   0  0  0  0  0  0  0  0  0  0  0  0
    5.8096  -15.8119   22.2240 O   0  0  0  0  0  0  0  0  0  0  0  0
    8.1034  -17.8462   24.7824 O   0  0  0  0  0  0  0  0  0  0  0  0
    6.9743  -17.0826   24.5769 C   0  0  0  0  0  0  0  0  0  0  0  0
    7.3508  -15.5961   24.4540 C   0  0  2  0  0  0  0  0  0  0  0  0
    7.8766  -15.4860   23.0970 N   0  0  0  0  0  0  0  0  0  0  0  0
    8.3957  -15.2762   25.4858 C   0  0  0  0  0  0  0  0  0  0  0  0
    9.2809  -16.1714   25.5862 O   0  0  0  0  0  0  0  0  0  0  0  0
    8.3564  -14.0975   26.2367 N   0  0  0  0  0  0  0  0  0  0  0  0
    7.6325  -12.8662   25.8361 C   0  0  0  0  0  0  0  0  0  0  0  0
    6.8080  -12.6600   27.0761 C   0  0  0  0  0  0  0  0  0  0  0  0
    7.5961  -13.3036   28.2137 C   0  0  0  0  0  0  0  0  0  0  0  0
    8.8957  -13.6984   27.4796 C   0  0  1  0  0  0  0  0  0  0  0  0
    9.6990  -14.5956   28.2723 C   0  0  0  0  0  0  0  0  0  0  0  0
   10.7348  -14.3099   29.0825 O   0  0  0  0  0  0  0  0  0  0  0  0
    9.3832  -15.8440   28.1955 O   0  0  0  0  0  0  0  0  0  0  0  0
  2  1  1  0
  2  3  1  0
  3  5  1  0
  3  4  1  1
  5  7  1  0
  5  6  1  6
  7  8  2  0
 10  9  1  0
 11 10  1  1
 12 11  1  0
 12  7  1  0
 13 14  2  0
 13 11  1  0
 15 13  1  0
 16 15  1  0
 17 16  1  0
 18 17  1  0
 18 19  1  0
 19 20  1  1
 19 15  1  0
 20 21  1  0
 22 20  2  0
M  END
$$$$
