ISP.pdb
     RDKit          3D

 22 22  0  0  1  0  0  0  0  0999 V2000
    8.3022  -11.8455   19.3483 C   0  0  0  0  0  0  0  0  0  0  0  0
    7.8396  -13.2638   19.5950 C   0  0  0  0  0  0  0  0  0  0  0  0
    8.9960  -14.1712   20.0227 C   0  0  2  0  0  0  0  0  0  0  0  0
    9.9551  -14.1863   18.8577 C   0  0  0  0  0  0  0  0  0  0  0  0
    8.4673  -15.5594   20.3354 C   0  0  2  0  0  0  0  0  0  0  0  0
    7.6059  -16.0075   19.2219 N   0  0  0  0  0  0  0  0  0  0  0  0
    7.6085  -15.5964   21.5427 C   0  0  0  0  0  0  0  0  0  0  0  0
    6.3495  -15.8380   21.4666 O   0  0  0  0  0  0  0  0  0  0  0  0
    6.1244  -17.3562   25.1501 O   0  0  0  0  0  0  0  0  0  0  0  0
    6.8232  -17.0220   24.0100 C   0  0  0  0  0  0  0  0  0  0  0  0
    7.1995  -15.5306   24.0330 C   0  0  2  0  0  0  0  0  0  0  0  0
    8.0691  -15.3776   22.8709 N   0  0  0  0  0  0  0  0  0  0  0  0
    7.9245  -15.2357   25.3160 C   0  0  0  0  0  0  0  0  0  0  0  0
    8.5920  -16.2191   25.7432 O   0  0  0  0  0  0  0  0  0  0  0  0
    7.8430  -13.9878   25.9411 N   0  0  0  0  0  0  0  0  0  0  0  0
    7.1285  -12.8119   25.3866 C   0  0  0  0  0  0  0  0  0  0  0  0
    6.2481  -12.4915   26.5622 C   0  0  0  0  0  0  0  0  0  0  0  0
    6.9894  -13.0074   27.7924 C   0  0  0  0  0  0  0  0  0  0  0  0
    8.3234  -13.4588   27.1595 C   0  0  1  0  0  0  0  0  0  0  0  0
    9.0973  -14.2618   28.0733 C   0  0  0  0  0  0  0  0  0  0  0  0
    9.0911  -15.5974   28.2378 O   0  0  0  0  0  0  0  0  0  0  0  0
    9.9072  -13.6127   28.8393 O   0  0  0  0  0  0  0  0  0  0  0  0
  2  1  1  0
  2  3  1  0
  3  5  1  0
  3  4  1  6
  5  7  1  0
  5  6  1  6
  7  8  2  0
 10  9  1  0
 11 10  1  1
 12 11  1  0
 12  7  1  0
 13 14  2  0
 13 11  1  0
 15 13  1  0
 16 15  1  0
 17 16  1  0
 18 17  1  0
 18 19  1  0
 19 20  1  1
 19 15  1  0
 20 21  1  0
 22 20  2  0
M  END
$$$$
