ISP.pdb
     RDKit          3D

 22 22  0  0  1  0  0  0  0  0999 V2000
    8.2249  -11.9852   19.4565 C   0  0  0  0  0  0  0  0  0  0  0  0
    7.6401  -13.3441   19.7689 C   0  0  0  0  0  0  0  0  0  0  0  0
    8.7312  -14.3780   20.0592 C   0  0  2  0  0  0  0  0  0  0  0  0
    9.5042  -14.5279   18.7719 C   0  0  0  0  0  0  0  0  0  0  0  0
    8.0934  -15.6867   20.4892 C   0  0  2  0  0  0  0  0  0  0  0  0
    7.0478  -16.0552   19.5128 N   0  0  0  0  0  0  0  0  0  0  0  0
    7.4022  -15.5948   21.7970 C   0  0  0  0  0  0  0  0  0  0  0  0
    6.1240  -15.6769   21.8904 O   0  0  0  0  0  0  0  0  0  0  0  0
    5.8976  -17.5043   24.1819 O   0  0  0  0  0  0  0  0  0  0  0  0
    7.2130  -17.1525   24.3960 C   0  0  0  0  0  0  0  0  0  0  0  0
    7.3756  -15.6247   24.3212 C   0  0  2  0  0  0  0  0  0  0  0  0
    8.0561  -15.4135   23.0474 N   0  0  0  0  0  0  0  0  0  0  0  0
    8.2130  -15.1711   25.4839 C   0  0  0  0  0  0  0  0  0  0  0  0
    9.0839  -16.0194   25.8259 O   0  0  0  0  0  0  0  0  0  0  0  0
    8.0166  -13.9298   26.0965 N   0  0  0  0  0  0  0  0  0  0  0  0
    7.1904  -12.8334   25.5345 C   0  0  0  0  0  0  0  0  0  0  0  0
    6.2901  -12.5851   26.7125 C   0  0  0  0  0  0  0  0  0  0  0  0
    7.0841  -13.0147   27.9430 C   0  0  0  0  0  0  0  0  0  0  0  0
    8.4514  -13.3441   27.3061 C   0  0  1  0  0  0  0  0  0  0  0  0
    9.3033  -14.0597   28.2230 C   0  0  0  0  0  0  0  0  0  0  0  0
   10.3281  -13.5956   28.9613 O   0  0  0  0  0  0  0  0  0  0  0  0
    9.0499  -15.3177   28.3551 O   0  0  0  0  0  0  0  0  0  0  0  0
  2  1  1  0
  2  3  1  0
  3  5  1  0
  3  4  1  6
  5  7  1  0
  5  6  1  6
  7  8  2  0
 10  9  1  0
 11 10  1  1
 12 11  1  0
 12  7  1  0
 13 14  2  0
 13 11  1  0
 15 13  1  0
 16 15  1  0
 17 16  1  0
 18 17  1  0
 18 19  1  0
 19 20  1  1
 19 15  1  0
 20 21  1  0
 22 20  2  0
M  END
$$$$
