ISP.pdb
     RDKit          3D

 22 22  0  0  1  0  0  0  0  0999 V2000
   10.4170  -13.7380   29.4410 C   0  0  0  0  0  0  0  0  0  0  0  0
    9.4122  -14.6102   28.7227 C   0  0  0  0  0  0  0  0  0  0  0  0
   10.0505  -15.3673   27.5552 C   0  0  2  0  0  0  0  0  0  0  0  0
   10.7053  -14.3143   26.6953 C   0  0  0  0  0  0  0  0  0  0  0  0
    8.9806  -16.1303   26.7952 C   0  0  2  0  0  0  0  0  0  0  0  0
    8.3594  -17.1179   27.7015 N   0  0  0  0  0  0  0  0  0  0  0  0
    9.5213  -16.9159   25.6608 C   0  0  0  0  0  0  0  0  0  0  0  0
    9.9611  -18.1121   25.8189 O   0  0  0  0  0  0  0  0  0  0  0  0
   10.0812  -15.2504   21.9642 O   0  0  0  0  0  0  0  0  0  0  0  0
    9.6360  -16.5549   21.9661 C   0  0  0  0  0  0  0  0  0  0  0  0
   10.1162  -17.2806   23.2346 C   0  0  2  0  0  0  0  0  0  0  0  0
    9.6078  -16.4479   24.3201 N   0  0  0  0  0  0  0  0  0  0  0  0
   11.6183  -17.3284   23.2237 C   0  0  0  0  0  0  0  0  0  0  0  0
   12.1498  -16.2110   23.4771 O   0  0  0  0  0  0  0  0  0  0  0  0
   12.3183  -18.5086   22.9561 N   0  0  0  0  0  0  0  0  0  0  0  0
   11.7165  -19.8645   22.9562 C   0  0  0  0  0  0  0  0  0  0  0  0
   12.1520  -20.3190   21.5911 C   0  0  0  0  0  0  0  0  0  0  0  0
   13.4305  -19.5453   21.2812 C   0  0  0  0  0  0  0  0  0  0  0  0
   13.6567  -18.8100   22.6198 C   0  0  1  0  0  0  0  0  0  0  0  0
   14.6504  -17.7733   22.4923 C   0  0  0  0  0  0  0  0  0  0  0  0
   15.7508  -17.5616   23.2375 O   0  0  0  0  0  0  0  0  0  0  0  0
   14.4603  -16.9321   21.5330 O   0  0  0  0  0  0  0  0  0  0  0  0
  2  1  1  0
  2  3  1  0
  3  5  1  0
  3  4  1  6
  5  7  1  0
  5  6  1  1
  7  8  2  0
 10  9  1  0
 11 10  1  6
 12 11  1  0
 12  7  1  0
 13 14  2  0
 13 11  1  0
 15 13  1  0
 16 15  1  0
 17 16  1  0
 18 17  1  0
 18 19  1  0
 19 20  1  6
 19 15  1  0
 20 21  1  0
 22 20  2  0
M  END
$$$$
