ISP.pdb
     RDKit          3D

 22 22  0  0  1  0  0  0  0  0999 V2000
    6.6320  -11.0441   27.0423 C   0  0  0  0  0  0  0  0  0  0  0  0
    5.9907  -12.2317   26.3606 C   0  0  0  0  0  0  0  0  0  0  0  0
    7.0369  -13.2279   25.8538 C   0  0  2  0  0  0  0  0  0  0  0  0
    7.8860  -12.4622   24.8690 C   0  0  0  0  0  0  0  0  0  0  0  0
    6.3428  -14.4093   25.2004 C   0  0  2  0  0  0  0  0  0  0  0  0
    5.5427  -15.1199   26.2189 N   0  0  0  0  0  0  0  0  0  0  0  0
    7.2891  -15.4160   24.6641 C   0  0  0  0  0  0  0  0  0  0  0  0
    7.9204  -16.2253   25.4360 O   0  0  0  0  0  0  0  0  0  0  0  0
    7.8610  -15.6094   20.7388 O   0  0  0  0  0  0  0  0  0  0  0  0
    8.1495  -16.8116   21.3482 C   0  0  0  0  0  0  0  0  0  0  0  0
    8.5515  -16.5829   22.8154 C   0  0  2  0  0  0  0  0  0  0  0  0
    7.5896  -15.5906   23.2845 N   0  0  0  0  0  0  0  0  0  0  0  0
    9.9593  -16.0582   22.8537 C   0  0  0  0  0  0  0  0  0  0  0  0
   10.1619  -15.1269   22.0250 O   0  0  0  0  0  0  0  0  0  0  0  0
   10.9170  -16.5747   23.7316 N   0  0  0  0  0  0  0  0  0  0  0  0
   10.6126  -17.1748   25.0536 C   0  0  0  0  0  0  0  0  0  0  0  0
   11.3161  -18.4925   24.8852 C   0  0  0  0  0  0  0  0  0  0  0  0
   12.4385  -18.2418   23.8820 C   0  0  0  0  0  0  0  0  0  0  0  0
   12.3221  -16.7141   23.6917 C   0  0  1  0  0  0  0  0  0  0  0  0
   13.0894  -16.2625   22.5577 C   0  0  0  0  0  0  0  0  0  0  0  0
   14.1307  -15.4106   22.5276 O   0  0  0  0  0  0  0  0  0  0  0  0
   12.7298  -16.7392   21.4142 O   0  0  0  0  0  0  0  0  0  0  0  0
  2  1  1  0
  2  3  1  0
  3  5  1  0
  3  4  1  6
  5  7  1  0
  5  6  1  1
  7  8  2  0
 10  9  1  0
 11 10  1  6
 12 11  1  0
 12  7  1  0
 13 14  2  0
 13 11  1  0
 15 13  1  0
 16 15  1  0
 17 16  1  0
 18 17  1  0
 18 19  1  0
 19 20  1  6
 19 15  1  0
 20 21  1  0
 22 20  2  0
M  END
$$$$
