ISP.pdb
     RDKit          3D

 22 22  0  0  1  0  0  0  0  0999 V2000
    7.7862  -12.2679   18.8168 C   0  0  0  0  0  0  0  0  0  0  0  0
    7.8180  -13.6792   19.3584 C   0  0  0  0  0  0  0  0  0  0  0  0
    7.5028  -13.7193   20.8560 C   0  0  2  0  0  0  0  0  0  0  0  0
    8.6414  -12.9956   21.5320 C   0  0  0  0  0  0  0  0  0  0  0  0
    7.3986  -15.1617   21.3176 C   0  0  2  0  0  0  0  0  0  0  0  0
    6.2441  -15.7975   20.6502 N   0  0  0  0  0  0  0  0  0  0  0  0
    7.1384  -15.2899   22.7710 C   0  0  0  0  0  0  0  0  0  0  0  0
    5.9541  -15.1797   23.2554 O   0  0  0  0  0  0  0  0  0  0  0  0
    7.3913  -17.9787   24.9486 O   0  0  0  0  0  0  0  0  0  0  0  0
    6.7933  -16.7733   25.2475 C   0  0  0  0  0  0  0  0  0  0  0  0
    7.8246  -15.6341   25.1760 C   0  0  2  0  0  0  0  0  0  0  0  0
    8.1363  -15.5417   23.7532 N   0  0  0  0  0  0  0  0  0  0  0  0
    9.0286  -16.0216   25.9878 C   0  0  0  0  0  0  0  0  0  0  0  0
    9.4263  -17.1967   25.7511 O   0  0  0  0  0  0  0  0  0  0  0  0
    9.6186  -15.1423   26.9007 N   0  0  0  0  0  0  0  0  0  0  0  0
    9.4809  -13.6659   26.8592 C   0  0  0  0  0  0  0  0  0  0  0  0
    9.0017  -13.4313   28.2646 C   0  0  0  0  0  0  0  0  0  0  0  0
    9.5537  -14.5882   29.0929 C   0  0  0  0  0  0  0  0  0  0  0  0
   10.4325  -15.3031   28.0439 C   0  0  1  0  0  0  0  0  0  0  0  0
   10.8403  -16.6095   28.4975 C   0  0  0  0  0  0  0  0  0  0  0  0
   12.0258  -16.9960   29.0035 O   0  0  0  0  0  0  0  0  0  0  0  0
    9.9477  -17.5363   28.4064 O   0  0  0  0  0  0  0  0  0  0  0  0
  2  1  1  0
  2  3  1  0
  3  5  1  0
  3  4  1  1
  5  7  1  0
  5  6  1  6
  7  8  2  0
 10  9  1  0
 11 10  1  6
 12 11  1  0
 12  7  1  0
 13 14  2  0
 13 11  1  0
 15 13  1  0
 16 15  1  0
 17 16  1  0
 18 17  1  0
 18 19  1  0
 19 20  1  1
 19 15  1  0
 20 21  1  0
 22 20  2  0
M  END
$$$$
