ISP.pdb
     RDKit          3D

 22 22  0  0  1  0  0  0  0  0999 V2000
    8.3620  -12.6289   17.9152 C   0  0  0  0  0  0  0  0  0  0  0  0
    8.5397  -13.9590   18.6119 C   0  0  0  0  0  0  0  0  0  0  0  0
    7.7611  -14.0182   19.9287 C   0  0  2  0  0  0  0  0  0  0  0  0
    8.3823  -12.9687   20.8174 C   0  0  0  0  0  0  0  0  0  0  0  0
    7.8788  -15.4072   20.5298 C   0  0  2  0  0  0  0  0  0  0  0  0
    7.1375  -16.3623   19.6809 N   0  0  0  0  0  0  0  0  0  0  0  0
    7.2667  -15.5124   21.8754 C   0  0  0  0  0  0  0  0  0  0  0  0
    5.9979  -15.6360   22.0303 O   0  0  0  0  0  0  0  0  0  0  0  0
    6.4564  -17.3926   25.7330 O   0  0  0  0  0  0  0  0  0  0  0  0
    7.0319  -17.1134   24.5120 C   0  0  0  0  0  0  0  0  0  0  0  0
    7.3361  -15.6099   24.3971 C   0  0  2  0  0  0  0  0  0  0  0  0
    7.9923  -15.4903   23.0989 N   0  0  0  0  0  0  0  0  0  0  0  0
    8.2495  -15.2150   25.5233 C   0  0  0  0  0  0  0  0  0  0  0  0
    9.1761  -16.0495   25.7234 O   0  0  0  0  0  0  0  0  0  0  0  0
    8.0592  -14.0362   26.2506 N   0  0  0  0  0  0  0  0  0  0  0  0
    7.3269  -12.8465   25.7518 C   0  0  0  0  0  0  0  0  0  0  0  0
    6.3491  -12.6774   26.8810 C   0  0  0  0  0  0  0  0  0  0  0  0
    7.0257  -13.2732   28.1125 C   0  0  0  0  0  0  0  0  0  0  0  0
    8.4231  -13.6032   27.5450 C   0  0  1  0  0  0  0  0  0  0  0  0
    9.1696  -14.4532   28.4388 C   0  0  0  0  0  0  0  0  0  0  0  0
   10.2195  -14.1417   29.2207 O   0  0  0  0  0  0  0  0  0  0  0  0
    8.7791  -15.6812   28.4983 O   0  0  0  0  0  0  0  0  0  0  0  0
  2  1  1  0
  2  3  1  0
  3  5  1  0
  3  4  1  1
  5  7  1  0
  5  6  1  6
  7  8  2  0
 10  9  1  0
 11 10  1  1
 12 11  1  0
 12  7  1  0
 13 14  2  0
 13 11  1  0
 15 13  1  0
 16 15  1  0
 17 16  1  0
 18 17  1  0
 18 19  1  0
 19 20  1  1
 19 15  1  0
 20 21  1  0
 22 20  2  0
M  END
$$$$
