ISP.pdb
     RDKit          3D

 22 22  0  0  1  0  0  0  0  0999 V2000
    6.4494  -11.1085   26.9452 C   0  0  0  0  0  0  0  0  0  0  0  0
    5.9102  -12.3644   26.2984 C   0  0  0  0  0  0  0  0  0  0  0  0
    7.0336  -13.3278   25.9064 C   0  0  2  0  0  0  0  0  0  0  0  0
    7.8854  -12.5781   24.9117 C   0  0  0  0  0  0  0  0  0  0  0  0
    6.4389  -14.5874   25.3029 C   0  0  2  0  0  0  0  0  0  0  0  0
    5.6164  -15.2675   26.3245 N   0  0  0  0  0  0  0  0  0  0  0  0
    7.4641  -15.5765   24.8942 C   0  0  0  0  0  0  0  0  0  0  0  0
    8.0436  -16.3387   25.7501 O   0  0  0  0  0  0  0  0  0  0  0  0
    7.9249  -15.9978   21.1623 O   0  0  0  0  0  0  0  0  0  0  0  0
    8.6181  -17.0571   21.7076 C   0  0  0  0  0  0  0  0  0  0  0  0
    8.8749  -16.8125   23.2045 C   0  0  2  0  0  0  0  0  0  0  0  0
    7.9017  -15.7834   23.5564 N   0  0  0  0  0  0  0  0  0  0  0  0
   10.2872  -16.3291   23.3790 C   0  0  0  0  0  0  0  0  0  0  0  0
   10.5320  -15.2746   22.7284 O   0  0  0  0  0  0  0  0  0  0  0  0
   11.2053  -17.0055   24.1877 N   0  0  0  0  0  0  0  0  0  0  0  0
   10.8436  -17.8301   25.3665 C   0  0  0  0  0  0  0  0  0  0  0  0
   11.5490  -19.1038   24.9923 C   0  0  0  0  0  0  0  0  0  0  0  0
   12.7134  -18.6890   24.0971 C   0  0  0  0  0  0  0  0  0  0  0  0
   12.6103  -17.1508   24.1805 C   0  0  1  0  0  0  0  0  0  0  0  0
   13.4262  -16.5111   23.1786 C   0  0  0  0  0  0  0  0  0  0  0  0
   13.1931  -16.3748   21.8603 O   0  0  0  0  0  0  0  0  0  0  0  0
   14.5316  -15.9985   23.6021 O   0  0  0  0  0  0  0  0  0  0  0  0
  2  1  1  0
  2  3  1  0
  3  5  1  0
  3  4  1  6
  5  7  1  0
  5  6  1  1
  7  8  2  0
 10  9  1  0
 11 10  1  6
 12 11  1  0
 12  7  1  0
 13 14  2  0
 13 11  1  0
 15 13  1  0
 16 15  1  0
 17 16  1  0
 18 17  1  0
 18 19  1  0
 19 20  1  6
 19 15  1  0
 20 21  1  0
 22 20  2  0
M  END
$$$$
