CGC.pdb
     RDKit          3D

 17 16  0  0  1  0  0  0  0  0999 V2000
    8.0213  -15.4148   19.1512 N   0  0  0  0  0  0  0  0  0  0  0  0
    8.5829  -14.5547   20.1885 C   0  0  1  0  0  0  0  0  0  0  0  0
    7.8829  -13.1944   20.1146 C   0  0  0  0  0  0  0  0  0  0  0  0
    8.2825  -12.2823   18.6233 S   0  0  0  0  0  0  0  0  0  0  0  0
    8.2767  -15.1471   21.5014 C   0  0  0  0  0  0  0  0  0  0  0  0
    7.2391  -15.8591   21.6180 O   0  0  0  0  0  0  0  0  0  0  0  0
    9.0658  -14.9816   22.6653 N   0  0  0  0  0  0  0  0  0  0  0  0
    8.7019  -15.6736   23.8824 C   0  0  0  0  0  0  0  0  0  0  0  0
    9.6967  -15.3810   24.9550 C   0  0  0  0  0  0  0  0  0  0  0  0
   10.9140  -15.1822   24.7111 O   0  0  0  0  0  0  0  0  0  0  0  0
    9.3195  -15.3106   26.3200 N   0  0  0  0  0  0  0  0  0  0  0  0
   10.2579  -15.0590   27.3629 C   0  0  1  0  0  0  0  0  0  0  0  0
    9.6349  -13.9792   28.2589 C   0  0  0  0  0  0  0  0  0  0  0  0
    8.9145  -12.6440   27.3138 S   0  0  0  0  0  0  0  0  0  0  0  0
   10.6741  -16.2273   28.1199 C   0  0  0  0  0  0  0  0  0  0  0  0
   11.5848  -16.1855   28.9744 O   0  0  0  0  0  0  0  0  0  0  0  0
   10.0571  -17.4442   27.9081 O   0  0  0  0  0  0  0  0  0  0  0  0
  2  3  1  0
  2  1  1  6
  3  4  1  0
  5  7  1  0
  5  2  1  0
  6  5  2  0
  8  7  1  0
  9 11  1  0
  9  8  1  0
 10  9  2  0
 12 11  1  0
 12 15  1  0
 12 13  1  1
 14 13  1  0
 15 17  1  0
 16 15  2  0
M  END
$$$$
