CGC.pdb
     RDKit          3D

 17 16  0  0  1  0  0  0  0  0999 V2000
   -4.8384  -24.0657   23.3444 N   0  0  0  0  0  0  0  0  0  0  0  0
   -3.4302  -24.3500   23.6038 C   0  0  1  0  0  0  0  0  0  0  0  0
   -2.6701  -23.0207   23.6337 C   0  0  0  0  0  0  0  0  0  0  0  0
   -2.7910  -22.1111   22.0930 S   0  0  0  0  0  0  0  0  0  0  0  0
   -3.3166  -24.9628   24.9381 C   0  0  0  0  0  0  0  0  0  0  0  0
   -2.1739  -25.3130   25.3489 O   0  0  0  0  0  0  0  0  0  0  0  0
   -4.4038  -25.1948   25.8149 N   0  0  0  0  0  0  0  0  0  0  0  0
   -4.1638  -25.7833   27.1143 C   0  0  0  0  0  0  0  0  0  0  0  0
   -4.6958  -24.8925   28.1863 C   0  0  0  0  0  0  0  0  0  0  0  0
   -4.6677  -25.2087   29.4028 O   0  0  0  0  0  0  0  0  0  0  0  0
   -5.2670  -23.6294   27.8881 N   0  0  0  0  0  0  0  0  0  0  0  0
   -5.8776  -22.8102   28.8819 C   0  0  1  0  0  0  0  0  0  0  0  0
   -5.5136  -21.3596   28.5352 C   0  0  0  0  0  0  0  0  0  0  0  0
   -3.8035  -20.9834   28.8945 S   0  0  0  0  0  0  0  0  0  0  0  0
   -7.3100  -22.9928   29.0439 C   0  0  0  0  0  0  0  0  0  0  0  0
   -7.9835  -22.3328   29.8638 O   0  0  0  0  0  0  0  0  0  0  0  0
   -7.9795  -23.9245   28.2757 O   0  0  0  0  0  0  0  0  0  0  0  0
  2  3  1  0
  2  1  1  1
  3  4  1  0
  5  7  1  0
  5  2  1  0
  6  5  2  0
  8  7  1  0
  9 11  1  0
  9  8  1  0
 10  9  2  0
 12 11  1  0
 12 15  1  0
 12 13  1  6
 14 13  1  0
 15 17  1  0
 16 15  2  0
M  END
$$$$
