CGC.pdb
     RDKit          3D

 17 16  0  0  1  0  0  0  0  0999 V2000
    5.3148  -18.9927   23.1776 N   0  0  0  0  0  0  0  0  0  0  0  0
    5.4372  -18.8790   21.7273 C   0  0  1  0  0  0  0  0  0  0  0  0
    4.0326  -18.9467   21.1206 C   0  0  0  0  0  0  0  0  0  0  0  0
    2.8335  -17.9638   22.0215 S   0  0  0  0  0  0  0  0  0  0  0  0
    6.0008  -17.5561   21.4095 C   0  0  0  0  0  0  0  0  0  0  0  0
    6.2850  -17.2913   20.2069 O   0  0  0  0  0  0  0  0  0  0  0  0
    6.2538  -16.5372   22.3595 N   0  0  0  0  0  0  0  0  0  0  0  0
    6.9092  -15.3164   21.9441 C   0  0  0  0  0  0  0  0  0  0  0  0
    7.9637  -14.9401   22.9301 C   0  0  0  0  0  0  0  0  0  0  0  0
    8.7573  -13.9840   22.7381 O   0  0  0  0  0  0  0  0  0  0  0  0
    8.1292  -15.6469   24.1480 N   0  0  0  0  0  0  0  0  0  0  0  0
    8.5657  -15.0144   25.3484 C   0  0  1  0  0  0  0  0  0  0  0  0
    7.5157  -13.9462   25.6851 C   0  0  0  0  0  0  0  0  0  0  0  0
    8.0002  -12.9308   27.0742 S   0  0  0  0  0  0  0  0  0  0  0  0
    8.8171  -15.9081   26.4661 C   0  0  0  0  0  0  0  0  0  0  0  0
    8.2208  -16.9976   26.6032 O   0  0  0  0  0  0  0  0  0  0  0  0
    9.7455  -15.5664   27.4294 O   0  0  0  0  0  0  0  0  0  0  0  0
  2  3  1  0
  2  1  1  1
  3  4  1  0
  5  7  1  0
  5  2  1  0
  6  5  2  0
  8  7  1  0
  9 11  1  0
  9  8  1  0
 10  9  2  0
 12 11  1  0
 12 15  1  0
 12 13  1  1
 14 13  1  0
 15 17  1  0
 16 15  2  0
M  END
$$$$
