CGC.pdb
     RDKit          3D

 17 16  0  0  1  0  0  0  0  0999 V2000
    5.8471  -17.5306   22.7867 N   0  0  0  0  0  0  0  0  0  0  0  0
    7.1874  -17.5638   22.2090 C   0  0  1  0  0  0  0  0  0  0  0  0
    7.1043  -18.2529   20.8437 C   0  0  0  0  0  0  0  0  0  0  0  0
    6.3699  -19.8866   20.9284 S   0  0  0  0  0  0  0  0  0  0  0  0
    7.6335  -16.1780   21.9867 C   0  0  0  0  0  0  0  0  0  0  0  0
    8.8098  -15.9795   21.5695 O   0  0  0  0  0  0  0  0  0  0  0  0
    6.8362  -15.0286   22.2053 N   0  0  0  0  0  0  0  0  0  0  0  0
    7.4122  -13.7131   22.0320 C   0  0  0  0  0  0  0  0  0  0  0  0
    7.8767  -13.1801   23.3457 C   0  0  0  0  0  0  0  0  0  0  0  0
    8.6043  -12.1592   23.4411 O   0  0  0  0  0  0  0  0  0  0  0  0
    7.5191  -13.8019   24.5688 N   0  0  0  0  0  0  0  0  0  0  0  0
    8.2314  -13.5734   25.7821 C   0  0  1  0  0  0  0  0  0  0  0  0
    7.3408  -12.6704   26.6472 C   0  0  0  0  0  0  0  0  0  0  0  0
    5.6020  -12.8979   26.3008 S   0  0  0  0  0  0  0  0  0  0  0  0
    8.6524  -14.7700   26.4907 C   0  0  0  0  0  0  0  0  0  0  0  0
    8.3212  -15.9186   26.1267 O   0  0  0  0  0  0  0  0  0  0  0  0
    9.4496  -14.6645   27.6131 O   0  0  0  0  0  0  0  0  0  0  0  0
  2  3  1  0
  2  1  1  6
  3  4  1  0
  5  7  1  0
  5  2  1  0
  6  5  2  0
  8  7  1  0
  9 11  1  0
  9  8  1  0
 10  9  2  0
 12 11  1  0
 12 15  1  0
 12 13  1  1
 14 13  1  0
 15 17  1  0
 16 15  2  0
M  END
$$$$
