CGC.pdb
     RDKit          3D

 17 16  0  0  1  0  0  0  0  0999 V2000
    8.1214  -15.4603   18.4327 N   0  0  0  0  0  0  0  0  0  0  0  0
    8.3444  -14.4632   19.4754 C   0  0  1  0  0  0  0  0  0  0  0  0
    7.6088  -13.1801   19.0773 C   0  0  0  0  0  0  0  0  0  0  0  0
    8.2636  -12.4330   17.5844 S   0  0  0  0  0  0  0  0  0  0  0  0
    7.7445  -14.9554   20.7270 C   0  0  0  0  0  0  0  0  0  0  0  0
    7.1295  -16.0593   20.7112 O   0  0  0  0  0  0  0  0  0  0  0  0
    7.8028  -14.2801   21.9701 N   0  0  0  0  0  0  0  0  0  0  0  0
    7.2671  -14.9130   23.1554 C   0  0  0  0  0  0  0  0  0  0  0  0
    8.0656  -14.5182   24.3522 C   0  0  0  0  0  0  0  0  0  0  0  0
    9.3204  -14.4425   24.3317 O   0  0  0  0  0  0  0  0  0  0  0  0
    7.4466  -14.2043   25.5886 N   0  0  0  0  0  0  0  0  0  0  0  0
    8.1894  -13.8122   26.7402 C   0  0  1  0  0  0  0  0  0  0  0  0
    7.2942  -12.8453   27.5280 C   0  0  0  0  0  0  0  0  0  0  0  0
    6.2096  -11.9034   26.4643 S   0  0  0  0  0  0  0  0  0  0  0  0
    8.6784  -14.9033   27.5658 C   0  0  0  0  0  0  0  0  0  0  0  0
    8.3071  -16.0857   27.4064 O   0  0  0  0  0  0  0  0  0  0  0  0
    9.5893  -14.6537   28.5730 O   0  0  0  0  0  0  0  0  0  0  0  0
  2  3  1  0
  2  1  1  6
  3  4  1  0
  5  7  1  0
  5  2  1  0
  6  5  2  0
  8  7  1  0
  9 11  1  0
  9  8  1  0
 10  9  2  0
 12 11  1  0
 12 15  1  0
 12 13  1  1
 14 13  1  0
 15 17  1  0
 16 15  2  0
M  END
$$$$
