CGC.pdb
     RDKit          3D

 17 16  0  0  1  0  0  0  0  0999 V2000
    9.0086  -15.2359   19.4382 N   0  0  0  0  0  0  0  0  0  0  0  0
    8.6416  -13.9356   19.9911 C   0  0  1  0  0  0  0  0  0  0  0  0
    7.5674  -13.3176   19.0912 C   0  0  0  0  0  0  0  0  0  0  0  0
    8.0383  -13.2847   17.3613 S   0  0  0  0  0  0  0  0  0  0  0  0
    8.0468  -14.1460   21.3217 C   0  0  0  0  0  0  0  0  0  0  0  0
    7.7337  -13.1351   22.0124 O   0  0  0  0  0  0  0  0  0  0  0  0
    7.7912  -15.4127   21.9004 N   0  0  0  0  0  0  0  0  0  0  0  0
    7.1890  -15.4927   23.2131 C   0  0  0  0  0  0  0  0  0  0  0  0
    8.0735  -14.8420   24.2230 C   0  0  0  0  0  0  0  0  0  0  0  0
    9.3194  -14.7589   24.0759 O   0  0  0  0  0  0  0  0  0  0  0  0
    7.5519  -14.2768   25.4142 N   0  0  0  0  0  0  0  0  0  0  0  0
    8.3783  -13.6474   26.3902 C   0  0  1  0  0  0  0  0  0  0  0  0
    7.6300  -12.3875   26.8481 C   0  0  0  0  0  0  0  0  0  0  0  0
    5.9095  -12.7120   27.2083 S   0  0  0  0  0  0  0  0  0  0  0  0
    8.7715  -14.4886   27.5077 C   0  0  0  0  0  0  0  0  0  0  0  0
    8.3362  -15.6498   27.6611 O   0  0  0  0  0  0  0  0  0  0  0  0
    9.6593  -14.0131   28.4523 O   0  0  0  0  0  0  0  0  0  0  0  0
  2  3  1  0
  2  1  1  6
  3  4  1  0
  5  7  1  0
  5  2  1  0
  6  5  2  0
  8  7  1  0
  9 11  1  0
  9  8  1  0
 10  9  2  0
 12 11  1  0
 12 15  1  0
 12 13  1  1
 14 13  1  0
 15 17  1  0
 16 15  2  0
M  END
$$$$
