CGC.pdb
     RDKit          3D

 17 16  0  0  1  0  0  0  0  0999 V2000
    8.5744  -19.7848   23.0132 N   0  0  0  0  0  0  0  0  0  0  0  0
    7.5325  -19.0715   22.2805 C   0  0  1  0  0  0  0  0  0  0  0  0
    6.3872  -20.0493   22.0015 C   0  0  0  0  0  0  0  0  0  0  0  0
    5.0315  -19.2992   21.0987 S   0  0  0  0  0  0  0  0  0  0  0  0
    7.0078  -17.9988   23.1424 C   0  0  0  0  0  0  0  0  0  0  0  0
    6.4414  -17.0079   22.5998 O   0  0  0  0  0  0  0  0  0  0  0  0
    7.0868  -17.9880   24.5560 N   0  0  0  0  0  0  0  0  0  0  0  0
    6.3954  -16.9614   25.3047 C   0  0  0  0  0  0  0  0  0  0  0  0
    7.2755  -15.7684   25.4714 C   0  0  0  0  0  0  0  0  0  0  0  0
    8.4033  -15.6793   24.9228 O   0  0  0  0  0  0  0  0  0  0  0  0
    6.8838  -14.6604   26.2648 N   0  0  0  0  0  0  0  0  0  0  0  0
    7.6833  -13.4873   26.3915 C   0  0  1  0  0  0  0  0  0  0  0  0
    6.7715  -12.3992   26.9759 C   0  0  0  0  0  0  0  0  0  0  0  0
    5.0408  -12.7274   26.6724 S   0  0  0  0  0  0  0  0  0  0  0  0
    8.9066  -13.6484   27.1588 C   0  0  0  0  0  0  0  0  0  0  0  0
    9.8031  -12.7784   27.1856 O   0  0  0  0  0  0  0  0  0  0  0  0
    9.1138  -14.7971   27.8965 O   0  0  0  0  0  0  0  0  0  0  0  0
  2  3  1  0
  2  1  1  1
  3  4  1  0
  5  7  1  0
  5  2  1  0
  6  5  2  0
  8  7  1  0
  9 11  1  0
  9  8  1  0
 10  9  2  0
 12 11  1  0
 12 15  1  0
 12 13  1  1
 14 13  1  0
 15 17  1  0
 16 15  2  0
M  END
$$$$
