CGC.pdb
     RDKit          3D

 17 16  0  0  1  0  0  0  0  0999 V2000
    5.5929  -14.2067   25.7702 N   0  0  0  0  0  0  0  0  0  0  0  0
    6.2173  -13.1879   24.9315 C   0  0  1  0  0  0  0  0  0  0  0  0
    6.5513  -11.9802   25.8124 C   0  0  0  0  0  0  0  0  0  0  0  0
    5.2374  -11.5675   26.9608 S   0  0  0  0  0  0  0  0  0  0  0  0
    7.4841  -13.7268   24.4086 C   0  0  0  0  0  0  0  0  0  0  0  0
    8.2571  -12.9524   23.7764 O   0  0  0  0  0  0  0  0  0  0  0  0
    7.9148  -15.0670   24.5605 N   0  0  0  0  0  0  0  0  0  0  0  0
    9.1275  -15.5085   23.9072 C   0  0  0  0  0  0  0  0  0  0  0  0
   10.2117  -15.6989   24.9142 C   0  0  0  0  0  0  0  0  0  0  0  0
   11.3616  -16.0993   24.6009 O   0  0  0  0  0  0  0  0  0  0  0  0
   10.0017  -15.4361   26.2916 N   0  0  0  0  0  0  0  0  0  0  0  0
   10.9499  -15.7943   27.2938 C   0  0  1  0  0  0  0  0  0  0  0  0
   10.8515  -14.7237   28.3897 C   0  0  0  0  0  0  0  0  0  0  0  0
    9.7527  -13.3880   27.9384 S   0  0  0  0  0  0  0  0  0  0  0  0
   10.8132  -17.1392   27.8267 C   0  0  0  0  0  0  0  0  0  0  0  0
    9.8885  -17.9070   27.4851 O   0  0  0  0  0  0  0  0  0  0  0  0
   11.7257  -17.6140   28.7477 O   0  0  0  0  0  0  0  0  0  0  0  0
  2  3  1  0
  2  1  1  1
  3  4  1  0
  5  7  1  0
  5  2  1  0
  6  5  2  0
  8  7  1  0
  9 11  1  0
  9  8  1  0
 10  9  2  0
 12 11  1  0
 12 15  1  0
 12 13  1  1
 14 13  1  0
 15 17  1  0
 16 15  2  0
M  END
$$$$
