CGC.pdb
     RDKit          3D

 17 16  0  0  1  0  0  0  0  0999 V2000
    9.0492  -12.9101   18.8994 N   0  0  0  0  0  0  0  0  0  0  0  0
    7.8624  -13.2481   19.6795 C   0  0  1  0  0  0  0  0  0  0  0  0
    7.2274  -14.5006   19.0684 C   0  0  0  0  0  0  0  0  0  0  0  0
    5.4456  -14.3752   18.9100 S   0  0  0  0  0  0  0  0  0  0  0  0
    8.2851  -13.5815   21.0502 C   0  0  0  0  0  0  0  0  0  0  0  0
    9.5150  -13.7617   21.2784 O   0  0  0  0  0  0  0  0  0  0  0  0
    7.4091  -13.7180   22.1542 N   0  0  0  0  0  0  0  0  0  0  0  0
    7.9505  -13.9674   23.4722 C   0  0  0  0  0  0  0  0  0  0  0  0
    8.4465  -15.3713   23.5651 C   0  0  0  0  0  0  0  0  0  0  0  0
    7.8393  -16.3383   23.0388 O   0  0  0  0  0  0  0  0  0  0  0  0
    9.6407  -15.6938   24.2582 N   0  0  0  0  0  0  0  0  0  0  0  0
   10.1071  -17.0332   24.4001 C   0  0  1  0  0  0  0  0  0  0  0  0
   11.6188  -16.9989   24.1344 C   0  0  0  0  0  0  0  0  0  0  0  0
   12.0176  -16.2188   22.5764 S   0  0  0  0  0  0  0  0  0  0  0  0
    9.7867  -17.6724   25.6650 C   0  0  0  0  0  0  0  0  0  0  0  0
    9.1679  -17.0846   26.5777 O   0  0  0  0  0  0  0  0  0  0  0  0
   10.1681  -18.9792   25.8955 O   0  0  0  0  0  0  0  0  0  0  0  0
  2  3  1  0
  2  1  1  6
  3  4  1  0
  5  7  1  0
  5  2  1  0
  6  5  2  0
  8  7  1  0
  9 11  1  0
  9  8  1  0
 10  9  2  0
 12 11  1  0
 12 15  1  0
 12 13  1  1
 14 13  1  0
 15 17  1  0
 16 15  2  0
M  END
$$$$
