CGC.pdb
     RDKit          3D

 17 16  0  0  1  0  0  0  0  0999 V2000
    7.6127  -13.3749   18.0795 N   0  0  0  0  0  0  0  0  0  0  0  0
    8.6192  -13.6898   19.0890 C   0  0  1  0  0  0  0  0  0  0  0  0
    7.9331  -14.4454   20.2309 C   0  0  0  0  0  0  0  0  0  0  0  0
    6.6562  -13.4809   21.0400 S   0  0  0  0  0  0  0  0  0  0  0  0
    9.6158  -14.5920   18.4878 C   0  0  0  0  0  0  0  0  0  0  0  0
    9.9906  -14.3762   17.3004 O   0  0  0  0  0  0  0  0  0  0  0  0
   10.2001  -15.7017   19.1450 N   0  0  0  0  0  0  0  0  0  0  0  0
   11.6227  -15.9363   19.0285 C   0  0  0  0  0  0  0  0  0  0  0  0
   12.2370  -16.0430   20.3838 C   0  0  0  0  0  0  0  0  0  0  0  0
   13.4620  -16.2693   20.5541 O   0  0  0  0  0  0  0  0  0  0  0  0
   11.4654  -15.8934   21.5639 N   0  0  0  0  0  0  0  0  0  0  0  0
   11.9952  -16.1431   22.8633 C   0  0  1  0  0  0  0  0  0  0  0  0
   11.2465  -15.2108   23.8261 C   0  0  0  0  0  0  0  0  0  0  0  0
    9.4719  -15.3402   23.6553 S   0  0  0  0  0  0  0  0  0  0  0  0
   11.9514  -17.5293   23.2967 C   0  0  0  0  0  0  0  0  0  0  0  0
   11.3110  -18.4069   22.6793 O   0  0  0  0  0  0  0  0  0  0  0  0
   12.6343  -17.9210   24.4310 O   0  0  0  0  0  0  0  0  0  0  0  0
  2  3  1  0
  2  1  1  6
  3  4  1  0
  5  7  1  0
  5  2  1  0
  6  5  2  0
  8  7  1  0
  9 11  1  0
  9  8  1  0
 10  9  2  0
 12 11  1  0
 12 15  1  0
 12 13  1  1
 14 13  1  0
 15 17  1  0
 16 15  2  0
M  END
$$$$
