CGC.pdb
     RDKit          3D

 17 16  0  0  1  0  0  0  0  0999 V2000
    7.5095  -13.5240   26.9133 N   0  0  0  0  0  0  0  0  0  0  0  0
    6.5384  -13.8435   25.8712 C   0  0  1  0  0  0  0  0  0  0  0  0
    5.8269  -12.5493   25.4655 C   0  0  0  0  0  0  0  0  0  0  0  0
    5.3196  -11.5596   26.8722 S   0  0  0  0  0  0  0  0  0  0  0  0
    7.2666  -14.3443   24.6932 C   0  0  0  0  0  0  0  0  0  0  0  0
    6.6333  -15.0142   23.8288 O   0  0  0  0  0  0  0  0  0  0  0  0
    8.6442  -14.1312   24.4453 N   0  0  0  0  0  0  0  0  0  0  0  0
    9.4444  -15.1967   23.8824 C   0  0  0  0  0  0  0  0  0  0  0  0
   10.3932  -15.7209   24.9074 C   0  0  0  0  0  0  0  0  0  0  0  0
   11.4835  -16.2673   24.6016 O   0  0  0  0  0  0  0  0  0  0  0  0
   10.1140  -15.6304   26.2946 N   0  0  0  0  0  0  0  0  0  0  0  0
   10.9818  -16.1700   27.2882 C   0  0  1  0  0  0  0  0  0  0  0  0
   11.2402  -15.0441   28.2995 C   0  0  0  0  0  0  0  0  0  0  0  0
    9.9869  -13.7713   28.2346 S   0  0  0  0  0  0  0  0  0  0  0  0
   10.5123  -17.3864   27.9295 C   0  0  0  0  0  0  0  0  0  0  0  0
    9.3871  -17.8779   27.6972 O   0  0  0  0  0  0  0  0  0  0  0  0
   11.3191  -18.0464   28.8350 O   0  0  0  0  0  0  0  0  0  0  0  0
  2  3  1  0
  2  1  1  1
  3  4  1  0
  5  7  1  0
  5  2  1  0
  6  5  2  0
  8  7  1  0
  9 11  1  0
  9  8  1  0
 10  9  2  0
 12 11  1  0
 12 15  1  0
 12 13  1  1
 14 13  1  0
 15 17  1  0
 16 15  2  0
M  END
$$$$
