CGC.pdb
     RDKit          3D

 17 16  0  0  1  0  0  0  0  0999 V2000
    4.6838  -18.6119   22.9196 N   0  0  0  0  0  0  0  0  0  0  0  0
    5.2826  -18.5199   21.5914 C   0  0  1  0  0  0  0  0  0  0  0  0
    4.1536  -18.3976   20.5637 C   0  0  0  0  0  0  0  0  0  0  0  0
    3.7007  -19.9707   19.8317 S   0  0  0  0  0  0  0  0  0  0  0  0
    6.0852  -17.2870   21.5263 C   0  0  0  0  0  0  0  0  0  0  0  0
    5.5281  -16.1859   21.7990 O   0  0  0  0  0  0  0  0  0  0  0  0
    7.4565  -17.2341   21.1777 N   0  0  0  0  0  0  0  0  0  0  0  0
    8.1298  -15.9557   21.1087 C   0  0  0  0  0  0  0  0  0  0  0  0
    8.6539  -15.5795   22.4539 C   0  0  0  0  0  0  0  0  0  0  0  0
    9.5588  -14.7207   22.6100 O   0  0  0  0  0  0  0  0  0  0  0  0
    8.1551  -16.1757   23.6397 N   0  0  0  0  0  0  0  0  0  0  0  0
    8.7367  -15.9403   24.9195 C   0  0  1  0  0  0  0  0  0  0  0  0
    7.6144  -15.3975   25.8154 C   0  0  0  0  0  0  0  0  0  0  0  0
    6.7914  -13.9847   25.0931 S   0  0  0  0  0  0  0  0  0  0  0  0
    9.4110  -17.0813   25.5152 C   0  0  0  0  0  0  0  0  0  0  0  0
    9.4689  -18.1963   24.9542 O   0  0  0  0  0  0  0  0  0  0  0  0
   10.0201  -16.9580   26.7482 O   0  0  0  0  0  0  0  0  0  0  0  0
  2  3  1  0
  2  1  1  1
  3  4  1  0
  5  7  1  0
  5  2  1  0
  6  5  2  0
  8  7  1  0
  9 11  1  0
  9  8  1  0
 10  9  2  0
 12 11  1  0
 12 15  1  0
 12 13  1  1
 14 13  1  0
 15 17  1  0
 16 15  2  0
M  END
$$$$
