QAQ.pdb
     RDKit          3D

 24 23  0  0  1  0  0  0  0  0999 V2000
   12.9521  -15.7336   17.8329 N   0  0  0  0  0  0  0  0  0  0  0  0
   12.8967  -14.4871   18.4976 C   0  0  0  0  0  0  0  0  0  0  0  0
   13.8332  -14.1894   19.2775 O   0  0  0  0  0  0  0  0  0  0  0  0
   11.7970  -13.5247   18.3201 C   0  0  0  0  0  0  0  0  0  0  0  0
   10.7364  -13.5818   19.3553 C   0  0  0  0  0  0  0  0  0  0  0  0
    9.5575  -14.4526   19.0626 C   0  0  2  0  0  0  0  0  0  0  0  0
    8.5737  -13.5477   18.4070 N   0  0  0  0  0  0  0  0  0  0  0  0
    8.8713  -14.9528   20.2765 C   0  0  0  0  0  0  0  0  0  0  0  0
    8.0232  -14.2293   20.9069 O   0  0  0  0  0  0  0  0  0  0  0  0
    8.3894  -18.1653   22.2027 C   0  0  0  0  0  0  0  0  0  0  0  0
    8.2837  -16.6553   21.9691 C   0  0  2  0  0  0  0  0  0  0  0  0
    9.0873  -16.2615   20.8372 N   0  0  0  0  0  0  0  0  0  0  0  0
    8.7220  -15.9900   23.2169 C   0  0  0  0  0  0  0  0  0  0  0  0
    9.9472  -15.6280   23.3501 O   0  0  0  0  0  0  0  0  0  0  0  0
    5.6206  -11.7503   26.2225 N   0  0  0  0  0  0  0  0  0  0  0  0
    6.5142  -12.1392   27.2761 C   0  0  0  0  0  0  0  0  0  0  0  0
    6.3427  -11.7332   28.4451 O   0  0  0  0  0  0  0  0  0  0  0  0
    7.6371  -13.0329   26.9241 C   0  0  0  0  0  0  0  0  0  0  0  0
    7.1950  -13.9505   25.8191 C   0  0  0  0  0  0  0  0  0  0  0  0
    8.3266  -14.8954   25.4057 C   0  0  2  0  0  0  0  0  0  0  0  0
    7.8641  -15.7121   24.3095 N   0  0  0  0  0  0  0  0  0  0  0  0
    8.7610  -15.7200   26.5583 C   0  0  0  0  0  0  0  0  0  0  0  0
    9.6290  -15.1785   27.4872 O   0  0  0  0  0  0  0  0  0  0  0  0
    8.3450  -16.8979   26.6896 O   0  0  0  0  0  0  0  0  0  0  0  0
  2  3  2  0
  2  1  1  0
  4  2  1  0
  5  6  1  0
  5  4  1  0
  6  7  1  6
  8  6  1  0
  8  9  2  0
 11 10  1  1
 11 12  1  0
 11 13  1  0
 12  8  1  0
 13 21  1  0
 14 13  2  0
 15 16  1  0
 16 17  2  0
 18 19  1  0
 18 16  1  0
 20 19  1  1
 20 22  1  0
 21 20  1  0
 22 24  2  0
 22 23  1  0
M  END
$$$$
