QAQ.pdb
     RDKit          3D

 24 23  0  0  1  0  0  0  0  0999 V2000
    8.8039  -19.9288   14.7946 N   0  0  0  0  0  0  0  0  0  0  0  0
    8.0417  -18.7697   14.5225 C   0  0  0  0  0  0  0  0  0  0  0  0
    8.2190  -18.1882   13.4251 O   0  0  0  0  0  0  0  0  0  0  0  0
    7.0536  -18.2134   15.4612 C   0  0  0  0  0  0  0  0  0  0  0  0
    7.5935  -17.2382   16.4397 C   0  0  0  0  0  0  0  0  0  0  0  0
    7.9315  -17.7649   17.7970 C   0  0  2  0  0  0  0  0  0  0  0  0
    6.6256  -18.1875   18.3736 N   0  0  0  0  0  0  0  0  0  0  0  0
    8.4459  -16.7312   18.7251 C   0  0  0  0  0  0  0  0  0  0  0  0
    9.5584  -16.1356   18.5066 O   0  0  0  0  0  0  0  0  0  0  0  0
    7.4944  -14.9548   21.9348 C   0  0  0  0  0  0  0  0  0  0  0  0
    8.4213  -15.3713   20.7888 C   0  0  2  0  0  0  0  0  0  0  0  0
    7.7583  -16.3127   19.9191 N   0  0  0  0  0  0  0  0  0  0  0  0
    9.6396  -15.9477   21.4017 C   0  0  0  0  0  0  0  0  0  0  0  0
    9.6530  -17.1828   21.7538 O   0  0  0  0  0  0  0  0  0  0  0  0
   16.9763  -15.4417   21.8421 N   0  0  0  0  0  0  0  0  0  0  0  0
   15.6595  -15.0474   21.4293 C   0  0  0  0  0  0  0  0  0  0  0  0
   15.4927  -14.0835   20.6523 O   0  0  0  0  0  0  0  0  0  0  0  0
   14.5176  -15.8226   21.9572 C   0  0  0  0  0  0  0  0  0  0  0  0
   13.2421  -15.1380   21.5533 C   0  0  0  0  0  0  0  0  0  0  0  0
   12.0219  -15.8948   22.0849 C   0  0  2  0  0  0  0  0  0  0  0  0
   10.8303  -15.2164   21.6352 N   0  0  0  0  0  0  0  0  0  0  0  0
   12.0738  -15.9895   23.5633 C   0  0  0  0  0  0  0  0  0  0  0  0
   11.1649  -15.2730   24.3183 O   0  0  0  0  0  0  0  0  0  0  0  0
   12.9342  -16.7128   24.1239 O   0  0  0  0  0  0  0  0  0  0  0  0
  2  3  2  0
  2  1  1  0
  4  2  1  0
  5  6  1  0
  5  4  1  0
  6  7  1  1
  8  6  1  0
  8  9  2  0
 11 10  1  1
 11 12  1  0
 11 13  1  0
 12  8  1  0
 13 21  1  0
 14 13  2  0
 15 16  1  0
 16 17  2  0
 18 19  1  0
 18 16  1  0
 20 19  1  1
 20 22  1  0
 21 20  1  0
 22 24  2  0
 22 23  1  0
M  END
$$$$
