QAQ.pdb
     RDKit          3D

 24 23  0  0  1  0  0  0  0  0999 V2000
    7.7064  -13.3375   18.5885 N   0  0  0  0  0  0  0  0  0  0  0  0
    8.6079  -13.3979   19.6759 C   0  0  0  0  0  0  0  0  0  0  0  0
    9.6515  -12.7041   19.6195 O   0  0  0  0  0  0  0  0  0  0  0  0
    8.3824  -14.2329   20.8671 C   0  0  0  0  0  0  0  0  0  0  0  0
    7.1183  -15.0088   20.8628 C   0  0  0  0  0  0  0  0  0  0  0  0
    6.9078  -15.9570   21.9988 C   0  0  2  0  0  0  0  0  0  0  0  0
    6.9368  -15.1000   23.2158 N   0  0  0  0  0  0  0  0  0  0  0  0
    8.0165  -16.9225   22.1810 C   0  0  0  0  0  0  0  0  0  0  0  0
    8.4511  -17.6282   21.2046 O   0  0  0  0  0  0  0  0  0  0  0  0
   10.4712  -15.8658   22.3569 C   0  0  0  0  0  0  0  0  0  0  0  0
   10.0720  -16.7494   23.5425 C   0  0  2  0  0  0  0  0  0  0  0  0
    8.6882  -17.1439   23.4354 N   0  0  0  0  0  0  0  0  0  0  0  0
   10.3310  -15.9691   24.7737 C   0  0  0  0  0  0  0  0  0  0  0  0
   11.4789  -15.4208   24.9516 O   0  0  0  0  0  0  0  0  0  0  0  0
    6.7945  -12.0498   27.4146 N   0  0  0  0  0  0  0  0  0  0  0  0
    7.0667  -12.4188   26.0545 C   0  0  0  0  0  0  0  0  0  0  0  0
    6.4302  -11.9042   25.1107 O   0  0  0  0  0  0  0  0  0  0  0  0
    8.1228  -13.4248   25.8182 C   0  0  0  0  0  0  0  0  0  0  0  0
    8.6311  -13.9115   27.1461 C   0  0  0  0  0  0  0  0  0  0  0  0
    9.7113  -14.9807   26.9610 C   0  0  2  0  0  0  0  0  0  0  0  0
    9.3771  -15.7739   25.8028 N   0  0  0  0  0  0  0  0  0  0  0  0
    9.8303  -15.8146   28.1807 C   0  0  0  0  0  0  0  0  0  0  0  0
   10.2740  -15.2355   29.3542 O   0  0  0  0  0  0  0  0  0  0  0  0
    9.5311  -17.0341   28.1483 O   0  0  0  0  0  0  0  0  0  0  0  0
  2  3  2  0
  2  1  1  0
  4  2  1  0
  5  6  1  0
  5  4  1  0
  6  7  1  1
  8  6  1  0
  8  9  2  0
 11 10  1  6
 11 12  1  0
 11 13  1  0
 12  8  1  0
 13 21  1  0
 14 13  2  0
 15 16  1  0
 16 17  2  0
 18 19  1  0
 18 16  1  0
 20 19  1  1
 20 22  1  0
 21 20  1  0
 22 24  2  0
 22 23  1  0
M  END
$$$$
