QAQ.pdb
     RDKit          3D

 24 23  0  0  1  0  0  0  0  0999 V2000
    5.4510  -18.1526   14.9269 N   0  0  0  0  0  0  0  0  0  0  0  0
    6.0157  -18.5963   16.1447 C   0  0  0  0  0  0  0  0  0  0  0  0
    5.2441  -18.8242   17.1072 O   0  0  0  0  0  0  0  0  0  0  0  0
    7.4604  -18.8028   16.3378 C   0  0  0  0  0  0  0  0  0  0  0  0
    8.0697  -18.0091   17.4326 C   0  0  0  0  0  0  0  0  0  0  0  0
    8.4694  -16.6069   17.1043 C   0  0  2  0  0  0  0  0  0  0  0  0
    9.7164  -16.7479   16.3034 N   0  0  0  0  0  0  0  0  0  0  0  0
    8.8604  -15.8070   18.2883 C   0  0  0  0  0  0  0  0  0  0  0  0
   10.0072  -15.9519   18.8396 O   0  0  0  0  0  0  0  0  0  0  0  0
    7.5149  -13.0539   20.5198 C   0  0  0  0  0  0  0  0  0  0  0  0
    8.5188  -14.1134   20.0557 C   0  0  2  0  0  0  0  0  0  0  0  0
    8.0117  -14.8202   18.9045 N   0  0  0  0  0  0  0  0  0  0  0  0
    8.7555  -15.0205   21.2017 C   0  0  0  0  0  0  0  0  0  0  0  0
    7.9088  -15.9499   21.4647 O   0  0  0  0  0  0  0  0  0  0  0  0
   14.0734  -15.9352   24.2092 N   0  0  0  0  0  0  0  0  0  0  0  0
   13.8320  -16.1793   22.8156 C   0  0  0  0  0  0  0  0  0  0  0  0
   14.7794  -16.3793   22.0260 O   0  0  0  0  0  0  0  0  0  0  0  0
   12.4276  -16.1843   22.3564 C   0  0  0  0  0  0  0  0  0  0  0  0
   11.5350  -15.8996   23.5314 C   0  0  0  0  0  0  0  0  0  0  0  0
   10.0618  -15.9040   23.1143 C   0  0  2  0  0  0  0  0  0  0  0  0
    9.8823  -14.9390   22.0564 N   0  0  0  0  0  0  0  0  0  0  0  0
    9.1922  -15.6096   24.2781 C   0  0  0  0  0  0  0  0  0  0  0  0
    8.4683  -14.4327   24.2997 O   0  0  0  0  0  0  0  0  0  0  0  0
    9.1140  -16.4205   25.2341 O   0  0  0  0  0  0  0  0  0  0  0  0
  2  3  2  0
  2  1  1  0
  4  2  1  0
  5  6  1  0
  5  4  1  0
  6  7  1  6
  8  6  1  0
  8  9  2  0
 11 10  1  1
 11 12  1  0
 11 13  1  0
 12  8  1  0
 13 21  1  0
 14 13  2  0
 15 16  1  0
 16 17  2  0
 18 19  1  0
 18 16  1  0
 20 19  1  1
 20 22  1  0
 21 20  1  0
 22 24  2  0
 22 23  1  0
M  END
$$$$
