QAQ.pdb
     RDKit          3D

 24 23  0  0  1  0  0  0  0  0999 V2000
    9.3220  -19.5773   16.0345 N   0  0  0  0  0  0  0  0  0  0  0  0
    9.0521  -19.0435   14.7536 C   0  0  0  0  0  0  0  0  0  0  0  0
    9.2572  -19.7718   13.7530 O   0  0  0  0  0  0  0  0  0  0  0  0
    8.5439  -17.6789   14.5374 C   0  0  0  0  0  0  0  0  0  0  0  0
    8.1867  -16.9367   15.7709 C   0  0  0  0  0  0  0  0  0  0  0  0
    8.0903  -15.4496   15.6564 C   0  0  2  0  0  0  0  0  0  0  0  0
    8.9813  -15.1006   14.5159 N   0  0  0  0  0  0  0  0  0  0  0  0
    8.6528  -14.7257   16.8201 C   0  0  0  0  0  0  0  0  0  0  0  0
    9.9151  -14.6878   17.0330 O   0  0  0  0  0  0  0  0  0  0  0  0
    7.4801  -12.8978   19.9267 C   0  0  0  0  0  0  0  0  0  0  0  0
    8.5021  -13.5372   18.9819 C   0  0  2  0  0  0  0  0  0  0  0  0
    7.8534  -14.0166   17.7854 N   0  0  0  0  0  0  0  0  0  0  0  0
    9.1615  -14.6315   19.7300 C   0  0  0  0  0  0  0  0  0  0  0  0
    8.6808  -15.8213   19.6752 O   0  0  0  0  0  0  0  0  0  0  0  0
   14.6202  -14.1292   18.8556 N   0  0  0  0  0  0  0  0  0  0  0  0
   14.4146  -14.4322   20.2434 C   0  0  0  0  0  0  0  0  0  0  0  0
   15.3680  -14.7800   20.9720 O   0  0  0  0  0  0  0  0  0  0  0  0
   13.0393  -14.3168   20.7712 C   0  0  0  0  0  0  0  0  0  0  0  0
   12.3962  -15.6747   20.7426 C   0  0  0  0  0  0  0  0  0  0  0  0
   10.9296  -15.5958   21.1753 C   0  0  2  0  0  0  0  0  0  0  0  0
   10.3209  -14.4599   20.5259 N   0  0  0  0  0  0  0  0  0  0  0  0
   10.8285  -15.5025   22.6512 C   0  0  0  0  0  0  0  0  0  0  0  0
   11.3336  -16.5270   23.4289 O   0  0  0  0  0  0  0  0  0  0  0  0
   10.2897  -14.5036   23.1893 O   0  0  0  0  0  0  0  0  0  0  0  0
  2  3  2  0
  2  1  1  0
  4  2  1  0
  5  6  1  0
  5  4  1  0
  6  7  1  6
  8  6  1  0
  8  9  2  0
 11 10  1  1
 11 12  1  0
 11 13  1  0
 12  8  1  0
 13 21  1  0
 14 13  2  0
 15 16  1  0
 16 17  2  0
 18 19  1  0
 18 16  1  0
 20 19  1  1
 20 22  1  0
 21 20  1  0
 22 24  2  0
 22 23  1  0
M  END
$$$$
