QAQ.pdb
     RDKit          3D

 24 23  0  0  1  0  0  0  0  0999 V2000
   17.1385  -14.3995   19.4548 N   0  0  0  0  0  0  0  0  0  0  0  0
   15.8714  -14.0724   18.9201 C   0  0  0  0  0  0  0  0  0  0  0  0
   15.8039  -13.7532   17.7087 O   0  0  0  0  0  0  0  0  0  0  0  0
   14.6312  -14.0875   19.7130 C   0  0  0  0  0  0  0  0  0  0  0  0
   13.9825  -15.4150   19.8430 C   0  0  0  0  0  0  0  0  0  0  0  0
   12.5974  -15.5427   19.2962 C   0  0  2  0  0  0  0  0  0  0  0  0
   12.3015  -14.2095   18.7034 N   0  0  0  0  0  0  0  0  0  0  0  0
   11.5624  -15.7394   20.3378 C   0  0  0  0  0  0  0  0  0  0  0  0
   10.9817  -14.7431   20.8948 O   0  0  0  0  0  0  0  0  0  0  0  0
    9.4963  -18.4637   21.9262 C   0  0  0  0  0  0  0  0  0  0  0  0
   10.1449  -17.0780   21.8569 C   0  0  2  0  0  0  0  0  0  0  0  0
   11.1264  -17.0316   20.8002 N   0  0  0  0  0  0  0  0  0  0  0  0
   10.7470  -16.8123   23.1831 C   0  0  0  0  0  0  0  0  0  0  0  0
   12.0210  -16.8829   23.3307 O   0  0  0  0  0  0  0  0  0  0  0  0
   10.3234  -13.4788   29.7083 N   0  0  0  0  0  0  0  0  0  0  0  0
    9.8131  -13.9247   28.4431 C   0  0  0  0  0  0  0  0  0  0  0  0
    8.7286  -13.4908   28.0000 O   0  0  0  0  0  0  0  0  0  0  0  0
   10.6171  -14.9106   27.6916 C   0  0  0  0  0  0  0  0  0  0  0  0
    9.9500  -15.1704   26.3702 C   0  0  0  0  0  0  0  0  0  0  0  0
   10.6669  -16.2855   25.6041 C   0  0  2  0  0  0  0  0  0  0  0  0
   10.0000  -16.4736   24.3383 N   0  0  0  0  0  0  0  0  0  0  0  0
   10.6877  -17.5336   26.4036 C   0  0  0  0  0  0  0  0  0  0  0  0
   11.7623  -17.7851   27.2352 O   0  0  0  0  0  0  0  0  0  0  0  0
    9.7395  -18.3536   26.3262 O   0  0  0  0  0  0  0  0  0  0  0  0
  2  3  2  0
  2  1  1  0
  4  2  1  0
  5  6  1  0
  5  4  1  0
  6  7  1  1
  8  6  1  0
  8  9  2  0
 11 10  1  1
 11 12  1  0
 11 13  1  0
 12  8  1  0
 13 21  1  0
 14 13  2  0
 15 16  1  0
 16 17  2  0
 18 19  1  0
 18 16  1  0
 20 19  1  1
 20 22  1  0
 21 20  1  0
 22 24  2  0
 22 23  1  0
M  END
$$$$
