QAQ.pdb
     RDKit          3D

 24 23  0  0  1  0  0  0  0  0999 V2000
    7.5763  -12.4772   19.2120 N   0  0  0  0  0  0  0  0  0  0  0  0
    7.7548  -13.4293   18.1824 C   0  0  0  0  0  0  0  0  0  0  0  0
    7.6239  -13.0486   16.9942 O   0  0  0  0  0  0  0  0  0  0  0  0
    8.0855  -14.8412   18.4356 C   0  0  0  0  0  0  0  0  0  0  0  0
    8.1694  -15.2219   19.8668 C   0  0  0  0  0  0  0  0  0  0  0  0
    8.5320  -16.6408   20.1647 C   0  0  2  0  0  0  0  0  0  0  0  0
    7.3584  -17.4342   19.7070 N   0  0  0  0  0  0  0  0  0  0  0  0
    8.6534  -16.9325   21.6121 C   0  0  0  0  0  0  0  0  0  0  0  0
    7.6222  -17.1855   22.3282 O   0  0  0  0  0  0  0  0  0  0  0  0
   11.2346  -17.7346   24.2223 C   0  0  0  0  0  0  0  0  0  0  0  0
    9.8759  -17.2168   23.7413 C   0  0  2  0  0  0  0  0  0  0  0  0
    9.9062  -16.9612   22.3214 N   0  0  0  0  0  0  0  0  0  0  0  0
    9.5770  -15.9920   24.5175 C   0  0  0  0  0  0  0  0  0  0  0  0
    9.3687  -14.8831   23.9037 O   0  0  0  0  0  0  0  0  0  0  0  0
    7.5380  -12.3706   24.9456 N   0  0  0  0  0  0  0  0  0  0  0  0
    6.8918  -12.3271   26.2265 C   0  0  0  0  0  0  0  0  0  0  0  0
    6.4435  -11.2539   26.6824 O   0  0  0  0  0  0  0  0  0  0  0  0
    6.7795  -13.5943   26.9781 C   0  0  0  0  0  0  0  0  0  0  0  0
    7.4626  -14.6809   26.1963 C   0  0  0  0  0  0  0  0  0  0  0  0
    8.9368  -14.7976   26.5932 C   0  0  2  0  0  0  0  0  0  0  0  0
    9.4996  -15.9499   25.9314 N   0  0  0  0  0  0  0  0  0  0  0  0
    9.0715  -14.8915   28.0664 C   0  0  0  0  0  0  0  0  0  0  0  0
    9.1222  -16.1374   28.6620 O   0  0  0  0  0  0  0  0  0  0  0  0
    9.1388  -13.8505   28.7659 O   0  0  0  0  0  0  0  0  0  0  0  0
  2  3  2  0
  2  1  1  0
  4  2  1  0
  5  6  1  0
  5  4  1  0
  6  7  1  1
  8  6  1  0
  8  9  2  0
 11 10  1  1
 11 12  1  0
 11 13  1  0
 12  8  1  0
 13 21  1  0
 14 13  2  0
 15 16  1  0
 16 17  2  0
 18 19  1  0
 18 16  1  0
 20 19  1  1
 20 22  1  0
 21 20  1  0
 22 24  2  0
 22 23  1  0
M  END
$$$$
