QAQ.pdb
     RDKit          3D

 24 23  0  0  1  0  0  0  0  0999 V2000
    8.9832  -21.3528   19.6930 N   0  0  0  0  0  0  0  0  0  0  0  0
    9.5907  -20.8455   18.5216 C   0  0  0  0  0  0  0  0  0  0  0  0
   10.1783  -21.6524   17.7619 O   0  0  0  0  0  0  0  0  0  0  0  0
    9.5677  -19.4209   18.1514 C   0  0  0  0  0  0  0  0  0  0  0  0
    8.8527  -18.5343   19.1014 C   0  0  0  0  0  0  0  0  0  0  0  0
    8.7587  -17.0892   18.7315 C   0  0  2  0  0  0  0  0  0  0  0  0
    9.9954  -16.8192   17.9479 N   0  0  0  0  0  0  0  0  0  0  0  0
    8.8305  -16.1720   19.8926 C   0  0  0  0  0  0  0  0  0  0  0  0
    9.9165  -16.0202   20.5541 O   0  0  0  0  0  0  0  0  0  0  0  0
    6.6615  -13.7692   21.8604 C   0  0  0  0  0  0  0  0  0  0  0  0
    7.8731  -14.6713   21.6073 C   0  0  2  0  0  0  0  0  0  0  0  0
    7.7184  -15.3884   20.3647 N   0  0  0  0  0  0  0  0  0  0  0  0
    7.9830  -15.5878   22.7648 C   0  0  0  0  0  0  0  0  0  0  0  0
    7.4104  -16.7368   22.7250 O   0  0  0  0  0  0  0  0  0  0  0  0
    9.3587  -14.2800   29.4306 N   0  0  0  0  0  0  0  0  0  0  0  0
    9.7774  -14.1341   28.0655 C   0  0  0  0  0  0  0  0  0  0  0  0
   10.8835  -13.6259   27.7848 O   0  0  0  0  0  0  0  0  0  0  0  0
    8.8532  -14.6063   27.0137 C   0  0  0  0  0  0  0  0  0  0  0  0
    9.5598  -15.6359   26.1776 C   0  0  0  0  0  0  0  0  0  0  0  0
    8.6384  -16.1781   25.0815 C   0  0  2  0  0  0  0  0  0  0  0  0
    8.6962  -15.2837   23.9505 N   0  0  0  0  0  0  0  0  0  0  0  0
    7.2551  -16.3263   25.5931 C   0  0  0  0  0  0  0  0  0  0  0  0
    6.9206  -17.4534   26.3191 O   0  0  0  0  0  0  0  0  0  0  0  0
    6.3963  -15.4375   25.3692 O   0  0  0  0  0  0  0  0  0  0  0  0
  2  3  2  0
  2  1  1  0
  4  2  1  0
  5  6  1  0
  5  4  1  0
  6  7  1  6
  8  6  1  0
  8  9  2  0
 11 10  1  1
 11 12  1  0
 11 13  1  0
 12  8  1  0
 13 21  1  0
 14 13  2  0
 15 16  1  0
 16 17  2  0
 18 19  1  0
 18 16  1  0
 20 19  1  1
 20 22  1  0
 21 20  1  0
 22 24  2  0
 22 23  1  0
M  END
$$$$
