QAQ.pdb
     RDKit          3D

 24 23  0  0  1  0  0  0  0  0999 V2000
    7.9817  -12.8007   15.3773 N   0  0  0  0  0  0  0  0  0  0  0  0
    8.4204  -14.1384   15.2488 C   0  0  0  0  0  0  0  0  0  0  0  0
    8.7512  -14.5466   14.1096 O   0  0  0  0  0  0  0  0  0  0  0  0
    8.5074  -15.0729   16.3829 C   0  0  0  0  0  0  0  0  0  0  0  0
    9.5876  -14.7828   17.3571 C   0  0  0  0  0  0  0  0  0  0  0  0
    9.6996  -15.7022   18.5301 C   0  0  2  0  0  0  0  0  0  0  0  0
    8.5354  -16.6211   18.4017 N   0  0  0  0  0  0  0  0  0  0  0  0
    9.5147  -15.0264   19.8354 C   0  0  0  0  0  0  0  0  0  0  0  0
   10.4636  -14.3607   20.3799 O   0  0  0  0  0  0  0  0  0  0  0  0
    6.8351  -14.2937   22.4002 C   0  0  0  0  0  0  0  0  0  0  0  0
    8.2716  -14.4339   21.8879 C   0  0  2  0  0  0  0  0  0  0  0  0
    8.2853  -15.0534   20.5847 N   0  0  0  0  0  0  0  0  0  0  0  0
    9.0146  -15.2335   22.8882 C   0  0  0  0  0  0  0  0  0  0  0  0
    9.0053  -14.8785   24.1226 O   0  0  0  0  0  0  0  0  0  0  0  0
   11.1948  -20.9947   22.2665 N   0  0  0  0  0  0  0  0  0  0  0  0
   11.7057  -20.7064   23.5764 C   0  0  0  0  0  0  0  0  0  0  0  0
   12.3754  -21.5536   24.2044 O   0  0  0  0  0  0  0  0  0  0  0  0
   11.4091  -19.3763   24.1476 C   0  0  0  0  0  0  0  0  0  0  0  0
   10.6442  -18.5750   23.1320 C   0  0  0  0  0  0  0  0  0  0  0  0
   10.4111  -17.1444   23.6253 C   0  0  2  0  0  0  0  0  0  0  0  0
    9.7574  -16.3990   22.5768 N   0  0  0  0  0  0  0  0  0  0  0  0
   11.6938  -16.5181   24.0252 C   0  0  0  0  0  0  0  0  0  0  0  0
   12.1765  -16.7244   25.3034 O   0  0  0  0  0  0  0  0  0  0  0  0
   12.3349  -15.8078   23.2115 O   0  0  0  0  0  0  0  0  0  0  0  0
  2  3  2  0
  2  1  1  0
  4  2  1  0
  5  6  1  0
  5  4  1  0
  6  7  1  6
  8  6  1  0
  8  9  2  0
 11 10  1  1
 11 12  1  0
 11 13  1  0
 12  8  1  0
 13 21  1  0
 14 13  2  0
 15 16  1  0
 16 17  2  0
 18 19  1  0
 18 16  1  0
 20 19  1  6
 20 22  1  0
 21 20  1  0
 22 24  2  0
 22 23  1  0
M  END
$$$$
