QAQ.pdb
     RDKit          3D

 24 23  0  0  1  0  0  0  0  0999 V2000
    9.4384  -13.3244   16.8501 N   0  0  0  0  0  0  0  0  0  0  0  0
    8.1109  -13.7695   16.6553 C   0  0  0  0  0  0  0  0  0  0  0  0
    7.7816  -14.1692   15.5127 O   0  0  0  0  0  0  0  0  0  0  0  0
    7.0991  -13.7865   17.7245 C   0  0  0  0  0  0  0  0  0  0  0  0
    7.6005  -13.4234   19.0724 C   0  0  0  0  0  0  0  0  0  0  0  0
    8.2809  -14.5034   19.8498 C   0  0  2  0  0  0  0  0  0  0  0  0
    7.3860  -15.6856   19.7159 N   0  0  0  0  0  0  0  0  0  0  0  0
    8.3499  -14.2355   21.3052 C   0  0  0  0  0  0  0  0  0  0  0  0
    8.9970  -13.2312   21.7666 O   0  0  0  0  0  0  0  0  0  0  0  0
    6.6418  -15.1890   24.4967 C   0  0  0  0  0  0  0  0  0  0  0  0
    7.8247  -14.6546   23.6837 C   0  0  2  0  0  0  0  0  0  0  0  0
    7.7100  -15.0544   22.3020 N   0  0  0  0  0  0  0  0  0  0  0  0
    9.0578  -15.1812   24.3114 C   0  0  0  0  0  0  0  0  0  0  0  0
    9.2684  -14.9882   25.5637 O   0  0  0  0  0  0  0  0  0  0  0  0
    9.9545  -19.6781   26.6144 N   0  0  0  0  0  0  0  0  0  0  0  0
   11.3513  -19.3676   26.7262 C   0  0  0  0  0  0  0  0  0  0  0  0
   12.1016  -20.0433   27.4618 O   0  0  0  0  0  0  0  0  0  0  0  0
   11.8617  -18.2244   25.9413 C   0  0  0  0  0  0  0  0  0  0  0  0
   10.7066  -17.5669   25.2399 C   0  0  0  0  0  0  0  0  0  0  0  0
   11.1918  -16.4427   24.3206 C   0  0  2  0  0  0  0  0  0  0  0  0
   10.0542  -15.9066   23.6128 N   0  0  0  0  0  0  0  0  0  0  0  0
   12.2296  -16.9456   23.3893 C   0  0  0  0  0  0  0  0  0  0  0  0
   13.4871  -17.2454   23.8775 O   0  0  0  0  0  0  0  0  0  0  0  0
   11.9693  -17.0975   22.1700 O   0  0  0  0  0  0  0  0  0  0  0  0
  2  3  2  0
  2  1  1  0
  4  2  1  0
  5  6  1  0
  5  4  1  0
  6  7  1  1
  8  6  1  0
  8  9  2  0
 11 10  1  1
 11 12  1  0
 11 13  1  0
 12  8  1  0
 13 21  1  0
 14 13  2  0
 15 16  1  0
 16 17  2  0
 18 19  1  0
 18 16  1  0
 20 19  1  1
 20 22  1  0
 21 20  1  0
 22 24  2  0
 22 23  1  0
M  END
$$$$
