QAQ.pdb
     RDKit          3D

 24 23  0  0  1  0  0  0  0  0999 V2000
   12.5779  -13.6904   20.2973 N   0  0  0  0  0  0  0  0  0  0  0  0
   11.8928  -13.6284   19.0622 C   0  0  0  0  0  0  0  0  0  0  0  0
   12.2328  -14.4259   18.1554 O   0  0  0  0  0  0  0  0  0  0  0  0
   10.8036  -12.6765   18.7890 C   0  0  0  0  0  0  0  0  0  0  0  0
    9.5529  -12.9148   19.5499 C   0  0  0  0  0  0  0  0  0  0  0  0
    8.8456  -14.2061   19.2933 C   0  0  2  0  0  0  0  0  0  0  0  0
    7.6771  -13.8349   18.4488 N   0  0  0  0  0  0  0  0  0  0  0  0
    8.2626  -14.8172   20.5104 C   0  0  0  0  0  0  0  0  0  0  0  0
    7.2072  -14.3378   21.0550 O   0  0  0  0  0  0  0  0  0  0  0  0
    8.3333  -17.9635   22.5060 C   0  0  0  0  0  0  0  0  0  0  0  0
    8.1593  -16.4484   22.3644 C   0  0  2  0  0  0  0  0  0  0  0  0
    8.8122  -15.9743   21.1681 N   0  0  0  0  0  0  0  0  0  0  0  0
    8.7239  -15.8294   23.5851 C   0  0  0  0  0  0  0  0  0  0  0  0
    9.9873  -15.6117   23.6637 O   0  0  0  0  0  0  0  0  0  0  0  0
    6.3781  -10.6137   26.4473 N   0  0  0  0  0  0  0  0  0  0  0  0
    6.2988  -12.0386   26.5998 C   0  0  0  0  0  0  0  0  0  0  0  0
    5.4443  -12.5567   27.3496 O   0  0  0  0  0  0  0  0  0  0  0  0
    7.2620  -12.8615   25.8393 C   0  0  0  0  0  0  0  0  0  0  0  0
    7.6229  -14.0659   26.6626 C   0  0  0  0  0  0  0  0  0  0  0  0
    8.5986  -14.9731   25.9081 C   0  0  2  0  0  0  0  0  0  0  0  0
    7.9505  -15.4452   24.7082 N   0  0  0  0  0  0  0  0  0  0  0  0
    9.0374  -16.0950   26.7717 C   0  0  0  0  0  0  0  0  0  0  0  0
    9.9589  -15.8560   27.7733 O   0  0  0  0  0  0  0  0  0  0  0  0
    8.5770  -17.2503   26.5954 O   0  0  0  0  0  0  0  0  0  0  0  0
  2  3  2  0
  2  1  1  0
  4  2  1  0
  5  6  1  0
  5  4  1  0
  6  7  1  6
  8  6  1  0
  8  9  2  0
 11 10  1  1
 11 12  1  0
 11 13  1  0
 12  8  1  0
 13 21  1  0
 14 13  2  0
 15 16  1  0
 16 17  2  0
 18 19  1  0
 18 16  1  0
 20 19  1  1
 20 22  1  0
 21 20  1  0
 22 24  2  0
 22 23  1  0
M  END
$$$$
