CEL.pdb
     RDKit          3D

 24 23  0  0  1  0  0  0  0  0999 V2000
   22.2451  -21.9428  -12.7778 N   0  0  0  0  0  0  0  0  0  0  0  0
   22.6809  -20.8347  -11.9928 C   0  0  1  0  0  0  0  0  0  0  0  0
   21.6652  -20.4726  -10.9521 C   0  0  0  0  0  0  0  0  0  0  0  0
   20.4286  -19.3613  -11.6753 S   0  0  0  0  0  0  0  0  0  0  0  0
   24.0248  -21.1036  -11.3797 C   0  0  0  0  0  0  0  0  0  0  0  0
   24.1838  -22.1400  -10.6927 O   0  0  0  0  0  0  0  0  0  0  0  0
   25.1113  -20.2200  -11.5573 N   0  0  0  0  0  0  0  0  0  0  0  0
   26.3928  -20.3161  -10.9447 C   0  0  1  0  0  0  0  0  0  0  0  0
   27.5738  -19.8721  -11.7669 C   0  0  0  0  0  0  0  0  0  0  0  0
   28.9080  -20.2734  -11.2498 C   0  0  0  0  0  0  0  0  0  0  0  0
   29.4703  -21.4059  -12.0637 C   0  0  0  0  0  0  0  0  0  0  0  0
   30.1955  -22.2562  -11.5266 O   0  0  0  0  0  0  0  0  0  0  0  0
   26.4501  -19.9538   -9.5293 C   0  0  0  0  0  0  0  0  0  0  0  0
   25.7684  -18.9386   -9.1452 O   0  0  0  0  0  0  0  0  0  0  0  0
   29.1705  -21.4830  -13.4009 O   0  0  0  0  0  0  0  0  0  0  0  0
   28.9808  -19.5807   -4.7379 C   0  0  0  0  0  0  0  0  0  0  0  0
   28.5938  -20.9893   -5.1060 C   0  0  2  0  0  0  0  0  0  0  0  0
   29.5207  -22.0321   -4.6006 C   0  0  0  0  0  0  0  0  0  0  0  0
   28.2622  -21.1266   -6.5382 C   0  0  0  0  0  0  0  0  0  0  0  0
   27.2766  -20.1726   -7.1390 C   0  0  2  0  0  0  0  0  0  0  0  0
   27.1911  -20.6282   -8.5577 N   0  0  0  0  0  0  0  0  0  0  0  0
   27.6665  -18.7786   -7.1916 C   0  0  0  0  0  0  0  0  0  0  0  0
   27.2791  -17.9816   -6.2731 O   0  0  0  0  0  0  0  0  0  0  0  0
   28.4573  -18.1765   -8.1712 O   0  0  0  0  0  0  0  0  0  0  0  0
  2  1  1  1
  2  3  1  0
  4  3  1  0
  5  7  1  0
  5  2  1  0
  6  5  2  0
  8 13  1  0
  8  7  1  0
  8  9  1  6
 10 11  1  0
 10  9  1  0
 11 12  2  0
 13 21  1  0
 14 13  2  0
 15 11  1  0
 17 16  1  6
 18 17  1  0
 20 19  1  1
 19 17  1  0
 20 22  1  0
 21 20  1  0
 22 23  2  0
 22 24  1  0
M  END
$$$$
