CEL.pdb
     RDKit          3D

 24 23  0  0  1  0  0  0  0  0999 V2000
   27.0293  -21.7883  -10.1637 N   0  0  0  0  0  0  0  0  0  0  0  0
   25.7607  -21.1368  -10.1823 C   0  0  1  0  0  0  0  0  0  0  0  0
   25.7836  -19.8786   -9.3686 C   0  0  0  0  0  0  0  0  0  0  0  0
   25.9846  -20.2959   -7.6157 S   0  0  0  0  0  0  0  0  0  0  0  0
   25.3104  -20.8733  -11.5901 C   0  0  0  0  0  0  0  0  0  0  0  0
   26.1678  -20.5942  -12.4610 O   0  0  0  0  0  0  0  0  0  0  0  0
   23.9484  -20.9318  -11.9565 N   0  0  0  0  0  0  0  0  0  0  0  0
   23.4115  -20.7463  -13.2619 C   0  0  1  0  0  0  0  0  0  0  0  0
   22.1191  -21.4545  -13.5719 C   0  0  0  0  0  0  0  0  0  0  0  0
   21.6068  -21.2864  -14.9567 C   0  0  0  0  0  0  0  0  0  0  0  0
   20.3197  -22.0425  -15.1383 C   0  0  0  0  0  0  0  0  0  0  0  0
   19.7221  -21.9993  -16.2238 O   0  0  0  0  0  0  0  0  0  0  0  0
   23.5271  -19.3962  -13.8114 C   0  0  0  0  0  0  0  0  0  0  0  0
   23.0214  -18.4316  -13.1357 O   0  0  0  0  0  0  0  0  0  0  0  0
   19.8203  -22.7758  -14.0910 O   0  0  0  0  0  0  0  0  0  0  0  0
   27.7524  -16.5431  -16.9043 C   0  0  0  0  0  0  0  0  0  0  0  0
   26.3251  -16.3855  -16.4485 C   0  0  2  0  0  0  0  0  0  0  0  0
   26.0692  -15.1648  -15.6445 C   0  0  0  0  0  0  0  0  0  0  0  0
   25.7856  -17.6217  -15.8479 C   0  0  0  0  0  0  0  0  0  0  0  0
   24.3335  -17.6662  -15.4851 C   0  0  2  0  0  0  0  0  0  0  0  0
   24.1473  -19.0718  -15.0189 N   0  0  0  0  0  0  0  0  0  0  0  0
   23.3853  -17.4757  -16.5635 C   0  0  0  0  0  0  0  0  0  0  0  0
   22.9480  -16.3040  -16.8176 O   0  0  0  0  0  0  0  0  0  0  0  0
   22.8732  -18.4681  -17.4004 O   0  0  0  0  0  0  0  0  0  0  0  0
  2  1  1  6
  2  3  1  0
  4  3  1  0
  5  7  1  0
  5  2  1  0
  6  5  2  0
  8 13  1  0
  8  7  1  0
  8  9  1  1
 10 11  1  0
 10  9  1  0
 11 12  2  0
 13 21  1  0
 14 13  2  0
 15 11  1  0
 17 16  1  1
 18 17  1  0
 20 19  1  6
 19 17  1  0
 20 22  1  0
 21 20  1  0
 22 23  2  0
 22 24  1  0
M  END
$$$$
