CEL.pdb
     RDKit          3D

 24 23  0  0  1  0  0  0  0  0999 V2000
   17.2935  -14.2256  -17.4794 N   0  0  0  0  0  0  0  0  0  0  0  0
   16.9219  -12.8569  -17.6299 C   0  0  1  0  0  0  0  0  0  0  0  0
   15.8226  -12.4845  -16.6818 C   0  0  0  0  0  0  0  0  0  0  0  0
   14.2321  -13.0387  -17.3529 S   0  0  0  0  0  0  0  0  0  0  0  0
   18.1118  -11.9547  -17.4739 C   0  0  0  0  0  0  0  0  0  0  0  0
   19.1156  -12.3738  -16.8509 O   0  0  0  0  0  0  0  0  0  0  0  0
   18.1281  -10.6490  -18.0102 N   0  0  0  0  0  0  0  0  0  0  0  0
   19.2180   -9.7335  -17.9834 C   0  0  1  0  0  0  0  0  0  0  0  0
   19.4058   -8.8651  -19.1992 C   0  0  0  0  0  0  0  0  0  0  0  0
   20.5615   -7.9318  -19.1538 C   0  0  0  0  0  0  0  0  0  0  0  0
   20.5963   -7.0750  -20.3890 C   0  0  0  0  0  0  0  0  0  0  0  0
   19.6208   -7.0482  -21.1539 O   0  0  0  0  0  0  0  0  0  0  0  0
   19.4603   -9.0703  -16.7029 C   0  0  0  0  0  0  0  0  0  0  0  0
   18.4409   -8.7373  -16.0011 O   0  0  0  0  0  0  0  0  0  0  0  0
   21.7170   -6.3284  -20.6547 O   0  0  0  0  0  0  0  0  0  0  0  0
   23.2367   -9.9948  -12.2906 C   0  0  0  0  0  0  0  0  0  0  0  0
   22.1811   -9.0202  -12.7439 C   0  0  2  0  0  0  0  0  0  0  0  0
   21.0372   -8.8765  -11.8096 C   0  0  0  0  0  0  0  0  0  0  0  0
   21.7826   -9.2345  -14.1494 C   0  0  0  0  0  0  0  0  0  0  0  0
   20.9184   -8.2071  -14.8126 C   0  0  2  0  0  0  0  0  0  0  0  0
   20.7191   -8.7692  -16.1808 N   0  0  0  0  0  0  0  0  0  0  0  0
   21.4963   -6.8925  -15.0027 C   0  0  0  0  0  0  0  0  0  0  0  0
   22.2264   -6.6678  -16.0251 O   0  0  0  0  0  0  0  0  0  0  0  0
   21.3375   -5.7891  -14.1632 O   0  0  0  0  0  0  0  0  0  0  0  0
  2  1  1  1
  2  3  1  0
  4  3  1  0
  5  7  1  0
  5  2  1  0
  6  5  2  0
  8 13  1  0
  8  7  1  0
  8  9  1  6
 10 11  1  0
 10  9  1  0
 11 12  2  0
 13 21  1  0
 14 13  2  0
 15 11  1  0
 17 16  1  1
 18 17  1  0
 20 19  1  1
 19 17  1  0
 20 22  1  0
 21 20  1  0
 22 23  2  0
 22 24  1  0
M  END
$$$$
