CEL.pdb
     RDKit          3D

 24 23  0  0  1  0  0  0  0  0999 V2000
   27.2172  -21.4134   -9.3252 N   0  0  0  0  0  0  0  0  0  0  0  0
   25.9245  -21.1041   -9.8424 C   0  0  1  0  0  0  0  0  0  0  0  0
   25.2964  -19.9684   -9.0930 C   0  0  0  0  0  0  0  0  0  0  0  0
   25.0090  -20.4648   -7.3731 S   0  0  0  0  0  0  0  0  0  0  0  0
   25.9863  -20.8233  -11.3161 C   0  0  0  0  0  0  0  0  0  0  0  0
   27.0158  -20.2885  -11.7909 O   0  0  0  0  0  0  0  0  0  0  0  0
   24.9160  -21.1458  -12.1781 N   0  0  0  0  0  0  0  0  0  0  0  0
   24.8902  -20.9939  -13.5934 C   0  0  1  0  0  0  0  0  0  0  0  0
   24.3499  -22.1513  -14.3911 C   0  0  0  0  0  0  0  0  0  0  0  0
   24.8003  -23.4998  -13.9586 C   0  0  0  0  0  0  0  0  0  0  0  0
   24.2603  -24.5574  -14.8811 C   0  0  0  0  0  0  0  0  0  0  0  0
   25.0155  -25.4296  -15.3353 O   0  0  0  0  0  0  0  0  0  0  0  0
   24.5101  -19.6700  -14.0843 C   0  0  0  0  0  0  0  0  0  0  0  0
   23.5591  -19.0597  -13.4794 O   0  0  0  0  0  0  0  0  0  0  0  0
   22.9279  -24.5421  -15.2103 O   0  0  0  0  0  0  0  0  0  0  0  0
   24.7250  -15.0547  -16.6883 C   0  0  0  0  0  0  0  0  0  0  0  0
   25.9964  -15.4772  -15.9994 C   0  0  2  0  0  0  0  0  0  0  0  0
   27.2381  -15.0009  -16.6576 C   0  0  0  0  0  0  0  0  0  0  0  0
   26.0076  -16.9166  -15.6706 C   0  0  0  0  0  0  0  0  0  0  0  0
   24.7012  -17.6455  -15.6039 C   0  0  2  0  0  0  0  0  0  0  0  0
   25.1030  -19.0140  -15.1642 N   0  0  0  0  0  0  0  0  0  0  0  0
   23.9879  -17.8219  -16.8522 C   0  0  0  0  0  0  0  0  0  0  0  0
   24.3779  -18.7119  -17.6796 O   0  0  0  0  0  0  0  0  0  0  0  0
   22.8687  -17.1034  -17.2748 O   0  0  0  0  0  0  0  0  0  0  0  0
  2  1  1  1
  2  3  1  0
  4  3  1  0
  5  7  1  0
  5  2  1  0
  6  5  2  0
  8 13  1  0
  8  7  1  0
  8  9  1  6
 10 11  1  0
 10  9  1  0
 11 12  2  0
 13 21  1  0
 14 13  2  0
 15 11  1  0
 17 16  1  6
 18 17  1  0
 20 19  1  6
 19 17  1  0
 20 22  1  0
 21 20  1  0
 22 23  2  0
 22 24  1  0
M  END
$$$$
