CEL.pdb
     RDKit          3D

 24 23  0  0  1  0  0  0  0  0999 V2000
   16.0571  -14.0663  -16.7288 N   0  0  0  0  0  0  0  0  0  0  0  0
   15.7928  -12.7148  -16.3576 C   0  0  1  0  0  0  0  0  0  0  0  0
   15.3828  -12.6162  -14.9195 C   0  0  0  0  0  0  0  0  0  0  0  0
   13.7298  -13.3314  -14.7118 S   0  0  0  0  0  0  0  0  0  0  0  0
   16.9714  -11.8335  -16.6551 C   0  0  0  0  0  0  0  0  0  0  0  0
   18.1223  -12.2391  -16.3681 O   0  0  0  0  0  0  0  0  0  0  0  0
   16.8158  -10.5623  -17.2488 N   0  0  0  0  0  0  0  0  0  0  0  0
   17.8548   -9.6477  -17.5818 C   0  0  1  0  0  0  0  0  0  0  0  0
   17.5365   -8.6078  -18.6234 C   0  0  0  0  0  0  0  0  0  0  0  0
   18.6668   -7.7317  -19.0277 C   0  0  0  0  0  0  0  0  0  0  0  0
   18.1937   -6.6633  -19.9742 C   0  0  0  0  0  0  0  0  0  0  0  0
   18.4005   -5.4685  -19.7152 O   0  0  0  0  0  0  0  0  0  0  0  0
   18.6704   -9.1769  -16.4632 C   0  0  0  0  0  0  0  0  0  0  0  0
   18.0715   -8.8917  -15.3665 O   0  0  0  0  0  0  0  0  0  0  0  0
   17.5339   -7.0288  -21.1209 O   0  0  0  0  0  0  0  0  0  0  0  0
   24.1869  -10.3900  -14.4828 C   0  0  0  0  0  0  0  0  0  0  0  0
   23.0163   -9.4708  -14.2494 C   0  0  2  0  0  0  0  0  0  0  0  0
   22.4362   -9.5503  -12.8859 C   0  0  0  0  0  0  0  0  0  0  0  0
   22.0146   -9.5483  -15.3314 C   0  0  0  0  0  0  0  0  0  0  0  0
   20.8528   -8.6041  -15.2997 C   0  0  2  0  0  0  0  0  0  0  0  0
   20.0561   -9.0126  -16.4938 N   0  0  0  0  0  0  0  0  0  0  0  0
   21.1496   -7.1980  -15.4813 C   0  0  0  0  0  0  0  0  0  0  0  0
   21.3464   -6.7430  -16.6574 O   0  0  0  0  0  0  0  0  0  0  0  0
   21.2451   -6.2354  -14.4754 O   0  0  0  0  0  0  0  0  0  0  0  0
  2  1  1  1
  2  3  1  0
  4  3  1  0
  5  7  1  0
  5  2  1  0
  6  5  2  0
  8 13  1  0
  8  7  1  0
  8  9  1  1
 10 11  1  0
 10  9  1  0
 11 12  2  0
 13 21  1  0
 14 13  2  0
 15 11  1  0
 17 16  1  6
 18 17  1  0
 20 19  1  6
 19 17  1  0
 20 22  1  0
 21 20  1  0
 22 23  2  0
 22 24  1  0
M  END
$$$$
