CEL.pdb
     RDKit          3D

 24 23  0  0  1  0  0  0  0  0999 V2000
   16.6621  -11.7284  -17.7251 N   0  0  0  0  0  0  0  0  0  0  0  0
   16.3923  -10.9656  -16.5506 C   0  0  1  0  0  0  0  0  0  0  0  0
   16.4581  -11.8195  -15.3207 C   0  0  0  0  0  0  0  0  0  0  0  0
   14.9531  -12.8234  -15.2008 S   0  0  0  0  0  0  0  0  0  0  0  0
   17.3146   -9.7851  -16.4505 C   0  0  0  0  0  0  0  0  0  0  0  0
   18.5198   -9.9262  -16.7651 O   0  0  0  0  0  0  0  0  0  0  0  0
   16.8591   -8.5231  -16.0118 N   0  0  0  0  0  0  0  0  0  0  0  0
   17.6440   -7.3464  -15.8498 C   0  0  1  0  0  0  0  0  0  0  0  0
   16.8998   -6.0401  -15.7629 C   0  0  0  0  0  0  0  0  0  0  0  0
   17.7435   -4.8171  -15.7321 C   0  0  0  0  0  0  0  0  0  0  0  0
   16.8843   -3.5853  -15.6574 C   0  0  0  0  0  0  0  0  0  0  0  0
   16.3421   -3.1435  -16.6813 O   0  0  0  0  0  0  0  0  0  0  0  0
   18.7937   -7.4669  -14.9545 C   0  0  0  0  0  0  0  0  0  0  0  0
   18.6069   -8.0224  -13.8147 O   0  0  0  0  0  0  0  0  0  0  0  0
   16.7111   -2.9620  -14.4469 O   0  0  0  0  0  0  0  0  0  0  0  0
   23.9445   -9.8598  -15.0906 C   0  0  0  0  0  0  0  0  0  0  0  0
   23.1507   -8.9153  -14.2260 C   0  0  2  0  0  0  0  0  0  0  0  0
   22.8876   -9.4145  -12.8535 C   0  0  0  0  0  0  0  0  0  0  0  0
   21.9523   -8.3944  -14.9133 C   0  0  0  0  0  0  0  0  0  0  0  0
   21.2385   -7.2211  -14.3165 C   0  0  2  0  0  0  0  0  0  0  0  0
   20.0853   -7.0234  -15.2430 N   0  0  0  0  0  0  0  0  0  0  0  0
   21.9546   -5.9621  -14.2980 C   0  0  0  0  0  0  0  0  0  0  0  0
   21.9800   -5.2370  -15.3480 O   0  0  0  0  0  0  0  0  0  0  0  0
   22.6484   -5.4201  -13.2153 O   0  0  0  0  0  0  0  0  0  0  0  0
  2  1  1  6
  2  3  1  0
  4  3  1  0
  5  7  1  0
  5  2  1  0
  6  5  2  0
  8 13  1  0
  8  7  1  0
  8  9  1  1
 10 11  1  0
 10  9  1  0
 11 12  2  0
 13 21  1  0
 14 13  2  0
 15 11  1  0
 17 16  1  6
 18 17  1  0
 20 19  1  6
 19 17  1  0
 20 22  1  0
 21 20  1  0
 22 23  2  0
 22 24  1  0
M  END
$$$$
