CEL.pdb
     RDKit          3D

 24 23  0  0  1  0  0  0  0  0999 V2000
   16.3918  -13.9279  -13.9632 N   0  0  0  0  0  0  0  0  0  0  0  0
   15.4678  -12.8455  -14.0568 C   0  0  1  0  0  0  0  0  0  0  0  0
   14.1783  -13.1701  -13.3656 C   0  0  0  0  0  0  0  0  0  0  0  0
   13.1323  -14.1567  -14.4700 S   0  0  0  0  0  0  0  0  0  0  0  0
   16.0700  -11.5753  -13.5294 C   0  0  0  0  0  0  0  0  0  0  0  0
   16.4915  -11.5460  -12.3492 O   0  0  0  0  0  0  0  0  0  0  0  0
   16.1730  -10.4158  -14.3280 N   0  0  0  0  0  0  0  0  0  0  0  0
   16.7002   -9.1547  -13.9299 C   0  0  1  0  0  0  0  0  0  0  0  0
   17.5047   -8.4004  -14.9554 C   0  0  0  0  0  0  0  0  0  0  0  0
   18.0639   -7.0986  -14.5073 C   0  0  0  0  0  0  0  0  0  0  0  0
   19.3884   -7.3004  -13.8246 C   0  0  0  0  0  0  0  0  0  0  0  0
   20.1149   -8.2519  -14.1478 O   0  0  0  0  0  0  0  0  0  0  0  0
   15.8212   -8.3306  -13.1014 C   0  0  0  0  0  0  0  0  0  0  0  0
   14.5877   -8.2477  -13.4394 O   0  0  0  0  0  0  0  0  0  0  0  0
   19.7778   -6.4214  -12.8449 O   0  0  0  0  0  0  0  0  0  0  0  0
   15.4458   -6.9415   -7.2921 C   0  0  0  0  0  0  0  0  0  0  0  0
   14.8049   -6.6819   -8.6305 C   0  0  2  0  0  0  0  0  0  0  0  0
   13.3492   -6.9658   -8.6790 C   0  0  0  0  0  0  0  0  0  0  0  0
   15.5681   -7.2770   -9.7456 C   0  0  0  0  0  0  0  0  0  0  0  0
   15.2761   -6.8145  -11.1396 C   0  0  2  0  0  0  0  0  0  0  0  0
   16.2195   -7.6236  -11.9659 N   0  0  0  0  0  0  0  0  0  0  0  0
   15.5698   -5.4287  -11.4424 C   0  0  0  0  0  0  0  0  0  0  0  0
   16.7305   -5.1093  -11.8658 O   0  0  0  0  0  0  0  0  0  0  0  0
   14.6904   -4.3515  -11.3253 O   0  0  0  0  0  0  0  0  0  0  0  0
  2  1  1  1
  2  3  1  0
  4  3  1  0
  5  7  1  0
  5  2  1  0
  6  5  2  0
  8 13  1  0
  8  7  1  0
  8  9  1  6
 10 11  1  0
 10  9  1  0
 11 12  2  0
 13 21  1  0
 14 13  2  0
 15 11  1  0
 17 16  1  1
 18 17  1  0
 20 19  1  1
 19 17  1  0
 20 22  1  0
 21 20  1  0
 22 23  2  0
 22 24  1  0
M  END
$$$$
