CEL.pdb
     RDKit          3D

 24 23  0  0  1  0  0  0  0  0999 V2000
   26.9379  -17.9456  -17.2729 N   0  0  0  0  0  0  0  0  0  0  0  0
   27.5055  -18.6377  -16.1624 C   0  0  1  0  0  0  0  0  0  0  0  0
   28.8479  -18.0779  -15.8013 C   0  0  0  0  0  0  0  0  0  0  0  0
   29.7593  -17.6693  -17.3144 S   0  0  0  0  0  0  0  0  0  0  0  0
   26.5715  -18.6288  -14.9869 C   0  0  0  0  0  0  0  0  0  0  0  0
   26.1611  -17.5302  -14.5442 O   0  0  0  0  0  0  0  0  0  0  0  0
   26.1452  -19.8244  -14.3692 N   0  0  0  0  0  0  0  0  0  0  0  0
   25.2206  -19.9412  -13.2930 C   0  0  1  0  0  0  0  0  0  0  0  0
   23.8077  -20.3211  -13.6494 C   0  0  0  0  0  0  0  0  0  0  0  0
   22.8776  -20.4963  -12.5037 C   0  0  0  0  0  0  0  0  0  0  0  0
   21.5351  -20.9755  -12.9826 C   0  0  0  0  0  0  0  0  0  0  0  0
   21.4363  -22.0667  -13.5632 O   0  0  0  0  0  0  0  0  0  0  0  0
   25.7399  -20.5561  -12.0722 C   0  0  0  0  0  0  0  0  0  0  0  0
   26.2300  -21.7371  -12.1608 O   0  0  0  0  0  0  0  0  0  0  0  0
   20.4289  -20.1917  -12.7687 O   0  0  0  0  0  0  0  0  0  0  0  0
   27.6535  -18.6364   -6.6253 C   0  0  0  0  0  0  0  0  0  0  0  0
   27.3311  -19.8734   -7.4226 C   0  0  2  0  0  0  0  0  0  0  0  0
   28.3999  -20.9027   -7.4169 C   0  0  0  0  0  0  0  0  0  0  0  0
   26.8119  -19.5571   -8.7681 C   0  0  0  0  0  0  0  0  0  0  0  0
   26.2066  -20.6610   -9.5790 C   0  0  2  0  0  0  0  0  0  0  0  0
   25.7450  -19.9571  -10.8116 N   0  0  0  0  0  0  0  0  0  0  0  0
   25.0340  -21.3083   -9.0276 C   0  0  0  0  0  0  0  0  0  0  0  0
   25.1741  -22.3286   -8.2738 O   0  0  0  0  0  0  0  0  0  0  0  0
   23.7066  -20.9272   -9.2284 O   0  0  0  0  0  0  0  0  0  0  0  0
  2  1  1  6
  2  3  1  0
  4  3  1  0
  5  7  1  0
  5  2  1  0
  6  5  2  0
  8 13  1  0
  8  7  1  0
  8  9  1  6
 10 11  1  0
 10  9  1  0
 11 12  2  0
 13 21  1  0
 14 13  2  0
 15 11  1  0
 17 16  1  6
 18 17  1  0
 20 19  1  1
 19 17  1  0
 20 22  1  0
 21 20  1  0
 22 23  2  0
 22 24  1  0
M  END
$$$$
