CEL.pdb
     RDKit          3D

 24 23  0  0  1  0  0  0  0  0999 V2000
   17.3787  -14.7658  -17.8592 N   0  0  0  0  0  0  0  0  0  0  0  0
   16.8721  -13.4520  -17.6320 C   0  0  1  0  0  0  0  0  0  0  0  0
   16.1039  -13.3802  -16.3472 C   0  0  0  0  0  0  0  0  0  0  0  0
   14.5430  -14.2853  -16.5250 S   0  0  0  0  0  0  0  0  0  0  0  0
   17.9754  -12.4345  -17.6706 C   0  0  0  0  0  0  0  0  0  0  0  0
   19.1127  -12.7538  -17.2509 O   0  0  0  0  0  0  0  0  0  0  0  0
   17.7642  -11.1299  -18.1668 N   0  0  0  0  0  0  0  0  0  0  0  0
   18.7275  -10.0844  -18.2438 C   0  0  1  0  0  0  0  0  0  0  0  0
   18.5222   -9.0493  -19.3181 C   0  0  0  0  0  0  0  0  0  0  0  0
   19.6483   -8.1022  -19.5258 C   0  0  0  0  0  0  0  0  0  0  0  0
   19.2649   -7.0353  -20.5137 C   0  0  0  0  0  0  0  0  0  0  0  0
   18.7699   -7.3498  -21.6062 O   0  0  0  0  0  0  0  0  0  0  0  0
   19.2054   -9.5643  -16.9635 C   0  0  0  0  0  0  0  0  0  0  0  0
   18.3630   -9.4814  -16.0012 O   0  0  0  0  0  0  0  0  0  0  0  0
   19.4702   -5.7175  -20.1896 O   0  0  0  0  0  0  0  0  0  0  0  0
   22.0807   -9.6461  -12.5734 C   0  0  0  0  0  0  0  0  0  0  0  0
   22.8879   -9.5030  -13.8374 C   0  0  2  0  0  0  0  0  0  0  0  0
   23.7466   -8.2936  -13.8832 C   0  0  0  0  0  0  0  0  0  0  0  0
   22.0734   -9.7050  -15.0521 C   0  0  0  0  0  0  0  0  0  0  0  0
   20.9777   -8.7286  -15.3494 C   0  0  2  0  0  0  0  0  0  0  0  0
   20.5124   -9.1490  -16.7038 N   0  0  0  0  0  0  0  0  0  0  0  0
   21.3597   -7.3370  -15.4740 C   0  0  0  0  0  0  0  0  0  0  0  0
   21.3117   -6.5769  -14.4499 O   0  0  0  0  0  0  0  0  0  0  0  0
   21.8000   -6.7002  -16.6351 O   0  0  0  0  0  0  0  0  0  0  0  0
  2  1  1  1
  2  3  1  0
  4  3  1  0
  5  7  1  0
  5  2  1  0
  6  5  2  0
  8 13  1  0
  8  7  1  0
  8  9  1  6
 10 11  1  0
 10  9  1  0
 11 12  2  0
 13 21  1  0
 14 13  2  0
 15 11  1  0
 17 16  1  1
 18 17  1  0
 20 19  1  6
 19 17  1  0
 20 22  1  0
 21 20  1  0
 22 23  2  0
 22 24  1  0
M  END
$$$$
