CEL.pdb
     RDKit          3D

 24 23  0  0  1  0  0  0  0  0999 V2000
   15.1703  -14.8811  -15.1008 N   0  0  0  0  0  0  0  0  0  0  0  0
   14.9480  -13.5462  -15.5511 C   0  0  1  0  0  0  0  0  0  0  0  0
   13.6659  -12.9947  -15.0053 C   0  0  0  0  0  0  0  0  0  0  0  0
   12.2666  -13.7116  -15.9081 S   0  0  0  0  0  0  0  0  0  0  0  0
   16.1142  -12.6624  -15.2150 C   0  0  0  0  0  0  0  0  0  0  0  0
   16.4261  -12.4979  -14.0120 O   0  0  0  0  0  0  0  0  0  0  0  0
   16.8665  -12.0136  -16.2179 N   0  0  0  0  0  0  0  0  0  0  0  0
   17.9426  -11.1034  -16.0170 C   0  0  1  0  0  0  0  0  0  0  0  0
   19.3116  -11.5657  -16.4413 C   0  0  0  0  0  0  0  0  0  0  0  0
   19.4973  -13.0375  -16.5297 C   0  0  0  0  0  0  0  0  0  0  0  0
   20.8849  -13.3663  -17.0068 C   0  0  0  0  0  0  0  0  0  0  0  0
   21.5151  -14.2995  -16.4878 O   0  0  0  0  0  0  0  0  0  0  0  0
   17.6478   -9.6984  -16.2949 C   0  0  0  0  0  0  0  0  0  0  0  0
   16.8816   -9.4346  -17.2879 O   0  0  0  0  0  0  0  0  0  0  0  0
   21.4390  -12.6224  -18.0185 O   0  0  0  0  0  0  0  0  0  0  0  0
   16.4187   -5.0595  -17.1323 C   0  0  0  0  0  0  0  0  0  0  0  0
   15.7704   -5.7434  -15.9568 C   0  0  2  0  0  0  0  0  0  0  0  0
   15.5405   -4.8625  -14.7849 C   0  0  0  0  0  0  0  0  0  0  0  0
   16.4202   -7.0265  -15.6227 C   0  0  0  0  0  0  0  0  0  0  0  0
   17.8744   -7.1953  -15.9376 C   0  0  2  0  0  0  0  0  0  0  0  0
   18.1361   -8.6158  -15.5617 N   0  0  0  0  0  0  0  0  0  0  0  0
   18.8062   -6.4008  -15.1638 C   0  0  0  0  0  0  0  0  0  0  0  0
   19.1927   -6.8189  -14.0216 O   0  0  0  0  0  0  0  0  0  0  0  0
   19.3615   -5.1769  -15.5396 O   0  0  0  0  0  0  0  0  0  0  0  0
  2  1  1  1
  2  3  1  0
  4  3  1  0
  5  7  1  0
  5  2  1  0
  6  5  2  0
  8 13  1  0
  8  7  1  0
  8  9  1  6
 10 11  1  0
 10  9  1  0
 11 12  2  0
 13 21  1  0
 14 13  2  0
 15 11  1  0
 17 16  1  6
 18 17  1  0
 20 19  1  1
 19 17  1  0
 20 22  1  0
 21 20  1  0
 22 23  2  0
 22 24  1  0
M  END
$$$$
