CEL.pdb
     RDKit          3D

 24 23  0  0  1  0  0  0  0  0999 V2000
   15.3798  -12.2817  -18.1959 N   0  0  0  0  0  0  0  0  0  0  0  0
   15.2549  -11.1635  -17.3194 C   0  0  1  0  0  0  0  0  0  0  0  0
   14.8585  -11.5954  -15.9402 C   0  0  0  0  0  0  0  0  0  0  0  0
   13.1062  -12.0609  -15.9329 S   0  0  0  0  0  0  0  0  0  0  0  0
   16.5168  -10.3503  -17.2996 C   0  0  0  0  0  0  0  0  0  0  0  0
   17.6196  -10.9353  -17.4137 O   0  0  0  0  0  0  0  0  0  0  0  0
   16.4921   -8.9462  -17.1560 N   0  0  0  0  0  0  0  0  0  0  0  0
   17.6147   -8.0708  -17.1752 C   0  0  1  0  0  0  0  0  0  0  0  0
   17.3671   -6.6584  -17.6353 C   0  0  0  0  0  0  0  0  0  0  0  0
   18.5724   -5.7973  -17.7539 C   0  0  0  0  0  0  0  0  0  0  0  0
   18.1878   -4.4074  -18.1797 C   0  0  0  0  0  0  0  0  0  0  0  0
   17.9742   -3.5334  -17.3265 O   0  0  0  0  0  0  0  0  0  0  0  0
   18.5452   -8.2050  -16.0552 C   0  0  0  0  0  0  0  0  0  0  0  0
   18.0530   -8.2507  -14.8727 O   0  0  0  0  0  0  0  0  0  0  0  0
   18.0777   -4.1233  -19.5180 O   0  0  0  0  0  0  0  0  0  0  0  0
   23.7736  -10.9195  -15.0115 C   0  0  0  0  0  0  0  0  0  0  0  0
   22.7827   -9.9566  -14.4112 C   0  0  2  0  0  0  0  0  0  0  0  0
   22.1944  -10.4044  -13.1246 C   0  0  0  0  0  0  0  0  0  0  0  0
   21.7857   -9.4881  -15.3943 C   0  0  0  0  0  0  0  0  0  0  0  0
   20.8425   -8.3967  -14.9922 C   0  0  2  0  0  0  0  0  0  0  0  0
   19.9336   -8.2879  -16.1710 N   0  0  0  0  0  0  0  0  0  0  0  0
   21.4120   -7.0779  -14.8058 C   0  0  0  0  0  0  0  0  0  0  0  0
   21.6467   -6.6548  -13.6248 O   0  0  0  0  0  0  0  0  0  0  0  0
   21.7556   -6.1747  -15.8126 O   0  0  0  0  0  0  0  0  0  0  0  0
  2  1  1  6
  2  3  1  0
  4  3  1  0
  5  7  1  0
  5  2  1  0
  6  5  2  0
  8 13  1  0
  8  7  1  0
  8  9  1  1
 10 11  1  0
 10  9  1  0
 11 12  2  0
 13 21  1  0
 14 13  2  0
 15 11  1  0
 17 16  1  6
 18 17  1  0
 20 19  1  6
 19 17  1  0
 20 22  1  0
 21 20  1  0
 22 23  2  0
 22 24  1  0
M  END
$$$$
