TQY.pdb
     RDKit          3D

 29 29  0  0  1  0  0  0  0  0999 V2000
    4.6203  -19.0609   22.8390 C   0  0  0  0  0  0  0  0  0  0  0  0
    5.9875  -18.4127   22.8429 C   0  0  1  0  0  0  0  0  0  0  0  0
    6.8217  -19.0258   23.7637 O   0  0  0  0  0  0  0  0  0  0  0  0
    6.5946  -18.5013   21.4702 C   0  0  2  0  0  0  0  0  0  0  0  0
    6.6895  -19.8741   21.0294 N   0  0  0  0  0  0  0  0  0  0  0  0
    7.9622  -17.9363   21.4653 C   0  0  0  0  0  0  0  0  0  0  0  0
    9.0022  -18.6466   21.4687 O   0  0  0  0  0  0  0  0  0  0  0  0
    8.0507  -12.4334   19.3760 N   0  0  0  0  0  0  0  0  0  0  0  0
    8.1818  -13.6453   18.6162 C   0  0  0  0  0  0  0  0  0  0  0  0
    7.6519  -13.7424   17.4845 O   0  0  0  0  0  0  0  0  0  0  0  0
    8.9386  -14.7807   19.1574 C   0  0  0  0  0  0  0  0  0  0  0  0
    9.3253  -14.6604   20.5835 C   0  0  0  0  0  0  0  0  0  0  0  0
    9.4962  -15.9711   21.3139 C   0  0  2  0  0  0  0  0  0  0  0  0
    8.1522  -16.5228   21.4564 N   0  0  0  0  0  0  0  0  0  0  0  0
   10.1026  -15.6649   22.6141 C   0  0  0  0  0  0  0  0  0  0  0  0
   11.1626  -15.0144   22.6739 O   0  0  0  0  0  0  0  0  0  0  0  0
    5.3051  -12.2412   27.1021 O   0  0  0  0  0  0  0  0  0  0  0  0
    6.5147  -12.8122   26.7053 C   0  0  0  0  0  0  0  0  0  0  0  0
    7.6773  -12.5784   27.4063 C   0  0  0  0  0  0  0  0  0  0  0  0
    8.8757  -13.1355   27.0253 C   0  0  0  0  0  0  0  0  0  0  0  0
    8.9594  -13.9649   25.9058 C   0  0  0  0  0  0  0  0  0  0  0  0
   10.2505  -14.5439   25.5053 C   0  0  0  0  0  0  0  0  0  0  0  0
   10.1365  -15.9983   25.1142 C   0  0  2  0  0  0  0  0  0  0  0  0
    9.4925  -16.1032   23.8058 N   0  0  0  0  0  0  0  0  0  0  0  0
    9.3751  -16.7610   26.1137 C   0  0  0  0  0  0  0  0  0  0  0  0
    9.8904  -16.8904   27.4153 O   0  0  0  0  0  0  0  0  0  0  0  0
    7.7814  -14.1845   25.2188 C   0  0  0  0  0  0  0  0  0  0  0  0
    6.5773  -13.6198   25.6087 C   0  0  0  0  0  0  0  0  0  0  0  0
    8.2864  -17.3190   25.9103 O   0  0  0  0  0  0  0  0  0  0  0  0
  2  1  1  6
  2  3  1  0
  4  2  1  0
  4  5  1  1
  6  7  2  0
  6  4  1  0
  9  8  1  0
 10  9  2  0
 11  9  1  0
 12 11  1  0
 13 12  1  6
 13 14  1  0
 14  6  1  0
 15 24  1  0
 15 13  1  0
 16 15  2  0
 18 19  2  0
 18 17  1  0
 20 19  1  0
 21 20  2  0
 22 21  1  0
 23 24  1  0
 23 22  1  1
 25 23  1  0
 26 25  1  0
 27 21  1  0
 27 28  2  0
 28 18  1  0
 29 25  2  0
M  END
$$$$
