TQY.pdb
     RDKit          3D

 29 29  0  0  1  0  0  0  0  0999 V2000
    9.1246  -12.6862   20.9130 C   0  0  0  0  0  0  0  0  0  0  0  0
    8.0267  -13.2096   20.0131 C   0  0  1  0  0  0  0  0  0  0  0  0
    7.8391  -12.3723   18.9253 O   0  0  0  0  0  0  0  0  0  0  0  0
    8.3781  -14.5913   19.5354 C   0  0  2  0  0  0  0  0  0  0  0  0
    7.4170  -15.0689   18.5679 N   0  0  0  0  0  0  0  0  0  0  0  0
    8.3875  -15.5485   20.6637 C   0  0  0  0  0  0  0  0  0  0  0  0
    7.3578  -16.1528   21.0645 O   0  0  0  0  0  0  0  0  0  0  0  0
   12.9465  -19.4796   21.3345 N   0  0  0  0  0  0  0  0  0  0  0  0
   11.8310  -19.3754   20.4355 C   0  0  0  0  0  0  0  0  0  0  0  0
   11.8334  -20.0015   19.3497 O   0  0  0  0  0  0  0  0  0  0  0  0
   10.6774  -18.5359   20.7807 C   0  0  0  0  0  0  0  0  0  0  0  0
   10.8226  -17.7427   22.0247 C   0  0  0  0  0  0  0  0  0  0  0  0
    9.6376  -16.8735   22.3725 C   0  0  2  0  0  0  0  0  0  0  0  0
    9.6032  -15.8264   21.3560 N   0  0  0  0  0  0  0  0  0  0  0  0
    9.8810  -16.3276   23.7122 C   0  0  0  0  0  0  0  0  0  0  0  0
   10.7908  -15.4975   23.8952 O   0  0  0  0  0  0  0  0  0  0  0  0
    5.9456  -10.7641   25.5105 O   0  0  0  0  0  0  0  0  0  0  0  0
    6.4200  -12.0400   25.8165 C   0  0  0  0  0  0  0  0  0  0  0  0
    7.4213  -12.2246   26.7445 C   0  0  0  0  0  0  0  0  0  0  0  0
    7.8973  -13.4771   27.0549 C   0  0  0  0  0  0  0  0  0  0  0  0
    7.3798  -14.6165   26.4367 C   0  0  0  0  0  0  0  0  0  0  0  0
    7.9074  -15.9477   26.7717 C   0  0  0  0  0  0  0  0  0  0  0  0
    9.2614  -16.2061   26.1544 C   0  0  2  0  0  0  0  0  0  0  0  0
    9.0889  -16.7366   24.8030 N   0  0  0  0  0  0  0  0  0  0  0  0
   10.0480  -17.1441   26.9678 C   0  0  0  0  0  0  0  0  0  0  0  0
   10.4469  -18.3699   26.4069 O   0  0  0  0  0  0  0  0  0  0  0  0
    6.3774  -14.4067   25.5099 C   0  0  0  0  0  0  0  0  0  0  0  0
    5.9026  -13.1416   25.2022 C   0  0  0  0  0  0  0  0  0  0  0  0
   10.4043  -16.9497   28.1398 O   0  0  0  0  0  0  0  0  0  0  0  0
  2  1  1  1
  2  3  1  0
  4  2  1  0
  4  5  1  6
  6  7  2  0
  6  4  1  0
  9  8  1  0
 10  9  2  0
 11  9  1  0
 12 11  1  0
 13 12  1  6
 13 14  1  0
 14  6  1  0
 15 24  1  0
 15 13  1  0
 16 15  2  0
 18 19  2  0
 18 17  1  0
 20 19  1  0
 21 20  2  0
 22 21  1  0
 23 24  1  0
 23 22  1  1
 25 23  1  0
 26 25  1  0
 27 21  1  0
 27 28  2  0
 28 18  1  0
 29 25  2  0
M  END
$$$$
