TQY.pdb
     RDKit          3D

 29 29  0  0  1  0  0  0  0  0999 V2000
    7.4902  -12.3649   19.9006 C   0  0  0  0  0  0  0  0  0  0  0  0
    7.9906  -13.5715   19.1369 C   0  0  1  0  0  0  0  0  0  0  0  0
    8.6303  -13.1863   17.9698 O   0  0  0  0  0  0  0  0  0  0  0  0
    8.9376  -14.3600   19.9984 C   0  0  2  0  0  0  0  0  0  0  0  0
    9.5278  -15.4527   19.2599 N   0  0  0  0  0  0  0  0  0  0  0  0
    8.2287  -14.9394   21.1608 C   0  0  0  0  0  0  0  0  0  0  0  0
    7.5654  -14.2487   21.9789 O   0  0  0  0  0  0  0  0  0  0  0  0
    7.2348  -21.0542   21.3066 N   0  0  0  0  0  0  0  0  0  0  0  0
    6.5075  -20.0559   20.5734 C   0  0  0  0  0  0  0  0  0  0  0  0
    5.8069  -20.3814   19.5864 O   0  0  0  0  0  0  0  0  0  0  0  0
    6.5770  -18.6453   20.9740 C   0  0  0  0  0  0  0  0  0  0  0  0
    7.3603  -18.3752   22.2033 C   0  0  0  0  0  0  0  0  0  0  0  0
    7.5525  -16.9140   22.5326 C   0  0  2  0  0  0  0  0  0  0  0  0
    8.2755  -16.3448   21.3994 N   0  0  0  0  0  0  0  0  0  0  0  0
    8.3372  -16.8499   23.7704 C   0  0  0  0  0  0  0  0  0  0  0  0
    9.5783  -16.9427   23.7313 O   0  0  0  0  0  0  0  0  0  0  0  0
    6.2399  -10.4841   25.5196 O   0  0  0  0  0  0  0  0  0  0  0  0
    6.5705  -11.7728   25.9399 C   0  0  0  0  0  0  0  0  0  0  0  0
    5.5943  -12.6908   26.2592 C   0  0  0  0  0  0  0  0  0  0  0  0
    5.9074  -13.9641   26.6745 C   0  0  0  0  0  0  0  0  0  0  0  0
    7.2359  -14.3768   26.7890 C   0  0  0  0  0  0  0  0  0  0  0  0
    7.5540  -15.7381   27.2451 C   0  0  0  0  0  0  0  0  0  0  0  0
    8.4248  -16.4884   26.2653 C   0  0  2  0  0  0  0  0  0  0  0  0
    7.6954  -16.6831   25.0132 N   0  0  0  0  0  0  0  0  0  0  0  0
    8.8451  -17.7867   26.8111 C   0  0  0  0  0  0  0  0  0  0  0  0
    9.8016  -17.8199   27.8410 O   0  0  0  0  0  0  0  0  0  0  0  0
    8.1968  -13.4394   26.4639 C   0  0  0  0  0  0  0  0  0  0  0  0
    7.8739  -12.1581   26.0459 C   0  0  0  0  0  0  0  0  0  0  0  0
    8.4220  -18.8908   26.4368 O   0  0  0  0  0  0  0  0  0  0  0  0
  2  1  1  1
  2  3  1  0
  4  2  1  0
  4  5  1  6
  6  7  2  0
  6  4  1  0
  9  8  1  0
 10  9  2  0
 11  9  1  0
 12 11  1  0
 13 12  1  6
 13 14  1  0
 14  6  1  0
 15 24  1  0
 15 13  1  0
 16 15  2  0
 18 19  2  0
 18 17  1  0
 20 19  1  0
 21 20  2  0
 22 21  1  0
 23 24  1  0
 23 22  1  1
 25 23  1  0
 26 25  1  0
 27 21  1  0
 27 28  2  0
 28 18  1  0
 29 25  2  0
M  END
$$$$
