TQY.pdb
     RDKit          3D

 29 29  0  0  1  0  0  0  0  0999 V2000
    7.1512  -12.5378   19.0971 C   0  0  0  0  0  0  0  0  0  0  0  0
    7.8398  -13.4456   18.1016 C   0  0  1  0  0  0  0  0  0  0  0  0
    8.1443  -12.7599   16.9368 O   0  0  0  0  0  0  0  0  0  0  0  0
    9.0988  -14.0007   18.7078 C   0  0  2  0  0  0  0  0  0  0  0  0
    9.7990  -14.8490   17.7707 N   0  0  0  0  0  0  0  0  0  0  0  0
    8.7888  -14.8172   19.9022 C   0  0  0  0  0  0  0  0  0  0  0  0
    8.1329  -14.3809   20.8850 O   0  0  0  0  0  0  0  0  0  0  0  0
   10.8258  -18.9197   18.4635 N   0  0  0  0  0  0  0  0  0  0  0  0
    9.4345  -19.2766   18.4770 C   0  0  0  0  0  0  0  0  0  0  0  0
    8.9104  -19.8160   17.4743 O   0  0  0  0  0  0  0  0  0  0  0  0
    8.6139  -19.0141   19.6655 C   0  0  0  0  0  0  0  0  0  0  0  0
    9.3302  -18.3876   20.8023 C   0  0  0  0  0  0  0  0  0  0  0  0
    8.8901  -16.9833   21.1414 C   0  0  2  0  0  0  0  0  0  0  0  0
    9.2377  -16.1687   19.9811 N   0  0  0  0  0  0  0  0  0  0  0  0
    9.6330  -16.5753   22.3388 C   0  0  0  0  0  0  0  0  0  0  0  0
   10.8732  -16.4710   22.3019 O   0  0  0  0  0  0  0  0  0  0  0  0
   10.9121  -14.1243   30.8121 O   0  0  0  0  0  0  0  0  0  0  0  0
   10.3524  -14.4406   29.5739 C   0  0  0  0  0  0  0  0  0  0  0  0
   10.0917  -13.4631   28.6389 C   0  0  0  0  0  0  0  0  0  0  0  0
    9.5403  -13.7622   27.4148 C   0  0  0  0  0  0  0  0  0  0  0  0
    9.2220  -15.0772   27.0717 C   0  0  0  0  0  0  0  0  0  0  0  0
    8.6227  -15.3789   25.7630 C   0  0  0  0  0  0  0  0  0  0  0  0
    9.6354  -15.8930   24.7672 C   0  0  2  0  0  0  0  0  0  0  0  0
    8.9515  -16.2981   23.5401 N   0  0  0  0  0  0  0  0  0  0  0  0
   10.3971  -17.0235   25.3169 C   0  0  0  0  0  0  0  0  0  0  0  0
   11.6663  -16.7885   25.8739 O   0  0  0  0  0  0  0  0  0  0  0  0
    9.4919  -16.0396   28.0248 C   0  0  0  0  0  0  0  0  0  0  0  0
   10.0478  -15.7309   29.2562 C   0  0  0  0  0  0  0  0  0  0  0  0
   10.0133  -18.2026   25.3361 O   0  0  0  0  0  0  0  0  0  0  0  0
  2  1  1  1
  2  3  1  0
  4  2  1  0
  4  5  1  6
  6  7  2  0
  6  4  1  0
  9  8  1  0
 10  9  2  0
 11  9  1  0
 12 11  1  0
 13 12  1  6
 13 14  1  0
 14  6  1  0
 15 24  1  0
 15 13  1  0
 16 15  2  0
 18 19  2  0
 18 17  1  0
 20 19  1  0
 21 20  2  0
 22 21  1  0
 23 24  1  0
 23 22  1  1
 25 23  1  0
 26 25  1  0
 27 21  1  0
 27 28  2  0
 28 18  1  0
 29 25  2  0
M  END
$$$$
