TQY.pdb
     RDKit          3D

 29 29  0  0  1  0  0  0  0  0999 V2000
    7.5867  -12.8982   17.0428 C   0  0  0  0  0  0  0  0  0  0  0  0
    7.7251  -14.0877   17.9676 C   0  0  1  0  0  0  0  0  0  0  0  0
    8.2703  -15.1718   17.2989 O   0  0  0  0  0  0  0  0  0  0  0  0
    8.5964  -13.7222   19.1371 C   0  0  2  0  0  0  0  0  0  0  0  0
    9.9326  -13.3811   18.7057 N   0  0  0  0  0  0  0  0  0  0  0  0
    8.7088  -14.8564   20.0808 C   0  0  0  0  0  0  0  0  0  0  0  0
    7.7235  -15.3410   20.6976 O   0  0  0  0  0  0  0  0  0  0  0  0
   13.3646  -19.2557   20.1765 N   0  0  0  0  0  0  0  0  0  0  0  0
   13.0066  -19.0483   21.5520 C   0  0  0  0  0  0  0  0  0  0  0  0
   13.7466  -19.4751   22.4692 O   0  0  0  0  0  0  0  0  0  0  0  0
   11.7716  -18.3334   21.8963 C   0  0  0  0  0  0  0  0  0  0  0  0
   11.3663  -17.2752   20.9404 C   0  0  0  0  0  0  0  0  0  0  0  0
   10.0897  -16.5491   21.2916 C   0  0  2  0  0  0  0  0  0  0  0  0
    9.9784  -15.4566   20.3299 N   0  0  0  0  0  0  0  0  0  0  0  0
   10.2374  -16.0558   22.6653 C   0  0  0  0  0  0  0  0  0  0  0  0
   11.2108  -15.3435   22.9743 O   0  0  0  0  0  0  0  0  0  0  0  0
    6.1501  -11.2084   28.6165 O   0  0  0  0  0  0  0  0  0  0  0  0
    6.5758  -12.0183   27.5632 C   0  0  0  0  0  0  0  0  0  0  0  0
    5.9378  -13.2043   27.2732 C   0  0  0  0  0  0  0  0  0  0  0  0
    6.3478  -14.0113   26.2375 C   0  0  0  0  0  0  0  0  0  0  0  0
    7.4337  -13.6560   25.4357 C   0  0  0  0  0  0  0  0  0  0  0  0
    7.8663  -14.5354   24.3392 C   0  0  0  0  0  0  0  0  0  0  0  0
    8.9514  -15.4972   24.7621 C   0  0  2  0  0  0  0  0  0  0  0  0
    9.2810  -16.3828   23.6465 N   0  0  0  0  0  0  0  0  0  0  0  0
    8.5370  -16.2888   25.9291 C   0  0  0  0  0  0  0  0  0  0  0  0
    8.9358  -15.8774   27.2130 O   0  0  0  0  0  0  0  0  0  0  0  0
    8.0575  -12.4633   25.7457 C   0  0  0  0  0  0  0  0  0  0  0  0
    7.6388  -11.6551   26.7907 C   0  0  0  0  0  0  0  0  0  0  0  0
    7.8468  -17.3183   25.8865 O   0  0  0  0  0  0  0  0  0  0  0  0
  2  1  1  6
  2  3  1  0
  4  2  1  0
  4  5  1  6
  6  7  2  0
  6  4  1  0
  9  8  1  0
 10  9  2  0
 11  9  1  0
 12 11  1  0
 13 12  1  6
 13 14  1  0
 14  6  1  0
 15 24  1  0
 15 13  1  0
 16 15  2  0
 18 19  2  0
 18 17  1  0
 20 19  1  0
 21 20  2  0
 22 21  1  0
 23 24  1  0
 23 22  1  6
 25 23  1  0
 26 25  1  0
 27 21  1  0
 27 28  2  0
 28 18  1  0
 29 25  2  0
M  END
$$$$
