TQY.pdb
     RDKit          3D

 29 29  0  0  1  0  0  0  0  0999 V2000
    8.1572  -11.8798   19.3007 C   0  0  0  0  0  0  0  0  0  0  0  0
    8.2182  -13.0712   20.2314 C   0  0  1  0  0  0  0  0  0  0  0  0
    6.9657  -13.3563   20.7508 O   0  0  0  0  0  0  0  0  0  0  0  0
    8.7443  -14.2682   19.4890 C   0  0  2  0  0  0  0  0  0  0  0  0
    7.8706  -14.6300   18.3966 N   0  0  0  0  0  0  0  0  0  0  0  0
    8.8426  -15.4397   20.3876 C   0  0  0  0  0  0  0  0  0  0  0  0
    8.0566  -16.4221   20.3290 O   0  0  0  0  0  0  0  0  0  0  0  0
   13.4019  -19.3023   21.4359 N   0  0  0  0  0  0  0  0  0  0  0  0
   12.6446  -18.7115   20.3679 C   0  0  0  0  0  0  0  0  0  0  0  0
   13.0676  -18.7630   19.1891 O   0  0  0  0  0  0  0  0  0  0  0  0
   11.3676  -18.0432   20.6467 C   0  0  0  0  0  0  0  0  0  0  0  0
   11.3150  -17.2872   21.9209 C   0  0  0  0  0  0  0  0  0  0  0  0
    9.9760  -16.6679   22.2437 C   0  0  2  0  0  0  0  0  0  0  0  0
    9.8641  -15.4954   21.3814 N   0  0  0  0  0  0  0  0  0  0  0  0
   10.0006  -16.3021   23.6641 C   0  0  0  0  0  0  0  0  0  0  0  0
   10.7941  -15.4348   24.0744 O   0  0  0  0  0  0  0  0  0  0  0  0
    6.4125  -10.8724   26.2242 O   0  0  0  0  0  0  0  0  0  0  0  0
    6.7311  -12.2292   26.2884 C   0  0  0  0  0  0  0  0  0  0  0  0
    7.8125  -12.6738   27.0169 C   0  0  0  0  0  0  0  0  0  0  0  0
    8.1368  -14.0086   27.0880 C   0  0  0  0  0  0  0  0  0  0  0  0
    7.3766  -14.9697   26.4197 C   0  0  0  0  0  0  0  0  0  0  0  0
    7.7432  -16.3918   26.4970 C   0  0  0  0  0  0  0  0  0  0  0  0
    9.1495  -16.6543   26.0124 C   0  0  2  0  0  0  0  0  0  0  0  0
    9.1281  -16.9276   24.5762 N   0  0  0  0  0  0  0  0  0  0  0  0
    9.7594  -17.7819   26.7313 C   0  0  0  0  0  0  0  0  0  0  0  0
   10.1347  -17.6150   28.0759 O   0  0  0  0  0  0  0  0  0  0  0  0
    6.2980  -14.5004   25.6958 C   0  0  0  0  0  0  0  0  0  0  0  0
    5.9771  -13.1539   25.6288 C   0  0  0  0  0  0  0  0  0  0  0  0
    9.9810  -18.9024   26.2481 O   0  0  0  0  0  0  0  0  0  0  0  0
  2  1  1  6
  2  3  1  0
  4  2  1  0
  4  5  1  6
  6  7  2  0
  6  4  1  0
  9  8  1  0
 10  9  2  0
 11  9  1  0
 12 11  1  0
 13 12  1  6
 13 14  1  0
 14  6  1  0
 15 24  1  0
 15 13  1  0
 16 15  2  0
 18 19  2  0
 18 17  1  0
 20 19  1  0
 21 20  2  0
 22 21  1  0
 23 24  1  0
 23 22  1  1
 25 23  1  0
 26 25  1  0
 27 21  1  0
 27 28  2  0
 28 18  1  0
 29 25  2  0
M  END
$$$$
