TQY.pdb
     RDKit          3D

 29 29  0  0  1  0  0  0  0  0999 V2000
    6.3030  -19.9307   21.0833 C   0  0  0  0  0  0  0  0  0  0  0  0
    7.1495  -18.6849   21.2267 C   0  0  1  0  0  0  0  0  0  0  0  0
    8.3844  -18.9881   21.7772 O   0  0  0  0  0  0  0  0  0  0  0  0
    7.3379  -18.0420   19.8807 C   0  0  2  0  0  0  0  0  0  0  0  0
    7.9574  -18.9556   18.9483 N   0  0  0  0  0  0  0  0  0  0  0  0
    8.2119  -16.8527   19.9864 C   0  0  0  0  0  0  0  0  0  0  0  0
    9.4399  -16.8719   19.7073 O   0  0  0  0  0  0  0  0  0  0  0  0
    9.3927  -13.3108   18.0835 N   0  0  0  0  0  0  0  0  0  0  0  0
    7.9692  -13.3006   17.8919 C   0  0  0  0  0  0  0  0  0  0  0  0
    7.4862  -13.3670   16.7372 O   0  0  0  0  0  0  0  0  0  0  0  0
    7.0670  -13.2136   19.0466 C   0  0  0  0  0  0  0  0  0  0  0  0
    7.7317  -13.2393   20.3715 C   0  0  0  0  0  0  0  0  0  0  0  0
    8.5622  -14.4699   20.6480 C   0  0  2  0  0  0  0  0  0  0  0  0
    7.6737  -15.6058   20.4221 N   0  0  0  0  0  0  0  0  0  0  0  0
    9.0024  -14.3888   22.0450 C   0  0  0  0  0  0  0  0  0  0  0  0
    9.1329  -13.2808   22.5979 O   0  0  0  0  0  0  0  0  0  0  0  0
   10.3618  -15.0650   30.5222 O   0  0  0  0  0  0  0  0  0  0  0  0
    9.9899  -15.0178   29.1784 C   0  0  0  0  0  0  0  0  0  0  0  0
   10.0637  -13.8453   28.4590 C   0  0  0  0  0  0  0  0  0  0  0  0
    9.7002  -13.7860   27.1338 C   0  0  0  0  0  0  0  0  0  0  0  0
    9.2394  -14.9202   26.4632 C   0  0  0  0  0  0  0  0  0  0  0  0
    8.8443  -14.8375   25.0491 C   0  0  0  0  0  0  0  0  0  0  0  0
    9.8158  -15.5449   24.1342 C   0  0  2  0  0  0  0  0  0  0  0  0
    9.2812  -15.5619   22.7735 N   0  0  0  0  0  0  0  0  0  0  0  0
   10.0757  -16.9175   24.5911 C   0  0  0  0  0  0  0  0  0  0  0  0
   11.1927  -17.1682   25.4073 O   0  0  0  0  0  0  0  0  0  0  0  0
    9.1737  -16.0836   27.2048 C   0  0  0  0  0  0  0  0  0  0  0  0
    9.5418  -16.1359   28.5398 C   0  0  0  0  0  0  0  0  0  0  0  0
    9.3802  -17.9067   24.3157 O   0  0  0  0  0  0  0  0  0  0  0  0
  2  1  1  6
  2  3  1  0
  4  2  1  0
  4  5  1  6
  6  7  2  0
  6  4  1  0
  9  8  1  0
 10  9  2  0
 11  9  1  0
 12 11  1  0
 13 12  1  1
 13 14  1  0
 14  6  1  0
 15 24  1  0
 15 13  1  0
 16 15  2  0
 18 19  2  0
 18 17  1  0
 20 19  1  0
 21 20  2  0
 22 21  1  0
 23 24  1  0
 23 22  1  1
 25 23  1  0
 26 25  1  0
 27 21  1  0
 27 28  2  0
 28 18  1  0
 29 25  2  0
M  END
$$$$
