TQY.pdb
     RDKit          3D

 29 29  0  0  1  0  0  0  0  0999 V2000
    9.2570  -13.0346   17.1590 C   0  0  0  0  0  0  0  0  0  0  0  0
    9.1183  -13.8641   18.4167 C   0  0  1  0  0  0  0  0  0  0  0  0
    9.9339  -13.3738   19.4237 O   0  0  0  0  0  0  0  0  0  0  0  0
    7.6861  -13.8558   18.8744 C   0  0  2  0  0  0  0  0  0  0  0  0
    7.2114  -12.5064   19.0782 N   0  0  0  0  0  0  0  0  0  0  0  0
    7.5427  -14.5771   20.1584 C   0  0  0  0  0  0  0  0  0  0  0  0
    7.1519  -14.0243   21.2204 O   0  0  0  0  0  0  0  0  0  0  0  0
    8.0326  -20.9169   20.5989 N   0  0  0  0  0  0  0  0  0  0  0  0
    7.7390  -20.5117   21.9454 C   0  0  0  0  0  0  0  0  0  0  0  0
    7.5741  -21.3712   22.8426 O   0  0  0  0  0  0  0  0  0  0  0  0
    7.6305  -19.0873   22.2833 C   0  0  0  0  0  0  0  0  0  0  0  0
    7.8071  -18.1527   21.1462 C   0  0  0  0  0  0  0  0  0  0  0  0
    7.6345  -16.6912   21.4851 C   0  0  2  0  0  0  0  0  0  0  0  0
    7.8528  -15.9671   20.2365 N   0  0  0  0  0  0  0  0  0  0  0  0
    8.6464  -16.3595   22.4941 C   0  0  0  0  0  0  0  0  0  0  0  0
    9.8203  -16.1255   22.1513 O   0  0  0  0  0  0  0  0  0  0  0  0
    5.8123  -10.5741   25.8896 O   0  0  0  0  0  0  0  0  0  0  0  0
    6.4777  -11.7987   25.9541 C   0  0  0  0  0  0  0  0  0  0  0  0
    5.7872  -12.9763   26.1387 C   0  0  0  0  0  0  0  0  0  0  0  0
    6.4317  -14.1897   26.2039 C   0  0  0  0  0  0  0  0  0  0  0  0
    7.8199  -14.2738   26.0844 C   0  0  0  0  0  0  0  0  0  0  0  0
    8.4947  -15.5778   26.1673 C   0  0  0  0  0  0  0  0  0  0  0  0
    9.2482  -15.9210   24.9041 C   0  0  2  0  0  0  0  0  0  0  0  0
    8.3004  -16.3026   23.8584 N   0  0  0  0  0  0  0  0  0  0  0  0
   10.2090  -17.0090   25.1354 C   0  0  0  0  0  0  0  0  0  0  0  0
    9.9666  -18.2705   24.5640 O   0  0  0  0  0  0  0  0  0  0  0  0
    8.4905  -13.0804   25.9004 C   0  0  0  0  0  0  0  0  0  0  0  0
    7.8344  -11.8615   25.8356 C   0  0  0  0  0  0  0  0  0  0  0  0
   11.2465  -16.9159   25.8086 O   0  0  0  0  0  0  0  0  0  0  0  0
  2  1  1  6
  2  3  1  0
  4  2  1  0
  4  5  1  1
  6  7  2  0
  6  4  1  0
  9  8  1  0
 10  9  2  0
 11  9  1  0
 12 11  1  0
 13 12  1  6
 13 14  1  0
 14  6  1  0
 15 24  1  0
 15 13  1  0
 16 15  2  0
 18 19  2  0
 18 17  1  0
 20 19  1  0
 21 20  2  0
 22 21  1  0
 23 24  1  0
 23 22  1  1
 25 23  1  0
 26 25  1  0
 27 21  1  0
 27 28  2  0
 28 18  1  0
 29 25  2  0
M  END
$$$$
