TQY.pdb
     RDKit          3D

 29 29  0  0  1  0  0  0  0  0999 V2000
    9.5558  -12.9122   20.4097 C   0  0  0  0  0  0  0  0  0  0  0  0
    8.5368  -13.2271   19.3363 C   0  0  1  0  0  0  0  0  0  0  0  0
    8.5210  -12.2385   18.3657 O   0  0  0  0  0  0  0  0  0  0  0  0
    8.8586  -14.5532   18.7050 C   0  0  2  0  0  0  0  0  0  0  0  0
    7.9988  -14.8145   17.5735 N   0  0  0  0  0  0  0  0  0  0  0  0
    8.6665  -15.6546   19.6742 C   0  0  0  0  0  0  0  0  0  0  0  0
    7.7739  -16.5346   19.5507 O   0  0  0  0  0  0  0  0  0  0  0  0
   10.9478  -20.2478   19.4344 N   0  0  0  0  0  0  0  0  0  0  0  0
   11.3815  -18.9182   19.1071 C   0  0  0  0  0  0  0  0  0  0  0  0
   12.1771  -18.7285   18.1573 O   0  0  0  0  0  0  0  0  0  0  0  0
   10.8962  -17.7691   19.8811 C   0  0  0  0  0  0  0  0  0  0  0  0
    9.9047  -18.0905   20.9353 C   0  0  0  0  0  0  0  0  0  0  0  0
    9.3887  -16.9033   21.7131 C   0  0  2  0  0  0  0  0  0  0  0  0
    9.5141  -15.7582   20.8167 N   0  0  0  0  0  0  0  0  0  0  0  0
   10.2377  -16.7636   22.9013 C   0  0  0  0  0  0  0  0  0  0  0  0
   10.6629  -17.7748   23.4904 O   0  0  0  0  0  0  0  0  0  0  0  0
    5.7646  -11.2350   27.8746 O   0  0  0  0  0  0  0  0  0  0  0  0
    6.4514  -11.9870   26.9209 C   0  0  0  0  0  0  0  0  0  0  0  0
    5.8059  -12.9415   26.1659 C   0  0  0  0  0  0  0  0  0  0  0  0
    6.4718  -13.6890   25.2227 C   0  0  0  0  0  0  0  0  0  0  0  0
    7.8366  -13.5070   24.9935 C   0  0  0  0  0  0  0  0  0  0  0  0
    8.5361  -14.3221   23.9890 C   0  0  0  0  0  0  0  0  0  0  0  0
    9.8672  -14.8356   24.4850 C   0  0  2  0  0  0  0  0  0  0  0  0
   10.5797  -15.4861   23.3865 N   0  0  0  0  0  0  0  0  0  0  0  0
    9.6935  -15.7763   25.6008 C   0  0  0  0  0  0  0  0  0  0  0  0
    9.1306  -17.0401   25.3504 O   0  0  0  0  0  0  0  0  0  0  0  0
    8.4621  -12.5451   25.7624 C   0  0  0  0  0  0  0  0  0  0  0  0
    7.7847  -11.7955   26.7109 C   0  0  0  0  0  0  0  0  0  0  0  0
   10.0068  -15.5531   26.7798 O   0  0  0  0  0  0  0  0  0  0  0  0
  2  1  1  1
  2  3  1  0
  4  2  1  0
  4  5  1  6
  6  7  2  0
  6  4  1  0
  9  8  1  0
 10  9  2  0
 11  9  1  0
 12 11  1  0
 13 12  1  6
 13 14  1  0
 14  6  1  0
 15 24  1  0
 15 13  1  0
 16 15  2  0
 18 19  2  0
 18 17  1  0
 20 19  1  0
 21 20  2  0
 22 21  1  0
 23 24  1  0
 23 22  1  6
 25 23  1  0
 26 25  1  0
 27 21  1  0
 27 28  2  0
 28 18  1  0
 29 25  2  0
M  END
$$$$
