TQY.pdb
     RDKit          3D

 29 29  0  0  1  0  0  0  0  0999 V2000
    7.0934  -20.2568   18.6347 C   0  0  0  0  0  0  0  0  0  0  0  0
    7.7848  -18.9220   18.4629 C   0  0  1  0  0  0  0  0  0  0  0  0
    6.9706  -18.0279   17.7865 O   0  0  0  0  0  0  0  0  0  0  0  0
    8.1457  -18.3606   19.8102 C   0  0  2  0  0  0  0  0  0  0  0  0
    6.9631  -18.0669   20.5867 N   0  0  0  0  0  0  0  0  0  0  0  0
    8.9077  -17.1005   19.6651 C   0  0  0  0  0  0  0  0  0  0  0  0
   10.0189  -17.0301   19.0765 O   0  0  0  0  0  0  0  0  0  0  0  0
    9.4271  -12.9787   17.0449 N   0  0  0  0  0  0  0  0  0  0  0  0
    8.3389  -13.9091   17.1607 C   0  0  0  0  0  0  0  0  0  0  0  0
    8.1322  -14.7556   16.2597 O   0  0  0  0  0  0  0  0  0  0  0  0
    7.4598  -13.8782   18.3358 C   0  0  0  0  0  0  0  0  0  0  0  0
    8.1378  -13.6040   19.6254 C   0  0  0  0  0  0  0  0  0  0  0  0
    9.1446  -14.6448   20.0540 C   0  0  2  0  0  0  0  0  0  0  0  0
    8.3909  -15.8858   20.2050 N   0  0  0  0  0  0  0  0  0  0  0  0
    9.7166  -14.1936   21.3273 C   0  0  0  0  0  0  0  0  0  0  0  0
   10.1718  -13.0398   21.4363 O   0  0  0  0  0  0  0  0  0  0  0  0
    5.7696  -12.4226   28.6402 O   0  0  0  0  0  0  0  0  0  0  0  0
    6.2758  -12.8632   27.4170 C   0  0  0  0  0  0  0  0  0  0  0  0
    5.9937  -14.1252   26.9419 C   0  0  0  0  0  0  0  0  0  0  0  0
    6.4865  -14.5712   25.7377 C   0  0  0  0  0  0  0  0  0  0  0  0
    7.2969  -13.7557   24.9461 C   0  0  0  0  0  0  0  0  0  0  0  0
    7.8247  -14.2516   23.6662 C   0  0  0  0  0  0  0  0  0  0  0  0
    9.2706  -14.6777   23.7624 C   0  0  2  0  0  0  0  0  0  0  0  0
    9.7563  -15.0600   22.4374 N   0  0  0  0  0  0  0  0  0  0  0  0
    9.4355  -15.7959   24.7020 C   0  0  0  0  0  0  0  0  0  0  0  0
    9.4455  -17.1116   24.2065 O   0  0  0  0  0  0  0  0  0  0  0  0
    7.5661  -12.4954   25.4430 C   0  0  0  0  0  0  0  0  0  0  0  0
    7.0660  -12.0527   26.6572 C   0  0  0  0  0  0  0  0  0  0  0  0
    9.5709  -15.6844   25.9297 O   0  0  0  0  0  0  0  0  0  0  0  0
  2  1  1  1
  2  3  1  0
  4  2  1  0
  4  5  1  1
  6  7  2  0
  6  4  1  0
  9  8  1  0
 10  9  2  0
 11  9  1  0
 12 11  1  0
 13 12  1  1
 13 14  1  0
 14  6  1  0
 15 24  1  0
 15 13  1  0
 16 15  2  0
 18 19  2  0
 18 17  1  0
 20 19  1  0
 21 20  2  0
 22 21  1  0
 23 24  1  0
 23 22  1  6
 25 23  1  0
 26 25  1  0
 27 21  1  0
 27 28  2  0
 28 18  1  0
 29 25  2  0
M  END
$$$$
