TQY.pdb
     RDKit          3D

 29 29  0  0  1  0  0  0  0  0999 V2000
    7.5687  -12.8377   16.9395 C   0  0  0  0  0  0  0  0  0  0  0  0
    7.6983  -13.9880   17.9139 C   0  0  1  0  0  0  0  0  0  0  0  0
    7.9717  -15.1713   17.2469 O   0  0  0  0  0  0  0  0  0  0  0  0
    8.7950  -13.6962   18.9000 C   0  0  2  0  0  0  0  0  0  0  0  0
   10.0826  -13.6395   18.2467 N   0  0  0  0  0  0  0  0  0  0  0  0
    8.8656  -14.7538   19.9325 C   0  0  0  0  0  0  0  0  0  0  0  0
    7.9095  -15.0291   20.7047 O   0  0  0  0  0  0  0  0  0  0  0  0
   11.2434  -20.0356   20.0554 N   0  0  0  0  0  0  0  0  0  0  0  0
   11.6674  -19.7355   21.3945 C   0  0  0  0  0  0  0  0  0  0  0  0
   11.9653  -20.6608   22.1858 O   0  0  0  0  0  0  0  0  0  0  0  0
   11.7570  -18.3424   21.8485 C   0  0  0  0  0  0  0  0  0  0  0  0
   11.4028  -17.3225   20.8325 C   0  0  0  0  0  0  0  0  0  0  0  0
   10.1101  -16.5850   21.0883 C   0  0  2  0  0  0  0  0  0  0  0  0
   10.0579  -15.5203   20.0911 N   0  0  0  0  0  0  0  0  0  0  0  0
   10.1794  -16.0530   22.4537 C   0  0  0  0  0  0  0  0  0  0  0  0
   11.1736  -15.4004   22.8224 O   0  0  0  0  0  0  0  0  0  0  0  0
    6.1189  -11.2207   28.5387 O   0  0  0  0  0  0  0  0  0  0  0  0
    6.4714  -12.0608   27.4820 C   0  0  0  0  0  0  0  0  0  0  0  0
    7.4968  -11.7329   26.6223 C   0  0  0  0  0  0  0  0  0  0  0  0
    7.8539  -12.5527   25.5772 C   0  0  0  0  0  0  0  0  0  0  0  0
    7.1858  -13.7564   25.3468 C   0  0  0  0  0  0  0  0  0  0  0  0
    7.5726  -14.6163   24.2183 C   0  0  0  0  0  0  0  0  0  0  0  0
    8.8432  -15.3875   24.4870 C   0  0  2  0  0  0  0  0  0  0  0  0
    9.1236  -16.2749   23.3594 N   0  0  0  0  0  0  0  0  0  0  0  0
    8.7412  -16.1668   25.7290 C   0  0  0  0  0  0  0  0  0  0  0  0
    8.4715  -17.5445   25.6534 O   0  0  0  0  0  0  0  0  0  0  0  0
    6.1616  -14.0636   26.2211 C   0  0  0  0  0  0  0  0  0  0  0  0
    5.8073  -13.2327   27.2722 C   0  0  0  0  0  0  0  0  0  0  0  0
    8.8750  -15.7089   26.8737 O   0  0  0  0  0  0  0  0  0  0  0  0
  2  1  1  6
  2  3  1  0
  4  2  1  0
  4  5  1  6
  6  7  2  0
  6  4  1  0
  9  8  1  0
 10  9  2  0
 11  9  1  0
 12 11  1  0
 13 12  1  6
 13 14  1  0
 14  6  1  0
 15 24  1  0
 15 13  1  0
 16 15  2  0
 18 19  2  0
 18 17  1  0
 20 19  1  0
 21 20  2  0
 22 21  1  0
 23 24  1  0
 23 22  1  6
 25 23  1  0
 26 25  1  0
 27 21  1  0
 27 28  2  0
 28 18  1  0
 29 25  2  0
M  END
$$$$
