GLI.pdb
     RDKit          3D

 21 20  0  0  1  0  0  0  0  0999 V2000
   23.5138  -12.5293  -20.8065 N   0  0  0  0  0  0  0  0  0  0  0  0
   23.5779  -11.1004  -20.7695 C   0  0  0  0  0  0  0  0  0  0  0  0
   23.1960  -10.5614  -19.4392 C   0  0  0  0  0  0  0  0  0  0  0  0
   22.0412  -10.7628  -19.0099 O   0  0  0  0  0  0  0  0  0  0  0  0
   26.6601  -10.1645  -15.0564 C   0  0  0  0  0  0  0  0  0  0  0  0
   25.4199  -10.5318  -15.8967 C   0  0  1  0  0  0  0  0  0  0  0  0
   24.5886  -11.4727  -15.1054 C   0  0  0  0  0  0  0  0  0  0  0  0
   24.8021   -9.2580  -16.3101 C   0  0  0  0  0  0  0  0  0  0  0  0
   23.7445   -9.2815  -17.3434 C   0  0  2  0  0  0  0  0  0  0  0  0
   24.0910   -9.8173  -18.6184 N   0  0  0  0  0  0  0  0  0  0  0  0
   23.0519   -7.9524  -17.4846 C   0  0  0  0  0  0  0  0  0  0  0  0
   23.5749   -7.0695  -18.1806 O   0  0  0  0  0  0  0  0  0  0  0  0
   18.3196   -7.5306  -19.4681 C   0  0  0  0  0  0  0  0  0  0  0  0
   19.6730   -7.2060  -18.9395 C   0  0  0  0  0  0  0  0  0  0  0  0
   19.7679   -6.7149  -17.5558 C   0  0  2  0  0  0  0  0  0  0  0  0
   18.7055   -5.6494  -17.2844 C   0  0  0  0  0  0  0  0  0  0  0  0
   21.0920   -6.4299  -16.9529 C   0  0  2  0  0  0  0  0  0  0  0  0
   21.8365   -7.7170  -16.8402 N   0  0  0  0  0  0  0  0  0  0  0  0
   21.0155   -5.8490  -15.6283 C   0  0  0  0  0  0  0  0  0  0  0  0
   21.1258   -4.5033  -15.2946 O   0  0  0  0  0  0  0  0  0  0  0  0
   20.8326   -6.6129  -14.6197 O   0  0  0  0  0  0  0  0  0  0  0  0
  2  1  1  0
  3  2  1  0
  4  3  2  0
  6  5  1  1
  6  8  1  0
  7  6  1  0
  9  8  1  1
  9 10  1  0
  9 11  1  0
 10  3  1  0
 11 12  2  0
 14 13  1  0
 15 14  1  0
 15 16  1  6
 17 15  1  0
 18 11  1  0
 17 18  1  1
 19 20  1  0
 19 17  1  0
 21 19  2  0
M  END
$$$$
