GLI.pdb
     RDKit          3D

 21 20  0  0  1  0  0  0  0  0999 V2000
   23.7579  -21.4461  -10.9995 N   0  0  0  0  0  0  0  0  0  0  0  0
   24.1628  -21.6293  -12.3595 C   0  0  0  0  0  0  0  0  0  0  0  0
   24.3191  -20.3355  -13.0718 C   0  0  0  0  0  0  0  0  0  0  0  0
   23.7488  -19.3204  -12.6218 O   0  0  0  0  0  0  0  0  0  0  0  0
   27.7443  -18.5266  -13.8261 C   0  0  0  0  0  0  0  0  0  0  0  0
   27.4390  -17.9161  -15.2093 C   0  0  1  0  0  0  0  0  0  0  0  0
   28.7184  -17.7900  -15.9506 C   0  0  0  0  0  0  0  0  0  0  0  0
   26.3817  -18.7500  -15.8107 C   0  0  0  0  0  0  0  0  0  0  0  0
   25.1460  -19.0004  -15.0379 C   0  0  2  0  0  0  0  0  0  0  0  0
   25.0962  -20.1921  -14.2568 N   0  0  0  0  0  0  0  0  0  0  0  0
   23.9052  -18.8507  -15.8771 C   0  0  0  0  0  0  0  0  0  0  0  0
   23.3967  -19.8591  -16.3889 O   0  0  0  0  0  0  0  0  0  0  0  0
   19.5217  -18.5022  -15.2246 C   0  0  0  0  0  0  0  0  0  0  0  0
   20.4882  -17.4113  -14.9208 C   0  0  0  0  0  0  0  0  0  0  0  0
   21.0984  -16.7014  -16.0559 C   0  0  2  0  0  0  0  0  0  0  0  0
   20.0429  -15.9165  -16.8354 C   0  0  0  0  0  0  0  0  0  0  0  0
   22.1118  -17.3759  -16.9021 C   0  0  2  0  0  0  0  0  0  0  0  0
   23.3345  -17.5928  -16.0765 N   0  0  0  0  0  0  0  0  0  0  0  0
   22.4992  -16.6097  -18.0686 C   0  0  0  0  0  0  0  0  0  0  0  0
   22.0345  -16.7694  -19.3697 O   0  0  0  0  0  0  0  0  0  0  0  0
   23.3634  -15.6758  -17.9449 O   0  0  0  0  0  0  0  0  0  0  0  0
  2  1  1  0
  3  2  1  0
  4  3  2  0
  6  5  1  1
  6  8  1  0
  7  6  1  0
  9  8  1  6
  9 10  1  0
  9 11  1  0
 10  3  1  0
 11 12  2  0
 14 13  1  0
 15 14  1  0
 15 16  1  6
 17 15  1  0
 18 11  1  0
 17 18  1  1
 19 20  1  0
 19 17  1  0
 21 19  2  0
M  END
$$$$
