GLI.pdb
     RDKit          3D

 21 20  0  0  1  0  0  0  0  0999 V2000
   22.6978  -10.7537  -21.8486 N   0  0  0  0  0  0  0  0  0  0  0  0
   23.7742  -10.8861  -20.9153 C   0  0  0  0  0  0  0  0  0  0  0  0
   23.3483  -10.5713  -19.5277 C   0  0  0  0  0  0  0  0  0  0  0  0
   22.1891  -10.8616  -19.1664 O   0  0  0  0  0  0  0  0  0  0  0  0
   26.8536  -10.7000  -15.0940 C   0  0  0  0  0  0  0  0  0  0  0  0
   25.7112  -11.0037  -16.0849 C   0  0  1  0  0  0  0  0  0  0  0  0
   25.0023  -12.2192  -15.6133 C   0  0  0  0  0  0  0  0  0  0  0  0
   24.9257   -9.7620  -16.2114 C   0  0  0  0  0  0  0  0  0  0  0  0
   23.8449   -9.7024  -17.2190 C   0  0  2  0  0  0  0  0  0  0  0  0
   24.2053   -9.9475  -18.5765 N   0  0  0  0  0  0  0  0  0  0  0  0
   23.0155   -8.4521  -17.0962 C   0  0  0  0  0  0  0  0  0  0  0  0
   23.4016   -7.4138  -17.6533 O   0  0  0  0  0  0  0  0  0  0  0  0
   17.8679   -8.4071  -18.2493 C   0  0  0  0  0  0  0  0  0  0  0  0
   19.2363   -7.8965  -17.9612 C   0  0  0  0  0  0  0  0  0  0  0  0
   19.5814   -7.6161  -16.5587 C   0  0  2  0  0  0  0  0  0  0  0  0
   18.5043   -6.7563  -15.8966 C   0  0  0  0  0  0  0  0  0  0  0  0
   20.9705   -7.2537  -16.1886 C   0  0  2  0  0  0  0  0  0  0  0  0
   21.8270   -8.4616  -16.3646 N   0  0  0  0  0  0  0  0  0  0  0  0
   21.1107   -6.8115  -14.8165 C   0  0  0  0  0  0  0  0  0  0  0  0
   21.5805   -7.5551  -13.7392 O   0  0  0  0  0  0  0  0  0  0  0  0
   20.7756   -5.6173  -14.5067 O   0  0  0  0  0  0  0  0  0  0  0  0
  2  1  1  0
  3  2  1  0
  4  3  2  0
  6  5  1  1
  6  8  1  0
  7  6  1  0
  9  8  1  1
  9 10  1  0
  9 11  1  0
 10  3  1  0
 11 12  2  0
 14 13  1  0
 15 14  1  0
 15 16  1  6
 17 15  1  0
 18 11  1  0
 17 18  1  1
 19 20  1  0
 19 17  1  0
 21 19  2  0
M  END
$$$$
