GLI.pdb
     RDKit          3D

 21 20  0  0  1  0  0  0  0  0999 V2000
   26.8663  -15.9070  -16.2162 N   0  0  0  0  0  0  0  0  0  0  0  0
   26.7943  -16.3360  -14.8531 C   0  0  0  0  0  0  0  0  0  0  0  0
   26.2207  -17.7005  -14.7297 C   0  0  0  0  0  0  0  0  0  0  0  0
   25.6500  -18.2120  -15.7151 O   0  0  0  0  0  0  0  0  0  0  0  0
   27.9964  -21.5567  -10.9426 C   0  0  0  0  0  0  0  0  0  0  0  0
   27.6986  -20.8352  -12.2729 C   0  0  1  0  0  0  0  0  0  0  0  0
   28.3150  -21.6198  -13.3714 C   0  0  0  0  0  0  0  0  0  0  0  0
   26.2392  -20.6274  -12.3189 C   0  0  0  0  0  0  0  0  0  0  0  0
   25.6783  -19.7416  -13.3618 C   0  0  2  0  0  0  0  0  0  0  0  0
   26.2893  -18.4644  -13.5296 N   0  0  0  0  0  0  0  0  0  0  0  0
   24.1814  -19.6170  -13.2631 C   0  0  0  0  0  0  0  0  0  0  0  0
   23.6894  -18.9693  -12.3273 O   0  0  0  0  0  0  0  0  0  0  0  0
   21.3588  -17.8103  -17.1894 C   0  0  0  0  0  0  0  0  0  0  0  0
   21.7379  -18.2544  -15.8199 C   0  0  0  0  0  0  0  0  0  0  0  0
   21.3607  -19.6171  -15.4130 C   0  0  2  0  0  0  0  0  0  0  0  0
   19.8745  -19.8680  -15.6701 C   0  0  0  0  0  0  0  0  0  0  0  0
   21.8688  -20.1852  -14.1414 C   0  0  2  0  0  0  0  0  0  0  0  0
   23.3577  -20.2230  -14.2131 N   0  0  0  0  0  0  0  0  0  0  0  0
   21.4069  -21.5329  -13.8804 C   0  0  0  0  0  0  0  0  0  0  0  0
   22.0913  -22.7176  -14.1304 O   0  0  0  0  0  0  0  0  0  0  0  0
   20.2484  -21.7093  -13.3696 O   0  0  0  0  0  0  0  0  0  0  0  0
  2  1  1  0
  3  2  1  0
  4  3  2  0
  6  5  1  1
  6  8  1  0
  7  6  1  0
  9  8  1  1
  9 10  1  0
  9 11  1  0
 10  3  1  0
 11 12  2  0
 14 13  1  0
 15 14  1  0
 15 16  1  1
 17 15  1  0
 18 11  1  0
 17 18  1  6
 19 20  1  0
 19 17  1  0
 21 19  2  0
M  END
$$$$
