GLI.pdb
     RDKit          3D

 21 20  0  0  1  0  0  0  0  0999 V2000
   18.3346  -13.4423  -19.1165 N   0  0  0  0  0  0  0  0  0  0  0  0
   19.7646  -13.4637  -19.1570 C   0  0  0  0  0  0  0  0  0  0  0  0
   20.3641  -12.7976  -17.9726 C   0  0  0  0  0  0  0  0  0  0  0  0
   19.6162  -12.3926  -17.0589 O   0  0  0  0  0  0  0  0  0  0  0  0
   25.1563  -14.2412  -15.3645 C   0  0  0  0  0  0  0  0  0  0  0  0
   23.6806  -13.9218  -15.6801 C   0  0  1  0  0  0  0  0  0  0  0  0
   22.8786  -14.1950  -14.4618 C   0  0  0  0  0  0  0  0  0  0  0  0
   23.6555  -12.5495  -16.2197 C   0  0  0  0  0  0  0  0  0  0  0  0
   22.3674  -11.9894  -16.6821 C   0  0  2  0  0  0  0  0  0  0  0  0
   21.7660  -12.5948  -17.8243 N   0  0  0  0  0  0  0  0  0  0  0  0
   22.4119  -10.4913  -16.8236 C   0  0  0  0  0  0  0  0  0  0  0  0
   23.1855   -9.9853  -17.6500 O   0  0  0  0  0  0  0  0  0  0  0  0
   18.9324   -5.9274  -17.8013 C   0  0  0  0  0  0  0  0  0  0  0  0
   20.1430   -6.3118  -17.0247 C   0  0  0  0  0  0  0  0  0  0  0  0
   20.4269   -7.7466  -16.8647 C   0  0  2  0  0  0  0  0  0  0  0  0
   19.1459   -8.5215  -16.5543 C   0  0  0  0  0  0  0  0  0  0  0  0
   21.6156   -8.1927  -16.0994 C   0  0  2  0  0  0  0  0  0  0  0  0
   21.5928   -9.6823  -16.0347 N   0  0  0  0  0  0  0  0  0  0  0  0
   21.6534   -7.6943  -14.7400 C   0  0  0  0  0  0  0  0  0  0  0  0
   21.4539   -8.4240  -13.5729 O   0  0  0  0  0  0  0  0  0  0  0  0
   21.8866   -6.4542  -14.5346 O   0  0  0  0  0  0  0  0  0  0  0  0
  2  1  1  0
  3  2  1  0
  4  3  2  0
  6  5  1  1
  6  8  1  0
  7  6  1  0
  9  8  1  6
  9 10  1  0
  9 11  1  0
 10  3  1  0
 11 12  2  0
 14 13  1  0
 15 14  1  0
 15 16  1  1
 17 15  1  0
 18 11  1  0
 17 18  1  1
 19 20  1  0
 19 17  1  0
 21 19  2  0
M  END
$$$$
