GLI.pdb
     RDKit          3D

 21 20  0  0  1  0  0  0  0  0999 V2000
   16.5451   -7.0289   -8.8901 N   0  0  0  0  0  0  0  0  0  0  0  0
   15.8847   -6.6372  -10.0974 C   0  0  0  0  0  0  0  0  0  0  0  0
   16.5201   -7.2375  -11.2982 C   0  0  0  0  0  0  0  0  0  0  0  0
   16.9354   -8.4135  -11.2431 O   0  0  0  0  0  0  0  0  0  0  0  0
   14.7176   -6.5907  -16.5438 C   0  0  0  0  0  0  0  0  0  0  0  0
   15.1608   -7.1909  -15.1938 C   0  0  1  0  0  0  0  0  0  0  0  0
   14.8769   -8.6473  -15.2210 C   0  0  0  0  0  0  0  0  0  0  0  0
   16.5601   -6.7726  -14.9889 C   0  0  0  0  0  0  0  0  0  0  0  0
   17.2238   -7.1075  -13.7106 C   0  0  2  0  0  0  0  0  0  0  0  0
   16.6819   -6.5313  -12.5244 N   0  0  0  0  0  0  0  0  0  0  0  0
   18.7157   -6.9168  -13.7725 C   0  0  0  0  0  0  0  0  0  0  0  0
   19.2099   -5.8694  -13.3295 O   0  0  0  0  0  0  0  0  0  0  0  0
   23.6476  -10.5468  -13.7001 C   0  0  0  0  0  0  0  0  0  0  0  0
   23.0909   -9.2164  -14.0695 C   0  0  0  0  0  0  0  0  0  0  0  0
   21.6271   -9.0740  -14.1104 C   0  0  2  0  0  0  0  0  0  0  0  0
   20.9850  -10.2715  -14.8114 C   0  0  0  0  0  0  0  0  0  0  0  0
   21.0122   -7.7662  -14.4412 C   0  0  2  0  0  0  0  0  0  0  0  0
   19.5324   -7.9065  -14.3216 N   0  0  0  0  0  0  0  0  0  0  0  0
   21.3032   -7.3093  -15.7845 C   0  0  0  0  0  0  0  0  0  0  0  0
   22.3767   -6.5230  -16.1892 O   0  0  0  0  0  0  0  0  0  0  0  0
   20.5164   -7.6316  -16.7391 O   0  0  0  0  0  0  0  0  0  0  0  0
  2  1  1  0
  3  2  1  0
  4  3  2  0
  6  5  1  6
  6  8  1  0
  7  6  1  0
  9  8  1  6
  9 10  1  0
  9 11  1  0
 10  3  1  0
 11 12  2  0
 14 13  1  0
 15 14  1  0
 15 16  1  6
 17 15  1  0
 18 11  1  0
 17 18  1  6
 19 20  1  0
 19 17  1  0
 21 19  2  0
M  END
$$$$
