GLI.pdb
     RDKit          3D

 21 20  0  0  1  0  0  0  0  0999 V2000
   19.3620  -12.8163  -17.9650 N   0  0  0  0  0  0  0  0  0  0  0  0
   19.0264  -11.4811  -18.3546 C   0  0  0  0  0  0  0  0  0  0  0  0
   19.2638  -10.5064  -17.2593 C   0  0  0  0  0  0  0  0  0  0  0  0
   18.3420  -10.2592  -16.4546 O   0  0  0  0  0  0  0  0  0  0  0  0
   23.7435   -9.8530  -13.9738 C   0  0  0  0  0  0  0  0  0  0  0  0
   22.2515   -9.9252  -14.3582 C   0  0  1  0  0  0  0  0  0  0  0  0
   21.4498   -9.8556  -13.1113 C   0  0  0  0  0  0  0  0  0  0  0  0
   22.0290   -8.8770  -15.3715 C   0  0  0  0  0  0  0  0  0  0  0  0
   20.7328   -8.8368  -16.0821 C   0  0  2  0  0  0  0  0  0  0  0  0
   20.5046   -9.8312  -17.0780 N   0  0  0  0  0  0  0  0  0  0  0  0
   20.4082   -7.4628  -16.6044 C   0  0  0  0  0  0  0  0  0  0  0  0
   21.0539   -7.0125  -17.5625 O   0  0  0  0  0  0  0  0  0  0  0  0
   15.7351   -6.2447  -18.3847 C   0  0  0  0  0  0  0  0  0  0  0  0
   17.1914   -6.1391  -18.0945 C   0  0  0  0  0  0  0  0  0  0  0  0
   17.5993   -5.3700  -16.9084 C   0  0  2  0  0  0  0  0  0  0  0  0
   16.9011   -4.0100  -16.8775 C   0  0  0  0  0  0  0  0  0  0  0  0
   19.0209   -5.3404  -16.4890 C   0  0  2  0  0  0  0  0  0  0  0  0
   19.3934   -6.7053  -16.0177 N   0  0  0  0  0  0  0  0  0  0  0  0
   19.2899   -4.4139  -15.4087 C   0  0  0  0  0  0  0  0  0  0  0  0
   19.8391   -3.1403  -15.5129 O   0  0  0  0  0  0  0  0  0  0  0  0
   19.0160   -4.7564  -14.2080 O   0  0  0  0  0  0  0  0  0  0  0  0
  2  1  1  0
  3  2  1  0
  4  3  2  0
  6  5  1  1
  6  8  1  0
  7  6  1  0
  9  8  1  6
  9 10  1  0
  9 11  1  0
 10  3  1  0
 11 12  2  0
 14 13  1  0
 15 14  1  0
 15 16  1  6
 17 15  1  0
 18 11  1  0
 17 18  1  1
 19 20  1  0
 19 17  1  0
 21 19  2  0
M  END
$$$$
