GLI.pdb
     RDKit          3D

 21 20  0  0  1  0  0  0  0  0999 V2000
   21.2397   -9.5971  -20.6958 N   0  0  0  0  0  0  0  0  0  0  0  0
   22.3598  -10.2348  -20.0748 C   0  0  0  0  0  0  0  0  0  0  0  0
   22.4957   -9.8515  -18.6463 C   0  0  0  0  0  0  0  0  0  0  0  0
   21.4950   -9.9114  -17.9024 O   0  0  0  0  0  0  0  0  0  0  0  0
   26.8397  -11.0616  -15.4372 C   0  0  0  0  0  0  0  0  0  0  0  0
   25.4031  -10.9286  -15.9827 C   0  0  1  0  0  0  0  0  0  0  0  0
   24.5185  -11.8003  -15.1704 C   0  0  0  0  0  0  0  0  0  0  0  0
   25.0985   -9.4859  -16.0123 C   0  0  0  0  0  0  0  0  0  0  0  0
   23.8771   -9.0299  -16.7102 C   0  0  2  0  0  0  0  0  0  0  0  0
   23.7247   -9.4137  -18.0748 N   0  0  0  0  0  0  0  0  0  0  0  0
   23.6320   -7.5554  -16.5318 C   0  0  0  0  0  0  0  0  0  0  0  0
   24.3350   -6.7463  -17.1551 O   0  0  0  0  0  0  0  0  0  0  0  0
   19.1421   -5.5624  -17.7962 C   0  0  0  0  0  0  0  0  0  0  0  0
   20.5717   -5.6770  -17.3969 C   0  0  0  0  0  0  0  0  0  0  0  0
   20.9084   -5.4465  -15.9833 C   0  0  2  0  0  0  0  0  0  0  0  0
   20.2506   -4.1648  -15.4712 C   0  0  0  0  0  0  0  0  0  0  0  0
   22.2933   -5.6618  -15.5000 C   0  0  2  0  0  0  0  0  0  0  0  0
   22.6262   -7.1047  -15.6755 N   0  0  0  0  0  0  0  0  0  0  0  0
   22.4791   -5.3349  -14.1013 C   0  0  0  0  0  0  0  0  0  0  0  0
   22.9704   -4.1445  -13.5759 O   0  0  0  0  0  0  0  0  0  0  0  0
   22.1788   -6.2017  -13.2110 O   0  0  0  0  0  0  0  0  0  0  0  0
  2  1  1  0
  3  2  1  0
  4  3  2  0
  6  5  1  1
  6  8  1  0
  7  6  1  0
  9  8  1  6
  9 10  1  0
  9 11  1  0
 10  3  1  0
 11 12  2  0
 14 13  1  0
 15 14  1  0
 15 16  1  6
 17 15  1  0
 18 11  1  0
 17 18  1  1
 19 20  1  0
 19 17  1  0
 21 19  2  0
M  END
$$$$
