GLI.pdb
     RDKit          3D

 21 20  0  0  1  0  0  0  0  0999 V2000
   20.2835  -22.1616  -14.8823 N   0  0  0  0  0  0  0  0  0  0  0  0
   19.8835  -21.2635  -13.8427 C   0  0  0  0  0  0  0  0  0  0  0  0
   20.2520  -21.7721  -12.4968 C   0  0  0  0  0  0  0  0  0  0  0  0
   20.2854  -23.0044  -12.3002 O   0  0  0  0  0  0  0  0  0  0  0  0
   22.8141  -22.2357   -7.9693 C   0  0  0  0  0  0  0  0  0  0  0  0
   21.9435  -20.9695   -7.8356 C   0  0  1  0  0  0  0  0  0  0  0  0
   22.6444  -20.0207   -6.9352 C   0  0  0  0  0  0  0  0  0  0  0  0
   21.6497  -20.5167   -9.2080 C   0  0  0  0  0  0  0  0  0  0  0  0
   20.8128  -21.3723  -10.0766 C   0  0  2  0  0  0  0  0  0  0  0  0
   20.5732  -20.9150  -11.4056 N   0  0  0  0  0  0  0  0  0  0  0  0
   19.5300  -21.7874   -9.4072 C   0  0  0  0  0  0  0  0  0  0  0  0
   18.5411  -21.0431   -9.4821 O   0  0  0  0  0  0  0  0  0  0  0  0
   15.8550  -26.2547   -9.5562 C   0  0  0  0  0  0  0  0  0  0  0  0
   16.3759  -25.2217   -8.6191 C   0  0  0  0  0  0  0  0  0  0  0  0
   17.6119  -24.5175   -8.9946 C   0  0  2  0  0  0  0  0  0  0  0  0
   18.6284  -25.4888   -9.5954 C   0  0  0  0  0  0  0  0  0  0  0  0
   18.1961  -23.4985   -8.0900 C   0  0  2  0  0  0  0  0  0  0  0  0
   19.4547  -22.9947   -8.7110 N   0  0  0  0  0  0  0  0  0  0  0  0
   18.5281  -24.0088   -6.7758 C   0  0  0  0  0  0  0  0  0  0  0  0
   17.6593  -24.2034   -5.7072 O   0  0  0  0  0  0  0  0  0  0  0  0
   19.7388  -24.3256   -6.5151 O   0  0  0  0  0  0  0  0  0  0  0  0
  2  1  1  0
  3  2  1  0
  4  3  2  0
  6  5  1  6
  6  8  1  0
  7  6  1  0
  9  8  1  1
  9 10  1  0
  9 11  1  0
 10  3  1  0
 11 12  2  0
 14 13  1  0
 15 14  1  0
 15 16  1  1
 17 15  1  0
 18 11  1  0
 17 18  1  6
 19 20  1  0
 19 17  1  0
 21 19  2  0
M  END
$$$$
