NNH.pdb
     RDKit          3D

 27 27  0  0  1  0  0  0  0  0999 V2000
   15.1078  -13.3347    2.8659 N   0  0  0  0  0  0  0  0  0  0  0  0
   14.4355  -12.7690    3.9611 C   0  0  0  0  0  0  0  0  0  0  0  0
   13.3839  -12.1153    3.7720 O   0  0  0  0  0  0  0  0  0  0  0  0
   14.9570  -12.9372    5.3368 C   0  0  0  0  0  0  0  0  0  0  0  0
   16.3539  -13.5275    5.3407 C   0  0  2  0  0  0  0  0  0  0  0  0
   16.3804  -14.8502    4.7718 N   0  0  0  0  0  0  0  0  0  0  0  0
   16.8021  -13.6028    6.7413 C   0  0  0  0  0  0  0  0  0  0  0  0
   16.8359  -12.5621    7.4368 O   0  0  0  0  0  0  0  0  0  0  0  0
   16.4998  -15.7073   11.6365 N   0  0  0  0  0  0  0  0  0  0  0  0
   17.4582  -16.2384   10.7132 C   0  0  0  0  0  0  0  0  0  0  0  0
   18.5304  -16.7405   11.1345 O   0  0  0  0  0  0  0  0  0  0  0  0
   17.1577  -16.1810    9.2827 C   0  0  0  0  0  0  0  0  0  0  0  0
   17.5766  -14.8281    8.7228 C   0  0  2  0  0  0  0  0  0  0  0  0
   17.2011  -14.8261    7.3373 N   0  0  0  0  0  0  0  0  0  0  0  0
   19.0375  -14.6392    8.7969 C   0  0  0  0  0  0  0  0  0  0  0  0
   19.8223  -15.0857    7.8965 O   0  0  0  0  0  0  0  0  0  0  0  0
   19.6390  -13.9494    9.8774 N   0  0  0  0  0  0  0  0  0  0  0  0
   21.1315  -13.8124    9.9039 C   0  0  1  0  0  0  0  0  0  0  0  0
   21.3426  -12.3533   10.2035 C   0  0  0  0  0  0  0  0  0  0  0  0
   21.9398  -11.5711    9.1196 C   0  0  0  0  0  0  0  0  0  0  0  0
   22.2091  -11.8435    7.8102 C   0  0  0  0  0  0  0  0  0  0  0  0
   22.7141  -10.7123    7.2584 N   0  0  0  0  0  0  0  0  0  0  0  0
   22.7661   -9.7458    8.1824 C   0  0  0  0  0  0  0  0  0  0  0  0
   22.2951  -10.2711    9.3099 N   0  0  0  0  0  0  0  0  0  0  0  0
   21.5903  -14.5646   11.1233 C   0  0  0  0  0  0  0  0  0  0  0  0
   20.7118  -15.0744   11.8567 O   0  0  0  0  0  0  0  0  0  0  0  0
   22.8856  -14.6978   11.4349 O   0  0  0  0  0  0  0  0  0  0  0  0
  2  1  1  0
  3  2  2  0
  4  2  1  0
  5  4  1  0
  5  6  1  1
  7  5  1  0
  7  8  2  0
  9 10  1  0
 10 12  1  0
 10 11  2  0
 13 12  1  6
 13 14  1  0
 14  7  1  0
 15 13  1  0
 15 17  1  0
 16 15  2  0
 18 17  1  0
 18 19  1  1
 20 19  1  0
 20 21  2  0
 22 21  1  0
 23 22  1  0
 24 23  2  0
 24 20  1  0
 25 18  1  0
 26 25  2  0
 27 25  1  0
M  END
$$$$
