NNH.pdb
     RDKit          3D

 27 27  0  0  1  0  0  0  0  0999 V2000
   12.8433  -13.3954   -9.5431 N   0  0  0  0  0  0  0  0  0  0  0  0
   13.6525  -13.1376  -10.6613 C   0  0  0  0  0  0  0  0  0  0  0  0
   14.0259  -14.0871  -11.3878 O   0  0  0  0  0  0  0  0  0  0  0  0
   14.0688  -11.7550  -10.9901 C   0  0  0  0  0  0  0  0  0  0  0  0
   13.5854  -10.7601   -9.9527 C   0  0  2  0  0  0  0  0  0  0  0  0
   12.1545  -10.6008   -9.9861 N   0  0  0  0  0  0  0  0  0  0  0  0
   14.2156   -9.4632  -10.2512 C   0  0  0  0  0  0  0  0  0  0  0  0
   13.7770   -8.7645  -11.1932 O   0  0  0  0  0  0  0  0  0  0  0  0
   15.9198   -4.5181   -9.4841 N   0  0  0  0  0  0  0  0  0  0  0  0
   16.5807   -5.6026   -8.8207 C   0  0  0  0  0  0  0  0  0  0  0  0
   17.7729   -5.4797   -8.4429 O   0  0  0  0  0  0  0  0  0  0  0  0
   15.8379   -6.8430   -8.5976 C   0  0  0  0  0  0  0  0  0  0  0  0
   15.8777   -7.7001   -9.8558 C   0  0  2  0  0  0  0  0  0  0  0  0
   15.3141   -8.9717   -9.5010 N   0  0  0  0  0  0  0  0  0  0  0  0
   17.2613   -7.9289  -10.3126 C   0  0  0  0  0  0  0  0  0  0  0  0
   18.0699   -8.6754   -9.6685 O   0  0  0  0  0  0  0  0  0  0  0  0
   17.7578   -7.3270  -11.4941 N   0  0  0  0  0  0  0  0  0  0  0  0
   19.1494   -7.6586  -11.9423 C   0  0  1  0  0  0  0  0  0  0  0  0
   18.9317   -8.6582  -13.0453 C   0  0  0  0  0  0  0  0  0  0  0  0
   20.1383   -9.0695  -13.7653 C   0  0  0  0  0  0  0  0  0  0  0  0
   21.4665   -8.8179  -13.5818 C   0  0  0  0  0  0  0  0  0  0  0  0
   22.1439   -9.5180  -14.5253 N   0  0  0  0  0  0  0  0  0  0  0  0
   21.2794  -10.1972  -15.2882 C   0  0  0  0  0  0  0  0  0  0  0  0
   20.0639   -9.9224  -14.8234 N   0  0  0  0  0  0  0  0  0  0  0  0
   19.6759   -6.4121  -12.5997 C   0  0  0  0  0  0  0  0  0  0  0  0
   18.8399   -5.5832  -13.0282 O   0  0  0  0  0  0  0  0  0  0  0  0
   20.9868   -6.1749  -12.7345 O   0  0  0  0  0  0  0  0  0  0  0  0
  2  1  1  0
  3  2  2  0
  4  2  1  0
  5  4  1  0
  5  6  1  6
  7  5  1  0
  7  8  2  0
  9 10  1  0
 10 12  1  0
 10 11  2  0
 13 12  1  1
 13 14  1  0
 14  7  1  0
 15 13  1  0
 15 17  1  0
 16 15  2  0
 18 17  1  0
 18 19  1  6
 20 19  1  0
 20 21  2  0
 22 21  1  0
 23 22  1  0
 24 23  2  0
 24 20  1  0
 25 18  1  0
 26 25  2  0
 27 25  1  0
M  END
$$$$
