NNH.pdb
     RDKit          3D

 27 27  0  0  1  0  0  0  0  0999 V2000
   31.7437  -24.8282  -17.9554 N   0  0  0  0  0  0  0  0  0  0  0  0
   30.7914  -25.1373  -16.9710 C   0  0  0  0  0  0  0  0  0  0  0  0
   31.1480  -25.2401  -15.7747 O   0  0  0  0  0  0  0  0  0  0  0  0
   29.3702  -25.3429  -17.3328 C   0  0  0  0  0  0  0  0  0  0  0  0
   29.1567  -25.2798  -18.8329 C   0  0  2  0  0  0  0  0  0  0  0  0
   29.3427  -23.9475  -19.3470 N   0  0  0  0  0  0  0  0  0  0  0  0
   27.7736  -25.7059  -19.1046 C   0  0  0  0  0  0  0  0  0  0  0  0
   26.8445  -24.8689  -19.0399 O   0  0  0  0  0  0  0  0  0  0  0  0
   26.5427  -28.6355  -23.2571 N   0  0  0  0  0  0  0  0  0  0  0  0
   26.2012  -27.8202  -22.1294 C   0  0  0  0  0  0  0  0  0  0  0  0
   25.9786  -26.5927  -22.2814 O   0  0  0  0  0  0  0  0  0  0  0  0
   26.1198  -28.4486  -20.8109 C   0  0  0  0  0  0  0  0  0  0  0  0
   26.0862  -27.3757  -19.7306 C   0  0  2  0  0  0  0  0  0  0  0  0
   27.4529  -27.0456  -19.4411 N   0  0  0  0  0  0  0  0  0  0  0  0
   25.4676  -27.8756  -18.4886 C   0  0  0  0  0  0  0  0  0  0  0  0
   26.0854  -28.6595  -17.6950 O   0  0  0  0  0  0  0  0  0  0  0  0
   24.1518  -27.5060  -18.1183 N   0  0  0  0  0  0  0  0  0  0  0  0
   23.6573  -27.8733  -16.7516 C   0  0  1  0  0  0  0  0  0  0  0  0
   22.8572  -26.6694  -16.3350 C   0  0  0  0  0  0  0  0  0  0  0  0
   23.6443  -25.4947  -15.9555 C   0  0  0  0  0  0  0  0  0  0  0  0
   24.9820  -25.2266  -15.9575 C   0  0  0  0  0  0  0  0  0  0  0  0
   25.1362  -23.9402  -15.5571 N   0  0  0  0  0  0  0  0  0  0  0  0
   23.9376  -23.4001  -15.3077 C   0  0  0  0  0  0  0  0  0  0  0  0
   23.0354  -24.3466  -15.5510 N   0  0  0  0  0  0  0  0  0  0  0  0
   22.6675  -28.9869  -16.9599 C   0  0  0  0  0  0  0  0  0  0  0  0
   22.3530  -29.2725  -18.1385 O   0  0  0  0  0  0  0  0  0  0  0  0
   22.1276  -29.6629  -15.9380 O   0  0  0  0  0  0  0  0  0  0  0  0
  2  1  1  0
  3  2  2  0
  4  2  1  0
  5  4  1  0
  5  6  1  1
  7  5  1  0
  7  8  2  0
  9 10  1  0
 10 12  1  0
 10 11  2  0
 13 12  1  6
 13 14  1  0
 14  7  1  0
 15 13  1  0
 15 17  1  0
 16 15  2  0
 18 17  1  0
 18 19  1  6
 20 19  1  0
 20 21  2  0
 22 21  1  0
 23 22  1  0
 24 23  2  0
 24 20  1  0
 25 18  1  0
 26 25  2  0
 27 25  1  0
M  END
$$$$
