NNH.pdb
     RDKit          3D

 27 27  0  0  1  0  0  0  0  0999 V2000
   25.9279  -21.1500   -8.7730 N   0  0  0  0  0  0  0  0  0  0  0  0
   25.8989  -19.9236   -9.4562 C   0  0  0  0  0  0  0  0  0  0  0  0
   26.1938  -18.8689   -8.8484 O   0  0  0  0  0  0  0  0  0  0  0  0
   25.5235  -19.8647  -10.8874 C   0  0  0  0  0  0  0  0  0  0  0  0
   25.2445  -21.2438  -11.4531 C   0  0  2  0  0  0  0  0  0  0  0  0
   26.4551  -21.9224  -11.8374 N   0  0  0  0  0  0  0  0  0  0  0  0
   24.3958  -21.0736  -12.6444 C   0  0  0  0  0  0  0  0  0  0  0  0
   24.9274  -20.9781  -13.7741 O   0  0  0  0  0  0  0  0  0  0  0  0
   22.1698  -23.6796  -14.0744 N   0  0  0  0  0  0  0  0  0  0  0  0
   20.9586  -23.1110  -13.5620 C   0  0  0  0  0  0  0  0  0  0  0  0
   19.9982  -23.8547  -13.2398 O   0  0  0  0  0  0  0  0  0  0  0  0
   20.8715  -21.6570  -13.4255 C   0  0  0  0  0  0  0  0  0  0  0  0
   22.2143  -21.0265  -13.7697 C   0  0  2  0  0  0  0  0  0  0  0  0
   22.9817  -21.0135  -12.5566 N   0  0  0  0  0  0  0  0  0  0  0  0
   22.0583  -19.6315  -14.2225 C   0  0  0  0  0  0  0  0  0  0  0  0
   21.6615  -18.7077  -13.4380 O   0  0  0  0  0  0  0  0  0  0  0  0
   22.3437  -19.2518  -15.5563 N   0  0  0  0  0  0  0  0  0  0  0  0
   22.2026  -17.8099  -15.9415 C   0  0  1  0  0  0  0  0  0  0  0  0
   22.9944  -17.7104  -17.2168 C   0  0  0  0  0  0  0  0  0  0  0  0
   22.9741  -16.3984  -17.8662 C   0  0  0  0  0  0  0  0  0  0  0  0
   22.4627  -15.1861  -17.5059 C   0  0  0  0  0  0  0  0  0  0  0  0
   22.7979  -14.3018  -18.4779 N   0  0  0  0  0  0  0  0  0  0  0  0
   23.5021  -14.9255  -19.4297 C   0  0  0  0  0  0  0  0  0  0  0  0
   23.6068  -16.1971  -19.0543 N   0  0  0  0  0  0  0  0  0  0  0  0
   20.7594  -17.6278  -16.3251 C   0  0  0  0  0  0  0  0  0  0  0  0
   20.1294  -18.6382  -16.7149 O   0  0  0  0  0  0  0  0  0  0  0  0
   20.1480  -16.4383  -16.2614 O   0  0  0  0  0  0  0  0  0  0  0  0
  2  1  1  0
  3  2  2  0
  4  2  1  0
  5  4  1  0
  5  6  1  6
  7  5  1  0
  7  8  2  0
  9 10  1  0
 10 12  1  0
 10 11  2  0
 13 12  1  1
 13 14  1  0
 14  7  1  0
 15 13  1  0
 15 17  1  0
 16 15  2  0
 18 17  1  0
 18 19  1  6
 20 19  1  0
 20 21  2  0
 22 21  1  0
 23 22  1  0
 24 23  2  0
 24 20  1  0
 25 18  1  0
 26 25  2  0
 27 25  1  0
M  END
$$$$
