NNH.pdb
     RDKit          3D

 27 27  0  0  1  0  0  0  0  0999 V2000
   30.4684  -23.7009  -17.2978 N   0  0  0  0  0  0  0  0  0  0  0  0
   29.2270  -23.1622  -17.6723 C   0  0  0  0  0  0  0  0  0  0  0  0
   29.1230  -22.5395  -18.7541 O   0  0  0  0  0  0  0  0  0  0  0  0
   28.0400  -23.3227  -16.8016 C   0  0  0  0  0  0  0  0  0  0  0  0
   27.3880  -21.9899  -16.4880 C   0  0  2  0  0  0  0  0  0  0  0  0
   28.3534  -21.0008  -16.0836 N   0  0  0  0  0  0  0  0  0  0  0  0
   26.4382  -22.2071  -15.3838 C   0  0  0  0  0  0  0  0  0  0  0  0
   26.0931  -23.3732  -15.0852 O   0  0  0  0  0  0  0  0  0  0  0  0
   25.3422  -21.7157  -10.0209 N   0  0  0  0  0  0  0  0  0  0  0  0
   24.8088  -20.9922  -11.1367 C   0  0  0  0  0  0  0  0  0  0  0  0
   23.6310  -20.5553  -11.1018 O   0  0  0  0  0  0  0  0  0  0  0  0
   25.6632  -20.7784  -12.3048 C   0  0  0  0  0  0  0  0  0  0  0  0
   25.0312  -21.4256  -13.5300 C   0  0  2  0  0  0  0  0  0  0  0  0
   25.8946  -21.1304  -14.6382 N   0  0  0  0  0  0  0  0  0  0  0  0
   23.7046  -20.8514  -13.8232 C   0  0  0  0  0  0  0  0  0  0  0  0
   23.5612  -19.6416  -14.1997 O   0  0  0  0  0  0  0  0  0  0  0  0
   22.5230  -21.6216  -13.6995 N   0  0  0  0  0  0  0  0  0  0  0  0
   21.2082  -20.9836  -14.0337 C   0  0  1  0  0  0  0  0  0  0  0  0
   20.5995  -21.9376  -15.0250 C   0  0  0  0  0  0  0  0  0  0  0  0
   21.0508  -21.7761  -16.4083 C   0  0  0  0  0  0  0  0  0  0  0  0
   21.9216  -20.9168  -17.0121 C   0  0  0  0  0  0  0  0  0  0  0  0
   21.9996  -21.2732  -18.3183 N   0  0  0  0  0  0  0  0  0  0  0  0
   21.2064  -22.3268  -18.5450 C   0  0  0  0  0  0  0  0  0  0  0  0
   20.6330  -22.6287  -17.3835 N   0  0  0  0  0  0  0  0  0  0  0  0
   20.3753  -21.0837  -12.7849 C   0  0  0  0  0  0  0  0  0  0  0  0
   20.6039  -22.0400  -12.0085 O   0  0  0  0  0  0  0  0  0  0  0  0
   19.4176  -20.1950  -12.4920 O   0  0  0  0  0  0  0  0  0  0  0  0
  2  1  1  0
  3  2  2  0
  4  2  1  0
  5  4  1  0
  5  6  1  1
  7  5  1  0
  7  8  2  0
  9 10  1  0
 10 12  1  0
 10 11  2  0
 13 12  1  1
 13 14  1  0
 14  7  1  0
 15 13  1  0
 15 17  1  0
 16 15  2  0
 18 17  1  0
 18 19  1  6
 20 19  1  0
 20 21  2  0
 22 21  1  0
 23 22  1  0
 24 23  2  0
 24 20  1  0
 25 18  1  0
 26 25  2  0
 27 25  1  0
M  END
$$$$
