NNH.pdb
     RDKit          3D

 27 27  0  0  1  0  0  0  0  0999 V2000
   17.6250   -2.5325  -17.5711 N   0  0  0  0  0  0  0  0  0  0  0  0
   18.6175   -3.2759  -18.2297 C   0  0  0  0  0  0  0  0  0  0  0  0
   19.1171   -2.8381  -19.2916 O   0  0  0  0  0  0  0  0  0  0  0  0
   19.0792   -4.5719  -17.6819 C   0  0  0  0  0  0  0  0  0  0  0  0
   18.4948   -4.8426  -16.3089 C   0  0  2  0  0  0  0  0  0  0  0  0
   19.0657   -3.9850  -15.3028 N   0  0  0  0  0  0  0  0  0  0  0  0
   18.7933   -6.2431  -15.9656 C   0  0  0  0  0  0  0  0  0  0  0  0
   18.2895   -7.1672  -16.6440 O   0  0  0  0  0  0  0  0  0  0  0  0
   20.7242  -10.4996  -14.3696 N   0  0  0  0  0  0  0  0  0  0  0  0
   21.7677   -9.5192  -14.3173 C   0  0  0  0  0  0  0  0  0  0  0  0
   22.9619   -9.8755  -14.1555 O   0  0  0  0  0  0  0  0  0  0  0  0
   21.4090   -8.1077  -14.4558 C   0  0  0  0  0  0  0  0  0  0  0  0
   19.9011   -7.9739  -14.6223 C   0  0  2  0  0  0  0  0  0  0  0  0
   19.6410   -6.5863  -14.8818 N   0  0  0  0  0  0  0  0  0  0  0  0
   19.1839   -8.3467  -13.3886 C   0  0  0  0  0  0  0  0  0  0  0  0
   19.2404   -9.5254  -12.9052 O   0  0  0  0  0  0  0  0  0  0  0  0
   18.3956   -7.4077  -12.6803 N   0  0  0  0  0  0  0  0  0  0  0  0
   17.6365   -7.8687  -11.4726 C   0  0  1  0  0  0  0  0  0  0  0  0
   17.2384   -6.5836  -10.7994 C   0  0  0  0  0  0  0  0  0  0  0  0
   16.3140   -6.7266   -9.6731 C   0  0  0  0  0  0  0  0  0  0  0  0
   16.1283   -7.6998   -8.7352 C   0  0  0  0  0  0  0  0  0  0  0  0
   15.1615   -7.2656   -7.8891 N   0  0  0  0  0  0  0  0  0  0  0  0
   14.7416   -6.0535   -8.2704 C   0  0  0  0  0  0  0  0  0  0  0  0
   15.4436   -5.7304   -9.3528 N   0  0  0  0  0  0  0  0  0  0  0  0
   16.3667   -8.4821  -11.9965 C   0  0  0  0  0  0  0  0  0  0  0  0
   15.8715   -7.9933  -13.0383 O   0  0  0  0  0  0  0  0  0  0  0  0
   15.7681   -9.5139  -11.3884 O   0  0  0  0  0  0  0  0  0  0  0  0
  2  1  1  0
  3  2  2  0
  4  2  1  0
  5  4  1  0
  5  6  1  1
  7  5  1  0
  7  8  2  0
  9 10  1  0
 10 12  1  0
 10 11  2  0
 13 12  1  1
 13 14  1  0
 14  7  1  0
 15 13  1  0
 15 17  1  0
 16 15  2  0
 18 17  1  0
 18 19  1  1
 20 19  1  0
 20 21  2  0
 22 21  1  0
 23 22  1  0
 24 23  2  0
 24 20  1  0
 25 18  1  0
 26 25  2  0
 27 25  1  0
M  END
$$$$
