NNH.pdb
     RDKit          3D

 27 27  0  0  1  0  0  0  0  0999 V2000
   26.7014  -12.4038  -15.5809 N   0  0  0  0  0  0  0  0  0  0  0  0
   26.1408  -12.3431  -16.8667 C   0  0  0  0  0  0  0  0  0  0  0  0
   26.7340  -12.8856  -17.8273 O   0  0  0  0  0  0  0  0  0  0  0  0
   24.8559  -11.6443  -17.0987 C   0  0  0  0  0  0  0  0  0  0  0  0
   24.3346  -10.9907  -15.8335 C   0  0  2  0  0  0  0  0  0  0  0  0
   23.9989  -11.9625  -14.8252 N   0  0  0  0  0  0  0  0  0  0  0  0
   23.1215  -10.2355  -16.1892 C   0  0  0  0  0  0  0  0  0  0  0  0
   22.5274  -10.4890  -17.2620 O   0  0  0  0  0  0  0  0  0  0  0  0
   19.8259  -10.7967  -15.6644 N   0  0  0  0  0  0  0  0  0  0  0  0
   19.6365   -9.9095  -14.5553 C   0  0  0  0  0  0  0  0  0  0  0  0
   18.7848  -10.1767  -13.6707 O   0  0  0  0  0  0  0  0  0  0  0  0
   20.4526   -8.6976  -14.4817 C   0  0  0  0  0  0  0  0  0  0  0  0
   21.3493   -8.6057  -15.7092 C   0  0  2  0  0  0  0  0  0  0  0  0
   22.5961   -9.2201  -15.3503 N   0  0  0  0  0  0  0  0  0  0  0  0
   21.6238   -7.2040  -16.0767 C   0  0  0  0  0  0  0  0  0  0  0  0
   22.4801   -6.4972  -15.4496 O   0  0  0  0  0  0  0  0  0  0  0  0
   20.9454   -6.5753  -17.1487 N   0  0  0  0  0  0  0  0  0  0  0  0
   21.2127   -5.1253  -17.4199 C   0  0  1  0  0  0  0  0  0  0  0  0
   20.5305   -4.8857  -18.7392 C   0  0  0  0  0  0  0  0  0  0  0  0
   20.5362   -3.4976  -19.2045 C   0  0  0  0  0  0  0  0  0  0  0  0
   19.5970   -2.5081  -19.2020 C   0  0  0  0  0  0  0  0  0  0  0  0
   20.1824   -1.3949  -19.7090 N   0  0  0  0  0  0  0  0  0  0  0  0
   21.4553   -1.6605  -20.0251 C   0  0  0  0  0  0  0  0  0  0  0  0
   21.6656   -2.9372  -19.7171 N   0  0  0  0  0  0  0  0  0  0  0  0
   20.4223   -4.3637  -16.3912 C   0  0  0  0  0  0  0  0  0  0  0  0
   19.3837   -4.9008  -15.9412 O   0  0  0  0  0  0  0  0  0  0  0  0
   20.7948   -3.1533  -15.9566 O   0  0  0  0  0  0  0  0  0  0  0  0
  2  1  1  0
  3  2  2  0
  4  2  1  0
  5  4  1  0
  5  6  1  1
  7  5  1  0
  7  8  2  0
  9 10  1  0
 10 12  1  0
 10 11  2  0
 13 12  1  1
 13 14  1  0
 14  7  1  0
 15 13  1  0
 15 17  1  0
 16 15  2  0
 18 17  1  0
 18 19  1  6
 20 19  1  0
 20 21  2  0
 22 21  1  0
 23 22  1  0
 24 23  2  0
 24 20  1  0
 25 18  1  0
 26 25  2  0
 27 25  1  0
M  END
$$$$
