NNH.pdb
     RDKit          3D

 27 27  0  0  1  0  0  0  0  0999 V2000
   16.3662  -21.4189  -15.7483 N   0  0  0  0  0  0  0  0  0  0  0  0
   17.0019  -21.2449  -14.5085 C   0  0  0  0  0  0  0  0  0  0  0  0
   16.6211  -21.9108  -13.5183 O   0  0  0  0  0  0  0  0  0  0  0  0
   18.1175  -20.2825  -14.3598 C   0  0  0  0  0  0  0  0  0  0  0  0
   18.4385  -19.5868  -15.6685 C   0  0  2  0  0  0  0  0  0  0  0  0
   19.3448  -20.3581  -16.4794 N   0  0  0  0  0  0  0  0  0  0  0  0
   19.0704  -18.2968  -15.3443 C   0  0  0  0  0  0  0  0  0  0  0  0
   19.0720  -17.8890  -14.1604 O   0  0  0  0  0  0  0  0  0  0  0  0
   22.1447  -17.5800  -14.4515 N   0  0  0  0  0  0  0  0  0  0  0  0
   22.6539  -17.0307  -15.6729 C   0  0  0  0  0  0  0  0  0  0  0  0
   23.8678  -17.1656  -15.9687 O   0  0  0  0  0  0  0  0  0  0  0  0
   21.7323  -16.3164  -16.5564 C   0  0  0  0  0  0  0  0  0  0  0  0
   20.3437  -16.2818  -15.9321 C   0  0  2  0  0  0  0  0  0  0  0  0
   19.6844  -17.4910  -16.3365 N   0  0  0  0  0  0  0  0  0  0  0  0
   19.5515  -15.1435  -16.4342 C   0  0  0  0  0  0  0  0  0  0  0  0
   18.8734  -15.2164  -17.5116 O   0  0  0  0  0  0  0  0  0  0  0  0
   19.5072  -13.9108  -15.7390 N   0  0  0  0  0  0  0  0  0  0  0  0
   18.7624  -12.7635  -16.3523 C   0  0  1  0  0  0  0  0  0  0  0  0
   18.6567  -11.7735  -15.2244 C   0  0  0  0  0  0  0  0  0  0  0  0
   18.0495  -10.4880  -15.5739 C   0  0  0  0  0  0  0  0  0  0  0  0
   17.3620  -10.0463  -16.6664 C   0  0  0  0  0  0  0  0  0  0  0  0
   16.9792   -8.7702  -16.4135 N   0  0  0  0  0  0  0  0  0  0  0  0
   17.4057   -8.4053  -15.1987 C   0  0  0  0  0  0  0  0  0  0  0  0
   18.0542   -9.4505  -14.6929 N   0  0  0  0  0  0  0  0  0  0  0  0
   19.7010  -12.1575  -17.3597 C   0  0  0  0  0  0  0  0  0  0  0  0
   20.9306  -12.3102  -17.1742 O   0  0  0  0  0  0  0  0  0  0  0  0
   19.2621  -11.4744  -18.4243 O   0  0  0  0  0  0  0  0  0  0  0  0
  2  1  1  0
  3  2  2  0
  4  2  1  0
  5  4  1  0
  5  6  1  6
  7  5  1  0
  7  8  2  0
  9 10  1  0
 10 12  1  0
 10 11  2  0
 13 12  1  6
 13 14  1  0
 14  7  1  0
 15 13  1  0
 15 17  1  0
 16 15  2  0
 18 17  1  0
 18 19  1  1
 20 19  1  0
 20 21  2  0
 22 21  1  0
 23 22  1  0
 24 23  2  0
 24 20  1  0
 25 18  1  0
 26 25  2  0
 27 25  1  0
M  END
$$$$
