NNH.pdb
     RDKit          3D

 27 27  0  0  1  0  0  0  0  0999 V2000
   12.7048   -7.8153   -7.9159 N   0  0  0  0  0  0  0  0  0  0  0  0
   14.0583   -7.4522   -8.0030 C   0  0  0  0  0  0  0  0  0  0  0  0
   14.5615   -6.7208   -7.1193 O   0  0  0  0  0  0  0  0  0  0  0  0
   14.8966   -7.9250   -9.1285 C   0  0  0  0  0  0  0  0  0  0  0  0
   14.1195   -8.8257  -10.0691 C   0  0  2  0  0  0  0  0  0  0  0  0
   13.8303  -10.1042   -9.4728 N   0  0  0  0  0  0  0  0  0  0  0  0
   14.9465   -9.0365  -11.2691 C   0  0  0  0  0  0  0  0  0  0  0  0
   15.5834  -10.1065  -11.4013 O   0  0  0  0  0  0  0  0  0  0  0  0
   15.7089   -9.8527  -16.3128 N   0  0  0  0  0  0  0  0  0  0  0  0
   15.5527   -8.4894  -15.9005 C   0  0  0  0  0  0  0  0  0  0  0  0
   16.0166   -7.5587  -16.6062 O   0  0  0  0  0  0  0  0  0  0  0  0
   14.8463   -8.2135  -14.6495 C   0  0  0  0  0  0  0  0  0  0  0  0
   15.8005   -8.3742  -13.4735 C   0  0  2  0  0  0  0  0  0  0  0  0
   15.0483   -8.0597  -12.2920 N   0  0  0  0  0  0  0  0  0  0  0  0
   16.9292   -7.4285  -13.5576 C   0  0  0  0  0  0  0  0  0  0  0  0
   16.8508   -6.2416  -13.0981 O   0  0  0  0  0  0  0  0  0  0  0  0
   18.1585   -7.7972  -14.1556 N   0  0  0  0  0  0  0  0  0  0  0  0
   19.2818   -6.8044  -14.1659 C   0  0  1  0  0  0  0  0  0  0  0  0
   20.4909   -7.6425  -13.8512 C   0  0  0  0  0  0  0  0  0  0  0  0
   20.7189   -7.9043  -12.4289 C   0  0  0  0  0  0  0  0  0  0  0  0
   20.1120   -7.4636  -11.2894 C   0  0  0  0  0  0  0  0  0  0  0  0
   20.7077   -8.0924  -10.2459 N   0  0  0  0  0  0  0  0  0  0  0  0
   21.6642   -8.9103  -10.7006 C   0  0  0  0  0  0  0  0  0  0  0  0
   21.6673   -8.7932  -12.0255 N   0  0  0  0  0  0  0  0  0  0  0  0
   19.4306   -6.3692  -15.5982 C   0  0  0  0  0  0  0  0  0  0  0  0
   18.7559   -6.9746  -16.4630 O   0  0  0  0  0  0  0  0  0  0  0  0
   20.2490   -5.3734  -15.9607 O   0  0  0  0  0  0  0  0  0  0  0  0
  2  1  1  0
  3  2  2  0
  4  2  1  0
  5  4  1  0
  5  6  1  1
  7  5  1  0
  7  8  2  0
  9 10  1  0
 10 12  1  0
 10 11  2  0
 13 12  1  6
 13 14  1  0
 14  7  1  0
 15 13  1  0
 15 17  1  0
 16 15  2  0
 18 17  1  0
 18 19  1  6
 20 19  1  0
 20 21  2  0
 22 21  1  0
 23 22  1  0
 24 23  2  0
 24 20  1  0
 25 18  1  0
 26 25  2  0
 27 25  1  0
M  END
$$$$
