NNH.pdb
     RDKit          3D

 27 27  0  0  1  0  0  0  0  0999 V2000
   11.4549  -12.7103  -16.2246 N   0  0  0  0  0  0  0  0  0  0  0  0
   12.6314  -12.5771  -16.9794 C   0  0  0  0  0  0  0  0  0  0  0  0
   13.0601  -13.5539  -17.6359 O   0  0  0  0  0  0  0  0  0  0  0  0
   13.3702  -11.2940  -17.0070 C   0  0  0  0  0  0  0  0  0  0  0  0
   14.5192  -11.2850  -16.0172 C   0  0  2  0  0  0  0  0  0  0  0  0
   14.0547  -11.2843  -14.6541 N   0  0  0  0  0  0  0  0  0  0  0  0
   15.3017  -10.0603  -16.2539 C   0  0  0  0  0  0  0  0  0  0  0  0
   16.1017  -10.0136  -17.2161 O   0  0  0  0  0  0  0  0  0  0  0  0
   17.1320   -5.3960  -16.1772 N   0  0  0  0  0  0  0  0  0  0  0  0
   15.8605   -5.3150  -15.5218 C   0  0  0  0  0  0  0  0  0  0  0  0
   15.3720   -4.1953  -15.2266 O   0  0  0  0  0  0  0  0  0  0  0  0
   15.1542   -6.5573  -15.2090 C   0  0  0  0  0  0  0  0  0  0  0  0
   15.9423   -7.7458  -15.7436 C   0  0  2  0  0  0  0  0  0  0  0  0
   15.1800   -8.9187  -15.4214 N   0  0  0  0  0  0  0  0  0  0  0  0
   17.2572   -7.8648  -15.0860 C   0  0  0  0  0  0  0  0  0  0  0  0
   17.4018   -8.4646  -13.9700 O   0  0  0  0  0  0  0  0  0  0  0  0
   18.4257   -7.3155  -15.6670 N   0  0  0  0  0  0  0  0  0  0  0  0
   19.7441   -7.5479  -14.9923 C   0  0  1  0  0  0  0  0  0  0  0  0
   20.1110   -8.9442  -15.4152 C   0  0  0  0  0  0  0  0  0  0  0  0
   21.4753   -9.3607  -15.0855 C   0  0  0  0  0  0  0  0  0  0  0  0
   22.4789   -8.7838  -14.3636 C   0  0  0  0  0  0  0  0  0  0  0  0
   23.5137   -9.6600  -14.3395 N   0  0  0  0  0  0  0  0  0  0  0  0
   23.1847  -10.7630  -15.0221 C   0  0  0  0  0  0  0  0  0  0  0  0
   21.9472  -10.5772  -15.4726 N   0  0  0  0  0  0  0  0  0  0  0  0
   20.7209   -6.6295  -15.6747 C   0  0  0  0  0  0  0  0  0  0  0  0
   21.8040   -6.3948  -15.0903 O   0  0  0  0  0  0  0  0  0  0  0  0
   20.4644   -6.0703  -16.8639 O   0  0  0  0  0  0  0  0  0  0  0  0
  2  1  1  0
  3  2  2  0
  4  2  1  0
  5  4  1  0
  5  6  1  1
  7  5  1  0
  7  8  2  0
  9 10  1  0
 10 12  1  0
 10 11  2  0
 13 12  1  1
 13 14  1  0
 14  7  1  0
 15 13  1  0
 15 17  1  0
 16 15  2  0
 18 17  1  0
 18 19  1  6
 20 19  1  0
 20 21  2  0
 22 21  1  0
 23 22  1  0
 24 23  2  0
 24 20  1  0
 25 18  1  0
 26 25  2  0
 27 25  1  0
M  END
$$$$
