NNH.pdb
     RDKit          3D

 27 27  0  0  1  0  0  0  0  0999 V2000
   19.0693  -16.4901  -18.3113 N   0  0  0  0  0  0  0  0  0  0  0  0
   18.8730  -17.8139  -17.8866 C   0  0  0  0  0  0  0  0  0  0  0  0
   17.7345  -18.1838  -17.5180 O   0  0  0  0  0  0  0  0  0  0  0  0
   19.9979  -18.7769  -17.8700 C   0  0  0  0  0  0  0  0  0  0  0  0
   21.2774  -18.1564  -18.3969 C   0  0  2  0  0  0  0  0  0  0  0  0
   21.2983  -18.1072  -19.8360 N   0  0  0  0  0  0  0  0  0  0  0  0
   22.4003  -18.9884  -17.9329 C   0  0  0  0  0  0  0  0  0  0  0  0
   22.8975  -19.8416  -18.7030 O   0  0  0  0  0  0  0  0  0  0  0  0
   26.6517  -19.9453  -17.1440 N   0  0  0  0  0  0  0  0  0  0  0  0
   26.4665  -18.8188  -16.2781 C   0  0  0  0  0  0  0  0  0  0  0  0
   27.4408  -18.0824  -15.9822 O   0  0  0  0  0  0  0  0  0  0  0  0
   25.1270  -18.5523  -15.7538 C   0  0  0  0  0  0  0  0  0  0  0  0
   24.1445  -19.5755  -16.3080 C   0  0  2  0  0  0  0  0  0  0  0  0
   22.9449  -18.8561  -16.6303 N   0  0  0  0  0  0  0  0  0  0  0  0
   23.8030  -20.5994  -15.3028 C   0  0  0  0  0  0  0  0  0  0  0  0
   24.6973  -21.2002  -14.6208 O   0  0  0  0  0  0  0  0  0  0  0  0
   22.4589  -20.9641  -15.0476 N   0  0  0  0  0  0  0  0  0  0  0  0
   22.0804  -21.4003  -13.6641 C   0  0  1  0  0  0  0  0  0  0  0  0
   22.8002  -20.4188  -12.7799 C   0  0  0  0  0  0  0  0  0  0  0  0
   23.9753  -20.9468  -12.0845 C   0  0  0  0  0  0  0  0  0  0  0  0
   24.6675  -22.1187  -12.1782 C   0  0  0  0  0  0  0  0  0  0  0  0
   25.7184  -22.0359  -11.3250 N   0  0  0  0  0  0  0  0  0  0  0  0
   25.7020  -20.8500  -10.7053 C   0  0  0  0  0  0  0  0  0  0  0  0
   24.6431  -20.1925  -11.1692 N   0  0  0  0  0  0  0  0  0  0  0  0
   20.6135  -21.0965  -13.5259 C   0  0  0  0  0  0  0  0  0  0  0  0
   20.0878  -20.3606  -14.3929 O   0  0  0  0  0  0  0  0  0  0  0  0
   19.8750  -21.5830  -12.5206 O   0  0  0  0  0  0  0  0  0  0  0  0
  2  1  1  0
  3  2  2  0
  4  2  1  0
  5  4  1  0
  5  6  1  6
  7  5  1  0
  7  8  2  0
  9 10  1  0
 10 12  1  0
 10 11  2  0
 13 12  1  1
 13 14  1  0
 14  7  1  0
 15 13  1  0
 15 17  1  0
 16 15  2  0
 18 17  1  0
 18 19  1  1
 20 19  1  0
 20 21  2  0
 22 21  1  0
 23 22  1  0
 24 23  2  0
 24 20  1  0
 25 18  1  0
 26 25  2  0
 27 25  1  0
M  END
$$$$
