NNH.pdb
     RDKit          3D

 27 27  0  0  1  0  0  0  0  0999 V2000
   18.4159  -15.3729  -16.2613 N   0  0  0  0  0  0  0  0  0  0  0  0
   17.6364  -14.7184  -17.2286 C   0  0  0  0  0  0  0  0  0  0  0  0
   16.9877  -15.3928  -18.0613 O   0  0  0  0  0  0  0  0  0  0  0  0
   17.5736  -13.2396  -17.2742 C   0  0  0  0  0  0  0  0  0  0  0  0
   18.3684  -12.6078  -16.1477 C   0  0  2  0  0  0  0  0  0  0  0  0
   17.7821  -12.8754  -14.8599 N   0  0  0  0  0  0  0  0  0  0  0  0
   18.3800  -11.1525  -16.3721 C   0  0  0  0  0  0  0  0  0  0  0  0
   18.8202  -10.6966  -17.4521 O   0  0  0  0  0  0  0  0  0  0  0  0
   17.6796   -6.2137  -16.1297 N   0  0  0  0  0  0  0  0  0  0  0  0
   16.6298   -6.7992  -15.3499 C   0  0  0  0  0  0  0  0  0  0  0  0
   15.6714   -6.0924  -14.9484 O   0  0  0  0  0  0  0  0  0  0  0  0
   16.7031   -8.2265  -15.0374 C   0  0  0  0  0  0  0  0  0  0  0  0
   17.9342   -8.8348  -15.6961 C   0  0  2  0  0  0  0  0  0  0  0  0
   17.9047  -10.2386  -15.3975 N   0  0  0  0  0  0  0  0  0  0  0  0
   19.1799   -8.2782  -15.1360 C   0  0  0  0  0  0  0  0  0  0  0  0
   19.6325   -8.6444  -14.0015 O   0  0  0  0  0  0  0  0  0  0  0  0
   19.9348   -7.3064  -15.8364 N   0  0  0  0  0  0  0  0  0  0  0  0
   21.1949   -6.7855  -15.2134 C   0  0  1  0  0  0  0  0  0  0  0  0
   22.2435   -7.0761  -16.2522 C   0  0  0  0  0  0  0  0  0  0  0  0
   22.7587   -8.4465  -16.2562 C   0  0  0  0  0  0  0  0  0  0  0  0
   22.9360   -9.3802  -15.2775 C   0  0  0  0  0  0  0  0  0  0  0  0
   23.3951  -10.5081  -15.8743 N   0  0  0  0  0  0  0  0  0  0  0  0
   23.5075  -10.3055  -17.1923 C   0  0  0  0  0  0  0  0  0  0  0  0
   23.1201   -9.0536  -17.4195 N   0  0  0  0  0  0  0  0  0  0  0  0
   21.0436   -5.2894  -15.1728 C   0  0  0  0  0  0  0  0  0  0  0  0
   20.0268   -4.7929  -15.7105 O   0  0  0  0  0  0  0  0  0  0  0  0
   21.9502   -4.4954  -14.5892 O   0  0  0  0  0  0  0  0  0  0  0  0
  2  1  1  0
  3  2  2  0
  4  2  1  0
  5  4  1  0
  5  6  1  1
  7  5  1  0
  7  8  2  0
  9 10  1  0
 10 12  1  0
 10 11  2  0
 13 12  1  1
 13 14  1  0
 14  7  1  0
 15 13  1  0
 15 17  1  0
 16 15  2  0
 18 17  1  0
 18 19  1  6
 20 19  1  0
 20 21  2  0
 22 21  1  0
 23 22  1  0
 24 23  2  0
 24 20  1  0
 25 18  1  0
 26 25  2  0
 27 25  1  0
M  END
$$$$
