NNH.pdb
     RDKit          3D

 27 27  0  0  1  0  0  0  0  0999 V2000
   23.2820  -13.8165  -18.4313 N   0  0  0  0  0  0  0  0  0  0  0  0
   23.6007  -12.4493  -18.4556 C   0  0  0  0  0  0  0  0  0  0  0  0
   24.4487  -12.0253  -19.2742 O   0  0  0  0  0  0  0  0  0  0  0  0
   22.9446  -11.5038  -17.5237 C   0  0  0  0  0  0  0  0  0  0  0  0
   23.9567  -10.7437  -16.6884 C   0  0  2  0  0  0  0  0  0  0  0  0
   24.7137  -11.6197  -15.8320 N   0  0  0  0  0  0  0  0  0  0  0  0
   23.2148   -9.7852  -15.8522 C   0  0  0  0  0  0  0  0  0  0  0  0
   22.6779  -10.1766  -14.7908 O   0  0  0  0  0  0  0  0  0  0  0  0
   21.2299   -5.6595  -13.8135 N   0  0  0  0  0  0  0  0  0  0  0  0
   22.5345   -5.3314  -14.3070 C   0  0  0  0  0  0  0  0  0  0  0  0
   23.0857   -4.2541  -13.9683 O   0  0  0  0  0  0  0  0  0  0  0  0
   23.1998   -6.2744  -15.2060 C   0  0  0  0  0  0  0  0  0  0  0  0
   22.3645   -7.5415  -15.3325 C   0  0  2  0  0  0  0  0  0  0  0  0
   23.0854   -8.4193  -16.2103 N   0  0  0  0  0  0  0  0  0  0  0  0
   21.0511   -7.2665  -15.9446 C   0  0  0  0  0  0  0  0  0  0  0  0
   20.9401   -6.8419  -17.1418 O   0  0  0  0  0  0  0  0  0  0  0  0
   19.8464   -7.4625  -15.2269 N   0  0  0  0  0  0  0  0  0  0  0  0
   18.5428   -7.2190  -15.9260 C   0  0  1  0  0  0  0  0  0  0  0  0
   17.7127   -8.4136  -15.5421 C   0  0  0  0  0  0  0  0  0  0  0  0
   16.3205   -8.3804  -15.9939 C   0  0  0  0  0  0  0  0  0  0  0  0
   15.6080   -7.5047  -16.7598 C   0  0  0  0  0  0  0  0  0  0  0  0
   14.3612   -8.0179  -16.9053 N   0  0  0  0  0  0  0  0  0  0  0  0
   14.2766   -9.1847  -16.2556 C   0  0  0  0  0  0  0  0  0  0  0  0
   15.4676   -9.4009  -15.7045 N   0  0  0  0  0  0  0  0  0  0  0  0
   17.9230   -6.0346  -15.2361 C   0  0  0  0  0  0  0  0  0  0  0  0
   18.1063   -5.9189  -14.0021 O   0  0  0  0  0  0  0  0  0  0  0  0
   17.1966   -5.1234  -15.8955 O   0  0  0  0  0  0  0  0  0  0  0  0
  2  1  1  0
  3  2  2  0
  4  2  1  0
  5  4  1  0
  5  6  1  1
  7  5  1  0
  7  8  2  0
  9 10  1  0
 10 12  1  0
 10 11  2  0
 13 12  1  6
 13 14  1  0
 14  7  1  0
 15 13  1  0
 15 17  1  0
 16 15  2  0
 18 17  1  0
 18 19  1  1
 20 19  1  0
 20 21  2  0
 22 21  1  0
 23 22  1  0
 24 23  2  0
 24 20  1  0
 25 18  1  0
 26 25  2  0
 27 25  1  0
M  END
$$$$
