NNH.pdb
     RDKit          3D

 27 27  0  0  1  0  0  0  0  0999 V2000
   43.2871   -9.6633   -0.2093 N   0  0  0  0  0  0  0  0  0  0  0  0
   44.5784   -9.5060   -0.7378 C   0  0  0  0  0  0  0  0  0  0  0  0
   45.5756   -9.7312   -0.0141 O   0  0  0  0  0  0  0  0  0  0  0  0
   44.7732   -9.0767   -2.1416 C   0  0  0  0  0  0  0  0  0  0  0  0
   43.4705   -8.6364   -2.7812 C   0  0  2  0  0  0  0  0  0  0  0  0
   42.4602   -9.6597   -2.7028 N   0  0  0  0  0  0  0  0  0  0  0  0
   43.7453   -8.3467   -4.1985 C   0  0  0  0  0  0  0  0  0  0  0  0
   44.5829   -7.4655   -4.4986 O   0  0  0  0  0  0  0  0  0  0  0  0
   45.7615   -9.9357   -6.7054 N   0  0  0  0  0  0  0  0  0  0  0  0
   44.6971  -10.6095   -7.3881 C   0  0  0  0  0  0  0  0  0  0  0  0
   44.9090  -11.7079   -7.9606 O   0  0  0  0  0  0  0  0  0  0  0  0
   43.3715   -9.9908   -7.4002 C   0  0  0  0  0  0  0  0  0  0  0  0
   43.4024   -8.6924   -6.6048 C   0  0  2  0  0  0  0  0  0  0  0  0
   43.0878   -9.0381   -5.2475 N   0  0  0  0  0  0  0  0  0  0  0  0
   42.3798   -7.7413   -7.0791 C   0  0  0  0  0  0  0  0  0  0  0  0
   42.4058   -7.2545   -8.2574 O   0  0  0  0  0  0  0  0  0  0  0  0
   41.3163   -7.3228   -6.2433 N   0  0  0  0  0  0  0  0  0  0  0  0
   40.3310   -6.3257   -6.7746 C   0  0  1  0  0  0  0  0  0  0  0  0
   39.0168   -6.8048   -6.2209 C   0  0  0  0  0  0  0  0  0  0  0  0
   38.4989   -8.0385   -6.8151 C   0  0  0  0  0  0  0  0  0  0  0  0
   38.9618   -8.8701   -7.7926 C   0  0  0  0  0  0  0  0  0  0  0  0
   38.0911   -9.9054   -7.8873 N   0  0  0  0  0  0  0  0  0  0  0  0
   37.1030   -9.7445   -6.9993 C   0  0  0  0  0  0  0  0  0  0  0  0
   37.3546   -8.6108   -6.3509 N   0  0  0  0  0  0  0  0  0  0  0  0
   40.6388   -5.0315   -6.0722 C   0  0  0  0  0  0  0  0  0  0  0  0
   41.5311   -5.0451   -5.1929 O   0  0  0  0  0  0  0  0  0  0  0  0
   39.9952   -3.8928   -6.3585 O   0  0  0  0  0  0  0  0  0  0  0  0
  2  1  1  0
  3  2  2  0
  4  2  1  0
  5  4  1  0
  5  6  1  6
  7  5  1  0
  7  8  2  0
  9 10  1  0
 10 12  1  0
 10 11  2  0
 13 12  1  6
 13 14  1  0
 14  7  1  0
 15 13  1  0
 15 17  1  0
 16 15  2  0
 18 17  1  0
 18 19  1  1
 20 19  1  0
 20 21  2  0
 22 21  1  0
 23 22  1  0
 24 23  2  0
 24 20  1  0
 25 18  1  0
 26 25  2  0
 27 25  1  0
M  END
$$$$
