HNI.pdb
     RDKit          3D

 27 27  0  0  1  0  0  0  0  0999 V2000
   15.9080  -14.5178    6.5021 N   0  0  0  0  0  0  0  0  0  0  0  0
   17.2574  -15.0292    6.3463 C   0  0  1  0  0  0  0  0  0  0  0  0
   18.1630  -14.1040    7.1720 C   0  0  0  0  0  0  0  0  0  0  0  0
   18.7694  -13.0542    6.3401 C   0  0  0  0  0  0  0  0  0  0  0  0
   18.5551  -12.7905    5.0090 C   0  0  0  0  0  0  0  0  0  0  0  0
   19.3329  -11.7377    4.6964 N   0  0  0  0  0  0  0  0  0  0  0  0
   20.0154  -11.3421    5.7731 C   0  0  0  0  0  0  0  0  0  0  0  0
   19.6731  -12.1569    6.8100 N   0  0  0  0  0  0  0  0  0  0  0  0
   17.4046  -16.3746    6.9283 C   0  0  0  0  0  0  0  0  0  0  0  0
   18.1964  -16.5505    7.8727 O   0  0  0  0  0  0  0  0  0  0  0  0
   16.4721  -21.5523    7.9007 N   0  0  0  0  0  0  0  0  0  0  0  0
   15.5651  -20.9254    7.0401 C   0  0  0  0  0  0  0  0  0  0  0  0
   14.5377  -21.6546    6.7322 O   0  0  0  0  0  0  0  0  0  0  0  0
   15.5915  -19.6006    6.4445 C   0  0  0  0  0  0  0  0  0  0  0  0
   16.7954  -18.8120    6.8446 C   0  0  2  0  0  0  0  0  0  0  0  0
   16.6412  -17.4489    6.4033 N   0  0  0  0  0  0  0  0  0  0  0  0
   18.0080  -19.4782    6.3760 C   0  0  0  0  0  0  0  0  0  0  0  0
   18.4477  -19.4859    5.1962 O   0  0  0  0  0  0  0  0  0  0  0  0
   22.5698  -18.1973    8.1177 C   0  0  0  0  0  0  0  0  0  0  0  0
   21.5789  -18.8583    7.1657 C   0  0  0  0  0  0  0  0  0  0  0  0
   21.0919  -20.1118    7.8160 C   0  0  2  0  0  0  0  0  0  0  0  0
   22.2056  -21.0564    8.1787 C   0  0  0  0  0  0  0  0  0  0  0  0
   20.0346  -20.8371    7.0103 C   0  0  2  0  0  0  0  0  0  0  0  0
   18.7756  -20.1909    7.3388 N   0  0  0  0  0  0  0  0  0  0  0  0
   19.9287  -22.2540    7.4459 C   0  0  0  0  0  0  0  0  0  0  0  0
   20.3058  -23.3349    6.6558 O   0  0  0  0  0  0  0  0  0  0  0  0
   19.4743  -22.5756    8.5978 O   0  0  0  0  0  0  0  0  0  0  0  0
  2  1  1  1
  2  3  1  0
  4  5  2  0
  4  3  1  0
  6  5  1  0
  7  8  2  0
  7  6  1  0
  8  4  1  0
  9 10  2  0
  9  2  1  0
 12 11  1  0
 12 14  1  0
 13 12  2  0
 15 14  1  6
 15 16  1  0
 16  9  1  0
 17 18  2  0
 17 15  1  0
 20 21  1  0
 20 19  1  0
 21 22  1  6
 23 21  1  0
 23 24  1  1
 24 17  1  0
 25 23  1  0
 26 25  1  0
 27 25  2  0
M  END
$$$$
