HNI.pdb
     RDKit          3D

 27 27  0  0  1  0  0  0  0  0999 V2000
   20.2423  -12.1299  -17.5938 N   0  0  0  0  0  0  0  0  0  0  0  0
   19.4884  -11.0755  -16.9406 C   0  0  1  0  0  0  0  0  0  0  0  0
   19.0748  -11.6317  -15.5705 C   0  0  0  0  0  0  0  0  0  0  0  0
   18.0571  -12.6853  -15.6970 C   0  0  0  0  0  0  0  0  0  0  0  0
   16.8402  -12.6240  -16.3317 C   0  0  0  0  0  0  0  0  0  0  0  0
   16.2667  -13.8318  -16.1791 N   0  0  0  0  0  0  0  0  0  0  0  0
   17.0740  -14.6326  -15.4801 C   0  0  0  0  0  0  0  0  0  0  0  0
   18.1989  -13.9287  -15.1712 N   0  0  0  0  0  0  0  0  0  0  0  0
   20.3231   -9.8922  -16.6688 C   0  0  0  0  0  0  0  0  0  0  0  0
   21.4639  -10.0430  -16.1937 O   0  0  0  0  0  0  0  0  0  0  0  0
   22.8990   -5.1274  -17.7868 N   0  0  0  0  0  0  0  0  0  0  0  0
   21.5371   -5.4435  -17.8261 C   0  0  0  0  0  0  0  0  0  0  0  0
   20.7526   -4.4205  -17.6849 O   0  0  0  0  0  0  0  0  0  0  0  0
   20.8704   -6.7225  -17.9995 C   0  0  0  0  0  0  0  0  0  0  0  0
   20.5546   -7.3894  -16.7007 C   0  0  2  0  0  0  0  0  0  0  0  0
   19.8136   -8.5992  -16.9533 N   0  0  0  0  0  0  0  0  0  0  0  0
   19.9021   -6.4437  -15.7987 C   0  0  0  0  0  0  0  0  0  0  0  0
   18.7032   -6.0632  -15.8552 O   0  0  0  0  0  0  0  0  0  0  0  0
   19.7016   -6.0047  -10.0570 C   0  0  0  0  0  0  0  0  0  0  0  0
   19.6371   -5.0736  -11.2627 C   0  0  0  0  0  0  0  0  0  0  0  0
   20.1777   -5.8173  -12.4400 C   0  0  2  0  0  0  0  0  0  0  0  0
   21.5661   -6.3504  -12.2110 C   0  0  0  0  0  0  0  0  0  0  0  0
   20.1299   -5.0231  -13.7283 C   0  0  2  0  0  0  0  0  0  0  0  0
   20.6889   -5.8927  -14.7491 N   0  0  0  0  0  0  0  0  0  0  0  0
   21.0102   -3.8292  -13.6372 C   0  0  0  0  0  0  0  0  0  0  0  0
   20.6076   -2.6125  -13.0967 O   0  0  0  0  0  0  0  0  0  0  0  0
   22.2180   -3.8453  -14.0591 O   0  0  0  0  0  0  0  0  0  0  0  0
  2  1  1  1
  2  3  1  0
  4  5  2  0
  4  3  1  0
  6  5  1  0
  7  8  2  0
  7  6  1  0
  8  4  1  0
  9 10  2  0
  9  2  1  0
 12 11  1  0
 12 14  1  0
 13 12  2  0
 15 14  1  6
 15 16  1  0
 16  9  1  0
 17 18  2  0
 17 15  1  0
 20 21  1  0
 20 19  1  0
 21 22  1  1
 23 21  1  0
 23 24  1  6
 24 17  1  0
 25 23  1  0
 26 25  1  0
 27 25  2  0
M  END
$$$$
