HNI.pdb
     RDKit          3D

 27 27  0  0  1  0  0  0  0  0999 V2000
   28.8096  -21.7904  -16.7949 N   0  0  0  0  0  0  0  0  0  0  0  0
   28.7184  -20.6630  -15.8853 C   0  0  1  0  0  0  0  0  0  0  0  0
   27.7056  -19.6918  -16.5087 C   0  0  0  0  0  0  0  0  0  0  0  0
   28.2267  -19.0808  -17.7405 C   0  0  0  0  0  0  0  0  0  0  0  0
   27.8638  -19.3387  -19.0402 C   0  0  0  0  0  0  0  0  0  0  0  0
   28.6150  -18.5347  -19.8148 N   0  0  0  0  0  0  0  0  0  0  0  0
   29.4228  -17.7949  -19.0522 C   0  0  0  0  0  0  0  0  0  0  0  0
   29.1911  -18.1257  -17.7510 N   0  0  0  0  0  0  0  0  0  0  0  0
   28.1608  -21.0558  -14.5793 C   0  0  0  0  0  0  0  0  0  0  0  0
   27.1224  -21.7412  -14.5375 O   0  0  0  0  0  0  0  0  0  0  0  0
   31.8967  -21.1091  -11.5174 N   0  0  0  0  0  0  0  0  0  0  0  0
   30.5665  -21.5001  -11.3337 C   0  0  0  0  0  0  0  0  0  0  0  0
   30.3747  -22.7798  -11.4200 O   0  0  0  0  0  0  0  0  0  0  0  0
   29.3794  -20.7077  -11.0631 C   0  0  0  0  0  0  0  0  0  0  0  0
   28.2998  -20.9222  -12.0730 C   0  0  2  0  0  0  0  0  0  0  0  0
   28.8165  -20.6468  -13.3897 N   0  0  0  0  0  0  0  0  0  0  0  0
   27.1112  -20.1570  -11.7047 C   0  0  0  0  0  0  0  0  0  0  0  0
   26.7927  -19.0180  -12.1364 O   0  0  0  0  0  0  0  0  0  0  0  0
   22.0846  -20.2537  -13.1463 C   0  0  0  0  0  0  0  0  0  0  0  0
   22.7120  -19.9751  -11.7848 C   0  0  0  0  0  0  0  0  0  0  0  0
   24.1130  -20.4923  -11.8162 C   0  0  2  0  0  0  0  0  0  0  0  0
   24.1933  -21.9489  -12.1848 C   0  0  0  0  0  0  0  0  0  0  0  0
   24.8790  -20.2354  -10.5354 C   0  0  2  0  0  0  0  0  0  0  0  0
   26.2186  -20.7475  -10.7672 N   0  0  0  0  0  0  0  0  0  0  0  0
   24.2966  -21.0181   -9.4143 C   0  0  0  0  0  0  0  0  0  0  0  0
   24.9156  -22.1242   -8.8415 O   0  0  0  0  0  0  0  0  0  0  0  0
   23.1664  -20.7183   -8.8952 O   0  0  0  0  0  0  0  0  0  0  0  0
  2  1  1  6
  2  3  1  0
  4  5  2  0
  4  3  1  0
  6  5  1  0
  7  8  2  0
  7  6  1  0
  8  4  1  0
  9 10  2  0
  9  2  1  0
 12 11  1  0
 12 14  1  0
 13 12  2  0
 15 14  1  1
 15 16  1  0
 16  9  1  0
 17 18  2  0
 17 15  1  0
 20 21  1  0
 20 19  1  0
 21 22  1  1
 23 21  1  0
 23 24  1  6
 24 17  1  0
 25 23  1  0
 26 25  1  0
 27 25  2  0
M  END
$$$$
