HNI.pdb
     RDKit          3D

 27 27  0  0  1  0  0  0  0  0999 V2000
   23.1075  -17.3941  -16.9136 N   0  0  0  0  0  0  0  0  0  0  0  0
   22.8824  -18.6295  -17.6415 C   0  0  1  0  0  0  0  0  0  0  0  0
   23.2395  -18.3341  -19.1054 C   0  0  0  0  0  0  0  0  0  0  0  0
   22.5697  -17.1195  -19.5932 C   0  0  0  0  0  0  0  0  0  0  0  0
   23.1376  -15.9882  -20.1272 C   0  0  0  0  0  0  0  0  0  0  0  0
   22.1243  -15.1546  -20.4255 N   0  0  0  0  0  0  0  0  0  0  0  0
   20.9601  -15.7203  -20.0997 C   0  0  0  0  0  0  0  0  0  0  0  0
   21.2229  -16.9509  -19.5773 N   0  0  0  0  0  0  0  0  0  0  0  0
   23.7964  -19.6987  -17.2032 C   0  0  0  0  0  0  0  0  0  0  0  0
   23.6939  -20.8350  -17.7016 O   0  0  0  0  0  0  0  0  0  0  0  0
   27.9424  -22.0965  -14.7264 N   0  0  0  0  0  0  0  0  0  0  0  0
   27.8301  -20.7109  -14.5724 C   0  0  0  0  0  0  0  0  0  0  0  0
   28.6986  -20.1973  -13.7575 O   0  0  0  0  0  0  0  0  0  0  0  0
   26.9053  -19.7669  -15.1756 C   0  0  0  0  0  0  0  0  0  0  0  0
   25.6593  -20.4203  -15.6777 C   0  0  2  0  0  0  0  0  0  0  0  0
   24.7794  -19.4164  -16.2202 N   0  0  0  0  0  0  0  0  0  0  0  0
   25.0736  -21.2521  -14.6293 C   0  0  0  0  0  0  0  0  0  0  0  0
   25.2754  -22.4821  -14.4517 O   0  0  0  0  0  0  0  0  0  0  0  0
   26.1062  -21.0620   -9.8690 C   0  0  0  0  0  0  0  0  0  0  0  0
   25.5231  -21.5877  -11.1761 C   0  0  0  0  0  0  0  0  0  0  0  0
   24.1888  -20.9444  -11.3691 C   0  0  2  0  0  0  0  0  0  0  0  0
   23.2616  -21.1536  -10.2026 C   0  0  0  0  0  0  0  0  0  0  0  0
   23.5051  -21.3499  -12.6579 C   0  0  2  0  0  0  0  0  0  0  0  0
   24.1873  -20.6205  -13.7131 N   0  0  0  0  0  0  0  0  0  0  0  0
   22.0880  -20.9024  -12.6589 C   0  0  0  0  0  0  0  0  0  0  0  0
   21.0440  -21.6433  -12.1151 O   0  0  0  0  0  0  0  0  0  0  0  0
   21.7315  -19.7854  -13.1708 O   0  0  0  0  0  0  0  0  0  0  0  0
  2  1  1  1
  2  3  1  0
  4  5  2  0
  4  3  1  0
  6  5  1  0
  7  8  2  0
  7  6  1  0
  8  4  1  0
  9 10  2  0
  9  2  1  0
 12 11  1  0
 12 14  1  0
 13 12  2  0
 15 14  1  1
 15 16  1  0
 16  9  1  0
 17 18  2  0
 17 15  1  0
 20 21  1  0
 20 19  1  0
 21 22  1  1
 23 21  1  0
 23 24  1  6
 24 17  1  0
 25 23  1  0
 26 25  1  0
 27 25  2  0
M  END
$$$$
