HNI.pdb
     RDKit          3D

 27 27  0  0  1  0  0  0  0  0999 V2000
   25.6101  -19.1800  -14.9867 N   0  0  0  0  0  0  0  0  0  0  0  0
   26.6554  -19.4860  -14.0272 C   0  0  1  0  0  0  0  0  0  0  0  0
   27.7531  -18.4339  -14.2410 C   0  0  0  0  0  0  0  0  0  0  0  0
   28.2918  -18.4814  -15.6083 C   0  0  0  0  0  0  0  0  0  0  0  0
   29.1455  -19.4074  -16.1571 C   0  0  0  0  0  0  0  0  0  0  0  0
   29.3513  -19.0308  -17.4324 N   0  0  0  0  0  0  0  0  0  0  0  0
   28.6643  -17.9166  -17.6933 C   0  0  0  0  0  0  0  0  0  0  0  0
   27.9960  -17.5606  -16.5607 N   0  0  0  0  0  0  0  0  0  0  0  0
   26.1913  -19.3195  -12.6389 C   0  0  0  0  0  0  0  0  0  0  0  0
   26.2240  -18.1915  -12.1130 O   0  0  0  0  0  0  0  0  0  0  0  0
   22.9756  -19.1597  -12.1356 N   0  0  0  0  0  0  0  0  0  0  0  0
   22.8411  -20.2648  -11.2889 C   0  0  0  0  0  0  0  0  0  0  0  0
   21.6217  -20.6875  -11.1609 O   0  0  0  0  0  0  0  0  0  0  0  0
   23.8409  -21.0062  -10.5399 C   0  0  0  0  0  0  0  0  0  0  0  0
   25.1888  -20.3636  -10.5838 C   0  0  2  0  0  0  0  0  0  0  0  0
   25.7139  -20.4474  -11.9231 N   0  0  0  0  0  0  0  0  0  0  0  0
   26.0477  -20.9323   -9.5481 C   0  0  0  0  0  0  0  0  0  0  0  0
   26.8492  -21.8933   -9.6869 O   0  0  0  0  0  0  0  0  0  0  0  0
   28.9986  -18.2311   -6.1207 C   0  0  0  0  0  0  0  0  0  0  0  0
   28.4244  -19.3378   -6.9983 C   0  0  0  0  0  0  0  0  0  0  0  0
   27.2343  -19.9036   -6.2950 C   0  0  2  0  0  0  0  0  0  0  0  0
   27.5464  -20.3795   -4.9020 C   0  0  0  0  0  0  0  0  0  0  0  0
   26.5365  -20.9975   -7.0756 C   0  0  2  0  0  0  0  0  0  0  0  0
   25.9808  -20.3503   -8.2516 N   0  0  0  0  0  0  0  0  0  0  0  0
   25.3970  -21.5479   -6.2964 C   0  0  0  0  0  0  0  0  0  0  0  0
   25.5250  -22.5617   -5.3528 O   0  0  0  0  0  0  0  0  0  0  0  0
   24.2024  -21.1157   -6.4477 O   0  0  0  0  0  0  0  0  0  0  0  0
  2  1  1  6
  2  3  1  0
  4  5  2  0
  4  3  1  0
  6  5  1  0
  7  8  2  0
  7  6  1  0
  8  4  1  0
  9 10  2  0
  9  2  1  0
 12 11  1  0
 12 14  1  0
 13 12  2  0
 15 14  1  6
 15 16  1  0
 16  9  1  0
 17 18  2  0
 17 15  1  0
 20 21  1  0
 20 19  1  0
 21 22  1  1
 23 21  1  0
 23 24  1  6
 24 17  1  0
 25 23  1  0
 26 25  1  0
 27 25  2  0
M  END
$$$$
