HNI.pdb
     RDKit          3D

 27 27  0  0  1  0  0  0  0  0999 V2000
   26.1997  -22.1911  -11.3813 N   0  0  0  0  0  0  0  0  0  0  0  0
   25.3239  -21.4892  -12.3017 C   0  0  1  0  0  0  0  0  0  0  0  0
   24.9820  -20.1514  -11.6301 C   0  0  0  0  0  0  0  0  0  0  0  0
   24.1681  -20.3434  -10.4206 C   0  0  0  0  0  0  0  0  0  0  0  0
   24.5816  -20.3785   -9.1110 C   0  0  0  0  0  0  0  0  0  0  0  0
   23.4787  -20.5765   -8.3658 N   0  0  0  0  0  0  0  0  0  0  0  0
   22.4068  -20.6650   -9.1560 C   0  0  0  0  0  0  0  0  0  0  0  0
   22.8226  -20.5209  -10.4454 N   0  0  0  0  0  0  0  0  0  0  0  0
   26.0089  -21.1531  -13.5620 C   0  0  0  0  0  0  0  0  0  0  0  0
   27.1070  -20.5678  -13.5255 O   0  0  0  0  0  0  0  0  0  0  0  0
   26.4084  -24.7256  -15.9990 N   0  0  0  0  0  0  0  0  0  0  0  0
   26.7456  -23.4771  -16.5316 C   0  0  0  0  0  0  0  0  0  0  0  0
   28.0220  -23.2796  -16.6492 O   0  0  0  0  0  0  0  0  0  0  0  0
   25.9009  -22.3796  -16.9702 C   0  0  0  0  0  0  0  0  0  0  0  0
   25.9935  -21.1870  -16.0754 C   0  0  2  0  0  0  0  0  0  0  0  0
   25.4062  -21.5022  -14.7979 N   0  0  0  0  0  0  0  0  0  0  0  0
   25.4280  -20.0167  -16.7421 C   0  0  0  0  0  0  0  0  0  0  0  0
   24.2438  -19.6004  -16.6435 O   0  0  0  0  0  0  0  0  0  0  0  0
   26.2035  -14.9726  -15.4504 C   0  0  0  0  0  0  0  0  0  0  0  0
   26.0381  -15.6220  -16.8200 C   0  0  0  0  0  0  0  0  0  0  0  0
   26.2211  -17.0946  -16.6492 C   0  0  2  0  0  0  0  0  0  0  0  0
   27.5355  -17.4530  -16.0105 C   0  0  0  0  0  0  0  0  0  0  0  0
   26.0337  -17.8779  -17.9316 C   0  0  2  0  0  0  0  0  0  0  0  0
   26.2912  -19.2657  -17.5877 N   0  0  0  0  0  0  0  0  0  0  0  0
   27.0503  -17.4784  -18.9393 C   0  0  0  0  0  0  0  0  0  0  0  0
   28.2303  -18.1793  -19.1654 O   0  0  0  0  0  0  0  0  0  0  0  0
   26.9018  -16.4436  -19.6768 O   0  0  0  0  0  0  0  0  0  0  0  0
  2  1  1  1
  2  3  1  0
  4  5  2  0
  4  3  1  0
  6  5  1  0
  7  8  2  0
  7  6  1  0
  8  4  1  0
  9 10  2  0
  9  2  1  0
 12 11  1  0
 12 14  1  0
 13 12  2  0
 15 14  1  6
 15 16  1  0
 16  9  1  0
 17 18  2  0
 17 15  1  0
 20 21  1  0
 20 19  1  0
 21 22  1  6
 23 21  1  0
 23 24  1  1
 24 17  1  0
 25 23  1  0
 26 25  1  0
 27 25  2  0
M  END
$$$$
