HNI.pdb
     RDKit          3D

 27 27  0  0  1  0  0  0  0  0999 V2000
   20.4572  -22.7674  -18.0736 N   0  0  0  0  0  0  0  0  0  0  0  0
   20.8149  -22.5987  -16.6770 C   0  0  1  0  0  0  0  0  0  0  0  0
   21.1203  -21.1053  -16.4916 C   0  0  0  0  0  0  0  0  0  0  0  0
   22.3596  -20.7151  -17.1799 C   0  0  0  0  0  0  0  0  0  0  0  0
   23.5668  -21.3706  -17.2003 C   0  0  0  0  0  0  0  0  0  0  0  0
   24.3928  -20.6298  -17.9616 N   0  0  0  0  0  0  0  0  0  0  0  0
   23.7500  -19.5494  -18.4100 C   0  0  0  0  0  0  0  0  0  0  0  0
   22.4759  -19.5890  -17.9289 N   0  0  0  0  0  0  0  0  0  0  0  0
   19.6852  -22.9014  -15.7811 C   0  0  0  0  0  0  0  0  0  0  0  0
   18.5247  -22.6402  -16.1484 O   0  0  0  0  0  0  0  0  0  0  0  0
   16.8747  -25.0779  -11.8372 N   0  0  0  0  0  0  0  0  0  0  0  0
   18.2097  -25.4843  -11.9311 C   0  0  0  0  0  0  0  0  0  0  0  0
   18.5161  -26.4774  -11.1553 O   0  0  0  0  0  0  0  0  0  0  0  0
   19.2948  -24.9758  -12.7524 C   0  0  0  0  0  0  0  0  0  0  0  0
   18.8952  -23.7881  -13.5656 C   0  0  2  0  0  0  0  0  0  0  0  0
   19.9377  -23.4864  -14.5137 N   0  0  0  0  0  0  0  0  0  0  0  0
   18.5226  -22.6826  -12.6864 C   0  0  0  0  0  0  0  0  0  0  0  0
   17.6160  -22.6959  -11.8128 O   0  0  0  0  0  0  0  0  0  0  0  0
   22.1698  -20.3949   -9.9507 C   0  0  0  0  0  0  0  0  0  0  0  0
   20.7789  -20.8508  -10.3780 C   0  0  0  0  0  0  0  0  0  0  0  0
   20.2766  -19.8811  -11.3971 C   0  0  2  0  0  0  0  0  0  0  0  0
   20.1874  -18.4729  -10.8743 C   0  0  0  0  0  0  0  0  0  0  0  0
   18.9586  -20.2905  -12.0202 C   0  0  2  0  0  0  0  0  0  0  0  0
   19.2492  -21.4669  -12.8216 N   0  0  0  0  0  0  0  0  0  0  0  0
   18.4709  -19.2362  -12.9472 C   0  0  0  0  0  0  0  0  0  0  0  0
   17.5019  -18.2978  -12.6079 O   0  0  0  0  0  0  0  0  0  0  0  0
   18.9200  -19.1233  -14.1398 O   0  0  0  0  0  0  0  0  0  0  0  0
  2  1  1  6
  2  3  1  0
  4  5  2  0
  4  3  1  0
  6  5  1  0
  7  8  2  0
  7  6  1  0
  8  4  1  0
  9 10  2  0
  9  2  1  0
 12 11  1  0
 12 14  1  0
 13 12  2  0
 15 14  1  1
 15 16  1  0
 16  9  1  0
 17 18  2  0
 17 15  1  0
 20 21  1  0
 20 19  1  0
 21 22  1  1
 23 21  1  0
 23 24  1  6
 24 17  1  0
 25 23  1  0
 26 25  1  0
 27 25  2  0
M  END
$$$$
