HNI.pdb
     RDKit          3D

 27 27  0  0  1  0  0  0  0  0999 V2000
   19.3619  -13.8195  -18.1288 N   0  0  0  0  0  0  0  0  0  0  0  0
   19.2297  -13.4379  -16.7347 C   0  0  1  0  0  0  0  0  0  0  0  0
   19.6524  -14.6648  -15.9139 C   0  0  0  0  0  0  0  0  0  0  0  0
   18.8295  -15.8409  -16.2325 C   0  0  0  0  0  0  0  0  0  0  0  0
   17.4684  -15.9078  -16.4068 C   0  0  0  0  0  0  0  0  0  0  0  0
   17.1798  -17.1928  -16.6831 N   0  0  0  0  0  0  0  0  0  0  0  0
   18.2997  -17.9190  -16.6866 C   0  0  0  0  0  0  0  0  0  0  0  0
   19.3409  -17.0863  -16.4061 N   0  0  0  0  0  0  0  0  0  0  0  0
   20.1638  -12.3583  -16.3706 C   0  0  0  0  0  0  0  0  0  0  0  0
   20.0615  -11.8086  -15.2583 O   0  0  0  0  0  0  0  0  0  0  0  0
   24.0444   -8.6699  -16.9861 N   0  0  0  0  0  0  0  0  0  0  0  0
   24.1991   -9.8767  -17.6760 C   0  0  0  0  0  0  0  0  0  0  0  0
   25.3614  -10.0223  -18.2327 O   0  0  0  0  0  0  0  0  0  0  0  0
   23.2739  -10.9808  -17.8641 C   0  0  0  0  0  0  0  0  0  0  0  0
   22.0050  -10.8079  -17.0950 C   0  0  2  0  0  0  0  0  0  0  0  0
   21.1656  -11.9622  -17.2936 N   0  0  0  0  0  0  0  0  0  0  0  0
   21.3853   -9.5292  -17.4338 C   0  0  0  0  0  0  0  0  0  0  0  0
   21.0330   -9.1508  -18.5818 O   0  0  0  0  0  0  0  0  0  0  0  0
   17.9866   -6.1446  -18.1513 C   0  0  0  0  0  0  0  0  0  0  0  0
   18.2123   -6.3315  -16.6549 C   0  0  0  0  0  0  0  0  0  0  0  0
   19.0326   -7.5661  -16.4703 C   0  0  2  0  0  0  0  0  0  0  0  0
   18.7170   -8.2956  -15.1926 C   0  0  0  0  0  0  0  0  0  0  0  0
   20.5231   -7.3207  -16.5762 C   0  0  2  0  0  0  0  0  0  0  0  0
   21.1517   -8.6141  -16.3697 N   0  0  0  0  0  0  0  0  0  0  0  0
   20.9831   -6.4281  -15.4807 C   0  0  0  0  0  0  0  0  0  0  0  0
   21.0812   -5.0458  -15.6008 O   0  0  0  0  0  0  0  0  0  0  0  0
   21.3253   -6.8837  -14.3352 O   0  0  0  0  0  0  0  0  0  0  0  0
  2  1  1  6
  2  3  1  0
  4  5  2  0
  4  3  1  0
  6  5  1  0
  7  8  2  0
  7  6  1  0
  8  4  1  0
  9 10  2  0
  9  2  1  0
 12 11  1  0
 12 14  1  0
 13 12  2  0
 15 14  1  6
 15 16  1  0
 16  9  1  0
 17 18  2  0
 17 15  1  0
 20 21  1  0
 20 19  1  0
 21 22  1  1
 23 21  1  0
 23 24  1  1
 24 17  1  0
 25 23  1  0
 26 25  1  0
 27 25  2  0
M  END
$$$$
