HNI.pdb
     RDKit          3D

 27 27  0  0  1  0  0  0  0  0999 V2000
   23.3834  -19.7131  -16.7200 N   0  0  0  0  0  0  0  0  0  0  0  0
   24.4313  -19.1502  -15.8882 C   0  0  1  0  0  0  0  0  0  0  0  0
   24.7470  -17.7673  -16.4763 C   0  0  0  0  0  0  0  0  0  0  0  0
   25.2287  -17.8637  -17.8621 C   0  0  0  0  0  0  0  0  0  0  0  0
   26.2597  -18.6258  -18.3558 C   0  0  0  0  0  0  0  0  0  0  0  0
   26.3195  -18.3802  -19.6775 N   0  0  0  0  0  0  0  0  0  0  0  0
   25.3737  -17.5026  -20.0194 C   0  0  0  0  0  0  0  0  0  0  0  0
   24.6826  -17.1701  -18.8933 N   0  0  0  0  0  0  0  0  0  0  0  0
   23.9698  -18.9147  -14.5091 C   0  0  0  0  0  0  0  0  0  0  0  0
   23.1600  -17.9968  -14.2822 O   0  0  0  0  0  0  0  0  0  0  0  0
   22.0192  -19.9035   -9.8262 N   0  0  0  0  0  0  0  0  0  0  0  0
   21.6744  -20.3620  -11.1018 C   0  0  0  0  0  0  0  0  0  0  0  0
   20.4928  -20.8919  -11.1718 O   0  0  0  0  0  0  0  0  0  0  0  0
   22.4225  -20.3374  -12.3469 C   0  0  0  0  0  0  0  0  0  0  0  0
   23.8164  -19.8292  -12.1727 C   0  0  2  0  0  0  0  0  0  0  0  0
   24.4555  -19.7381  -13.4610 N   0  0  0  0  0  0  0  0  0  0  0  0
   24.5259  -20.6429  -11.1886 C   0  0  0  0  0  0  0  0  0  0  0  0
   24.6817  -21.8918  -11.2248 O   0  0  0  0  0  0  0  0  0  0  0  0
   28.3781  -18.9652   -6.7207 C   0  0  0  0  0  0  0  0  0  0  0  0
   27.5609  -20.1281   -7.2728 C   0  0  0  0  0  0  0  0  0  0  0  0
   26.6921  -19.5944   -8.3645 C   0  0  2  0  0  0  0  0  0  0  0  0
   25.8054  -18.4664   -7.9111 C   0  0  0  0  0  0  0  0  0  0  0  0
   25.8677  -20.6609   -9.0543 C   0  0  2  0  0  0  0  0  0  0  0  0
   25.1019  -19.9683  -10.0763 N   0  0  0  0  0  0  0  0  0  0  0  0
   24.8937  -21.2611   -8.1058 C   0  0  0  0  0  0  0  0  0  0  0  0
   23.6274  -20.7382   -7.8655 O   0  0  0  0  0  0  0  0  0  0  0  0
   25.1640  -22.3174   -7.4364 O   0  0  0  0  0  0  0  0  0  0  0  0
  2  1  1  6
  2  3  1  0
  4  5  2  0
  4  3  1  0
  6  5  1  0
  7  8  2  0
  7  6  1  0
  8  4  1  0
  9 10  2  0
  9  2  1  0
 12 11  1  0
 12 14  1  0
 13 12  2  0
 15 14  1  6
 15 16  1  0
 16  9  1  0
 17 18  2  0
 17 15  1  0
 20 21  1  0
 20 19  1  0
 21 22  1  1
 23 21  1  0
 23 24  1  6
 24 17  1  0
 25 23  1  0
 26 25  1  0
 27 25  2  0
M  END
$$$$
