HNI.pdb
     RDKit          3D

 27 27  0  0  1  0  0  0  0  0999 V2000
   20.6360  -19.3302  -17.1996 N   0  0  0  0  0  0  0  0  0  0  0  0
   21.7237  -18.5870  -16.5902 C   0  0  1  0  0  0  0  0  0  0  0  0
   21.0792  -17.6693  -15.5413 C   0  0  0  0  0  0  0  0  0  0  0  0
   20.3846  -16.5341  -16.1665 C   0  0  0  0  0  0  0  0  0  0  0  0
   20.8872  -15.2948  -16.4808 C   0  0  0  0  0  0  0  0  0  0  0  0
   19.8765  -14.6003  -17.0350 N   0  0  0  0  0  0  0  0  0  0  0  0
   18.7762  -15.3546  -17.0758 C   0  0  0  0  0  0  0  0  0  0  0  0
   19.0787  -16.5682  -16.5355 N   0  0  0  0  0  0  0  0  0  0  0  0
   22.6456  -19.4691  -15.8536 C   0  0  0  0  0  0  0  0  0  0  0  0
   22.1856  -20.4017  -15.1691 O   0  0  0  0  0  0  0  0  0  0  0  0
   27.1890  -21.8461  -14.3542 N   0  0  0  0  0  0  0  0  0  0  0  0
   27.2365  -21.0627  -15.5119 C   0  0  0  0  0  0  0  0  0  0  0  0
   28.3536  -21.1513  -16.1648 O   0  0  0  0  0  0  0  0  0  0  0  0
   26.2425  -20.1765  -16.0923 C   0  0  0  0  0  0  0  0  0  0  0  0
   25.0140  -20.0574  -15.2509 C   0  0  2  0  0  0  0  0  0  0  0  0
   24.0434  -19.2420  -15.9363 N   0  0  0  0  0  0  0  0  0  0  0  0
   25.3687  -19.5979  -13.9104 C   0  0  0  0  0  0  0  0  0  0  0  0
   25.7900  -18.4526  -13.6004 O   0  0  0  0  0  0  0  0  0  0  0  0
   24.4421  -22.4669   -9.2752 C   0  0  0  0  0  0  0  0  0  0  0  0
   23.9390  -21.9541  -10.6202 C   0  0  0  0  0  0  0  0  0  0  0  0
   24.2424  -20.4932  -10.6913 C   0  0  2  0  0  0  0  0  0  0  0  0
   23.0946  -19.6802  -11.2257 C   0  0  0  0  0  0  0  0  0  0  0  0
   25.5079  -20.1774  -11.4606 C   0  0  2  0  0  0  0  0  0  0  0  0
   25.2276  -20.5274  -12.8425 N   0  0  0  0  0  0  0  0  0  0  0  0
   26.6249  -21.0452  -11.0049 C   0  0  0  0  0  0  0  0  0  0  0  0
   27.0121  -22.2113  -11.6568 O   0  0  0  0  0  0  0  0  0  0  0  0
   27.3143  -20.7694   -9.9630 O   0  0  0  0  0  0  0  0  0  0  0  0
  2  1  1  1
  2  3  1  0
  4  5  2  0
  4  3  1  0
  6  5  1  0
  7  8  2  0
  7  6  1  0
  8  4  1  0
  9 10  2  0
  9  2  1  0
 12 11  1  0
 12 14  1  0
 13 12  2  0
 15 14  1  6
 15 16  1  0
 16  9  1  0
 17 18  2  0
 17 15  1  0
 20 21  1  0
 20 19  1  0
 21 22  1  6
 23 21  1  0
 23 24  1  6
 24 17  1  0
 25 23  1  0
 26 25  1  0
 27 25  2  0
M  END
$$$$
