HNI.pdb
     RDKit          3D

 27 27  0  0  1  0  0  0  0  0999 V2000
   22.7221  -18.8325  -14.0671 N   0  0  0  0  0  0  0  0  0  0  0  0
   22.7998  -19.9452  -14.9960 C   0  0  1  0  0  0  0  0  0  0  0  0
   22.2592  -19.4227  -16.3348 C   0  0  0  0  0  0  0  0  0  0  0  0
   20.8683  -18.9610  -16.2158 C   0  0  0  0  0  0  0  0  0  0  0  0
   19.7143  -19.7030  -16.2866 C   0  0  0  0  0  0  0  0  0  0  0  0
   18.6938  -18.8418  -16.1199 N   0  0  0  0  0  0  0  0  0  0  0  0
   19.1665  -17.6052  -15.9501 C   0  0  0  0  0  0  0  0  0  0  0  0
   20.5264  -17.6640  -16.0076 N   0  0  0  0  0  0  0  0  0  0  0  0
   24.1928  -20.3541  -15.2466 C   0  0  0  0  0  0  0  0  0  0  0  0
   24.4221  -21.3204  -15.9974 O   0  0  0  0  0  0  0  0  0  0  0  0
   27.6379  -19.1886  -17.0147 N   0  0  0  0  0  0  0  0  0  0  0  0
   28.0002  -18.6887  -15.7597 C   0  0  0  0  0  0  0  0  0  0  0  0
   28.8579  -17.7169  -15.8050 O   0  0  0  0  0  0  0  0  0  0  0  0
   27.5710  -19.0811  -14.4284 C   0  0  0  0  0  0  0  0  0  0  0  0
   26.5707  -20.1904  -14.4482 C   0  0  2  0  0  0  0  0  0  0  0  0
   25.2512  -19.6399  -14.6286 N   0  0  0  0  0  0  0  0  0  0  0  0
   26.7317  -21.0300  -13.2638 C   0  0  0  0  0  0  0  0  0  0  0  0
   27.4261  -22.0770  -13.1791 O   0  0  0  0  0  0  0  0  0  0  0  0
   27.0691  -19.3993   -8.0803 C   0  0  0  0  0  0  0  0  0  0  0  0
   26.1995  -19.7257   -9.2895 C   0  0  0  0  0  0  0  0  0  0  0  0
   26.6550  -21.0396   -9.8349 C   0  0  2  0  0  0  0  0  0  0  0  0
   28.1062  -21.0391  -10.2327 C   0  0  0  0  0  0  0  0  0  0  0  0
   25.8010  -21.5461  -10.9782 C   0  0  2  0  0  0  0  0  0  0  0  0
   26.0413  -20.6352  -12.0841 N   0  0  0  0  0  0  0  0  0  0  0  0
   24.3586  -21.4492  -10.6338 C   0  0  0  0  0  0  0  0  0  0  0  0
   23.7520  -22.1992   -9.6316 O   0  0  0  0  0  0  0  0  0  0  0  0
   23.5678  -20.6543  -11.2499 O   0  0  0  0  0  0  0  0  0  0  0  0
  2  1  1  1
  2  3  1  0
  4  5  2  0
  4  3  1  0
  6  5  1  0
  7  8  2  0
  7  6  1  0
  8  4  1  0
  9 10  2  0
  9  2  1  0
 12 11  1  0
 12 14  1  0
 13 12  2  0
 15 14  1  1
 15 16  1  0
 16  9  1  0
 17 18  2  0
 17 15  1  0
 20 21  1  0
 20 19  1  0
 21 22  1  6
 23 21  1  0
 23 24  1  6
 24 17  1  0
 25 23  1  0
 26 25  1  0
 27 25  2  0
M  END
$$$$
