HNI.pdb
     RDKit          3D

 27 27  0  0  1  0  0  0  0  0999 V2000
   28.3829  -19.9291  -17.8017 N   0  0  0  0  0  0  0  0  0  0  0  0
   27.6608  -20.8981  -16.9978 C   0  0  1  0  0  0  0  0  0  0  0  0
   28.7250  -21.6873  -16.2216 C   0  0  0  0  0  0  0  0  0  0  0  0
   29.5510  -22.5106  -17.1172 C   0  0  0  0  0  0  0  0  0  0  0  0
   29.4521  -22.6505  -18.4803 C   0  0  0  0  0  0  0  0  0  0  0  0
   30.4227  -23.5063  -18.8494 N   0  0  0  0  0  0  0  0  0  0  0  0
   31.1134  -23.8992  -17.7770 C   0  0  0  0  0  0  0  0  0  0  0  0
   30.5793  -23.2841  -16.6850 N   0  0  0  0  0  0  0  0  0  0  0  0
   26.8120  -20.2469  -15.9848 C   0  0  0  0  0  0  0  0  0  0  0  0
   27.3107  -19.4008  -15.2197 O   0  0  0  0  0  0  0  0  0  0  0  0
   23.9247  -17.3364  -16.3817 N   0  0  0  0  0  0  0  0  0  0  0  0
   23.3827  -18.6194  -16.5096 C   0  0  0  0  0  0  0  0  0  0  0  0
   22.9273  -18.8853  -17.6945 O   0  0  0  0  0  0  0  0  0  0  0  0
   23.2520  -19.6895  -15.5359 C   0  0  0  0  0  0  0  0  0  0  0  0
   24.5536  -20.0518  -14.8985 C   0  0  2  0  0  0  0  0  0  0  0  0
   25.4394  -20.5941  -15.8975 N   0  0  0  0  0  0  0  0  0  0  0  0
   24.3216  -20.9174  -13.7449 C   0  0  0  0  0  0  0  0  0  0  0  0
   23.9288  -22.1133  -13.7753 O   0  0  0  0  0  0  0  0  0  0  0  0
   26.2539  -20.5621   -7.9725 C   0  0  0  0  0  0  0  0  0  0  0  0
   25.2440  -21.2397   -8.8922 C   0  0  0  0  0  0  0  0  0  0  0  0
   25.3001  -20.5488  -10.2154 C   0  0  2  0  0  0  0  0  0  0  0  0
   25.1286  -19.0578  -10.1072 C   0  0  0  0  0  0  0  0  0  0  0  0
   24.3293  -21.1130  -11.2314 C   0  0  2  0  0  0  0  0  0  0  0  0
   24.5603  -20.3655  -12.4555 N   0  0  0  0  0  0  0  0  0  0  0  0
   22.9273  -20.8509  -10.8138 C   0  0  0  0  0  0  0  0  0  0  0  0
   22.1255  -19.8640  -11.3774 O   0  0  0  0  0  0  0  0  0  0  0  0
   22.3582  -21.5296   -9.8906 O   0  0  0  0  0  0  0  0  0  0  0  0
  2  1  1  6
  2  3  1  0
  4  5  2  0
  4  3  1  0
  6  5  1  0
  7  8  2  0
  7  6  1  0
  8  4  1  0
  9 10  2  0
  9  2  1  0
 12 11  1  0
 12 14  1  0
 13 12  2  0
 15 14  1  6
 15 16  1  0
 16  9  1  0
 17 18  2  0
 17 15  1  0
 20 21  1  0
 20 19  1  0
 21 22  1  1
 23 21  1  0
 23 24  1  6
 24 17  1  0
 25 23  1  0
 26 25  1  0
 27 25  2  0
M  END
$$$$
