HNI.pdb
     RDKit          3D

 27 27  0  0  1  0  0  0  0  0999 V2000
   25.4400  -19.3002  -17.0122 N   0  0  0  0  0  0  0  0  0  0  0  0
   25.4368  -17.9909  -16.3856 C   0  0  1  0  0  0  0  0  0  0  0  0
   24.4995  -17.1154  -17.2299 C   0  0  0  0  0  0  0  0  0  0  0  0
   24.9069  -17.0892  -18.6424 C   0  0  0  0  0  0  0  0  0  0  0  0
   26.1774  -17.1188  -19.1645 C   0  0  0  0  0  0  0  0  0  0  0  0
   26.0432  -17.0763  -20.5028 N   0  0  0  0  0  0  0  0  0  0  0  0
   24.7498  -17.0218  -20.8278 C   0  0  0  0  0  0  0  0  0  0  0  0
   24.0261  -17.0291  -19.6735 N   0  0  0  0  0  0  0  0  0  0  0  0
   24.8538  -18.0315  -15.0332 C   0  0  0  0  0  0  0  0  0  0  0  0
   23.9048  -17.2764  -14.7520 O   0  0  0  0  0  0  0  0  0  0  0  0
   21.6421  -19.7015  -11.3836 N   0  0  0  0  0  0  0  0  0  0  0  0
   22.5695  -20.3972  -12.1661 C   0  0  0  0  0  0  0  0  0  0  0  0
   22.7393  -21.6330  -11.8112 O   0  0  0  0  0  0  0  0  0  0  0  0
   23.3624  -19.9590  -13.3017 C   0  0  0  0  0  0  0  0  0  0  0  0
   24.6592  -19.3388  -12.8950 C   0  0  2  0  0  0  0  0  0  0  0  0
   25.3831  -18.9311  -14.0724 N   0  0  0  0  0  0  0  0  0  0  0  0
   25.3870  -20.2398  -12.0049 C   0  0  0  0  0  0  0  0  0  0  0  0
   25.9465  -21.3199  -12.3299 O   0  0  0  0  0  0  0  0  0  0  0  0
   28.7750  -19.4045   -7.1806 C   0  0  0  0  0  0  0  0  0  0  0  0
   27.8899  -20.4535   -7.8448 C   0  0  0  0  0  0  0  0  0  0  0  0
   27.0780  -19.7649   -8.8926 C   0  0  2  0  0  0  0  0  0  0  0  0
   26.3070  -18.5880   -8.3591 C   0  0  0  0  0  0  0  0  0  0  0  0
   26.1522  -20.6963   -9.6465 C   0  0  2  0  0  0  0  0  0  0  0  0
   25.4796  -19.8701  -10.6342 N   0  0  0  0  0  0  0  0  0  0  0  0
   25.1064  -21.2376   -8.7399 C   0  0  0  0  0  0  0  0  0  0  0  0
   25.3269  -22.2737   -7.8385 O   0  0  0  0  0  0  0  0  0  0  0  0
   23.9133  -20.7759   -8.7315 O   0  0  0  0  0  0  0  0  0  0  0  0
  2  1  1  6
  2  3  1  0
  4  5  2  0
  4  3  1  0
  6  5  1  0
  7  8  2  0
  7  6  1  0
  8  4  1  0
  9 10  2  0
  9  2  1  0
 12 11  1  0
 12 14  1  0
 13 12  2  0
 15 14  1  6
 15 16  1  0
 16  9  1  0
 17 18  2  0
 17 15  1  0
 20 21  1  0
 20 19  1  0
 21 22  1  1
 23 21  1  0
 23 24  1  6
 24 17  1  0
 25 23  1  0
 26 25  1  0
 27 25  2  0
M  END
$$$$
