NCM.pdb
     RDKit          3D

 23 22  0  0  1  0  0  0  0  0999 V2000
    8.7717  -19.0959   16.3068 N   0  0  0  0  0  0  0  0  0  0  0  0
    7.8351  -18.0773   16.6114 C   0  0  0  0  0  0  0  0  0  0  0  0
    7.5570  -17.2110   15.7180 O   0  0  0  0  0  0  0  0  0  0  0  0
    7.1538  -17.9630   17.9266 C   0  0  0  0  0  0  0  0  0  0  0  0
    8.2029  -17.7219   18.9920 C   0  0  2  0  0  0  0  0  0  0  0  0
    9.0815  -18.8702   19.0639 N   0  0  0  0  0  0  0  0  0  0  0  0
    7.5652  -17.5015   20.3142 C   0  0  0  0  0  0  0  0  0  0  0  0
    6.6454  -16.6491   20.4609 O   0  0  0  0  0  0  0  0  0  0  0  0
    8.0127  -18.2711   21.4125 N   0  0  0  0  0  0  0  0  0  0  0  0
    7.3989  -18.1913   22.7461 C   0  0  1  0  0  0  0  0  0  0  0  0
    7.5835  -19.5220   23.4529 C   0  0  0  0  0  0  0  0  0  0  0  0
    6.2677  -20.6454   22.9695 S   0  0  0  0  0  0  0  0  0  0  0  0
    8.0567  -17.0685   23.4373 C   0  0  0  0  0  0  0  0  0  0  0  0
    9.0736  -16.4846   22.9069 O   0  0  0  0  0  0  0  0  0  0  0  0
    6.4407  -10.7629   27.7096 C   0  0  0  0  0  0  0  0  0  0  0  0
    6.0648  -12.1412   26.5966 S   0  0  0  0  0  0  0  0  0  0  0  0
    7.5146  -13.1960   26.3335 C   0  0  0  0  0  0  0  0  0  0  0  0
    7.1045  -14.3849   25.5313 C   0  0  0  0  0  0  0  0  0  0  0  0
    8.2331  -15.3363   25.2429 C   0  0  2  0  0  0  0  0  0  0  0  0
    7.6427  -16.5641   24.6780 N   0  0  0  0  0  0  0  0  0  0  0  0
    9.0213  -15.7051   26.4175 C   0  0  0  0  0  0  0  0  0  0  0  0
    8.9888  -16.9591   27.0136 O   0  0  0  0  0  0  0  0  0  0  0  0
    9.7913  -14.8696   26.9577 O   0  0  0  0  0  0  0  0  0  0  0  0
  1  2  1  0
  2  4  1  0
  2  3  2  0
  4  5  1  0
  5  7  1  0
  5  6  1  1
  7  9  1  0
  8  7  2  0
  9 10  1  0
 10 11  1  1
 10 13  1  0
 11 12  1  0
 13 20  1  0
 13 14  2  0
 16 15  1  0
 16 17  1  0
 17 18  1  0
 19 18  1  1
 20 19  1  0
 21 19  1  0
 21 22  1  0
 23 21  2  0
M  END
$$$$
