NCM.pdb
     RDKit          3D

 23 22  0  0  1  0  0  0  0  0999 V2000
   12.9611  -19.8997   19.5211 N   0  0  0  0  0  0  0  0  0  0  0  0
   13.0953  -18.5429   19.9065 C   0  0  0  0  0  0  0  0  0  0  0  0
   14.2262  -17.9718   19.7615 O   0  0  0  0  0  0  0  0  0  0  0  0
   11.9802  -17.7428   20.4753 C   0  0  0  0  0  0  0  0  0  0  0  0
   10.7827  -18.6514   20.6610 C   0  0  2  0  0  0  0  0  0  0  0  0
    9.9962  -18.6574   19.4457 N   0  0  0  0  0  0  0  0  0  0  0  0
    9.9431  -18.1860   21.7932 C   0  0  0  0  0  0  0  0  0  0  0  0
    9.3855  -17.0534   21.7695 O   0  0  0  0  0  0  0  0  0  0  0  0
    9.7803  -19.0433   22.9054 N   0  0  0  0  0  0  0  0  0  0  0  0
    8.9449  -18.6970   24.0647 C   0  0  1  0  0  0  0  0  0  0  0  0
    7.9679  -19.8298   24.3230 C   0  0  0  0  0  0  0  0  0  0  0  0
    6.9984  -19.4627   25.7900 S   0  0  0  0  0  0  0  0  0  0  0  0
    9.8715  -18.4602   25.1857 C   0  0  0  0  0  0  0  0  0  0  0  0
   10.9021  -19.2139   25.3476 O   0  0  0  0  0  0  0  0  0  0  0  0
    9.8038  -13.0564   28.4780 C   0  0  0  0  0  0  0  0  0  0  0  0
   11.0737  -13.8717   29.4791 S   0  0  0  0  0  0  0  0  0  0  0  0
   11.2373  -15.6235   29.0451 C   0  0  0  0  0  0  0  0  0  0  0  0
   10.5194  -15.8694   27.7609 C   0  0  0  0  0  0  0  0  0  0  0  0
   10.6432  -17.2827   27.2618 C   0  0  2  0  0  0  0  0  0  0  0  0
    9.7128  -17.4340   26.1274 N   0  0  0  0  0  0  0  0  0  0  0  0
   10.3193  -18.3013   28.2591 C   0  0  0  0  0  0  0  0  0  0  0  0
   11.2538  -18.8908   29.1007 O   0  0  0  0  0  0  0  0  0  0  0  0
    9.1351  -18.7013   28.4018 O   0  0  0  0  0  0  0  0  0  0  0  0
  1  2  1  0
  2  4  1  0
  2  3  2  0
  4  5  1  0
  5  7  1  0
  5  6  1  6
  7  9  1  0
  8  7  2  0
  9 10  1  0
 10 11  1  1
 10 13  1  0
 11 12  1  0
 13 20  1  0
 13 14  2  0
 16 15  1  0
 16 17  1  0
 17 18  1  0
 19 18  1  1
 20 19  1  0
 21 19  1  0
 21 22  1  0
 23 21  2  0
M  END
$$$$
