NCM.pdb
     RDKit          3D

 23 22  0  0  1  0  0  0  0  0999 V2000
   10.1994  -16.5641   16.7653 N   0  0  0  0  0  0  0  0  0  0  0  0
    8.8059  -16.7712   16.6141 C   0  0  0  0  0  0  0  0  0  0  0  0
    8.3037  -16.7412   15.4424 O   0  0  0  0  0  0  0  0  0  0  0  0
    7.8905  -17.0234   17.7567 C   0  0  0  0  0  0  0  0  0  0  0  0
    8.7018  -17.0059   19.0355 C   0  0  2  0  0  0  0  0  0  0  0  0
    9.3883  -18.2720   19.1816 N   0  0  0  0  0  0  0  0  0  0  0  0
    7.8227  -16.7795   20.2100 C   0  0  0  0  0  0  0  0  0  0  0  0
    7.0995  -15.7480   20.2945 O   0  0  0  0  0  0  0  0  0  0  0  0
    7.8126  -17.7497   21.2383 N   0  0  0  0  0  0  0  0  0  0  0  0
    7.0021  -17.6126   22.4572 C   0  0  1  0  0  0  0  0  0  0  0  0
    6.8002  -18.9863   23.0708 C   0  0  0  0  0  0  0  0  0  0  0  0
    6.0363  -18.8145   24.6876 S   0  0  0  0  0  0  0  0  0  0  0  0
    7.7329  -16.6836   23.3371 C   0  0  0  0  0  0  0  0  0  0  0  0
    9.0185  -16.7124   23.3885 O   0  0  0  0  0  0  0  0  0  0  0  0
    6.6041  -10.1341   26.4992 C   0  0  0  0  0  0  0  0  0  0  0  0
    6.3485  -11.7675   27.2384 S   0  0  0  0  0  0  0  0  0  0  0  0
    7.5839  -12.9593   26.6576 C   0  0  0  0  0  0  0  0  0  0  0  0
    6.9394  -13.8800   25.6768 C   0  0  0  0  0  0  0  0  0  0  0  0
    7.8962  -14.8521   25.0433 C   0  0  2  0  0  0  0  0  0  0  0  0
    7.1114  -15.7294   24.1547 N   0  0  0  0  0  0  0  0  0  0  0  0
    8.6166  -15.6928   25.9979 C   0  0  0  0  0  0  0  0  0  0  0  0
    9.8506  -15.3663   26.5454 O   0  0  0  0  0  0  0  0  0  0  0  0
    8.1298  -16.7889   26.3775 O   0  0  0  0  0  0  0  0  0  0  0  0
  1  2  1  0
  2  4  1  0
  2  3  2  0
  4  5  1  0
  5  7  1  0
  5  6  1  1
  7  9  1  0
  8  7  2  0
  9 10  1  0
 10 11  1  1
 10 13  1  0
 11 12  1  0
 13 20  1  0
 13 14  2  0
 16 15  1  0
 16 17  1  0
 17 18  1  0
 19 18  1  1
 20 19  1  0
 21 19  1  0
 21 22  1  0
 23 21  2  0
M  END
$$$$
