NCM.pdb
     RDKit          3D

 23 22  0  0  1  0  0  0  0  0999 V2000
    8.0592  -17.2268   15.0208 N   0  0  0  0  0  0  0  0  0  0  0  0
    8.3514  -16.7283   16.3145 C   0  0  0  0  0  0  0  0  0  0  0  0
    9.4492  -16.1067   16.5001 O   0  0  0  0  0  0  0  0  0  0  0  0
    7.4402  -16.8923   17.4763 C   0  0  0  0  0  0  0  0  0  0  0  0
    8.2368  -17.4514   18.6368 C   0  0  2  0  0  0  0  0  0  0  0  0
    8.4525  -18.8676   18.4282 N   0  0  0  0  0  0  0  0  0  0  0  0
    7.5143  -17.2427   19.9165 C   0  0  0  0  0  0  0  0  0  0  0  0
    6.2968  -16.9087   19.9314 O   0  0  0  0  0  0  0  0  0  0  0  0
    8.2230  -17.4271   21.1258 N   0  0  0  0  0  0  0  0  0  0  0  0
    7.5772  -17.3747   22.4456 C   0  0  1  0  0  0  0  0  0  0  0  0
    7.4031  -18.7906   22.9646 C   0  0  0  0  0  0  0  0  0  0  0  0
    8.9676  -19.3873   23.6153 S   0  0  0  0  0  0  0  0  0  0  0  0
    8.4462  -16.5447   23.2982 C   0  0  0  0  0  0  0  0  0  0  0  0
    9.6888  -16.3872   23.0021 O   0  0  0  0  0  0  0  0  0  0  0  0
    7.1125  -11.0198   26.5009 C   0  0  0  0  0  0  0  0  0  0  0  0
    6.0891  -12.5053   26.6607 S   0  0  0  0  0  0  0  0  0  0  0  0
    7.0944  -14.0122   26.6096 C   0  0  0  0  0  0  0  0  0  0  0  0
    8.2150  -13.8097   25.6461 C   0  0  0  0  0  0  0  0  0  0  0  0
    8.9298  -15.0802   25.2766 C   0  0  2  0  0  0  0  0  0  0  0  0
    8.0064  -15.8836   24.4536 N   0  0  0  0  0  0  0  0  0  0  0  0
    9.3454  -15.8890   26.4213 C   0  0  0  0  0  0  0  0  0  0  0  0
    8.8586  -17.1612   26.6925 O   0  0  0  0  0  0  0  0  0  0  0  0
   10.1937  -15.4490   27.2395 O   0  0  0  0  0  0  0  0  0  0  0  0
  1  2  1  0
  2  4  1  0
  2  3  2  0
  4  5  1  0
  5  7  1  0
  5  6  1  6
  7  9  1  0
  8  7  2  0
  9 10  1  0
 10 11  1  1
 10 13  1  0
 11 12  1  0
 13 20  1  0
 13 14  2  0
 16 15  1  0
 16 17  1  0
 17 18  1  0
 19 18  1  1
 20 19  1  0
 21 19  1  0
 21 22  1  0
 23 21  2  0
M  END
$$$$
