NCM.pdb
     RDKit          3D

 23 22  0  0  1  0  0  0  0  0999 V2000
   16.4815  -16.8181   19.5816 N   0  0  0  0  0  0  0  0  0  0  0  0
   15.2629  -17.5105   19.7891 C   0  0  0  0  0  0  0  0  0  0  0  0
   15.1553  -18.7070   19.3616 O   0  0  0  0  0  0  0  0  0  0  0  0
   14.0937  -16.9127   20.4838 C   0  0  0  0  0  0  0  0  0  0  0  0
   13.7533  -17.7755   21.6811 C   0  0  2  0  0  0  0  0  0  0  0  0
   13.0834  -18.9762   21.2281 N   0  0  0  0  0  0  0  0  0  0  0  0
   12.8716  -17.0405   22.6224 C   0  0  0  0  0  0  0  0  0  0  0  0
   13.2228  -15.9320   23.1146 O   0  0  0  0  0  0  0  0  0  0  0  0
   11.6227  -17.6116   22.9579 N   0  0  0  0  0  0  0  0  0  0  0  0
   10.6823  -16.9805   23.8954 C   0  0  1  0  0  0  0  0  0  0  0  0
    9.2981  -17.5613   23.6694 C   0  0  0  0  0  0  0  0  0  0  0  0
    8.1498  -16.8535   24.8559 S   0  0  0  0  0  0  0  0  0  0  0  0
   11.2092  -17.2402   25.2467 C   0  0  0  0  0  0  0  0  0  0  0  0
   11.8364  -18.3350   25.5007 O   0  0  0  0  0  0  0  0  0  0  0  0
    7.9233  -13.1708   29.1117 C   0  0  0  0  0  0  0  0  0  0  0  0
    9.6572  -13.4634   28.6781 S   0  0  0  0  0  0  0  0  0  0  0  0
   10.1130  -15.2028   28.9034 C   0  0  0  0  0  0  0  0  0  0  0  0
   11.5297  -15.3876   28.4747 C   0  0  0  0  0  0  0  0  0  0  0  0
   11.7455  -16.6006   27.6123 C   0  0  2  0  0  0  0  0  0  0  0  0
   11.0775  -16.3498   26.3215 N   0  0  0  0  0  0  0  0  0  0  0  0
   11.2079  -17.8387   28.1737 C   0  0  0  0  0  0  0  0  0  0  0  0
   11.8619  -18.6089   29.1267 O   0  0  0  0  0  0  0  0  0  0  0  0
   10.0876  -18.2744   27.8024 O   0  0  0  0  0  0  0  0  0  0  0  0
  1  2  1  0
  2  4  1  0
  2  3  2  0
  4  5  1  0
  5  7  1  0
  5  6  1  6
  7  9  1  0
  8  7  2  0
  9 10  1  0
 10 11  1  1
 10 13  1  0
 11 12  1  0
 13 20  1  0
 13 14  2  0
 16 15  1  0
 16 17  1  0
 17 18  1  0
 19 18  1  1
 20 19  1  0
 21 19  1  0
 21 22  1  0
 23 21  2  0
M  END
$$$$
