NCM.pdb
     RDKit          3D

 23 22  0  0  1  0  0  0  0  0999 V2000
   15.5991  -17.9939   20.0728 N   0  0  0  0  0  0  0  0  0  0  0  0
   14.4065  -18.0808   19.3127 C   0  0  0  0  0  0  0  0  0  0  0  0
   14.2682  -19.0493   18.4948 O   0  0  0  0  0  0  0  0  0  0  0  0
   13.2991  -17.0962   19.4180 C   0  0  0  0  0  0  0  0  0  0  0  0
   12.2202  -17.6796   20.3066 C   0  0  2  0  0  0  0  0  0  0  0  0
   11.5451  -18.7465   19.5985 N   0  0  0  0  0  0  0  0  0  0  0  0
   11.2355  -16.6364   20.6882 C   0  0  0  0  0  0  0  0  0  0  0  0
   11.4307  -15.4210   20.4072 O   0  0  0  0  0  0  0  0  0  0  0  0
   10.0673  -17.0354   21.3772 N   0  0  0  0  0  0  0  0  0  0  0  0
    9.0330  -16.0851   21.8117 C   0  0  1  0  0  0  0  0  0  0  0  0
    7.7162  -16.4567   21.1541 C   0  0  0  0  0  0  0  0  0  0  0  0
    6.3705  -15.6012   21.9813 S   0  0  0  0  0  0  0  0  0  0  0  0
    8.9918  -16.1631   23.2825 C   0  0  0  0  0  0  0  0  0  0  0  0
    8.6271  -17.2507   23.8659 O   0  0  0  0  0  0  0  0  0  0  0  0
    6.4230  -10.6246   26.5210 C   0  0  0  0  0  0  0  0  0  0  0  0
    6.9296  -12.3452   26.7715 S   0  0  0  0  0  0  0  0  0  0  0  0
    7.1634  -13.2045   25.1933 C   0  0  0  0  0  0  0  0  0  0  0  0
    7.3886  -14.6540   25.4643 C   0  0  0  0  0  0  0  0  0  0  0  0
    8.8416  -15.0385   25.5197 C   0  0  2  0  0  0  0  0  0  0  0  0
    9.3354  -15.1017   24.1313 N   0  0  0  0  0  0  0  0  0  0  0  0
    9.0961  -16.3298   26.1559 C   0  0  0  0  0  0  0  0  0  0  0  0
    9.5403  -16.4785   27.4635 O   0  0  0  0  0  0  0  0  0  0  0  0
    8.9165  -17.4008   25.5209 O   0  0  0  0  0  0  0  0  0  0  0  0
  1  2  1  0
  2  4  1  0
  2  3  2  0
  4  5  1  0
  5  7  1  0
  5  6  1  6
  7  9  1  0
  8  7  2  0
  9 10  1  0
 10 11  1  6
 10 13  1  0
 11 12  1  0
 13 20  1  0
 13 14  2  0
 16 15  1  0
 16 17  1  0
 17 18  1  0
 19 18  1  6
 20 19  1  0
 21 19  1  0
 21 22  1  0
 23 21  2  0
M  END
$$$$
