NCM.pdb
     RDKit          3D

 23 22  0  0  1  0  0  0  0  0999 V2000
   10.5956  -15.9265   17.0697 N   0  0  0  0  0  0  0  0  0  0  0  0
    9.6361  -16.8305   17.5891 C   0  0  0  0  0  0  0  0  0  0  0  0
    9.5014  -17.9702   17.0333 O   0  0  0  0  0  0  0  0  0  0  0  0
    8.7711  -16.5196   18.7562 C   0  0  0  0  0  0  0  0  0  0  0  0
    9.5179  -16.8912   20.0204 C   0  0  2  0  0  0  0  0  0  0  0  0
    9.7271  -18.3234   20.0466 N   0  0  0  0  0  0  0  0  0  0  0  0
    8.7498  -16.4798   21.2222 C   0  0  0  0  0  0  0  0  0  0  0  0
    8.2811  -15.3122   21.3288 O   0  0  0  0  0  0  0  0  0  0  0  0
    8.5532  -17.4291   22.2512 N   0  0  0  0  0  0  0  0  0  0  0  0
    7.7289  -17.1602   23.4385 C   0  0  1  0  0  0  0  0  0  0  0  0
    7.0636  -18.4519   23.8782 C   0  0  0  0  0  0  0  0  0  0  0  0
    6.1666  -18.1733   25.4096 S   0  0  0  0  0  0  0  0  0  0  0  0
    8.6371  -16.5982   24.4535 C   0  0  0  0  0  0  0  0  0  0  0  0
    9.8833  -16.9197   24.4603 O   0  0  0  0  0  0  0  0  0  0  0  0
    5.9267  -11.1934   25.3664 C   0  0  0  0  0  0  0  0  0  0  0  0
    6.3975  -12.6153   26.3844 S   0  0  0  0  0  0  0  0  0  0  0  0
    8.1860  -12.9033   26.3354 C   0  0  0  0  0  0  0  0  0  0  0  0
    8.5075  -14.0762   27.1992 C   0  0  0  0  0  0  0  0  0  0  0  0
    9.1837  -15.2000   26.4632 C   0  0  2  0  0  0  0  0  0  0  0  0
    8.2336  -15.7013   25.4525 N   0  0  0  0  0  0  0  0  0  0  0  0
    9.5814  -16.3202   27.3139 C   0  0  0  0  0  0  0  0  0  0  0  0
    9.0902  -17.6123   27.1787 O   0  0  0  0  0  0  0  0  0  0  0  0
   10.4172  -16.1538   28.2394 O   0  0  0  0  0  0  0  0  0  0  0  0
  1  2  1  0
  2  4  1  0
  2  3  2  0
  4  5  1  0
  5  7  1  0
  5  6  1  1
  7  9  1  0
  8  7  2  0
  9 10  1  0
 10 11  1  1
 10 13  1  0
 11 12  1  0
 13 20  1  0
 13 14  2  0
 16 15  1  0
 16 17  1  0
 17 18  1  0
 19 18  1  1
 20 19  1  0
 21 19  1  0
 21 22  1  0
 23 21  2  0
M  END
$$$$
