NCM.pdb
     RDKit          3D

 23 22  0  0  1  0  0  0  0  0999 V2000
    8.4682  -12.1096   18.5311 N   0  0  0  0  0  0  0  0  0  0  0  0
    8.1905  -13.3722   17.9511 C   0  0  0  0  0  0  0  0  0  0  0  0
    8.7021  -13.6536   16.8174 O   0  0  0  0  0  0  0  0  0  0  0  0
    7.3281  -14.3945   18.5978 C   0  0  0  0  0  0  0  0  0  0  0  0
    8.2179  -15.4011   19.2970 C   0  0  2  0  0  0  0  0  0  0  0  0
    8.5465  -16.4678   18.3751 N   0  0  0  0  0  0  0  0  0  0  0  0
    7.5340  -15.9666   20.4869 C   0  0  0  0  0  0  0  0  0  0  0  0
    6.3894  -16.4913   20.3936 O   0  0  0  0  0  0  0  0  0  0  0  0
    8.1959  -15.9047   21.7346 N   0  0  0  0  0  0  0  0  0  0  0  0
    7.6091  -16.4291   22.9765 C   0  0  1  0  0  0  0  0  0  0  0  0
    7.4022  -17.9258   22.8291 C   0  0  0  0  0  0  0  0  0  0  0  0
    6.8721  -18.6154   24.4009 S   0  0  0  0  0  0  0  0  0  0  0  0
    8.5450  -16.0743   24.0578 C   0  0  0  0  0  0  0  0  0  0  0  0
    9.7900  -16.3885   23.9692 O   0  0  0  0  0  0  0  0  0  0  0  0
    5.7030  -11.6386   26.6663 C   0  0  0  0  0  0  0  0  0  0  0  0
    7.4483  -11.4842   27.1243 S   0  0  0  0  0  0  0  0  0  0  0  0
    8.4785  -12.6715   26.2227 C   0  0  0  0  0  0  0  0  0  0  0  0
    8.6294  -13.9028   27.0510 C   0  0  0  0  0  0  0  0  0  0  0  0
    9.1497  -15.0865   26.2828 C   0  0  2  0  0  0  0  0  0  0  0  0
    8.1702  -15.3908   25.2229 N   0  0  0  0  0  0  0  0  0  0  0  0
    9.3390  -16.2897   27.0912 C   0  0  0  0  0  0  0  0  0  0  0  0
    8.6542  -17.4805   26.8858 O   0  0  0  0  0  0  0  0  0  0  0  0
   10.1616  -16.2964   28.0431 O   0  0  0  0  0  0  0  0  0  0  0  0
  1  2  1  0
  2  4  1  0
  2  3  2  0
  4  5  1  0
  5  7  1  0
  5  6  1  6
  7  9  1  0
  8  7  2  0
  9 10  1  0
 10 11  1  6
 10 13  1  0
 11 12  1  0
 13 20  1  0
 13 14  2  0
 16 15  1  0
 16 17  1  0
 17 18  1  0
 19 18  1  1
 20 19  1  0
 21 19  1  0
 21 22  1  0
 23 21  2  0
M  END
$$$$
