NCM.pdb
     RDKit          3D

 23 22  0  0  1  0  0  0  0  0999 V2000
    8.4977  -12.6569   16.4820 N   0  0  0  0  0  0  0  0  0  0  0  0
    8.0746  -14.0074   16.5518 C   0  0  0  0  0  0  0  0  0  0  0  0
    8.3455  -14.7873   15.5800 O   0  0  0  0  0  0  0  0  0  0  0  0
    7.3261  -14.5686   17.7059 C   0  0  0  0  0  0  0  0  0  0  0  0
    8.3241  -15.1068   18.7100 C   0  0  2  0  0  0  0  0  0  0  0  0
    8.9731  -16.2765   18.1566 N   0  0  0  0  0  0  0  0  0  0  0  0
    7.6455  -15.4697   19.9794 C   0  0  0  0  0  0  0  0  0  0  0  0
    6.4191  -15.7693   20.0012 O   0  0  0  0  0  0  0  0  0  0  0  0
    8.4066  -15.4728   21.1708 N   0  0  0  0  0  0  0  0  0  0  0  0
    7.8566  -15.8918   22.4683 C   0  0  1  0  0  0  0  0  0  0  0  0
    7.2700  -17.2848   22.3272 C   0  0  0  0  0  0  0  0  0  0  0  0
    6.3162  -17.6853   23.7959 S   0  0  0  0  0  0  0  0  0  0  0  0
    8.9704  -15.8237   23.4306 C   0  0  0  0  0  0  0  0  0  0  0  0
   10.1085  -15.3397   23.0746 O   0  0  0  0  0  0  0  0  0  0  0  0
    5.8180  -11.9751   27.9011 C   0  0  0  0  0  0  0  0  0  0  0  0
    7.1557  -11.8909   26.6832 S   0  0  0  0  0  0  0  0  0  0  0  0
    8.3560  -13.2272   26.9225 C   0  0  0  0  0  0  0  0  0  0  0  0
    8.2297  -14.1942   25.7939 C   0  0  0  0  0  0  0  0  0  0  0  0
    9.1797  -15.3565   25.8863 C   0  0  2  0  0  0  0  0  0  0  0  0
    8.8827  -16.2609   24.7597 N   0  0  0  0  0  0  0  0  0  0  0  0
    9.0732  -16.1207   27.1279 C   0  0  0  0  0  0  0  0  0  0  0  0
    8.4012  -17.3309   27.2412 O   0  0  0  0  0  0  0  0  0  0  0  0
    9.6062  -15.6973   28.1859 O   0  0  0  0  0  0  0  0  0  0  0  0
  1  2  1  0
  2  4  1  0
  2  3  2  0
  4  5  1  0
  5  7  1  0
  5  6  1  6
  7  9  1  0
  8  7  2  0
  9 10  1  0
 10 11  1  6
 10 13  1  0
 11 12  1  0
 13 20  1  0
 13 14  2  0
 16 15  1  0
 16 17  1  0
 17 18  1  0
 19 18  1  1
 20 19  1  0
 21 19  1  0
 21 22  1  0
 23 21  2  0
M  END
$$$$
