NCM.pdb
     RDKit          3D

 23 22  0  0  1  0  0  0  0  0999 V2000
   10.0520  -20.3221   17.9576 N   0  0  0  0  0  0  0  0  0  0  0  0
   10.7452  -20.4543   19.1862 C   0  0  0  0  0  0  0  0  0  0  0  0
   11.0406  -21.6228   19.6026 O   0  0  0  0  0  0  0  0  0  0  0  0
   11.1500  -19.2952   20.0227 C   0  0  0  0  0  0  0  0  0  0  0  0
   10.6749  -18.0257   19.3470 C   0  0  2  0  0  0  0  0  0  0  0  0
   11.6986  -17.5590   18.4361 N   0  0  0  0  0  0  0  0  0  0  0  0
   10.3885  -16.9727   20.3533 C   0  0  0  0  0  0  0  0  0  0  0  0
   11.2873  -16.1712   20.7328 O   0  0  0  0  0  0  0  0  0  0  0  0
    9.0798  -16.8860   20.8810 N   0  0  0  0  0  0  0  0  0  0  0  0
    8.6600  -15.8213   21.8038 C   0  0  1  0  0  0  0  0  0  0  0  0
    7.1541  -15.6544   21.7101 C   0  0  0  0  0  0  0  0  0  0  0  0
    6.6023  -14.4808   22.9532 S   0  0  0  0  0  0  0  0  0  0  0  0
    9.1183  -16.2308   23.1431 C   0  0  0  0  0  0  0  0  0  0  0  0
    9.2364  -17.4783   23.4365 O   0  0  0  0  0  0  0  0  0  0  0  0
   10.6416  -13.7316   30.5347 C   0  0  0  0  0  0  0  0  0  0  0  0
   10.1130  -13.4343   28.8282 S   0  0  0  0  0  0  0  0  0  0  0  0
   10.2313  -14.9389   27.8252 C   0  0  0  0  0  0  0  0  0  0  0  0
    9.7968  -14.6239   26.4334 C   0  0  0  0  0  0  0  0  0  0  0  0
    9.8599  -15.8020   25.5007 C   0  0  2  0  0  0  0  0  0  0  0  0
    9.4518  -15.3301   24.1642 N   0  0  0  0  0  0  0  0  0  0  0  0
    8.9898  -16.9140   25.8796 C   0  0  0  0  0  0  0  0  0  0  0  0
    9.4003  -17.9961   26.6475 O   0  0  0  0  0  0  0  0  0  0  0  0
    7.7870  -16.9375   25.5117 O   0  0  0  0  0  0  0  0  0  0  0  0
  1  2  1  0
  2  4  1  0
  2  3  2  0
  4  5  1  0
  5  7  1  0
  5  6  1  6
  7  9  1  0
  8  7  2  0
  9 10  1  0
 10 11  1  1
 10 13  1  0
 11 12  1  0
 13 20  1  0
 13 14  2  0
 16 15  1  0
 16 17  1  0
 17 18  1  0
 19 18  1  1
 20 19  1  0
 21 19  1  0
 21 22  1  0
 23 21  2  0
M  END
$$$$
