NCM.pdb
     RDKit          3D

 23 22  0  0  1  0  0  0  0  0999 V2000
    9.1558  -19.9894   20.5188 N   0  0  0  0  0  0  0  0  0  0  0  0
    8.3863  -18.9173   21.0343 C   0  0  0  0  0  0  0  0  0  0  0  0
    7.2121  -18.7269   20.5747 O   0  0  0  0  0  0  0  0  0  0  0  0
    8.8776  -17.9950   22.0903 C   0  0  0  0  0  0  0  0  0  0  0  0
    8.6150  -16.5713   21.6453 C   0  0  2  0  0  0  0  0  0  0  0  0
    9.4955  -16.2467   20.5430 N   0  0  0  0  0  0  0  0  0  0  0  0
    8.8480  -15.6222   22.7626 C   0  0  0  0  0  0  0  0  0  0  0  0
    9.9942  -15.4853   23.2741 O   0  0  0  0  0  0  0  0  0  0  0  0
    7.7521  -14.8702   23.2446 N   0  0  0  0  0  0  0  0  0  0  0  0
    7.8868  -13.8402   24.2850 C   0  0  1  0  0  0  0  0  0  0  0  0
    6.5919  -13.0522   24.3676 C   0  0  0  0  0  0  0  0  0  0  0  0
    6.6288  -11.9881   25.8145 S   0  0  0  0  0  0  0  0  0  0  0  0
    8.2153  -14.5529   25.5321 C   0  0  0  0  0  0  0  0  0  0  0  0
    7.4925  -15.5427   25.9250 O   0  0  0  0  0  0  0  0  0  0  0  0
   12.4248  -18.3947   27.5344 C   0  0  0  0  0  0  0  0  0  0  0  0
   12.5652  -17.1869   28.8765 S   0  0  0  0  0  0  0  0  0  0  0  0
   11.0559  -16.1972   29.0390 C   0  0  0  0  0  0  0  0  0  0  0  0
   10.7498  -15.5681   27.7216 C   0  0  0  0  0  0  0  0  0  0  0  0
    9.4482  -14.8148   27.7009 C   0  0  2  0  0  0  0  0  0  0  0  0
    9.3001  -14.2250   26.3572 N   0  0  0  0  0  0  0  0  0  0  0  0
    9.3629  -13.7381   28.6860 C   0  0  0  0  0  0  0  0  0  0  0  0
    9.4614  -12.3884   28.3736 O   0  0  0  0  0  0  0  0  0  0  0  0
    9.1901  -13.9997   29.9044 O   0  0  0  0  0  0  0  0  0  0  0  0
  1  2  1  0
  2  4  1  0
  2  3  2  0
  4  5  1  0
  5  7  1  0
  5  6  1  6
  7  9  1  0
  8  7  2  0
  9 10  1  0
 10 11  1  1
 10 13  1  0
 11 12  1  0
 13 20  1  0
 13 14  2  0
 16 15  1  0
 16 17  1  0
 17 18  1  0
 19 18  1  6
 20 19  1  0
 21 19  1  0
 21 22  1  0
 23 21  2  0
M  END
$$$$
