QAC.pdb
     RDKit          3D

 21 20  0  0  1  0  0  0  0  0999 V2000
   11.0446  -20.7649   22.1824 N   0  0  0  0  0  0  0  0  0  0  0  0
   11.4401  -20.2535   20.9334 C   0  0  0  0  0  0  0  0  0  0  0  0
   10.9315  -20.6953   19.8852 O   0  0  0  0  0  0  0  0  0  0  0  0
   12.4597  -19.1914   20.8622 C   0  0  0  0  0  0  0  0  0  0  0  0
   12.1877  -18.0956   21.8792 C   0  0  0  0  0  0  0  0  0  0  0  0
   10.9679  -17.2761   21.4502 C   0  0  2  0  0  0  0  0  0  0  0  0
   11.3065  -16.3758   20.3726 N   0  0  0  0  0  0  0  0  0  0  0  0
   10.5423  -16.4727   22.6343 C   0  0  0  0  0  0  0  0  0  0  0  0
   11.2332  -15.4880   22.9628 O   0  0  0  0  0  0  0  0  0  0  0  0
    7.4869  -16.3946   24.8479 C   0  0  0  0  0  0  0  0  0  0  0  0
    8.9306  -16.1229   24.5259 C   0  0  2  0  0  0  0  0  0  0  0  0
    9.3739  -16.8327   23.3624 N   0  0  0  0  0  0  0  0  0  0  0  0
    9.8201  -16.3985   25.6933 C   0  0  0  0  0  0  0  0  0  0  0  0
   10.5903  -17.3755   25.6348 O   0  0  0  0  0  0  0  0  0  0  0  0
    9.7953  -15.5730   26.8451 N   0  0  0  0  0  0  0  0  0  0  0  0
   10.6959  -15.8588   27.9331 C   0  0  1  0  0  0  0  0  0  0  0  0
   10.6719  -14.6926   28.9234 C   0  0  0  0  0  0  0  0  0  0  0  0
   10.4722  -13.1107   28.0723 S   0  0  0  0  0  0  0  0  0  0  0  0
   10.3467  -17.1258   28.6237 C   0  0  0  0  0  0  0  0  0  0  0  0
    9.2855  -17.7054   28.3358 O   0  0  0  0  0  0  0  0  0  0  0  0
   11.1907  -17.6644   29.5821 O   0  0  0  0  0  0  0  0  0  0  0  0
  2  3  2  0
  2  1  1  0
  4  2  1  0
  5  4  1  0
  5  6  1  0
  6  7  1  6
  8 12  1  0
  8  6  1  0
  9  8  2  0
 11 10  1  1
 11 12  1  0
 11 13  1  0
 13 15  1  0
 14 13  2  0
 15 16  1  0
 16 19  1  0
 16 17  1  1
 17 18  1  0
 19 21  1  0
 20 19  2  0
M  END
$$$$
