QAC.pdb
     RDKit          3D

 21 20  0  0  1  0  0  0  0  0999 V2000
    8.5433  -12.1567   20.1155 N   0  0  0  0  0  0  0  0  0  0  0  0
    8.4159  -12.9614   18.9693 C   0  0  0  0  0  0  0  0  0  0  0  0
    8.5822  -12.4702   17.8363 O   0  0  0  0  0  0  0  0  0  0  0  0
    8.0847  -14.3912   19.1066 C   0  0  0  0  0  0  0  0  0  0  0  0
    7.8976  -14.7772   20.5644 C   0  0  0  0  0  0  0  0  0  0  0  0
    7.5796  -16.2708   20.6724 C   0  0  2  0  0  0  0  0  0  0  0  0
    6.2596  -16.5538   20.1584 N   0  0  0  0  0  0  0  0  0  0  0  0
    7.6181  -16.6224   22.1227 C   0  0  0  0  0  0  0  0  0  0  0  0
    6.6476  -16.3017   22.8372 O   0  0  0  0  0  0  0  0  0  0  0  0
    9.6556  -18.8551   24.3165 C   0  0  0  0  0  0  0  0  0  0  0  0
    8.8820  -17.5906   24.0626 C   0  0  2  0  0  0  0  0  0  0  0  0
    8.7414  -17.3073   22.6647 N   0  0  0  0  0  0  0  0  0  0  0  0
    9.4700  -16.4259   24.7891 C   0  0  0  0  0  0  0  0  0  0  0  0
   10.0364  -15.5371   24.1255 O   0  0  0  0  0  0  0  0  0  0  0  0
    9.3903  -16.3259   26.2007 N   0  0  0  0  0  0  0  0  0  0  0  0
    9.9692  -15.1811   26.8571 C   0  0  1  0  0  0  0  0  0  0  0  0
    8.9348  -14.0548   26.9057 C   0  0  0  0  0  0  0  0  0  0  0  0
    9.5615  -12.6248   27.8162 S   0  0  0  0  0  0  0  0  0  0  0  0
   10.4385  -15.5065   28.2275 C   0  0  0  0  0  0  0  0  0  0  0  0
    9.8996  -16.4358   28.8527 O   0  0  0  0  0  0  0  0  0  0  0  0
   11.4678  -14.7854   28.8121 O   0  0  0  0  0  0  0  0  0  0  0  0
  2  3  2  0
  2  1  1  0
  4  2  1  0
  5  4  1  0
  5  6  1  0
  6  7  1  1
  8 12  1  0
  8  6  1  0
  9  8  2  0
 11 10  1  6
 11 12  1  0
 11 13  1  0
 13 15  1  0
 14 13  2  0
 15 16  1  0
 16 19  1  0
 16 17  1  1
 17 18  1  0
 19 21  1  0
 20 19  2  0
M  END
$$$$
