QAC.pdb
     RDKit          3D

 21 20  0  0  1  0  0  0  0  0999 V2000
    8.4122  -12.2198   18.3544 N   0  0  0  0  0  0  0  0  0  0  0  0
    8.3011  -13.6026   18.1231 C   0  0  0  0  0  0  0  0  0  0  0  0
    7.8689  -14.0234   17.0328 O   0  0  0  0  0  0  0  0  0  0  0  0
    8.6967  -14.5588   19.1728 C   0  0  0  0  0  0  0  0  0  0  0  0
    9.2313  -13.8409   20.4008 C   0  0  0  0  0  0  0  0  0  0  0  0
    9.6290  -14.8614   21.4705 C   0  0  2  0  0  0  0  0  0  0  0  0
    9.9454  -16.1372   20.8715 N   0  0  0  0  0  0  0  0  0  0  0  0
    8.4515  -15.0308   22.3725 C   0  0  0  0  0  0  0  0  0  0  0  0
    8.0344  -14.0354   22.9972 O   0  0  0  0  0  0  0  0  0  0  0  0
    5.6321  -17.3501   22.7006 C   0  0  0  0  0  0  0  0  0  0  0  0
    6.7057  -16.5345   23.3669 C   0  0  2  0  0  0  0  0  0  0  0  0
    7.8290  -16.3032   22.5074 N   0  0  0  0  0  0  0  0  0  0  0  0
    7.1375  -17.1394   24.6621 C   0  0  0  0  0  0  0  0  0  0  0  0
    6.2654  -17.4213   25.5054 O   0  0  0  0  0  0  0  0  0  0  0  0
    8.5056  -17.3906   24.9342 N   0  0  0  0  0  0  0  0  0  0  0  0
    8.8748  -17.9677   26.2020 C   0  0  1  0  0  0  0  0  0  0  0  0
    8.9043  -19.4917   26.0694 C   0  0  0  0  0  0  0  0  0  0  0  0
    9.6717  -20.2630   27.5127 S   0  0  0  0  0  0  0  0  0  0  0  0
   10.1899  -17.4683   26.6765 C   0  0  0  0  0  0  0  0  0  0  0  0
   11.0482  -17.1244   25.8457 O   0  0  0  0  0  0  0  0  0  0  0  0
   10.4666  -17.3831   28.0320 O   0  0  0  0  0  0  0  0  0  0  0  0
  2  3  2  0
  2  1  1  0
  4  2  1  0
  5  4  1  0
  5  6  1  0
  6  7  1  6
  8 12  1  0
  8  6  1  0
  9  8  2  0
 11 10  1  6
 11 12  1  0
 11 13  1  0
 13 15  1  0
 14 13  2  0
 15 16  1  0
 16 19  1  0
 16 17  1  6
 17 18  1  0
 19 21  1  0
 20 19  2  0
M  END
$$$$
