QAC.pdb
     RDKit          3D

 21 20  0  0  1  0  0  0  0  0999 V2000
   10.5498  -19.2094   18.4116 N   0  0  0  0  0  0  0  0  0  0  0  0
    9.1460  -19.2265   18.4942 C   0  0  0  0  0  0  0  0  0  0  0  0
    8.4694  -19.7219   17.5726 O   0  0  0  0  0  0  0  0  0  0  0  0
    8.4709  -18.6570   19.6744 C   0  0  0  0  0  0  0  0  0  0  0  0
    9.4729  -18.0653   20.6518 C   0  0  0  0  0  0  0  0  0  0  0  0
    8.7381  -17.4617   21.8515 C   0  0  2  0  0  0  0  0  0  0  0  0
    7.3261  -17.7606   21.7931 N   0  0  0  0  0  0  0  0  0  0  0  0
    8.9214  -15.9820   21.7772 C   0  0  0  0  0  0  0  0  0  0  0  0
   10.0760  -15.5213   21.8751 O   0  0  0  0  0  0  0  0  0  0  0  0
    6.6974  -13.0554   20.9258 C   0  0  0  0  0  0  0  0  0  0  0  0
    7.9015  -13.6997   21.5556 C   0  0  2  0  0  0  0  0  0  0  0  0
    7.7969  -15.1284   21.5988 N   0  0  0  0  0  0  0  0  0  0  0  0
    8.1829  -13.1416   22.9118 C   0  0  0  0  0  0  0  0  0  0  0  0
    8.4216  -11.9235   23.0144 O   0  0  0  0  0  0  0  0  0  0  0  0
    8.1804  -13.9710   24.0611 N   0  0  0  0  0  0  0  0  0  0  0  0
    8.0980  -13.3633   25.3652 C   0  0  1  0  0  0  0  0  0  0  0  0
    6.7654  -12.6219   25.4895 C   0  0  0  0  0  0  0  0  0  0  0  0
    6.5250  -11.9764   27.1605 S   0  0  0  0  0  0  0  0  0  0  0  0
    8.2315  -14.3649   26.4529 C   0  0  0  0  0  0  0  0  0  0  0  0
    8.4215  -13.9782   27.6188 O   0  0  0  0  0  0  0  0  0  0  0  0
    8.1464  -15.7210   26.1795 O   0  0  0  0  0  0  0  0  0  0  0  0
  2  3  2  0
  2  1  1  0
  4  2  1  0
  5  4  1  0
  5  6  1  0
  6  7  1  6
  8 12  1  0
  8  6  1  0
  9  8  2  0
 11 10  1  1
 11 12  1  0
 11 13  1  0
 13 15  1  0
 14 13  2  0
 15 16  1  0
 16 19  1  0
 16 17  1  6
 17 18  1  0
 19 21  1  0
 20 19  2  0
M  END
$$$$
