QAC.pdb
     RDKit          3D

 21 20  0  0  1  0  0  0  0  0999 V2000
   12.7721  -19.6400   19.5055 N   0  0  0  0  0  0  0  0  0  0  0  0
   11.6482  -19.7464   18.6667 C   0  0  0  0  0  0  0  0  0  0  0  0
   11.5867  -20.6513   17.8123 O   0  0  0  0  0  0  0  0  0  0  0  0
   10.5384  -18.7851   18.7973 C   0  0  0  0  0  0  0  0  0  0  0  0
   10.8506  -17.7186   19.8338 C   0  0  0  0  0  0  0  0  0  0  0  0
   10.2869  -18.1330   21.1954 C   0  0  2  0  0  0  0  0  0  0  0  0
    8.9407  -18.6395   21.0620 N   0  0  0  0  0  0  0  0  0  0  0  0
   10.2590  -16.9081   22.0484 C   0  0  0  0  0  0  0  0  0  0  0  0
   11.3426  -16.3680   22.3470 O   0  0  0  0  0  0  0  0  0  0  0  0
    7.7038  -14.3931   23.0373 C   0  0  0  0  0  0  0  0  0  0  0  0
    8.9254  -15.2175   23.3372 C   0  0  2  0  0  0  0  0  0  0  0  0
    9.0188  -16.3794   22.5033 N   0  0  0  0  0  0  0  0  0  0  0  0
    9.0034  -15.5869   24.7820 C   0  0  0  0  0  0  0  0  0  0  0  0
    9.0014  -14.6738   25.6290 O   0  0  0  0  0  0  0  0  0  0  0  0
    9.0785  -16.9424   25.1893 N   0  0  0  0  0  0  0  0  0  0  0  0
    9.2298  -17.2474   26.5895 C   0  0  1  0  0  0  0  0  0  0  0  0
    8.2879  -18.3957   26.9572 C   0  0  0  0  0  0  0  0  0  0  0  0
    6.5656  -17.9702   26.6117 S   0  0  0  0  0  0  0  0  0  0  0  0
   10.6302  -17.6028   26.9313 C   0  0  0  0  0  0  0  0  0  0  0  0
   10.9138  -17.9093   28.1020 O   0  0  0  0  0  0  0  0  0  0  0  0
   11.6186  -17.5955   25.9596 O   0  0  0  0  0  0  0  0  0  0  0  0
  2  3  2  0
  2  1  1  0
  4  2  1  0
  5  4  1  0
  5  6  1  0
  6  7  1  6
  8 12  1  0
  8  6  1  0
  9  8  2  0
 11 10  1  1
 11 12  1  0
 11 13  1  0
 13 15  1  0
 14 13  2  0
 15 16  1  0
 16 19  1  0
 16 17  1  6
 17 18  1  0
 19 21  1  0
 20 19  2  0
M  END
$$$$
