QAC.pdb
     RDKit          3D

 21 20  0  0  1  0  0  0  0  0999 V2000
    4.8264  -19.5797   20.1026 N   0  0  0  0  0  0  0  0  0  0  0  0
    4.3493  -18.4942   20.8588 C   0  0  0  0  0  0  0  0  0  0  0  0
    3.1294  -18.3733   21.0821 O   0  0  0  0  0  0  0  0  0  0  0  0
    5.2940  -17.4951   21.3899 C   0  0  0  0  0  0  0  0  0  0  0  0
    6.6921  -17.7063   20.8331 C   0  0  0  0  0  0  0  0  0  0  0  0
    7.6837  -17.9214   21.9794 C   0  0  2  0  0  0  0  0  0  0  0  0
    7.0546  -18.6132   23.0804 N   0  0  0  0  0  0  0  0  0  0  0  0
    8.1161  -16.5698   22.4429 C   0  0  0  0  0  0  0  0  0  0  0  0
    8.8151  -15.8756   21.6783 O   0  0  0  0  0  0  0  0  0  0  0  0
    7.0801  -14.1789   25.0914 C   0  0  0  0  0  0  0  0  0  0  0  0
    8.1432  -14.8241   24.2456 C   0  0  2  0  0  0  0  0  0  0  0  0
    7.7331  -16.0965   23.7290 N   0  0  0  0  0  0  0  0  0  0  0  0
    9.4408  -14.9352   24.9762 C   0  0  0  0  0  0  0  0  0  0  0  0
   10.4504  -14.4036   24.4769 O   0  0  0  0  0  0  0  0  0  0  0  0
    9.5309  -15.6276   26.2097 N   0  0  0  0  0  0  0  0  0  0  0  0
   10.7547  -15.5559   26.9672 C   0  0  1  0  0  0  0  0  0  0  0  0
   10.9588  -14.1202   27.4552 C   0  0  0  0  0  0  0  0  0  0  0  0
    9.6437  -13.6172   28.5883 S   0  0  0  0  0  0  0  0  0  0  0  0
   10.7499  -16.4934   28.1183 C   0  0  0  0  0  0  0  0  0  0  0  0
    9.7086  -17.1123   28.3971 O   0  0  0  0  0  0  0  0  0  0  0  0
   11.8919  -16.6829   28.8805 O   0  0  0  0  0  0  0  0  0  0  0  0
  2  3  2  0
  2  1  1  0
  4  2  1  0
  5  4  1  0
  5  6  1  0
  6  7  1  1
  8 12  1  0
  8  6  1  0
  9  8  2  0
 11 10  1  1
 11 12  1  0
 11 13  1  0
 13 15  1  0
 14 13  2  0
 15 16  1  0
 16 19  1  0
 16 17  1  1
 17 18  1  0
 19 21  1  0
 20 19  2  0
M  END
$$$$
