QAC.pdb
     RDKit          3D

 21 20  0  0  1  0  0  0  0  0999 V2000
    8.4929  -14.8927   14.5268 N   0  0  0  0  0  0  0  0  0  0  0  0
    9.0302  -16.1455   14.1812 C   0  0  0  0  0  0  0  0  0  0  0  0
    8.6700  -16.7149   13.1330 O   0  0  0  0  0  0  0  0  0  0  0  0
   10.0229  -16.7889   15.0606 C   0  0  0  0  0  0  0  0  0  0  0  0
   10.4182  -15.8750   16.2086 C   0  0  0  0  0  0  0  0  0  0  0  0
    9.7377  -16.3352   17.5004 C   0  0  2  0  0  0  0  0  0  0  0  0
    8.3665  -16.7156   17.2519 N   0  0  0  0  0  0  0  0  0  0  0  0
    9.7538  -15.1754   18.4403 C   0  0  0  0  0  0  0  0  0  0  0  0
   10.8361  -14.8570   18.9715 O   0  0  0  0  0  0  0  0  0  0  0  0
    7.2674  -12.5007   19.3980 C   0  0  0  0  0  0  0  0  0  0  0  0
    8.5073  -13.3287   19.5953 C   0  0  2  0  0  0  0  0  0  0  0  0
    8.5556  -14.4587   18.7150 N   0  0  0  0  0  0  0  0  0  0  0  0
    8.6714  -13.7504   21.0184 C   0  0  0  0  0  0  0  0  0  0  0  0
    8.8036  -12.8680   21.8873 O   0  0  0  0  0  0  0  0  0  0  0  0
    8.6777  -15.1206   21.3811 N   0  0  0  0  0  0  0  0  0  0  0  0
    8.9065  -15.4814   22.7573 C   0  0  1  0  0  0  0  0  0  0  0  0
    7.5831  -15.9205   23.3872 C   0  0  0  0  0  0  0  0  0  0  0  0
    6.6561  -17.0075   22.2800 S   0  0  0  0  0  0  0  0  0  0  0  0
    9.9192  -16.5592   22.8869 C   0  0  0  0  0  0  0  0  0  0  0  0
   10.3415  -16.8677   24.0144 O   0  0  0  0  0  0  0  0  0  0  0  0
   10.3948  -17.2208   21.7656 O   0  0  0  0  0  0  0  0  0  0  0  0
  2  3  2  0
  2  1  1  0
  4  2  1  0
  5  4  1  0
  5  6  1  0
  6  7  1  6
  8 12  1  0
  8  6  1  0
  9  8  2  0
 11 10  1  1
 11 12  1  0
 11 13  1  0
 13 15  1  0
 14 13  2  0
 15 16  1  0
 16 19  1  0
 16 17  1  6
 17 18  1  0
 19 21  1  0
 20 19  2  0
M  END
$$$$
