QAC.pdb
     RDKit          3D

 21 20  0  0  1  0  0  0  0  0999 V2000
   10.7529  -13.5349   19.8587 N   0  0  0  0  0  0  0  0  0  0  0  0
    9.9833  -13.0541   18.7842 C   0  0  0  0  0  0  0  0  0  0  0  0
   10.5343  -12.7232   17.7168 O   0  0  0  0  0  0  0  0  0  0  0  0
    8.5199  -12.9406   18.9195 C   0  0  0  0  0  0  0  0  0  0  0  0
    8.0568  -13.3825   20.2977 C   0  0  0  0  0  0  0  0  0  0  0  0
    8.0191  -14.9112   20.3706 C   0  0  2  0  0  0  0  0  0  0  0  0
    7.0568  -15.4468   19.4359 N   0  0  0  0  0  0  0  0  0  0  0  0
    7.5982  -15.2727   21.7566 C   0  0  0  0  0  0  0  0  0  0  0  0
    6.3959  -15.1485   22.0632 O   0  0  0  0  0  0  0  0  0  0  0  0
    8.7937  -17.4128   24.4642 C   0  0  0  0  0  0  0  0  0  0  0  0
    8.2210  -16.0861   24.0475 C   0  0  2  0  0  0  0  0  0  0  0  0
    8.5562  -15.7465   22.6960 N   0  0  0  0  0  0  0  0  0  0  0  0
    8.6125  -14.9938   24.9875 C   0  0  0  0  0  0  0  0  0  0  0  0
    9.7511  -14.5001   24.8823 O   0  0  0  0  0  0  0  0  0  0  0  0
    7.7159  -14.5235   25.9793 N   0  0  0  0  0  0  0  0  0  0  0  0
    8.1759  -13.5494   26.9365 C   0  0  1  0  0  0  0  0  0  0  0  0
    6.9710  -12.7959   27.5036 C   0  0  0  0  0  0  0  0  0  0  0  0
    5.5380  -12.9285   26.4102 S   0  0  0  0  0  0  0  0  0  0  0  0
    8.9529  -14.1761   28.0354 C   0  0  0  0  0  0  0  0  0  0  0  0
    9.5137  -13.4525   28.8761 O   0  0  0  0  0  0  0  0  0  0  0  0
    9.0572  -15.5550   28.1304 O   0  0  0  0  0  0  0  0  0  0  0  0
  2  3  2  0
  2  1  1  0
  4  2  1  0
  5  4  1  0
  5  6  1  0
  6  7  1  6
  8 12  1  0
  8  6  1  0
  9  8  2  0
 11 10  1  1
 11 12  1  0
 11 13  1  0
 13 15  1  0
 14 13  2  0
 15 16  1  0
 16 19  1  0
 16 17  1  1
 17 18  1  0
 19 21  1  0
 20 19  2  0
M  END
$$$$
