QAC.pdb
     RDKit          3D

 21 20  0  0  1  0  0  0  0  0999 V2000
    6.2989  -19.5150   18.4847 N   0  0  0  0  0  0  0  0  0  0  0  0
    6.2093  -19.8813   19.8396 C   0  0  0  0  0  0  0  0  0  0  0  0
    6.2111  -21.0839   20.1656 O   0  0  0  0  0  0  0  0  0  0  0  0
    6.1128  -18.8404   20.8788 C   0  0  0  0  0  0  0  0  0  0  0  0
    5.8064  -17.4812   20.2723 C   0  0  0  0  0  0  0  0  0  0  0  0
    7.0996  -16.8247   19.7821 C   0  0  2  0  0  0  0  0  0  0  0  0
    8.0270  -17.8182   19.2929 N   0  0  0  0  0  0  0  0  0  0  0  0
    7.7098  -16.1311   20.9549 C   0  0  0  0  0  0  0  0  0  0  0  0
    8.6298  -16.7047   21.5709 O   0  0  0  0  0  0  0  0  0  0  0  0
    7.3521  -12.6700   22.4511 C   0  0  0  0  0  0  0  0  0  0  0  0
    7.8440  -14.0907   22.4096 C   0  0  2  0  0  0  0  0  0  0  0  0
    7.2435  -14.8462   21.3501 N   0  0  0  0  0  0  0  0  0  0  0  0
    7.6672  -14.7768   23.7241 C   0  0  0  0  0  0  0  0  0  0  0  0
    6.5130  -14.9142   24.1713 O   0  0  0  0  0  0  0  0  0  0  0  0
    8.7811  -15.2636   24.4529 N   0  0  0  0  0  0  0  0  0  0  0  0
    8.5604  -16.1774   25.5451 C   0  0  1  0  0  0  0  0  0  0  0  0
    7.8408  -17.4215   25.0203 C   0  0  0  0  0  0  0  0  0  0  0  0
    7.3169  -18.4986   26.3737 S   0  0  0  0  0  0  0  0  0  0  0  0
    9.8302  -16.5619   26.2114 C   0  0  0  0  0  0  0  0  0  0  0  0
   10.8749  -16.6298   25.5414 O   0  0  0  0  0  0  0  0  0  0  0  0
    9.8593  -16.8442   27.5681 O   0  0  0  0  0  0  0  0  0  0  0  0
  2  3  2  0
  2  1  1  0
  4  2  1  0
  5  4  1  0
  5  6  1  0
  6  7  1  1
  8 12  1  0
  8  6  1  0
  9  8  2  0
 11 10  1  1
 11 12  1  0
 11 13  1  0
 13 15  1  0
 14 13  2  0
 15 16  1  0
 16 19  1  0
 16 17  1  6
 17 18  1  0
 19 21  1  0
 20 19  2  0
M  END
$$$$
