QAC.pdb
     RDKit          3D

 21 20  0  0  1  0  0  0  0  0999 V2000
    8.7535  -12.3553   18.5461 N   0  0  0  0  0  0  0  0  0  0  0  0
    8.2049  -13.4020   17.7837 C   0  0  0  0  0  0  0  0  0  0  0  0
    8.2734  -13.3747   16.5399 O   0  0  0  0  0  0  0  0  0  0  0  0
    7.5463  -14.5361   18.4566 C   0  0  0  0  0  0  0  0  0  0  0  0
    7.6053  -14.3913   19.9682 C   0  0  0  0  0  0  0  0  0  0  0  0
    8.3707  -15.5695   20.5761 C   0  0  2  0  0  0  0  0  0  0  0  0
    8.0314  -16.8035   19.9064 N   0  0  0  0  0  0  0  0  0  0  0  0
    7.9574  -15.6679   22.0072 C   0  0  0  0  0  0  0  0  0  0  0  0
    6.9084  -15.0950   22.3627 O   0  0  0  0  0  0  0  0  0  0  0  0
    8.6244  -17.9127   24.8464 C   0  0  0  0  0  0  0  0  0  0  0  0
    8.4184  -16.5179   24.3230 C   0  0  2  0  0  0  0  0  0  0  0  0
    8.7504  -16.4010   22.9337 N   0  0  0  0  0  0  0  0  0  0  0  0
    9.1554  -15.5061   25.1372 C   0  0  0  0  0  0  0  0  0  0  0  0
   10.3353  -15.2464   24.8348 O   0  0  0  0  0  0  0  0  0  0  0  0
    8.5347  -14.8515   26.2305 N   0  0  0  0  0  0  0  0  0  0  0  0
    9.3019  -13.9206   27.0187 C   0  0  1  0  0  0  0  0  0  0  0  0
    8.4646  -12.6641   27.2663 C   0  0  0  0  0  0  0  0  0  0  0  0
    6.7197  -13.0721   27.5018 S   0  0  0  0  0  0  0  0  0  0  0  0
    9.7340  -14.5120   28.3101 C   0  0  0  0  0  0  0  0  0  0  0  0
    9.2941  -15.6237   28.6499 O   0  0  0  0  0  0  0  0  0  0  0  0
   10.6197  -13.8372   29.1355 O   0  0  0  0  0  0  0  0  0  0  0  0
  2  3  2  0
  2  1  1  0
  4  2  1  0
  5  4  1  0
  5  6  1  0
  6  7  1  6
  8 12  1  0
  8  6  1  0
  9  8  2  0
 11 10  1  1
 11 12  1  0
 11 13  1  0
 13 15  1  0
 14 13  2  0
 15 16  1  0
 16 19  1  0
 16 17  1  1
 17 18  1  0
 19 21  1  0
 20 19  2  0
M  END
$$$$
