QAC.pdb
     RDKit          3D

 21 20  0  0  1  0  0  0  0  0999 V2000
    5.1877  -20.0930   23.8523 N   0  0  0  0  0  0  0  0  0  0  0  0
    4.5955  -20.5221   22.6511 C   0  0  0  0  0  0  0  0  0  0  0  0
    3.8160  -21.4942   22.6482 O   0  0  0  0  0  0  0  0  0  0  0  0
    4.8967  -19.8206   21.3901 C   0  0  0  0  0  0  0  0  0  0  0  0
    5.8495  -18.6590   21.6183 C   0  0  0  0  0  0  0  0  0  0  0  0
    6.2081  -18.0072   20.2803 C   0  0  2  0  0  0  0  0  0  0  0  0
    6.8708  -18.9506   19.4101 N   0  0  0  0  0  0  0  0  0  0  0  0
    7.1459  -16.8845   20.5782 C   0  0  0  0  0  0  0  0  0  0  0  0
    8.3327  -17.1579   20.8465 O   0  0  0  0  0  0  0  0  0  0  0  0
    6.8390  -13.1066   20.6934 C   0  0  0  0  0  0  0  0  0  0  0  0
    7.4808  -14.4327   20.9956 C   0  0  2  0  0  0  0  0  0  0  0  0
    6.6841  -15.5389   20.5532 N   0  0  0  0  0  0  0  0  0  0  0  0
    7.8249  -14.5648   22.4427 C   0  0  0  0  0  0  0  0  0  0  0  0
    6.9717  -14.2353   23.2881 O   0  0  0  0  0  0  0  0  0  0  0  0
    9.0905  -15.0526   22.8540 N   0  0  0  0  0  0  0  0  0  0  0  0
    9.3526  -15.2268   24.2603 C   0  0  1  0  0  0  0  0  0  0  0  0
    8.3203  -16.1918   24.8469 C   0  0  0  0  0  0  0  0  0  0  0  0
    8.6826  -16.5711   26.5765 S   0  0  0  0  0  0  0  0  0  0  0  0
   10.7265  -15.7311   24.5098 C   0  0  0  0  0  0  0  0  0  0  0  0
   11.1425  -15.8164   25.6780 O   0  0  0  0  0  0  0  0  0  0  0  0
   11.5445  -16.1054   23.4554 O   0  0  0  0  0  0  0  0  0  0  0  0
  2  3  2  0
  2  1  1  0
  4  2  1  0
  5  4  1  0
  5  6  1  0
  6  7  1  6
  8 12  1  0
  8  6  1  0
  9  8  2  0
 11 10  1  1
 11 12  1  0
 11 13  1  0
 13 15  1  0
 14 13  2  0
 15 16  1  0
 16 19  1  0
 16 17  1  6
 17 18  1  0
 19 21  1  0
 20 19  2  0
M  END
$$$$
