AAH.pdb
     RDKit          3D

 21 21  0  0  1  0  0  0  0  0999 V2000
   18.7968  -12.8432  -17.4417 C   0  0  0  0  0  0  0  0  0  0  0  0
   18.2213  -11.4813  -17.0789 C   0  0  2  0  0  0  0  0  0  0  0  0
   17.2614  -11.1451  -18.1143 N   0  0  0  0  0  0  0  0  0  0  0  0
   19.3439  -10.5178  -17.0334 C   0  0  0  0  0  0  0  0  0  0  0  0
   20.2461  -10.7080  -16.1805 O   0  0  0  0  0  0  0  0  0  0  0  0
   20.6533   -7.6478  -19.0388 C   0  0  0  0  0  0  0  0  0  0  0  0
   20.5202   -8.4028  -17.7310 C   0  0  2  0  0  0  0  0  0  0  0  0
   19.4655   -9.3915  -17.8933 N   0  0  0  0  0  0  0  0  0  0  0  0
   20.2271   -7.4740  -16.6046 C   0  0  0  0  0  0  0  0  0  0  0  0
   19.0367   -7.1206  -16.4564 O   0  0  0  0  0  0  0  0  0  0  0  0
   21.2136   -6.9858  -15.7161 N   0  0  0  0  0  0  0  0  0  0  0  0
   20.9326   -5.9928  -14.6994 C   0  0  1  0  0  0  0  0  0  0  0  0
   21.2083   -6.6270  -13.3585 C   0  0  0  0  0  0  0  0  0  0  0  0
   20.1148   -7.4805  -12.8568 C   0  0  0  0  0  0  0  0  0  0  0  0
   18.8920   -7.7048  -13.4484 C   0  0  0  0  0  0  0  0  0  0  0  0
   18.1995   -8.5333  -12.6475 N   0  0  0  0  0  0  0  0  0  0  0  0
   18.9865   -8.8022  -11.5971 C   0  0  0  0  0  0  0  0  0  0  0  0
   20.1515   -8.1735  -11.7054 N   0  0  0  0  0  0  0  0  0  0  0  0
   21.7933   -4.7918  -14.8642 C   0  0  0  0  0  0  0  0  0  0  0  0
   22.8444   -4.8075  -15.5553 O   0  0  0  0  0  0  0  0  0  0  0  0
   21.5035   -3.5588  -14.2658 O   0  0  0  0  0  0  0  0  0  0  0  0
  2  1  1  6
  2  4  1  0
  2  3  1  0
  4  5  2  0
  7  6  1  6
  8  7  1  0
  8  4  1  0
  9 10  2  0
  9  7  1  0
 11  9  1  0
 12 11  1  0
 12 13  1  1
 13 14  1  0
 14 15  2  0
 14 18  1  0
 15 16  1  0
 16 17  1  0
 18 17  2  0
 19 12  1  0
 20 19  2  0
 21 19  1  0
M  END
$$$$
