AAH.pdb
     RDKit          3D

 21 21  0  0  1  0  0  0  0  0999 V2000
   28.0665  -20.9686  -15.7220 C   0  0  0  0  0  0  0  0  0  0  0  0
   28.2596  -19.5289  -15.2667 C   0  0  2  0  0  0  0  0  0  0  0  0
   28.8788  -19.5858  -13.9552 N   0  0  0  0  0  0  0  0  0  0  0  0
   26.9250  -18.8907  -15.2195 C   0  0  0  0  0  0  0  0  0  0  0  0
   26.1733  -19.1732  -14.2537 O   0  0  0  0  0  0  0  0  0  0  0  0
   25.1680  -16.1112  -17.0079 C   0  0  0  0  0  0  0  0  0  0  0  0
   25.1706  -17.2848  -16.0482 C   0  0  2  0  0  0  0  0  0  0  0  0
   26.4403  -17.9788  -16.1975 N   0  0  0  0  0  0  0  0  0  0  0  0
   24.0197  -18.1926  -16.3104 C   0  0  0  0  0  0  0  0  0  0  0  0
   24.1965  -19.1047  -17.1475 O   0  0  0  0  0  0  0  0  0  0  0  0
   22.7650  -18.0707  -15.6686 N   0  0  0  0  0  0  0  0  0  0  0  0
   21.6245  -18.8959  -16.0107 C   0  0  1  0  0  0  0  0  0  0  0  0
   20.5765  -18.6837  -14.9462 C   0  0  0  0  0  0  0  0  0  0  0  0
   19.3174  -19.4146  -15.1829 C   0  0  0  0  0  0  0  0  0  0  0  0
   19.1607  -20.7697  -15.3690 C   0  0  0  0  0  0  0  0  0  0  0  0
   17.8514  -21.0040  -15.5642 N   0  0  0  0  0  0  0  0  0  0  0  0
   17.2328  -19.8174  -15.4975 C   0  0  0  0  0  0  0  0  0  0  0  0
   18.1040  -18.8417  -15.2670 N   0  0  0  0  0  0  0  0  0  0  0  0
   21.0649  -18.5221  -17.3363 C   0  0  0  0  0  0  0  0  0  0  0  0
   20.9680  -17.3253  -17.7120 O   0  0  0  0  0  0  0  0  0  0  0  0
   20.6042  -19.4665  -18.2627 O   0  0  0  0  0  0  0  0  0  0  0  0
  2  1  1  1
  2  4  1  0
  2  3  1  0
  4  5  2  0
  7  6  1  6
  8  7  1  0
  8  4  1  0
  9 10  2  0
  9  7  1  0
 11  9  1  0
 12 11  1  0
 12 13  1  1
 13 14  1  0
 14 15  2  0
 14 18  1  0
 15 16  1  0
 16 17  1  0
 18 17  2  0
 19 12  1  0
 20 19  2  0
 21 19  1  0
M  END
$$$$
