AAH.pdb
     RDKit          3D

 21 21  0  0  1  0  0  0  0  0999 V2000
   20.1117  -15.5262  -17.3777 C   0  0  0  0  0  0  0  0  0  0  0  0
   21.4932  -15.6370  -16.7480 C   0  0  2  0  0  0  0  0  0  0  0  0
   21.5180  -16.8892  -16.0145 N   0  0  0  0  0  0  0  0  0  0  0  0
   21.6736  -14.4707  -15.8548 C   0  0  0  0  0  0  0  0  0  0  0  0
   20.6804  -14.0792  -15.1931 O   0  0  0  0  0  0  0  0  0  0  0  0
   24.4992  -12.3144  -14.6514 C   0  0  0  0  0  0  0  0  0  0  0  0
   23.0223  -12.6101  -14.8239 C   0  0  2  0  0  0  0  0  0  0  0  0
   22.8991  -13.7660  -15.6984 N   0  0  0  0  0  0  0  0  0  0  0  0
   22.3015  -11.4300  -15.3763 C   0  0  0  0  0  0  0  0  0  0  0  0
   22.3957  -11.2337  -16.6078 O   0  0  0  0  0  0  0  0  0  0  0  0
   21.5331  -10.5425  -14.5871 N   0  0  0  0  0  0  0  0  0  0  0  0
   20.8426   -9.3959  -15.1412 C   0  0  1  0  0  0  0  0  0  0  0  0
   19.4457   -9.3895  -14.5712 C   0  0  0  0  0  0  0  0  0  0  0  0
   18.5700  -10.4499  -15.1046 C   0  0  0  0  0  0  0  0  0  0  0  0
   18.3189  -10.7390  -16.4271 C   0  0  0  0  0  0  0  0  0  0  0  0
   17.4554  -11.7688  -16.4607 N   0  0  0  0  0  0  0  0  0  0  0  0
   17.1916  -12.0930  -15.1877 C   0  0  0  0  0  0  0  0  0  0  0  0
   17.8575  -11.3053  -14.3509 N   0  0  0  0  0  0  0  0  0  0  0  0
   21.5284   -8.1265  -14.7823 C   0  0  0  0  0  0  0  0  0  0  0  0
   22.4741   -8.0841  -13.9537 O   0  0  0  0  0  0  0  0  0  0  0  0
   21.1763   -6.8879  -15.3339 O   0  0  0  0  0  0  0  0  0  0  0  0
  2  1  1  1
  2  4  1  0
  2  3  1  0
  4  5  2  0
  7  6  1  6
  8  7  1  0
  8  4  1  0
  9 10  2  0
  9  7  1  0
 11  9  1  0
 12 11  1  0
 12 13  1  1
 13 14  1  0
 14 15  2  0
 14 18  1  0
 15 16  1  0
 16 17  1  0
 18 17  2  0
 19 12  1  0
 20 19  2  0
 21 19  1  0
M  END
$$$$
