AAH.pdb
     RDKit          3D

 21 21  0  0  1  0  0  0  0  0999 V2000
   20.6845  -27.2558  -14.0026 C   0  0  0  0  0  0  0  0  0  0  0  0
   21.4514  -26.4014  -15.0023 C   0  0  2  0  0  0  0  0  0  0  0  0
   22.1342  -27.3181  -15.8968 N   0  0  0  0  0  0  0  0  0  0  0  0
   22.4034  -25.5638  -14.2389 C   0  0  0  0  0  0  0  0  0  0  0  0
   22.4782  -25.7430  -12.9979 O   0  0  0  0  0  0  0  0  0  0  0  0
   25.3056  -23.3518  -14.8840 C   0  0  0  0  0  0  0  0  0  0  0  0
   24.1182  -23.7319  -14.0215 C   0  0  2  0  0  0  0  0  0  0  0  0
   23.2378  -24.5698  -14.8208 N   0  0  0  0  0  0  0  0  0  0  0  0
   23.4110  -22.5208  -13.5212 C   0  0  0  0  0  0  0  0  0  0  0  0
   24.0522  -21.7643  -12.7592 O   0  0  0  0  0  0  0  0  0  0  0  0
   22.0770  -22.1966  -13.8624 N   0  0  0  0  0  0  0  0  0  0  0  0
   21.3774  -21.0587  -13.3020 C   0  0  1  0  0  0  0  0  0  0  0  0
   21.0462  -20.1252  -14.4401 C   0  0  0  0  0  0  0  0  0  0  0  0
   22.2122  -19.4157  -14.9993 C   0  0  0  0  0  0  0  0  0  0  0  0
   23.4834  -19.3548  -14.4740 C   0  0  0  0  0  0  0  0  0  0  0  0
   24.2262  -18.5931  -15.2959 N   0  0  0  0  0  0  0  0  0  0  0  0
   23.4214  -18.2036  -16.2937 C   0  0  0  0  0  0  0  0  0  0  0  0
   22.1967  -18.6917  -16.1320 N   0  0  0  0  0  0  0  0  0  0  0  0
   20.1218  -21.4762  -12.6242 C   0  0  0  0  0  0  0  0  0  0  0  0
   19.3499  -20.6510  -12.0708 O   0  0  0  0  0  0  0  0  0  0  0  0
   19.7045  -22.8113  -12.5484 O   0  0  0  0  0  0  0  0  0  0  0  0
  2  1  1  1
  2  4  1  0
  2  3  1  0
  4  5  2  0
  7  6  1  6
  8  7  1  0
  8  4  1  0
  9 10  2  0
  9  7  1  0
 11  9  1  0
 12 11  1  0
 12 13  1  6
 13 14  1  0
 14 15  2  0
 14 18  1  0
 15 16  1  0
 16 17  1  0
 18 17  2  0
 19 12  1  0
 20 19  2  0
 21 19  1  0
M  END
$$$$
