AAH.pdb
     RDKit          3D

 21 21  0  0  1  0  0  0  0  0999 V2000
   17.0025   -7.6419  -20.1195 C   0  0  0  0  0  0  0  0  0  0  0  0
   18.2514   -7.0962  -19.4413 C   0  0  2  0  0  0  0  0  0  0  0  0
   19.0545   -8.2437  -19.0608 N   0  0  0  0  0  0  0  0  0  0  0  0
   17.8159   -6.3126  -18.2636 C   0  0  0  0  0  0  0  0  0  0  0  0
   17.2197   -5.2264  -18.4693 O   0  0  0  0  0  0  0  0  0  0  0  0
   16.8208   -6.7097  -14.8410 C   0  0  0  0  0  0  0  0  0  0  0  0
   17.6537   -5.8701  -15.7894 C   0  0  2  0  0  0  0  0  0  0  0  0
   18.0297   -6.7112  -16.9152 N   0  0  0  0  0  0  0  0  0  0  0  0
   18.8514   -5.3146  -15.1007 C   0  0  0  0  0  0  0  0  0  0  0  0
   18.6641   -4.7636  -13.9938 O   0  0  0  0  0  0  0  0  0  0  0  0
   20.1608   -5.3817  -15.6319 N   0  0  0  0  0  0  0  0  0  0  0  0
   21.3156   -4.8402  -14.9450 C   0  0  1  0  0  0  0  0  0  0  0  0
   22.4387   -5.8368  -15.0925 C   0  0  0  0  0  0  0  0  0  0  0  0
   22.1386   -7.1720  -14.5422 C   0  0  0  0  0  0  0  0  0  0  0  0
   21.0885   -7.5209  -13.7230 C   0  0  0  0  0  0  0  0  0  0  0  0
   21.2045   -8.8323  -13.4505 N   0  0  0  0  0  0  0  0  0  0  0  0
   22.2994   -9.2642  -14.0907 C   0  0  0  0  0  0  0  0  0  0  0  0
   22.8795   -8.2729  -14.7578 N   0  0  0  0  0  0  0  0  0  0  0  0
   21.7308   -3.5378  -15.5297 C   0  0  0  0  0  0  0  0  0  0  0  0
   21.1689   -3.0454  -16.5419 O   0  0  0  0  0  0  0  0  0  0  0  0
   22.7734   -2.7642  -15.0035 O   0  0  0  0  0  0  0  0  0  0  0  0
  2  1  1  1
  2  4  1  0
  2  3  1  0
  4  5  2  0
  7  6  1  1
  8  7  1  0
  8  4  1  0
  9 10  2  0
  9  7  1  0
 11  9  1  0
 12 11  1  0
 12 13  1  6
 13 14  1  0
 14 15  2  0
 14 18  1  0
 15 16  1  0
 16 17  1  0
 18 17  2  0
 19 12  1  0
 20 19  2  0
 21 19  1  0
M  END
$$$$
