AAH.pdb
     RDKit          3D

 21 21  0  0  1  0  0  0  0  0999 V2000
   42.9725  -10.3486   -4.8879 C   0  0  0  0  0  0  0  0  0  0  0  0
   43.1262  -11.1006   -6.2025 C   0  0  2  0  0  0  0  0  0  0  0  0
   44.5342  -11.0476   -6.5511 N   0  0  0  0  0  0  0  0  0  0  0  0
   42.2825  -10.4196   -7.2100 C   0  0  0  0  0  0  0  0  0  0  0  0
   42.7027   -9.3393   -7.6936 O   0  0  0  0  0  0  0  0  0  0  0  0
   39.0469  -11.0678   -9.0122 C   0  0  0  0  0  0  0  0  0  0  0  0
   40.2041  -10.1743   -8.6113 C   0  0  2  0  0  0  0  0  0  0  0  0
   41.0274  -10.9104   -7.6644 N   0  0  0  0  0  0  0  0  0  0  0  0
   39.7146   -8.8948   -8.0275 C   0  0  0  0  0  0  0  0  0  0  0  0
   39.1414   -8.9607   -6.9180 O   0  0  0  0  0  0  0  0  0  0  0  0
   39.8663   -7.6381   -8.6589 N   0  0  0  0  0  0  0  0  0  0  0  0
   39.3232   -6.4126   -8.1095 C   0  0  1  0  0  0  0  0  0  0  0  0
   40.4818   -5.4841   -7.8413 C   0  0  0  0  0  0  0  0  0  0  0  0
   40.0907   -4.1713   -7.2941 C   0  0  0  0  0  0  0  0  0  0  0  0
   39.5748   -3.9073   -6.0452 C   0  0  0  0  0  0  0  0  0  0  0  0
   39.3485   -2.5842   -5.9708 N   0  0  0  0  0  0  0  0  0  0  0  0
   39.7194   -2.0624   -7.1478 C   0  0  0  0  0  0  0  0  0  0  0  0
   40.1718   -3.0081   -7.9633 N   0  0  0  0  0  0  0  0  0  0  0  0
   38.3809   -5.7651   -9.0599 C   0  0  0  0  0  0  0  0  0  0  0  0
   38.2589   -6.1484  -10.2519 O   0  0  0  0  0  0  0  0  0  0  0  0
   37.5629   -4.6849   -8.7047 O   0  0  0  0  0  0  0  0  0  0  0  0
  2  1  1  1
  2  4  1  0
  2  3  1  0
  4  5  2  0
  7  6  1  1
  8  7  1  0
  8  4  1  0
  9 10  2  0
  9  7  1  0
 11  9  1  0
 12 11  1  0
 12 13  1  6
 13 14  1  0
 14 15  2  0
 14 18  1  0
 15 16  1  0
 16 17  1  0
 18 17  2  0
 19 12  1  0
 20 19  2  0
 21 19  1  0
M  END
$$$$
