AAH.pdb
     RDKit          3D

 21 21  0  0  1  0  0  0  0  0999 V2000
   17.1355  -12.2799  -17.8708 C   0  0  0  0  0  0  0  0  0  0  0  0
   16.9626  -11.1179  -18.8390 C   0  0  2  0  0  0  0  0  0  0  0  0
   16.6668  -11.6969  -20.1366 N   0  0  0  0  0  0  0  0  0  0  0  0
   18.2295  -10.3528  -18.8520 C   0  0  0  0  0  0  0  0  0  0  0  0
   19.2570  -10.9266  -19.2909 O   0  0  0  0  0  0  0  0  0  0  0  0
   19.3260   -6.8259  -18.1712 C   0  0  0  0  0  0  0  0  0  0  0  0
   19.6140   -8.2825  -18.4772 C   0  0  2  0  0  0  0  0  0  0  0  0
   18.3569   -9.0105  -18.3995 N   0  0  0  0  0  0  0  0  0  0  0  0
   20.6240   -8.8376  -17.5343 C   0  0  0  0  0  0  0  0  0  0  0  0
   20.2079   -9.2197  -16.4186 O   0  0  0  0  0  0  0  0  0  0  0  0
   22.0009   -8.9486  -17.8388 N   0  0  0  0  0  0  0  0  0  0  0  0
   22.9867   -9.3836  -16.8705 C   0  0  1  0  0  0  0  0  0  0  0  0
   24.2416   -9.7378  -17.6297 C   0  0  0  0  0  0  0  0  0  0  0  0
   25.3424  -10.2323  -16.7815 C   0  0  0  0  0  0  0  0  0  0  0  0
   25.6364  -11.5418  -16.4743 C   0  0  0  0  0  0  0  0  0  0  0  0
   26.7089  -11.5377  -15.6637 N   0  0  0  0  0  0  0  0  0  0  0  0
   27.0535  -10.2552  -15.4860 C   0  0  0  0  0  0  0  0  0  0  0  0
   26.2375   -9.4487  -16.1552 N   0  0  0  0  0  0  0  0  0  0  0  0
   23.2902   -8.3096  -15.8882 C   0  0  0  0  0  0  0  0  0  0  0  0
   23.4718   -8.5478  -14.6662 O   0  0  0  0  0  0  0  0  0  0  0  0
   23.3952   -6.9589  -16.2442 O   0  0  0  0  0  0  0  0  0  0  0  0
  2  1  1  1
  2  4  1  0
  2  3  1  0
  4  5  2  0
  7  6  1  1
  8  7  1  0
  8  4  1  0
  9 10  2  0
  9  7  1  0
 11  9  1  0
 12 11  1  0
 12 13  1  6
 13 14  1  0
 14 15  2  0
 14 18  1  0
 15 16  1  0
 16 17  1  0
 18 17  2  0
 19 12  1  0
 20 19  2  0
 21 19  1  0
M  END
$$$$
