AAH.pdb
     RDKit          3D

 21 21  0  0  1  0  0  0  0  0999 V2000
   25.5651  -18.1332  -15.8642 C   0  0  0  0  0  0  0  0  0  0  0  0
   26.6734  -19.1550  -16.0760 C   0  0  2  0  0  0  0  0  0  0  0  0
   26.3199  -19.9140  -17.2616 N   0  0  0  0  0  0  0  0  0  0  0  0
   26.7308  -20.0108  -14.8698 C   0  0  0  0  0  0  0  0  0  0  0  0
   25.8264  -20.8687  -14.7155 O   0  0  0  0  0  0  0  0  0  0  0  0
   29.1169  -20.6601  -12.0491 C   0  0  0  0  0  0  0  0  0  0  0  0
   27.7539  -20.7823  -12.7015 C   0  0  2  0  0  0  0  0  0  0  0  0
   27.7439  -19.9233  -13.8754 N   0  0  0  0  0  0  0  0  0  0  0  0
   26.6701  -20.4150  -11.7487 C   0  0  0  0  0  0  0  0  0  0  0  0
   26.3190  -19.2150  -11.7249 O   0  0  0  0  0  0  0  0  0  0  0  0
   26.0356  -21.3428  -10.8898 N   0  0  0  0  0  0  0  0  0  0  0  0
   24.9877  -20.9659   -9.9634 C   0  0  1  0  0  0  0  0  0  0  0  0
   25.3931  -19.6586   -9.3285 C   0  0  0  0  0  0  0  0  0  0  0  0
   26.3978  -19.7925   -8.2569 C   0  0  0  0  0  0  0  0  0  0  0  0
   26.9956  -20.9504   -7.8126 C   0  0  0  0  0  0  0  0  0  0  0  0
   27.8350  -20.6176   -6.8166 N   0  0  0  0  0  0  0  0  0  0  0  0
   27.7453  -19.2895   -6.6638 C   0  0  0  0  0  0  0  0  0  0  0  0
   26.8795  -18.7711   -7.5273 N   0  0  0  0  0  0  0  0  0  0  0  0
   23.6859  -20.7938  -10.6605 C   0  0  0  0  0  0  0  0  0  0  0  0
   22.6054  -20.6319  -10.0367 O   0  0  0  0  0  0  0  0  0  0  0  0
   23.5621  -20.7999  -12.0558 O   0  0  0  0  0  0  0  0  0  0  0  0
  2  1  1  1
  2  4  1  0
  2  3  1  0
  4  5  2  0
  7  6  1  1
  8  7  1  0
  8  4  1  0
  9 10  2  0
  9  7  1  0
 11  9  1  0
 12 11  1  0
 12 13  1  6
 13 14  1  0
 14 15  2  0
 14 18  1  0
 15 16  1  0
 16 17  1  0
 18 17  2  0
 19 12  1  0
 20 19  2  0
 21 19  1  0
M  END
$$$$
