AAH.pdb
     RDKit          3D

 21 21  0  0  1  0  0  0  0  0999 V2000
   42.8525  -12.1059   -8.7188 C   0  0  0  0  0  0  0  0  0  0  0  0
   43.8795  -11.0781   -8.2645 C   0  0  2  0  0  0  0  0  0  0  0  0
   44.3444  -11.5030   -6.9569 N   0  0  0  0  0  0  0  0  0  0  0  0
   43.2032   -9.7627   -8.2091 C   0  0  0  0  0  0  0  0  0  0  0  0
   42.4568   -9.5276   -7.2267 O   0  0  0  0  0  0  0  0  0  0  0  0
   43.3345   -6.5050  -10.0495 C   0  0  0  0  0  0  0  0  0  0  0  0
   42.6529   -7.4731   -9.1026 C   0  0  2  0  0  0  0  0  0  0  0  0
   43.3449   -8.7493   -9.1968 N   0  0  0  0  0  0  0  0  0  0  0  0
   41.2068   -7.6124   -9.4295 C   0  0  0  0  0  0  0  0  0  0  0  0
   40.9029   -8.4440  -10.3126 O   0  0  0  0  0  0  0  0  0  0  0  0
   40.1864   -6.8624   -8.7992 N   0  0  0  0  0  0  0  0  0  0  0  0
   38.7880   -6.9825   -9.1578 C   0  0  1  0  0  0  0  0  0  0  0  0
   38.0378   -7.4071   -7.9195 C   0  0  0  0  0  0  0  0  0  0  0  0
   38.3813   -8.7582   -7.4377 C   0  0  0  0  0  0  0  0  0  0  0  0
   38.9940   -9.0907   -6.2504 C   0  0  0  0  0  0  0  0  0  0  0  0
   39.1275  -10.4282   -6.2231 N   0  0  0  0  0  0  0  0  0  0  0  0
   38.6073  -10.8915   -7.3676 C   0  0  0  0  0  0  0  0  0  0  0  0
   38.1499   -9.8949   -8.1172 N   0  0  0  0  0  0  0  0  0  0  0  0
   38.2423   -5.6890   -9.6469 C   0  0  0  0  0  0  0  0  0  0  0  0
   38.9171   -4.6272   -9.6357 O   0  0  0  0  0  0  0  0  0  0  0  0
   36.9433   -5.5527  -10.1531 O   0  0  0  0  0  0  0  0  0  0  0  0
  2  1  1  1
  2  4  1  0
  2  3  1  0
  4  5  2  0
  7  6  1  6
  8  7  1  0
  8  4  1  0
  9 10  2  0
  9  7  1  0
 11  9  1  0
 12 11  1  0
 12 13  1  1
 13 14  1  0
 14 15  2  0
 14 18  1  0
 15 16  1  0
 16 17  1  0
 18 17  2  0
 19 12  1  0
 20 19  2  0
 21 19  1  0
M  END
$$$$
