AAH.pdb
     RDKit          3D

 21 21  0  0  1  0  0  0  0  0999 V2000
   16.1817  -10.1855  -15.7257 C   0  0  0  0  0  0  0  0  0  0  0  0
   17.4184  -11.0124  -16.0482 C   0  0  2  0  0  0  0  0  0  0  0  0
   17.1716  -12.3483  -15.5374 N   0  0  0  0  0  0  0  0  0  0  0  0
   18.5733  -10.3711  -15.3805 C   0  0  0  0  0  0  0  0  0  0  0  0
   18.6055  -10.3821  -14.1250 O   0  0  0  0  0  0  0  0  0  0  0  0
   21.8705   -8.8861  -16.3642 C   0  0  0  0  0  0  0  0  0  0  0  0
   20.7470   -9.0990  -15.3688 C   0  0  2  0  0  0  0  0  0  0  0  0
   19.6475   -9.7438  -16.0699 N   0  0  0  0  0  0  0  0  0  0  0  0
   20.3217   -7.8090  -14.7584 C   0  0  0  0  0  0  0  0  0  0  0  0
   19.4420   -7.1583  -15.3639 O   0  0  0  0  0  0  0  0  0  0  0  0
   20.8570   -7.3001  -13.5521 N   0  0  0  0  0  0  0  0  0  0  0  0
   20.4672   -6.0193  -12.9986 C   0  0  1  0  0  0  0  0  0  0  0  0
   20.3142   -6.1977  -11.5082 C   0  0  0  0  0  0  0  0  0  0  0  0
   19.0440   -6.8279  -11.1018 C   0  0  0  0  0  0  0  0  0  0  0  0
   17.9933   -7.1891  -11.9149 C   0  0  0  0  0  0  0  0  0  0  0  0
   17.0358   -7.7150  -11.1313 N   0  0  0  0  0  0  0  0  0  0  0  0
   17.4985   -7.6718   -9.8747 C   0  0  0  0  0  0  0  0  0  0  0  0
   18.7139   -7.1376   -9.8359 N   0  0  0  0  0  0  0  0  0  0  0  0
   21.4940   -4.9786  -13.2687 C   0  0  0  0  0  0  0  0  0  0  0  0
   22.6973   -5.2650  -13.4990 O   0  0  0  0  0  0  0  0  0  0  0  0
   21.2038   -3.6083  -13.2863 O   0  0  0  0  0  0  0  0  0  0  0  0
  2  1  1  1
  2  4  1  0
  2  3  1  0
  4  5  2  0
  7  6  1  6
  8  7  1  0
  8  4  1  0
  9 10  2  0
  9  7  1  0
 11  9  1  0
 12 11  1  0
 12 13  1  1
 13 14  1  0
 14 15  2  0
 14 18  1  0
 15 16  1  0
 16 17  1  0
 18 17  2  0
 19 12  1  0
 20 19  2  0
 21 19  1  0
M  END
$$$$
