AAH.pdb
     RDKit          3D

 21 21  0  0  1  0  0  0  0  0999 V2000
   18.0454  -11.2146  -16.6589 C   0  0  0  0  0  0  0  0  0  0  0  0
   19.4681  -11.7350  -16.8092 C   0  0  2  0  0  0  0  0  0  0  0  0
   19.4983  -13.0496  -16.1948 N   0  0  0  0  0  0  0  0  0  0  0  0
   20.3686  -10.7834  -16.1207 C   0  0  0  0  0  0  0  0  0  0  0  0
   20.0746  -10.4405  -14.9486 O   0  0  0  0  0  0  0  0  0  0  0  0
   23.7265   -9.2323  -16.6742 C   0  0  0  0  0  0  0  0  0  0  0  0
   22.3642   -9.2508  -16.0093 C   0  0  2  0  0  0  0  0  0  0  0  0
   21.5445  -10.2332  -16.7015 N   0  0  0  0  0  0  0  0  0  0  0  0
   21.7367   -7.9007  -16.0381 C   0  0  0  0  0  0  0  0  0  0  0  0
   21.1684   -7.5623  -17.0994 O   0  0  0  0  0  0  0  0  0  0  0  0
   21.7552   -7.0057  -14.9428 N   0  0  0  0  0  0  0  0  0  0  0  0
   21.1360   -5.6968  -14.9876 C   0  0  1  0  0  0  0  0  0  0  0  0
   19.9441   -5.7278  -14.0629 C   0  0  0  0  0  0  0  0  0  0  0  0
   18.7942   -6.4907  -14.5838 C   0  0  0  0  0  0  0  0  0  0  0  0
   18.0593   -6.2238  -15.7170 C   0  0  0  0  0  0  0  0  0  0  0  0
   17.0991   -7.1603  -15.8081 N   0  0  0  0  0  0  0  0  0  0  0  0
   17.2515   -7.9732  -14.7540 C   0  0  0  0  0  0  0  0  0  0  0  0
   18.2734   -7.5841  -14.0001 N   0  0  0  0  0  0  0  0  0  0  0  0
   22.0791   -4.6371  -14.5426 C   0  0  0  0  0  0  0  0  0  0  0  0
   23.1160   -4.8954  -13.8785 O   0  0  0  0  0  0  0  0  0  0  0  0
   21.8869   -3.2786  -14.8249 O   0  0  0  0  0  0  0  0  0  0  0  0
  2  1  1  1
  2  4  1  0
  2  3  1  0
  4  5  2  0
  7  6  1  6
  8  7  1  0
  8  4  1  0
  9 10  2  0
  9  7  1  0
 11  9  1  0
 12 11  1  0
 12 13  1  1
 13 14  1  0
 14 15  2  0
 14 18  1  0
 15 16  1  0
 16 17  1  0
 18 17  2  0
 19 12  1  0
 20 19  2  0
 21 19  1  0
M  END
$$$$
