AAH.pdb
     RDKit          3D

 21 21  0  0  1  0  0  0  0  0999 V2000
   15.5687  -15.1842  -16.7018 C   0  0  0  0  0  0  0  0  0  0  0  0
   15.6231  -13.7452  -17.1953 C   0  0  2  0  0  0  0  0  0  0  0  0
   15.8416  -13.8040  -18.6289 N   0  0  0  0  0  0  0  0  0  0  0  0
   16.7396  -13.0726  -16.4942 C   0  0  0  0  0  0  0  0  0  0  0  0
   16.7514  -13.1096  -15.2388 O   0  0  0  0  0  0  0  0  0  0  0  0
   20.0539  -11.5745  -17.2813 C   0  0  0  0  0  0  0  0  0  0  0  0
   18.8078  -11.6370  -16.4202 C   0  0  2  0  0  0  0  0  0  0  0  0
   17.7988  -12.3877  -17.1514 N   0  0  0  0  0  0  0  0  0  0  0  0
   18.3265  -10.2705  -16.0757 C   0  0  0  0  0  0  0  0  0  0  0  0
   17.5228   -9.7356  -16.8705 O   0  0  0  0  0  0  0  0  0  0  0  0
   18.7297   -9.5682  -14.9160 N   0  0  0  0  0  0  0  0  0  0  0  0
   18.1861   -8.2758  -14.5518 C   0  0  1  0  0  0  0  0  0  0  0  0
   18.2328   -8.1724  -13.0473 C   0  0  0  0  0  0  0  0  0  0  0  0
   17.1412   -8.8856  -12.3578 C   0  0  0  0  0  0  0  0  0  0  0  0
   16.1013   -9.5791  -12.9351 C   0  0  0  0  0  0  0  0  0  0  0  0
   15.3325  -10.0588  -11.9421 N   0  0  0  0  0  0  0  0  0  0  0  0
   15.8958   -9.6635  -10.7925 C   0  0  0  0  0  0  0  0  0  0  0  0
   16.9929   -8.9514  -11.0232 N   0  0  0  0  0  0  0  0  0  0  0  0
   18.9789   -7.1683  -15.1479 C   0  0  0  0  0  0  0  0  0  0  0  0
   18.6369   -5.9624  -15.0395 O   0  0  0  0  0  0  0  0  0  0  0  0
   20.1589   -7.3801  -15.8725 O   0  0  0  0  0  0  0  0  0  0  0  0
  2  1  1  1
  2  4  1  0
  2  3  1  0
  4  5  2  0
  7  6  1  6
  8  7  1  0
  8  4  1  0
  9 10  2  0
  9  7  1  0
 11  9  1  0
 12 11  1  0
 12 13  1  1
 13 14  1  0
 14 15  2  0
 14 18  1  0
 15 16  1  0
 16 17  1  0
 18 17  2  0
 19 12  1  0
 20 19  2  0
 21 19  1  0
M  END
$$$$
