AAH.pdb
     RDKit          3D

 21 21  0  0  1  0  0  0  0  0999 V2000
   26.8437  -12.7230  -17.6294 C   0  0  0  0  0  0  0  0  0  0  0  0
   25.9307  -11.8098  -16.8232 C   0  0  2  0  0  0  0  0  0  0  0  0
   24.9967  -12.6696  -16.1196 N   0  0  0  0  0  0  0  0  0  0  0  0
   25.2422  -10.9100  -17.7755 C   0  0  0  0  0  0  0  0  0  0  0  0
   25.5971  -10.9479  -18.9798 O   0  0  0  0  0  0  0  0  0  0  0  0
   22.8838  -10.3134  -19.3942 C   0  0  0  0  0  0  0  0  0  0  0  0
   23.4167   -9.2937  -18.4070 C   0  0  2  0  0  0  0  0  0  0  0  0
   24.2055  -10.0061  -17.4137 N   0  0  0  0  0  0  0  0  0  0  0  0
   22.3056   -8.5302  -17.7746 C   0  0  0  0  0  0  0  0  0  0  0  0
   21.5919   -7.8365  -18.5316 O   0  0  0  0  0  0  0  0  0  0  0  0
   22.0293   -8.5551  -16.3875 N   0  0  0  0  0  0  0  0  0  0  0  0
   20.9240   -7.8309  -15.7938 C   0  0  1  0  0  0  0  0  0  0  0  0
   20.3699   -8.6840  -14.6795 C   0  0  0  0  0  0  0  0  0  0  0  0
   19.6729   -9.9003  -15.1384 C   0  0  0  0  0  0  0  0  0  0  0  0
   19.4525  -10.2962  -16.4385 C   0  0  0  0  0  0  0  0  0  0  0  0
   18.7701  -11.4539  -16.4001 N   0  0  0  0  0  0  0  0  0  0  0  0
   18.5833  -11.7492  -15.1066 C   0  0  0  0  0  0  0  0  0  0  0  0
   19.1230  -10.8198  -14.3262 N   0  0  0  0  0  0  0  0  0  0  0  0
   21.3685   -6.5241  -15.2412 C   0  0  0  0  0  0  0  0  0  0  0  0
   22.5663   -6.1432  -15.2963 O   0  0  0  0  0  0  0  0  0  0  0  0
   20.4946   -5.6229  -14.6197 O   0  0  0  0  0  0  0  0  0  0  0  0
  2  1  1  6
  2  4  1  0
  2  3  1  0
  4  5  2  0
  7  6  1  6
  8  7  1  0
  8  4  1  0
  9 10  2  0
  9  7  1  0
 11  9  1  0
 12 11  1  0
 12 13  1  1
 13 14  1  0
 14 15  2  0
 14 18  1  0
 15 16  1  0
 16 17  1  0
 18 17  2  0
 19 12  1  0
 20 19  2  0
 21 19  1  0
M  END
$$$$
