AAH.pdb
     RDKit          3D

 21 21  0  0  1  0  0  0  0  0999 V2000
   16.6513  -12.8803  -15.3390 C   0  0  0  0  0  0  0  0  0  0  0  0
   16.9441  -12.7148  -16.8236 C   0  0  2  0  0  0  0  0  0  0  0  0
   17.6785  -13.8961  -17.2380 N   0  0  0  0  0  0  0  0  0  0  0  0
   17.7454  -11.4812  -16.9878 C   0  0  0  0  0  0  0  0  0  0  0  0
   18.9632  -11.5278  -16.6839 O   0  0  0  0  0  0  0  0  0  0  0  0
   17.2778   -8.1395  -18.6144 C   0  0  0  0  0  0  0  0  0  0  0  0
   18.0791   -9.1104  -17.7696 C   0  0  2  0  0  0  0  0  0  0  0  0
   17.2242  -10.2478  -17.4673 N   0  0  0  0  0  0  0  0  0  0  0  0
   18.5742   -8.4558  -16.5271 C   0  0  0  0  0  0  0  0  0  0  0  0
   17.8131   -8.4740  -15.5350 O   0  0  0  0  0  0  0  0  0  0  0  0
   19.8381   -7.8293  -16.4230 N   0  0  0  0  0  0  0  0  0  0  0  0
   20.3047   -7.1999  -15.2045 C   0  0  1  0  0  0  0  0  0  0  0  0
   21.8043   -7.3592  -15.1579 C   0  0  0  0  0  0  0  0  0  0  0  0
   22.2604   -8.7560  -15.0285 C   0  0  0  0  0  0  0  0  0  0  0  0
   21.4835   -9.8710  -14.8077 C   0  0  0  0  0  0  0  0  0  0  0  0
   22.3059  -10.9326  -14.7440 N   0  0  0  0  0  0  0  0  0  0  0  0
   23.5501  -10.4683  -14.9221 C   0  0  0  0  0  0  0  0  0  0  0  0
   23.5435   -9.1516  -15.0961 N   0  0  0  0  0  0  0  0  0  0  0  0
   19.9605   -5.7538  -15.1769 C   0  0  0  0  0  0  0  0  0  0  0  0
   20.2217   -5.0192  -14.1895 O   0  0  0  0  0  0  0  0  0  0  0  0
   19.3219   -5.1021  -16.2398 O   0  0  0  0  0  0  0  0  0  0  0  0
  2  1  1  1
  2  4  1  0
  2  3  1  0
  4  5  2  0
  7  6  1  1
  8  7  1  0
  8  4  1  0
  9 10  2  0
  9  7  1  0
 11  9  1  0
 12 11  1  0
 12 13  1  6
 13 14  1  0
 14 15  2  0
 14 18  1  0
 15 16  1  0
 16 17  1  0
 18 17  2  0
 19 12  1  0
 20 19  2  0
 21 19  1  0
M  END
$$$$
