AAH.pdb
     RDKit          3D

 21 21  0  0  1  0  0  0  0  0999 V2000
   25.7834  -32.3720   -3.9776 C   0  0  0  0  0  0  0  0  0  0  0  0
   26.1939  -33.5326   -4.8730 C   0  0  2  0  0  0  0  0  0  0  0  0
   24.9702  -34.1997   -5.2782 N   0  0  0  0  0  0  0  0  0  0  0  0
   27.0708  -34.4227   -4.0797 C   0  0  0  0  0  0  0  0  0  0  0  0
   26.5245  -35.2374   -3.2952 O   0  0  0  0  0  0  0  0  0  0  0  0
   30.7417  -35.2187   -3.9214 C   0  0  0  0  0  0  0  0  0  0  0  0
   29.3067  -35.4095   -3.4711 C   0  0  2  0  0  0  0  0  0  0  0  0
   28.4913  -34.4138   -4.1493 N   0  0  0  0  0  0  0  0  0  0  0  0
   29.1905  -35.2923   -1.9912 C   0  0  0  0  0  0  0  0  0  0  0  0
   29.1083  -34.1373   -1.5188 O   0  0  0  0  0  0  0  0  0  0  0  0
   29.1697  -36.4045   -1.1174 N   0  0  0  0  0  0  0  0  0  0  0  0
   29.1308  -36.2698    0.3245 C   0  0  1  0  0  0  0  0  0  0  0  0
   27.9054  -37.0009    0.8147 C   0  0  0  0  0  0  0  0  0  0  0  0
   26.6570  -36.2214    0.7183 C   0  0  0  0  0  0  0  0  0  0  0  0
   26.5183  -34.8538    0.7964 C   0  0  0  0  0  0  0  0  0  0  0  0
   25.2099  -34.5707    0.6725 N   0  0  0  0  0  0  0  0  0  0  0  0
   24.5742  -35.7407    0.5234 C   0  0  0  0  0  0  0  0  0  0  0  0
   25.4338  -36.7529    0.5485 N   0  0  0  0  0  0  0  0  0  0  0  0
   30.3421  -36.8575    0.9552 C   0  0  0  0  0  0  0  0  0  0  0  0
   30.9757  -37.8115    0.4344 O   0  0  0  0  0  0  0  0  0  0  0  0
   30.8672  -36.3988    2.1702 O   0  0  0  0  0  0  0  0  0  0  0  0
  2  1  1  1
  2  4  1  0
  2  3  1  0
  4  5  2  0
  7  6  1  1
  8  7  1  0
  8  4  1  0
  9 10  2  0
  9  7  1  0
 11  9  1  0
 12 11  1  0
 12 13  1  1
 13 14  1  0
 14 15  2  0
 14 18  1  0
 15 16  1  0
 16 17  1  0
 18 17  2  0
 19 12  1  0
 20 19  2  0
 21 19  1  0
M  END
$$$$
