CET.pdb
     RDKit          3D

 23 22  0  0  1  0  0  0  0  0999 V2000
   22.9274  -11.4890  -17.8431 N   0  0  0  0  0  0  0  0  0  0  0  0
   23.5937  -11.0980  -16.6273 C   0  0  1  0  0  0  0  0  0  0  0  0
   25.0415  -11.5347  -16.7492 C   0  0  0  0  0  0  0  0  0  0  0  0
   25.1084  -13.3395  -16.7027 S   0  0  0  0  0  0  0  0  0  0  0  0
   23.5293   -9.6054  -16.4235 C   0  0  0  0  0  0  0  0  0  0  0  0
   24.0065   -9.1862  -15.3418 O   0  0  0  0  0  0  0  0  0  0  0  0
   22.9564   -8.7789  -17.4222 N   0  0  0  0  0  0  0  0  0  0  0  0
   22.8322   -7.3586  -17.2153 C   0  0  1  0  0  0  0  0  0  0  0  0
   22.7299   -6.7113  -18.5560 C   0  0  0  0  0  0  0  0  0  0  0  0
   22.5182   -5.2514  -18.5839 C   0  0  0  0  0  0  0  0  0  0  0  0
   22.4696   -4.6433  -19.9300 C   0  0  0  0  0  0  0  0  0  0  0  0
   22.8086   -3.4746  -20.1262 O   0  0  0  0  0  0  0  0  0  0  0  0
   21.7739   -7.0648  -16.2590 C   0  0  0  0  0  0  0  0  0  0  0  0
   20.5997   -7.5102  -16.3586 O   0  0  0  0  0  0  0  0  0  0  0  0
   22.0324   -5.3782  -21.0449 O   0  0  0  0  0  0  0  0  0  0  0  0
   20.8587   -8.2353  -13.1901 C   0  0  0  0  0  0  0  0  0  0  0  0
   21.0895   -6.7772  -12.9064 C   0  0  1  0  0  0  0  0  0  0  0  0
   22.2121   -6.6365  -12.1310 O   0  0  0  0  0  0  0  0  0  0  0  0
   21.0369   -5.9191  -14.1200 C   0  0  2  0  0  0  0  0  0  0  0  0
   22.0192   -6.2374  -15.1360 N   0  0  0  0  0  0  0  0  0  0  0  0
   21.1623   -4.4790  -13.7840 C   0  0  0  0  0  0  0  0  0  0  0  0
   22.0989   -3.7701  -14.2668 O   0  0  0  0  0  0  0  0  0  0  0  0
   20.2568   -3.8936  -12.9353 O   0  0  0  0  0  0  0  0  0  0  0  0
  2  1  1  6
  3  2  1  0
  3  4  1  0
  5  2  1  0
  6  5  2  0
  7  5  1  0
  8 13  1  0
  8  7  1  0
  8  9  1  6
 10  9  1  0
 11 10  1  0
 12 11  2  0
 13 14  2  0
 15 11  1  0
 17 16  1  6
 17 19  1  0
 17 18  1  0
 19 20  1  6
 20 13  1  0
 21 23  1  0
 21 19  1  0
 22 21  2  0
M  END
$$$$
