CET.pdb
     RDKit          3D

 23 22  0  0  1  0  0  0  0  0999 V2000
   28.1322  -35.8610   -5.7522 N   0  0  0  0  0  0  0  0  0  0  0  0
   28.2638  -34.8848   -4.7012 C   0  0  1  0  0  0  0  0  0  0  0  0
   27.0441  -33.9850   -4.7700 C   0  0  0  0  0  0  0  0  0  0  0  0
   27.1375  -32.9965   -6.2793 S   0  0  0  0  0  0  0  0  0  0  0  0
   28.3321  -35.5443   -3.3469 C   0  0  0  0  0  0  0  0  0  0  0  0
   27.4473  -36.4037   -3.1186 O   0  0  0  0  0  0  0  0  0  0  0  0
   29.3507  -35.1779   -2.4321 N   0  0  0  0  0  0  0  0  0  0  0  0
   29.4464  -35.8203   -1.1461 C   0  0  1  0  0  0  0  0  0  0  0  0
   30.8585  -35.6964   -0.6801 C   0  0  0  0  0  0  0  0  0  0  0  0
   31.8710  -36.5132   -1.3761 C   0  0  0  0  0  0  0  0  0  0  0  0
   33.2625  -36.3273   -0.9145 C   0  0  0  0  0  0  0  0  0  0  0  0
   34.1918  -36.9966   -1.3702 O   0  0  0  0  0  0  0  0  0  0  0  0
   28.4100  -35.3342   -0.2458 C   0  0  0  0  0  0  0  0  0  0  0  0
   27.8328  -34.2227   -0.3811 O   0  0  0  0  0  0  0  0  0  0  0  0
   33.5820  -35.3746    0.0677 O   0  0  0  0  0  0  0  0  0  0  0  0
   24.8907  -36.2194    3.0806 C   0  0  0  0  0  0  0  0  0  0  0  0
   25.8844  -36.6628    2.0433 C   0  0  1  0  0  0  0  0  0  0  0  0
   25.2161  -37.0622    0.9142 O   0  0  0  0  0  0  0  0  0  0  0  0
   26.9896  -35.6920    1.8244 C   0  0  2  0  0  0  0  0  0  0  0  0
   27.9878  -36.1100    0.8614 N   0  0  0  0  0  0  0  0  0  0  0  0
   27.6796  -35.3455    3.0918 C   0  0  0  0  0  0  0  0  0  0  0  0
   28.6449  -36.0460    3.5279 O   0  0  0  0  0  0  0  0  0  0  0  0
   27.2735  -34.2521    3.8146 O   0  0  0  0  0  0  0  0  0  0  0  0
  2  1  1  6
  3  2  1  0
  3  4  1  0
  5  2  1  0
  6  5  2  0
  7  5  1  0
  8 13  1  0
  8  7  1  0
  8  9  1  1
 10  9  1  0
 11 10  1  0
 12 11  2  0
 13 14  2  0
 15 11  1  0
 17 16  1  1
 17 19  1  0
 17 18  1  0
 19 20  1  6
 20 13  1  0
 21 23  1  0
 21 19  1  0
 22 21  2  0
M  END
$$$$
