CET.pdb
     RDKit          3D

 23 22  0  0  1  0  0  0  0  0999 V2000
   16.8675  -13.5458  -15.9807 N   0  0  0  0  0  0  0  0  0  0  0  0
   16.9768  -12.3525  -16.7801 C   0  0  1  0  0  0  0  0  0  0  0  0
   15.6384  -12.1473  -17.4646 C   0  0  0  0  0  0  0  0  0  0  0  0
   15.5384  -13.2574  -18.8865 S   0  0  0  0  0  0  0  0  0  0  0  0
   17.3007  -11.1510  -15.9286 C   0  0  0  0  0  0  0  0  0  0  0  0
   16.8519  -11.1812  -14.7576 O   0  0  0  0  0  0  0  0  0  0  0  0
   18.0657  -10.0868  -16.4681 N   0  0  0  0  0  0  0  0  0  0  0  0
   18.3047   -8.8926  -15.6985 C   0  0  1  0  0  0  0  0  0  0  0  0
   19.7627   -8.8382  -15.3852 C   0  0  0  0  0  0  0  0  0  0  0  0
   20.2495   -7.6541  -14.6519 C   0  0  0  0  0  0  0  0  0  0  0  0
   21.6572   -7.7186  -14.2065 C   0  0  0  0  0  0  0  0  0  0  0  0
   22.3973   -6.7339  -14.2514 O   0  0  0  0  0  0  0  0  0  0  0  0
   17.7280   -7.7283  -16.3563 C   0  0  0  0  0  0  0  0  0  0  0  0
   17.9022   -7.4566  -17.5740 O   0  0  0  0  0  0  0  0  0  0  0  0
   22.2097   -8.9119  -13.7116 O   0  0  0  0  0  0  0  0  0  0  0  0
   14.2765   -4.1826  -16.3904 C   0  0  0  0  0  0  0  0  0  0  0  0
   14.9895   -5.2643  -15.6279 C   0  0  1  0  0  0  0  0  0  0  0  0
   14.1285   -6.3090  -15.4075 O   0  0  0  0  0  0  0  0  0  0  0  0
   16.3082   -5.6321  -16.2090 C   0  0  2  0  0  0  0  0  0  0  0  0
   16.9190   -6.8147  -15.6373 N   0  0  0  0  0  0  0  0  0  0  0  0
   17.2813   -4.5151  -16.1214 C   0  0  0  0  0  0  0  0  0  0  0  0
   18.0013   -4.3495  -15.0885 O   0  0  0  0  0  0  0  0  0  0  0  0
   17.4115   -3.6380  -17.1687 O   0  0  0  0  0  0  0  0  0  0  0  0
  2  1  1  1
  3  2  1  0
  3  4  1  0
  5  2  1  0
  6  5  2  0
  7  5  1  0
  8 13  1  0
  8  7  1  0
  8  9  1  6
 10  9  1  0
 11 10  1  0
 12 11  2  0
 13 14  2  0
 15 11  1  0
 17 16  1  6
 17 19  1  0
 17 18  1  0
 19 20  1  1
 20 13  1  0
 21 23  1  0
 21 19  1  0
 22 21  2  0
M  END
$$$$
