CET.pdb
     RDKit          3D

 23 22  0  0  1  0  0  0  0  0999 V2000
   17.8163  -12.2778  -14.8324 N   0  0  0  0  0  0  0  0  0  0  0  0
   17.0632  -11.0569  -14.7016 C   0  0  1  0  0  0  0  0  0  0  0  0
   15.6036  -11.4442  -14.5548 C   0  0  0  0  0  0  0  0  0  0  0  0
   14.6189   -9.9390  -14.3849 S   0  0  0  0  0  0  0  0  0  0  0  0
   17.5032  -10.2691  -13.4935 C   0  0  0  0  0  0  0  0  0  0  0  0
   17.6705  -10.9361  -12.4445 O   0  0  0  0  0  0  0  0  0  0  0  0
   17.6993   -8.8691  -13.5948 N   0  0  0  0  0  0  0  0  0  0  0  0
   18.2120   -8.1183  -12.4772 C   0  0  1  0  0  0  0  0  0  0  0  0
   19.4404   -7.4048  -12.9342 C   0  0  0  0  0  0  0  0  0  0  0  0
   20.1122   -6.5279  -11.9562 C   0  0  0  0  0  0  0  0  0  0  0  0
   21.2341   -5.7266  -12.4887 C   0  0  0  0  0  0  0  0  0  0  0  0
   21.4333   -4.5665  -12.1230 O   0  0  0  0  0  0  0  0  0  0  0  0
   17.1642   -7.3065  -11.8740 C   0  0  0  0  0  0  0  0  0  0  0  0
   16.4023   -6.5487  -12.5316 O   0  0  0  0  0  0  0  0  0  0  0  0
   22.1223   -6.2594  -13.4381 O   0  0  0  0  0  0  0  0  0  0  0  0
   14.3678   -6.2989   -7.8607 C   0  0  0  0  0  0  0  0  0  0  0  0
   15.4287   -7.1292   -8.5277 C   0  0  1  0  0  0  0  0  0  0  0  0
   14.9985   -8.4283   -8.6209 O   0  0  0  0  0  0  0  0  0  0  0  0
   15.9461   -6.5333   -9.7883 C   0  0  2  0  0  0  0  0  0  0  0  0
   16.9437   -7.3282  -10.4750 N   0  0  0  0  0  0  0  0  0  0  0  0
   16.5010   -5.1744   -9.5699 C   0  0  0  0  0  0  0  0  0  0  0  0
   15.7670   -4.2221   -9.1612 O   0  0  0  0  0  0  0  0  0  0  0  0
   17.8293   -4.9310   -9.8134 O   0  0  0  0  0  0  0  0  0  0  0  0
  2  1  1  1
  3  2  1  0
  3  4  1  0
  5  2  1  0
  6  5  2  0
  7  5  1  0
  8 13  1  0
  8  7  1  0
  8  9  1  6
 10  9  1  0
 11 10  1  0
 12 11  2  0
 13 14  2  0
 15 11  1  0
 17 16  1  6
 17 19  1  0
 17 18  1  0
 19 20  1  1
 20 13  1  0
 21 23  1  0
 21 19  1  0
 22 21  2  0
M  END
$$$$
