CET.pdb
     RDKit          3D

 23 22  0  0  1  0  0  0  0  0999 V2000
   20.0971  -11.5505  -17.6659 N   0  0  0  0  0  0  0  0  0  0  0  0
   19.3604  -11.0775  -16.5220 C   0  0  1  0  0  0  0  0  0  0  0  0
   19.9447  -11.7596  -15.2992 C   0  0  0  0  0  0  0  0  0  0  0  0
   19.4324  -13.4920  -15.3015 S   0  0  0  0  0  0  0  0  0  0  0  0
   19.4796   -9.5817  -16.3743 C   0  0  0  0  0  0  0  0  0  0  0  0
   20.5940   -9.0950  -16.6822 O   0  0  0  0  0  0  0  0  0  0  0  0
   18.3729   -8.8257  -15.9133 N   0  0  0  0  0  0  0  0  0  0  0  0
   18.4221   -7.3859  -15.9037 C   0  0  1  0  0  0  0  0  0  0  0  0
   17.0197   -6.8827  -15.9867 C   0  0  0  0  0  0  0  0  0  0  0  0
   16.8274   -5.4201  -15.9669 C   0  0  0  0  0  0  0  0  0  0  0  0
   15.4257   -4.9633  -16.0703 C   0  0  0  0  0  0  0  0  0  0  0  0
   14.7767   -4.6315  -15.0763 O   0  0  0  0  0  0  0  0  0  0  0  0
   19.2312   -6.9026  -14.7935 C   0  0  0  0  0  0  0  0  0  0  0  0
   19.1717   -7.3768  -13.6279 O   0  0  0  0  0  0  0  0  0  0  0  0
   14.7746   -4.8890  -17.3133 O   0  0  0  0  0  0  0  0  0  0  0  0
   23.0506   -5.8094  -15.3471 C   0  0  0  0  0  0  0  0  0  0  0  0
   22.4205   -5.8731  -13.9837 C   0  0  1  0  0  0  0  0  0  0  0  0
   23.2857   -5.3488  -13.0575 O   0  0  0  0  0  0  0  0  0  0  0  0
   21.0345   -5.3355  -13.9428 C   0  0  2  0  0  0  0  0  0  0  0  0
   20.1523   -5.8419  -14.9742 N   0  0  0  0  0  0  0  0  0  0  0  0
   21.0153   -3.8526  -13.9986 C   0  0  0  0  0  0  0  0  0  0  0  0
   21.6733   -3.1545  -13.1664 O   0  0  0  0  0  0  0  0  0  0  0  0
   20.2745   -3.2142  -14.9611 O   0  0  0  0  0  0  0  0  0  0  0  0
  2  1  1  6
  3  2  1  0
  3  4  1  0
  5  2  1  0
  6  5  2  0
  7  5  1  0
  8 13  1  0
  8  7  1  0
  8  9  1  1
 10  9  1  0
 11 10  1  0
 12 11  2  0
 13 14  2  0
 15 11  1  0
 17 16  1  6
 17 19  1  0
 17 18  1  0
 19 20  1  6
 20 13  1  0
 21 23  1  0
 21 19  1  0
 22 21  2  0
M  END
$$$$
