CET.pdb
     RDKit          3D

 23 22  0  0  1  0  0  0  0  0999 V2000
   16.1156  -10.9145  -14.4931 N   0  0  0  0  0  0  0  0  0  0  0  0
   16.5333   -9.8289  -15.3428 C   0  0  1  0  0  0  0  0  0  0  0  0
   15.5154   -8.7156  -15.1807 C   0  0  0  0  0  0  0  0  0  0  0  0
   13.9872   -9.2019  -16.0128 S   0  0  0  0  0  0  0  0  0  0  0  0
   17.9012   -9.3260  -14.9558 C   0  0  0  0  0  0  0  0  0  0  0  0
   18.1094   -9.2192  -13.7235 O   0  0  0  0  0  0  0  0  0  0  0  0
   18.8494   -9.0104  -15.9608 N   0  0  0  0  0  0  0  0  0  0  0  0
   20.1803   -8.5882  -15.6058 C   0  0  1  0  0  0  0  0  0  0  0  0
   21.1441   -9.4321  -16.3711 C   0  0  0  0  0  0  0  0  0  0  0  0
   22.5789   -9.1282  -16.2111 C   0  0  0  0  0  0  0  0  0  0  0  0
   23.4998   -9.9944  -16.9765 C   0  0  0  0  0  0  0  0  0  0  0  0
   24.2816  -10.7651  -16.4160 O   0  0  0  0  0  0  0  0  0  0  0  0
   20.3185   -7.1445  -15.7385 C   0  0  0  0  0  0  0  0  0  0  0  0
   20.1305   -6.5213  -16.8171 O   0  0  0  0  0  0  0  0  0  0  0  0
   23.5200   -9.9727  -18.3813 O   0  0  0  0  0  0  0  0  0  0  0  0
   18.4935   -4.1502  -14.7625 C   0  0  0  0  0  0  0  0  0  0  0  0
   19.8034   -4.1113  -14.0260 C   0  0  1  0  0  0  0  0  0  0  0  0
   19.5874   -4.3816  -12.6987 O   0  0  0  0  0  0  0  0  0  0  0  0
   20.8761   -4.9100  -14.6766 C   0  0  2  0  0  0  0  0  0  0  0  0
   20.6837   -6.3450  -14.6278 N   0  0  0  0  0  0  0  0  0  0  0  0
   22.2141   -4.5988  -14.1151 C   0  0  0  0  0  0  0  0  0  0  0  0
   22.9318   -5.5030  -13.5857 O   0  0  0  0  0  0  0  0  0  0  0  0
   22.6929   -3.3137  -14.1613 O   0  0  0  0  0  0  0  0  0  0  0  0
  2  1  1  1
  3  2  1  0
  3  4  1  0
  5  2  1  0
  6  5  2  0
  7  5  1  0
  8 13  1  0
  8  7  1  0
  8  9  1  6
 10  9  1  0
 11 10  1  0
 12 11  2  0
 13 14  2  0
 15 11  1  0
 17 16  1  6
 17 19  1  0
 17 18  1  0
 19 20  1  1
 20 13  1  0
 21 23  1  0
 21 19  1  0
 22 21  2  0
M  END
$$$$
