CET.pdb
     RDKit          3D

 23 22  0  0  1  0  0  0  0  0999 V2000
   17.1295  -12.6213  -10.7583 N   0  0  0  0  0  0  0  0  0  0  0  0
   16.6195  -11.4534  -11.4296 C   0  0  1  0  0  0  0  0  0  0  0  0
   15.1052  -11.5350  -11.3828 C   0  0  0  0  0  0  0  0  0  0  0  0
   14.5699  -12.9462  -12.3757 S   0  0  0  0  0  0  0  0  0  0  0  0
   17.0806  -10.1875  -10.7523 C   0  0  0  0  0  0  0  0  0  0  0  0
   17.0894  -10.2175   -9.4983 O   0  0  0  0  0  0  0  0  0  0  0  0
   17.4669   -9.0685  -11.5316 N   0  0  0  0  0  0  0  0  0  0  0  0
   17.9959   -7.8852  -10.9026 C   0  0  1  0  0  0  0  0  0  0  0  0
   19.2804   -7.5451  -11.5818 C   0  0  0  0  0  0  0  0  0  0  0  0
   19.9008   -6.2512  -11.2388 C   0  0  0  0  0  0  0  0  0  0  0  0
   21.1108   -5.9032  -12.0126 C   0  0  0  0  0  0  0  0  0  0  0  0
   21.9037   -6.7643  -12.3988 O   0  0  0  0  0  0  0  0  0  0  0  0
   16.9866   -6.8373  -10.8385 C   0  0  0  0  0  0  0  0  0  0  0  0
   16.3193   -6.4488  -11.8339 O   0  0  0  0  0  0  0  0  0  0  0  0
   21.4061   -4.5690  -12.3402 O   0  0  0  0  0  0  0  0  0  0  0  0
   14.2592   -3.7730   -7.9567 C   0  0  0  0  0  0  0  0  0  0  0  0
   15.1074   -5.0018   -8.1312 C   0  0  1  0  0  0  0  0  0  0  0  0
   14.3970   -6.1056   -7.7335 O   0  0  0  0  0  0  0  0  0  0  0  0
   15.7462   -5.0989   -9.4707 C   0  0  2  0  0  0  0  0  0  0  0  0
   16.6971   -6.1819   -9.6167 N   0  0  0  0  0  0  0  0  0  0  0  0
   16.4178   -3.8327   -9.8556 C   0  0  0  0  0  0  0  0  0  0  0  0
   17.6786   -3.7730   -9.9953 O   0  0  0  0  0  0  0  0  0  0  0  0
   15.6726   -2.6995  -10.0640 O   0  0  0  0  0  0  0  0  0  0  0  0
  2  1  1  1
  3  2  1  0
  3  4  1  0
  5  2  1  0
  6  5  2  0
  7  5  1  0
  8 13  1  0
  8  7  1  0
  8  9  1  6
 10  9  1  0
 11 10  1  0
 12 11  2  0
 13 14  2  0
 15 11  1  0
 17 16  1  6
 17 19  1  0
 17 18  1  0
 19 20  1  1
 20 13  1  0
 21 23  1  0
 21 19  1  0
 22 21  2  0
M  END
$$$$
