CET.pdb
     RDKit          3D

 23 22  0  0  1  0  0  0  0  0999 V2000
   26.0510  -22.4055  -11.6049 N   0  0  0  0  0  0  0  0  0  0  0  0
   25.0979  -21.3291  -11.5163 C   0  0  1  0  0  0  0  0  0  0  0  0
   25.7267  -20.2425  -10.6644 C   0  0  0  0  0  0  0  0  0  0  0  0
   25.3126  -20.5509   -8.9332 S   0  0  0  0  0  0  0  0  0  0  0  0
   24.7672  -20.7771  -12.8800 C   0  0  0  0  0  0  0  0  0  0  0  0
   25.7071  -20.7888  -13.7106 O   0  0  0  0  0  0  0  0  0  0  0  0
   23.4635  -20.2907  -13.1494 N   0  0  0  0  0  0  0  0  0  0  0  0
   23.1199  -19.8027  -14.4606 C   0  0  1  0  0  0  0  0  0  0  0  0
   21.7137  -20.2135  -14.7444 C   0  0  0  0  0  0  0  0  0  0  0  0
   21.1576  -19.8451  -16.0603 C   0  0  0  0  0  0  0  0  0  0  0  0
   19.7646  -20.2748  -16.3030 C   0  0  0  0  0  0  0  0  0  0  0  0
   19.1011  -20.8447  -15.4345 O   0  0  0  0  0  0  0  0  0  0  0  0
   23.4301  -18.3851  -14.5835 C   0  0  0  0  0  0  0  0  0  0  0  0
   23.1734  -17.5343  -13.6906 O   0  0  0  0  0  0  0  0  0  0  0  0
   19.1388  -20.0490  -17.5406 O   0  0  0  0  0  0  0  0  0  0  0  0
   26.6573  -16.4534  -14.8432 C   0  0  0  0  0  0  0  0  0  0  0  0
   25.8701  -16.2334  -16.1048 C   0  0  1  0  0  0  0  0  0  0  0  0
   26.4781  -16.8939  -17.1418 O   0  0  0  0  0  0  0  0  0  0  0  0
   24.4130  -16.4878  -15.9493 C   0  0  2  0  0  0  0  0  0  0  0  0
   24.0536  -17.8768  -15.7492 N   0  0  0  0  0  0  0  0  0  0  0  0
   23.6351  -15.9651  -17.1000 C   0  0  0  0  0  0  0  0  0  0  0  0
   23.2283  -14.7624  -17.1270 O   0  0  0  0  0  0  0  0  0  0  0  0
   23.3424  -16.7886  -18.1579 O   0  0  0  0  0  0  0  0  0  0  0  0
  2  1  1  6
  3  2  1  0
  3  4  1  0
  5  2  1  0
  6  5  2  0
  7  5  1  0
  8 13  1  0
  8  7  1  0
  8  9  1  1
 10  9  1  0
 11 10  1  0
 12 11  2  0
 13 14  2  0
 15 11  1  0
 17 16  1  1
 17 19  1  0
 17 18  1  0
 19 20  1  6
 20 13  1  0
 21 23  1  0
 21 19  1  0
 22 21  2  0
M  END
$$$$
