CET.pdb
     RDKit          3D

 23 22  0  0  1  0  0  0  0  0999 V2000
   17.1319  -11.8012  -17.2856 N   0  0  0  0  0  0  0  0  0  0  0  0
   17.1123  -11.1707  -15.9906 C   0  0  1  0  0  0  0  0  0  0  0  0
   17.8077  -12.1107  -15.0239 C   0  0  0  0  0  0  0  0  0  0  0  0
   16.6858  -13.4708  -14.6296 S   0  0  0  0  0  0  0  0  0  0  0  0
   17.8315   -9.8457  -16.0159 C   0  0  0  0  0  0  0  0  0  0  0  0
   18.8608   -9.8025  -16.7316 O   0  0  0  0  0  0  0  0  0  0  0  0
   17.3320   -8.7550  -15.2610 N   0  0  0  0  0  0  0  0  0  0  0  0
   17.9147   -7.4441  -15.3938 C   0  0  1  0  0  0  0  0  0  0  0  0
   16.8107   -6.4445  -15.3002 C   0  0  0  0  0  0  0  0  0  0  0  0
   17.1856   -5.0194  -15.3728 C   0  0  0  0  0  0  0  0  0  0  0  0
   16.0666   -4.0621  -15.2479 C   0  0  0  0  0  0  0  0  0  0  0  0
   15.6350   -3.7088  -14.1488 O   0  0  0  0  0  0  0  0  0  0  0  0
   19.0331   -7.2789  -14.4758 C   0  0  0  0  0  0  0  0  0  0  0  0
   19.0237   -7.6859  -13.2836 O   0  0  0  0  0  0  0  0  0  0  0  0
   15.4475   -3.5145  -16.3842 O   0  0  0  0  0  0  0  0  0  0  0  0
   22.4685   -8.7269  -14.3608 C   0  0  0  0  0  0  0  0  0  0  0  0
   22.5958   -7.2392  -14.5352 C   0  0  1  0  0  0  0  0  0  0  0  0
   23.0058   -6.9644  -15.8149 O   0  0  0  0  0  0  0  0  0  0  0  0
   21.4053   -6.4809  -14.0668 C   0  0  2  0  0  0  0  0  0  0  0  0
   20.2227   -6.6314  -14.8899 N   0  0  0  0  0  0  0  0  0  0  0  0
   21.6940   -5.0321  -13.9244 C   0  0  0  0  0  0  0  0  0  0  0  0
   21.1379   -4.1737  -14.6771 O   0  0  0  0  0  0  0  0  0  0  0  0
   22.5781   -4.6020  -12.9673 O   0  0  0  0  0  0  0  0  0  0  0  0
  2  1  1  6
  3  2  1  0
  3  4  1  0
  5  2  1  0
  6  5  2  0
  7  5  1  0
  8 13  1  0
  8  7  1  0
  8  9  1  1
 10  9  1  0
 11 10  1  0
 12 11  2  0
 13 14  2  0
 15 11  1  0
 17 16  1  6
 17 19  1  0
 17 18  1  0
 19 20  1  6
 20 13  1  0
 21 23  1  0
 21 19  1  0
 22 21  2  0
M  END
$$$$
