CET.pdb
     RDKit          3D

 23 22  0  0  1  0  0  0  0  0999 V2000
   27.2461  -20.3357  -16.2304 N   0  0  0  0  0  0  0  0  0  0  0  0
   26.3138  -21.1134  -15.4552 C   0  0  1  0  0  0  0  0  0  0  0  0
   27.0294  -21.5366  -14.1861 C   0  0  0  0  0  0  0  0  0  0  0  0
   28.3043  -22.7429  -14.6144 S   0  0  0  0  0  0  0  0  0  0  0  0
   25.0891  -20.3076  -15.1025 C   0  0  0  0  0  0  0  0  0  0  0  0
   25.2351  -19.4821  -14.1694 O   0  0  0  0  0  0  0  0  0  0  0  0
   23.8793  -20.5115  -15.8123 N   0  0  0  0  0  0  0  0  0  0  0  0
   22.6801  -19.8089  -15.4331 C   0  0  1  0  0  0  0  0  0  0  0  0
   22.5424  -18.6264  -16.3328 C   0  0  0  0  0  0  0  0  0  0  0  0
   22.6176  -18.8737  -17.7853 C   0  0  0  0  0  0  0  0  0  0  0  0
   23.2027  -17.7778  -18.5858 C   0  0  0  0  0  0  0  0  0  0  0  0
   24.3430  -17.8498  -19.0482 O   0  0  0  0  0  0  0  0  0  0  0  0
   21.5460  -20.7199  -15.3637 C   0  0  0  0  0  0  0  0  0  0  0  0
   21.3844  -21.6944  -16.1456 O   0  0  0  0  0  0  0  0  0  0  0  0
   22.4774  -16.6042  -18.8522 O   0  0  0  0  0  0  0  0  0  0  0  0
   20.5388  -23.0489  -12.6098 C   0  0  0  0  0  0  0  0  0  0  0  0
   19.3851  -22.1165  -12.8534 C   0  0  1  0  0  0  0  0  0  0  0  0
   19.2458  -21.2744  -11.7797 O   0  0  0  0  0  0  0  0  0  0  0  0
   19.4244  -21.4560  -14.1853 C   0  0  2  0  0  0  0  0  0  0  0  0
   20.5367  -20.5496  -14.3847 N   0  0  0  0  0  0  0  0  0  0  0  0
   18.1670  -20.7233  -14.4759 C   0  0  0  0  0  0  0  0  0  0  0  0
   17.0503  -21.3263  -14.5233 O   0  0  0  0  0  0  0  0  0  0  0  0
   18.2007  -19.3702  -14.7016 O   0  0  0  0  0  0  0  0  0  0  0  0
  2  1  1  6
  3  2  1  0
  3  4  1  0
  5  2  1  0
  6  5  2  0
  7  5  1  0
  8 13  1  0
  8  7  1  0
  8  9  1  6
 10  9  1  0
 11 10  1  0
 12 11  2  0
 13 14  2  0
 15 11  1  0
 17 16  1  1
 17 19  1  0
 17 18  1  0
 19 20  1  1
 20 13  1  0
 21 23  1  0
 21 19  1  0
 22 21  2  0
M  END
$$$$
