CET.pdb
     RDKit          3D

 23 22  0  0  1  0  0  0  0  0999 V2000
   15.1266  -14.1066  -11.9632 N   0  0  0  0  0  0  0  0  0  0  0  0
   14.5386  -12.8065  -12.1603 C   0  0  1  0  0  0  0  0  0  0  0  0
   13.1716  -12.8284  -11.5026 C   0  0  0  0  0  0  0  0  0  0  0  0
   12.0207  -13.7022  -12.5869 S   0  0  0  0  0  0  0  0  0  0  0  0
   15.3836  -11.7235  -11.5385 C   0  0  0  0  0  0  0  0  0  0  0  0
   15.7946  -11.9582  -10.3768 O   0  0  0  0  0  0  0  0  0  0  0  0
   15.6630  -10.5391  -12.2651 N   0  0  0  0  0  0  0  0  0  0  0  0
   16.5260   -9.5267  -11.7121 C   0  0  1  0  0  0  0  0  0  0  0  0
   17.5839   -9.2301  -12.7219 C   0  0  0  0  0  0  0  0  0  0  0  0
   18.5155   -8.1277  -12.4164 C   0  0  0  0  0  0  0  0  0  0  0  0
   19.5406   -7.8598  -13.4467 C   0  0  0  0  0  0  0  0  0  0  0  0
   19.6538   -8.5687  -14.4486 O   0  0  0  0  0  0  0  0  0  0  0  0
   15.7498   -8.3971  -11.2195 C   0  0  0  0  0  0  0  0  0  0  0  0
   14.7722   -7.8988  -11.8383 O   0  0  0  0  0  0  0  0  0  0  0  0
   20.4314   -6.7801  -13.3231 O   0  0  0  0  0  0  0  0  0  0  0  0
   14.7192   -5.3215   -7.4038 C   0  0  0  0  0  0  0  0  0  0  0  0
   15.3968   -6.5499   -7.9439 C   0  0  1  0  0  0  0  0  0  0  0  0
   14.9410   -7.6545   -7.2705 O   0  0  0  0  0  0  0  0  0  0  0  0
   15.3632   -6.6446   -9.4277 C   0  0  2  0  0  0  0  0  0  0  0  0
   16.0662   -7.7830   -9.9830 N   0  0  0  0  0  0  0  0  0  0  0  0
   15.8854   -5.4137  -10.0717 C   0  0  0  0  0  0  0  0  0  0  0  0
   15.2851   -4.3014   -9.9483 O   0  0  0  0  0  0  0  0  0  0  0  0
   17.0353   -5.4679  -10.8185 O   0  0  0  0  0  0  0  0  0  0  0  0
  2  1  1  1
  3  2  1  0
  3  4  1  0
  5  2  1  0
  6  5  2  0
  7  5  1  0
  8 13  1  0
  8  7  1  0
  8  9  1  6
 10  9  1  0
 11 10  1  0
 12 11  2  0
 13 14  2  0
 15 11  1  0
 17 16  1  6
 17 19  1  0
 17 18  1  0
 19 20  1  1
 20 13  1  0
 21 23  1  0
 21 19  1  0
 22 21  2  0
M  END
$$$$
