CET.pdb
     RDKit          3D

 23 22  0  0  1  0  0  0  0  0999 V2000
   17.8946  -12.7732  -15.0067 N   0  0  0  0  0  0  0  0  0  0  0  0
   17.7022  -11.6599  -15.9001 C   0  0  1  0  0  0  0  0  0  0  0  0
   16.2867  -11.7558  -16.4377 C   0  0  0  0  0  0  0  0  0  0  0  0
   16.2767  -12.8886  -17.8450 S   0  0  0  0  0  0  0  0  0  0  0  0
   17.8851  -10.3454  -15.1842 C   0  0  0  0  0  0  0  0  0  0  0  0
   17.2975  -10.2445  -14.0805 O   0  0  0  0  0  0  0  0  0  0  0  0
   18.6796   -9.3268  -15.7671 N   0  0  0  0  0  0  0  0  0  0  0  0
   18.8658   -8.0670  -15.0933 C   0  0  1  0  0  0  0  0  0  0  0  0
   20.3329   -7.8577  -14.9184 C   0  0  0  0  0  0  0  0  0  0  0  0
   20.7599   -6.6156  -14.2463 C   0  0  0  0  0  0  0  0  0  0  0  0
   22.2145   -6.4847  -14.0203 C   0  0  0  0  0  0  0  0  0  0  0  0
   22.7055   -5.4658  -13.5303 O   0  0  0  0  0  0  0  0  0  0  0  0
   18.1238   -7.0072  -15.7620 C   0  0  0  0  0  0  0  0  0  0  0  0
   18.0787   -6.8690  -17.0134 O   0  0  0  0  0  0  0  0  0  0  0  0
   23.0994   -7.5228  -14.3573 O   0  0  0  0  0  0  0  0  0  0  0  0
   14.7981   -5.2945  -13.8719 C   0  0  0  0  0  0  0  0  0  0  0  0
   15.1275   -5.1062  -15.3265 C   0  0  1  0  0  0  0  0  0  0  0  0
   14.3537   -4.0976  -15.8416 O   0  0  0  0  0  0  0  0  0  0  0  0
   16.5858   -4.9975  -15.5974 C   0  0  2  0  0  0  0  0  0  0  0  0
   17.3949   -6.0490  -15.0159 N   0  0  0  0  0  0  0  0  0  0  0  0
   17.1333   -3.6899  -15.1582 C   0  0  0  0  0  0  0  0  0  0  0  0
   17.7296   -3.5674  -14.0436 O   0  0  0  0  0  0  0  0  0  0  0  0
   16.9957   -2.5863  -15.9620 O   0  0  0  0  0  0  0  0  0  0  0  0
  2  1  1  1
  3  2  1  0
  3  4  1  0
  5  2  1  0
  6  5  2  0
  7  5  1  0
  8 13  1  0
  8  7  1  0
  8  9  1  6
 10  9  1  0
 11 10  1  0
 12 11  2  0
 13 14  2  0
 15 11  1  0
 17 16  1  1
 17 19  1  0
 17 18  1  0
 19 20  1  1
 20 13  1  0
 21 23  1  0
 21 19  1  0
 22 21  2  0
M  END
$$$$
