NTQ.pdb
     RDKit          3D

 25 24  0  0  1  0  0  0  0  0999 V2000
   19.8422  -20.7653  -15.3814 N   0  0  0  0  0  0  0  0  0  0  0  0
   20.2976  -19.5832  -16.0217 C   0  0  0  0  0  0  0  0  0  0  0  0
   19.9678  -19.2981  -17.1988 O   0  0  0  0  0  0  0  0  0  0  0  0
   21.1772  -18.6697  -15.2878 C   0  0  0  0  0  0  0  0  0  0  0  0
   22.5427  -18.5292  -15.9491 C   0  0  2  0  0  0  0  0  0  0  0  0
   23.3884  -19.6554  -15.6184 N   0  0  0  0  0  0  0  0  0  0  0  0
   23.1530  -17.2974  -15.3825 C   0  0  0  0  0  0  0  0  0  0  0  0
   23.4951  -17.2992  -14.1570 O   0  0  0  0  0  0  0  0  0  0  0  0
   26.2462  -16.0841  -15.6088 C   0  0  0  0  0  0  0  0  0  0  0  0
   25.4391  -14.9127  -16.1186 C   0  0  1  0  0  0  0  0  0  0  0  0
   25.4763  -14.9638  -17.5112 O   0  0  0  0  0  0  0  0  0  0  0  0
   24.0220  -14.9405  -15.5937 C   0  0  2  0  0  0  0  0  0  0  0  0
   23.3748  -16.1200  -16.1327 N   0  0  0  0  0  0  0  0  0  0  0  0
   23.2841  -13.7041  -15.9061 C   0  0  0  0  0  0  0  0  0  0  0  0
   22.5098  -13.6780  -16.8831 O   0  0  0  0  0  0  0  0  0  0  0  0
   22.4641   -8.6833  -12.1274 N   0  0  0  0  0  0  0  0  0  0  0  0
   21.9354   -8.2406  -13.3514 C   0  0  0  0  0  0  0  0  0  0  0  0
   21.5010   -7.0880  -13.4745 O   0  0  0  0  0  0  0  0  0  0  0  0
   21.8981   -9.1728  -14.5154 C   0  0  0  0  0  0  0  0  0  0  0  0
   22.5888  -10.4743  -14.1864 C   0  0  0  0  0  0  0  0  0  0  0  0
   22.7119  -11.3282  -15.4099 C   0  0  2  0  0  0  0  0  0  0  0  0
   23.4489  -12.5609  -15.1102 N   0  0  0  0  0  0  0  0  0  0  0  0
   23.2944  -10.6867  -16.5815 C   0  0  0  0  0  0  0  0  0  0  0  0
   22.5994  -10.0439  -17.5806 O   0  0  0  0  0  0  0  0  0  0  0  0
   24.5648  -10.7078  -16.7218 O   0  0  0  0  0  0  0  0  0  0  0  0
  1  2  1  0
  2  3  2  0
  4  2  1  0
  4  5  1  0
  5  6  1  1
  7  5  1  0
  7  8  2  0
 10  9  1  1
 10 12  1  0
 10 11  1  0
 12 13  1  6
 13  7  1  0
 14 12  1  0
 15 14  2  0
 17 16  1  0
 18 17  2  0
 19 20  1  0
 19 17  1  0
 21 20  1  1
 21 23  1  0
 21 22  1  0
 22 14  1  0
 23 24  1  0
 25 23  2  0
M  END
$$$$
