NTQ.pdb
     RDKit          3D

 25 24  0  0  1  0  0  0  0  0999 V2000
   14.6021  -12.5790  -14.8161 N   0  0  0  0  0  0  0  0  0  0  0  0
   14.1871  -11.2276  -14.6891 C   0  0  0  0  0  0  0  0  0  0  0  0
   12.9808  -10.8933  -14.7822 O   0  0  0  0  0  0  0  0  0  0  0  0
   15.1953  -10.1935  -14.4421 C   0  0  0  0  0  0  0  0  0  0  0  0
   16.6022  -10.7710  -14.3492 C   0  0  2  0  0  0  0  0  0  0  0  0
   16.7370  -11.6003  -13.1715 N   0  0  0  0  0  0  0  0  0  0  0  0
   17.5196   -9.6084  -14.2160 C   0  0  0  0  0  0  0  0  0  0  0  0
   17.6422   -9.0610  -13.0740 O   0  0  0  0  0  0  0  0  0  0  0  0
   21.0137   -9.6044  -14.4155 C   0  0  0  0  0  0  0  0  0  0  0  0
   20.5994   -8.5751  -15.4414 C   0  0  1  0  0  0  0  0  0  0  0  0
   20.6376   -9.1992  -16.6874 O   0  0  0  0  0  0  0  0  0  0  0  0
   19.2320   -8.0060  -15.1405 C   0  0  2  0  0  0  0  0  0  0  0  0
   18.2657   -9.0755  -15.2919 N   0  0  0  0  0  0  0  0  0  0  0  0
   18.9129   -6.8390  -15.9816 C   0  0  0  0  0  0  0  0  0  0  0  0
   18.1832   -6.9812  -16.9825 O   0  0  0  0  0  0  0  0  0  0  0  0
   15.8479   -2.1559  -15.0142 N   0  0  0  0  0  0  0  0  0  0  0  0
   16.5340   -1.6359  -16.1244 C   0  0  0  0  0  0  0  0  0  0  0  0
   16.1880   -0.5641  -16.6383 O   0  0  0  0  0  0  0  0  0  0  0  0
   17.6930   -2.3862  -16.6889 C   0  0  0  0  0  0  0  0  0  0  0  0
   17.9193   -3.6753  -15.9364 C   0  0  0  0  0  0  0  0  0  0  0  0
   19.1048   -4.4047  -16.4874 C   0  0  2  0  0  0  0  0  0  0  0  0
   19.4252   -5.5734  -15.6603 N   0  0  0  0  0  0  0  0  0  0  0  0
   20.3083   -3.6084  -16.6898 C   0  0  0  0  0  0  0  0  0  0  0  0
   20.5056   -2.6809  -17.6875 O   0  0  0  0  0  0  0  0  0  0  0  0
   21.2876   -3.7646  -15.8831 O   0  0  0  0  0  0  0  0  0  0  0  0
  1  2  1  0
  2  3  2  0
  4  2  1  0
  4  5  1  0
  5  6  1  1
  7  5  1  0
  7  8  2  0
 10  9  1  1
 10 12  1  0
 10 11  1  0
 12 13  1  6
 13  7  1  0
 14 12  1  0
 15 14  2  0
 17 16  1  0
 18 17  2  0
 19 20  1  0
 19 17  1  0
 21 20  1  1
 21 23  1  0
 21 22  1  0
 22 14  1  0
 23 24  1  0
 25 23  2  0
M  END
$$$$
