NTQ.pdb
     RDKit          3D

 25 24  0  0  1  0  0  0  0  0999 V2000
   16.0246  -13.6805  -16.2774 N   0  0  0  0  0  0  0  0  0  0  0  0
   17.0224  -12.8900  -16.9054 C   0  0  0  0  0  0  0  0  0  0  0  0
   17.1723  -12.8795  -18.1516 O   0  0  0  0  0  0  0  0  0  0  0  0
   17.9021  -12.0628  -16.0756 C   0  0  0  0  0  0  0  0  0  0  0  0
   19.3284  -12.0228  -16.6101 C   0  0  2  0  0  0  0  0  0  0  0  0
   19.9553  -13.3210  -16.4899 N   0  0  0  0  0  0  0  0  0  0  0  0
   20.0665  -11.0600  -15.7504 C   0  0  0  0  0  0  0  0  0  0  0  0
   19.9099  -11.1301  -14.4897 O   0  0  0  0  0  0  0  0  0  0  0  0
   23.5706  -10.8377  -15.2588 C   0  0  0  0  0  0  0  0  0  0  0  0
   23.1712   -9.4433  -15.6825 C   0  0  1  0  0  0  0  0  0  0  0  0
   23.4809   -9.3213  -17.0362 O   0  0  0  0  0  0  0  0  0  0  0  0
   21.7078   -9.1762  -15.4154 C   0  0  2  0  0  0  0  0  0  0  0  0
   20.9356  -10.0674  -16.2580 N   0  0  0  0  0  0  0  0  0  0  0  0
   21.3497   -7.7616  -15.6192 C   0  0  0  0  0  0  0  0  0  0  0  0
   20.7966   -7.4122  -16.6806 O   0  0  0  0  0  0  0  0  0  0  0  0
   17.2436   -4.4258  -14.8054 N   0  0  0  0  0  0  0  0  0  0  0  0
   18.1477   -3.3613  -14.9580 C   0  0  0  0  0  0  0  0  0  0  0  0
   17.7431   -2.1960  -15.0610 O   0  0  0  0  0  0  0  0  0  0  0  0
   19.6123   -3.6415  -14.9960 C   0  0  0  0  0  0  0  0  0  0  0  0
   19.8852   -5.1134  -14.8005 C   0  0  0  0  0  0  0  0  0  0  0  0
   21.3559   -5.3874  -14.8565 C   0  0  2  0  0  0  0  0  0  0  0  0
   21.6275   -6.8107  -14.6262 N   0  0  0  0  0  0  0  0  0  0  0  0
   22.1902   -4.5845  -13.9718 C   0  0  0  0  0  0  0  0  0  0  0  0
   22.6053   -3.2929  -14.2039 O   0  0  0  0  0  0  0  0  0  0  0  0
   22.5893   -5.1008  -12.8726 O   0  0  0  0  0  0  0  0  0  0  0  0
  1  2  1  0
  2  3  2  0
  4  2  1  0
  4  5  1  0
  5  6  1  1
  7  5  1  0
  7  8  2  0
 10  9  1  6
 10 12  1  0
 10 11  1  0
 12 13  1  6
 13  7  1  0
 14 12  1  0
 15 14  2  0
 17 16  1  0
 18 17  2  0
 19 20  1  0
 19 17  1  0
 21 20  1  1
 21 23  1  0
 21 22  1  0
 22 14  1  0
 23 24  1  0
 25 23  2  0
M  END
$$$$
