NTQ.pdb
     RDKit          3D

 25 24  0  0  1  0  0  0  0  0999 V2000
   15.2288  -10.8091  -17.3710 N   0  0  0  0  0  0  0  0  0  0  0  0
   15.0668   -9.5012  -16.8438 C   0  0  0  0  0  0  0  0  0  0  0  0
   14.1242   -8.7541  -17.2029 O   0  0  0  0  0  0  0  0  0  0  0  0
   16.0268   -9.0094  -15.8522 C   0  0  0  0  0  0  0  0  0  0  0  0
   17.1084  -10.0358  -15.5390 C   0  0  2  0  0  0  0  0  0  0  0  0
   16.6085  -11.0426  -14.6283 N   0  0  0  0  0  0  0  0  0  0  0  0
   18.2042   -9.2907  -14.8645 C   0  0  0  0  0  0  0  0  0  0  0  0
   18.0681   -8.9949  -13.6345 O   0  0  0  0  0  0  0  0  0  0  0  0
   21.8713  -10.2198  -14.6592 C   0  0  0  0  0  0  0  0  0  0  0  0
   21.7665   -8.8250  -15.2312 C   0  0  1  0  0  0  0  0  0  0  0  0
   21.9129   -8.9362  -16.6130 O   0  0  0  0  0  0  0  0  0  0  0  0
   20.4596   -8.1647  -14.8567 C   0  0  2  0  0  0  0  0  0  0  0  0
   19.3931   -8.8911  -15.5165 N   0  0  0  0  0  0  0  0  0  0  0  0
   20.4440   -6.7278  -15.1821 C   0  0  0  0  0  0  0  0  0  0  0  0
   19.7613   -6.3203  -16.1425 O   0  0  0  0  0  0  0  0  0  0  0  0
   17.3806   -2.8050  -15.1959 N   0  0  0  0  0  0  0  0  0  0  0  0
   18.4209   -1.8717  -15.0532 C   0  0  0  0  0  0  0  0  0  0  0  0
   18.2359   -0.6734  -15.3024 O   0  0  0  0  0  0  0  0  0  0  0  0
   19.7637   -2.3329  -14.5958 C   0  0  0  0  0  0  0  0  0  0  0  0
   19.7826   -3.8300  -14.4016 C   0  0  0  0  0  0  0  0  0  0  0  0
   21.1412   -4.3821  -14.7023 C   0  0  2  0  0  0  0  0  0  0  0  0
   21.1915   -5.8203  -14.4170 N   0  0  0  0  0  0  0  0  0  0  0  0
   22.2608   -3.7177  -14.0476 C   0  0  0  0  0  0  0  0  0  0  0  0
   22.8786   -2.5644  -14.4751 O   0  0  0  0  0  0  0  0  0  0  0  0
   22.7346   -4.2304  -12.9767 O   0  0  0  0  0  0  0  0  0  0  0  0
  1  2  1  0
  2  3  2  0
  4  2  1  0
  4  5  1  0
  5  6  1  1
  7  5  1  0
  7  8  2  0
 10  9  1  1
 10 12  1  0
 10 11  1  0
 12 13  1  6
 13  7  1  0
 14 12  1  0
 15 14  2  0
 17 16  1  0
 18 17  2  0
 19 20  1  0
 19 17  1  0
 21 20  1  1
 21 23  1  0
 21 22  1  0
 22 14  1  0
 23 24  1  0
 25 23  2  0
M  END
$$$$
