NTQ.pdb
     RDKit          3D

 25 24  0  0  1  0  0  0  0  0999 V2000
   15.3227  -14.6954  -14.7370 N   0  0  0  0  0  0  0  0  0  0  0  0
   16.5268  -14.0369  -14.3747 C   0  0  0  0  0  0  0  0  0  0  0  0
   17.3183  -14.5211  -13.5293 O   0  0  0  0  0  0  0  0  0  0  0  0
   16.8553  -12.7559  -15.0055 C   0  0  0  0  0  0  0  0  0  0  0  0
   15.7142  -12.2282  -15.8663 C   0  0  2  0  0  0  0  0  0  0  0  0
   15.4801  -13.1019  -16.9954 N   0  0  0  0  0  0  0  0  0  0  0  0
   16.1583  -10.9043  -16.3772 C   0  0  0  0  0  0  0  0  0  0  0  0
   16.9126  -10.8721  -17.4013 O   0  0  0  0  0  0  0  0  0  0  0  0
   14.2838   -8.4552  -17.9120 C   0  0  0  0  0  0  0  0  0  0  0  0
   14.9611   -7.6771  -16.8077 C   0  0  1  0  0  0  0  0  0  0  0  0
   14.0193   -7.4963  -15.7960 O   0  0  0  0  0  0  0  0  0  0  0  0
   16.1976   -8.3849  -16.3034 C   0  0  2  0  0  0  0  0  0  0  0  0
   15.7875   -9.6750  -15.7859 N   0  0  0  0  0  0  0  0  0  0  0  0
   16.9318   -7.5880  -15.3049 C   0  0  0  0  0  0  0  0  0  0  0  0
   16.9153   -7.9335  -14.1070 O   0  0  0  0  0  0  0  0  0  0  0  0
   22.5904   -6.3443  -15.0667 N   0  0  0  0  0  0  0  0  0  0  0  0
   22.1702   -5.4003  -14.1149 C   0  0  0  0  0  0  0  0  0  0  0  0
   22.9950   -4.7702  -13.4401 O   0  0  0  0  0  0  0  0  0  0  0  0
   20.7121   -5.1560  -13.9169 C   0  0  0  0  0  0  0  0  0  0  0  0
   19.8896   -6.0268  -14.8358 C   0  0  0  0  0  0  0  0  0  0  0  0
   18.4361   -5.6869  -14.7208 C   0  0  2  0  0  0  0  0  0  0  0  0
   17.6470   -6.4467  -15.6967 N   0  0  0  0  0  0  0  0  0  0  0  0
   18.1003   -4.2724  -14.8205 C   0  0  0  0  0  0  0  0  0  0  0  0
   18.2769   -3.3282  -13.8347 O   0  0  0  0  0  0  0  0  0  0  0  0
   17.5926   -3.8400  -15.9111 O   0  0  0  0  0  0  0  0  0  0  0  0
  1  2  1  0
  2  3  2  0
  4  2  1  0
  4  5  1  0
  5  6  1  6
  7  5  1  0
  7  8  2  0
 10  9  1  6
 10 12  1  0
 10 11  1  0
 12 13  1  1
 13  7  1  0
 14 12  1  0
 15 14  2  0
 17 16  1  0
 18 17  2  0
 19 20  1  0
 19 17  1  0
 21 20  1  6
 21 23  1  0
 21 22  1  0
 22 14  1  0
 23 24  1  0
 25 23  2  0
M  END
$$$$
