NTQ.pdb
     RDKit          3D

 25 24  0  0  1  0  0  0  0  0999 V2000
   14.5567  -11.5911  -16.1322 N   0  0  0  0  0  0  0  0  0  0  0  0
   14.9245  -11.0497  -14.8726 C   0  0  0  0  0  0  0  0  0  0  0  0
   14.0685  -10.7499  -14.0048 O   0  0  0  0  0  0  0  0  0  0  0  0
   16.3434  -10.8349  -14.5770 C   0  0  0  0  0  0  0  0  0  0  0  0
   17.2460  -11.3089  -15.7093 C   0  0  2  0  0  0  0  0  0  0  0  0
   17.4078  -12.7459  -15.6659 N   0  0  0  0  0  0  0  0  0  0  0  0
   18.5714  -10.6768  -15.4751 C   0  0  0  0  0  0  0  0  0  0  0  0
   19.6173  -11.3802  -15.6488 O   0  0  0  0  0  0  0  0  0  0  0  0
   20.8905  -10.3694  -16.5764 C   0  0  0  0  0  0  0  0  0  0  0  0
   20.7806   -8.9028  -16.2291 C   0  0  1  0  0  0  0  0  0  0  0  0
   20.1544   -8.2726  -17.3033 O   0  0  0  0  0  0  0  0  0  0  0  0
   20.0267   -8.6902  -14.9366 C   0  0  2  0  0  0  0  0  0  0  0  0
   18.7343   -9.3328  -15.0686 N   0  0  0  0  0  0  0  0  0  0  0  0
   19.9104   -7.2644  -14.5834 C   0  0  0  0  0  0  0  0  0  0  0  0
   18.8764   -6.6365  -14.8858 O   0  0  0  0  0  0  0  0  0  0  0  0
   18.5332   -5.6157   -9.6709 N   0  0  0  0  0  0  0  0  0  0  0  0
   18.7492   -4.3257  -10.1836 C   0  0  0  0  0  0  0  0  0  0  0  0
   18.2708   -3.3320   -9.6215 O   0  0  0  0  0  0  0  0  0  0  0  0
   19.5654   -4.1541  -11.4203 C   0  0  0  0  0  0  0  0  0  0  0  0
   20.0112   -5.4908  -11.9622 C   0  0  0  0  0  0  0  0  0  0  0  0
   20.7339   -5.3168  -13.2617 C   0  0  2  0  0  0  0  0  0  0  0  0
   20.9550   -6.6142  -13.9101 N   0  0  0  0  0  0  0  0  0  0  0  0
   21.9918   -4.5838  -13.2008 C   0  0  0  0  0  0  0  0  0  0  0  0
   23.2413   -5.0993  -13.4603 O   0  0  0  0  0  0  0  0  0  0  0  0
   21.9637   -3.3470  -12.8784 O   0  0  0  0  0  0  0  0  0  0  0  0
  1  2  1  0
  2  3  2  0
  4  2  1  0
  4  5  1  0
  5  6  1  1
  7  5  1  0
  7  8  2  0
 10  9  1  6
 10 12  1  0
 10 11  1  0
 12 13  1  6
 13  7  1  0
 14 12  1  0
 15 14  2  0
 17 16  1  0
 18 17  2  0
 19 20  1  0
 19 17  1  0
 21 20  1  1
 21 23  1  0
 21 22  1  0
 22 14  1  0
 23 24  1  0
 25 23  2  0
M  END
$$$$
