NTQ.pdb
     RDKit          3D

 25 24  0  0  1  0  0  0  0  0999 V2000
   13.4144  -12.0129  -16.5003 N   0  0  0  0  0  0  0  0  0  0  0  0
   12.9956  -12.2558  -15.1660 C   0  0  0  0  0  0  0  0  0  0  0  0
   11.8263  -12.6230  -14.8950 O   0  0  0  0  0  0  0  0  0  0  0  0
   13.9554  -12.0730  -14.0741 C   0  0  0  0  0  0  0  0  0  0  0  0
   15.2862  -11.5159  -14.5640 C   0  0  2  0  0  0  0  0  0  0  0  0
   16.1346  -12.5793  -15.0564 N   0  0  0  0  0  0  0  0  0  0  0  0
   15.9396  -10.9005  -13.3786 C   0  0  0  0  0  0  0  0  0  0  0  0
   16.2794  -11.6566  -12.4134 O   0  0  0  0  0  0  0  0  0  0  0  0
   19.0449   -9.1389  -13.3983 C   0  0  0  0  0  0  0  0  0  0  0  0
   18.1115   -8.2024  -12.6668 C   0  0  1  0  0  0  0  0  0  0  0  0
   17.7607   -7.1917  -13.5605 O   0  0  0  0  0  0  0  0  0  0  0  0
   16.8968   -8.9277  -12.1350 C   0  0  2  0  0  0  0  0  0  0  0  0
   16.2051   -9.5168  -13.2642 N   0  0  0  0  0  0  0  0  0  0  0  0
   16.0227   -8.0485  -11.3388 C   0  0  0  0  0  0  0  0  0  0  0  0
   14.8156   -7.9475  -11.6341 O   0  0  0  0  0  0  0  0  0  0  0  0
   12.3633   -8.4726   -7.7595 N   0  0  0  0  0  0  0  0  0  0  0  0
   12.6078   -7.1598   -7.3232 C   0  0  0  0  0  0  0  0  0  0  0  0
   11.9053   -6.6425   -6.4450 O   0  0  0  0  0  0  0  0  0  0  0  0
   13.7282   -6.3820   -7.9272 C   0  0  0  0  0  0  0  0  0  0  0  0
   14.5426   -7.2451   -8.8604 C   0  0  0  0  0  0  0  0  0  0  0  0
   15.6759   -6.4619   -9.4465 C   0  0  2  0  0  0  0  0  0  0  0  0
   16.5426   -7.3281  -10.2533 N   0  0  0  0  0  0  0  0  0  0  0  0
   16.4882   -5.7073   -8.5009 C   0  0  0  0  0  0  0  0  0  0  0  0
   16.2121   -4.4457   -8.0247 O   0  0  0  0  0  0  0  0  0  0  0  0
   17.5621   -6.2397   -8.0564 O   0  0  0  0  0  0  0  0  0  0  0  0
  1  2  1  0
  2  3  2  0
  4  2  1  0
  4  5  1  0
  5  6  1  1
  7  5  1  0
  7  8  2  0
 10  9  1  6
 10 12  1  0
 10 11  1  0
 12 13  1  6
 13  7  1  0
 14 12  1  0
 15 14  2  0
 17 16  1  0
 18 17  2  0
 19 20  1  0
 19 17  1  0
 21 20  1  1
 21 23  1  0
 21 22  1  0
 22 14  1  0
 23 24  1  0
 25 23  2  0
M  END
$$$$
