NTQ.pdb
     RDKit          3D

 25 24  0  0  1  0  0  0  0  0999 V2000
   15.7574  -14.5950  -15.0357 N   0  0  0  0  0  0  0  0  0  0  0  0
   16.9480  -14.0565  -14.4815 C   0  0  0  0  0  0  0  0  0  0  0  0
   17.4551  -14.5146  -13.4286 O   0  0  0  0  0  0  0  0  0  0  0  0
   17.6038  -12.9342  -15.1576 C   0  0  0  0  0  0  0  0  0  0  0  0
   16.7254  -12.3216  -16.2414 C   0  0  2  0  0  0  0  0  0  0  0  0
   16.4276  -13.2959  -17.2686 N   0  0  0  0  0  0  0  0  0  0  0  0
   17.5220  -11.2229  -16.8489 C   0  0  0  0  0  0  0  0  0  0  0  0
   18.2353  -11.4844  -17.8696 O   0  0  0  0  0  0  0  0  0  0  0  0
   16.1084   -8.2933  -18.3349 C   0  0  0  0  0  0  0  0  0  0  0  0
   17.1273   -7.7641  -17.3525 C   0  0  1  0  0  0  0  0  0  0  0  0
   16.4304   -7.3662  -16.2128 O   0  0  0  0  0  0  0  0  0  0  0  0
   18.1831   -8.7972  -17.0325 C   0  0  2  0  0  0  0  0  0  0  0  0
   17.5310   -9.8990  -16.3533 N   0  0  0  0  0  0  0  0  0  0  0  0
   19.2972   -8.2359  -16.2484 C   0  0  0  0  0  0  0  0  0  0  0  0
   19.3214   -8.3925  -15.0117 O   0  0  0  0  0  0  0  0  0  0  0  0
   25.2041   -4.3653  -17.2701 N   0  0  0  0  0  0  0  0  0  0  0  0
   24.8871   -5.7275  -17.1376 C   0  0  0  0  0  0  0  0  0  0  0  0
   25.5213   -6.5894  -17.7601 O   0  0  0  0  0  0  0  0  0  0  0  0
   23.7725   -6.1378  -16.2352 C   0  0  0  0  0  0  0  0  0  0  0  0
   22.5683   -6.5792  -17.0317 C   0  0  0  0  0  0  0  0  0  0  0  0
   21.4593   -7.0003  -16.1184 C   0  0  2  0  0  0  0  0  0  0  0  0
   20.3271   -7.5293  -16.8869 N   0  0  0  0  0  0  0  0  0  0  0  0
   20.9819   -5.9894  -15.1838 C   0  0  0  0  0  0  0  0  0  0  0  0
   21.4762   -5.7591  -13.9200 O   0  0  0  0  0  0  0  0  0  0  0  0
   20.0158   -5.2329  -15.5423 O   0  0  0  0  0  0  0  0  0  0  0  0
  1  2  1  0
  2  3  2  0
  4  2  1  0
  4  5  1  0
  5  6  1  6
  7  5  1  0
  7  8  2  0
 10  9  1  6
 10 12  1  0
 10 11  1  0
 12 13  1  1
 13  7  1  0
 14 12  1  0
 15 14  2  0
 17 16  1  0
 18 17  2  0
 19 20  1  0
 19 17  1  0
 21 20  1  6
 21 23  1  0
 21 22  1  0
 22 14  1  0
 23 24  1  0
 25 23  2  0
M  END
$$$$
