NTQ.pdb
     RDKit          3D

 25 24  0  0  1  0  0  0  0  0999 V2000
   24.4041  -15.5543  -19.3199 N   0  0  0  0  0  0  0  0  0  0  0  0
   25.2145  -15.5628  -18.1546 C   0  0  0  0  0  0  0  0  0  0  0  0
   25.9226  -16.5526  -17.8471 O   0  0  0  0  0  0  0  0  0  0  0  0
   25.2251  -14.3827  -17.2862 C   0  0  0  0  0  0  0  0  0  0  0  0
   24.2724  -13.2988  -17.7753 C   0  0  2  0  0  0  0  0  0  0  0  0
   24.7053  -12.7774  -19.0534 N   0  0  0  0  0  0  0  0  0  0  0  0
   24.3391  -12.2043  -16.7712 C   0  0  0  0  0  0  0  0  0  0  0  0
   24.0630  -12.4761  -15.5593 O   0  0  0  0  0  0  0  0  0  0  0  0
   27.1449  -10.1936  -15.7797 C   0  0  0  0  0  0  0  0  0  0  0  0
   26.0796   -9.1795  -16.1259 C   0  0  1  0  0  0  0  0  0  0  0  0
   26.4059   -8.6515  -17.3741 O   0  0  0  0  0  0  0  0  0  0  0  0
   24.6995   -9.7956  -16.1206 C   0  0  2  0  0  0  0  0  0  0  0  0
   24.6936  -10.8734  -17.0896 N   0  0  0  0  0  0  0  0  0  0  0  0
   23.6415   -8.8033  -16.3794 C   0  0  0  0  0  0  0  0  0  0  0  0
   23.1095   -8.7486  -17.5058 O   0  0  0  0  0  0  0  0  0  0  0  0
   18.3057   -8.3530  -14.8085 N   0  0  0  0  0  0  0  0  0  0  0  0
   18.4219   -7.0073  -15.1946 C   0  0  0  0  0  0  0  0  0  0  0  0
   17.4264   -6.2730  -15.2411 O   0  0  0  0  0  0  0  0  0  0  0  0
   19.7622   -6.4590  -15.5525 C   0  0  0  0  0  0  0  0  0  0  0  0
   20.8279   -7.5222  -15.4384 C   0  0  0  0  0  0  0  0  0  0  0  0
   22.1885   -6.9245  -15.6196 C   0  0  2  0  0  0  0  0  0  0  0  0
   23.2321   -7.9240  -15.3662 N   0  0  0  0  0  0  0  0  0  0  0  0
   22.4678   -5.7232  -14.8435 C   0  0  0  0  0  0  0  0  0  0  0  0
   21.9761   -4.4633  -15.0988 O   0  0  0  0  0  0  0  0  0  0  0  0
   23.2377   -5.8172  -13.8273 O   0  0  0  0  0  0  0  0  0  0  0  0
  1  2  1  0
  2  3  2  0
  4  2  1  0
  4  5  1  0
  5  6  1  6
  7  5  1  0
  7  8  2  0
 10  9  1  6
 10 12  1  0
 10 11  1  0
 12 13  1  6
 13  7  1  0
 14 12  1  0
 15 14  2  0
 17 16  1  0
 18 17  2  0
 19 20  1  0
 19 17  1  0
 21 20  1  1
 21 23  1  0
 21 22  1  0
 22 14  1  0
 23 24  1  0
 25 23  2  0
M  END
$$$$
