PCD.pdb
     RDKit          3D

 22 22  0  0  1  0  0  0  0  0999 V2000
   24.2636  -13.4191  -15.2989 N   0  0  0  0  0  0  0  0  0  0  0  0
   24.4602  -14.8206  -14.9614 C   0  0  0  0  0  0  0  0  0  0  0  0
   24.3451  -15.6060  -16.2402 C   0  0  0  0  0  0  0  0  0  0  0  0
   23.6889  -14.6089  -17.1709 C   0  0  0  0  0  0  0  0  0  0  0  0
   24.4002  -13.3241  -16.7299 C   0  0  1  0  0  0  0  0  0  0  0  0
   23.7793  -12.1215  -17.2947 C   0  0  0  0  0  0  0  0  0  0  0  0
   23.8814  -11.9590  -18.5494 O   0  0  0  0  0  0  0  0  0  0  0  0
   23.0877  -11.1435  -16.5727 N   0  0  0  0  0  0  0  0  0  0  0  0
   22.4633   -9.9795  -17.2397 C   0  0  1  0  0  0  0  0  0  0  0  0
   21.2411  -10.5589  -17.9633 C   0  0  0  0  0  0  0  0  0  0  0  0
   20.0846   -9.2842  -18.4998 S   0  0  0  0  0  0  0  0  0  0  0  0
   21.9753   -9.0299  -16.2269 C   0  0  0  0  0  0  0  0  0  0  0  0
   21.2963   -9.4920  -15.2567 O   0  0  0  0  0  0  0  0  0  0  0  0
   22.2255   -7.6424  -16.2816 N   0  0  0  0  0  0  0  0  0  0  0  0
   21.8031   -6.8272  -15.1574 C   0  0  1  0  0  0  0  0  0  0  0  0
   22.8323   -5.7755  -14.8168 C   0  0  0  0  0  0  0  0  0  0  0  0
   22.3900   -4.9179  -13.6893 C   0  0  0  0  0  0  0  0  0  0  0  0
   22.0153   -5.4550  -12.6374 O   0  0  0  0  0  0  0  0  0  0  0  0
   20.5463   -6.0903  -15.5065 C   0  0  0  0  0  0  0  0  0  0  0  0
   19.8289   -5.7216  -14.5651 O   0  0  0  0  0  0  0  0  0  0  0  0
   22.3952   -3.5441  -13.8085 O   0  0  0  0  0  0  0  0  0  0  0  0
   20.1997   -5.8325  -16.8057 O   0  0  0  0  0  0  0  0  0  0  0  0
  1  2  1  0
  3  2  1  0
  4  3  1  0
  4  5  1  0
  5  1  1  0
  5  6  1  6
  7  6  2  0
  8  6  1  0
  9  8  1  0
  9 12  1  0
  9 10  1  1
 11 10  1  0
 12 14  1  0
 13 12  2  0
 14 15  1  0
 15 16  1  6
 15 19  1  0
 16 17  1  0
 17 21  1  0
 17 18  2  0
 19 20  2  0
 19 22  1  0
M  END
$$$$
