PCD.pdb
     RDKit          3D

 22 22  0  0  1  0  0  0  0  0999 V2000
   19.9452  -13.4076  -17.5924 N   0  0  0  0  0  0  0  0  0  0  0  0
   19.7222  -14.0985  -18.8533 C   0  0  0  0  0  0  0  0  0  0  0  0
   19.7062  -13.0532  -19.9361 C   0  0  0  0  0  0  0  0  0  0  0  0
   19.5280  -11.7750  -19.1452 C   0  0  0  0  0  0  0  0  0  0  0  0
   20.4112  -12.0872  -17.9312 C   0  0  1  0  0  0  0  0  0  0  0  0
   20.2352  -11.1131  -16.8491 C   0  0  0  0  0  0  0  0  0  0  0  0
   19.2305  -11.2745  -16.0903 O   0  0  0  0  0  0  0  0  0  0  0  0
   21.0754  -10.0271  -16.5832 N   0  0  0  0  0  0  0  0  0  0  0  0
   20.7770   -9.0576  -15.5057 C   0  0  1  0  0  0  0  0  0  0  0  0
   21.9360   -9.2147  -14.5131 C   0  0  0  0  0  0  0  0  0  0  0  0
   21.8489   -8.0339  -13.1536 S   0  0  0  0  0  0  0  0  0  0  0  0
   20.8293   -7.6881  -16.0418 C   0  0  0  0  0  0  0  0  0  0  0  0
   21.7396   -7.4141  -16.8856 O   0  0  0  0  0  0  0  0  0  0  0  0
   19.9225   -6.6742  -15.6669 N   0  0  0  0  0  0  0  0  0  0  0  0
   20.1471   -5.3339  -16.1766 C   0  0  1  0  0  0  0  0  0  0  0  0
   18.8895   -4.4997  -16.1177 C   0  0  0  0  0  0  0  0  0  0  0  0
   19.1070   -3.1373  -16.6642 C   0  0  0  0  0  0  0  0  0  0  0  0
   20.2194   -2.8462  -17.1261 O   0  0  0  0  0  0  0  0  0  0  0  0
   21.1610   -4.6296  -15.3279 C   0  0  0  0  0  0  0  0  0  0  0  0
   21.8246   -3.7332  -15.8691 O   0  0  0  0  0  0  0  0  0  0  0  0
   18.0882   -2.2080  -16.6591 O   0  0  0  0  0  0  0  0  0  0  0  0
   21.3510   -4.9567  -14.0120 O   0  0  0  0  0  0  0  0  0  0  0  0
  1  2  1  0
  3  2  1  0
  4  3  1  0
  4  5  1  0
  5  1  1  0
  5  6  1  1
  7  6  2  0
  8  6  1  0
  9  8  1  0
  9 12  1  0
  9 10  1  1
 11 10  1  0
 12 14  1  0
 13 12  2  0
 14 15  1  0
 15 16  1  1
 15 19  1  0
 16 17  1  0
 17 21  1  0
 17 18  2  0
 19 20  2  0
 19 22  1  0
M  END
$$$$
