PCD.pdb
     RDKit          3D

 22 22  0  0  1  0  0  0  0  0999 V2000
   21.5977  -11.5192  -19.1608 N   0  0  0  0  0  0  0  0  0  0  0  0
   21.7120  -12.8149  -19.8127 C   0  0  0  0  0  0  0  0  0  0  0  0
   20.9088  -13.7941  -18.9993 C   0  0  0  0  0  0  0  0  0  0  0  0
   20.7123  -13.0452  -17.6987 C   0  0  0  0  0  0  0  0  0  0  0  0
   20.4967  -11.6261  -18.2379 C   0  0  1  0  0  0  0  0  0  0  0  0
   20.5285  -10.6157  -17.1753 C   0  0  0  0  0  0  0  0  0  0  0  0
   19.5688  -10.6269  -16.3447 O   0  0  0  0  0  0  0  0  0  0  0  0
   21.5208   -9.6458  -17.0001 N   0  0  0  0  0  0  0  0  0  0  0  0
   21.4857   -8.6916  -15.8696 C   0  0  1  0  0  0  0  0  0  0  0  0
   22.9056   -8.7267  -15.2904 C   0  0  0  0  0  0  0  0  0  0  0  0
   23.0565   -9.8561  -13.8933 S   0  0  0  0  0  0  0  0  0  0  0  0
   21.2422   -7.3313  -16.3757 C   0  0  0  0  0  0  0  0  0  0  0  0
   21.8072   -6.9911  -17.4623 O   0  0  0  0  0  0  0  0  0  0  0  0
   20.4165   -6.3959  -15.7170 N   0  0  0  0  0  0  0  0  0  0  0  0
   20.2351   -5.0932  -16.3307 C   0  0  1  0  0  0  0  0  0  0  0  0
   18.7804   -4.8181  -16.6294 C   0  0  0  0  0  0  0  0  0  0  0  0
   18.2672   -5.6903  -17.7148 C   0  0  0  0  0  0  0  0  0  0  0  0
   18.8406   -5.6824  -18.8132 O   0  0  0  0  0  0  0  0  0  0  0  0
   20.6828   -4.0190  -15.3873 C   0  0  0  0  0  0  0  0  0  0  0  0
   21.0280   -4.3745  -14.2510 O   0  0  0  0  0  0  0  0  0  0  0  0
   17.1691   -6.4979  -17.5063 O   0  0  0  0  0  0  0  0  0  0  0  0
   20.7116   -2.7012  -15.7576 O   0  0  0  0  0  0  0  0  0  0  0  0
  1  2  1  0
  3  2  1  0
  4  3  1  0
  4  5  1  0
  5  1  1  0
  5  6  1  1
  7  6  2  0
  8  6  1  0
  9  8  1  0
  9 12  1  0
  9 10  1  6
 11 10  1  0
 12 14  1  0
 13 12  2  0
 14 15  1  0
 15 16  1  1
 15 19  1  0
 16 17  1  0
 17 21  1  0
 17 18  2  0
 19 20  2  0
 19 22  1  0
M  END
$$$$
