PCD.pdb
     RDKit          3D

 22 22  0  0  1  0  0  0  0  0999 V2000
   21.9918  -11.8045  -19.5161 N   0  0  0  0  0  0  0  0  0  0  0  0
   21.6747  -13.0349  -20.2249 C   0  0  0  0  0  0  0  0  0  0  0  0
   21.0543  -13.9755  -19.2269 C   0  0  0  0  0  0  0  0  0  0  0  0
   21.4309  -13.3367  -17.9073 C   0  0  0  0  0  0  0  0  0  0  0  0
   21.2680  -11.8561  -18.2716 C   0  0  1  0  0  0  0  0  0  0  0  0
   21.8159  -10.9659  -17.2429 C   0  0  0  0  0  0  0  0  0  0  0  0
   21.2045  -10.9298  -16.1312 O   0  0  0  0  0  0  0  0  0  0  0  0
   22.9487  -10.1575  -17.3816 N   0  0  0  0  0  0  0  0  0  0  0  0
   23.4251   -9.2897  -16.2817 C   0  0  1  0  0  0  0  0  0  0  0  0
   24.9550   -9.3520  -16.3757 C   0  0  0  0  0  0  0  0  0  0  0  0
   25.7147  -10.0144  -14.8810 S   0  0  0  0  0  0  0  0  0  0  0  0
   23.0175   -7.8985  -16.5350 C   0  0  0  0  0  0  0  0  0  0  0  0
   23.2004   -7.4282  -17.7017 O   0  0  0  0  0  0  0  0  0  0  0  0
   22.4365   -7.0702  -15.5516 N   0  0  0  0  0  0  0  0  0  0  0  0
   21.9642   -5.7584  -15.9552 C   0  0  1  0  0  0  0  0  0  0  0  0
   20.4569   -5.7126  -16.0386 C   0  0  0  0  0  0  0  0  0  0  0  0
   19.9670   -4.3602  -16.4036 C   0  0  0  0  0  0  0  0  0  0  0  0
   20.2140   -3.9170  -17.5341 O   0  0  0  0  0  0  0  0  0  0  0  0
   22.3616   -4.7375  -14.9333 C   0  0  0  0  0  0  0  0  0  0  0  0
   22.6578   -5.1554  -13.8044 O   0  0  0  0  0  0  0  0  0  0  0  0
   19.2478   -3.6066  -15.5001 O   0  0  0  0  0  0  0  0  0  0  0  0
   22.3981   -3.4008  -15.2270 O   0  0  0  0  0  0  0  0  0  0  0  0
  1  2  1  0
  3  2  1  0
  4  3  1  0
  4  5  1  0
  5  1  1  0
  5  6  1  1
  7  6  2  0
  8  6  1  0
  9  8  1  0
  9 12  1  0
  9 10  1  6
 11 10  1  0
 12 14  1  0
 13 12  2  0
 14 15  1  0
 15 16  1  1
 15 19  1  0
 16 17  1  0
 17 21  1  0
 17 18  2  0
 19 20  2  0
 19 22  1  0
M  END
$$$$
