PCD.pdb
     RDKit          3D

 22 22  0  0  1  0  0  0  0  0999 V2000
   20.2515  -10.3909  -17.4414 N   0  0  0  0  0  0  0  0  0  0  0  0
   20.1630  -11.7511  -17.9502 C   0  0  0  0  0  0  0  0  0  0  0  0
   19.2847  -12.5237  -17.0031 C   0  0  0  0  0  0  0  0  0  0  0  0
   19.2557  -11.6238  -15.7864 C   0  0  0  0  0  0  0  0  0  0  0  0
   19.1965  -10.2526  -16.4701 C   0  0  1  0  0  0  0  0  0  0  0  0
   19.4148   -9.1503  -15.5276 C   0  0  0  0  0  0  0  0  0  0  0  0
   18.5137   -8.9552  -14.6552 O   0  0  0  0  0  0  0  0  0  0  0  0
   20.5251   -8.3002  -15.5082 N   0  0  0  0  0  0  0  0  0  0  0  0
   20.6154   -7.1590  -14.5705 C   0  0  1  0  0  0  0  0  0  0  0  0
   21.9890   -7.3135  -13.9053 C   0  0  0  0  0  0  0  0  0  0  0  0
   22.3827   -5.9433  -12.8018 S   0  0  0  0  0  0  0  0  0  0  0  0
   20.6233   -5.8957  -15.3255 C   0  0  0  0  0  0  0  0  0  0  0  0
   21.3184   -5.8425  -16.3883 O   0  0  0  0  0  0  0  0  0  0  0  0
   19.8999   -4.7513  -14.9283 N   0  0  0  0  0  0  0  0  0  0  0  0
   19.9771   -3.5691  -15.7668 C   0  0  1  0  0  0  0  0  0  0  0  0
   18.7841   -2.6655  -15.5633 C   0  0  0  0  0  0  0  0  0  0  0  0
   17.5064   -3.3746  -15.8221 C   0  0  0  0  0  0  0  0  0  0  0  0
   17.4060   -4.0802  -16.8357 O   0  0  0  0  0  0  0  0  0  0  0  0
   21.1850   -2.7625  -15.3999 C   0  0  0  0  0  0  0  0  0  0  0  0
   21.8589   -3.1615  -14.4389 O   0  0  0  0  0  0  0  0  0  0  0  0
   16.4461   -3.2515  -14.9491 O   0  0  0  0  0  0  0  0  0  0  0  0
   21.5346   -1.6337  -16.0913 O   0  0  0  0  0  0  0  0  0  0  0  0
  1  2  1  0
  3  2  1  0
  4  3  1  0
  4  5  1  0
  5  1  1  0
  5  6  1  1
  7  6  2  0
  8  6  1  0
  9  8  1  0
  9 12  1  0
  9 10  1  6
 11 10  1  0
 12 14  1  0
 13 12  2  0
 14 15  1  0
 15 16  1  1
 15 19  1  0
 16 17  1  0
 17 21  1  0
 17 18  2  0
 19 20  2  0
 19 22  1  0
M  END
$$$$
