PCD.pdb
     RDKit          3D

 22 22  0  0  1  0  0  0  0  0999 V2000
   20.0029  -11.1557  -18.1608 N   0  0  0  0  0  0  0  0  0  0  0  0
   19.4457  -12.4228  -18.6088 C   0  0  0  0  0  0  0  0  0  0  0  0
   19.2505  -13.2794  -17.3868 C   0  0  0  0  0  0  0  0  0  0  0  0
   20.0951  -12.5631  -16.3549 C   0  0  0  0  0  0  0  0  0  0  0  0
   19.8023  -11.1067  -16.7350 C   0  0  1  0  0  0  0  0  0  0  0  0
   20.6952  -10.1632  -16.0543 C   0  0  0  0  0  0  0  0  0  0  0  0
   20.5129   -9.9981  -14.8090 O   0  0  0  0  0  0  0  0  0  0  0  0
   21.7249   -9.4334  -16.6569 N   0  0  0  0  0  0  0  0  0  0  0  0
   22.5397   -8.4616  -15.8944 C   0  0  1  0  0  0  0  0  0  0  0  0
   23.9179   -8.5017  -16.5666 C   0  0  0  0  0  0  0  0  0  0  0  0
   24.9822   -7.1425  -16.0470 S   0  0  0  0  0  0  0  0  0  0  0  0
   21.9933   -7.1070  -16.0739 C   0  0  0  0  0  0  0  0  0  0  0  0
   21.8737   -6.6664  -17.2602 O   0  0  0  0  0  0  0  0  0  0  0  0
   21.5981   -6.2823  -14.9994 N   0  0  0  0  0  0  0  0  0  0  0  0
   21.1079   -4.9507  -15.3045 C   0  0  1  0  0  0  0  0  0  0  0  0
   19.6170   -4.8448  -15.0871 C   0  0  0  0  0  0  0  0  0  0  0  0
   19.1249   -3.4632  -15.3137 C   0  0  0  0  0  0  0  0  0  0  0  0
   19.6142   -2.7951  -16.2353 O   0  0  0  0  0  0  0  0  0  0  0  0
   21.7406   -3.9519  -14.3845 C   0  0  0  0  0  0  0  0  0  0  0  0
   22.4557   -4.3970  -13.4749 O   0  0  0  0  0  0  0  0  0  0  0  0
   18.1381   -2.9293  -14.5119 O   0  0  0  0  0  0  0  0  0  0  0  0
   21.5418   -2.6058  -14.5362 O   0  0  0  0  0  0  0  0  0  0  0  0
  1  2  1  0
  3  2  1  0
  4  3  1  0
  4  5  1  0
  5  1  1  0
  5  6  1  1
  7  6  2  0
  8  6  1  0
  9  8  1  0
  9 12  1  0
  9 10  1  6
 11 10  1  0
 12 14  1  0
 13 12  2  0
 14 15  1  0
 15 16  1  1
 15 19  1  0
 16 17  1  0
 17 21  1  0
 17 18  2  0
 19 20  2  0
 19 22  1  0
M  END
$$$$
