PCD.pdb
     RDKit          3D

 22 22  0  0  1  0  0  0  0  0999 V2000
   20.9851  -12.9945  -16.3388 N   0  0  0  0  0  0  0  0  0  0  0  0
   21.0192  -14.4411  -16.4903 C   0  0  0  0  0  0  0  0  0  0  0  0
   20.0637  -14.7947  -17.5981 C   0  0  0  0  0  0  0  0  0  0  0  0
   19.2472  -13.5274  -17.7339 C   0  0  0  0  0  0  0  0  0  0  0  0
   20.3454  -12.4785  -17.5221 C   0  0  1  0  0  0  0  0  0  0  0  0
   19.7999  -11.1285  -17.3464 C   0  0  0  0  0  0  0  0  0  0  0  0
   19.2967  -10.5757  -18.3722 O   0  0  0  0  0  0  0  0  0  0  0  0
   19.7869  -10.4021  -16.1514 N   0  0  0  0  0  0  0  0  0  0  0  0
   19.2475   -9.0258  -16.0830 C   0  0  1  0  0  0  0  0  0  0  0  0
   18.1098   -9.1074  -15.0573 C   0  0  0  0  0  0  0  0  0  0  0  0
   16.5055   -9.4047  -15.8240 S   0  0  0  0  0  0  0  0  0  0  0  0
   20.2721   -8.1175  -15.5436 C   0  0  0  0  0  0  0  0  0  0  0  0
   21.0271   -8.5546  -14.6191 O   0  0  0  0  0  0  0  0  0  0  0  0
   20.4546   -6.7957  -16.0023 N   0  0  0  0  0  0  0  0  0  0  0  0
   21.5162   -6.0059  -15.4057 C   0  0  1  0  0  0  0  0  0  0  0  0
   21.9422   -4.8746  -16.3112 C   0  0  0  0  0  0  0  0  0  0  0  0
   22.9711   -4.0166  -15.6728 C   0  0  0  0  0  0  0  0  0  0  0  0
   23.8469   -4.5475  -14.9753 O   0  0  0  0  0  0  0  0  0  0  0  0
   21.0289   -5.3719  -14.1389 C   0  0  0  0  0  0  0  0  0  0  0  0
   19.8279   -5.0691  -14.0856 O   0  0  0  0  0  0  0  0  0  0  0  0
   22.9544   -2.6494  -15.8518 O   0  0  0  0  0  0  0  0  0  0  0  0
   21.8677   -5.1346  -13.0831 O   0  0  0  0  0  0  0  0  0  0  0  0
  1  2  1  0
  3  2  1  0
  4  3  1  0
  4  5  1  0
  5  1  1  0
  5  6  1  1
  7  6  2  0
  8  6  1  0
  9  8  1  0
  9 12  1  0
  9 10  1  1
 11 10  1  0
 12 14  1  0
 13 12  2  0
 14 15  1  0
 15 16  1  6
 15 19  1  0
 16 17  1  0
 17 21  1  0
 17 18  2  0
 19 20  2  0
 19 22  1  0
M  END
$$$$
