PCD.pdb
     RDKit          3D

 22 22  0  0  1  0  0  0  0  0999 V2000
   16.3308  -11.2591  -12.3661 N   0  0  0  0  0  0  0  0  0  0  0  0
   15.8272  -12.5585  -12.7843 C   0  0  0  0  0  0  0  0  0  0  0  0
   14.4604  -12.3367  -13.3742 C   0  0  0  0  0  0  0  0  0  0  0  0
   14.1197  -10.9471  -12.8801 C   0  0  0  0  0  0  0  0  0  0  0  0
   15.4928  -10.2759  -13.0036 C   0  0  1  0  0  0  0  0  0  0  0  0
   15.5328   -8.9647  -12.3479 C   0  0  0  0  0  0  0  0  0  0  0  0
   14.8805   -8.0269  -12.9012 O   0  0  0  0  0  0  0  0  0  0  0  0
   16.2248   -8.6609  -11.1711 N   0  0  0  0  0  0  0  0  0  0  0  0
   16.2803   -7.2829  -10.6344 C   0  0  1  0  0  0  0  0  0  0  0  0
   16.1149   -7.4519   -9.1188 C   0  0  0  0  0  0  0  0  0  0  0  0
   14.4546   -7.9820   -8.6576 S   0  0  0  0  0  0  0  0  0  0  0  0
   17.6133   -6.7088  -10.8779 C   0  0  0  0  0  0  0  0  0  0  0  0
   18.5792   -7.1244  -10.1638 O   0  0  0  0  0  0  0  0  0  0  0  0
   17.8668   -5.7281  -11.8601 N   0  0  0  0  0  0  0  0  0  0  0  0
   19.2475   -5.3675  -12.1252 C   0  0  1  0  0  0  0  0  0  0  0  0
   19.9753   -6.4644  -12.8656 C   0  0  0  0  0  0  0  0  0  0  0  0
   21.3417   -6.0455  -13.2652 C   0  0  0  0  0  0  0  0  0  0  0  0
   21.4865   -5.3757  -14.2976 O   0  0  0  0  0  0  0  0  0  0  0  0
   19.2974   -4.1577  -13.0075 C   0  0  0  0  0  0  0  0  0  0  0  0
   18.2952   -3.9217  -13.6980 O   0  0  0  0  0  0  0  0  0  0  0  0
   22.4348   -6.3952  -12.5007 O   0  0  0  0  0  0  0  0  0  0  0  0
   20.3981   -3.3448  -13.0537 O   0  0  0  0  0  0  0  0  0  0  0  0
  1  2  1  0
  3  2  1  0
  4  3  1  0
  4  5  1  0
  5  1  1  0
  5  6  1  1
  7  6  2  0
  8  6  1  0
  9  8  1  0
  9 12  1  0
  9 10  1  1
 11 10  1  0
 12 14  1  0
 13 12  2  0
 14 15  1  0
 15 16  1  6
 15 19  1  0
 16 17  1  0
 17 21  1  0
 17 18  2  0
 19 20  2  0
 19 22  1  0
M  END
$$$$
