PCD.pdb
     RDKit          3D

 22 22  0  0  1  0  0  0  0  0999 V2000
   23.3555  -13.4285  -18.3213 N   0  0  0  0  0  0  0  0  0  0  0  0
   23.2510  -14.8492  -18.6170 C   0  0  0  0  0  0  0  0  0  0  0  0
   22.6279  -15.5086  -17.4160 C   0  0  0  0  0  0  0  0  0  0  0  0
   22.7868  -14.4468  -16.3490 C   0  0  0  0  0  0  0  0  0  0  0  0
   22.5086  -13.1890  -17.1807 C   0  0  1  0  0  0  0  0  0  0  0  0
   22.8422  -11.9577  -16.4571 C   0  0  0  0  0  0  0  0  0  0  0  0
   22.1276  -11.6751  -15.4469 O   0  0  0  0  0  0  0  0  0  0  0  0
   23.8750  -11.0730  -16.7835 N   0  0  0  0  0  0  0  0  0  0  0  0
   24.1901   -9.8991  -15.9395 C   0  0  1  0  0  0  0  0  0  0  0  0
   25.6393   -9.5447  -16.2966 C   0  0  0  0  0  0  0  0  0  0  0  0
   26.8352  -10.3307  -15.2002 S   0  0  0  0  0  0  0  0  0  0  0  0
   23.3416   -8.7629  -16.3329 C   0  0  0  0  0  0  0  0  0  0  0  0
   23.1264   -8.5825  -17.5725 O   0  0  0  0  0  0  0  0  0  0  0  0
   22.7595   -7.8731  -15.4054 N   0  0  0  0  0  0  0  0  0  0  0  0
   21.8919   -6.8267  -15.9143 C   0  0  1  0  0  0  0  0  0  0  0  0
   20.4872   -6.9595  -15.3754 C   0  0  0  0  0  0  0  0  0  0  0  0
   19.6227   -5.8342  -15.8099 C   0  0  0  0  0  0  0  0  0  0  0  0
   19.6158   -5.5094  -17.0057 O   0  0  0  0  0  0  0  0  0  0  0  0
   22.3914   -5.4877  -15.4651 C   0  0  0  0  0  0  0  0  0  0  0  0
   22.9471   -5.4355  -14.3581 O   0  0  0  0  0  0  0  0  0  0  0  0
   18.8384   -5.1592  -14.8985 O   0  0  0  0  0  0  0  0  0  0  0  0
   22.2439   -4.3674  -16.2381 O   0  0  0  0  0  0  0  0  0  0  0  0
  1  2  1  0
  3  2  1  0
  4  3  1  0
  4  5  1  0
  5  1  1  0
  5  6  1  1
  7  6  2  0
  8  6  1  0
  9  8  1  0
  9 12  1  0
  9 10  1  6
 11 10  1  0
 12 14  1  0
 13 12  2  0
 14 15  1  0
 15 16  1  1
 15 19  1  0
 16 17  1  0
 17 21  1  0
 17 18  2  0
 19 20  2  0
 19 22  1  0
M  END
$$$$
