PCD.pdb
     RDKit          3D

 22 22  0  0  1  0  0  0  0  0999 V2000
   27.9126  -22.4848  -16.1103 N   0  0  0  0  0  0  0  0  0  0  0  0
   28.4557  -21.9304  -17.3410 C   0  0  0  0  0  0  0  0  0  0  0  0
   28.1063  -20.4665  -17.3611 C   0  0  0  0  0  0  0  0  0  0  0  0
   27.0285  -20.3796  -16.3019 C   0  0  0  0  0  0  0  0  0  0  0  0
   27.5912  -21.3616  -15.2674 C   0  0  1  0  0  0  0  0  0  0  0  0
   26.6191  -21.6821  -14.2172 C   0  0  0  0  0  0  0  0  0  0  0  0
   26.0058  -22.7885  -14.3221 O   0  0  0  0  0  0  0  0  0  0  0  0
   26.3116  -20.8770  -13.1157 N   0  0  0  0  0  0  0  0  0  0  0  0
   25.2319  -21.2332  -12.1684 C   0  0  1  0  0  0  0  0  0  0  0  0
   25.5614  -20.4460  -10.8937 C   0  0  0  0  0  0  0  0  0  0  0  0
   24.2536  -20.5504   -9.6572 S   0  0  0  0  0  0  0  0  0  0  0  0
   23.9422  -20.7405  -12.6779 C   0  0  0  0  0  0  0  0  0  0  0  0
   23.9050  -19.5683  -13.1679 O   0  0  0  0  0  0  0  0  0  0  0  0
   22.7555  -21.5034  -12.6493 N   0  0  0  0  0  0  0  0  0  0  0  0
   21.5657  -20.9391  -13.2597 C   0  0  1  0  0  0  0  0  0  0  0  0
   20.6349  -22.0174  -13.7618 C   0  0  0  0  0  0  0  0  0  0  0  0
   20.6645  -22.1243  -15.2417 C   0  0  0  0  0  0  0  0  0  0  0  0
   21.3014  -21.2834  -15.8918 O   0  0  0  0  0  0  0  0  0  0  0  0
   20.7941  -20.1556  -12.2423 C   0  0  0  0  0  0  0  0  0  0  0  0
   20.9633  -20.4569  -11.0517 O   0  0  0  0  0  0  0  0  0  0  0  0
   19.9942  -23.1431  -15.8853 O   0  0  0  0  0  0  0  0  0  0  0  0
   19.9384  -19.1502  -12.6048 O   0  0  0  0  0  0  0  0  0  0  0  0
  1  2  1  0
  3  2  1  0
  4  3  1  0
  4  5  1  0
  5  1  1  0
  5  6  1  1
  7  6  2  0
  8  6  1  0
  9  8  1  0
  9 12  1  0
  9 10  1  1
 11 10  1  0
 12 14  1  0
 13 12  2  0
 14 15  1  0
 15 16  1  1
 15 19  1  0
 16 17  1  0
 17 21  1  0
 17 18  2  0
 19 20  2  0
 19 22  1  0
M  END
$$$$
