PCD.pdb
     RDKit          3D

 22 22  0  0  1  0  0  0  0  0999 V2000
   24.9293  -14.8029  -17.0206 N   0  0  0  0  0  0  0  0  0  0  0  0
   25.9945  -15.6154  -16.4532 C   0  0  0  0  0  0  0  0  0  0  0  0
   26.6498  -14.7977  -15.3728 C   0  0  0  0  0  0  0  0  0  0  0  0
   26.1490  -13.4024  -15.6785 C   0  0  0  0  0  0  0  0  0  0  0  0
   24.7081  -13.7214  -16.0950 C   0  0  1  0  0  0  0  0  0  0  0  0
   24.0346  -12.5673  -16.6995 C   0  0  0  0  0  0  0  0  0  0  0  0
   24.2490  -12.3599  -17.9332 O   0  0  0  0  0  0  0  0  0  0  0  0
   23.1807  -11.6804  -16.0360 N   0  0  0  0  0  0  0  0  0  0  0  0
   22.5336  -10.5502  -16.7388 C   0  0  1  0  0  0  0  0  0  0  0  0
   21.1692  -11.0979  -17.1763 C   0  0  0  0  0  0  0  0  0  0  0  0
   20.0429   -9.7992  -17.7196 S   0  0  0  0  0  0  0  0  0  0  0  0
   22.2915   -9.4501  -15.7918 C   0  0  0  0  0  0  0  0  0  0  0  0
   21.8656   -9.7471  -14.6316 O   0  0  0  0  0  0  0  0  0  0  0  0
   22.5100   -8.0927  -16.1089 N   0  0  0  0  0  0  0  0  0  0  0  0
   22.1832   -7.0956  -15.1061 C   0  0  1  0  0  0  0  0  0  0  0  0
   22.7873   -5.7526  -15.4412 C   0  0  0  0  0  0  0  0  0  0  0  0
   22.4884   -4.7394  -14.3990 C   0  0  0  0  0  0  0  0  0  0  0  0
   22.5841   -5.0593  -13.2057 O   0  0  0  0  0  0  0  0  0  0  0  0
   20.7000   -6.8906  -15.0562 C   0  0  0  0  0  0  0  0  0  0  0  0
   20.1818   -6.7916  -13.9343 O   0  0  0  0  0  0  0  0  0  0  0  0
   22.1098   -3.4610  -14.7509 O   0  0  0  0  0  0  0  0  0  0  0  0
   19.9446   -6.8151  -16.1955 O   0  0  0  0  0  0  0  0  0  0  0  0
  1  2  1  0
  3  2  1  0
  4  3  1  0
  4  5  1  0
  5  1  1  0
  5  6  1  6
  7  6  2  0
  8  6  1  0
  9  8  1  0
  9 12  1  0
  9 10  1  1
 11 10  1  0
 12 14  1  0
 13 12  2  0
 14 15  1  0
 15 16  1  6
 15 19  1  0
 16 17  1  0
 17 21  1  0
 17 18  2  0
 19 20  2  0
 19 22  1  0
M  END
$$$$
