PCD.pdb
     RDKit          3D

 22 22  0  0  1  0  0  0  0  0999 V2000
   18.8050  -13.5010  -15.5624 N   0  0  0  0  0  0  0  0  0  0  0  0
   17.8413  -14.5893  -15.6233 C   0  0  0  0  0  0  0  0  0  0  0  0
   17.7966  -15.0641  -17.0509 C   0  0  0  0  0  0  0  0  0  0  0  0
   18.4667  -13.9249  -17.7887 C   0  0  0  0  0  0  0  0  0  0  0  0
   19.5674  -13.5665  -16.7831 C   0  0  1  0  0  0  0  0  0  0  0  0
   20.2387  -12.3063  -17.1176 C   0  0  0  0  0  0  0  0  0  0  0  0
   21.2393  -12.3787  -17.8952 O   0  0  0  0  0  0  0  0  0  0  0  0
   19.8726  -11.0381  -16.6554 N   0  0  0  0  0  0  0  0  0  0  0  0
   20.5225   -9.8082  -17.1599 C   0  0  1  0  0  0  0  0  0  0  0  0
   19.6583   -9.3756  -18.3512 C   0  0  0  0  0  0  0  0  0  0  0  0
   20.6416   -8.7920  -19.7450 S   0  0  0  0  0  0  0  0  0  0  0  0
   20.4413   -8.7500  -16.1404 C   0  0  0  0  0  0  0  0  0  0  0  0
   19.4631   -8.7794  -15.3294 O   0  0  0  0  0  0  0  0  0  0  0  0
   21.3920   -7.7141  -16.0216 N   0  0  0  0  0  0  0  0  0  0  0  0
   21.2176   -6.7459  -14.9545 C   0  0  1  0  0  0  0  0  0  0  0  0
   22.4807   -5.9542  -14.7116 C   0  0  0  0  0  0  0  0  0  0  0  0
   22.2911   -4.9251  -13.6593 C   0  0  0  0  0  0  0  0  0  0  0  0
   21.7179   -5.2409  -12.6071 O   0  0  0  0  0  0  0  0  0  0  0  0
   20.1634   -5.7521  -15.3358 C   0  0  0  0  0  0  0  0  0  0  0  0
   19.6177   -5.1275  -14.4144 O   0  0  0  0  0  0  0  0  0  0  0  0
   22.7451   -3.6367  -13.8476 O   0  0  0  0  0  0  0  0  0  0  0  0
   19.8137   -5.5384  -16.6421 O   0  0  0  0  0  0  0  0  0  0  0  0
  1  2  1  0
  3  2  1  0
  4  3  1  0
  4  5  1  0
  5  1  1  0
  5  6  1  6
  7  6  2  0
  8  6  1  0
  9  8  1  0
  9 12  1  0
  9 10  1  6
 11 10  1  0
 12 14  1  0
 13 12  2  0
 14 15  1  0
 15 16  1  6
 15 19  1  0
 16 17  1  0
 17 21  1  0
 17 18  2  0
 19 20  2  0
 19 22  1  0
M  END
$$$$
