PCD.pdb
     RDKit          3D

 22 22  0  0  1  0  0  0  0  0999 V2000
   26.2457  -11.4796  -15.7365 N   0  0  0  0  0  0  0  0  0  0  0  0
   27.2940  -12.4697  -15.9307 C   0  0  0  0  0  0  0  0  0  0  0  0
   27.9599  -12.1600  -17.2444 C   0  0  0  0  0  0  0  0  0  0  0  0
   26.9607  -11.2306  -17.8992 C   0  0  0  0  0  0  0  0  0  0  0  0
   26.5090  -10.4212  -16.6777 C   0  0  1  0  0  0  0  0  0  0  0  0
   25.3341   -9.5911  -16.9629 C   0  0  0  0  0  0  0  0  0  0  0  0
   25.5177   -8.5696  -17.6938 O   0  0  0  0  0  0  0  0  0  0  0  0
   24.0355   -9.8275  -16.5008 N   0  0  0  0  0  0  0  0  0  0  0  0
   22.8938   -8.9858  -16.9227 C   0  0  1  0  0  0  0  0  0  0  0  0
   21.7159   -9.9618  -17.0367 C   0  0  0  0  0  0  0  0  0  0  0  0
   20.1333   -9.1190  -17.2243 S   0  0  0  0  0  0  0  0  0  0  0  0
   22.5721   -8.0179  -15.8618 C   0  0  0  0  0  0  0  0  0  0  0  0
   22.6276   -8.4167  -14.6562 O   0  0  0  0  0  0  0  0  0  0  0  0
   22.2096   -6.6788  -16.1189 N   0  0  0  0  0  0  0  0  0  0  0  0
   21.9928   -5.7998  -14.9843 C   0  0  1  0  0  0  0  0  0  0  0  0
   22.1796   -4.3495  -15.3622 C   0  0  0  0  0  0  0  0  0  0  0  0
   21.8674   -3.4416  -14.2306 C   0  0  0  0  0  0  0  0  0  0  0  0
   22.4058   -3.6432  -13.1329 O   0  0  0  0  0  0  0  0  0  0  0  0
   20.5810   -5.9315  -14.5006 C   0  0  0  0  0  0  0  0  0  0  0  0
   19.7034   -6.0965  -15.3605 O   0  0  0  0  0  0  0  0  0  0  0  0
   20.9918   -2.3892  -14.3960 O   0  0  0  0  0  0  0  0  0  0  0  0
   20.2674   -5.8731  -13.1692 O   0  0  0  0  0  0  0  0  0  0  0  0
  1  2  1  0
  3  2  1  0
  4  3  1  0
  4  5  1  0
  5  1  1  0
  5  6  1  6
  7  6  2  0
  8  6  1  0
  9  8  1  0
  9 12  1  0
  9 10  1  1
 11 10  1  0
 12 14  1  0
 13 12  2  0
 14 15  1  0
 15 16  1  6
 15 19  1  0
 16 17  1  0
 17 21  1  0
 17 18  2  0
 19 20  2  0
 19 22  1  0
M  END
$$$$
