PCD.pdb
     RDKit          3D

 22 22  0  0  1  0  0  0  0  0999 V2000
   20.5904  -15.8232  -17.6137 N   0  0  0  0  0  0  0  0  0  0  0  0
   20.1273  -17.1584  -17.9595 C   0  0  0  0  0  0  0  0  0  0  0  0
   19.4876  -17.7399  -16.7274 C   0  0  0  0  0  0  0  0  0  0  0  0
   19.9947  -16.8195  -15.6381 C   0  0  0  0  0  0  0  0  0  0  0  0
   19.9393  -15.4766  -16.3762 C   0  0  1  0  0  0  0  0  0  0  0  0
   20.6215  -14.4075  -15.6397 C   0  0  0  0  0  0  0  0  0  0  0  0
   20.1892  -14.1477  -14.4749 O   0  0  0  0  0  0  0  0  0  0  0  0
   21.7021  -13.6537  -16.1088 N   0  0  0  0  0  0  0  0  0  0  0  0
   22.3334  -12.6006  -15.2828 C   0  0  1  0  0  0  0  0  0  0  0  0
   23.7880  -12.5500  -15.7673 C   0  0  0  0  0  0  0  0  0  0  0  0
   24.8044  -13.8526  -15.0460 S   0  0  0  0  0  0  0  0  0  0  0  0
   21.7164  -11.2985  -15.5822 C   0  0  0  0  0  0  0  0  0  0  0  0
   21.2740  -11.1065  -16.7583 O   0  0  0  0  0  0  0  0  0  0  0  0
   21.5928  -10.2630  -14.6319 N   0  0  0  0  0  0  0  0  0  0  0  0
   20.8661   -9.0666  -15.0156 C   0  0  1  0  0  0  0  0  0  0  0  0
   20.0617   -8.5123  -13.8637 C   0  0  0  0  0  0  0  0  0  0  0  0
   19.3826   -7.2438  -14.2270 C   0  0  0  0  0  0  0  0  0  0  0  0
   19.8215   -6.1770  -13.7748 O   0  0  0  0  0  0  0  0  0  0  0  0
   21.8300   -7.9909  -15.4135 C   0  0  0  0  0  0  0  0  0  0  0  0
   21.3543   -6.9735  -15.9384 O   0  0  0  0  0  0  0  0  0  0  0  0
   18.2800   -7.2502  -15.0551 O   0  0  0  0  0  0  0  0  0  0  0  0
   23.1776   -8.1198  -15.2092 O   0  0  0  0  0  0  0  0  0  0  0  0
  1  2  1  0
  3  2  1  0
  4  3  1  0
  4  5  1  0
  5  1  1  0
  5  6  1  1
  7  6  2  0
  8  6  1  0
  9  8  1  0
  9 12  1  0
  9 10  1  6
 11 10  1  0
 12 14  1  0
 13 12  2  0
 14 15  1  0
 15 16  1  1
 15 19  1  0
 16 17  1  0
 17 21  1  0
 17 18  2  0
 19 20  2  0
 19 22  1  0
M  END
$$$$
