PVM.pdb
     RDKit          3D

 23 23  0  0  1  0  0  0  0  0999 V2000
   20.0495  -12.4078  -18.4922 N   0  0  0  0  0  0  0  0  0  0  0  0
   20.6519  -13.7356  -18.3561 C   0  0  0  0  0  0  0  0  0  0  0  0
   19.5062  -14.5397  -17.8110 C   0  0  0  0  0  0  0  0  0  0  0  0
   18.7478  -13.5938  -16.9124 C   0  0  0  0  0  0  0  0  0  0  0  0
   19.2505  -12.2397  -17.2800 C   0  0  1  0  0  0  0  0  0  0  0  0
   20.0393  -11.5834  -16.2065 C   0  0  0  0  0  0  0  0  0  0  0  0
   19.5429  -11.4578  -15.0419 O   0  0  0  0  0  0  0  0  0  0  0  0
   23.5470  -12.3644  -14.7820 C   0  0  0  0  0  0  0  0  0  0  0  0
   23.4518  -10.9333  -15.1872 C   0  0  1  0  0  0  0  0  0  0  0  0
   24.2040  -10.7445  -16.4645 C   0  0  0  0  0  0  0  0  0  0  0  0
   22.0781  -10.3829  -15.3057 C   0  0  2  0  0  0  0  0  0  0  0  0
   21.3264  -11.0717  -16.3656 N   0  0  0  0  0  0  0  0  0  0  0  0
   22.1374   -8.9382  -15.6296 C   0  0  0  0  0  0  0  0  0  0  0  0
   22.1206   -8.5952  -16.8795 O   0  0  0  0  0  0  0  0  0  0  0  0
   17.3729   -5.3481  -15.8575 C   0  0  0  0  0  0  0  0  0  0  0  0
   18.6742   -4.7804  -16.9918 S   0  0  0  0  0  0  0  0  0  0  0  0
   20.3082   -4.9685  -16.2793 C   0  0  0  0  0  0  0  0  0  0  0  0
   20.7308   -6.3451  -15.9340 C   0  0  0  0  0  0  0  0  0  0  0  0
   22.0377   -6.4449  -15.2553 C   0  0  2  0  0  0  0  0  0  0  0  0
   22.2052   -7.8490  -14.7571 N   0  0  0  0  0  0  0  0  0  0  0  0
   22.1698   -5.6177  -14.0654 C   0  0  0  0  0  0  0  0  0  0  0  0
   22.0981   -6.0115  -12.8750 O   0  0  0  0  0  0  0  0  0  0  0  0
   22.4046   -4.2235  -14.1670 O   0  0  0  0  0  0  0  0  0  0  0  0
  1  5  1  0
  1  2  1  0
  2  3  1  0
  4  3  1  0
  5  4  1  0
  5  6  1  1
  7  6  2  0
  9  8  1  6
  9 10  1  0
  9 11  1  0
 11 12  1  6
 12  6  1  0
 13 20  1  0
 13 11  1  0
 14 13  2  0
 15 16  1  0
 16 17  1  0
 19 18  1  1
 18 17  1  0
 19 20  1  0
 19 21  1  0
 21 23  1  0
 22 21  2  0
M  END
$$$$
