PVM.pdb
     RDKit          3D

 23 23  0  0  1  0  0  0  0  0999 V2000
   22.3828  -20.9292  -13.8311 N   0  0  0  0  0  0  0  0  0  0  0  0
   21.2245  -21.6337  -13.2778 C   0  0  0  0  0  0  0  0  0  0  0  0
   20.4973  -20.5250  -12.5721 C   0  0  0  0  0  0  0  0  0  0  0  0
   21.5778  -19.6203  -12.0324 C   0  0  0  0  0  0  0  0  0  0  0  0
   22.8112  -20.0286  -12.7626 C   0  0  1  0  0  0  0  0  0  0  0  0
   23.8321  -20.6728  -11.8976 C   0  0  0  0  0  0  0  0  0  0  0  0
   23.6339  -21.8470  -11.4501 O   0  0  0  0  0  0  0  0  0  0  0  0
   28.5227  -21.5229  -11.0461 C   0  0  0  0  0  0  0  0  0  0  0  0
   27.3412  -20.8538  -11.6606 C   0  0  1  0  0  0  0  0  0  0  0  0
   27.0444  -21.5098  -12.9700 C   0  0  0  0  0  0  0  0  0  0  0  0
   26.1195  -20.7943  -10.8193 C   0  0  2  0  0  0  0  0  0  0  0  0
   25.0367  -20.0836  -11.5160 N   0  0  0  0  0  0  0  0  0  0  0  0
   26.4116  -20.0859   -9.5511 C   0  0  0  0  0  0  0  0  0  0  0  0
   26.1664  -18.8143   -9.4957 O   0  0  0  0  0  0  0  0  0  0  0  0
   25.4939  -21.3604   -3.2449 C   0  0  0  0  0  0  0  0  0  0  0  0
   27.0703  -20.4599   -3.1655 S   0  0  0  0  0  0  0  0  0  0  0  0
   27.4853  -19.7028   -4.7364 C   0  0  0  0  0  0  0  0  0  0  0  0
   27.0289  -20.4060   -5.9570 C   0  0  0  0  0  0  0  0  0  0  0  0
   27.3081  -19.7022   -7.2240 C   0  0  2  0  0  0  0  0  0  0  0  0
   26.9254  -20.6035   -8.3593 N   0  0  0  0  0  0  0  0  0  0  0  0
   28.7127  -19.4006   -7.4554 C   0  0  0  0  0  0  0  0  0  0  0  0
   29.5240  -20.0989   -8.1123 O   0  0  0  0  0  0  0  0  0  0  0  0
   29.3049  -18.2263   -6.9268 O   0  0  0  0  0  0  0  0  0  0  0  0
  1  5  1  0
  1  2  1  0
  2  3  1  0
  4  3  1  0
  5  4  1  0
  5  6  1  1
  7  6  2  0
  9  8  1  1
  9 10  1  0
  9 11  1  0
 11 12  1  6
 12  6  1  0
 13 20  1  0
 13 11  1  0
 14 13  2  0
 15 16  1  0
 16 17  1  0
 19 18  1  1
 18 17  1  0
 19 20  1  0
 19 21  1  0
 21 23  1  0
 22 21  2  0
M  END
$$$$
