PVM.pdb
     RDKit          3D

 23 23  0  0  1  0  0  0  0  0999 V2000
   19.0519  -13.0445  -16.9994 N   0  0  0  0  0  0  0  0  0  0  0  0
   18.4824  -13.4941  -15.7275 C   0  0  0  0  0  0  0  0  0  0  0  0
   17.1512  -12.7985  -15.7225 C   0  0  0  0  0  0  0  0  0  0  0  0
   17.3940  -11.4692  -16.3942 C   0  0  0  0  0  0  0  0  0  0  0  0
   18.7109  -11.6253  -17.0747 C   0  0  1  0  0  0  0  0  0  0  0  0
   19.7878  -10.7850  -16.4921 C   0  0  0  0  0  0  0  0  0  0  0  0
   20.4926  -11.2335  -15.5327 O   0  0  0  0  0  0  0  0  0  0  0  0
   23.2186   -7.3199  -17.1101 C   0  0  0  0  0  0  0  0  0  0  0  0
   22.0632   -8.1718  -17.5109 C   0  0  1  0  0  0  0  0  0  0  0  0
   22.5616   -9.2783  -18.3828 C   0  0  0  0  0  0  0  0  0  0  0  0
   21.2414   -8.7142  -16.4000 C   0  0  2  0  0  0  0  0  0  0  0  0
   20.1094   -9.4971  -16.9183 N   0  0  0  0  0  0  0  0  0  0  0  0
   20.7108   -7.6046  -15.5736 C   0  0  0  0  0  0  0  0  0  0  0  0
   19.4619   -7.2871  -15.7136 O   0  0  0  0  0  0  0  0  0  0  0  0
   17.1665   -5.9744   -9.4408 C   0  0  0  0  0  0  0  0  0  0  0  0
   18.0144   -7.0086  -10.6711 S   0  0  0  0  0  0  0  0  0  0  0  0
   19.0725   -6.0369  -11.7433 C   0  0  0  0  0  0  0  0  0  0  0  0
   19.7709   -6.7639  -12.8280 C   0  0  0  0  0  0  0  0  0  0  0  0
   20.6243   -5.9254  -13.6924 C   0  0  2  0  0  0  0  0  0  0  0  0
   21.3781   -6.8239  -14.6263 N   0  0  0  0  0  0  0  0  0  0  0  0
   21.6581   -5.1815  -12.9885 C   0  0  0  0  0  0  0  0  0  0  0  0
   22.8506   -5.5399  -12.8252 O   0  0  0  0  0  0  0  0  0  0  0  0
   21.3804   -3.9217  -12.4012 O   0  0  0  0  0  0  0  0  0  0  0  0
  1  5  1  0
  1  2  1  0
  2  3  1  0
  4  3  1  0
  5  4  1  0
  5  6  1  1
  7  6  2  0
  9  8  1  1
  9 10  1  0
  9 11  1  0
 11 12  1  6
 12  6  1  0
 13 20  1  0
 13 11  1  0
 14 13  2  0
 15 16  1  0
 16 17  1  0
 19 18  1  1
 18 17  1  0
 19 20  1  0
 19 21  1  0
 21 23  1  0
 22 21  2  0
M  END
$$$$
