PVM.pdb
     RDKit          3D

 23 23  0  0  1  0  0  0  0  0999 V2000
   22.2840  -21.4099  -13.9090 N   0  0  0  0  0  0  0  0  0  0  0  0
   21.1369  -21.9182  -13.1540 C   0  0  0  0  0  0  0  0  0  0  0  0
   20.5691  -20.6566  -12.5690 C   0  0  0  0  0  0  0  0  0  0  0  0
   21.7630  -19.7824  -12.2730 C   0  0  0  0  0  0  0  0  0  0  0  0
   22.8833  -20.4030  -13.0354 C   0  0  1  0  0  0  0  0  0  0  0  0
   23.9340  -21.0008  -12.1729 C   0  0  0  0  0  0  0  0  0  0  0  0
   23.8033  -22.1930  -11.7487 O   0  0  0  0  0  0  0  0  0  0  0  0
   28.6719  -21.3153  -10.9192 C   0  0  0  0  0  0  0  0  0  0  0  0
   27.4855  -20.8089  -11.6657 C   0  0  1  0  0  0  0  0  0  0  0  0
   27.4658  -21.4383  -13.0209 C   0  0  0  0  0  0  0  0  0  0  0  0
   26.1736  -20.9813  -10.9925 C   0  0  2  0  0  0  0  0  0  0  0  0
   25.0978  -20.3475  -11.7693 N   0  0  0  0  0  0  0  0  0  0  0  0
   26.2108  -20.3658   -9.6452 C   0  0  0  0  0  0  0  0  0  0  0  0
   25.7295  -19.1697   -9.5109 O   0  0  0  0  0  0  0  0  0  0  0  0
   27.3173  -22.7497   -3.2909 C   0  0  0  0  0  0  0  0  0  0  0  0
   28.2309  -21.1920   -3.4939 S   0  0  0  0  0  0  0  0  0  0  0  0
   27.5807  -20.2090   -4.8445 C   0  0  0  0  0  0  0  0  0  0  0  0
   27.3504  -20.9095   -6.1287 C   0  0  0  0  0  0  0  0  0  0  0  0
   26.8548  -20.0551   -7.2254 C   0  0  2  0  0  0  0  0  0  0  0  0
   26.6996  -20.9035   -8.4518 N   0  0  0  0  0  0  0  0  0  0  0  0
   27.7654  -18.9942   -7.6289 C   0  0  0  0  0  0  0  0  0  0  0  0
   28.7740  -19.1213   -8.3664 O   0  0  0  0  0  0  0  0  0  0  0  0
   27.5698  -17.6590   -7.1952 O   0  0  0  0  0  0  0  0  0  0  0  0
  1  5  1  0
  1  2  1  0
  2  3  1  0
  4  3  1  0
  5  4  1  0
  5  6  1  1
  7  6  2  0
  9  8  1  1
  9 10  1  0
  9 11  1  0
 11 12  1  6
 12  6  1  0
 13 20  1  0
 13 11  1  0
 14 13  2  0
 15 16  1  0
 16 17  1  0
 19 18  1  1
 18 17  1  0
 19 20  1  0
 19 21  1  0
 21 23  1  0
 22 21  2  0
M  END
$$$$
