PVM.pdb
     RDKit          3D

 23 23  0  0  1  0  0  0  0  0999 V2000
   26.6478  -17.4225  -16.6691 N   0  0  0  0  0  0  0  0  0  0  0  0
   27.8176  -17.6537  -17.5191 C   0  0  0  0  0  0  0  0  0  0  0  0
   27.1839  -18.1461  -18.7887 C   0  0  0  0  0  0  0  0  0  0  0  0
   25.9846  -18.9499  -18.3495 C   0  0  0  0  0  0  0  0  0  0  0  0
   25.7748  -18.5665  -16.9246 C   0  0  1  0  0  0  0  0  0  0  0  0
   26.0412  -19.6674  -15.9642 C   0  0  0  0  0  0  0  0  0  0  0  0
   25.4837  -20.7992  -16.1271 O   0  0  0  0  0  0  0  0  0  0  0  0
   29.2520  -21.4712  -14.6672 C   0  0  0  0  0  0  0  0  0  0  0  0
   28.4622  -20.8803  -13.5500 C   0  0  1  0  0  0  0  0  0  0  0  0
   29.1410  -19.6312  -13.0895 C   0  0  0  0  0  0  0  0  0  0  0  0
   27.0291  -20.6189  -13.8363 C   0  0  2  0  0  0  0  0  0  0  0  0
   26.8806  -19.5690  -14.8553 N   0  0  0  0  0  0  0  0  0  0  0  0
   26.3374  -20.1812  -12.6012 C   0  0  0  0  0  0  0  0  0  0  0  0
   26.3512  -18.9174  -12.3132 O   0  0  0  0  0  0  0  0  0  0  0  0
   20.3289  -19.5030  -11.1955 C   0  0  0  0  0  0  0  0  0  0  0  0
   20.9414  -20.1371   -9.6065 S   0  0  0  0  0  0  0  0  0  0  0  0
   22.7231  -19.9921   -9.4730 C   0  0  0  0  0  0  0  0  0  0  0  0
   23.5199  -20.4800  -10.6218 C   0  0  0  0  0  0  0  0  0  0  0  0
   24.9808  -20.3254  -10.4787 C   0  0  2  0  0  0  0  0  0  0  0  0
   25.6412  -20.9544  -11.6686 N   0  0  0  0  0  0  0  0  0  0  0  0
   25.5562  -21.0165   -9.3346 C   0  0  0  0  0  0  0  0  0  0  0  0
   26.0329  -22.1785   -9.3314 O   0  0  0  0  0  0  0  0  0  0  0  0
   25.6273  -20.3927   -8.0638 O   0  0  0  0  0  0  0  0  0  0  0  0
  1  5  1  0
  1  2  1  0
  2  3  1  0
  4  3  1  0
  5  4  1  0
  5  6  1  1
  7  6  2  0
  9  8  1  6
  9 10  1  0
  9 11  1  0
 11 12  1  6
 12  6  1  0
 13 20  1  0
 13 11  1  0
 14 13  2  0
 15 16  1  0
 16 17  1  0
 19 18  1  6
 18 17  1  0
 19 20  1  0
 19 21  1  0
 21 23  1  0
 22 21  2  0
M  END
$$$$
