PVM.pdb
     RDKit          3D

 23 23  0  0  1  0  0  0  0  0999 V2000
   27.7429  -20.5102  -15.6808 N   0  0  0  0  0  0  0  0  0  0  0  0
   27.1103  -19.5966  -16.6344 C   0  0  0  0  0  0  0  0  0  0  0  0
   28.1913  -18.5757  -16.8472 C   0  0  0  0  0  0  0  0  0  0  0  0
   28.8831  -18.4442  -15.5125 C   0  0  0  0  0  0  0  0  0  0  0  0
   28.4358  -19.6356  -14.7367 C   0  0  1  0  0  0  0  0  0  0  0  0
   27.5668  -19.3031  -13.5793 C   0  0  0  0  0  0  0  0  0  0  0  0
   27.7504  -18.2188  -12.9398 O   0  0  0  0  0  0  0  0  0  0  0  0
   23.6661  -19.1723  -13.5818 C   0  0  0  0  0  0  0  0  0  0  0  0
   24.1887  -19.9785  -12.4424 C   0  0  1  0  0  0  0  0  0  0  0  0
   24.0039  -21.4281  -12.7546 C   0  0  0  0  0  0  0  0  0  0  0  0
   25.5932  -19.7062  -12.0458 C   0  0  2  0  0  0  0  0  0  0  0  0
   26.5258  -20.1038  -13.1110 N   0  0  0  0  0  0  0  0  0  0  0  0
   25.9281  -20.4627  -10.8165 C   0  0  0  0  0  0  0  0  0  0  0  0
   26.2120  -21.7217  -10.9370 O   0  0  0  0  0  0  0  0  0  0  0  0
   28.7612  -18.4167   -5.3634 C   0  0  0  0  0  0  0  0  0  0  0  0
   28.3349  -20.1098   -4.8597 S   0  0  0  0  0  0  0  0  0  0  0  0
   27.3720  -20.9556   -6.1129 C   0  0  0  0  0  0  0  0  0  0  0  0
   27.0316  -20.1810   -7.3282 C   0  0  0  0  0  0  0  0  0  0  0  0
   26.3053  -20.9371   -8.3672 C   0  0  2  0  0  0  0  0  0  0  0  0
   25.9922  -20.0041   -9.4982 N   0  0  0  0  0  0  0  0  0  0  0  0
   25.0099  -21.4525   -7.9504 C   0  0  0  0  0  0  0  0  0  0  0  0
   23.8886  -20.9686   -8.2433 O   0  0  0  0  0  0  0  0  0  0  0  0
   24.9109  -22.6084   -7.1360 O   0  0  0  0  0  0  0  0  0  0  0  0
  1  5  1  0
  1  2  1  0
  2  3  1  0
  4  3  1  0
  5  4  1  0
  5  6  1  1
  7  6  2  0
  9  8  1  6
  9 10  1  0
  9 11  1  0
 11 12  1  6
 12  6  1  0
 13 20  1  0
 13 11  1  0
 14 13  2  0
 15 16  1  0
 16 17  1  0
 19 18  1  1
 18 17  1  0
 19 20  1  0
 19 21  1  0
 21 23  1  0
 22 21  2  0
M  END
$$$$
