PVM.pdb
     RDKit          3D

 23 23  0  0  1  0  0  0  0  0999 V2000
   27.7296  -19.7793  -16.3283 N   0  0  0  0  0  0  0  0  0  0  0  0
   29.0032  -19.1132  -16.0481 C   0  0  0  0  0  0  0  0  0  0  0  0
   29.8671  -20.2659  -15.6226 C   0  0  0  0  0  0  0  0  0  0  0  0
   28.9448  -21.2022  -14.8809 C   0  0  0  0  0  0  0  0  0  0  0  0
   27.5730  -20.7463  -15.2437 C   0  0  1  0  0  0  0  0  0  0  0  0
   26.8189  -20.1580  -14.1076 C   0  0  0  0  0  0  0  0  0  0  0  0
   26.8847  -18.9076  -13.8831 O   0  0  0  0  0  0  0  0  0  0  0  0
   22.6785  -19.9939  -11.6360 C   0  0  0  0  0  0  0  0  0  0  0  0
   23.6909  -20.5350  -12.5864 C   0  0  1  0  0  0  0  0  0  0  0  0
   23.3804  -20.0301  -13.9582 C   0  0  0  0  0  0  0  0  0  0  0  0
   25.1104  -20.2689  -12.2427 C   0  0  2  0  0  0  0  0  0  0  0  0
   26.0130  -20.8811  -13.2292 N   0  0  0  0  0  0  0  0  0  0  0  0
   25.4212  -20.8274  -10.9058 C   0  0  0  0  0  0  0  0  0  0  0  0
   25.5076  -22.1156  -10.7914 O   0  0  0  0  0  0  0  0  0  0  0  0
   29.5063  -18.3274   -5.8181 C   0  0  0  0  0  0  0  0  0  0  0  0
   28.2987  -19.6207   -5.4041 S   0  0  0  0  0  0  0  0  0  0  0  0
   27.6915  -20.4588   -6.8677 C   0  0  0  0  0  0  0  0  0  0  0  0
   26.4010  -19.9868   -7.4195 C   0  0  0  0  0  0  0  0  0  0  0  0
   25.7783  -20.8879   -8.4088 C   0  0  2  0  0  0  0  0  0  0  0  0
   25.6497  -20.1481   -9.7064 N   0  0  0  0  0  0  0  0  0  0  0  0
   24.4199  -21.2986   -8.0870 C   0  0  0  0  0  0  0  0  0  0  0  0
   23.3636  -20.7397   -8.4732 O   0  0  0  0  0  0  0  0  0  0  0  0
   24.1727  -22.4276   -7.2664 O   0  0  0  0  0  0  0  0  0  0  0  0
  1  5  1  0
  1  2  1  0
  2  3  1  0
  4  3  1  0
  5  4  1  0
  5  6  1  1
  7  6  2  0
  9  8  1  1
  9 10  1  0
  9 11  1  0
 11 12  1  6
 12  6  1  0
 13 20  1  0
 13 11  1  0
 14 13  2  0
 15 16  1  0
 16 17  1  0
 19 18  1  1
 18 17  1  0
 19 20  1  0
 19 21  1  0
 21 23  1  0
 22 21  2  0
M  END
$$$$
