PVM.pdb
     RDKit          3D

 23 23  0  0  1  0  0  0  0  0999 V2000
   18.7303  -12.2793  -18.5099 N   0  0  0  0  0  0  0  0  0  0  0  0
   19.0991  -11.8378  -19.8565 C   0  0  0  0  0  0  0  0  0  0  0  0
   20.5975  -11.9311  -19.8121 C   0  0  0  0  0  0  0  0  0  0  0  0
   20.9786  -11.5513  -18.4022 C   0  0  0  0  0  0  0  0  0  0  0  0
   19.7059  -11.6369  -17.6314 C   0  0  1  0  0  0  0  0  0  0  0  0
   19.2088  -10.3227  -17.1508 C   0  0  0  0  0  0  0  0  0  0  0  0
   18.5839   -9.5519  -17.9469 O   0  0  0  0  0  0  0  0  0  0  0  0
   17.5543   -7.4903  -13.4910 C   0  0  0  0  0  0  0  0  0  0  0  0
   17.9708   -8.7356  -14.1959 C   0  0  1  0  0  0  0  0  0  0  0  0
   16.7479   -9.5125  -14.5620 C   0  0  0  0  0  0  0  0  0  0  0  0
   18.8432   -8.5484  -15.3823 C   0  0  2  0  0  0  0  0  0  0  0  0
   19.3715   -9.8372  -15.8540 N   0  0  0  0  0  0  0  0  0  0  0  0
   19.9833   -7.6665  -15.0387 C   0  0  0  0  0  0  0  0  0  0  0  0
   20.9660   -8.1791  -14.3664 O   0  0  0  0  0  0  0  0  0  0  0  0
   25.7165   -2.9903  -17.2161 C   0  0  0  0  0  0  0  0  0  0  0  0
   24.1644   -3.8644  -17.5753 S   0  0  0  0  0  0  0  0  0  0  0  0
   23.3656   -4.4465  -16.0799 C   0  0  0  0  0  0  0  0  0  0  0  0
   22.1365   -5.2543  -16.2514 C   0  0  0  0  0  0  0  0  0  0  0  0
   21.4425   -5.6085  -14.9978 C   0  0  2  0  0  0  0  0  0  0  0  0
   20.1679   -6.3164  -15.3472 N   0  0  0  0  0  0  0  0  0  0  0  0
   21.0194   -4.4711  -14.1947 C   0  0  0  0  0  0  0  0  0  0  0  0
   21.7140   -3.8640  -13.3424 O   0  0  0  0  0  0  0  0  0  0  0  0
   19.7154   -3.9305  -14.3229 O   0  0  0  0  0  0  0  0  0  0  0  0
  1  5  1  0
  1  2  1  0
  2  3  1  0
  4  3  1  0
  5  4  1  0
  5  6  1  6
  7  6  2  0
  9  8  1  6
  9 10  1  0
  9 11  1  0
 11 12  1  1
 12  6  1  0
 13 20  1  0
 13 11  1  0
 14 13  2  0
 15 16  1  0
 16 17  1  0
 19 18  1  6
 18 17  1  0
 19 20  1  0
 19 21  1  0
 21 23  1  0
 22 21  2  0
M  END
$$$$
