PVM.pdb
     RDKit          3D

 23 23  0  0  1  0  0  0  0  0999 V2000
  -39.1562  -80.4004    8.7953 N   0  0  0  0  0  0  0  0  0  0  0  0
  -39.8670  -79.4177    7.9748 C   0  0  0  0  0  0  0  0  0  0  0  0
  -40.9211  -80.2655    7.3221 C   0  0  0  0  0  0  0  0  0  0  0  0
  -40.2668  -81.6052    7.0889 C   0  0  0  0  0  0  0  0  0  0  0  0
  -39.0446  -81.5816    7.9417 C   0  0  1  0  0  0  0  0  0  0  0  0
  -37.7768  -81.5647    7.1687 C   0  0  0  0  0  0  0  0  0  0  0  0
  -37.6072  -82.3853    6.2115 O   0  0  0  0  0  0  0  0  0  0  0  0
  -36.6532  -76.9426    7.9776 C   0  0  0  0  0  0  0  0  0  0  0  0
  -36.5156  -78.4078    8.2129 C   0  0  1  0  0  0  0  0  0  0  0  0
  -37.4503  -78.8086    9.3077 C   0  0  0  0  0  0  0  0  0  0  0  0
  -36.7041  -79.2761    7.0236 C   0  0  2  0  0  0  0  0  0  0  0  0
  -36.7125  -80.6960    7.4064 N   0  0  0  0  0  0  0  0  0  0  0  0
  -35.6055  -79.0534    6.0545 C   0  0  0  0  0  0  0  0  0  0  0  0
  -34.3887  -79.2278    6.4659 O   0  0  0  0  0  0  0  0  0  0  0  0
  -37.2667  -79.7823   -0.8793 C   0  0  0  0  0  0  0  0  0  0  0  0
  -36.1120  -78.6360   -0.0703 S   0  0  0  0  0  0  0  0  0  0  0  0
  -35.0780  -79.4701    1.1331 C   0  0  0  0  0  0  0  0  0  0  0  0
  -34.8930  -78.7930    2.4370 C   0  0  0  0  0  0  0  0  0  0  0  0
  -35.2528  -79.6029    3.6173 C   0  0  2  0  0  0  0  0  0  0  0  0
  -35.6875  -78.6753    4.7120 N   0  0  0  0  0  0  0  0  0  0  0  0
  -34.1513  -80.3580    4.1954 C   0  0  0  0  0  0  0  0  0  0  0  0
  -32.9359  -80.2426    3.9005 O   0  0  0  0  0  0  0  0  0  0  0  0
  -34.3811  -81.3368    5.1944 O   0  0  0  0  0  0  0  0  0  0  0  0
  1  5  1  0
  1  2  1  0
  2  3  1  0
  4  3  1  0
  5  4  1  0
  5  6  1  6
  7  6  2  0
  9  8  1  6
  9 10  1  0
  9 11  1  0
 11 12  1  1
 12  6  1  0
 13 20  1  0
 13 11  1  0
 14 13  2  0
 15 16  1  0
 16 17  1  0
 19 18  1  6
 18 17  1  0
 19 20  1  0
 19 21  1  0
 21 23  1  0
 22 21  2  0
M  END
$$$$
