PVM.pdb
     RDKit          3D

 23 23  0  0  1  0  0  0  0  0999 V2000
   20.8514  -13.5408  -18.4471 N   0  0  0  0  0  0  0  0  0  0  0  0
   21.6204  -13.1274  -19.6227 C   0  0  0  0  0  0  0  0  0  0  0  0
   22.9895  -12.9235  -19.0396 C   0  0  0  0  0  0  0  0  0  0  0  0
   22.7543  -12.3828  -17.6505 C   0  0  0  0  0  0  0  0  0  0  0  0
   21.3166  -12.6630  -17.3751 C   0  0  1  0  0  0  0  0  0  0  0  0
   20.4770  -11.4416  -17.2820 C   0  0  0  0  0  0  0  0  0  0  0  0
   20.0838  -10.8605  -18.3431 O   0  0  0  0  0  0  0  0  0  0  0  0
   17.9129  -10.7487  -14.1293 C   0  0  0  0  0  0  0  0  0  0  0  0
   17.8760  -10.0146  -15.4258 C   0  0  1  0  0  0  0  0  0  0  0  0
   17.0360   -8.7898  -15.2609 C   0  0  0  0  0  0  0  0  0  0  0  0
   19.1949   -9.6663  -16.0116 C   0  0  2  0  0  0  0  0  0  0  0  0
   20.0640  -10.8501  -16.0889 N   0  0  0  0  0  0  0  0  0  0  0  0
   19.8647   -8.6408  -15.1777 C   0  0  0  0  0  0  0  0  0  0  0  0
   20.7603   -9.0387  -14.3293 O   0  0  0  0  0  0  0  0  0  0  0  0
   24.1117   -5.1763  -17.9629 C   0  0  0  0  0  0  0  0  0  0  0  0
   24.4765   -5.5766  -16.2283 S   0  0  0  0  0  0  0  0  0  0  0  0
   23.0100   -5.4884  -15.2013 C   0  0  0  0  0  0  0  0  0  0  0  0
   21.9045   -6.4150  -15.5361 C   0  0  0  0  0  0  0  0  0  0  0  0
   20.7283   -6.3298  -14.6486 C   0  0  2  0  0  0  0  0  0  0  0  0
   19.6729   -7.2568  -15.1726 N   0  0  0  0  0  0  0  0  0  0  0  0
   20.0842   -5.0253  -14.6161 C   0  0  0  0  0  0  0  0  0  0  0  0
   20.2847   -4.1186  -13.7705 O   0  0  0  0  0  0  0  0  0  0  0  0
   19.1270   -4.6582  -15.5950 O   0  0  0  0  0  0  0  0  0  0  0  0
  1  5  1  0
  1  2  1  0
  2  3  1  0
  4  3  1  0
  5  4  1  0
  5  6  1  6
  7  6  2  0
  9  8  1  1
  9 10  1  0
  9 11  1  0
 11 12  1  1
 12  6  1  0
 13 20  1  0
 13 11  1  0
 14 13  2  0
 15 16  1  0
 16 17  1  0
 19 18  1  6
 18 17  1  0
 19 20  1  0
 19 21  1  0
 21 23  1  0
 22 21  2  0
M  END
$$$$
