PVM.pdb
     RDKit          3D

 23 23  0  0  1  0  0  0  0  0999 V2000
   39.2452  -11.1702  -14.7733 N   0  0  0  0  0  0  0  0  0  0  0  0
   38.9161  -12.4803  -15.3386 C   0  0  0  0  0  0  0  0  0  0  0  0
   39.2154  -12.2717  -16.7956 C   0  0  0  0  0  0  0  0  0  0  0  0
   38.8339  -10.8395  -17.0794 C   0  0  0  0  0  0  0  0  0  0  0  0
   38.7089  -10.2088  -15.7348 C   0  0  1  0  0  0  0  0  0  0  0  0
   37.3192   -9.8203  -15.3839 C   0  0  0  0  0  0  0  0  0  0  0  0
   36.6087  -10.5906  -14.6626 O   0  0  0  0  0  0  0  0  0  0  0  0
   34.2203   -6.1282  -14.4030 C   0  0  0  0  0  0  0  0  0  0  0  0
   35.5080   -6.8173  -14.7000 C   0  0  1  0  0  0  0  0  0  0  0  0
   36.3343   -6.8492  -13.4554 C   0  0  0  0  0  0  0  0  0  0  0  0
   35.3958   -8.1769  -15.2855 C   0  0  2  0  0  0  0  0  0  0  0  0
   36.6973   -8.6402  -15.7897 N   0  0  0  0  0  0  0  0  0  0  0  0
   34.4293   -8.1668  -16.4085 C   0  0  0  0  0  0  0  0  0  0  0  0
   34.7773   -7.5666  -17.5034 O   0  0  0  0  0  0  0  0  0  0  0  0
   28.1830  -11.2428  -17.8062 C   0  0  0  0  0  0  0  0  0  0  0  0
   29.4741  -11.3097  -19.0831 S   0  0  0  0  0  0  0  0  0  0  0  0
   30.5870   -9.9083  -18.9798 C   0  0  0  0  0  0  0  0  0  0  0  0
   31.4734   -9.8464  -17.7952 C   0  0  0  0  0  0  0  0  0  0  0  0
   32.3227   -8.6420  -17.7134 C   0  0  2  0  0  0  0  0  0  0  0  0
   33.1536   -8.7336  -16.4689 N   0  0  0  0  0  0  0  0  0  0  0  0
   31.5923   -7.3913  -17.5730 C   0  0  0  0  0  0  0  0  0  0  0  0
   31.2746   -6.6081  -18.5020 O   0  0  0  0  0  0  0  0  0  0  0  0
   31.1579   -6.9373  -16.3024 O   0  0  0  0  0  0  0  0  0  0  0  0
  1  5  1  0
  1  2  1  0
  2  3  1  0
  4  3  1  0
  5  4  1  0
  5  6  1  1
  7  6  2  0
  9  8  1  1
  9 10  1  0
  9 11  1  0
 11 12  1  6
 12  6  1  0
 13 20  1  0
 13 11  1  0
 14 13  2  0
 15 16  1  0
 16 17  1  0
 19 18  1  1
 18 17  1  0
 19 20  1  0
 19 21  1  0
 21 23  1  0
 22 21  2  0
M  END
$$$$
