PVM.pdb
     RDKit          3D

 23 23  0  0  1  0  0  0  0  0999 V2000
   27.5033  -20.1138  -15.8706 N   0  0  0  0  0  0  0  0  0  0  0  0
   27.7325  -18.7748  -16.4173 C   0  0  0  0  0  0  0  0  0  0  0  0
   29.1613  -18.5232  -16.0283 C   0  0  0  0  0  0  0  0  0  0  0  0
   29.3325  -19.1924  -14.6866 C   0  0  0  0  0  0  0  0  0  0  0  0
   28.1515  -20.0929  -14.5608 C   0  0  1  0  0  0  0  0  0  0  0  0
   27.1979  -19.6829  -13.4988 C   0  0  0  0  0  0  0  0  0  0  0  0
   27.2146  -18.4895  -13.0584 O   0  0  0  0  0  0  0  0  0  0  0  0
   22.9582  -20.2311  -11.0355 C   0  0  0  0  0  0  0  0  0  0  0  0
   23.9576  -20.5541  -12.0930 C   0  0  1  0  0  0  0  0  0  0  0  0
   23.4774  -19.9978  -13.3941 C   0  0  0  0  0  0  0  0  0  0  0  0
   25.3510  -20.1188  -11.8231 C   0  0  2  0  0  0  0  0  0  0  0  0
   26.2477  -20.5210  -12.9170 N   0  0  0  0  0  0  0  0  0  0  0  0
   25.8373  -20.7289  -10.5634 C   0  0  0  0  0  0  0  0  0  0  0  0
   26.2120  -21.9694  -10.5950 O   0  0  0  0  0  0  0  0  0  0  0  0
   29.1017  -18.2885   -5.5217 C   0  0  0  0  0  0  0  0  0  0  0  0
   28.3638  -19.7403   -4.7156 S   0  0  0  0  0  0  0  0  0  0  0  0
   27.4116  -20.7302   -5.8674 C   0  0  0  0  0  0  0  0  0  0  0  0
   27.1404  -20.1326   -7.1949 C   0  0  0  0  0  0  0  0  0  0  0  0
   26.3224  -20.9648   -8.0985 C   0  0  2  0  0  0  0  0  0  0  0  0
   25.9632  -20.1441   -9.3007 N   0  0  0  0  0  0  0  0  0  0  0  0
   25.0424  -21.3836   -7.5474 C   0  0  0  0  0  0  0  0  0  0  0  0
   23.9229  -20.8718   -7.7967 O   0  0  0  0  0  0  0  0  0  0  0  0
   24.9582  -22.4653   -6.6352 O   0  0  0  0  0  0  0  0  0  0  0  0
  1  5  1  0
  1  2  1  0
  2  3  1  0
  4  3  1  0
  5  4  1  0
  5  6  1  1
  7  6  2  0
  9  8  1  1
  9 10  1  0
  9 11  1  0
 11 12  1  6
 12  6  1  0
 13 20  1  0
 13 11  1  0
 14 13  2  0
 15 16  1  0
 16 17  1  0
 19 18  1  1
 18 17  1  0
 19 20  1  0
 19 21  1  0
 21 23  1  0
 22 21  2  0
M  END
$$$$
