NGF.pdb
     RDKit          3D

 24 24  0  0  1  0  0  0  0  0999 V2000
   21.1162  -19.1923  -16.7945 N   0  0  0  0  0  0  0  0  0  0  0  0
   21.6778  -19.7990  -15.6574 C   0  0  0  0  0  0  0  0  0  0  0  0
   20.9048  -20.3219  -14.7942 O   0  0  0  0  0  0  0  0  0  0  0  0
   23.1417  -19.8537  -15.4235 C   0  0  0  0  0  0  0  0  0  0  0  0
   23.4238  -19.5204  -13.9897 C   0  0  2  0  0  0  0  0  0  0  0  0
   22.9442  -18.1795  -13.7439 N   0  0  0  0  0  0  0  0  0  0  0  0
   24.8884  -19.6429  -13.6911 C   0  0  0  0  0  0  0  0  0  0  0  0
   25.4316  -20.7791  -13.6009 O   0  0  0  0  0  0  0  0  0  0  0  0
   25.6701  -18.4887  -13.5088 N   0  0  0  0  0  0  0  0  0  0  0  0
   27.0921  -18.5501  -13.2886 C   0  0  0  0  0  0  0  0  0  0  0  0
   27.5061  -19.1734  -12.0335 C   0  0  0  0  0  0  0  0  0  0  0  0
   28.7188  -19.0647  -11.6349 O   0  0  0  0  0  0  0  0  0  0  0  0
   26.6796  -19.9238  -11.1543 N   0  0  0  0  0  0  0  0  0  0  0  0
   27.1398  -20.4272   -9.8737 C   0  0  1  0  0  0  0  0  0  0  0  0
   27.3585  -19.2392   -8.9871 C   0  0  0  0  0  0  0  0  0  0  0  0
   27.7047  -19.5725   -7.5908 C   0  0  0  0  0  0  0  0  0  0  0  0
   26.7470  -19.6478   -6.6005 C   0  0  0  0  0  0  0  0  0  0  0  0
   27.0994  -19.9633   -5.3054 C   0  0  0  0  0  0  0  0  0  0  0  0
   28.4083  -20.2152   -4.9434 C   0  0  0  0  0  0  0  0  0  0  0  0
   29.3467  -20.1338   -5.9515 C   0  0  0  0  0  0  0  0  0  0  0  0
   29.0200  -19.8210   -7.2502 C   0  0  0  0  0  0  0  0  0  0  0  0
   26.2160  -21.4311   -9.3156 C   0  0  0  0  0  0  0  0  0  0  0  0
   24.9763  -21.2694   -9.4312 O   0  0  0  0  0  0  0  0  0  0  0  0
   26.6572  -22.5656   -8.6578 O   0  0  0  0  0  0  0  0  0  0  0  0
  1  2  1  0
  2  3  2  0
  4  2  1  0
  5  4  1  0
  5  6  1  6
  7  9  1  0
  7  5  1  0
  8  7  2  0
 10  9  1  0
 10 11  1  0
 11 13  1  0
 12 11  2  0
 13 14  1  0
 14 22  1  0
 14 15  1  1
 15 16  1  0
 16 17  2  0
 17 18  1  0
 19 18  2  0
 20 19  1  0
 21 16  1  0
 21 20  2  0
 22 23  2  0
 22 24  1  0
M  END
$$$$
