NGF.pdb
     RDKit          3D

 24 24  0  0  1  0  0  0  0  0999 V2000
   23.8420  -17.2574  -15.6796 N   0  0  0  0  0  0  0  0  0  0  0  0
   23.0033  -18.3455  -15.3808 C   0  0  0  0  0  0  0  0  0  0  0  0
   21.8560  -18.4053  -15.9249 O   0  0  0  0  0  0  0  0  0  0  0  0
   23.4049  -19.4306  -14.4525 C   0  0  0  0  0  0  0  0  0  0  0  0
   24.7179  -19.0778  -13.8215 C   0  0  2  0  0  0  0  0  0  0  0  0
   25.6843  -18.8979  -14.8808 N   0  0  0  0  0  0  0  0  0  0  0  0
   25.1509  -20.1427  -12.8584 C   0  0  0  0  0  0  0  0  0  0  0  0
   24.4376  -20.4300  -11.8570 O   0  0  0  0  0  0  0  0  0  0  0  0
   26.3590  -20.8314  -13.0645 N   0  0  0  0  0  0  0  0  0  0  0  0
   26.7627  -21.9400  -12.2385 C   0  0  0  0  0  0  0  0  0  0  0  0
   27.1233  -21.5995  -10.8641 C   0  0  0  0  0  0  0  0  0  0  0  0
   28.3570  -21.5080  -10.5304 O   0  0  0  0  0  0  0  0  0  0  0  0
   26.2211  -21.3414   -9.7970 N   0  0  0  0  0  0  0  0  0  0  0  0
   26.6366  -21.2784   -8.4082 C   0  0  1  0  0  0  0  0  0  0  0  0
   27.7104  -20.2374   -8.3173 C   0  0  0  0  0  0  0  0  0  0  0  0
   28.1993  -19.9797   -6.9480 C   0  0  0  0  0  0  0  0  0  0  0  0
   29.0429  -20.8571   -6.2980 C   0  0  0  0  0  0  0  0  0  0  0  0
   29.4852  -20.5893   -5.0200 C   0  0  0  0  0  0  0  0  0  0  0  0
   29.1105  -19.4471   -4.3397 C   0  0  0  0  0  0  0  0  0  0  0  0
   28.2668  -18.5861   -5.0110 C   0  0  0  0  0  0  0  0  0  0  0  0
   27.8123  -18.8311   -6.2856 C   0  0  0  0  0  0  0  0  0  0  0  0
   25.4954  -21.0444   -7.5051 C   0  0  0  0  0  0  0  0  0  0  0  0
   25.5894  -21.3482   -6.2905 O   0  0  0  0  0  0  0  0  0  0  0  0
   24.3020  -20.4952   -7.9393 O   0  0  0  0  0  0  0  0  0  0  0  0
  1  2  1  0
  2  3  2  0
  4  2  1  0
  5  4  1  0
  5  6  1  6
  7  9  1  0
  7  5  1  0
  8  7  2  0
 10  9  1  0
 10 11  1  0
 11 13  1  0
 12 11  2  0
 13 14  1  0
 14 22  1  0
 14 15  1  6
 15 16  1  0
 16 17  2  0
 17 18  1  0
 19 18  2  0
 20 19  1  0
 21 16  1  0
 21 20  2  0
 22 23  2  0
 22 24  1  0
M  END
$$$$
