NGF.pdb
     RDKit          3D

 24 24  0  0  1  0  0  0  0  0999 V2000
   13.1971  -11.4993  -18.4732 N   0  0  0  0  0  0  0  0  0  0  0  0
   14.3517  -11.5606  -17.6734 C   0  0  0  0  0  0  0  0  0  0  0  0
   14.9273  -12.6821  -17.5093 O   0  0  0  0  0  0  0  0  0  0  0  0
   14.9275  -10.3647  -17.0109 C   0  0  0  0  0  0  0  0  0  0  0  0
   16.2549  -10.7237  -16.4145 C   0  0  2  0  0  0  0  0  0  0  0  0
   16.0443  -11.0324  -15.0184 N   0  0  0  0  0  0  0  0  0  0  0  0
   17.2381   -9.6044  -16.5869 C   0  0  0  0  0  0  0  0  0  0  0  0
   17.9593   -9.5382  -17.6211 O   0  0  0  0  0  0  0  0  0  0  0  0
   17.3642   -8.6170  -15.5942 N   0  0  0  0  0  0  0  0  0  0  0  0
   18.3228   -7.5466  -15.6918 C   0  0  0  0  0  0  0  0  0  0  0  0
   19.6905   -7.8927  -15.3111 C   0  0  0  0  0  0  0  0  0  0  0  0
   19.9192   -8.9710  -14.6581 O   0  0  0  0  0  0  0  0  0  0  0  0
   20.8597   -7.1371  -15.5959 N   0  0  0  0  0  0  0  0  0  0  0  0
   22.1938   -7.5786  -15.2347 C   0  0  1  0  0  0  0  0  0  0  0  0
   22.3929   -8.9285  -15.8537 C   0  0  0  0  0  0  0  0  0  0  0  0
   23.7781   -9.4354  -15.7851 C   0  0  0  0  0  0  0  0  0  0  0  0
   24.6766   -9.2429  -16.8144 C   0  0  0  0  0  0  0  0  0  0  0  0
   25.9646   -9.7258  -16.7217 C   0  0  0  0  0  0  0  0  0  0  0  0
   26.4101  -10.4149  -15.6107 C   0  0  0  0  0  0  0  0  0  0  0  0
   25.4930  -10.5942  -14.5956 C   0  0  0  0  0  0  0  0  0  0  0  0
   24.2032  -10.1221  -14.6646 C   0  0  0  0  0  0  0  0  0  0  0  0
   23.2190   -6.5884  -15.6104 C   0  0  0  0  0  0  0  0  0  0  0  0
   24.3102   -6.5553  -14.9902 O   0  0  0  0  0  0  0  0  0  0  0  0
   23.0339   -5.6758  -16.6338 O   0  0  0  0  0  0  0  0  0  0  0  0
  1  2  1  0
  2  3  2  0
  4  2  1  0
  5  4  1  0
  5  6  1  1
  7  9  1  0
  7  5  1  0
  8  7  2  0
 10  9  1  0
 10 11  1  0
 11 13  1  0
 12 11  2  0
 13 14  1  0
 14 22  1  0
 14 15  1  6
 15 16  1  0
 16 17  2  0
 17 18  1  0
 19 18  2  0
 20 19  1  0
 21 16  1  0
 21 20  2  0
 22 23  2  0
 22 24  1  0
M  END
$$$$
