NGF.pdb
     RDKit          3D

 24 24  0  0  1  0  0  0  0  0999 V2000
   34.9492  -33.9928  -19.6772 N   0  0  0  0  0  0  0  0  0  0  0  0
   35.2652  -34.3797  -18.3630 C   0  0  0  0  0  0  0  0  0  0  0  0
   35.6376  -35.5757  -18.1468 O   0  0  0  0  0  0  0  0  0  0  0  0
   35.1813  -33.4447  -17.2144 C   0  0  0  0  0  0  0  0  0  0  0  0
   34.7409  -32.0991  -17.7062 C   0  0  2  0  0  0  0  0  0  0  0  0
   35.0117  -31.1359  -16.6633 N   0  0  0  0  0  0  0  0  0  0  0  0
   33.2874  -32.1147  -18.0750 C   0  0  0  0  0  0  0  0  0  0  0  0
   32.9124  -31.7382  -19.2203 O   0  0  0  0  0  0  0  0  0  0  0  0
   32.3281  -32.5505  -17.1443 N   0  0  0  0  0  0  0  0  0  0  0  0
   30.9205  -32.5807  -17.4478 C   0  0  0  0  0  0  0  0  0  0  0  0
   30.0686  -33.1659  -16.4149 C   0  0  0  0  0  0  0  0  0  0  0  0
   30.5700  -33.9685  -15.5512 O   0  0  0  0  0  0  0  0  0  0  0  0
   28.6766  -32.9373  -16.2435 N   0  0  0  0  0  0  0  0  0  0  0  0
   27.8998  -33.5492  -15.1816 C   0  0  1  0  0  0  0  0  0  0  0  0
   27.3094  -32.4357  -14.3712 C   0  0  0  0  0  0  0  0  0  0  0  0
   26.2091  -31.7102  -15.0372 C   0  0  0  0  0  0  0  0  0  0  0  0
   24.8847  -31.9862  -14.7660 C   0  0  0  0  0  0  0  0  0  0  0  0
   23.8781  -31.2910  -15.4017 C   0  0  0  0  0  0  0  0  0  0  0  0
   24.1437  -30.3001  -16.3266 C   0  0  0  0  0  0  0  0  0  0  0  0
   25.4753  -30.0431  -16.5802 C   0  0  0  0  0  0  0  0  0  0  0  0
   26.4969  -30.7227  -15.9590 C   0  0  0  0  0  0  0  0  0  0  0  0
   26.9054  -34.5008  -15.7089 C   0  0  0  0  0  0  0  0  0  0  0  0
   26.5582  -34.4356  -16.9138 O   0  0  0  0  0  0  0  0  0  0  0  0
   26.3246  -35.4822  -14.9254 O   0  0  0  0  0  0  0  0  0  0  0  0
  1  2  1  0
  2  3  2  0
  4  2  1  0
  5  4  1  0
  5  6  1  1
  7  9  1  0
  7  5  1  0
  8  7  2  0
 10  9  1  0
 10 11  1  0
 11 13  1  0
 12 11  2  0
 13 14  1  0
 14 22  1  0
 14 15  1  6
 15 16  1  0
 16 17  2  0
 17 18  1  0
 19 18  2  0
 20 19  1  0
 21 16  1  0
 21 20  2  0
 22 23  2  0
 22 24  1  0
M  END
$$$$
