NGF.pdb
     RDKit          3D

 24 24  0  0  1  0  0  0  0  0999 V2000
   19.7598  -16.6840  -16.3401 N   0  0  0  0  0  0  0  0  0  0  0  0
   19.1899  -15.7276  -17.1986 C   0  0  0  0  0  0  0  0  0  0  0  0
   18.6193  -16.1203  -18.2645 O   0  0  0  0  0  0  0  0  0  0  0  0
   19.2277  -14.2731  -16.9094 C   0  0  0  0  0  0  0  0  0  0  0  0
   19.9668  -13.5717  -18.0087 C   0  0  2  0  0  0  0  0  0  0  0  0
   21.3652  -13.9176  -17.8932 N   0  0  0  0  0  0  0  0  0  0  0  0
   19.7598  -12.0885  -17.9297 C   0  0  0  0  0  0  0  0  0  0  0  0
   18.5991  -11.5979  -18.0091 O   0  0  0  0  0  0  0  0  0  0  0  0
   20.8612  -11.2302  -17.7662 N   0  0  0  0  0  0  0  0  0  0  0  0
   20.7076   -9.8138  -17.5553 C   0  0  0  0  0  0  0  0  0  0  0  0
   21.4044   -9.2740  -16.3900 C   0  0  0  0  0  0  0  0  0  0  0  0
   21.7159  -10.0464  -15.4164 O   0  0  0  0  0  0  0  0  0  0  0  0
   21.8011   -7.9230  -16.1983 N   0  0  0  0  0  0  0  0  0  0  0  0
   22.5416   -7.4741  -15.0341 C   0  0  1  0  0  0  0  0  0  0  0  0
   23.9573   -7.2524  -15.4721 C   0  0  0  0  0  0  0  0  0  0  0  0
   24.1238   -6.2044  -16.4990 C   0  0  0  0  0  0  0  0  0  0  0  0
   23.8211   -6.4297  -17.8262 C   0  0  0  0  0  0  0  0  0  0  0  0
   23.9845   -5.4314  -18.7629 C   0  0  0  0  0  0  0  0  0  0  0  0
   24.4520   -4.1771  -18.4224 C   0  0  0  0  0  0  0  0  0  0  0  0
   24.7474   -3.9771  -17.0896 C   0  0  0  0  0  0  0  0  0  0  0  0
   24.5927   -4.9567  -16.1369 C   0  0  0  0  0  0  0  0  0  0  0  0
   21.9155   -6.2960  -14.4074 C   0  0  0  0  0  0  0  0  0  0  0  0
   22.3677   -5.8528  -13.3232 O   0  0  0  0  0  0  0  0  0  0  0  0
   20.8324   -5.6417  -14.9670 O   0  0  0  0  0  0  0  0  0  0  0  0
  1  2  1  0
  2  3  2  0
  4  2  1  0
  5  4  1  0
  5  6  1  1
  7  9  1  0
  7  5  1  0
  8  7  2  0
 10  9  1  0
 10 11  1  0
 11 13  1  0
 12 11  2  0
 13 14  1  0
 14 22  1  0
 14 15  1  6
 15 16  1  0
 16 17  2  0
 17 18  1  0
 19 18  2  0
 20 19  1  0
 21 16  1  0
 21 20  2  0
 22 23  2  0
 22 24  1  0
M  END
$$$$
