NGF.pdb
     RDKit          3D

 24 24  0  0  1  0  0  0  0  0999 V2000
   29.8038  -19.1462  -19.8239 N   0  0  0  0  0  0  0  0  0  0  0  0
   28.8942  -20.0236  -19.2079 C   0  0  0  0  0  0  0  0  0  0  0  0
   28.7549  -21.1957  -19.6796 O   0  0  0  0  0  0  0  0  0  0  0  0
   28.0876  -19.6349  -18.0251 C   0  0  0  0  0  0  0  0  0  0  0  0
   28.7666  -20.1274  -16.7829 C   0  0  2  0  0  0  0  0  0  0  0  0
   28.5406  -21.5517  -16.6896 N   0  0  0  0  0  0  0  0  0  0  0  0
   28.2506  -19.4091  -15.5718 C   0  0  0  0  0  0  0  0  0  0  0  0
   28.4384  -18.1682  -15.4338 O   0  0  0  0  0  0  0  0  0  0  0  0
   27.5514  -20.1153  -14.5773 N   0  0  0  0  0  0  0  0  0  0  0  0
   27.0218  -19.4694  -13.4041 C   0  0  0  0  0  0  0  0  0  0  0  0
   26.2476  -20.3283  -12.5108 C   0  0  0  0  0  0  0  0  0  0  0  0
   25.9972  -21.5393  -12.8459 O   0  0  0  0  0  0  0  0  0  0  0  0
   25.7126  -19.9620  -11.2463 N   0  0  0  0  0  0  0  0  0  0  0  0
   24.8814  -20.8479  -10.4529 C   0  0  1  0  0  0  0  0  0  0  0  0
   25.0587  -20.4504   -9.0192 C   0  0  0  0  0  0  0  0  0  0  0  0
   26.4650  -20.3583   -8.5785 C   0  0  0  0  0  0  0  0  0  0  0  0
   26.8973  -19.3662   -7.7227 C   0  0  0  0  0  0  0  0  0  0  0  0
   28.2164  -19.3062   -7.3263 C   0  0  0  0  0  0  0  0  0  0  0  0
   29.1539  -20.2229   -7.7607 C   0  0  0  0  0  0  0  0  0  0  0  0
   28.6968  -21.2048   -8.6154 C   0  0  0  0  0  0  0  0  0  0  0  0
   27.3864  -21.2855   -9.0249 C   0  0  0  0  0  0  0  0  0  0  0  0
   23.4800  -20.8393  -10.9097 C   0  0  0  0  0  0  0  0  0  0  0  0
   22.6546  -21.6384  -10.4032 O   0  0  0  0  0  0  0  0  0  0  0  0
   23.0207  -19.9762  -11.8887 O   0  0  0  0  0  0  0  0  0  0  0  0
  1  2  1  0
  2  3  2  0
  4  2  1  0
  5  4  1  0
  5  6  1  1
  7  9  1  0
  7  5  1  0
  8  7  2  0
 10  9  1  0
 10 11  1  0
 11 13  1  0
 12 11  2  0
 13 14  1  0
 14 22  1  0
 14 15  1  1
 15 16  1  0
 16 17  2  0
 17 18  1  0
 19 18  2  0
 20 19  1  0
 21 16  1  0
 21 20  2  0
 22 23  2  0
 22 24  1  0
M  END
$$$$
