NGF.pdb
     RDKit          3D

 24 24  0  0  1  0  0  0  0  0999 V2000
   35.0531  -30.9693  -20.5258 N   0  0  0  0  0  0  0  0  0  0  0  0
   33.9563  -30.2578  -21.0429 C   0  0  0  0  0  0  0  0  0  0  0  0
   33.8117  -30.1818  -22.3036 O   0  0  0  0  0  0  0  0  0  0  0  0
   32.9573  -29.5898  -20.1733 C   0  0  0  0  0  0  0  0  0  0  0  0
   33.3703  -29.7440  -18.7407 C   0  0  2  0  0  0  0  0  0  0  0  0
   33.2645  -31.1438  -18.3974 N   0  0  0  0  0  0  0  0  0  0  0  0
   32.5197  -28.8933  -17.8452 C   0  0  0  0  0  0  0  0  0  0  0  0
   31.6769  -29.4232  -17.0686 O   0  0  0  0  0  0  0  0  0  0  0  0
   32.6553  -27.4942  -17.8641 N   0  0  0  0  0  0  0  0  0  0  0  0
   31.8133  -26.6294  -17.0783 C   0  0  0  0  0  0  0  0  0  0  0  0
   30.4283  -26.5217  -17.5313 C   0  0  0  0  0  0  0  0  0  0  0  0
   30.1056  -26.9251  -18.7038 O   0  0  0  0  0  0  0  0  0  0  0  0
   29.3379  -25.9972  -16.7861 N   0  0  0  0  0  0  0  0  0  0  0  0
   27.9780  -25.9651  -17.2911 C   0  0  1  0  0  0  0  0  0  0  0  0
   27.5507  -27.3868  -17.4941 C   0  0  0  0  0  0  0  0  0  0  0  0
   26.1434  -27.5498  -17.9107 C   0  0  0  0  0  0  0  0  0  0  0  0
   25.7553  -27.4316  -19.2294 C   0  0  0  0  0  0  0  0  0  0  0  0
   24.4340  -27.5911  -19.5894 C   0  0  0  0  0  0  0  0  0  0  0  0
   23.4509  -27.8725  -18.6610 C   0  0  0  0  0  0  0  0  0  0  0  0
   23.8645  -27.9857  -17.3496 C   0  0  0  0  0  0  0  0  0  0  0  0
   25.1760  -27.8311  -16.9659 C   0  0  0  0  0  0  0  0  0  0  0  0
   27.0853  -25.1895  -16.4113 C   0  0  0  0  0  0  0  0  0  0  0  0
   27.2166  -25.2677  -15.1651 O   0  0  0  0  0  0  0  0  0  0  0  0
   26.0899  -24.3629  -16.9016 O   0  0  0  0  0  0  0  0  0  0  0  0
  1  2  1  0
  2  3  2  0
  4  2  1  0
  5  4  1  0
  5  6  1  1
  7  9  1  0
  7  5  1  0
  8  7  2  0
 10  9  1  0
 10 11  1  0
 11 13  1  0
 12 11  2  0
 13 14  1  0
 14 22  1  0
 14 15  1  1
 15 16  1  0
 16 17  2  0
 17 18  1  0
 19 18  2  0
 20 19  1  0
 21 16  1  0
 21 20  2  0
 22 23  2  0
 22 24  1  0
M  END
$$$$
