NGF.pdb
     RDKit          3D

 24 24  0  0  1  0  0  0  0  0999 V2000
   29.4472  -19.7273  -20.3127 N   0  0  0  0  0  0  0  0  0  0  0  0
   28.7253  -20.4447  -19.3427 C   0  0  0  0  0  0  0  0  0  0  0  0
   27.8515  -21.2858  -19.7237 O   0  0  0  0  0  0  0  0  0  0  0  0
   28.9432  -20.2590  -17.8872 C   0  0  0  0  0  0  0  0  0  0  0  0
   27.6195  -20.2839  -17.1843 C   0  0  2  0  0  0  0  0  0  0  0  0
   26.9303  -19.0520  -17.4940 N   0  0  0  0  0  0  0  0  0  0  0  0
   27.8032  -20.4534  -15.7056 C   0  0  0  0  0  0  0  0  0  0  0  0
   28.2281  -21.5445  -15.2332 O   0  0  0  0  0  0  0  0  0  0  0  0
   27.5024  -19.3944  -14.8313 N   0  0  0  0  0  0  0  0  0  0  0  0
   27.7730  -19.4632  -13.4184 C   0  0  0  0  0  0  0  0  0  0  0  0
   26.7682  -20.1625  -12.6207 C   0  0  0  0  0  0  0  0  0  0  0  0
   25.6578  -20.5133  -13.1551 O   0  0  0  0  0  0  0  0  0  0  0  0
   26.8825  -20.5212  -11.2504 N   0  0  0  0  0  0  0  0  0  0  0  0
   25.8746  -21.2941  -10.5488 C   0  0  1  0  0  0  0  0  0  0  0  0
   26.5480  -21.9268   -9.3693 C   0  0  0  0  0  0  0  0  0  0  0  0
   27.0950  -20.9675   -8.3889 C   0  0  0  0  0  0  0  0  0  0  0  0
   26.2768  -20.1841   -7.6012 C   0  0  0  0  0  0  0  0  0  0  0  0
   26.8158  -19.2983   -6.6925 C   0  0  0  0  0  0  0  0  0  0  0  0
   28.1799  -19.1552   -6.5300 C   0  0  0  0  0  0  0  0  0  0  0  0
   28.9762  -19.9496   -7.3291 C   0  0  0  0  0  0  0  0  0  0  0  0
   28.4625  -20.8403   -8.2423 C   0  0  0  0  0  0  0  0  0  0  0  0
   24.6996  -20.4748  -10.2014 C   0  0  0  0  0  0  0  0  0  0  0  0
   24.7879  -19.2224  -10.2124 O   0  0  0  0  0  0  0  0  0  0  0  0
   23.4797  -21.0296   -9.8572 O   0  0  0  0  0  0  0  0  0  0  0  0
  1  2  1  0
  2  3  2  0
  4  2  1  0
  5  4  1  0
  5  6  1  1
  7  9  1  0
  7  5  1  0
  8  7  2  0
 10  9  1  0
 10 11  1  0
 11 13  1  0
 12 11  2  0
 13 14  1  0
 14 22  1  0
 14 15  1  1
 15 16  1  0
 16 17  2  0
 17 18  1  0
 19 18  2  0
 20 19  1  0
 21 16  1  0
 21 20  2  0
 22 23  2  0
 22 24  1  0
M  END
$$$$
