NGF.pdb
     RDKit          3D

 24 24  0  0  1  0  0  0  0  0999 V2000
   29.4376  -22.3873  -18.9849 N   0  0  0  0  0  0  0  0  0  0  0  0
   28.4665  -21.4193  -18.6743 C   0  0  0  0  0  0  0  0  0  0  0  0
   27.5656  -21.1549  -19.5312 O   0  0  0  0  0  0  0  0  0  0  0  0
   28.4510  -20.6912  -17.3818 C   0  0  0  0  0  0  0  0  0  0  0  0
   27.6216  -21.4568  -16.3956 C   0  0  2  0  0  0  0  0  0  0  0  0
   26.2309  -21.2354  -16.7201 N   0  0  0  0  0  0  0  0  0  0  0  0
   27.9324  -21.0305  -14.9918 C   0  0  0  0  0  0  0  0  0  0  0  0
   28.9315  -21.5059  -14.3836 O   0  0  0  0  0  0  0  0  0  0  0  0
   27.1101  -20.0946  -14.3403 N   0  0  0  0  0  0  0  0  0  0  0  0
   27.2951  -19.7402  -12.9567 C   0  0  0  0  0  0  0  0  0  0  0  0
   26.5189  -20.5248  -11.9991 C   0  0  0  0  0  0  0  0  0  0  0  0
   26.2378  -21.7486  -12.2536 O   0  0  0  0  0  0  0  0  0  0  0  0
   26.0137  -20.0689  -10.7516 N   0  0  0  0  0  0  0  0  0  0  0  0
   25.1833  -20.8876   -9.8882 C   0  0  1  0  0  0  0  0  0  0  0  0
   25.3400  -20.3572   -8.4956 C   0  0  0  0  0  0  0  0  0  0  0  0
   26.7390  -20.2479   -8.0357 C   0  0  0  0  0  0  0  0  0  0  0  0
   27.1821  -19.1680   -7.3001 C   0  0  0  0  0  0  0  0  0  0  0  0
   28.4939  -19.0939   -6.8823 C   0  0  0  0  0  0  0  0  0  0  0  0
   29.4130  -20.0822   -7.1759 C   0  0  0  0  0  0  0  0  0  0  0  0
   28.9452  -21.1511   -7.9123 C   0  0  0  0  0  0  0  0  0  0  0  0
   27.6419  -21.2478   -8.3404 C   0  0  0  0  0  0  0  0  0  0  0  0
   23.7871  -20.9378  -10.3581 C   0  0  0  0  0  0  0  0  0  0  0  0
   22.9499  -21.6482   -9.7492 O   0  0  0  0  0  0  0  0  0  0  0  0
   23.3454  -20.2259  -11.4592 O   0  0  0  0  0  0  0  0  0  0  0  0
  1  2  1  0
  2  3  2  0
  4  2  1  0
  5  4  1  0
  5  6  1  6
  7  9  1  0
  7  5  1  0
  8  7  2  0
 10  9  1  0
 10 11  1  0
 11 13  1  0
 12 11  2  0
 13 14  1  0
 14 22  1  0
 14 15  1  1
 15 16  1  0
 16 17  2  0
 17 18  1  0
 19 18  2  0
 20 19  1  0
 21 16  1  0
 21 20  2  0
 22 23  2  0
 22 24  1  0
M  END
$$$$
