NGF.pdb
     RDKit          3D

 24 24  0  0  1  0  0  0  0  0999 V2000
   25.6334  -16.9730  -19.8162 N   0  0  0  0  0  0  0  0  0  0  0  0
   25.0029  -17.6669  -18.7686 C   0  0  0  0  0  0  0  0  0  0  0  0
   23.8969  -18.2510  -18.9958 O   0  0  0  0  0  0  0  0  0  0  0  0
   25.5785  -17.7451  -17.4036 C   0  0  0  0  0  0  0  0  0  0  0  0
   26.4906  -18.9316  -17.3213 C   0  0  2  0  0  0  0  0  0  0  0  0
   25.6690  -20.1141  -17.1973 N   0  0  0  0  0  0  0  0  0  0  0  0
   27.4379  -18.7978  -16.1664 C   0  0  0  0  0  0  0  0  0  0  0  0
   27.9147  -17.6708  -15.8555 O   0  0  0  0  0  0  0  0  0  0  0  0
   27.8034  -19.9309  -15.4188 N   0  0  0  0  0  0  0  0  0  0  0  0
   27.9721  -19.8872  -13.9892 C   0  0  0  0  0  0  0  0  0  0  0  0
   26.9146  -20.5306  -13.2129 C   0  0  0  0  0  0  0  0  0  0  0  0
   25.8594  -20.9582  -13.8006 O   0  0  0  0  0  0  0  0  0  0  0  0
   26.9178  -20.7527  -11.8093 N   0  0  0  0  0  0  0  0  0  0  0  0
   25.8258  -21.4031  -11.1094 C   0  0  1  0  0  0  0  0  0  0  0  0
   26.4159  -22.0895   -9.9153 C   0  0  0  0  0  0  0  0  0  0  0  0
   27.0793  -21.1851   -8.9547 C   0  0  0  0  0  0  0  0  0  0  0  0
   26.3643  -20.3028   -8.1711 C   0  0  0  0  0  0  0  0  0  0  0  0
   27.0106  -19.4716   -7.2811 C   0  0  0  0  0  0  0  0  0  0  0  0
   28.3839  -19.4824   -7.1338 C   0  0  0  0  0  0  0  0  0  0  0  0
   29.0758  -20.3732   -7.9284 C   0  0  0  0  0  0  0  0  0  0  0  0
   28.4539  -21.2122   -8.8232 C   0  0  0  0  0  0  0  0  0  0  0  0
   24.7430  -20.4574  -10.7843 C   0  0  0  0  0  0  0  0  0  0  0  0
   24.9767  -19.2239  -10.7689 O   0  0  0  0  0  0  0  0  0  0  0  0
   23.4559  -20.8709  -10.4896 O   0  0  0  0  0  0  0  0  0  0  0  0
  1  2  1  0
  2  3  2  0
  4  2  1  0
  5  4  1  0
  5  6  1  1
  7  9  1  0
  7  5  1  0
  8  7  2  0
 10  9  1  0
 10 11  1  0
 11 13  1  0
 12 11  2  0
 13 14  1  0
 14 22  1  0
 14 15  1  1
 15 16  1  0
 16 17  2  0
 17 18  1  0
 19 18  2  0
 20 19  1  0
 21 16  1  0
 21 20  2  0
 22 23  2  0
 22 24  1  0
M  END
$$$$
