DSQ.pdb
     RDKit          3D

 24 23  0  0  1  0  0  0  0  0999 V2000
    7.6199  -17.9191   16.8832 N   0  0  0  0  0  0  0  0  0  0  0  0
    8.7469  -17.0107   16.8040 C   0  0  1  0  0  0  0  0  0  0  0  0
    8.6859  -16.1147   15.6108 C   0  0  0  0  0  0  0  0  0  0  0  0
    8.8117  -16.9493   14.3889 C   0  0  0  0  0  0  0  0  0  0  0  0
    7.9516  -16.9237   13.4907 O   0  0  0  0  0  0  0  0  0  0  0  0
    8.9500  -16.2741   18.0754 C   0  0  0  0  0  0  0  0  0  0  0  0
   10.1000  -15.7939   18.2848 O   0  0  0  0  0  0  0  0  0  0  0  0
    9.9124  -17.7787   14.2405 O   0  0  0  0  0  0  0  0  0  0  0  0
    6.5068  -16.5429   21.3657 O   0  0  0  0  0  0  0  0  0  0  0  0
    6.9972  -15.2758   21.0652 C   0  0  0  0  0  0  0  0  0  0  0  0
    8.3143  -15.4789   20.3128 C   0  0  2  0  0  0  0  0  0  0  0  0
    7.9589  -16.0798   19.0469 N   0  0  0  0  0  0  0  0  0  0  0  0
    9.1471  -16.3660   21.1491 C   0  0  0  0  0  0  0  0  0  0  0  0
    9.5267  -17.4582   20.6591 O   0  0  0  0  0  0  0  0  0  0  0  0
   15.1657  -14.3441   21.5080 N   0  0  0  0  0  0  0  0  0  0  0  0
   14.2604  -15.4283   21.2690 C   0  0  0  0  0  0  0  0  0  0  0  0
   14.2867  -15.9099   20.1010 O   0  0  0  0  0  0  0  0  0  0  0  0
   13.3547  -15.9643   22.3088 C   0  0  0  0  0  0  0  0  0  0  0  0
   11.9205  -15.8417   21.9998 C   0  0  0  0  0  0  0  0  0  0  0  0
   10.9216  -16.3452   22.9669 C   0  0  2  0  0  0  0  0  0  0  0  0
    9.5521  -16.0738   22.4726 N   0  0  0  0  0  0  0  0  0  0  0  0
   11.0464  -16.0043   24.3793 C   0  0  0  0  0  0  0  0  0  0  0  0
   10.1935  -15.0613   24.9978 O   0  0  0  0  0  0  0  0  0  0  0  0
   11.8997  -16.4935   25.1860 O   0  0  0  0  0  0  0  0  0  0  0  0
  2  1  1  1
  2  3  1  0
  3  4  1  0
  4  8  1  0
  5  4  2  0
  6  2  1  0
  7  6  2  0
  9 10  1  0
 11 10  1  1
 11 13  1  0
 11 12  1  0
 12  6  1  0
 13 21  1  0
 14 13  2  0
 16 18  1  0
 16 15  1  0
 17 16  2  0
 19 18  1  0
 20 19  1  6
 21 20  1  0
 22 23  1  0
 22 20  1  0
 24 22  2  0
M  END
$$$$
