DSQ.pdb
     RDKit          3D

 24 23  0  0  1  0  0  0  0  0999 V2000
   -7.0507  -22.1269   21.5478 N   0  0  0  0  0  0  0  0  0  0  0  0
   -8.1372  -22.4873   22.4374 C   0  0  1  0  0  0  0  0  0  0  0  0
   -9.3307  -23.0138   21.7104 C   0  0  0  0  0  0  0  0  0  0  0  0
  -10.4135  -22.0006   21.7878 C   0  0  0  0  0  0  0  0  0  0  0  0
  -11.6137  -22.3251   21.7502 O   0  0  0  0  0  0  0  0  0  0  0  0
   -7.6802  -23.3804   23.5300 C   0  0  0  0  0  0  0  0  0  0  0  0
   -8.4842  -23.5797   24.4845 O   0  0  0  0  0  0  0  0  0  0  0  0
  -10.0845  -20.6592   21.9048 O   0  0  0  0  0  0  0  0  0  0  0  0
   -3.8539  -24.7167   23.9566 O   0  0  0  0  0  0  0  0  0  0  0  0
   -4.8490  -25.6258   24.3022 C   0  0  0  0  0  0  0  0  0  0  0  0
   -6.0705  -24.8051   24.7223 C   0  0  2  0  0  0  0  0  0  0  0  0
   -6.4285  -24.0091   23.5698 N   0  0  0  0  0  0  0  0  0  0  0  0
   -5.6516  -23.9817   25.8739 C   0  0  0  0  0  0  0  0  0  0  0  0
   -5.7328  -22.7327   25.7703 O   0  0  0  0  0  0  0  0  0  0  0  0
   -9.4209  -22.4250   28.7832 N   0  0  0  0  0  0  0  0  0  0  0  0
   -8.4621  -22.0787   29.7896 C   0  0  0  0  0  0  0  0  0  0  0  0
   -8.9021  -21.3668   30.7364 O   0  0  0  0  0  0  0  0  0  0  0  0
   -7.0511  -22.5212   29.7429 C   0  0  0  0  0  0  0  0  0  0  0  0
   -6.6666  -23.2259   28.5089 C   0  0  0  0  0  0  0  0  0  0  0  0
   -5.3015  -23.7801   28.3820 C   0  0  2  0  0  0  0  0  0  0  0  0
   -5.1616  -24.5002   27.0954 N   0  0  0  0  0  0  0  0  0  0  0  0
   -4.7289  -24.5512   29.4794 C   0  0  0  0  0  0  0  0  0  0  0  0
   -3.9520  -23.9439   30.4928 O   0  0  0  0  0  0  0  0  0  0  0  0
   -4.8553  -25.8058   29.6471 O   0  0  0  0  0  0  0  0  0  0  0  0
  2  1  1  6
  2  3  1  0
  3  4  1  0
  4  8  1  0
  5  4  2  0
  6  2  1  0
  7  6  2  0
  9 10  1  0
 11 10  1  6
 11 13  1  0
 11 12  1  0
 12  6  1  0
 13 21  1  0
 14 13  2  0
 16 18  1  0
 16 15  1  0
 17 16  2  0
 19 18  1  0
 20 19  1  1
 21 20  1  0
 22 23  1  0
 22 20  1  0
 24 22  2  0
M  END
$$$$
