DSQ.pdb
     RDKit          3D

 24 23  0  0  1  0  0  0  0  0999 V2000
    8.5055  -17.8324   17.6855 N   0  0  0  0  0  0  0  0  0  0  0  0
    9.6812  -17.7605   18.5307 C   0  0  1  0  0  0  0  0  0  0  0  0
   10.9421  -17.5689   17.7539 C   0  0  0  0  0  0  0  0  0  0  0  0
   10.8421  -18.3495   16.4946 C   0  0  0  0  0  0  0  0  0  0  0  0
   10.3736  -19.5017   16.4774 O   0  0  0  0  0  0  0  0  0  0  0  0
    9.5138  -16.7706   19.6227 C   0  0  0  0  0  0  0  0  0  0  0  0
   10.5416  -16.4795   20.2980 O   0  0  0  0  0  0  0  0  0  0  0  0
   11.2798  -17.7854   15.3065 O   0  0  0  0  0  0  0  0  0  0  0  0
    5.9357  -15.6706   21.3655 O   0  0  0  0  0  0  0  0  0  0  0  0
    6.8437  -14.6542   21.0851 C   0  0  0  0  0  0  0  0  0  0  0  0
    8.2368  -15.2872   21.1097 C   0  0  2  0  0  0  0  0  0  0  0  0
    8.3026  -16.1457   19.9485 N   0  0  0  0  0  0  0  0  0  0  0  0
    8.3387  -16.0371   22.3774 C   0  0  0  0  0  0  0  0  0  0  0  0
    8.1902  -17.2836   22.3424 O   0  0  0  0  0  0  0  0  0  0  0  0
   12.9940  -19.3733   24.1139 N   0  0  0  0  0  0  0  0  0  0  0  0
   12.7394  -17.9763   24.3022 C   0  0  0  0  0  0  0  0  0  0  0  0
   13.6192  -17.1968   23.8381 O   0  0  0  0  0  0  0  0  0  0  0  0
   11.5312  -17.4635   24.9849 C   0  0  0  0  0  0  0  0  0  0  0  0
   10.5736  -16.7716   24.1065 C   0  0  0  0  0  0  0  0  0  0  0  0
    9.3763  -16.1331   24.6943 C   0  0  2  0  0  0  0  0  0  0  0  0
    8.5934  -15.4499   23.6390 N   0  0  0  0  0  0  0  0  0  0  0  0
    9.5130  -15.2887   25.8754 C   0  0  0  0  0  0  0  0  0  0  0  0
    9.6783  -15.8354   27.1689 O   0  0  0  0  0  0  0  0  0  0  0  0
    9.5002  -14.0167   25.8811 O   0  0  0  0  0  0  0  0  0  0  0  0
  2  1  1  6
  2  3  1  0
  3  4  1  0
  4  8  1  0
  5  4  2  0
  6  2  1  0
  7  6  2  0
  9 10  1  0
 11 10  1  1
 11 13  1  0
 11 12  1  0
 12  6  1  0
 13 21  1  0
 14 13  2  0
 16 18  1  0
 16 15  1  0
 17 16  2  0
 19 18  1  0
 20 19  1  6
 21 20  1  0
 22 23  1  0
 22 20  1  0
 24 22  2  0
M  END
$$$$
