DSQ.pdb
     RDKit          3D

 24 23  0  0  1  0  0  0  0  0999 V2000
    8.9415  -15.2109   19.7704 N   0  0  0  0  0  0  0  0  0  0  0  0
    8.2045  -15.7334   20.9041 C   0  0  1  0  0  0  0  0  0  0  0  0
    8.0578  -17.2191   20.8647 C   0  0  0  0  0  0  0  0  0  0  0  0
    7.2903  -17.5838   19.6469 C   0  0  0  0  0  0  0  0  0  0  0  0
    7.8533  -18.0271   18.6301 O   0  0  0  0  0  0  0  0  0  0  0  0
    8.7495  -15.2361   22.1910 C   0  0  0  0  0  0  0  0  0  0  0  0
   10.0062  -15.1417   22.2855 O   0  0  0  0  0  0  0  0  0  0  0  0
    5.9129  -17.4286   19.6375 O   0  0  0  0  0  0  0  0  0  0  0  0
    6.4228  -14.5346   25.3670 O   0  0  0  0  0  0  0  0  0  0  0  0
    7.5697  -13.7469   25.3507 C   0  0  0  0  0  0  0  0  0  0  0  0
    8.6170  -14.5085   24.5352 C   0  0  2  0  0  0  0  0  0  0  0  0
    7.9681  -14.8690   23.2947 N   0  0  0  0  0  0  0  0  0  0  0  0
    9.0039  -15.6861   25.3374 C   0  0  0  0  0  0  0  0  0  0  0  0
    8.2393  -16.6823   25.3346 O   0  0  0  0  0  0  0  0  0  0  0  0
   13.5391  -16.3741   24.4117 N   0  0  0  0  0  0  0  0  0  0  0  0
   12.6029  -17.3477   23.9343 C   0  0  0  0  0  0  0  0  0  0  0  0
   12.6481  -17.5813   22.6932 O   0  0  0  0  0  0  0  0  0  0  0  0
   11.6463  -18.0463   24.8206 C   0  0  0  0  0  0  0  0  0  0  0  0
   11.7164  -17.6509   26.2370 C   0  0  0  0  0  0  0  0  0  0  0  0
   10.5508  -16.9960   26.8687 C   0  0  2  0  0  0  0  0  0  0  0  0
   10.1820  -15.7754   26.1152 N   0  0  0  0  0  0  0  0  0  0  0  0
   10.5526  -16.7449   28.3052 C   0  0  0  0  0  0  0  0  0  0  0  0
   10.7961  -17.7750   29.2428 O   0  0  0  0  0  0  0  0  0  0  0  0
   10.3446  -15.6192   28.8599 O   0  0  0  0  0  0  0  0  0  0  0  0
  2  1  1  6
  2  3  1  0
  3  4  1  0
  4  8  1  0
  5  4  2  0
  6  2  1  0
  7  6  2  0
  9 10  1  0
 11 10  1  1
 11 13  1  0
 11 12  1  0
 12  6  1  0
 13 21  1  0
 14 13  2  0
 16 18  1  0
 16 15  1  0
 17 16  2  0
 19 18  1  0
 20 19  1  6
 21 20  1  0
 22 23  1  0
 22 20  1  0
 24 22  2  0
M  END
$$$$
