DSQ.pdb
     RDKit          3D

 24 23  0  0  1  0  0  0  0  0999 V2000
   12.2373  -14.9454   17.1509 N   0  0  0  0  0  0  0  0  0  0  0  0
   13.0797  -14.8635   18.3279 C   0  0  1  0  0  0  0  0  0  0  0  0
   14.2522  -13.9581   18.1392 C   0  0  0  0  0  0  0  0  0  0  0  0
   15.1543  -14.5616   17.1256 C   0  0  0  0  0  0  0  0  0  0  0  0
   14.9287  -15.6835   16.6380 O   0  0  0  0  0  0  0  0  0  0  0  0
   12.2934  -14.5516   19.5464 C   0  0  0  0  0  0  0  0  0  0  0  0
   12.9126  -14.5578   20.6480 O   0  0  0  0  0  0  0  0  0  0  0  0
   16.2762  -13.8622   16.7091 O   0  0  0  0  0  0  0  0  0  0  0  0
    8.2339  -14.6772   19.7558 O   0  0  0  0  0  0  0  0  0  0  0  0
    8.8201  -13.6334   20.4651 C   0  0  0  0  0  0  0  0  0  0  0  0
   10.2413  -14.0803   20.8149 C   0  0  2  0  0  0  0  0  0  0  0  0
   10.9240  -14.2542   19.5526 N   0  0  0  0  0  0  0  0  0  0  0  0
   10.1142  -15.3421   21.5709 C   0  0  0  0  0  0  0  0  0  0  0  0
   10.3916  -16.4162   20.9824 O   0  0  0  0  0  0  0  0  0  0  0  0
   14.7473  -17.8190   23.4303 N   0  0  0  0  0  0  0  0  0  0  0  0
   14.0663  -17.0604   24.4367 C   0  0  0  0  0  0  0  0  0  0  0  0
   14.7959  -16.2875   25.1203 O   0  0  0  0  0  0  0  0  0  0  0  0
   12.6084  -17.1577   24.6688 C   0  0  0  0  0  0  0  0  0  0  0  0
   11.7879  -16.2894   23.8085 C   0  0  0  0  0  0  0  0  0  0  0  0
   10.3135  -16.3732   23.8841 C   0  0  2  0  0  0  0  0  0  0  0  0
    9.6996  -15.4308   22.9205 N   0  0  0  0  0  0  0  0  0  0  0  0
    9.6505  -16.3029   25.1811 C   0  0  0  0  0  0  0  0  0  0  0  0
    9.2032  -17.4629   25.8547 O   0  0  0  0  0  0  0  0  0  0  0  0
    9.4069  -15.2367   25.8308 O   0  0  0  0  0  0  0  0  0  0  0  0
  2  1  1  6
  2  3  1  0
  3  4  1  0
  4  8  1  0
  5  4  2  0
  6  2  1  0
  7  6  2  0
  9 10  1  0
 11 10  1  6
 11 13  1  0
 11 12  1  0
 12  6  1  0
 13 21  1  0
 14 13  2  0
 16 18  1  0
 16 15  1  0
 17 16  2  0
 19 18  1  0
 20 19  1  1
 21 20  1  0
 22 23  1  0
 22 20  1  0
 24 22  2  0
M  END
$$$$
