DSQ.pdb
     RDKit          3D

 24 23  0  0  1  0  0  0  0  0999 V2000
    7.9799  -14.7390   15.1347 N   0  0  0  0  0  0  0  0  0  0  0  0
    8.6770  -15.7126   15.9519 C   0  0  1  0  0  0  0  0  0  0  0  0
    9.8999  -16.2559   15.2889 C   0  0  0  0  0  0  0  0  0  0  0  0
    9.4789  -17.0777   14.1259 C   0  0  0  0  0  0  0  0  0  0  0  0
    8.3132  -17.4965   14.0117 O   0  0  0  0  0  0  0  0  0  0  0  0
    8.9354  -15.1990   17.3192 C   0  0  0  0  0  0  0  0  0  0  0  0
   10.0752  -14.7000   17.5406 O   0  0  0  0  0  0  0  0  0  0  0  0
   10.4031  -17.3885   13.1408 O   0  0  0  0  0  0  0  0  0  0  0  0
    7.3323  -13.9777   21.6489 O   0  0  0  0  0  0  0  0  0  0  0  0
    7.0845  -14.7163   20.4960 C   0  0  0  0  0  0  0  0  0  0  0  0
    8.3499  -14.6354   19.6392 C   0  0  2  0  0  0  0  0  0  0  0  0
    8.0064  -15.2319   18.3679 N   0  0  0  0  0  0  0  0  0  0  0  0
    9.3961  -15.3904   20.3570 C   0  0  0  0  0  0  0  0  0  0  0  0
    9.3352  -16.6447   20.3457 O   0  0  0  0  0  0  0  0  0  0  0  0
   14.9470  -13.8930   18.8494 N   0  0  0  0  0  0  0  0  0  0  0  0
   14.7060  -14.7255   19.9900 C   0  0  0  0  0  0  0  0  0  0  0  0
   15.6779  -14.8467   20.7885 O   0  0  0  0  0  0  0  0  0  0  0  0
   13.4120  -15.3993   20.2353 C   0  0  0  0  0  0  0  0  0  0  0  0
   12.8217  -15.1377   21.5584 C   0  0  0  0  0  0  0  0  0  0  0  0
   11.4451  -15.5950   21.8449 C   0  0  2  0  0  0  0  0  0  0  0  0
   10.4709  -14.8000   21.0622 N   0  0  0  0  0  0  0  0  0  0  0  0
   11.0066  -15.7481   23.2273 C   0  0  0  0  0  0  0  0  0  0  0  0
    9.9086  -15.0242   23.7467 O   0  0  0  0  0  0  0  0  0  0  0  0
   11.5368  -16.5171   24.0909 O   0  0  0  0  0  0  0  0  0  0  0  0
  2  1  1  6
  2  3  1  0
  3  4  1  0
  4  8  1  0
  5  4  2  0
  6  2  1  0
  7  6  2  0
  9 10  1  0
 11 10  1  1
 11 13  1  0
 11 12  1  0
 12  6  1  0
 13 21  1  0
 14 13  2  0
 16 18  1  0
 16 15  1  0
 17 16  2  0
 19 18  1  0
 20 19  1  1
 21 20  1  0
 22 23  1  0
 22 20  1  0
 24 22  2  0
M  END
$$$$
