DSQ.pdb
     RDKit          3D

 24 23  0  0  1  0  0  0  0  0999 V2000
    9.6897  -17.2861   16.9629 N   0  0  0  0  0  0  0  0  0  0  0  0
    8.9880  -17.8935   18.0766 C   0  0  1  0  0  0  0  0  0  0  0  0
    9.5360  -19.2329   18.4452 C   0  0  0  0  0  0  0  0  0  0  0  0
    9.3686  -20.1451   17.2854 C   0  0  0  0  0  0  0  0  0  0  0  0
   10.0206  -19.9929   16.2371 O   0  0  0  0  0  0  0  0  0  0  0  0
    8.8846  -16.9688   19.2318 C   0  0  0  0  0  0  0  0  0  0  0  0
    9.9652  -16.6081   19.7787 O   0  0  0  0  0  0  0  0  0  0  0  0
    8.4652  -21.1932   17.3675 O   0  0  0  0  0  0  0  0  0  0  0  0
    5.4813  -16.2896   21.3580 O   0  0  0  0  0  0  0  0  0  0  0  0
    6.2628  -15.1610   21.1305 C   0  0  0  0  0  0  0  0  0  0  0  0
    7.6994  -15.6506   20.9348 C   0  0  2  0  0  0  0  0  0  0  0  0
    7.6786  -16.4762   19.7483 N   0  0  0  0  0  0  0  0  0  0  0  0
    8.0570  -16.4100   22.1494 C   0  0  0  0  0  0  0  0  0  0  0  0
    8.1773  -17.6565   22.0552 O   0  0  0  0  0  0  0  0  0  0  0  0
   12.4746  -17.9379   22.3440 N   0  0  0  0  0  0  0  0  0  0  0  0
   12.9159  -17.0151   23.3468 C   0  0  0  0  0  0  0  0  0  0  0  0
   14.1080  -17.1671   23.7374 O   0  0  0  0  0  0  0  0  0  0  0  0
   12.0507  -15.9470   23.8940 C   0  0  0  0  0  0  0  0  0  0  0  0
   10.6989  -15.8906   23.3135 C   0  0  0  0  0  0  0  0  0  0  0  0
    9.5213  -16.0484   24.1937 C   0  0  2  0  0  0  0  0  0  0  0  0
    8.2758  -15.8320   23.4219 N   0  0  0  0  0  0  0  0  0  0  0  0
    9.4744  -15.3477   25.4718 C   0  0  0  0  0  0  0  0  0  0  0  0
    8.5766  -14.2808   25.7058 O   0  0  0  0  0  0  0  0  0  0  0  0
   10.2037  -15.6025   26.4825 O   0  0  0  0  0  0  0  0  0  0  0  0
  2  1  1  6
  2  3  1  0
  3  4  1  0
  4  8  1  0
  5  4  2  0
  6  2  1  0
  7  6  2  0
  9 10  1  0
 11 10  1  1
 11 13  1  0
 11 12  1  0
 12  6  1  0
 13 21  1  0
 14 13  2  0
 16 18  1  0
 16 15  1  0
 17 16  2  0
 19 18  1  0
 20 19  1  6
 21 20  1  0
 22 23  1  0
 22 20  1  0
 24 22  2  0
M  END
$$$$
