DSQ.pdb
     RDKit          3D

 24 23  0  0  1  0  0  0  0  0999 V2000
   10.5731  -18.2744   16.0658 N   0  0  0  0  0  0  0  0  0  0  0  0
   11.6720  -17.4147   16.4592 C   0  0  1  0  0  0  0  0  0  0  0  0
   12.1279  -16.5163   15.3569 C   0  0  0  0  0  0  0  0  0  0  0  0
   12.3843  -17.3442   14.1510 C   0  0  0  0  0  0  0  0  0  0  0  0
   12.7631  -18.5257   14.2400 O   0  0  0  0  0  0  0  0  0  0  0  0
   11.3784  -16.6881   17.7187 C   0  0  0  0  0  0  0  0  0  0  0  0
   12.2825  -15.9287   18.1690 O   0  0  0  0  0  0  0  0  0  0  0  0
   12.1986  -16.7920   12.8932 O   0  0  0  0  0  0  0  0  0  0  0  0
    8.3559  -15.4536   21.2111 O   0  0  0  0  0  0  0  0  0  0  0  0
    8.5536  -16.2323   20.0750 C   0  0  0  0  0  0  0  0  0  0  0  0
   10.0149  -16.0459   19.6606 C   0  0  2  0  0  0  0  0  0  0  0  0
   10.1762  -16.7898   18.4316 N   0  0  0  0  0  0  0  0  0  0  0  0
   10.8390  -16.5823   20.7619 C   0  0  0  0  0  0  0  0  0  0  0  0
   11.0514  -17.8196   20.7950 O   0  0  0  0  0  0  0  0  0  0  0  0
   16.4027  -17.8171   23.8336 N   0  0  0  0  0  0  0  0  0  0  0  0
   15.7740  -16.5872   23.4541 C   0  0  0  0  0  0  0  0  0  0  0  0
   16.3959  -15.9029   22.5927 O   0  0  0  0  0  0  0  0  0  0  0  0
   14.4820  -16.1368   24.0170 C   0  0  0  0  0  0  0  0  0  0  0  0
   13.5007  -15.6799   23.0192 C   0  0  0  0  0  0  0  0  0  0  0  0
   12.2076  -16.3862   22.8932 C   0  0  2  0  0  0  0  0  0  0  0  0
   11.4116  -15.7986   21.7911 N   0  0  0  0  0  0  0  0  0  0  0  0
   11.3839  -16.6038   24.0768 C   0  0  0  0  0  0  0  0  0  0  0  0
   11.7245  -17.5642   25.0571 O   0  0  0  0  0  0  0  0  0  0  0  0
   10.3090  -15.9827   24.3546 O   0  0  0  0  0  0  0  0  0  0  0  0
  2  1  1  6
  2  3  1  0
  3  4  1  0
  4  8  1  0
  5  4  2  0
  6  2  1  0
  7  6  2  0
  9 10  1  0
 11 10  1  1
 11 13  1  0
 11 12  1  0
 12  6  1  0
 13 21  1  0
 14 13  2  0
 16 18  1  0
 16 15  1  0
 17 16  2  0
 19 18  1  0
 20 19  1  1
 21 20  1  0
 22 23  1  0
 22 20  1  0
 24 22  2  0
M  END
$$$$
