DSQ.pdb
     RDKit          3D

 24 23  0  0  1  0  0  0  0  0999 V2000
    9.9349  -15.8699   17.5875 N   0  0  0  0  0  0  0  0  0  0  0  0
    9.8154  -16.7654   18.7213 C   0  0  1  0  0  0  0  0  0  0  0  0
   11.0800  -17.5050   19.0110 C   0  0  0  0  0  0  0  0  0  0  0  0
   11.4891  -18.2358   17.7846 C   0  0  0  0  0  0  0  0  0  0  0  0
   10.6576  -18.8155   17.0635 O   0  0  0  0  0  0  0  0  0  0  0  0
    9.2588  -16.0756   19.9107 C   0  0  0  0  0  0  0  0  0  0  0  0
   10.0440  -15.3321   20.5646 O   0  0  0  0  0  0  0  0  0  0  0  0
   12.8285  -18.2761   17.4302 O   0  0  0  0  0  0  0  0  0  0  0  0
    5.5189  -16.7081   21.3284 O   0  0  0  0  0  0  0  0  0  0  0  0
    5.9862  -15.4039   21.4572 C   0  0  0  0  0  0  0  0  0  0  0  0
    7.5122  -15.4872   21.5373 C   0  0  2  0  0  0  0  0  0  0  0  0
    7.9332  -16.1953   20.3493 N   0  0  0  0  0  0  0  0  0  0  0  0
    7.8315  -16.2198   22.7787 C   0  0  0  0  0  0  0  0  0  0  0  0
    8.3337  -17.3664   22.6779 O   0  0  0  0  0  0  0  0  0  0  0  0
    7.3843  -13.2287   27.8176 N   0  0  0  0  0  0  0  0  0  0  0  0
    8.6121  -13.3673   27.0928 C   0  0  0  0  0  0  0  0  0  0  0  0
    9.3554  -12.3453   27.0837 O   0  0  0  0  0  0  0  0  0  0  0  0
    9.0022  -14.6162   26.4022 C   0  0  0  0  0  0  0  0  0  0  0  0
    8.0076  -15.6989   26.4777 C   0  0  0  0  0  0  0  0  0  0  0  0
    7.7738  -16.5566   25.2961 C   0  0  2  0  0  0  0  0  0  0  0  0
    7.6116  -15.7209   24.0840 N   0  0  0  0  0  0  0  0  0  0  0  0
    6.7596  -17.6031   25.3510 C   0  0  0  0  0  0  0  0  0  0  0  0
    5.6192  -17.5820   24.5152 O   0  0  0  0  0  0  0  0  0  0  0  0
    6.7802  -18.6137   26.1232 O   0  0  0  0  0  0  0  0  0  0  0  0
  2  1  1  6
  2  3  1  0
  3  4  1  0
  4  8  1  0
  5  4  2  0
  6  2  1  0
  7  6  2  0
  9 10  1  0
 11 10  1  6
 11 13  1  0
 11 12  1  0
 12  6  1  0
 13 21  1  0
 14 13  2  0
 16 18  1  0
 16 15  1  0
 17 16  2  0
 19 18  1  0
 20 19  1  1
 21 20  1  0
 22 23  1  0
 22 20  1  0
 24 22  2  0
M  END
$$$$
