DSQ.pdb
     RDKit          3D

 24 23  0  0  1  0  0  0  0  0999 V2000
   11.3581  -19.5190   17.0639 N   0  0  0  0  0  0  0  0  0  0  0  0
   12.4405  -18.6275   17.4317 C   0  0  1  0  0  0  0  0  0  0  0  0
   12.9856  -17.8672   16.2676 C   0  0  0  0  0  0  0  0  0  0  0  0
   13.5968  -18.8331   15.3195 C   0  0  0  0  0  0  0  0  0  0  0  0
   13.4539  -20.0610   15.4575 O   0  0  0  0  0  0  0  0  0  0  0  0
   12.0717  -17.7568   18.5746 C   0  0  0  0  0  0  0  0  0  0  0  0
   12.9308  -16.9115   18.9546 O   0  0  0  0  0  0  0  0  0  0  0  0
   14.3456  -18.3603   14.2532 O   0  0  0  0  0  0  0  0  0  0  0  0
    8.8452  -18.3397   21.0435 O   0  0  0  0  0  0  0  0  0  0  0  0
    9.1274  -17.0238   20.6900 C   0  0  0  0  0  0  0  0  0  0  0  0
   10.6279  -16.9574   20.3963 C   0  0  2  0  0  0  0  0  0  0  0  0
   10.8457  -17.8121   19.2509 N   0  0  0  0  0  0  0  0  0  0  0  0
   11.3182  -17.4434   21.6075 C   0  0  0  0  0  0  0  0  0  0  0  0
   11.6480  -18.6542   21.6563 O   0  0  0  0  0  0  0  0  0  0  0  0
   17.5407  -17.1787   23.5722 N   0  0  0  0  0  0  0  0  0  0  0  0
   16.3979  -16.3672   23.8677 C   0  0  0  0  0  0  0  0  0  0  0  0
   16.5684  -15.1218   23.7382 O   0  0  0  0  0  0  0  0  0  0  0  0
   15.0975  -16.9321   24.2904 C   0  0  0  0  0  0  0  0  0  0  0  0
   13.9679  -16.6104   23.4029 C   0  0  0  0  0  0  0  0  0  0  0  0
   12.6069  -17.0623   23.7635 C   0  0  2  0  0  0  0  0  0  0  0  0
   11.6380  -16.6389   22.7263 N   0  0  0  0  0  0  0  0  0  0  0  0
   12.0892  -16.8025   25.1018 C   0  0  0  0  0  0  0  0  0  0  0  0
   10.8964  -16.0730   25.3122 O   0  0  0  0  0  0  0  0  0  0  0  0
   12.6260  -17.1846   26.1899 O   0  0  0  0  0  0  0  0  0  0  0  0
  2  1  1  6
  2  3  1  0
  3  4  1  0
  4  8  1  0
  5  4  2  0
  6  2  1  0
  7  6  2  0
  9 10  1  0
 11 10  1  1
 11 13  1  0
 11 12  1  0
 12  6  1  0
 13 21  1  0
 14 13  2  0
 16 18  1  0
 16 15  1  0
 17 16  2  0
 19 18  1  0
 20 19  1  6
 21 20  1  0
 22 23  1  0
 22 20  1  0
 24 22  2  0
M  END
$$$$
