DSQ.pdb
     RDKit          3D

 24 23  0  0  1  0  0  0  0  0999 V2000
   12.9183  -17.4380   18.7370 N   0  0  0  0  0  0  0  0  0  0  0  0
   12.7490  -18.1122   20.0092 C   0  0  1  0  0  0  0  0  0  0  0  0
   14.0287  -18.6617   20.5483 C   0  0  0  0  0  0  0  0  0  0  0  0
   14.6598  -19.5009   19.4982 C   0  0  0  0  0  0  0  0  0  0  0  0
   14.1048  -19.7013   18.4032 O   0  0  0  0  0  0  0  0  0  0  0  0
   12.0205  -17.2674   20.9868 C   0  0  0  0  0  0  0  0  0  0  0  0
   12.6513  -16.2944   21.4892 O   0  0  0  0  0  0  0  0  0  0  0  0
   15.8972  -20.0772   19.7387 O   0  0  0  0  0  0  0  0  0  0  0  0
    8.3902  -18.2149   22.3795 O   0  0  0  0  0  0  0  0  0  0  0  0
    8.5937  -16.8410   22.2956 C   0  0  0  0  0  0  0  0  0  0  0  0
   10.1045  -16.6122   22.3805 C   0  0  2  0  0  0  0  0  0  0  0  0
   10.6930  -17.4778   21.3834 N   0  0  0  0  0  0  0  0  0  0  0  0
   10.5103  -16.9696   23.7543 C   0  0  0  0  0  0  0  0  0  0  0  0
   11.0784  -18.0747   23.9360 O   0  0  0  0  0  0  0  0  0  0  0  0
   10.4398  -13.1491   28.9340 N   0  0  0  0  0  0  0  0  0  0  0  0
   10.7148  -14.4492   29.4691 C   0  0  0  0  0  0  0  0  0  0  0  0
   10.8028  -14.5103   30.7282 O   0  0  0  0  0  0  0  0  0  0  0  0
   10.8806  -15.6498   28.6208 C   0  0  0  0  0  0  0  0  0  0  0  0
   10.5708  -15.4456   27.1961 C   0  0  0  0  0  0  0  0  0  0  0  0
   10.6517  -16.5892   26.2621 C   0  0  2  0  0  0  0  0  0  0  0  0
   10.3045  -16.1521   24.8903 N   0  0  0  0  0  0  0  0  0  0  0  0
    9.9886  -17.8444   26.5961 C   0  0  0  0  0  0  0  0  0  0  0  0
    8.6486  -18.1023   26.2257 O   0  0  0  0  0  0  0  0  0  0  0  0
   10.5142  -18.8126   27.2321 O   0  0  0  0  0  0  0  0  0  0  0  0
  2  1  1  6
  2  3  1  0
  3  4  1  0
  4  8  1  0
  5  4  2  0
  6  2  1  0
  7  6  2  0
  9 10  1  0
 11 10  1  1
 11 13  1  0
 11 12  1  0
 12  6  1  0
 13 21  1  0
 14 13  2  0
 16 18  1  0
 16 15  1  0
 17 16  2  0
 19 18  1  0
 20 19  1  1
 21 20  1  0
 22 23  1  0
 22 20  1  0
 24 22  2  0
M  END
$$$$
