GFA.pdb
     RDKit          3D

 21 21  0  0  1  0  0  0  0  0999 V2000
    5.6825  -19.1031   20.7762 N   0  0  0  0  0  0  0  0  0  0  0  0
    5.5935  -19.0882   22.2213 C   0  0  0  0  0  0  0  0  0  0  0  0
    6.3134  -17.8996   22.7282 C   0  0  0  0  0  0  0  0  0  0  0  0
    7.0273  -17.1868   21.9554 O   0  0  0  0  0  0  0  0  0  0  0  0
    6.2579  -17.4814   24.0863 N   0  0  0  0  0  0  0  0  0  0  0  0
    7.0070  -16.3656   24.6191 C   0  0  1  0  0  0  0  0  0  0  0  0
    6.2588  -15.6647   25.7148 C   0  0  0  0  0  0  0  0  0  0  0  0
    6.8011  -14.3482   26.0701 C   0  0  0  0  0  0  0  0  0  0  0  0
    6.2803  -13.1582   25.5832 C   0  0  0  0  0  0  0  0  0  0  0  0
    6.8115  -11.9326   25.9343 C   0  0  0  0  0  0  0  0  0  0  0  0
    7.8890  -11.8297   26.7886 C   0  0  0  0  0  0  0  0  0  0  0  0
    8.4127  -13.0080   27.2772 C   0  0  0  0  0  0  0  0  0  0  0  0
    7.8785  -14.2419   26.9242 C   0  0  0  0  0  0  0  0  0  0  0  0
    8.3872  -16.7318   24.9243 C   0  0  0  0  0  0  0  0  0  0  0  0
    8.5822  -17.6536   25.7581 O   0  0  0  0  0  0  0  0  0  0  0  0
   11.8404  -15.9049   23.5585 C   0  0  0  0  0  0  0  0  0  0  0  0
   10.8721  -16.6090   24.5149 C   0  0  2  0  0  0  0  0  0  0  0  0
    9.5327  -16.1304   24.3539 N   0  0  0  0  0  0  0  0  0  0  0  0
   11.4123  -16.4497   25.8785 C   0  0  0  0  0  0  0  0  0  0  0  0
   10.7618  -15.8323   26.7494 O   0  0  0  0  0  0  0  0  0  0  0  0
   12.6420  -16.9777   26.2168 O   0  0  0  0  0  0  0  0  0  0  0  0
  1  2  1  0
  2  3  1  0
  3  4  2  0
  5  6  1  0
  5  3  1  0
  6 14  1  0
  6  7  1  1
  8  7  1  0
  9  8  2  0
 10  9  1  0
 11 10  2  0
 11 12  1  0
 12 13  2  0
 13  8  1  0
 14 15  2  0
 17 16  1  6
 17 19  1  0
 18 14  1  0
 18 17  1  0
 19 20  2  0
 19 21  1  0
M  END
$$$$
