GFA.pdb
     RDKit          3D

 21 21  0  0  1  0  0  0  0  0999 V2000
    4.8469  -18.4047   21.8156 N   0  0  0  0  0  0  0  0  0  0  0  0
    5.2380  -18.3513   23.2086 C   0  0  0  0  0  0  0  0  0  0  0  0
    6.3260  -17.3604   23.3578 C   0  0  0  0  0  0  0  0  0  0  0  0
    6.8507  -16.8052   22.3422 O   0  0  0  0  0  0  0  0  0  0  0  0
    6.8491  -16.9688   24.6209 N   0  0  0  0  0  0  0  0  0  0  0  0
    7.9731  -16.0751   24.7878 C   0  0  1  0  0  0  0  0  0  0  0  0
    7.9178  -15.3493   26.0999 C   0  0  0  0  0  0  0  0  0  0  0  0
    7.3959  -13.9806   26.0117 C   0  0  0  0  0  0  0  0  0  0  0  0
    8.0446  -12.9657   25.3237 C   0  0  0  0  0  0  0  0  0  0  0  0
    7.5302  -11.6856   25.2576 C   0  0  0  0  0  0  0  0  0  0  0  0
    6.3428  -11.3511   25.8737 C   0  0  0  0  0  0  0  0  0  0  0  0
    5.6915  -12.3543   26.5598 C   0  0  0  0  0  0  0  0  0  0  0  0
    6.2088  -13.6428   26.6267 C   0  0  0  0  0  0  0  0  0  0  0  0
    9.2407  -16.7292   24.4753 C   0  0  0  0  0  0  0  0  0  0  0  0
    9.5441  -17.7659   25.1204 O   0  0  0  0  0  0  0  0  0  0  0  0
   11.9916  -16.4138   21.8701 C   0  0  0  0  0  0  0  0  0  0  0  0
   11.3829  -16.9605   23.1657 C   0  0  2  0  0  0  0  0  0  0  0  0
   10.1628  -16.2895   23.4978 N   0  0  0  0  0  0  0  0  0  0  0  0
   12.4240  -16.8746   24.2074 C   0  0  0  0  0  0  0  0  0  0  0  0
   13.5393  -17.4123   24.0342 O   0  0  0  0  0  0  0  0  0  0  0  0
   12.1868  -16.2012   25.3888 O   0  0  0  0  0  0  0  0  0  0  0  0
  1  2  1  0
  2  3  1  0
  3  4  2  0
  5  6  1  0
  5  3  1  0
  6 14  1  0
  6  7  1  1
  8  7  1  0
  9  8  2  0
 10  9  1  0
 11 10  2  0
 11 12  1  0
 12 13  2  0
 13  8  1  0
 14 15  2  0
 17 16  1  6
 17 19  1  0
 18 14  1  0
 18 17  1  0
 19 20  2  0
 19 21  1  0
M  END
$$$$
