GFA.pdb
     RDKit          3D

 21 21  0  0  1  0  0  0  0  0999 V2000
    4.7050  -19.3754   23.3039 N   0  0  0  0  0  0  0  0  0  0  0  0
    5.0516  -18.2771   24.1814 C   0  0  0  0  0  0  0  0  0  0  0  0
    6.1168  -17.4760   23.5399 C   0  0  0  0  0  0  0  0  0  0  0  0
    6.5957  -17.8072   22.4103 O   0  0  0  0  0  0  0  0  0  0  0  0
    6.6670  -16.3050   24.1301 N   0  0  0  0  0  0  0  0  0  0  0  0
    7.7645  -15.5540   23.5632 C   0  0  1  0  0  0  0  0  0  0  0  0
    7.5470  -14.0741   23.6818 C   0  0  0  0  0  0  0  0  0  0  0  0
    7.4121  -13.5920   25.0613 C   0  0  0  0  0  0  0  0  0  0  0  0
    8.4998  -13.3241   25.8795 C   0  0  0  0  0  0  0  0  0  0  0  0
    8.3431  -12.8715   27.1750 C   0  0  0  0  0  0  0  0  0  0  0  0
    7.0945  -12.6627   27.7217 C   0  0  0  0  0  0  0  0  0  0  0  0
    6.0079  -12.9268   26.9149 C   0  0  0  0  0  0  0  0  0  0  0  0
    6.1650  -13.3823   25.6110 C   0  0  0  0  0  0  0  0  0  0  0  0
    9.0588  -16.0462   24.0270 C   0  0  0  0  0  0  0  0  0  0  0  0
    9.1174  -16.5619   25.1731 O   0  0  0  0  0  0  0  0  0  0  0  0
   12.3403  -16.8795   22.3377 C   0  0  0  0  0  0  0  0  0  0  0  0
   11.4288  -16.7721   23.5648 C   0  0  2  0  0  0  0  0  0  0  0  0
   10.2621  -15.9908   23.2866 N   0  0  0  0  0  0  0  0  0  0  0  0
   12.2515  -16.2573   24.6759 C   0  0  0  0  0  0  0  0  0  0  0  0
   11.9529  -15.1824   25.2401 O   0  0  0  0  0  0  0  0  0  0  0  0
   13.3626  -16.9507   25.1119 O   0  0  0  0  0  0  0  0  0  0  0  0
  1  2  1  0
  2  3  1  0
  3  4  2  0
  5  6  1  0
  5  3  1  0
  6 14  1  0
  6  7  1  1
  8  7  1  0
  9  8  2  0
 10  9  1  0
 11 10  2  0
 11 12  1  0
 12 13  2  0
 13  8  1  0
 14 15  2  0
 17 16  1  6
 17 19  1  0
 18 14  1  0
 18 17  1  0
 19 20  2  0
 19 21  1  0
M  END
$$$$
