GFA.pdb
     RDKit          3D

 21 21  0  0  1  0  0  0  0  0999 V2000
    9.9851  -17.5404   17.3514 N   0  0  0  0  0  0  0  0  0  0  0  0
    9.1723  -17.8295   18.5142 C   0  0  0  0  0  0  0  0  0  0  0  0
    9.7694  -17.1574   19.6888 C   0  0  0  0  0  0  0  0  0  0  0  0
   10.8992  -16.5809   19.6100 O   0  0  0  0  0  0  0  0  0  0  0  0
    9.1342  -17.1109   20.9603 N   0  0  0  0  0  0  0  0  0  0  0  0
    9.6394  -16.3615   22.0886 C   0  0  1  0  0  0  0  0  0  0  0  0
    8.5951  -15.4515   22.6657 C   0  0  0  0  0  0  0  0  0  0  0  0
    8.0937  -14.4379   21.7303 C   0  0  0  0  0  0  0  0  0  0  0  0
    8.7282  -13.2226   21.5191 C   0  0  0  0  0  0  0  0  0  0  0  0
    8.2331  -12.2864   20.6325 C   0  0  0  0  0  0  0  0  0  0  0  0
    7.0802  -12.5133   19.9107 C   0  0  0  0  0  0  0  0  0  0  0  0
    6.4432  -13.7191   20.1149 C   0  0  0  0  0  0  0  0  0  0  0  0
    6.9411  -14.6617   21.0071 C   0  0  0  0  0  0  0  0  0  0  0  0
   10.3352  -17.2184   23.0446 C   0  0  0  0  0  0  0  0  0  0  0  0
    9.7382  -18.2453   23.4595 O   0  0  0  0  0  0  0  0  0  0  0  0
   13.8249  -17.4887   24.5309 C   0  0  0  0  0  0  0  0  0  0  0  0
   12.3463  -17.8747   24.4165 C   0  0  2  0  0  0  0  0  0  0  0  0
   11.6368  -16.9871   23.5461 N   0  0  0  0  0  0  0  0  0  0  0  0
   11.8049  -17.9398   25.7873 C   0  0  0  0  0  0  0  0  0  0  0  0
   10.8616  -17.1952   26.1318 O   0  0  0  0  0  0  0  0  0  0  0  0
   12.3280  -18.8213   26.7118 O   0  0  0  0  0  0  0  0  0  0  0  0
  1  2  1  0
  2  3  1  0
  3  4  2  0
  5  6  1  0
  5  3  1  0
  6 14  1  0
  6  7  1  1
  8  7  1  0
  9  8  2  0
 10  9  1  0
 11 10  2  0
 11 12  1  0
 12 13  2  0
 13  8  1  0
 14 15  2  0
 17 16  1  1
 17 19  1  0
 18 14  1  0
 18 17  1  0
 19 20  2  0
 19 21  1  0
M  END
$$$$
