GFA.pdb
     RDKit          3D

 21 21  0  0  1  0  0  0  0  0999 V2000
    9.5171  -17.4580   19.7312 N   0  0  0  0  0  0  0  0  0  0  0  0
    8.5295  -17.6451   20.7734 C   0  0  0  0  0  0  0  0  0  0  0  0
    8.7898  -16.6691   21.8539 C   0  0  0  0  0  0  0  0  0  0  0  0
    9.8525  -15.9722   21.8655 O   0  0  0  0  0  0  0  0  0  0  0  0
    7.8885  -16.4478   22.9314 N   0  0  0  0  0  0  0  0  0  0  0  0
    8.1584  -15.5615   24.0411 C   0  0  1  0  0  0  0  0  0  0  0  0
    6.9075  -14.9045   24.5464 C   0  0  0  0  0  0  0  0  0  0  0  0
    7.1272  -13.9410   25.6313 C   0  0  0  0  0  0  0  0  0  0  0  0
    7.4271  -12.6051   25.4084 C   0  0  0  0  0  0  0  0  0  0  0  0
    7.6296  -11.7202   26.4494 C   0  0  0  0  0  0  0  0  0  0  0  0
    7.5435  -12.1210   27.7659 C   0  0  0  0  0  0  0  0  0  0  0  0
    7.2458  -13.4475   27.9962 C   0  0  0  0  0  0  0  0  0  0  0  0
    7.0419  -14.3387   26.9490 C   0  0  0  0  0  0  0  0  0  0  0  0
    8.9976  -16.1959   25.0538 C   0  0  0  0  0  0  0  0  0  0  0  0
    8.6059  -17.2854   25.5462 O   0  0  0  0  0  0  0  0  0  0  0  0
   12.5862  -15.9388   26.1393 C   0  0  0  0  0  0  0  0  0  0  0  0
   11.1417  -16.3979   26.3651 C   0  0  2  0  0  0  0  0  0  0  0  0
   10.2257  -15.6819   25.5301 N   0  0  0  0  0  0  0  0  0  0  0  0
   10.8660  -16.2770   27.8093 C   0  0  0  0  0  0  0  0  0  0  0  0
   11.5728  -16.8849   28.6422 O   0  0  0  0  0  0  0  0  0  0  0  0
    9.8258  -15.4930   28.2663 O   0  0  0  0  0  0  0  0  0  0  0  0
  1  2  1  0
  2  3  1  0
  3  4  2  0
  5  6  1  0
  5  3  1  0
  6 14  1  0
  6  7  1  1
  8  7  1  0
  9  8  2  0
 10  9  1  0
 11 10  2  0
 11 12  1  0
 12 13  2  0
 13  8  1  0
 14 15  2  0
 17 16  1  1
 17 19  1  0
 18 14  1  0
 18 17  1  0
 19 20  2  0
 19 21  1  0
M  END
$$$$
