GFA.pdb
     RDKit          3D

 21 21  0  0  1  0  0  0  0  0999 V2000
    5.3890  -19.3183   21.0438 N   0  0  0  0  0  0  0  0  0  0  0  0
    5.3890  -19.2357   22.4893 C   0  0  0  0  0  0  0  0  0  0  0  0
    6.1167  -18.0133   22.8942 C   0  0  0  0  0  0  0  0  0  0  0  0
    6.7255  -17.2989   22.0374 O   0  0  0  0  0  0  0  0  0  0  0  0
    6.1841  -17.5625   24.2413 N   0  0  0  0  0  0  0  0  0  0  0  0
    6.9069  -16.3837   24.6634 C   0  0  1  0  0  0  0  0  0  0  0  0
    6.2569  -15.7248   25.8444 C   0  0  0  0  0  0  0  0  0  0  0  0
    6.8228  -14.4165   26.1933 C   0  0  0  0  0  0  0  0  0  0  0  0
    7.8722  -14.2594   27.0868 C   0  0  0  0  0  0  0  0  0  0  0  0
    8.3849  -13.0150   27.3972 C   0  0  0  0  0  0  0  0  0  0  0  0
    7.8781  -11.8632   26.8332 C   0  0  0  0  0  0  0  0  0  0  0  0
    6.8347  -12.0107   25.9438 C   0  0  0  0  0  0  0  0  0  0  0  0
    6.3183  -13.2628   25.6310 C   0  0  0  0  0  0  0  0  0  0  0  0
    8.3398  -16.6375   24.7850 C   0  0  0  0  0  0  0  0  0  0  0  0
    8.7134  -17.5435   25.5740 O   0  0  0  0  0  0  0  0  0  0  0  0
   11.4321  -15.6962   22.8105 C   0  0  0  0  0  0  0  0  0  0  0  0
   10.7172  -16.3594   23.9926 C   0  0  2  0  0  0  0  0  0  0  0  0
    9.3507  -15.9426   24.0819 N   0  0  0  0  0  0  0  0  0  0  0  0
   11.5165  -16.0773   25.2001 C   0  0  0  0  0  0  0  0  0  0  0  0
   11.0337  -15.4041   26.1363 O   0  0  0  0  0  0  0  0  0  0  0  0
   12.8081  -16.5500   25.3181 O   0  0  0  0  0  0  0  0  0  0  0  0
  1  2  1  0
  2  3  1  0
  3  4  2  0
  5  6  1  0
  5  3  1  0
  6 14  1  0
  6  7  1  1
  8  7  1  0
  9  8  2  0
 10  9  1  0
 11 10  2  0
 11 12  1  0
 12 13  2  0
 13  8  1  0
 14 15  2  0
 17 16  1  6
 17 19  1  0
 18 14  1  0
 18 17  1  0
 19 20  2  0
 19 21  1  0
M  END
$$$$
