GFA.pdb
     RDKit          3D

 21 21  0  0  1  0  0  0  0  0999 V2000
    9.5394  -16.7871   19.0166 N   0  0  0  0  0  0  0  0  0  0  0  0
    8.3037  -16.5244   19.7239 C   0  0  0  0  0  0  0  0  0  0  0  0
    8.6275  -15.9307   21.0394 C   0  0  0  0  0  0  0  0  0  0  0  0
    9.8187  -15.9282   21.4820 O   0  0  0  0  0  0  0  0  0  0  0  0
    7.6492  -15.3343   21.8818 N   0  0  0  0  0  0  0  0  0  0  0  0
    7.9446  -14.7341   23.1634 C   0  0  1  0  0  0  0  0  0  0  0  0
    6.9059  -13.7261   23.5591 C   0  0  0  0  0  0  0  0  0  0  0  0
    7.0820  -13.1750   24.9078 C   0  0  0  0  0  0  0  0  0  0  0  0
    8.0682  -12.2529   25.2262 C   0  0  0  0  0  0  0  0  0  0  0  0
    8.2112  -11.7512   26.5050 C   0  0  0  0  0  0  0  0  0  0  0  0
    7.3788  -12.1425   27.5324 C   0  0  0  0  0  0  0  0  0  0  0  0
    6.3957  -13.0590   27.2242 C   0  0  0  0  0  0  0  0  0  0  0  0
    6.2512  -13.5643   25.9373 C   0  0  0  0  0  0  0  0  0  0  0  0
    8.2748  -15.7371   24.1719 C   0  0  0  0  0  0  0  0  0  0  0  0
    7.3760  -16.5489   24.5128 O   0  0  0  0  0  0  0  0  0  0  0  0
   11.2859  -17.5060   25.3211 C   0  0  0  0  0  0  0  0  0  0  0  0
    9.9008  -16.9504   25.6691 C   0  0  2  0  0  0  0  0  0  0  0  0
    9.5334  -15.8725   24.8019 N   0  0  0  0  0  0  0  0  0  0  0  0
    9.9197  -16.5962   27.1010 C   0  0  0  0  0  0  0  0  0  0  0  0
    9.7436  -15.4126   27.4632 O   0  0  0  0  0  0  0  0  0  0  0  0
   10.1315  -17.5618   28.0645 O   0  0  0  0  0  0  0  0  0  0  0  0
  1  2  1  0
  2  3  1  0
  3  4  2  0
  5  6  1  0
  5  3  1  0
  6 14  1  0
  6  7  1  1
  8  7  1  0
  9  8  2  0
 10  9  1  0
 11 10  2  0
 11 12  1  0
 12 13  2  0
 13  8  1  0
 14 15  2  0
 17 16  1  6
 17 19  1  0
 18 14  1  0
 18 17  1  0
 19 20  2  0
 19 21  1  0
M  END
$$$$
