GFA.pdb
     RDKit          3D

 21 21  0  0  1  0  0  0  0  0999 V2000
   10.4997  -17.7178   20.3607 N   0  0  0  0  0  0  0  0  0  0  0  0
    9.4324  -17.8686   21.3275 C   0  0  0  0  0  0  0  0  0  0  0  0
    9.4724  -16.7216   22.2605 C   0  0  0  0  0  0  0  0  0  0  0  0
   10.5432  -16.0618   22.4424 O   0  0  0  0  0  0  0  0  0  0  0  0
    8.3398  -16.2871   23.0027 N   0  0  0  0  0  0  0  0  0  0  0  0
    8.3847  -15.2565   24.0155 C   0  0  1  0  0  0  0  0  0  0  0  0
    7.1131  -14.4610   24.0577 C   0  0  0  0  0  0  0  0  0  0  0  0
    7.0752  -13.4380   25.1091 C   0  0  0  0  0  0  0  0  0  0  0  0
    7.8617  -12.2956   25.0829 C   0  0  0  0  0  0  0  0  0  0  0  0
    7.8057  -11.3491   26.0871 C   0  0  0  0  0  0  0  0  0  0  0  0
    6.9630  -11.4923   27.1692 C   0  0  0  0  0  0  0  0  0  0  0  0
    6.1777  -12.6252   27.2029 C   0  0  0  0  0  0  0  0  0  0  0  0
    6.2336  -13.5782   26.1925 C   0  0  0  0  0  0  0  0  0  0  0  0
    8.8552  -15.7727   25.2980 C   0  0  0  0  0  0  0  0  0  0  0  0
    8.2224  -16.7283   25.8170 O   0  0  0  0  0  0  0  0  0  0  0  0
   12.1030  -15.7929   27.1130 C   0  0  0  0  0  0  0  0  0  0  0  0
   10.5774  -15.9351   27.1323 C   0  0  2  0  0  0  0  0  0  0  0  0
    9.9741  -15.2828   26.0101 N   0  0  0  0  0  0  0  0  0  0  0  0
   10.1097  -15.4432   28.4422 C   0  0  0  0  0  0  0  0  0  0  0  0
   10.4926  -15.9915   29.4984 O   0  0  0  0  0  0  0  0  0  0  0  0
    9.2433  -14.3717   28.5256 O   0  0  0  0  0  0  0  0  0  0  0  0
  1  2  1  0
  2  3  1  0
  3  4  2  0
  5  6  1  0
  5  3  1  0
  6 14  1  0
  6  7  1  1
  8  7  1  0
  9  8  2  0
 10  9  1  0
 11 10  2  0
 11 12  1  0
 12 13  2  0
 13  8  1  0
 14 15  2  0
 17 16  1  1
 17 19  1  0
 18 14  1  0
 18 17  1  0
 19 20  2  0
 19 21  1  0
M  END
$$$$
