GFA.pdb
     RDKit          3D

 21 21  0  0  1  0  0  0  0  0999 V2000
    6.3657  -19.4897   21.2517 N   0  0  0  0  0  0  0  0  0  0  0  0
    6.1565  -19.3152   22.6737 C   0  0  0  0  0  0  0  0  0  0  0  0
    6.7341  -18.0161   23.0819 C   0  0  0  0  0  0  0  0  0  0  0  0
    7.5003  -17.3660   22.3038 O   0  0  0  0  0  0  0  0  0  0  0  0
    6.4777  -17.4175   24.3461 N   0  0  0  0  0  0  0  0  0  0  0  0
    7.1283  -16.2156   24.8176 C   0  0  1  0  0  0  0  0  0  0  0  0
    6.1779  -15.3218   25.5588 C   0  0  0  0  0  0  0  0  0  0  0  0
    6.7577  -14.0415   25.9811 C   0  0  0  0  0  0  0  0  0  0  0  0
    7.1673  -13.7882   27.2820 C   0  0  0  0  0  0  0  0  0  0  0  0
    7.7096  -12.5729   27.6516 C   0  0  0  0  0  0  0  0  0  0  0  0
    7.8715  -11.5475   26.7439 C   0  0  0  0  0  0  0  0  0  0  0  0
    7.4667  -11.7912   25.4484 C   0  0  0  0  0  0  0  0  0  0  0  0
    6.9209  -13.0142   25.0758 C   0  0  0  0  0  0  0  0  0  0  0  0
    8.3876  -16.5080   25.4966 C   0  0  0  0  0  0  0  0  0  0  0  0
    8.3687  -17.3367   26.4431 O   0  0  0  0  0  0  0  0  0  0  0  0
   12.0675  -15.8719   24.8552 C   0  0  0  0  0  0  0  0  0  0  0  0
   10.8942  -16.3496   25.7175 C   0  0  2  0  0  0  0  0  0  0  0  0
    9.6377  -15.9316   25.1740 N   0  0  0  0  0  0  0  0  0  0  0  0
   11.1448  -15.8810   27.0937 C   0  0  0  0  0  0  0  0  0  0  0  0
   10.3530  -15.0871   27.6466 O   0  0  0  0  0  0  0  0  0  0  0  0
   12.2545  -16.3091   27.7943 O   0  0  0  0  0  0  0  0  0  0  0  0
  1  2  1  0
  2  3  1  0
  3  4  2  0
  5  6  1  0
  5  3  1  0
  6 14  1  0
  6  7  1  1
  8  7  1  0
  9  8  2  0
 10  9  1  0
 11 10  2  0
 11 12  1  0
 12 13  2  0
 13  8  1  0
 14 15  2  0
 17 16  1  6
 17 19  1  0
 18 14  1  0
 18 17  1  0
 19 20  2  0
 19 21  1  0
M  END
$$$$
