GFA.pdb
     RDKit          3D

 21 21  0  0  1  0  0  0  0  0999 V2000
    6.5433  -15.1842   19.9826 N   0  0  0  0  0  0  0  0  0  0  0  0
    6.1582  -15.8218   21.2242 C   0  0  0  0  0  0  0  0  0  0  0  0
    7.1357  -15.4511   22.2705 C   0  0  0  0  0  0  0  0  0  0  0  0
    8.1830  -14.7905   21.9845 O   0  0  0  0  0  0  0  0  0  0  0  0
    6.9748  -15.8008   23.6395 N   0  0  0  0  0  0  0  0  0  0  0  0
    7.9567  -15.5255   24.6642 C   0  0  1  0  0  0  0  0  0  0  0  0
    7.3138  -15.1085   25.9543 C   0  0  0  0  0  0  0  0  0  0  0  0
    7.0264  -13.6726   26.0495 C   0  0  0  0  0  0  0  0  0  0  0  0
    7.8322  -12.6995   25.4768 C   0  0  0  0  0  0  0  0  0  0  0  0
    7.5376  -11.3543   25.5828 C   0  0  0  0  0  0  0  0  0  0  0  0
    6.4247  -10.9096   26.2649 C   0  0  0  0  0  0  0  0  0  0  0  0
    5.6183  -11.8706   26.8372 C   0  0  0  0  0  0  0  0  0  0  0  0
    5.9144  -13.2247   26.7309 C   0  0  0  0  0  0  0  0  0  0  0  0
    8.9530  -16.5885   24.7642 C   0  0  0  0  0  0  0  0  0  0  0  0
    8.5496  -17.7528   25.0185 O   0  0  0  0  0  0  0  0  0  0  0  0
   12.5782  -17.0606   23.8152 C   0  0  0  0  0  0  0  0  0  0  0  0
   11.3022  -17.4795   24.5531 C   0  0  2  0  0  0  0  0  0  0  0  0
   10.3462  -16.4151   24.5963 N   0  0  0  0  0  0  0  0  0  0  0  0
   11.7097  -17.9817   25.8790 C   0  0  0  0  0  0  0  0  0  0  0  0
   11.2858  -17.4359   26.9208 O   0  0  0  0  0  0  0  0  0  0  0  0
   12.5637  -19.0601   25.9937 O   0  0  0  0  0  0  0  0  0  0  0  0
  1  2  1  0
  2  3  1  0
  3  4  2  0
  5  6  1  0
  5  3  1  0
  6 14  1  0
  6  7  1  1
  8  7  1  0
  9  8  2  0
 10  9  1  0
 11 10  2  0
 11 12  1  0
 12 13  2  0
 13  8  1  0
 14 15  2  0
 17 16  1  1
 17 19  1  0
 18 14  1  0
 18 17  1  0
 19 20  2  0
 19 21  1  0
M  END
$$$$
