GFA.pdb
     RDKit          3D

 21 21  0  0  1  0  0  0  0  0999 V2000
   10.6007  -17.5679   20.5286 N   0  0  0  0  0  0  0  0  0  0  0  0
    9.2408  -17.3680   20.9835 C   0  0  0  0  0  0  0  0  0  0  0  0
    9.2586  -16.4460   22.1401 C   0  0  0  0  0  0  0  0  0  0  0  0
   10.3538  -16.0882   22.6762 O   0  0  0  0  0  0  0  0  0  0  0  0
    8.0768  -15.9078   22.7197 N   0  0  0  0  0  0  0  0  0  0  0  0
    8.0697  -15.0069   23.8503 C   0  0  1  0  0  0  0  0  0  0  0  0
    6.9324  -14.0307   23.7777 C   0  0  0  0  0  0  0  0  0  0  0  0
    6.8536  -13.1093   24.9172 C   0  0  0  0  0  0  0  0  0  0  0  0
    5.8847  -13.2077   25.9049 C   0  0  0  0  0  0  0  0  0  0  0  0
    5.8340  -12.3256   26.9665 C   0  0  0  0  0  0  0  0  0  0  0  0
    6.7464  -11.3001   27.0984 C   0  0  0  0  0  0  0  0  0  0  0  0
    7.7130  -11.1952   26.1206 C   0  0  0  0  0  0  0  0  0  0  0  0
    7.7644  -12.0827   25.0519 C   0  0  0  0  0  0  0  0  0  0  0  0
    8.2166  -15.7198   25.1162 C   0  0  0  0  0  0  0  0  0  0  0  0
    8.4298  -15.0411   26.1540 O   0  0  0  0  0  0  0  0  0  0  0  0
    7.5512  -19.1718   26.4842 C   0  0  0  0  0  0  0  0  0  0  0  0
    8.2594  -17.8133   26.5207 C   0  0  2  0  0  0  0  0  0  0  0  0
    8.1372  -17.1227   25.2728 N   0  0  0  0  0  0  0  0  0  0  0  0
    9.6514  -18.0580   26.9436 C   0  0  0  0  0  0  0  0  0  0  0  0
   10.6024  -17.7922   26.1769 O   0  0  0  0  0  0  0  0  0  0  0  0
    9.9287  -18.5833   28.1897 O   0  0  0  0  0  0  0  0  0  0  0  0
  1  2  1  0
  2  3  1  0
  3  4  2  0
  5  6  1  0
  5  3  1  0
  6 14  1  0
  6  7  1  1
  8  7  1  0
  9  8  2  0
 10  9  1  0
 11 10  2  0
 11 12  1  0
 12 13  2  0
 13  8  1  0
 14 15  2  0
 17 16  1  6
 17 19  1  0
 18 14  1  0
 18 17  1  0
 19 20  2  0
 19 21  1  0
M  END
$$$$
