GFA.pdb
     RDKit          3D

 21 21  0  0  1  0  0  0  0  0999 V2000
   10.1830  -17.5766   20.2017 N   0  0  0  0  0  0  0  0  0  0  0  0
    9.4053  -17.9702   21.3579 C   0  0  0  0  0  0  0  0  0  0  0  0
    9.3621  -16.8374   22.3080 C   0  0  0  0  0  0  0  0  0  0  0  0
   10.1365  -15.8388   22.1730 O   0  0  0  0  0  0  0  0  0  0  0  0
    8.4702  -16.7882   23.4145 N   0  0  0  0  0  0  0  0  0  0  0  0
    8.3896  -15.6792   24.3384 C   0  0  1  0  0  0  0  0  0  0  0  0
    6.9677  -15.3301   24.6672 C   0  0  0  0  0  0  0  0  0  0  0  0
    6.7950  -14.0017   25.2664 C   0  0  0  0  0  0  0  0  0  0  0  0
    6.1278  -13.7925   26.4645 C   0  0  0  0  0  0  0  0  0  0  0  0
    5.9797  -12.5302   27.0052 C   0  0  0  0  0  0  0  0  0  0  0  0
    6.4887  -11.4116   26.3799 C   0  0  0  0  0  0  0  0  0  0  0  0
    7.1534  -11.6110   25.1883 C   0  0  0  0  0  0  0  0  0  0  0  0
    7.3028  -12.8811   24.6436 C   0  0  0  0  0  0  0  0  0  0  0  0
    9.2820  -15.8554   25.4807 C   0  0  0  0  0  0  0  0  0  0  0  0
    9.9822  -16.8997   25.5265 O   0  0  0  0  0  0  0  0  0  0  0  0
   10.6031  -13.6826   28.2927 C   0  0  0  0  0  0  0  0  0  0  0  0
   10.4336  -15.0188   27.5619 C   0  0  2  0  0  0  0  0  0  0  0  0
    9.4255  -14.9400   26.5487 N   0  0  0  0  0  0  0  0  0  0  0  0
   10.1819  -16.0486   28.5878 C   0  0  0  0  0  0  0  0  0  0  0  0
   11.0488  -16.3088   29.4503 O   0  0  0  0  0  0  0  0  0  0  0  0
    8.9884  -16.7417   28.6145 O   0  0  0  0  0  0  0  0  0  0  0  0
  1  2  1  0
  2  3  1  0
  3  4  2  0
  5  6  1  0
  5  3  1  0
  6 14  1  0
  6  7  1  1
  8  7  1  0
  9  8  2  0
 10  9  1  0
 11 10  2  0
 11 12  1  0
 12 13  2  0
 13  8  1  0
 14 15  2  0
 17 16  1  1
 17 19  1  0
 18 14  1  0
 18 17  1  0
 19 20  2  0
 19 21  1  0
M  END
$$$$
