QQT.pdb
     RDKit          3D

 26 25  0  0  1  0  0  0  0  0999 V2000
   26.4548  -21.6324  -10.8868 N   0  0  0  0  0  0  0  0  0  0  0  0
   27.7037  -21.0138  -11.1630 C   0  0  0  0  0  0  0  0  0  0  0  0
   28.6818  -21.2533  -10.4188 O   0  0  0  0  0  0  0  0  0  0  0  0
   27.7783  -20.1057  -12.3350 C   0  0  0  0  0  0  0  0  0  0  0  0
   26.4115  -20.0312  -12.9924 C   0  0  0  0  0  0  0  0  0  0  0  0
   26.2786  -21.2026  -13.9669 C   0  0  2  0  0  0  0  0  0  0  0  0
   27.2672  -21.1056  -14.9989 N   0  0  0  0  0  0  0  0  0  0  0  0
   24.9205  -21.1497  -14.5630 C   0  0  0  0  0  0  0  0  0  0  0  0
   24.7389  -20.3555  -15.5320 O   0  0  0  0  0  0  0  0  0  0  0  0
   22.9752  -24.8669  -17.4867 N   0  0  0  0  0  0  0  0  0  0  0  0
   21.6138  -24.5629  -17.2247 C   0  0  0  0  0  0  0  0  0  0  0  0
   20.7031  -24.8526  -18.0158 O   0  0  0  0  0  0  0  0  0  0  0  0
   21.2516  -23.8600  -15.9362 C   0  0  0  0  0  0  0  0  0  0  0  0
   22.4954  -23.6224  -15.1400 C   0  0  0  0  0  0  0  0  0  0  0  0
   22.6623  -22.1856  -14.8026 C   0  0  2  0  0  0  0  0  0  0  0  0
   23.8990  -21.9613  -14.0493 N   0  0  0  0  0  0  0  0  0  0  0  0
   21.5260  -21.6144  -14.0298 C   0  0  0  0  0  0  0  0  0  0  0  0
   21.3347  -21.7784  -12.8039 O   0  0  0  0  0  0  0  0  0  0  0  0
   20.0710  -17.9729  -13.6973 C   0  0  0  0  0  0  0  0  0  0  0  0
   19.0544  -18.8957  -14.3221 C   0  0  1  0  0  0  0  0  0  0  0  0
   19.2190  -18.7687  -15.7212 O   0  0  0  0  0  0  0  0  0  0  0  0
   19.3820  -20.3492  -14.0084 C   0  0  2  0  0  0  0  0  0  0  0  0
   20.5485  -20.8090  -14.6887 N   0  0  0  0  0  0  0  0  0  0  0  0
   18.1771  -21.1379  -14.3554 C   0  0  0  0  0  0  0  0  0  0  0  0
   18.1833  -22.0011  -15.2572 O   0  0  0  0  0  0  0  0  0  0  0  0
   17.0071  -20.9100  -13.6572 O   0  0  0  0  0  0  0  0  0  0  0  0
  2  3  2  0
  2  1  1  0
  4  2  1  0
  5  4  1  0
  5  6  1  0
  6  7  1  6
  6  8  1  0
  8  9  2  0
 11 12  2  0
 11 10  1  0
 13 11  1  0
 14 13  1  0
 15 14  1  1
 16  8  1  0
 16 15  1  0
 17 15  1  0
 17 18  2  0
 20 19  1  1
 20 22  1  0
 21 20  1  0
 22 23  1  6
 23 17  1  0
 24 22  1  0
 25 24  2  0
 26 24  1  0
M  END
$$$$
