QQT.pdb
     RDKit          3D

 26 25  0  0  1  0  0  0  0  0999 V2000
   18.0595  -14.9849  -16.6167 N   0  0  0  0  0  0  0  0  0  0  0  0
   19.1844  -15.5683  -17.2593 C   0  0  0  0  0  0  0  0  0  0  0  0
   19.4002  -16.7937  -17.1194 O   0  0  0  0  0  0  0  0  0  0  0  0
   20.0518  -14.6786  -18.0716 C   0  0  0  0  0  0  0  0  0  0  0  0
   19.4653  -13.2779  -18.0699 C   0  0  0  0  0  0  0  0  0  0  0  0
   20.2687  -12.4177  -17.0932 C   0  0  2  0  0  0  0  0  0  0  0  0
   20.1632  -12.9433  -15.7649 N   0  0  0  0  0  0  0  0  0  0  0  0
   19.7169  -11.0407  -17.1359 C   0  0  0  0  0  0  0  0  0  0  0  0
   19.8124  -10.4071  -18.2277 O   0  0  0  0  0  0  0  0  0  0  0  0
   14.5787   -8.9523  -14.8736 N   0  0  0  0  0  0  0  0  0  0  0  0
   15.1771   -7.7132  -15.2214 C   0  0  0  0  0  0  0  0  0  0  0  0
   14.5468   -6.6446  -15.2145 O   0  0  0  0  0  0  0  0  0  0  0  0
   16.6362   -7.6857  -15.6161 C   0  0  0  0  0  0  0  0  0  0  0  0
   17.1682   -9.0837  -15.6274 C   0  0  0  0  0  0  0  0  0  0  0  0
   18.6069   -9.1181  -15.9951 C   0  0  2  0  0  0  0  0  0  0  0  0
   19.1187  -10.4911  -15.9930 N   0  0  0  0  0  0  0  0  0  0  0  0
   19.4720   -8.2880  -15.1135 C   0  0  0  0  0  0  0  0  0  0  0  0
   19.6762   -8.5021  -13.8975 O   0  0  0  0  0  0  0  0  0  0  0  0
   23.0848   -7.6466  -15.3545 C   0  0  0  0  0  0  0  0  0  0  0  0
   22.4315   -6.2877  -15.3947 C   0  0  1  0  0  0  0  0  0  0  0  0
   22.2809   -5.9667  -16.7641 O   0  0  0  0  0  0  0  0  0  0  0  0
   21.0155   -6.3541  -14.8387 C   0  0  2  0  0  0  0  0  0  0  0  0
   20.1452   -7.1464  -15.6446 N   0  0  0  0  0  0  0  0  0  0  0  0
   20.5473   -4.9550  -14.7075 C   0  0  0  0  0  0  0  0  0  0  0  0
   19.6101   -4.4993  -15.3946 O   0  0  0  0  0  0  0  0  0  0  0  0
   21.1694   -4.1266  -13.7936 O   0  0  0  0  0  0  0  0  0  0  0  0
  2  3  2  0
  2  1  1  0
  4  2  1  0
  5  4  1  0
  5  6  1  0
  6  7  1  1
  6  8  1  0
  8  9  2  0
 11 12  2  0
 11 10  1  0
 13 11  1  0
 14 13  1  0
 15 14  1  1
 16  8  1  0
 16 15  1  0
 17 15  1  0
 17 18  2  0
 20 19  1  6
 20 22  1  0
 21 20  1  0
 22 23  1  6
 23 17  1  0
 24 22  1  0
 25 24  2  0
 26 24  1  0
M  END
$$$$
