QQT.pdb
     RDKit          3D

 26 25  0  0  1  0  0  0  0  0999 V2000
   27.5718  -11.2006  -15.8639 N   0  0  0  0  0  0  0  0  0  0  0  0
   27.2607  -12.5867  -15.8394 C   0  0  0  0  0  0  0  0  0  0  0  0
   28.1541  -13.4078  -15.5304 O   0  0  0  0  0  0  0  0  0  0  0  0
   25.8741  -12.9877  -16.1864 C   0  0  0  0  0  0  0  0  0  0  0  0
   25.0318  -11.7397  -16.3841 C   0  0  0  0  0  0  0  0  0  0  0  0
   23.6046  -12.1685  -16.7282 C   0  0  2  0  0  0  0  0  0  0  0  0
   23.5670  -12.7774  -18.0241 N   0  0  0  0  0  0  0  0  0  0  0  0
   22.7475  -10.9569  -16.7153 C   0  0  0  0  0  0  0  0  0  0  0  0
   22.6727  -10.2834  -17.7846 O   0  0  0  0  0  0  0  0  0  0  0  0
   17.3169  -10.4249  -15.3650 N   0  0  0  0  0  0  0  0  0  0  0  0
   17.5621   -9.0432  -15.1519 C   0  0  0  0  0  0  0  0  0  0  0  0
   16.6674   -8.1879  -15.2355 O   0  0  0  0  0  0  0  0  0  0  0  0
   18.9628   -8.5887  -14.8100 C   0  0  0  0  0  0  0  0  0  0  0  0
   19.8838   -9.7669  -14.8457 C   0  0  0  0  0  0  0  0  0  0  0  0
   21.1642   -9.4394  -15.5235 C   0  0  2  0  0  0  0  0  0  0  0  0
   22.0597  -10.5990  -15.5470 N   0  0  0  0  0  0  0  0  0  0  0  0
   21.8899   -8.2919  -14.9140 C   0  0  0  0  0  0  0  0  0  0  0  0
   22.6172   -8.3583  -13.8977 O   0  0  0  0  0  0  0  0  0  0  0  0
   24.0219   -5.6509  -16.9435 C   0  0  0  0  0  0  0  0  0  0  0  0
   23.0194   -4.9482  -16.0624 C   0  0  1  0  0  0  0  0  0  0  0  0
   21.8963   -4.6851  -16.8810 O   0  0  0  0  0  0  0  0  0  0  0  0
   22.5129   -5.8823  -14.9718 C   0  0  2  0  0  0  0  0  0  0  0  0
   21.7831   -6.9914  -15.4934 N   0  0  0  0  0  0  0  0  0  0  0  0
   21.7012   -5.0542  -14.0501 C   0  0  0  0  0  0  0  0  0  0  0  0
   22.1987   -4.1348  -13.3679 O   0  0  0  0  0  0  0  0  0  0  0  0
   20.3476   -5.3085  -13.9421 O   0  0  0  0  0  0  0  0  0  0  0  0
  2  3  2  0
  2  1  1  0
  4  2  1  0
  5  4  1  0
  5  6  1  0
  6  7  1  6
  6  8  1  0
  8  9  2  0
 11 12  2  0
 11 10  1  0
 13 11  1  0
 14 13  1  0
 15 14  1  1
 16  8  1  0
 16 15  1  0
 17 15  1  0
 17 18  2  0
 20 19  1  6
 20 22  1  0
 21 20  1  0
 22 23  1  6
 23 17  1  0
 24 22  1  0
 25 24  2  0
 26 24  1  0
M  END
$$$$
