QQT.pdb
     RDKit          3D

 26 25  0  0  1  0  0  0  0  0999 V2000
   21.3616  -12.9611  -22.2849 N   0  0  0  0  0  0  0  0  0  0  0  0
   20.5158  -13.3390  -21.2077 C   0  0  0  0  0  0  0  0  0  0  0  0
   19.6585  -14.2334  -21.3891 O   0  0  0  0  0  0  0  0  0  0  0  0
   20.6996  -12.6417  -19.9101 C   0  0  0  0  0  0  0  0  0  0  0  0
   21.7637  -11.5701  -20.0694 C   0  0  0  0  0  0  0  0  0  0  0  0
   22.4268  -11.3405  -18.7105 C   0  0  2  0  0  0  0  0  0  0  0  0
   22.2365  -12.4812  -17.8652 N   0  0  0  0  0  0  0  0  0  0  0  0
   21.8011  -10.1450  -18.0924 C   0  0  0  0  0  0  0  0  0  0  0  0
   21.9142   -9.0437  -18.7064 O   0  0  0  0  0  0  0  0  0  0  0  0
   17.1353  -10.4205  -13.9754 N   0  0  0  0  0  0  0  0  0  0  0  0
   17.1818   -9.0306  -14.2593 C   0  0  0  0  0  0  0  0  0  0  0  0
   16.3094   -8.2414  -13.8653 O   0  0  0  0  0  0  0  0  0  0  0  0
   18.3337   -8.4836  -15.0713 C   0  0  0  0  0  0  0  0  0  0  0  0
   19.1607   -9.6219  -15.5792 C   0  0  0  0  0  0  0  0  0  0  0  0
   20.3521   -9.1419  -16.3249 C   0  0  2  0  0  0  0  0  0  0  0  0
   21.1177  -10.2643  -16.8739 N   0  0  0  0  0  0  0  0  0  0  0  0
   21.2678   -8.2952  -15.5129 C   0  0  0  0  0  0  0  0  0  0  0  0
   22.1287   -8.7274  -14.7140 O   0  0  0  0  0  0  0  0  0  0  0  0
   23.8688   -5.8757  -16.5345 C   0  0  0  0  0  0  0  0  0  0  0  0
   22.8926   -5.0945  -15.6908 C   0  0  1  0  0  0  0  0  0  0  0  0
   21.9850   -4.4965  -16.5960 O   0  0  0  0  0  0  0  0  0  0  0  0
   22.0502   -6.0309  -14.8354 C   0  0  2  0  0  0  0  0  0  0  0  0
   21.2016   -6.8726  -15.6142 N   0  0  0  0  0  0  0  0  0  0  0  0
   21.2896   -5.1750  -13.8959 C   0  0  0  0  0  0  0  0  0  0  0  0
   21.8506   -4.4910  -13.0152 O   0  0  0  0  0  0  0  0  0  0  0  0
   19.9125   -5.1326  -13.9981 O   0  0  0  0  0  0  0  0  0  0  0  0
  2  3  2  0
  2  1  1  0
  4  2  1  0
  5  4  1  0
  5  6  1  0
  6  7  1  1
  6  8  1  0
  8  9  2  0
 11 12  2  0
 11 10  1  0
 13 11  1  0
 14 13  1  0
 15 14  1  1
 16  8  1  0
 16 15  1  0
 17 15  1  0
 17 18  2  0
 20 19  1  6
 20 22  1  0
 21 20  1  0
 22 23  1  6
 23 17  1  0
 24 22  1  0
 25 24  2  0
 26 24  1  0
M  END
$$$$
