QQT.pdb
     RDKit          3D

 26 25  0  0  1  0  0  0  0  0999 V2000
   12.0334  -10.8264  -15.7017 N   0  0  0  0  0  0  0  0  0  0  0  0
   13.3895  -11.2504  -15.7077 C   0  0  0  0  0  0  0  0  0  0  0  0
   13.6491  -12.4684  -15.5780 O   0  0  0  0  0  0  0  0  0  0  0  0
   14.4359  -10.2100  -15.8698 C   0  0  0  0  0  0  0  0  0  0  0  0
   14.9569   -9.8131  -14.4997 C   0  0  0  0  0  0  0  0  0  0  0  0
   16.4754   -9.9955  -14.4878 C   0  0  2  0  0  0  0  0  0  0  0  0
   16.8088  -11.3883  -14.4610 N   0  0  0  0  0  0  0  0  0  0  0  0
   17.0069   -9.3264  -13.2744 C   0  0  0  0  0  0  0  0  0  0  0  0
   17.0580  -10.0064  -12.2078 O   0  0  0  0  0  0  0  0  0  0  0  0
   21.4470   -5.1815  -12.8927 N   0  0  0  0  0  0  0  0  0  0  0  0
   21.4912   -6.5767  -13.1496 C   0  0  0  0  0  0  0  0  0  0  0  0
   22.5041   -7.1401  -13.5921 O   0  0  0  0  0  0  0  0  0  0  0  0
   20.2627   -7.4145  -12.8767 C   0  0  0  0  0  0  0  0  0  0  0  0
   19.1455   -6.5204  -12.4410 C   0  0  0  0  0  0  0  0  0  0  0  0
   17.9112   -7.2920  -12.1459 C   0  0  2  0  0  0  0  0  0  0  0  0
   17.4282   -7.9906  -13.3400 N   0  0  0  0  0  0  0  0  0  0  0  0
   16.8017   -6.4641  -11.5994 C   0  0  0  0  0  0  0  0  0  0  0  0
   15.9215   -5.8974  -12.2851 O   0  0  0  0  0  0  0  0  0  0  0  0
   14.1908   -7.3636   -8.8318 C   0  0  0  0  0  0  0  0  0  0  0  0
   14.9888   -6.1520   -8.4192 C   0  0  1  0  0  0  0  0  0  0  0  0
   16.0687   -6.6397   -7.6467 O   0  0  0  0  0  0  0  0  0  0  0  0
   15.6282   -5.4895   -9.6320 C   0  0  2  0  0  0  0  0  0  0  0  0
   16.6852   -6.2681  -10.1900 N   0  0  0  0  0  0  0  0  0  0  0  0
   16.0839   -4.1510   -9.1907 C   0  0  0  0  0  0  0  0  0  0  0  0
   15.2864   -3.2645   -8.8212 O   0  0  0  0  0  0  0  0  0  0  0  0
   17.4374   -3.8747   -9.1882 O   0  0  0  0  0  0  0  0  0  0  0  0
  2  3  2  0
  2  1  1  0
  4  2  1  0
  5  4  1  0
  5  6  1  0
  6  7  1  1
  6  8  1  0
  8  9  2  0
 11 12  2  0
 11 10  1  0
 13 11  1  0
 14 13  1  0
 15 14  1  6
 16  8  1  0
 16 15  1  0
 17 15  1  0
 17 18  2  0
 20 19  1  6
 20 22  1  0
 21 20  1  0
 22 23  1  1
 23 17  1  0
 24 22  1  0
 25 24  2  0
 26 24  1  0
M  END
$$$$
