QQT.pdb
     RDKit          3D

 26 25  0  0  1  0  0  0  0  0999 V2000
   14.9793  -11.9484  -14.7849 N   0  0  0  0  0  0  0  0  0  0  0  0
   15.3238  -12.3833  -16.0928 C   0  0  0  0  0  0  0  0  0  0  0  0
   14.6844  -13.3270  -16.6110 O   0  0  0  0  0  0  0  0  0  0  0  0
   16.4384  -11.6838  -16.7801 C   0  0  0  0  0  0  0  0  0  0  0  0
   16.9080  -10.5285  -15.9137 C   0  0  0  0  0  0  0  0  0  0  0  0
   18.0447   -9.8088  -16.6411 C   0  0  2  0  0  0  0  0  0  0  0  0
   19.1551  -10.6942  -16.8276 N   0  0  0  0  0  0  0  0  0  0  0  0
   18.4577   -8.6501  -15.8107 C   0  0  0  0  0  0  0  0  0  0  0  0
   18.5399   -8.8280  -14.5600 O   0  0  0  0  0  0  0  0  0  0  0  0
   22.6367   -7.2516  -13.4121 N   0  0  0  0  0  0  0  0  0  0  0  0
   22.2759   -5.8789  -13.4261 C   0  0  0  0  0  0  0  0  0  0  0  0
   22.9307   -5.0126  -12.8261 O   0  0  0  0  0  0  0  0  0  0  0  0
   21.0498   -5.4481  -14.1985 C   0  0  0  0  0  0  0  0  0  0  0  0
   20.4577   -6.6388  -14.8836 C   0  0  0  0  0  0  0  0  0  0  0  0
   19.2257   -6.2819  -15.6326 C   0  0  2  0  0  0  0  0  0  0  0  0
   18.7391   -7.4185  -16.4190 N   0  0  0  0  0  0  0  0  0  0  0  0
   19.3916   -5.1137  -16.5397 C   0  0  0  0  0  0  0  0  0  0  0  0
   19.9767   -5.1388  -17.6457 O   0  0  0  0  0  0  0  0  0  0  0  0
   16.6352   -2.9488  -17.9577 C   0  0  0  0  0  0  0  0  0  0  0  0
   17.5985   -2.0324  -17.2454 C   0  0  1  0  0  0  0  0  0  0  0  0
   17.0732   -1.8475  -15.9452 O   0  0  0  0  0  0  0  0  0  0  0  0
   18.9434   -2.7171  -17.0427 C   0  0  2  0  0  0  0  0  0  0  0  0
   18.8615   -3.8411  -16.1683 N   0  0  0  0  0  0  0  0  0  0  0  0
   19.8748   -1.6790  -16.5438 C   0  0  0  0  0  0  0  0  0  0  0  0
   20.3901   -1.7371  -15.4083 O   0  0  0  0  0  0  0  0  0  0  0  0
   20.1833   -0.6106  -17.3634 O   0  0  0  0  0  0  0  0  0  0  0  0
  2  3  2  0
  2  1  1  0
  4  2  1  0
  5  4  1  0
  5  6  1  0
  6  7  1  1
  6  8  1  0
  8  9  2  0
 11 12  2  0
 11 10  1  0
 13 11  1  0
 14 13  1  0
 15 14  1  6
 16  8  1  0
 16 15  1  0
 17 15  1  0
 17 18  2  0
 20 19  1  6
 20 22  1  0
 21 20  1  0
 22 23  1  1
 23 17  1  0
 24 22  1  0
 25 24  2  0
 26 24  1  0
M  END
$$$$
