QQT.pdb
     RDKit          3D

 26 25  0  0  1  0  0  0  0  0999 V2000
   18.0963  -14.7357  -15.0497 N   0  0  0  0  0  0  0  0  0  0  0  0
   17.9991  -13.6632  -15.9764 C   0  0  0  0  0  0  0  0  0  0  0  0
   16.9845  -12.9297  -15.9575 O   0  0  0  0  0  0  0  0  0  0  0  0
   19.1224  -13.4709  -16.9278 C   0  0  0  0  0  0  0  0  0  0  0  0
   20.2425  -12.7218  -16.2277 C   0  0  0  0  0  0  0  0  0  0  0  0
   20.9827  -11.8771  -17.2657 C   0  0  2  0  0  0  0  0  0  0  0  0
   21.9534  -12.6739  -17.9547 N   0  0  0  0  0  0  0  0  0  0  0  0
   21.6582  -10.7645  -16.5525 C   0  0  0  0  0  0  0  0  0  0  0  0
   21.9255  -10.9339  -15.3268 O   0  0  0  0  0  0  0  0  0  0  0  0
   25.9328   -7.2923  -19.0781 N   0  0  0  0  0  0  0  0  0  0  0  0
   25.9237   -6.7594  -17.7626 C   0  0  0  0  0  0  0  0  0  0  0  0
   26.8224   -6.0159  -17.3396 O   0  0  0  0  0  0  0  0  0  0  0  0
   24.7803   -7.1055  -16.8363 C   0  0  0  0  0  0  0  0  0  0  0  0
   23.9188   -8.1418  -17.4856 C   0  0  0  0  0  0  0  0  0  0  0  0
   22.7873   -8.5393  -16.6094 C   0  0  2  0  0  0  0  0  0  0  0  0
   21.9747   -9.5836  -17.2390 N   0  0  0  0  0  0  0  0  0  0  0  0
   21.8963   -7.4094  -16.2296 C   0  0  0  0  0  0  0  0  0  0  0  0
   21.1687   -6.7691  -17.0214 O   0  0  0  0  0  0  0  0  0  0  0  0
   18.9404   -7.2288  -14.3162 C   0  0  0  0  0  0  0  0  0  0  0  0
   19.8547   -6.2726  -13.5917 C   0  0  1  0  0  0  0  0  0  0  0  0
   20.4284   -7.0096  -12.5293 O   0  0  0  0  0  0  0  0  0  0  0  0
   21.0242   -5.8688  -14.4792 C   0  0  2  0  0  0  0  0  0  0  0  0
   21.8278   -6.9810  -14.8694 N   0  0  0  0  0  0  0  0  0  0  0  0
   21.7939   -4.8514  -13.7264 C   0  0  0  0  0  0  0  0  0  0  0  0
   22.9725   -5.0430  -13.3624 O   0  0  0  0  0  0  0  0  0  0  0  0
   21.1863   -3.6500  -13.4169 O   0  0  0  0  0  0  0  0  0  0  0  0
  2  3  2  0
  2  1  1  0
  4  2  1  0
  5  4  1  0
  5  6  1  0
  6  7  1  1
  6  8  1  0
  8  9  2  0
 11 12  2  0
 11 10  1  0
 13 11  1  0
 14 13  1  0
 15 14  1  6
 16  8  1  0
 16 15  1  0
 17 15  1  0
 17 18  2  0
 20 19  1  6
 20 22  1  0
 21 20  1  0
 22 23  1  1
 23 17  1  0
 24 22  1  0
 25 24  2  0
 26 24  1  0
M  END
$$$$
