QQT.pdb
     RDKit          3D

 26 25  0  0  1  0  0  0  0  0999 V2000
   27.6677  -26.5618  -16.0790 N   0  0  0  0  0  0  0  0  0  0  0  0
   27.6361  -25.5560  -17.0820 C   0  0  0  0  0  0  0  0  0  0  0  0
   27.4966  -25.8923  -18.2800 O   0  0  0  0  0  0  0  0  0  0  0  0
   27.7724  -24.1436  -16.6458 C   0  0  0  0  0  0  0  0  0  0  0  0
   26.7227  -23.8475  -15.5891 C   0  0  0  0  0  0  0  0  0  0  0  0
   25.5229  -23.1875  -16.2702 C   0  0  2  0  0  0  0  0  0  0  0  0
   25.8400  -21.8406  -16.6404 N   0  0  0  0  0  0  0  0  0  0  0  0
   24.3914  -23.1934  -15.3098 C   0  0  0  0  0  0  0  0  0  0  0  0
   24.0695  -24.3037  -14.7938 O   0  0  0  0  0  0  0  0  0  0  0  0
   21.4214  -18.1664  -13.1554 N   0  0  0  0  0  0  0  0  0  0  0  0
   20.5965  -19.1879  -12.6164 C   0  0  0  0  0  0  0  0  0  0  0  0
   19.5492  -18.9410  -11.9988 O   0  0  0  0  0  0  0  0  0  0  0  0
   21.0019  -20.6330  -12.7972 C   0  0  0  0  0  0  0  0  0  0  0  0
   22.3087  -20.6893  -13.5229 C   0  0  0  0  0  0  0  0  0  0  0  0
   22.5037  -21.9984  -14.1969 C   0  0  2  0  0  0  0  0  0  0  0  0
   23.7250  -21.9976  -15.0067 N   0  0  0  0  0  0  0  0  0  0  0  0
   21.3621  -22.4050  -15.0608 C   0  0  0  0  0  0  0  0  0  0  0  0
   21.0469  -21.8580  -16.1414 O   0  0  0  0  0  0  0  0  0  0  0  0
   19.4742  -26.3123  -14.8796 C   0  0  0  0  0  0  0  0  0  0  0  0
   19.5267  -25.3044  -16.0006 C   0  0  1  0  0  0  0  0  0  0  0  0
   18.3584  -25.5143  -16.7699 O   0  0  0  0  0  0  0  0  0  0  0  0
   19.4018  -23.8875  -15.4572 C   0  0  2  0  0  0  0  0  0  0  0  0
   20.5287  -23.4978  -14.6742 N   0  0  0  0  0  0  0  0  0  0  0  0
   18.1360  -23.8397  -14.6895 C   0  0  0  0  0  0  0  0  0  0  0  0
   18.1108  -23.6277  -13.4596 O   0  0  0  0  0  0  0  0  0  0  0  0
   16.9430  -24.0365  -15.3578 O   0  0  0  0  0  0  0  0  0  0  0  0
  2  3  2  0
  2  1  1  0
  4  2  1  0
  5  4  1  0
  5  6  1  0
  6  7  1  1
  6  8  1  0
  8  9  2  0
 11 12  2  0
 11 10  1  0
 13 11  1  0
 14 13  1  0
 15 14  1  6
 16  8  1  0
 16 15  1  0
 17 15  1  0
 17 18  2  0
 20 19  1  1
 20 22  1  0
 21 20  1  0
 22 23  1  1
 23 17  1  0
 24 22  1  0
 25 24  2  0
 26 24  1  0
M  END
$$$$
