QQT.pdb
     RDKit          3D

 26 25  0  0  1  0  0  0  0  0999 V2000
   25.9930  -13.6189  -18.9436 N   0  0  0  0  0  0  0  0  0  0  0  0
   26.1649  -14.4686  -17.8180 C   0  0  0  0  0  0  0  0  0  0  0  0
   27.1370  -15.2573  -17.7910 O   0  0  0  0  0  0  0  0  0  0  0  0
   25.1676  -14.3712  -16.7227 C   0  0  0  0  0  0  0  0  0  0  0  0
   24.1266  -13.3288  -17.0912 C   0  0  0  0  0  0  0  0  0  0  0  0
   24.1565  -12.2211  -16.0370 C   0  0  2  0  0  0  0  0  0  0  0  0
   23.7978  -12.7462  -14.7535 N   0  0  0  0  0  0  0  0  0  0  0  0
   23.1843  -11.1761  -16.4440 C   0  0  0  0  0  0  0  0  0  0  0  0
   23.3430  -10.6421  -17.5807 O   0  0  0  0  0  0  0  0  0  0  0  0
   17.2284  -11.0562  -15.2012 N   0  0  0  0  0  0  0  0  0  0  0  0
   17.9532  -11.8376  -16.1386 C   0  0  0  0  0  0  0  0  0  0  0  0
   17.4592  -12.8244  -16.7056 O   0  0  0  0  0  0  0  0  0  0  0  0
   19.3806  -11.4603  -16.4636 C   0  0  0  0  0  0  0  0  0  0  0  0
   19.7714  -10.2689  -15.6479 C   0  0  0  0  0  0  0  0  0  0  0  0
   21.1477   -9.8131  -15.9708 C   0  0  2  0  0  0  0  0  0  0  0  0
   22.1408  -10.8168  -15.5791 N   0  0  0  0  0  0  0  0  0  0  0  0
   21.5128   -8.5142  -15.3427 C   0  0  0  0  0  0  0  0  0  0  0  0
   22.0156   -8.3813  -14.2044 O   0  0  0  0  0  0  0  0  0  0  0  0
   22.2896   -3.6643  -15.8123 C   0  0  0  0  0  0  0  0  0  0  0  0
   21.8962   -4.9541  -16.4881 C   0  0  1  0  0  0  0  0  0  0  0  0
   23.0532   -5.4114  -17.1612 O   0  0  0  0  0  0  0  0  0  0  0  0
   21.5798   -6.0281  -15.4562 C   0  0  2  0  0  0  0  0  0  0  0  0
   21.2936   -7.2933  -16.0498 N   0  0  0  0  0  0  0  0  0  0  0  0
   20.4510   -5.5154  -14.6457 C   0  0  0  0  0  0  0  0  0  0  0  0
   19.2988   -5.9873  -14.7351 O   0  0  0  0  0  0  0  0  0  0  0  0
   20.6817   -4.4799  -13.7609 O   0  0  0  0  0  0  0  0  0  0  0  0
  2  3  2  0
  2  1  1  0
  4  2  1  0
  5  4  1  0
  5  6  1  0
  6  7  1  1
  6  8  1  0
  8  9  2  0
 11 12  2  0
 11 10  1  0
 13 11  1  0
 14 13  1  0
 15 14  1  1
 16  8  1  0
 16 15  1  0
 17 15  1  0
 17 18  2  0
 20 19  1  1
 20 22  1  0
 21 20  1  0
 22 23  1  6
 23 17  1  0
 24 22  1  0
 25 24  2  0
 26 24  1  0
M  END
$$$$
