QQT.pdb
     RDKit          3D

 26 25  0  0  1  0  0  0  0  0999 V2000
   21.8049  -20.6360  -10.7277 N   0  0  0  0  0  0  0  0  0  0  0  0
   22.3763  -20.7084   -9.4290 C   0  0  0  0  0  0  0  0  0  0  0  0
   21.6521  -21.0321   -8.4602 O   0  0  0  0  0  0  0  0  0  0  0  0
   23.8202  -20.3914   -9.2931 C   0  0  0  0  0  0  0  0  0  0  0  0
   24.3620  -19.9579  -10.6438 C   0  0  0  0  0  0  0  0  0  0  0  0
   25.4373  -20.9556  -11.0770 C   0  0  2  0  0  0  0  0  0  0  0  0
   26.6160  -20.7939  -10.2793 N   0  0  0  0  0  0  0  0  0  0  0  0
   25.7542  -20.6957  -12.5034 C   0  0  0  0  0  0  0  0  0  0  0  0
   26.5613  -19.7548  -12.7600 O   0  0  0  0  0  0  0  0  0  0  0  0
   27.3613  -24.7139  -16.4157 N   0  0  0  0  0  0  0  0  0  0  0  0
   28.2275  -23.6598  -16.0245 C   0  0  0  0  0  0  0  0  0  0  0  0
   29.4606  -23.7347  -16.1385 O   0  0  0  0  0  0  0  0  0  0  0  0
   27.6335  -22.3953  -15.4467 C   0  0  0  0  0  0  0  0  0  0  0  0
   26.1413  -22.4882  -15.4929 C   0  0  0  0  0  0  0  0  0  0  0  0
   25.5002  -21.2783  -14.9172 C   0  0  2  0  0  0  0  0  0  0  0  0
   25.1653  -21.4806  -13.5050 N   0  0  0  0  0  0  0  0  0  0  0  0
   24.2719  -20.8484  -15.6391 C   0  0  0  0  0  0  0  0  0  0  0  0
   23.2513  -21.5533  -15.8059 O   0  0  0  0  0  0  0  0  0  0  0  0
   21.7254  -18.3554  -14.9754 C   0  0  0  0  0  0  0  0  0  0  0  0
   22.3388  -17.9393  -16.2891 C   0  0  1  0  0  0  0  0  0  0  0  0
   23.3565  -17.0107  -15.9686 O   0  0  0  0  0  0  0  0  0  0  0  0
   23.0556  -19.1121  -16.9444 C   0  0  2  0  0  0  0  0  0  0  0  0
   24.1984  -19.5399  -16.2056 N   0  0  0  0  0  0  0  0  0  0  0  0
   23.3996  -18.6819  -18.3193 C   0  0  0  0  0  0  0  0  0  0  0  0
   22.5278  -18.4516  -19.1826 O   0  0  0  0  0  0  0  0  0  0  0  0
   24.7305  -18.5306  -18.6573 O   0  0  0  0  0  0  0  0  0  0  0  0
  2  3  2  0
  2  1  1  0
  4  2  1  0
  5  4  1  0
  5  6  1  0
  6  7  1  1
  6  8  1  0
  8  9  2  0
 11 12  2  0
 11 10  1  0
 13 11  1  0
 14 13  1  0
 15 14  1  6
 16  8  1  0
 16 15  1  0
 17 15  1  0
 17 18  2  0
 20 19  1  1
 20 22  1  0
 21 20  1  0
 22 23  1  1
 23 17  1  0
 24 22  1  0
 25 24  2  0
 26 24  1  0
M  END
$$$$
