QQT.pdb
     RDKit          3D

 26 25  0  0  1  0  0  0  0  0999 V2000
   27.7817  -17.9591  -17.0616 N   0  0  0  0  0  0  0  0  0  0  0  0
   28.0267  -16.6487  -17.5529 C   0  0  0  0  0  0  0  0  0  0  0  0
   28.8486  -16.4892  -18.4840 O   0  0  0  0  0  0  0  0  0  0  0  0
   27.2834  -15.5274  -16.9251 C   0  0  0  0  0  0  0  0  0  0  0  0
   26.3564  -16.0828  -15.8582 C   0  0  0  0  0  0  0  0  0  0  0  0
   25.0361  -16.4773  -16.5217 C   0  0  2  0  0  0  0  0  0  0  0  0
   24.3130  -15.3082  -16.9243 N   0  0  0  0  0  0  0  0  0  0  0  0
   24.2400  -17.2474  -15.5339 C   0  0  0  0  0  0  0  0  0  0  0  0
   23.4987  -16.5925  -14.7438 O   0  0  0  0  0  0  0  0  0  0  0  0
   20.8360  -22.0609  -16.1326 N   0  0  0  0  0  0  0  0  0  0  0  0
   20.8554  -21.9878  -14.7153 C   0  0  0  0  0  0  0  0  0  0  0  0
   20.0767  -22.6418  -14.0045 O   0  0  0  0  0  0  0  0  0  0  0  0
   21.8589  -21.0819  -14.0388 C   0  0  0  0  0  0  0  0  0  0  0  0
   22.6274  -20.3347  -15.0823 C   0  0  0  0  0  0  0  0  0  0  0  0
   23.6309  -19.4238  -14.4745 C   0  0  2  0  0  0  0  0  0  0  0  0
   24.3280  -18.6464  -15.5026 N   0  0  0  0  0  0  0  0  0  0  0  0
   24.6452  -20.1206  -13.6376 C   0  0  0  0  0  0  0  0  0  0  0  0
   25.6551  -20.7153  -14.0767 O   0  0  0  0  0  0  0  0  0  0  0  0
   25.2544  -19.3141   -9.4234 C   0  0  0  0  0  0  0  0  0  0  0  0
   25.0927  -20.7334   -9.9078 C   0  0  1  0  0  0  0  0  0  0  0  0
   23.7105  -21.0212   -9.8204 O   0  0  0  0  0  0  0  0  0  0  0  0
   25.4333  -20.8394  -11.3881 C   0  0  2  0  0  0  0  0  0  0  0  0
   24.5040  -20.1435  -12.2170 N   0  0  0  0  0  0  0  0  0  0  0  0
   25.5001  -22.2851  -11.7035 C   0  0  0  0  0  0  0  0  0  0  0  0
   24.7152  -22.8280  -12.5081 O   0  0  0  0  0  0  0  0  0  0  0  0
   26.4641  -23.0584  -11.0860 O   0  0  0  0  0  0  0  0  0  0  0  0
  2  3  2  0
  2  1  1  0
  4  2  1  0
  5  4  1  0
  5  6  1  0
  6  7  1  1
  6  8  1  0
  8  9  2  0
 11 12  2  0
 11 10  1  0
 13 11  1  0
 14 13  1  0
 15 14  1  6
 16  8  1  0
 16 15  1  0
 17 15  1  0
 17 18  2  0
 20 19  1  6
 20 22  1  0
 21 20  1  0
 22 23  1  6
 23 17  1  0
 24 22  1  0
 25 24  2  0
 26 24  1  0
M  END
$$$$
