QQT.pdb
     RDKit          3D

 26 25  0  0  1  0  0  0  0  0999 V2000
   25.2142  -24.8946  -18.4371 N   0  0  0  0  0  0  0  0  0  0  0  0
   26.4421  -25.3237  -17.8656 C   0  0  0  0  0  0  0  0  0  0  0  0
   27.3590  -25.7245  -18.6181 O   0  0  0  0  0  0  0  0  0  0  0  0
   26.5694  -25.2715  -16.3874 C   0  0  0  0  0  0  0  0  0  0  0  0
   25.2747  -24.7416  -15.7967 C   0  0  0  0  0  0  0  0  0  0  0  0
   25.4076  -23.2284  -15.6182 C   0  0  2  0  0  0  0  0  0  0  0  0
   26.6282  -22.9133  -14.9380 N   0  0  0  0  0  0  0  0  0  0  0  0
   24.2489  -22.7587  -14.8186 C   0  0  0  0  0  0  0  0  0  0  0  0
   23.0943  -23.1066  -15.2038 O   0  0  0  0  0  0  0  0  0  0  0  0
   24.3508  -20.7478   -8.9355 N   0  0  0  0  0  0  0  0  0  0  0  0
   25.4147  -20.6483   -9.8698 C   0  0  0  0  0  0  0  0  0  0  0  0
   26.5758  -20.3743   -9.5293 O   0  0  0  0  0  0  0  0  0  0  0  0
   25.1309  -20.8833  -11.3359 C   0  0  0  0  0  0  0  0  0  0  0  0
   23.6786  -21.1960  -11.5110 C   0  0  0  0  0  0  0  0  0  0  0  0
   23.3307  -21.3939  -12.9413 C   0  0  2  0  0  0  0  0  0  0  0  0
   24.4589  -21.9611  -13.6847 N   0  0  0  0  0  0  0  0  0  0  0  0
   22.8865  -20.1509  -13.6288 C   0  0  0  0  0  0  0  0  0  0  0  0
   23.5089  -19.0652  -13.6259 O   0  0  0  0  0  0  0  0  0  0  0  0
   22.5540  -19.0325  -16.9850 C   0  0  0  0  0  0  0  0  0  0  0  0
   21.1446  -18.9595  -16.4524 C   0  0  1  0  0  0  0  0  0  0  0  0
   20.5282  -20.1816  -16.8092 O   0  0  0  0  0  0  0  0  0  0  0  0
   21.1447  -18.9380  -14.9299 C   0  0  2  0  0  0  0  0  0  0  0  0
   21.6622  -20.1405  -14.3632 N   0  0  0  0  0  0  0  0  0  0  0  0
   19.7492  -18.6704  -14.5113 C   0  0  0  0  0  0  0  0  0  0  0  0
   19.0886  -19.4863  -13.8360 O   0  0  0  0  0  0  0  0  0  0  0  0
   19.1594  -17.4773  -14.8812 O   0  0  0  0  0  0  0  0  0  0  0  0
  2  3  2  0
  2  1  1  0
  4  2  1  0
  5  4  1  0
  5  6  1  0
  6  7  1  1
  6  8  1  0
  8  9  2  0
 11 12  2  0
 11 10  1  0
 13 11  1  0
 14 13  1  0
 15 14  1  1
 16  8  1  0
 16 15  1  0
 17 15  1  0
 17 18  2  0
 20 19  1  1
 20 22  1  0
 21 20  1  0
 22 23  1  1
 23 17  1  0
 24 22  1  0
 25 24  2  0
 26 24  1  0
M  END
$$$$
