QQT.pdb
     RDKit          3D

 26 25  0  0  1  0  0  0  0  0999 V2000
   14.4726  -11.6753  -14.6971 N   0  0  0  0  0  0  0  0  0  0  0  0
   14.9798  -12.3090  -15.8632 C   0  0  0  0  0  0  0  0  0  0  0  0
   14.2871  -13.1818  -16.4343 O   0  0  0  0  0  0  0  0  0  0  0  0
   16.3213  -11.8940  -16.3446 C   0  0  0  0  0  0  0  0  0  0  0  0
   16.8509  -10.7901  -15.4462 C   0  0  0  0  0  0  0  0  0  0  0  0
   18.2112  -10.3408  -15.9818 C   0  0  2  0  0  0  0  0  0  0  0  0
   19.1817  -11.3801  -15.8086 N   0  0  0  0  0  0  0  0  0  0  0  0
   18.6248   -9.1334  -15.2243 C   0  0  0  0  0  0  0  0  0  0  0  0
   19.0861   -9.3055  -14.0581 O   0  0  0  0  0  0  0  0  0  0  0  0
   22.9553   -6.8370  -13.9939 N   0  0  0  0  0  0  0  0  0  0  0  0
   22.2641   -5.6531  -13.6261 C   0  0  0  0  0  0  0  0  0  0  0  0
   22.8022   -4.7426  -12.9775 O   0  0  0  0  0  0  0  0  0  0  0  0
   20.8184   -5.4875  -14.0359 C   0  0  0  0  0  0  0  0  0  0  0  0
   20.3693   -6.7172  -14.7596 C   0  0  0  0  0  0  0  0  0  0  0  0
   18.9226   -6.6589  -15.0909 C   0  0  2  0  0  0  0  0  0  0  0  0
   18.4968   -7.8644  -15.8068 N   0  0  0  0  0  0  0  0  0  0  0  0
   18.5387   -5.4681  -15.8968 C   0  0  0  0  0  0  0  0  0  0  0  0
   18.8387   -5.2848  -17.0979 O   0  0  0  0  0  0  0  0  0  0  0  0
   15.1011   -4.2636  -16.6321 C   0  0  0  0  0  0  0  0  0  0  0  0
   15.8207   -3.0995  -15.9980 C   0  0  1  0  0  0  0  0  0  0  0  0
   15.4968   -3.1424  -14.6218 O   0  0  0  0  0  0  0  0  0  0  0  0
   17.3289   -3.2986  -16.0630 C   0  0  2  0  0  0  0  0  0  0  0  0
   17.7682   -4.4230  -15.3030 N   0  0  0  0  0  0  0  0  0  0  0  0
   17.9423   -2.0310  -15.6037 C   0  0  0  0  0  0  0  0  0  0  0  0
   17.7988   -0.9582  -16.2255 O   0  0  0  0  0  0  0  0  0  0  0  0
   18.6989   -2.0369  -14.4478 O   0  0  0  0  0  0  0  0  0  0  0  0
  2  3  2  0
  2  1  1  0
  4  2  1  0
  5  4  1  0
  5  6  1  0
  6  7  1  1
  6  8  1  0
  8  9  2  0
 11 12  2  0
 11 10  1  0
 13 11  1  0
 14 13  1  0
 15 14  1  6
 16  8  1  0
 16 15  1  0
 17 15  1  0
 17 18  2  0
 20 19  1  6
 20 22  1  0
 21 20  1  0
 22 23  1  1
 23 17  1  0
 24 22  1  0
 25 24  2  0
 26 24  1  0
M  END
$$$$
