QQT.pdb
     RDKit          3D

 26 25  0  0  1  0  0  0  0  0999 V2000
   18.2467  -14.8068  -16.5139 N   0  0  0  0  0  0  0  0  0  0  0  0
   18.9307  -15.5063  -17.5442 C   0  0  0  0  0  0  0  0  0  0  0  0
   18.3412  -16.4294  -18.1510 O   0  0  0  0  0  0  0  0  0  0  0  0
   20.3251  -15.0966  -17.8466 C   0  0  0  0  0  0  0  0  0  0  0  0
   20.7264  -13.9727  -16.9076 C   0  0  0  0  0  0  0  0  0  0  0  0
   20.3777  -12.6396  -17.5713 C   0  0  2  0  0  0  0  0  0  0  0  0
   21.0341  -12.5287  -18.8396 N   0  0  0  0  0  0  0  0  0  0  0  0
   20.8302  -11.5489  -16.6722 C   0  0  0  0  0  0  0  0  0  0  0  0
   20.3962  -11.5548  -15.4830 O   0  0  0  0  0  0  0  0  0  0  0  0
   26.4294   -9.5638  -16.1298 N   0  0  0  0  0  0  0  0  0  0  0  0
   25.7812  -10.6197  -15.4374 C   0  0  0  0  0  0  0  0  0  0  0  0
   26.4080  -11.4893  -14.8128 O   0  0  0  0  0  0  0  0  0  0  0  0
   24.2715  -10.6948  -15.4569 C   0  0  0  0  0  0  0  0  0  0  0  0
   23.7336   -9.5560  -16.2639 C   0  0  0  0  0  0  0  0  0  0  0  0
   22.2484   -9.5368  -16.2601 C   0  0  2  0  0  0  0  0  0  0  0  0
   21.7057  -10.5645  -17.1524 N   0  0  0  0  0  0  0  0  0  0  0  0
   21.6639   -8.2219  -16.6400 C   0  0  0  0  0  0  0  0  0  0  0  0
   21.8229   -7.6560  -17.7449 O   0  0  0  0  0  0  0  0  0  0  0  0
   18.3772   -7.2106  -17.3377 C   0  0  0  0  0  0  0  0  0  0  0  0
   18.7614   -6.3105  -16.1899 C   0  0  1  0  0  0  0  0  0  0  0  0
   18.2976   -6.9522  -15.0178 O   0  0  0  0  0  0  0  0  0  0  0  0
   20.2753   -6.2444  -16.0407 C   0  0  2  0  0  0  0  0  0  0  0  0
   20.8505   -7.5071  -15.7095 N   0  0  0  0  0  0  0  0  0  0  0  0
   20.5540   -5.2102  -15.0176 C   0  0  0  0  0  0  0  0  0  0  0  0
   20.3330   -3.9982  -15.2187 O   0  0  0  0  0  0  0  0  0  0  0  0
   21.0762   -5.6007  -13.7997 O   0  0  0  0  0  0  0  0  0  0  0  0
  2  3  2  0
  2  1  1  0
  4  2  1  0
  5  4  1  0
  5  6  1  0
  6  7  1  6
  6  8  1  0
  8  9  2  0
 11 12  2  0
 11 10  1  0
 13 11  1  0
 14 13  1  0
 15 14  1  6
 16  8  1  0
 16 15  1  0
 17 15  1  0
 17 18  2  0
 20 19  1  6
 20 22  1  0
 21 20  1  0
 22 23  1  1
 23 17  1  0
 24 22  1  0
 25 24  2  0
 26 24  1  0
M  END
$$$$
