YKQ.pdb
     RDKit          3D

 31 31  0  0  1  0  0  0  0  0999 V2000
    9.7839  -14.5686   30.7505 O   0  0  0  0  0  0  0  0  0  0  0  0
    9.6565  -14.7414   29.3838 C   0  0  0  0  0  0  0  0  0  0  0  0
    8.8892  -13.8889   28.6281 C   0  0  0  0  0  0  0  0  0  0  0  0
    8.7653  -14.0697   27.2481 C   0  0  0  0  0  0  0  0  0  0  0  0
    9.4064  -15.1055   26.6011 C   0  0  0  0  0  0  0  0  0  0  0  0
    9.2765  -15.2956   25.1526 C   0  0  0  0  0  0  0  0  0  0  0  0
    7.8591  -15.6108   24.7220 C   0  0  2  0  0  0  0  0  0  0  0  0
    7.5274  -16.9207   25.2789 N   0  0  0  0  0  0  0  0  0  0  0  0
    7.8891  -15.6759   23.2358 C   0  0  0  0  0  0  0  0  0  0  0  0
    8.2130  -16.7727   22.7162 O   0  0  0  0  0  0  0  0  0  0  0  0
   10.1711  -15.9483   27.3815 C   0  0  0  0  0  0  0  0  0  0  0  0
   10.3019  -15.7803   28.7474 C   0  0  0  0  0  0  0  0  0  0  0  0
    7.5769  -14.5848   22.3846 N   0  0  0  0  0  0  0  0  0  0  0  0
    8.1348  -14.4021   21.0701 C   0  0  1  0  0  0  0  0  0  0  0  0
    7.7127  -13.0577   20.5213 C   0  0  0  0  0  0  0  0  0  0  0  0
    8.3580  -12.8125   19.1735 C   0  0  0  0  0  0  0  0  0  0  0  0
    7.5928  -13.5500   18.0739 C   0  0  0  0  0  0  0  0  0  0  0  0
    8.3436  -13.3542   16.7540 C   0  0  0  0  0  0  0  0  0  0  0  0
    7.6755  -14.0332   15.6744 N   0  0  0  0  0  0  0  0  0  0  0  0
    9.6129  -14.5067   21.0563 C   0  0  0  0  0  0  0  0  0  0  0  0
   10.2538  -14.0481   22.0367 O   0  0  0  0  0  0  0  0  0  0  0  0
   11.2075  -18.7630   22.5771 N   0  0  0  0  0  0  0  0  0  0  0  0
   12.4262  -18.0975   22.7661 C   0  0  0  0  0  0  0  0  0  0  0  0
   13.1728  -18.3803   23.7111 O   0  0  0  0  0  0  0  0  0  0  0  0
   12.8340  -17.0270   21.8112 C   0  0  0  0  0  0  0  0  0  0  0  0
   11.8488  -16.8874   20.6889 C   0  0  0  0  0  0  0  0  0  0  0  0
   11.7637  -15.4778   20.2174 C   0  0  2  0  0  0  0  0  0  0  0  0
   10.3553  -15.0943   20.0017 N   0  0  0  0  0  0  0  0  0  0  0  0
   12.4669  -15.2690   18.9600 C   0  0  0  0  0  0  0  0  0  0  0  0
   13.7995  -14.8095   18.9888 O   0  0  0  0  0  0  0  0  0  0  0  0
   11.9304  -15.4828   17.8519 O   0  0  0  0  0  0  0  0  0  0  0  0
  2  1  1  0
  3  2  2  0
  4  3  1  0
  5  4  2  0
  5 11  1  0
  6  5  1  0
  7  9  1  0
  7  6  1  0
  7  8  1  1
  9 10  2  0
 11 12  2  0
 12  2  1  0
 13 14  1  0
 13  9  1  0
 14 20  1  0
 14 15  1  1
 16 15  1  0
 17 16  1  0
 18 17  1  0
 19 18  1  0
 20 21  2  0
 20 28  1  0
 22 23  1  0
 23 24  2  0
 23 25  1  0
 25 26  1  0
 27 26  1  6
 27 29  1  0
 28 27  1  0
 29 31  2  0
 29 30  1  0
M  END
$$$$
