YKQ.pdb
     RDKit          3D

 31 31  0  0  1  0  0  0  0  0999 V2000
   10.3957  -14.4731   31.4476 O   0  0  0  0  0  0  0  0  0  0  0  0
   10.2764  -14.7570   30.0989 C   0  0  0  0  0  0  0  0  0  0  0  0
   10.6903  -15.9625   29.5870 C   0  0  0  0  0  0  0  0  0  0  0  0
   10.5665  -16.2422   28.2236 C   0  0  0  0  0  0  0  0  0  0  0  0
   10.0271  -15.3214   27.3497 C   0  0  0  0  0  0  0  0  0  0  0  0
    9.8971  -15.6146   25.9185 C   0  0  0  0  0  0  0  0  0  0  0  0
    8.4874  -15.9976   25.5188 C   0  0  2  0  0  0  0  0  0  0  0  0
    8.1753  -17.2480   26.2082 N   0  0  0  0  0  0  0  0  0  0  0  0
    8.5256  -16.2168   24.0477 C   0  0  0  0  0  0  0  0  0  0  0  0
    8.8315  -17.3673   23.6468 O   0  0  0  0  0  0  0  0  0  0  0  0
    9.6188  -14.1180   27.8876 C   0  0  0  0  0  0  0  0  0  0  0  0
    9.7357  -13.8291   29.2343 C   0  0  0  0  0  0  0  0  0  0  0  0
    8.2402  -15.2140   23.0857 N   0  0  0  0  0  0  0  0  0  0  0  0
    8.4989  -15.3516   21.6762 C   0  0  1  0  0  0  0  0  0  0  0  0
    7.8169  -14.2318   20.9226 C   0  0  0  0  0  0  0  0  0  0  0  0
    6.5512  -14.7359   20.2614 C   0  0  0  0  0  0  0  0  0  0  0  0
    6.8701  -15.8891   19.3090 C   0  0  0  0  0  0  0  0  0  0  0  0
    5.5607  -16.3567   18.6679 C   0  0  0  0  0  0  0  0  0  0  0  0
    5.7778  -17.5088   17.8321 N   0  0  0  0  0  0  0  0  0  0  0  0
    9.9462  -15.3599   21.3581 C   0  0  0  0  0  0  0  0  0  0  0  0
   10.7030  -14.5841   21.9967 O   0  0  0  0  0  0  0  0  0  0  0  0
   12.2819  -18.9503   24.3062 N   0  0  0  0  0  0  0  0  0  0  0  0
   13.0388  -19.3271   23.1886 C   0  0  0  0  0  0  0  0  0  0  0  0
   13.6638  -20.3944   23.1662 O   0  0  0  0  0  0  0  0  0  0  0  0
   13.0940  -18.4260   22.0015 C   0  0  0  0  0  0  0  0  0  0  0  0
   11.8115  -17.6682   21.8269 C   0  0  0  0  0  0  0  0  0  0  0  0
   11.8581  -16.7989   20.6190 C   0  0  2  0  0  0  0  0  0  0  0  0
   10.5359  -16.1917   20.3739 N   0  0  0  0  0  0  0  0  0  0  0  0
   12.2260  -17.5353   19.4183 C   0  0  0  0  0  0  0  0  0  0  0  0
   13.5910  -17.7495   19.1377 O   0  0  0  0  0  0  0  0  0  0  0  0
   11.3729  -17.9859   18.6242 O   0  0  0  0  0  0  0  0  0  0  0  0
  2  1  1  0
  3  2  2  0
  4  3  1  0
  5  4  2  0
  5 11  1  0
  6  5  1  0
  7  9  1  0
  7  6  1  0
  7  8  1  1
  9 10  2  0
 11 12  2  0
 12  2  1  0
 13 14  1  0
 13  9  1  0
 14 20  1  0
 14 15  1  6
 16 15  1  0
 17 16  1  0
 18 17  1  0
 19 18  1  0
 20 21  2  0
 20 28  1  0
 22 23  1  0
 23 24  2  0
 23 25  1  0
 25 26  1  0
 27 26  1  1
 27 29  1  0
 28 27  1  0
 29 31  2  0
 29 30  1  0
M  END
$$$$
