YKQ.pdb
     RDKit          3D

 31 31  0  0  1  0  0  0  0  0999 V2000
    7.8680  -11.7794   17.6860 O   0  0  0  0  0  0  0  0  0  0  0  0
    8.0011  -12.6957   18.7138 C   0  0  0  0  0  0  0  0  0  0  0  0
    7.0455  -12.8082   19.6941 C   0  0  0  0  0  0  0  0  0  0  0  0
    7.1868  -13.7361   20.7291 C   0  0  0  0  0  0  0  0  0  0  0  0
    8.2856  -14.5668   20.8012 C   0  0  0  0  0  0  0  0  0  0  0  0
    8.4342  -15.5410   21.8875 C   0  0  0  0  0  0  0  0  0  0  0  0
    8.2486  -16.9722   21.4282 C   0  0  2  0  0  0  0  0  0  0  0  0
    6.8351  -17.1302   21.0915 N   0  0  0  0  0  0  0  0  0  0  0  0
    8.5976  -17.8243   22.5968 C   0  0  0  0  0  0  0  0  0  0  0  0
    7.7108  -17.9909   23.4707 O   0  0  0  0  0  0  0  0  0  0  0  0
    9.2316  -14.4351   19.8053 C   0  0  0  0  0  0  0  0  0  0  0  0
    9.1037  -13.5212   18.7760 C   0  0  0  0  0  0  0  0  0  0  0  0
    9.8577  -18.4506   22.7774 N   0  0  0  0  0  0  0  0  0  0  0  0
   10.2012  -19.2570   23.9195 C   0  0  1  0  0  0  0  0  0  0  0  0
   11.1074  -20.3884   23.4886 C   0  0  0  0  0  0  0  0  0  0  0  0
   10.3534  -21.3607   22.6059 C   0  0  0  0  0  0  0  0  0  0  0  0
   11.2977  -22.4381   22.0711 C   0  0  0  0  0  0  0  0  0  0  0  0
   10.5188  -23.3098   21.0824 C   0  0  0  0  0  0  0  0  0  0  0  0
   11.3395  -24.3815   20.5814 N   0  0  0  0  0  0  0  0  0  0  0  0
   10.8536  -18.4757   24.9963 C   0  0  0  0  0  0  0  0  0  0  0  0
   11.8762  -17.8013   24.7101 O   0  0  0  0  0  0  0  0  0  0  0  0
    8.5932  -14.1014   28.0050 N   0  0  0  0  0  0  0  0  0  0  0  0
    9.7629  -14.2269   28.7665 C   0  0  0  0  0  0  0  0  0  0  0  0
   10.0678  -13.3842   29.6193 O   0  0  0  0  0  0  0  0  0  0  0  0
   10.6597  -15.3982   28.5472 C   0  0  0  0  0  0  0  0  0  0  0  0
   10.1085  -16.3244   27.5042 C   0  0  0  0  0  0  0  0  0  0  0  0
   11.0021  -17.4971   27.2970 C   0  0  2  0  0  0  0  0  0  0  0  0
   10.3958  -18.4395   26.3371 N   0  0  0  0  0  0  0  0  0  0  0  0
   11.2487  -18.2324   28.5290 C   0  0  0  0  0  0  0  0  0  0  0  0
   12.2326  -17.7614   29.4223 O   0  0  0  0  0  0  0  0  0  0  0  0
   10.6179  -19.2698   28.8246 O   0  0  0  0  0  0  0  0  0  0  0  0
  2  1  1  0
  3  2  2  0
  4  3  1  0
  5  4  2  0
  5 11  1  0
  6  5  1  0
  7  9  1  0
  7  6  1  0
  7  8  1  1
  9 10  2  0
 11 12  2  0
 12  2  1  0
 13 14  1  0
 13  9  1  0
 14 20  1  0
 14 15  1  6
 16 15  1  0
 17 16  1  0
 18 17  1  0
 19 18  1  0
 20 21  2  0
 20 28  1  0
 22 23  1  0
 23 24  2  0
 23 25  1  0
 25 26  1  0
 27 26  1  1
 27 29  1  0
 28 27  1  0
 29 31  2  0
 29 30  1  0
M  END
$$$$
