YKQ.pdb
     RDKit          3D

 31 31  0  0  1  0  0  0  0  0999 V2000
    4.6632  -27.5984   37.1596 O   0  0  0  0  0  0  0  0  0  0  0  0
    5.6805  -27.1065   36.3615 C   0  0  0  0  0  0  0  0  0  0  0  0
    5.4431  -26.7194   35.0652 C   0  0  0  0  0  0  0  0  0  0  0  0
    6.4757  -26.2234   34.2652 C   0  0  0  0  0  0  0  0  0  0  0  0
    7.7625  -26.1064   34.7478 C   0  0  0  0  0  0  0  0  0  0  0  0
    8.8467  -25.5858   33.9083 C   0  0  0  0  0  0  0  0  0  0  0  0
    9.3226  -26.5822   32.8717 C   0  0  2  0  0  0  0  0  0  0  0  0
   10.0040  -27.6543   33.5945 N   0  0  0  0  0  0  0  0  0  0  0  0
   10.2885  -25.8464   32.0118 C   0  0  0  0  0  0  0  0  0  0  0  0
   11.5062  -25.9420   32.3052 O   0  0  0  0  0  0  0  0  0  0  0  0
    7.9760  -26.5016   36.0526 C   0  0  0  0  0  0  0  0  0  0  0  0
    6.9632  -26.9938   36.8544 C   0  0  0  0  0  0  0  0  0  0  0  0
    9.9173  -25.0542   30.8950 N   0  0  0  0  0  0  0  0  0  0  0  0
   10.8560  -24.4671   29.9749 C   0  0  1  0  0  0  0  0  0  0  0  0
   10.2590  -24.4433   28.5857 C   0  0  0  0  0  0  0  0  0  0  0  0
   11.2671  -23.9134   27.5878 C   0  0  0  0  0  0  0  0  0  0  0  0
   10.7213  -24.0320   26.1642 C   0  0  0  0  0  0  0  0  0  0  0  0
   11.8300  -23.6236   25.1906 C   0  0  0  0  0  0  0  0  0  0  0  0
   11.3602  -23.6565   23.8300 N   0  0  0  0  0  0  0  0  0  0  0  0
   11.2627  -23.0975   30.3684 C   0  0  0  0  0  0  0  0  0  0  0  0
   10.3625  -22.2482   30.5937 O   0  0  0  0  0  0  0  0  0  0  0  0
   17.0266  -21.2089   31.7515 N   0  0  0  0  0  0  0  0  0  0  0  0
   16.6828  -21.4708   30.4184 C   0  0  0  0  0  0  0  0  0  0  0  0
   17.5491  -21.6849   29.5617 O   0  0  0  0  0  0  0  0  0  0  0  0
   15.2453  -21.4925   30.0215 C   0  0  0  0  0  0  0  0  0  0  0  0
   14.3533  -21.1174   31.1674 C   0  0  0  0  0  0  0  0  0  0  0  0
   12.9171  -21.2687   30.8056 C   0  0  2  0  0  0  0  0  0  0  0  0
   12.6101  -22.6809   30.5080 N   0  0  0  0  0  0  0  0  0  0  0  0
   12.5551  -20.4898   29.6302 C   0  0  0  0  0  0  0  0  0  0  0  0
   12.3611  -19.0996   29.7631 O   0  0  0  0  0  0  0  0  0  0  0  0
   12.4094  -21.0104   28.5036 O   0  0  0  0  0  0  0  0  0  0  0  0
  2  1  1  0
  3  2  2  0
  4  3  1  0
  5  4  2  0
  5 11  1  0
  6  5  1  0
  7  9  1  0
  7  6  1  0
  7  8  1  1
  9 10  2  0
 11 12  2  0
 12  2  1  0
 13 14  1  0
 13  9  1  0
 14 20  1  0
 14 15  1  6
 16 15  1  0
 17 16  1  0
 18 17  1  0
 19 18  1  0
 20 21  2  0
 20 28  1  0
 22 23  1  0
 23 24  2  0
 23 25  1  0
 25 26  1  0
 27 26  1  6
 27 29  1  0
 28 27  1  0
 29 31  2  0
 29 30  1  0
M  END
$$$$
