YKQ.pdb
     RDKit          3D

 31 31  0  0  1  0  0  0  0  0999 V2000
    8.6673  -12.3584   17.8619 O   0  0  0  0  0  0  0  0  0  0  0  0
    8.3549  -12.9946   19.0499 C   0  0  0  0  0  0  0  0  0  0  0  0
    7.0507  -13.2464   19.3998 C   0  0  0  0  0  0  0  0  0  0  0  0
    6.7427  -13.8895   20.6014 C   0  0  0  0  0  0  0  0  0  0  0  0
    7.7334  -14.2914   21.4730 C   0  0  0  0  0  0  0  0  0  0  0  0
    7.4105  -14.9665   22.7344 C   0  0  0  0  0  0  0  0  0  0  0  0
    7.3040  -16.4704   22.5901 C   0  0  2  0  0  0  0  0  0  0  0  0
    6.0748  -16.7397   21.8468 N   0  0  0  0  0  0  0  0  0  0  0  0
    7.1967  -17.0065   23.9739 C   0  0  0  0  0  0  0  0  0  0  0  0
    6.0578  -17.3665   24.3628 O   0  0  0  0  0  0  0  0  0  0  0  0
    9.0354  -14.0275   21.0995 C   0  0  0  0  0  0  0  0  0  0  0  0
    9.3533  -13.3921   19.9137 C   0  0  0  0  0  0  0  0  0  0  0  0
    8.2923  -17.1322   24.8662 N   0  0  0  0  0  0  0  0  0  0  0  0
    8.5454  -18.2971   25.6735 C   0  0  1  0  0  0  0  0  0  0  0  0
    8.5061  -19.5350   24.8058 C   0  0  0  0  0  0  0  0  0  0  0  0
    8.6727  -20.7786   25.6537 C   0  0  0  0  0  0  0  0  0  0  0  0
    8.6587  -22.0295   24.7742 C   0  0  0  0  0  0  0  0  0  0  0  0
    8.8697  -23.2500   25.6742 C   0  0  0  0  0  0  0  0  0  0  0  0
    8.7142  -24.4729   24.9303 N   0  0  0  0  0  0  0  0  0  0  0  0
    9.8418  -18.2277   26.3878 C   0  0  0  0  0  0  0  0  0  0  0  0
   10.8669  -18.6731   25.8107 O   0  0  0  0  0  0  0  0  0  0  0  0
    8.0146  -13.2679   27.8562 N   0  0  0  0  0  0  0  0  0  0  0  0
    9.0827  -13.9936   27.3117 C   0  0  0  0  0  0  0  0  0  0  0  0
    9.2619  -14.0531   26.0892 O   0  0  0  0  0  0  0  0  0  0  0  0
   10.0234  -14.7092   28.2212 C   0  0  0  0  0  0  0  0  0  0  0  0
   11.0382  -15.5000   27.4502 C   0  0  0  0  0  0  0  0  0  0  0  0
   11.1893  -16.8726   28.0067 C   0  0  2  0  0  0  0  0  0  0  0  0
   10.0014  -17.6878   27.6884 N   0  0  0  0  0  0  0  0  0  0  0  0
   11.3389  -16.8718   29.4547 C   0  0  0  0  0  0  0  0  0  0  0  0
   12.5118  -16.3326   30.0217 O   0  0  0  0  0  0  0  0  0  0  0  0
   10.4624  -17.3335   30.2163 O   0  0  0  0  0  0  0  0  0  0  0  0
  2  1  1  0
  3  2  2  0
  4  3  1  0
  5  4  2  0
  5 11  1  0
  6  5  1  0
  7  9  1  0
  7  6  1  0
  7  8  1  6
  9 10  2  0
 11 12  2  0
 12  2  1  0
 13 14  1  0
 13  9  1  0
 14 20  1  0
 14 15  1  6
 16 15  1  0
 17 16  1  0
 18 17  1  0
 19 18  1  0
 20 21  2  0
 20 28  1  0
 22 23  1  0
 23 24  2  0
 23 25  1  0
 25 26  1  0
 27 26  1  1
 27 29  1  0
 28 27  1  0
 29 31  2  0
 29 30  1  0
M  END
$$$$
