YKQ.pdb
     RDKit          3D

 31 31  0  0  1  0  0  0  0  0999 V2000
    5.2180  -10.2242   27.8929 O   0  0  0  0  0  0  0  0  0  0  0  0
    5.8310  -11.3089   27.2916 C   0  0  0  0  0  0  0  0  0  0  0  0
    6.9442  -11.8931   27.8449 C   0  0  0  0  0  0  0  0  0  0  0  0
    7.5579  -12.9884   27.2319 C   0  0  0  0  0  0  0  0  0  0  0  0
    7.0689  -13.5177   26.0556 C   0  0  0  0  0  0  0  0  0  0  0  0
    7.7129  -14.6675   25.4119 C   0  0  0  0  0  0  0  0  0  0  0  0
    6.7296  -15.5775   24.7057 C   0  0  2  0  0  0  0  0  0  0  0  0
    6.5368  -16.7434   25.5656 N   0  0  0  0  0  0  0  0  0  0  0  0
    7.3872  -15.9797   23.4331 C   0  0  0  0  0  0  0  0  0  0  0  0
    7.9998  -17.0762   23.4255 O   0  0  0  0  0  0  0  0  0  0  0  0
    5.9501  -12.9138   25.5194 C   0  0  0  0  0  0  0  0  0  0  0  0
    5.3336  -11.8298   26.1159 C   0  0  0  0  0  0  0  0  0  0  0  0
    7.3617  -15.2056   22.2445 N   0  0  0  0  0  0  0  0  0  0  0  0
    8.1334  -15.5092   21.0677 C   0  0  1  0  0  0  0  0  0  0  0  0
    7.8101  -14.5129   19.9769 C   0  0  0  0  0  0  0  0  0  0  0  0
    8.6164  -14.8150   18.7313 C   0  0  0  0  0  0  0  0  0  0  0  0
    8.1980  -13.8898   17.5878 C   0  0  0  0  0  0  0  0  0  0  0  0
    8.8323  -14.4094   16.2948 C   0  0  0  0  0  0  0  0  0  0  0  0
    8.4631  -13.5872   15.1720 N   0  0  0  0  0  0  0  0  0  0  0  0
    9.5927  -15.5130   21.3255 C   0  0  0  0  0  0  0  0  0  0  0  0
   10.1068  -14.5001   21.8660 O   0  0  0  0  0  0  0  0  0  0  0  0
   11.2630  -20.0225   24.8487 N   0  0  0  0  0  0  0  0  0  0  0  0
   12.0661  -18.9879   24.3503 C   0  0  0  0  0  0  0  0  0  0  0  0
   12.9342  -18.4539   25.0514 O   0  0  0  0  0  0  0  0  0  0  0  0
   11.8730  -18.5190   22.9478 C   0  0  0  0  0  0  0  0  0  0  0  0
   11.9715  -17.0257   22.8492 C   0  0  0  0  0  0  0  0  0  0  0  0
   11.8608  -16.5694   21.4364 C   0  0  2  0  0  0  0  0  0  0  0  0
   10.4515  -16.5922   20.9998 N   0  0  0  0  0  0  0  0  0  0  0  0
   12.6121  -17.4140   20.5192 C   0  0  0  0  0  0  0  0  0  0  0  0
   11.9115  -18.2918   19.6667 O   0  0  0  0  0  0  0  0  0  0  0  0
   13.8601  -17.3895   20.4597 O   0  0  0  0  0  0  0  0  0  0  0  0
  2  1  1  0
  3  2  2  0
  4  3  1  0
  5  4  2  0
  5 11  1  0
  6  5  1  0
  7  9  1  0
  7  6  1  0
  7  8  1  1
  9 10  2  0
 11 12  2  0
 12  2  1  0
 13 14  1  0
 13  9  1  0
 14 20  1  0
 14 15  1  6
 16 15  1  0
 17 16  1  0
 18 17  1  0
 19 18  1  0
 20 21  2  0
 20 28  1  0
 22 23  1  0
 23 24  2  0
 23 25  1  0
 25 26  1  0
 27 26  1  1
 27 29  1  0
 28 27  1  0
 29 31  2  0
 29 30  1  0
M  END
$$$$
