YKQ.pdb
     RDKit          3D

 31 31  0  0  1  0  0  0  0  0999 V2000
    8.3280  -12.0930   17.1530 O   0  0  0  0  0  0  0  0  0  0  0  0
    8.0804  -12.8096   18.3101 C   0  0  0  0  0  0  0  0  0  0  0  0
    8.7713  -13.9624   18.5938 C   0  0  0  0  0  0  0  0  0  0  0  0
    8.5158  -14.6810   19.7645 C   0  0  0  0  0  0  0  0  0  0  0  0
    7.5655  -14.2590   20.6709 C   0  0  0  0  0  0  0  0  0  0  0  0
    7.2970  -15.0130   21.8999 C   0  0  0  0  0  0  0  0  0  0  0  0
    6.8471  -16.4348   21.6354 C   0  0  2  0  0  0  0  0  0  0  0  0
    5.5028  -16.3560   21.0673 N   0  0  0  0  0  0  0  0  0  0  0  0
    6.8061  -17.1037   22.9637 C   0  0  0  0  0  0  0  0  0  0  0  0
    6.1419  -16.5409   23.8692 O   0  0  0  0  0  0  0  0  0  0  0  0
    6.8849  -13.0985   20.3639 C   0  0  0  0  0  0  0  0  0  0  0  0
    7.1282  -12.3785   19.2092 C   0  0  0  0  0  0  0  0  0  0  0  0
    7.4655  -18.3240   23.2613 N   0  0  0  0  0  0  0  0  0  0  0  0
    7.5880  -18.8722   24.5868 C   0  0  1  0  0  0  0  0  0  0  0  0
    7.7084  -20.3774   24.5052 C   0  0  0  0  0  0  0  0  0  0  0  0
    6.4700  -20.9715   23.8677 C   0  0  0  0  0  0  0  0  0  0  0  0
    6.6370  -22.4802   23.6825 C   0  0  0  0  0  0  0  0  0  0  0  0
    5.4402  -22.9998   22.8813 C   0  0  0  0  0  0  0  0  0  0  0  0
    5.6024  -24.3929   22.5560 N   0  0  0  0  0  0  0  0  0  0  0  0
    8.7430  -18.3173   25.3310 C   0  0  0  0  0  0  0  0  0  0  0  0
    9.8029  -18.0776   24.6974 O   0  0  0  0  0  0  0  0  0  0  0  0
   10.4587  -13.6884   30.4554 N   0  0  0  0  0  0  0  0  0  0  0  0
   10.2568  -14.0377   29.1133 C   0  0  0  0  0  0  0  0  0  0  0  0
    9.7844  -13.2306   28.3035 O   0  0  0  0  0  0  0  0  0  0  0  0
   10.6174  -15.4084   28.6492 C   0  0  0  0  0  0  0  0  0  0  0  0
    9.4874  -16.0497   27.9000 C   0  0  0  0  0  0  0  0  0  0  0  0
    9.8875  -17.3738   27.3491 C   0  0  2  0  0  0  0  0  0  0  0  0
    8.7295  -18.0378   26.7203 N   0  0  0  0  0  0  0  0  0  0  0  0
   10.3970  -18.2717   28.3754 C   0  0  0  0  0  0  0  0  0  0  0  0
    9.7049  -19.4709   28.6411 O   0  0  0  0  0  0  0  0  0  0  0  0
   11.4293  -18.0172   29.0321 O   0  0  0  0  0  0  0  0  0  0  0  0
  2  1  1  0
  3  2  2  0
  4  3  1  0
  5  4  2  0
  5 11  1  0
  6  5  1  0
  7  9  1  0
  7  6  1  0
  7  8  1  1
  9 10  2  0
 11 12  2  0
 12  2  1  0
 13 14  1  0
 13  9  1  0
 14 20  1  0
 14 15  1  6
 16 15  1  0
 17 16  1  0
 18 17  1  0
 19 18  1  0
 20 21  2  0
 20 28  1  0
 22 23  1  0
 23 24  2  0
 23 25  1  0
 25 26  1  0
 27 26  1  1
 27 29  1  0
 28 27  1  0
 29 31  2  0
 29 30  1  0
M  END
$$$$
