YKQ.pdb
     RDKit          3D

 31 31  0  0  1  0  0  0  0  0999 V2000
    5.5096  -10.2944   26.7944 O   0  0  0  0  0  0  0  0  0  0  0  0
    5.8650  -11.5264   26.2751 C   0  0  0  0  0  0  0  0  0  0  0  0
    6.6174  -11.6249   25.1301 C   0  0  0  0  0  0  0  0  0  0  0  0
    6.9726  -12.8727   24.6115 C   0  0  0  0  0  0  0  0  0  0  0  0
    6.5815  -14.0426   25.2289 C   0  0  0  0  0  0  0  0  0  0  0  0
    6.9541  -15.3526   24.6847 C   0  0  0  0  0  0  0  0  0  0  0  0
    8.4519  -15.5748   24.6507 C   0  0  2  0  0  0  0  0  0  0  0  0
    8.9843  -14.7187   23.5924 N   0  0  0  0  0  0  0  0  0  0  0  0
    8.6440  -17.0076   24.2991 C   0  0  0  0  0  0  0  0  0  0  0  0
    8.0807  -17.8586   25.0315 O   0  0  0  0  0  0  0  0  0  0  0  0
    5.8265  -13.9178   26.3772 C   0  0  0  0  0  0  0  0  0  0  0  0
    5.4685  -12.6894   26.9005 C   0  0  0  0  0  0  0  0  0  0  0  0
    9.4166  -17.4607   23.1990 N   0  0  0  0  0  0  0  0  0  0  0  0
    9.6506  -18.8483   22.8948 C   0  0  1  0  0  0  0  0  0  0  0  0
    9.9472  -19.0023   21.4199 C   0  0  0  0  0  0  0  0  0  0  0  0
   10.1351  -20.4636   21.0699 C   0  0  0  0  0  0  0  0  0  0  0  0
   10.3779  -20.6253   19.5687 C   0  0  0  0  0  0  0  0  0  0  0  0
   11.0616  -21.9754   19.3369 C   0  0  0  0  0  0  0  0  0  0  0  0
   11.2943  -22.2022   17.9343 N   0  0  0  0  0  0  0  0  0  0  0  0
   10.7567  -19.4301   23.6911 C   0  0  0  0  0  0  0  0  0  0  0  0
   10.9690  -20.6669   23.6049 O   0  0  0  0  0  0  0  0  0  0  0  0
   15.6871  -17.3693   22.6016 N   0  0  0  0  0  0  0  0  0  0  0  0
   15.3699  -17.1702   23.9520 C   0  0  0  0  0  0  0  0  0  0  0  0
   16.1915  -16.6864   24.7403 O   0  0  0  0  0  0  0  0  0  0  0  0
   14.0165  -17.5479   24.4518 C   0  0  0  0  0  0  0  0  0  0  0  0
   13.9820  -18.9718   24.9216 C   0  0  0  0  0  0  0  0  0  0  0  0
   12.6157  -19.3601   25.3680 C   0  0  2  0  0  0  0  0  0  0  0  0
   11.5961  -18.6767   24.5492 N   0  0  0  0  0  0  0  0  0  0  0  0
   12.3637  -19.0067   26.7575 C   0  0  0  0  0  0  0  0  0  0  0  0
   13.1718  -19.5718   27.7652 O   0  0  0  0  0  0  0  0  0  0  0  0
   11.4537  -18.2178   27.0909 O   0  0  0  0  0  0  0  0  0  0  0  0
  2  1  1  0
  3  2  2  0
  4  3  1  0
  5  4  2  0
  5 11  1  0
  6  5  1  0
  7  9  1  0
  7  6  1  0
  7  8  1  6
  9 10  2  0
 11 12  2  0
 12  2  1  0
 13 14  1  0
 13  9  1  0
 14 20  1  0
 14 15  1  6
 16 15  1  0
 17 16  1  0
 18 17  1  0
 19 18  1  0
 20 21  2  0
 20 28  1  0
 22 23  1  0
 23 24  2  0
 23 25  1  0
 25 26  1  0
 27 26  1  6
 27 29  1  0
 28 27  1  0
 29 31  2  0
 29 30  1  0
M  END
$$$$
