GGL.pdb
     RDKit          3D

 17 16  0  0  1  0  0  0  0  0999 V2000
    5.2494  -18.9905   23.5424 N   0  0  0  0  0  0  0  0  0  0  0  0
    6.1767  -19.2124   22.4550 C   0  0  0  0  0  0  0  0  0  0  0  0
    7.0745  -18.0302   22.3589 C   0  0  0  0  0  0  0  0  0  0  0  0
    8.3210  -18.1475   22.4130 O   0  0  0  0  0  0  0  0  0  0  0  0
    6.5274  -16.7110   22.2000 N   0  0  0  0  0  0  0  0  0  0  0  0
    7.3602  -15.6358   21.7617 C   0  0  0  0  0  0  0  0  0  0  0  0
    8.0624  -15.0536   22.9338 C   0  0  0  0  0  0  0  0  0  0  0  0
    9.0911  -14.3620   22.7820 O   0  0  0  0  0  0  0  0  0  0  0  0
    5.4790  -12.4383   26.6268 C   0  0  0  0  0  0  0  0  0  0  0  0
    6.6508  -12.7585   25.7067 C   0  0  1  0  0  0  0  0  0  0  0  0
    7.5036  -11.5650   25.4069 C   0  0  0  0  0  0  0  0  0  0  0  0
    7.4360  -13.8853   26.3111 C   0  0  0  0  0  0  0  0  0  0  0  0
    8.3022  -14.6392   25.3735 C   0  0  2  0  0  0  0  0  0  0  0  0
    7.6097  -15.2483   24.2692 N   0  0  0  0  0  0  0  0  0  0  0  0
    9.1409  -15.6678   26.0985 C   0  0  0  0  0  0  0  0  0  0  0  0
    9.1446  -17.0055   25.7322 O   0  0  0  0  0  0  0  0  0  0  0  0
    9.8701  -15.3397   27.0674 O   0  0  0  0  0  0  0  0  0  0  0  0
  1  2  1  0
  3  5  1  0
  3  2  1  0
  4  3  2  0
  6  5  1  0
  7  6  1  0
  7  8  2  0
 10  9  1  1
 10 12  1  0
 11 10  1  0
 13 12  1  1
 13 14  1  0
 13 15  1  0
 14  7  1  0
 15 16  1  0
 17 15  2  0
M  END
$$$$
