GGL.pdb
     RDKit          3D

 17 16  0  0  1  0  0  0  0  0999 V2000
    4.2295  -20.1638   22.2337 N   0  0  0  0  0  0  0  0  0  0  0  0
    5.2262  -19.5854   23.1076 C   0  0  0  0  0  0  0  0  0  0  0  0
    5.6397  -18.2741   22.5400 C   0  0  0  0  0  0  0  0  0  0  0  0
    4.9042  -17.6419   21.7464 O   0  0  0  0  0  0  0  0  0  0  0  0
    6.9067  -17.6948   22.8924 N   0  0  0  0  0  0  0  0  0  0  0  0
    7.3235  -16.4634   22.2992 C   0  0  0  0  0  0  0  0  0  0  0  0
    8.0377  -15.6495   23.3156 C   0  0  0  0  0  0  0  0  0  0  0  0
    9.0410  -14.9749   23.0023 O   0  0  0  0  0  0  0  0  0  0  0  0
    5.8717  -12.2400   26.8112 C   0  0  0  0  0  0  0  0  0  0  0  0
    6.7846  -12.9199   25.7980 C   0  0  1  0  0  0  0  0  0  0  0  0
    7.6338  -11.9529   25.0329 C   0  0  0  0  0  0  0  0  0  0  0  0
    7.6006  -13.9563   26.5133 C   0  0  0  0  0  0  0  0  0  0  0  0
    8.3941  -14.8594   25.6459 C   0  0  2  0  0  0  0  0  0  0  0  0
    7.6256  -15.5948   24.6770 N   0  0  0  0  0  0  0  0  0  0  0  0
    9.2495  -15.8023   26.4622 C   0  0  0  0  0  0  0  0  0  0  0  0
   10.4056  -15.3804   27.1020 O   0  0  0  0  0  0  0  0  0  0  0  0
    8.9368  -17.0124   26.5884 O   0  0  0  0  0  0  0  0  0  0  0  0
  1  2  1  0
  3  5  1  0
  3  2  1  0
  4  3  2  0
  6  5  1  0
  7  6  1  0
  7  8  2  0
 10  9  1  1
 10 12  1  0
 11 10  1  0
 13 12  1  1
 13 14  1  0
 13 15  1  0
 14  7  1  0
 15 16  1  0
 17 15  2  0
M  END
$$$$
