GGL.pdb
     RDKit          3D

 17 16  0  0  1  0  0  0  0  0999 V2000
    7.9513  -13.1690   17.8474 N   0  0  0  0  0  0  0  0  0  0  0  0
    8.2498  -12.7505   19.1992 C   0  0  0  0  0  0  0  0  0  0  0  0
    7.9157  -13.8708   20.1189 C   0  0  0  0  0  0  0  0  0  0  0  0
    6.8070  -14.4529   20.0675 O   0  0  0  0  0  0  0  0  0  0  0  0
    8.8669  -14.3171   21.0991 N   0  0  0  0  0  0  0  0  0  0  0  0
    8.6150  -15.5016   21.8577 C   0  0  0  0  0  0  0  0  0  0  0  0
    8.8860  -15.2291   23.2923 C   0  0  0  0  0  0  0  0  0  0  0  0
   10.0450  -15.3136   23.7496 O   0  0  0  0  0  0  0  0  0  0  0  0
    5.4059  -12.2619   26.6998 C   0  0  0  0  0  0  0  0  0  0  0  0
    6.6665  -12.6642   25.9439 C   0  0  1  0  0  0  0  0  0  0  0  0
    7.7775  -11.6708   26.0867 C   0  0  0  0  0  0  0  0  0  0  0  0
    7.0686  -14.0400   26.3877 C   0  0  0  0  0  0  0  0  0  0  0  0
    8.1535  -14.6760   25.6029 C   0  0  2  0  0  0  0  0  0  0  0  0
    7.8586  -14.8636   24.2072 N   0  0  0  0  0  0  0  0  0  0  0  0
    8.5968  -15.9810   26.2255 C   0  0  0  0  0  0  0  0  0  0  0  0
    8.3602  -17.2048   25.6173 O   0  0  0  0  0  0  0  0  0  0  0  0
    9.2008  -15.9987   27.3268 O   0  0  0  0  0  0  0  0  0  0  0  0
  1  2  1  0
  3  5  1  0
  3  2  1  0
  4  3  2  0
  6  5  1  0
  7  6  1  0
  7  8  2  0
 10  9  1  1
 10 12  1  0
 11 10  1  0
 13 12  1  1
 13 14  1  0
 13 15  1  0
 14  7  1  0
 15 16  1  0
 17 15  2  0
M  END
$$$$
