GGL.pdb
     RDKit          3D

 17 16  0  0  1  0  0  0  0  0999 V2000
    9.9500  -17.6980   19.2222 N   0  0  0  0  0  0  0  0  0  0  0  0
    8.5304  -17.4481   19.1043 C   0  0  0  0  0  0  0  0  0  0  0  0
    7.9934  -17.1594   20.4611 C   0  0  0  0  0  0  0  0  0  0  0  0
    8.0147  -18.0204   21.3716 O   0  0  0  0  0  0  0  0  0  0  0  0
    7.4311  -15.8721   20.7634 N   0  0  0  0  0  0  0  0  0  0  0  0
    6.7168  -15.6687   21.9842 C   0  0  0  0  0  0  0  0  0  0  0  0
    7.6663  -15.2269   23.0373 C   0  0  0  0  0  0  0  0  0  0  0  0
    8.8602  -14.9873   22.7598 O   0  0  0  0  0  0  0  0  0  0  0  0
    6.0287  -11.8636   26.9882 C   0  0  0  0  0  0  0  0  0  0  0  0
    6.8002  -12.4983   25.8375 C   0  0  1  0  0  0  0  0  0  0  0  0
    7.6363  -11.5146   25.0793 C   0  0  0  0  0  0  0  0  0  0  0  0
    7.6100  -13.6393   26.3798 C   0  0  0  0  0  0  0  0  0  0  0  0
    8.2045  -14.5431   25.3663 C   0  0  2  0  0  0  0  0  0  0  0  0
    7.2748  -15.0555   24.3951 N   0  0  0  0  0  0  0  0  0  0  0  0
    8.9657  -15.6782   26.0138 C   0  0  0  0  0  0  0  0  0  0  0  0
   10.1528  -15.4713   26.7006 O   0  0  0  0  0  0  0  0  0  0  0  0
    8.5422  -16.8592   25.9496 O   0  0  0  0  0  0  0  0  0  0  0  0
  1  2  1  0
  3  5  1  0
  3  2  1  0
  4  3  2  0
  6  5  1  0
  7  6  1  0
  7  8  2  0
 10  9  1  1
 10 12  1  0
 11 10  1  0
 13 12  1  1
 13 14  1  0
 13 15  1  0
 14  7  1  0
 15 16  1  0
 17 15  2  0
M  END
$$$$
