GGL.pdb
     RDKit          3D

 17 16  0  0  1  0  0  0  0  0999 V2000
    6.3955  -19.2970   21.5478 N   0  0  0  0  0  0  0  0  0  0  0  0
    5.7154  -18.0713   21.1918 C   0  0  0  0  0  0  0  0  0  0  0  0
    6.7223  -16.9777   21.1381 C   0  0  0  0  0  0  0  0  0  0  0  0
    7.9108  -17.1966   20.8060 O   0  0  0  0  0  0  0  0  0  0  0  0
    6.3520  -15.6295   21.4695 N   0  0  0  0  0  0  0  0  0  0  0  0
    7.3249  -14.5841   21.4193 C   0  0  0  0  0  0  0  0  0  0  0  0
    7.9987  -14.4808   22.7388 C   0  0  0  0  0  0  0  0  0  0  0  0
    9.2095  -14.1846   22.8151 O   0  0  0  0  0  0  0  0  0  0  0  0
    5.7294  -12.0431   26.9264 C   0  0  0  0  0  0  0  0  0  0  0  0
    6.8602  -12.4529   25.9907 C   0  0  1  0  0  0  0  0  0  0  0  0
    8.0418  -11.5363   26.0628 C   0  0  0  0  0  0  0  0  0  0  0  0
    7.2242  -13.8794   26.2807 C   0  0  0  0  0  0  0  0  0  0  0  0
    7.9989  -14.5718   25.2233 C   0  0  2  0  0  0  0  0  0  0  0  0
    7.3140  -14.7096   23.9656 N   0  0  0  0  0  0  0  0  0  0  0  0
    8.5036  -15.9167   25.6961 C   0  0  0  0  0  0  0  0  0  0  0  0
    9.4621  -16.0350   26.6915 O   0  0  0  0  0  0  0  0  0  0  0  0
    8.0655  -16.9828   25.1965 O   0  0  0  0  0  0  0  0  0  0  0  0
  1  2  1  0
  3  5  1  0
  3  2  1  0
  4  3  2  0
  6  5  1  0
  7  6  1  0
  7  8  2  0
 10  9  1  1
 10 12  1  0
 11 10  1  0
 13 12  1  1
 13 14  1  0
 13 15  1  0
 14  7  1  0
 15 16  1  0
 17 15  2  0
M  END
$$$$
