GGL.pdb
     RDKit          3D

 17 16  0  0  1  0  0  0  0  0999 V2000
    6.2137  -20.7407   23.9119 N   0  0  0  0  0  0  0  0  0  0  0  0
    5.6681  -19.4168   23.7084 C   0  0  0  0  0  0  0  0  0  0  0  0
    6.7494  -18.5429   23.1795 C   0  0  0  0  0  0  0  0  0  0  0  0
    7.9350  -18.9414   23.1010 O   0  0  0  0  0  0  0  0  0  0  0  0
    6.4568  -17.2061   22.7411 N   0  0  0  0  0  0  0  0  0  0  0  0
    7.4917  -16.3865   22.1945 C   0  0  0  0  0  0  0  0  0  0  0  0
    8.1165  -15.5968   23.2861 C   0  0  0  0  0  0  0  0  0  0  0  0
    9.1059  -14.8687   23.0609 O   0  0  0  0  0  0  0  0  0  0  0  0
    5.8500  -12.2138   26.6241 C   0  0  0  0  0  0  0  0  0  0  0  0
    6.9405  -12.8374   25.7615 C   0  0  1  0  0  0  0  0  0  0  0  0
    8.0016  -11.8600   25.3611 C   0  0  0  0  0  0  0  0  0  0  0  0
    7.5010  -14.0246   26.4882 C   0  0  0  0  0  0  0  0  0  0  0  0
    8.3356  -14.9401   25.6741 C   0  0  2  0  0  0  0  0  0  0  0  0
    7.6308  -15.6259   24.6238 N   0  0  0  0  0  0  0  0  0  0  0  0
    9.0793  -15.9313   26.5410 C   0  0  0  0  0  0  0  0  0  0  0  0
   10.1192  -15.5459   27.3740 O   0  0  0  0  0  0  0  0  0  0  0  0
    8.7754  -17.1502   26.5345 O   0  0  0  0  0  0  0  0  0  0  0  0
  1  2  1  0
  3  5  1  0
  3  2  1  0
  4  3  2  0
  6  5  1  0
  7  6  1  0
  7  8  2  0
 10  9  1  1
 10 12  1  0
 11 10  1  0
 13 12  1  1
 13 14  1  0
 13 15  1  0
 14  7  1  0
 15 16  1  0
 17 15  2  0
M  END
$$$$
