GGL.pdb
     RDKit          3D

 17 16  0  0  1  0  0  0  0  0999 V2000
    5.6433  -22.1036   23.5093 N   0  0  0  0  0  0  0  0  0  0  0  0
    6.5587  -21.0936   23.0259 C   0  0  0  0  0  0  0  0  0  0  0  0
    5.8605  -19.7804   23.0518 C   0  0  0  0  0  0  0  0  0  0  0  0
    4.8747  -19.5473   22.3139 O   0  0  0  0  0  0  0  0  0  0  0  0
    6.3048  -18.7364   23.9335 N   0  0  0  0  0  0  0  0  0  0  0  0
    5.9292  -17.3798   23.6875 C   0  0  0  0  0  0  0  0  0  0  0  0
    7.0247  -16.4817   24.1336 C   0  0  0  0  0  0  0  0  0  0  0  0
    8.0943  -16.4133   23.4926 O   0  0  0  0  0  0  0  0  0  0  0  0
    6.0483  -11.7601   26.8024 C   0  0  0  0  0  0  0  0  0  0  0  0
    6.6610  -12.6945   25.7661 C   0  0  1  0  0  0  0  0  0  0  0  0
    7.2989  -11.9657   24.6244 C   0  0  0  0  0  0  0  0  0  0  0  0
    7.6185  -13.6157   26.4633 C   0  0  0  0  0  0  0  0  0  0  0  0
    8.0124  -14.8263   25.7039 C   0  0  2  0  0  0  0  0  0  0  0  0
    6.9174  -15.6650   25.2946 N   0  0  0  0  0  0  0  0  0  0  0  0
    9.0446  -15.6394   26.4527 C   0  0  0  0  0  0  0  0  0  0  0  0
   10.3853  -15.2852   26.4762 O   0  0  0  0  0  0  0  0  0  0  0  0
    8.7168  -16.6741   27.0852 O   0  0  0  0  0  0  0  0  0  0  0  0
  1  2  1  0
  3  5  1  0
  3  2  1  0
  4  3  2  0
  6  5  1  0
  7  6  1  0
  7  8  2  0
 10  9  1  1
 10 12  1  0
 11 10  1  0
 13 12  1  1
 13 14  1  0
 13 15  1  0
 14  7  1  0
 15 16  1  0
 17 15  2  0
M  END
$$$$
