GGL.pdb
     RDKit          3D

 17 16  0  0  1  0  0  0  0  0999 V2000
    7.8758  -13.0360   17.5342 N   0  0  0  0  0  0  0  0  0  0  0  0
    8.4190  -12.8653   18.8636 C   0  0  0  0  0  0  0  0  0  0  0  0
    8.0745  -14.0693   19.6664 C   0  0  0  0  0  0  0  0  0  0  0  0
    7.4746  -15.0458   19.1594 O   0  0  0  0  0  0  0  0  0  0  0  0
    8.4254  -14.1419   21.0580 N   0  0  0  0  0  0  0  0  0  0  0  0
    8.5535  -15.4113   21.7014 C   0  0  0  0  0  0  0  0  0  0  0  0
    8.8369  -15.2007   23.1440 C   0  0  0  0  0  0  0  0  0  0  0  0
   10.0075  -15.2440   23.5769 O   0  0  0  0  0  0  0  0  0  0  0  0
    5.5729  -12.2943   26.6611 C   0  0  0  0  0  0  0  0  0  0  0  0
    6.8196  -12.7665   25.9228 C   0  0  1  0  0  0  0  0  0  0  0  0
    7.9987  -11.8673   26.1292 C   0  0  0  0  0  0  0  0  0  0  0  0
    7.1032  -14.1836   26.3265 C   0  0  0  0  0  0  0  0  0  0  0  0
    8.1067  -14.8974   25.5012 C   0  0  2  0  0  0  0  0  0  0  0  0
    7.8089  -14.9428   24.0943 N   0  0  0  0  0  0  0  0  0  0  0  0
    8.3677  -16.2910   26.0275 C   0  0  0  0  0  0  0  0  0  0  0  0
    9.1776  -16.5222   27.1294 O   0  0  0  0  0  0  0  0  0  0  0  0
    7.8531  -17.2961   25.4769 O   0  0  0  0  0  0  0  0  0  0  0  0
  1  2  1  0
  3  5  1  0
  3  2  1  0
  4  3  2  0
  6  5  1  0
  7  6  1  0
  7  8  2  0
 10  9  1  1
 10 12  1  0
 11 10  1  0
 13 12  1  1
 13 14  1  0
 13 15  1  0
 14  7  1  0
 15 16  1  0
 17 15  2  0
M  END
$$$$
