GGL.pdb
     RDKit          3D

 17 16  0  0  1  0  0  0  0  0999 V2000
    8.1192  -12.2695   18.9199 N   0  0  0  0  0  0  0  0  0  0  0  0
    8.2915  -13.6988   19.0583 C   0  0  0  0  0  0  0  0  0  0  0  0
    7.7492  -14.1081   20.3816 C   0  0  0  0  0  0  0  0  0  0  0  0
    7.2186  -13.2792   21.1575 O   0  0  0  0  0  0  0  0  0  0  0  0
    7.8218  -15.4789   20.8063 N   0  0  0  0  0  0  0  0  0  0  0  0
    7.1528  -15.8986   21.9971 C   0  0  0  0  0  0  0  0  0  0  0  0
    7.9278  -15.4419   23.1789 C   0  0  0  0  0  0  0  0  0  0  0  0
    9.1726  -15.3539   23.1300 O   0  0  0  0  0  0  0  0  0  0  0  0
    5.7544  -12.0383   27.0012 C   0  0  0  0  0  0  0  0  0  0  0  0
    6.6809  -12.6131   25.9366 C   0  0  1  0  0  0  0  0  0  0  0  0
    7.6372  -11.6022   25.3842 C   0  0  0  0  0  0  0  0  0  0  0  0
    7.3815  -13.8092   26.5113 C   0  0  0  0  0  0  0  0  0  0  0  0
    8.0966  -14.6648   25.5345 C   0  0  2  0  0  0  0  0  0  0  0  0
    7.3058  -15.0863   24.4089 N   0  0  0  0  0  0  0  0  0  0  0  0
    8.7326  -15.8611   26.2063 C   0  0  0  0  0  0  0  0  0  0  0  0
    8.4049  -17.1626   25.8564 O   0  0  0  0  0  0  0  0  0  0  0  0
    9.5885  -15.7128   27.1138 O   0  0  0  0  0  0  0  0  0  0  0  0
  1  2  1  0
  3  5  1  0
  3  2  1  0
  4  3  2  0
  6  5  1  0
  7  6  1  0
  7  8  2  0
 10  9  1  1
 10 12  1  0
 11 10  1  0
 13 12  1  1
 13 14  1  0
 13 15  1  0
 14  7  1  0
 15 16  1  0
 17 15  2  0
M  END
$$$$
