GGL.pdb
     RDKit          3D

 17 16  0  0  1  0  0  0  0  0999 V2000
    5.2918  -21.1232   22.4640 N   0  0  0  0  0  0  0  0  0  0  0  0
    5.4879  -20.0627   23.4276 C   0  0  0  0  0  0  0  0  0  0  0  0
    5.7151  -18.7939   22.6851 C   0  0  0  0  0  0  0  0  0  0  0  0
    5.3257  -18.6473   21.5030 O   0  0  0  0  0  0  0  0  0  0  0  0
    6.3939  -17.6940   23.3129 N   0  0  0  0  0  0  0  0  0  0  0  0
    7.2575  -16.8513   22.5473 C   0  0  0  0  0  0  0  0  0  0  0  0
    7.8369  -15.8112   23.4351 C   0  0  0  0  0  0  0  0  0  0  0  0
    8.7723  -15.0842   23.0398 O   0  0  0  0  0  0  0  0  0  0  0  0
    7.1728  -12.3630   24.6264 C   0  0  0  0  0  0  0  0  0  0  0  0
    7.3026  -12.4454   26.1425 C   0  0  1  0  0  0  0  0  0  0  0  0
    6.2498  -11.6629   26.8642 C   0  0  0  0  0  0  0  0  0  0  0  0
    7.3140  -13.8920   26.5410 C   0  0  0  0  0  0  0  0  0  0  0  0
    8.1254  -14.7878   25.6825 C   0  0  2  0  0  0  0  0  0  0  0  0
    7.3665  -15.5901   24.7603 N   0  0  0  0  0  0  0  0  0  0  0  0
    9.0445  -15.6623   26.5056 C   0  0  0  0  0  0  0  0  0  0  0  0
   10.2428  -15.1910   27.0211 O   0  0  0  0  0  0  0  0  0  0  0  0
    8.7486  -16.8580   26.7520 O   0  0  0  0  0  0  0  0  0  0  0  0
  1  2  1  0
  3  5  1  0
  3  2  1  0
  4  3  2  0
  6  5  1  0
  7  6  1  0
  7  8  2  0
 10  9  1  6
 10 12  1  0
 11 10  1  0
 13 12  1  1
 13 14  1  0
 13 15  1  0
 14  7  1  0
 15 16  1  0
 17 15  2  0
M  END
$$$$
