GGL.pdb
     RDKit          3D

 17 16  0  0  1  0  0  0  0  0999 V2000
    7.0506  -19.5857   23.1866 N   0  0  0  0  0  0  0  0  0  0  0  0
    6.1154  -18.9874   22.2597 C   0  0  0  0  0  0  0  0  0  0  0  0
    6.2950  -17.5114   22.3033 C   0  0  0  0  0  0  0  0  0  0  0  0
    5.4206  -16.7587   22.7926 O   0  0  0  0  0  0  0  0  0  0  0  0
    7.4889  -16.9071   21.7796 N   0  0  0  0  0  0  0  0  0  0  0  0
    7.6273  -15.4849   21.7648 C   0  0  0  0  0  0  0  0  0  0  0  0
    8.2313  -15.0401   23.0466 C   0  0  0  0  0  0  0  0  0  0  0  0
    9.3248  -14.4369   23.0610 O   0  0  0  0  0  0  0  0  0  0  0  0
    5.5495  -12.2262   26.6071 C   0  0  0  0  0  0  0  0  0  0  0  0
    6.7460  -12.6931   25.7870 C   0  0  1  0  0  0  0  0  0  0  0  0
    7.8222  -11.6579   25.6787 C   0  0  0  0  0  0  0  0  0  0  0  0
    7.2481  -13.9816   26.3694 C   0  0  0  0  0  0  0  0  0  0  0  0
    8.1852  -14.7499   25.5155 C   0  0  2  0  0  0  0  0  0  0  0  0
    7.6086  -15.2727   24.3054 N   0  0  0  0  0  0  0  0  0  0  0  0
    8.8651  -15.8548   26.2927 C   0  0  0  0  0  0  0  0  0  0  0  0
    9.6714  -15.5940   27.3907 O   0  0  0  0  0  0  0  0  0  0  0  0
    8.7197  -17.0587   25.9648 O   0  0  0  0  0  0  0  0  0  0  0  0
  1  2  1  0
  3  5  1  0
  3  2  1  0
  4  3  2  0
  6  5  1  0
  7  6  1  0
  7  8  2  0
 10  9  1  1
 10 12  1  0
 11 10  1  0
 13 12  1  1
 13 14  1  0
 13 15  1  0
 14  7  1  0
 15 16  1  0
 17 15  2  0
M  END
$$$$
