GGL.pdb
     RDKit          3D

 17 16  0  0  1  0  0  0  0  0999 V2000
    8.3219  -12.1617   18.9538 N   0  0  0  0  0  0  0  0  0  0  0  0
    8.4441  -13.6014   19.0172 C   0  0  0  0  0  0  0  0  0  0  0  0
    7.8580  -14.0631   20.3041 C   0  0  0  0  0  0  0  0  0  0  0  0
    7.0333  -13.3634   20.9374 O   0  0  0  0  0  0  0  0  0  0  0  0
    8.2277  -15.3365   20.8577 N   0  0  0  0  0  0  0  0  0  0  0  0
    7.5232  -15.8620   21.9844 C   0  0  0  0  0  0  0  0  0  0  0  0
    8.1929  -15.4126   23.2315 C   0  0  0  0  0  0  0  0  0  0  0  0
    9.4206  -15.1846   23.2496 O   0  0  0  0  0  0  0  0  0  0  0  0
    5.6393  -12.1272   26.8208 C   0  0  0  0  0  0  0  0  0  0  0  0
    6.7065  -12.6735   25.8801 C   0  0  1  0  0  0  0  0  0  0  0  0
    7.7281  -11.6491   25.4950 C   0  0  0  0  0  0  0  0  0  0  0  0
    7.3228  -13.8863   26.5132 C   0  0  0  0  0  0  0  0  0  0  0  0
    8.1607  -14.7210   25.6194 C   0  0  2  0  0  0  0  0  0  0  0  0
    7.4851  -15.2207   24.4516 N   0  0  0  0  0  0  0  0  0  0  0  0
    8.8148  -15.8570   26.3736 C   0  0  0  0  0  0  0  0  0  0  0  0
    8.5532  -17.1860   26.0750 O   0  0  0  0  0  0  0  0  0  0  0  0
    9.6258  -15.6308   27.3059 O   0  0  0  0  0  0  0  0  0  0  0  0
  1  2  1  0
  3  5  1  0
  3  2  1  0
  4  3  2  0
  6  5  1  0
  7  6  1  0
  7  8  2  0
 10  9  1  1
 10 12  1  0
 11 10  1  0
 13 12  1  1
 13 14  1  0
 13 15  1  0
 14  7  1  0
 15 16  1  0
 17 15  2  0
M  END
$$$$
