GGL.pdb
     RDKit          3D

 17 16  0  0  1  0  0  0  0  0999 V2000
    6.7692  -20.6742   23.8221 N   0  0  0  0  0  0  0  0  0  0  0  0
    6.1465  -19.3770   23.9672 C   0  0  0  0  0  0  0  0  0  0  0  0
    6.9822  -18.3757   23.2520 C   0  0  0  0  0  0  0  0  0  0  0  0
    8.1838  -18.6014   22.9763 O   0  0  0  0  0  0  0  0  0  0  0  0
    6.4254  -17.1117   22.8558 N   0  0  0  0  0  0  0  0  0  0  0  0
    7.2513  -16.1267   22.2316 C   0  0  0  0  0  0  0  0  0  0  0  0
    7.9654  -15.3536   23.2795 C   0  0  0  0  0  0  0  0  0  0  0  0
    9.0706  -14.8240   23.0395 O   0  0  0  0  0  0  0  0  0  0  0  0
    5.6409  -12.0093   26.8364 C   0  0  0  0  0  0  0  0  0  0  0  0
    6.6240  -12.5854   25.8245 C   0  0  1  0  0  0  0  0  0  0  0  0
    7.4652  -11.5384   25.1630 C   0  0  0  0  0  0  0  0  0  0  0  0
    7.4499  -13.6351   26.5083 C   0  0  0  0  0  0  0  0  0  0  0  0
    8.2190  -14.5312   25.6121 C   0  0  2  0  0  0  0  0  0  0  0  0
    7.4389  -15.1773   24.5903 N   0  0  0  0  0  0  0  0  0  0  0  0
    9.0082  -15.5556   26.3961 C   0  0  0  0  0  0  0  0  0  0  0  0
   10.0067  -15.1914   27.2872 O   0  0  0  0  0  0  0  0  0  0  0  0
    8.7820  -16.7843   26.2640 O   0  0  0  0  0  0  0  0  0  0  0  0
  1  2  1  0
  3  5  1  0
  3  2  1  0
  4  3  2  0
  6  5  1  0
  7  6  1  0
  7  8  2  0
 10  9  1  1
 10 12  1  0
 11 10  1  0
 13 12  1  1
 13 14  1  0
 13 15  1  0
 14  7  1  0
 15 16  1  0
 17 15  2  0
M  END
$$$$
