GGL.pdb
     RDKit          3D

 17 16  0  0  1  0  0  0  0  0999 V2000
    5.2553  -20.6209   23.4999 N   0  0  0  0  0  0  0  0  0  0  0  0
    6.5405  -19.9696   23.6262 C   0  0  0  0  0  0  0  0  0  0  0  0
    6.4347  -18.6100   23.0321 C   0  0  0  0  0  0  0  0  0  0  0  0
    5.3292  -18.0330   22.9076 O   0  0  0  0  0  0  0  0  0  0  0  0
    7.6110  -17.9182   22.5820 N   0  0  0  0  0  0  0  0  0  0  0  0
    7.5065  -16.5993   22.0422 C   0  0  0  0  0  0  0  0  0  0  0  0
    8.0247  -15.6234   23.0347 C   0  0  0  0  0  0  0  0  0  0  0  0
    8.9910  -14.8829   22.7563 O   0  0  0  0  0  0  0  0  0  0  0  0
    6.5924  -12.4881   27.6220 C   0  0  0  0  0  0  0  0  0  0  0  0
    6.7193  -12.1999   26.1310 C   0  0  1  0  0  0  0  0  0  0  0  0
    8.0195  -11.5524   25.7678 C   0  0  0  0  0  0  0  0  0  0  0  0
    6.4861  -13.4768   25.3782 C   0  0  0  0  0  0  0  0  0  0  0  0
    7.6941  -14.2926   25.1086 C   0  0  2  0  0  0  0  0  0  0  0  0
    7.4588  -15.4814   24.3331 N   0  0  0  0  0  0  0  0  0  0  0  0
    8.4279  -14.6359   26.3856 C   0  0  0  0  0  0  0  0  0  0  0  0
    8.5096  -15.9363   26.8610 O   0  0  0  0  0  0  0  0  0  0  0  0
    8.9939  -13.7435   27.0649 O   0  0  0  0  0  0  0  0  0  0  0  0
  1  2  1  0
  3  5  1  0
  3  2  1  0
  4  3  2  0
  6  5  1  0
  7  6  1  0
  7  8  2  0
 10  9  1  1
 10 12  1  0
 11 10  1  0
 13 12  1  1
 13 14  1  0
 13 15  1  0
 14  7  1  0
 15 16  1  0
 17 15  2  0
M  END
$$$$
