GGL.pdb
     RDKit          3D

 17 16  0  0  1  0  0  0  0  0999 V2000
    6.3581  -20.5183   21.2661 N   0  0  0  0  0  0  0  0  0  0  0  0
    6.4528  -19.6260   22.4004 C   0  0  0  0  0  0  0  0  0  0  0  0
    6.8348  -18.2774   21.9023 C   0  0  0  0  0  0  0  0  0  0  0  0
    7.7519  -18.1244   21.0620 O   0  0  0  0  0  0  0  0  0  0  0  0
    6.1538  -17.1051   22.3784 N   0  0  0  0  0  0  0  0  0  0  0  0
    6.6076  -15.8053   21.9957 C   0  0  0  0  0  0  0  0  0  0  0  0
    7.5307  -15.2850   23.0364 C   0  0  0  0  0  0  0  0  0  0  0  0
    8.7419  -15.1122   22.7858 O   0  0  0  0  0  0  0  0  0  0  0  0
    5.9225  -11.7680   27.0875 C   0  0  0  0  0  0  0  0  0  0  0  0
    6.6488  -12.3885   25.9001 C   0  0  1  0  0  0  0  0  0  0  0  0
    7.5343  -11.4178   25.1824 C   0  0  0  0  0  0  0  0  0  0  0  0
    7.3959  -13.5985   26.3789 C   0  0  0  0  0  0  0  0  0  0  0  0
    8.0159  -14.4305   25.3202 C   0  0  2  0  0  0  0  0  0  0  0  0
    7.0935  -14.9608   24.3517 N   0  0  0  0  0  0  0  0  0  0  0  0
    8.8555  -15.5422   25.9088 C   0  0  0  0  0  0  0  0  0  0  0  0
   10.1033  -15.3062   26.4665 O   0  0  0  0  0  0  0  0  0  0  0  0
    8.4447  -16.7293   25.9116 O   0  0  0  0  0  0  0  0  0  0  0  0
  1  2  1  0
  3  5  1  0
  3  2  1  0
  4  3  2  0
  6  5  1  0
  7  6  1  0
  7  8  2  0
 10  9  1  1
 10 12  1  0
 11 10  1  0
 13 12  1  1
 13 14  1  0
 13 15  1  0
 14  7  1  0
 15 16  1  0
 17 15  2  0
M  END
$$$$
