PIE.pdb
     RDKit          3D

 25 25  0  0  1  0  0  0  0  0999 V2000
   28.5602  -20.8151  -15.3774 N   0  0  0  0  0  0  0  0  0  0  0  0
   28.5728  -20.2191  -16.7113 C   0  0  0  0  0  0  0  0  0  0  0  0
   28.3877  -18.7163  -16.4407 C   0  0  0  0  0  0  0  0  0  0  0  0
   27.3035  -18.8197  -15.3731 C   0  0  0  0  0  0  0  0  0  0  0  0
   27.8271  -19.9343  -14.5274 C   0  0  1  0  0  0  0  0  0  0  0  0
   26.7670  -20.6242  -13.7536 C   0  0  0  0  0  0  0  0  0  0  0  0
   26.2154  -21.6151  -14.2883 O   0  0  0  0  0  0  0  0  0  0  0  0
   26.8213  -20.5378   -8.3892 C   0  0  0  0  0  0  0  0  0  0  0  0
   26.5514  -21.0906   -9.7623 C   0  0  0  0  0  0  0  0  0  0  0  0
   25.2605  -20.5848  -10.3624 C   0  0  2  0  0  0  0  0  0  0  0  0
   24.1018  -21.1230   -9.5764 C   0  0  0  0  0  0  0  0  0  0  0  0
   25.1926  -20.8812  -11.8211 C   0  0  2  0  0  0  0  0  0  0  0  0
   26.3470  -20.2360  -12.4677 N   0  0  0  0  0  0  0  0  0  0  0  0
   23.9267  -20.4272  -12.4475 C   0  0  0  0  0  0  0  0  0  0  0  0
   23.7534  -19.1955  -12.5705 O   0  0  0  0  0  0  0  0  0  0  0  0
   22.9362  -21.3009  -12.8979 N   0  0  0  0  0  0  0  0  0  0  0  0
   21.6714  -20.8992  -13.5263 C   0  0  1  0  0  0  0  0  0  0  0  0
   21.5360  -21.4731  -14.8696 C   0  0  0  0  0  0  0  0  0  0  0  0
   20.2610  -21.1667  -15.5651 C   0  0  0  0  0  0  0  0  0  0  0  0
   20.1669  -21.7888  -16.9142 C   0  0  0  0  0  0  0  0  0  0  0  0
   21.1208  -22.5585  -17.2927 O   0  0  0  0  0  0  0  0  0  0  0  0
   20.5342  -20.9455  -12.6490 C   0  0  0  0  0  0  0  0  0  0  0  0
   20.2573  -21.8296  -11.8072 O   0  0  0  0  0  0  0  0  0  0  0  0
   19.1166  -21.5815  -17.7697 O   0  0  0  0  0  0  0  0  0  0  0  0
   19.6034  -19.8884  -12.7193 O   0  0  0  0  0  0  0  0  0  0  0  0
  1  5  1  0
  2  1  1  0
  3  2  1  0
  3  4  1  0
  4  5  1  0
  5  6  1  6
  6  7  2  0
  9 10  1  0
  9  8  1  0
 10 12  1  0
 10 11  1  1
 12 13  1  6
 12 14  1  0
 13  6  1  0
 14 15  2  0
 14 16  1  0
 16 17  1  0
 17 22  1  0
 17 18  1  6
 19 18  1  0
 19 20  1  0
 20 21  2  0
 22 23  2  0
 22 25  1  0
 24 20  1  0
M  END
$$$$
