PIE.pdb
     RDKit          3D

 25 25  0  0  1  0  0  0  0  0999 V2000
   20.5441  -12.3619  -18.0623 N   0  0  0  0  0  0  0  0  0  0  0  0
   20.2687  -13.7905  -18.1951 C   0  0  0  0  0  0  0  0  0  0  0  0
   19.0200  -14.0037  -17.3227 C   0  0  0  0  0  0  0  0  0  0  0  0
   19.4369  -13.1451  -16.1332 C   0  0  0  0  0  0  0  0  0  0  0  0
   19.9874  -11.9375  -16.8190 C   0  0  1  0  0  0  0  0  0  0  0  0
   20.9489  -11.1811  -15.9813 C   0  0  0  0  0  0  0  0  0  0  0  0
   20.5622  -10.8174  -14.8454 O   0  0  0  0  0  0  0  0  0  0  0  0
   26.1021  -12.3572  -15.8333 C   0  0  0  0  0  0  0  0  0  0  0  0
   24.7283  -11.8631  -15.4697 C   0  0  0  0  0  0  0  0  0  0  0  0
   24.5267  -10.3961  -15.7694 C   0  0  2  0  0  0  0  0  0  0  0  0
   25.5225   -9.5879  -14.9912 C   0  0  0  0  0  0  0  0  0  0  0  0
   23.1105   -9.9906  -15.5455 C   0  0  2  0  0  0  0  0  0  0  0  0
   22.2568  -10.8499  -16.3821 N   0  0  0  0  0  0  0  0  0  0  0  0
   22.8614   -8.5598  -15.8482 C   0  0  0  0  0  0  0  0  0  0  0  0
   22.6572   -8.2500  -17.0417 O   0  0  0  0  0  0  0  0  0  0  0  0
   22.8459   -7.5602  -14.8746 N   0  0  0  0  0  0  0  0  0  0  0  0
   22.2680   -6.2208  -15.0420 C   0  0  1  0  0  0  0  0  0  0  0  0
   20.9264   -6.2874  -15.6316 C   0  0  0  0  0  0  0  0  0  0  0  0
   20.2157   -4.9888  -15.7403 C   0  0  0  0  0  0  0  0  0  0  0  0
   18.8022   -5.1314  -16.1849 C   0  0  0  0  0  0  0  0  0  0  0  0
   18.1589   -4.0685  -16.5043 O   0  0  0  0  0  0  0  0  0  0  0  0
   22.4769   -5.3426  -13.9240 C   0  0  0  0  0  0  0  0  0  0  0  0
   22.7831   -5.6606  -12.7526 O   0  0  0  0  0  0  0  0  0  0  0  0
   18.1553   -6.3365  -16.2699 O   0  0  0  0  0  0  0  0  0  0  0  0
   22.3271   -3.9566  -14.1369 O   0  0  0  0  0  0  0  0  0  0  0  0
  1  5  1  0
  2  1  1  0
  3  2  1  0
  3  4  1  0
  4  5  1  0
  5  6  1  1
  6  7  2  0
  9 10  1  0
  9  8  1  0
 10 12  1  0
 10 11  1  1
 12 13  1  6
 12 14  1  0
 13  6  1  0
 14 15  2  0
 14 16  1  0
 16 17  1  0
 17 22  1  0
 17 18  1  1
 19 18  1  0
 19 20  1  0
 20 21  2  0
 22 23  2  0
 22 25  1  0
 24 20  1  0
M  END
$$$$
