PIE.pdb
     RDKit          3D

 25 25  0  0  1  0  0  0  0  0999 V2000
   24.0178  -12.0830  -16.5433 N   0  0  0  0  0  0  0  0  0  0  0  0
   25.4687  -12.2018  -16.6673 C   0  0  0  0  0  0  0  0  0  0  0  0
   25.9861  -11.8261  -15.2684 C   0  0  0  0  0  0  0  0  0  0  0  0
   25.0723  -10.6322  -15.0123 C   0  0  0  0  0  0  0  0  0  0  0  0
   23.7577  -11.1590  -15.4876 C   0  0  1  0  0  0  0  0  0  0  0  0
   22.8083  -10.0882  -15.8753 C   0  0  0  0  0  0  0  0  0  0  0  0
   22.7912   -9.7414  -17.0800 O   0  0  0  0  0  0  0  0  0  0  0  0
   17.8903  -10.5470  -15.2129 C   0  0  0  0  0  0  0  0  0  0  0  0
   19.1892  -10.0057  -15.7456 C   0  0  0  0  0  0  0  0  0  0  0  0
   19.6433   -8.7502  -15.0386 C   0  0  2  0  0  0  0  0  0  0  0  0
   18.6328   -7.6631  -15.2569 C   0  0  0  0  0  0  0  0  0  0  0  0
   21.0292   -8.3780  -15.4396 C   0  0  2  0  0  0  0  0  0  0  0  0
   21.9344   -9.4439  -14.9797 N   0  0  0  0  0  0  0  0  0  0  0  0
   21.4574   -7.0646  -14.8984 C   0  0  0  0  0  0  0  0  0  0  0  0
   21.5982   -6.9694  -13.6602 O   0  0  0  0  0  0  0  0  0  0  0  0
   21.7053   -5.9484  -15.6983 N   0  0  0  0  0  0  0  0  0  0  0  0
   22.1613   -4.6400  -15.2122 C   0  0  1  0  0  0  0  0  0  0  0  0
   23.2088   -4.0844  -16.0759 C   0  0  0  0  0  0  0  0  0  0  0  0
   24.4073   -4.9423  -16.2522 C   0  0  0  0  0  0  0  0  0  0  0  0
   25.4349   -4.3353  -17.1419 C   0  0  0  0  0  0  0  0  0  0  0  0
   26.3096   -3.5597  -16.6137 O   0  0  0  0  0  0  0  0  0  0  0  0
   21.1039   -3.7688  -14.7788 C   0  0  0  0  0  0  0  0  0  0  0  0
   19.9128   -3.7665  -15.1641 O   0  0  0  0  0  0  0  0  0  0  0  0
   25.4936   -4.5620  -18.4921 O   0  0  0  0  0  0  0  0  0  0  0  0
   21.4098   -2.7923  -13.8084 O   0  0  0  0  0  0  0  0  0  0  0  0
  1  5  1  0
  2  1  1  0
  3  2  1  0
  3  4  1  0
  4  5  1  0
  5  6  1  6
  6  7  2  0
  9 10  1  0
  9  8  1  0
 10 12  1  0
 10 11  1  6
 12 13  1  1
 12 14  1  0
 13  6  1  0
 14 15  2  0
 14 16  1  0
 16 17  1  0
 17 22  1  0
 17 18  1  6
 19 18  1  0
 19 20  1  0
 20 21  2  0
 22 23  2  0
 22 25  1  0
 24 20  1  0
M  END
$$$$
