PIE.pdb
     RDKit          3D

 25 25  0  0  1  0  0  0  0  0999 V2000
   16.0086  -18.0746    3.2928 N   0  0  0  0  0  0  0  0  0  0  0  0
   15.4407  -19.3918    3.5700 C   0  0  0  0  0  0  0  0  0  0  0  0
   14.5575  -19.1550    4.8067 C   0  0  0  0  0  0  0  0  0  0  0  0
   15.5160  -18.2651    5.5910 C   0  0  0  0  0  0  0  0  0  0  0  0
   16.0101  -17.3476    4.5205 C   0  0  1  0  0  0  0  0  0  0  0  0
   17.3271  -16.7435    4.8350 C   0  0  0  0  0  0  0  0  0  0  0  0
   18.1231  -16.5682    3.8823 O   0  0  0  0  0  0  0  0  0  0  0  0
   17.3262  -12.9138    3.5682 C   0  0  0  0  0  0  0  0  0  0  0  0
   17.9502  -14.1170    4.2214 C   0  0  0  0  0  0  0  0  0  0  0  0
   18.0026  -14.0141    5.7278 C   0  0  2  0  0  0  0  0  0  0  0  0
   18.6559  -12.7207    6.1158 C   0  0  0  0  0  0  0  0  0  0  0  0
   18.6414  -15.2191    6.3278 C   0  0  2  0  0  0  0  0  0  0  0  0
   17.7328  -16.3598    6.1269 N   0  0  0  0  0  0  0  0  0  0  0  0
   18.9554  -15.0535    7.7682 C   0  0  0  0  0  0  0  0  0  0  0  0
   18.6149  -13.9813    8.3130 O   0  0  0  0  0  0  0  0  0  0  0  0
   19.6043  -16.0263    8.5296 N   0  0  0  0  0  0  0  0  0  0  0  0
   19.0232  -16.7331    9.6780 C   0  0  1  0  0  0  0  0  0  0  0  0
   17.6118  -17.0592    9.4464 C   0  0  0  0  0  0  0  0  0  0  0  0
   16.9381  -17.7841   10.5528 C   0  0  0  0  0  0  0  0  0  0  0  0
   15.5109  -18.0942   10.2649 C   0  0  0  0  0  0  0  0  0  0  0  0
   15.1607  -18.2464    9.0402 O   0  0  0  0  0  0  0  0  0  0  0  0
   19.8723  -17.7470   10.2400 C   0  0  0  0  0  0  0  0  0  0  0  0
   20.8245  -18.3381    9.6822 O   0  0  0  0  0  0  0  0  0  0  0  0
   14.5552  -18.2246   11.2384 O   0  0  0  0  0  0  0  0  0  0  0  0
   19.6321  -18.1452   11.5713 O   0  0  0  0  0  0  0  0  0  0  0  0
  1  5  1  0
  2  1  1  0
  3  2  1  0
  3  4  1  0
  4  5  1  0
  5  6  1  1
  6  7  2  0
  9 10  1  0
  9  8  1  0
 10 12  1  0
 10 11  1  6
 12 13  1  1
 12 14  1  0
 13  6  1  0
 14 15  2  0
 14 16  1  0
 16 17  1  0
 17 22  1  0
 17 18  1  6
 19 18  1  0
 19 20  1  0
 20 21  2  0
 22 23  2  0
 22 25  1  0
 24 20  1  0
M  END
$$$$
