PIE.pdb
     RDKit          3D

 25 25  0  0  1  0  0  0  0  0999 V2000
   28.5621  -21.3790  -15.4171 N   0  0  0  0  0  0  0  0  0  0  0  0
   28.6596  -21.1449  -16.8559 C   0  0  0  0  0  0  0  0  0  0  0  0
   28.3450  -19.6465  -17.0035 C   0  0  0  0  0  0  0  0  0  0  0  0
   27.1744  -19.5733  -16.0288 C   0  0  0  0  0  0  0  0  0  0  0  0
   27.6919  -20.3817  -14.8841 C   0  0  1  0  0  0  0  0  0  0  0  0
   26.6141  -20.9458  -14.0365 C   0  0  0  0  0  0  0  0  0  0  0  0
   26.1520  -22.0653  -14.3608 O   0  0  0  0  0  0  0  0  0  0  0  0
   26.6167  -20.5840   -8.7923 C   0  0  0  0  0  0  0  0  0  0  0  0
   26.3083  -21.1008  -10.1713 C   0  0  0  0  0  0  0  0  0  0  0  0
   25.0433  -20.5163  -10.7549 C   0  0  2  0  0  0  0  0  0  0  0  0
   23.8697  -20.9376   -9.9210 C   0  0  0  0  0  0  0  0  0  0  0  0
   24.9114  -20.8537  -12.2002 C   0  0  2  0  0  0  0  0  0  0  0  0
   26.0837  -20.3048  -12.9013 N   0  0  0  0  0  0  0  0  0  0  0  0
   23.6579  -20.3395  -12.8045 C   0  0  0  0  0  0  0  0  0  0  0  0
   23.4435  -19.1104  -12.7294 O   0  0  0  0  0  0  0  0  0  0  0  0
   22.7220  -21.1546  -13.4424 N   0  0  0  0  0  0  0  0  0  0  0  0
   21.4742  -20.6907  -14.0619 C   0  0  1  0  0  0  0  0  0  0  0  0
   21.1598  -21.4594  -15.2711 C   0  0  0  0  0  0  0  0  0  0  0  0
   20.4472  -22.7411  -15.0411 C   0  0  0  0  0  0  0  0  0  0  0  0
   20.1504  -23.4790  -16.2994 C   0  0  0  0  0  0  0  0  0  0  0  0
   19.5373  -24.6023  -16.2111 O   0  0  0  0  0  0  0  0  0  0  0  0
   20.4136  -20.4261  -13.1291 C   0  0  0  0  0  0  0  0  0  0  0  0
   20.2699  -20.9076  -11.9826 O   0  0  0  0  0  0  0  0  0  0  0  0
   20.4980  -23.0208  -17.5433 O   0  0  0  0  0  0  0  0  0  0  0  0
   19.4017  -19.5246  -13.5193 O   0  0  0  0  0  0  0  0  0  0  0  0
  1  5  1  0
  2  1  1  0
  3  2  1  0
  3  4  1  0
  4  5  1  0
  5  6  1  6
  6  7  2  0
  9 10  1  0
  9  8  1  0
 10 12  1  0
 10 11  1  1
 12 13  1  6
 12 14  1  0
 13  6  1  0
 14 15  2  0
 14 16  1  0
 16 17  1  0
 17 22  1  0
 17 18  1  6
 19 18  1  0
 19 20  1  0
 20 21  2  0
 22 23  2  0
 22 25  1  0
 24 20  1  0
M  END
$$$$
