PIE.pdb
     RDKit          3D

 25 25  0  0  1  0  0  0  0  0999 V2000
   28.5544  -20.7098  -15.2240 N   0  0  0  0  0  0  0  0  0  0  0  0
   28.6260  -20.1554  -16.5738 C   0  0  0  0  0  0  0  0  0  0  0  0
   28.3831  -18.6512  -16.3634 C   0  0  0  0  0  0  0  0  0  0  0  0
   27.2432  -18.7542  -15.3554 C   0  0  0  0  0  0  0  0  0  0  0  0
   27.7492  -19.8256  -14.4456 C   0  0  1  0  0  0  0  0  0  0  0  0
   26.6668  -20.5229  -13.7104 C   0  0  0  0  0  0  0  0  0  0  0  0
   26.2274  -21.5880  -14.2050 O   0  0  0  0  0  0  0  0  0  0  0  0
   26.5211  -20.3787   -8.4282 C   0  0  0  0  0  0  0  0  0  0  0  0
   26.2657  -20.9695   -9.7882 C   0  0  0  0  0  0  0  0  0  0  0  0
   24.9906  -20.4668  -10.4236 C   0  0  2  0  0  0  0  0  0  0  0  0
   23.8119  -21.0132   -9.6737 C   0  0  0  0  0  0  0  0  0  0  0  0
   24.9663  -20.7575  -11.8848 C   0  0  2  0  0  0  0  0  0  0  0  0
   26.1086  -20.0643  -12.5026 N   0  0  0  0  0  0  0  0  0  0  0  0
   23.6977  -20.3498  -12.5370 C   0  0  0  0  0  0  0  0  0  0  0  0
   23.3800  -19.1426  -12.4758 O   0  0  0  0  0  0  0  0  0  0  0  0
   22.8565  -21.2408  -13.2047 N   0  0  0  0  0  0  0  0  0  0  0  0
   21.4707  -20.9637  -13.6031 C   0  0  1  0  0  0  0  0  0  0  0  0
   20.8593  -22.1269  -14.2550 C   0  0  0  0  0  0  0  0  0  0  0  0
   19.4676  -21.9285  -14.7317 C   0  0  0  0  0  0  0  0  0  0  0  0
   18.9005  -23.1331  -15.3975 C   0  0  0  0  0  0  0  0  0  0  0  0
   19.6191  -24.1949  -15.4399 O   0  0  0  0  0  0  0  0  0  0  0  0
   20.7025  -20.2543  -12.6174 C   0  0  0  0  0  0  0  0  0  0  0  0
   20.4982  -20.5860  -11.4277 O   0  0  0  0  0  0  0  0  0  0  0  0
   17.6539  -23.1651  -15.9660 O   0  0  0  0  0  0  0  0  0  0  0  0
   20.0952  -19.0410  -13.0021 O   0  0  0  0  0  0  0  0  0  0  0  0
  1  5  1  0
  2  1  1  0
  3  2  1  0
  3  4  1  0
  4  5  1  0
  5  6  1  6
  6  7  2  0
  9 10  1  0
  9  8  1  0
 10 12  1  0
 10 11  1  1
 12 13  1  6
 12 14  1  0
 13  6  1  0
 14 15  2  0
 14 16  1  0
 16 17  1  0
 17 22  1  0
 17 18  1  1
 19 18  1  0
 19 20  1  0
 20 21  2  0
 22 23  2  0
 22 25  1  0
 24 20  1  0
M  END
$$$$
