PIE.pdb
     RDKit          3D

 25 25  0  0  1  0  0  0  0  0999 V2000
   21.1901  -10.1787  -20.0992 N   0  0  0  0  0  0  0  0  0  0  0  0
   20.8324  -11.3422  -20.9072 C   0  0  0  0  0  0  0  0  0  0  0  0
   19.2944  -11.3227  -20.9135 C   0  0  0  0  0  0  0  0  0  0  0  0
   19.0753  -10.9889  -19.4417 C   0  0  0  0  0  0  0  0  0  0  0  0
   20.0914   -9.9148  -19.2279 C   0  0  1  0  0  0  0  0  0  0  0  0
   20.4977   -9.7732  -17.8090 C   0  0  0  0  0  0  0  0  0  0  0  0
   19.6019   -9.4915  -16.9782 O   0  0  0  0  0  0  0  0  0  0  0  0
   24.0715  -12.9549  -15.5928 C   0  0  0  0  0  0  0  0  0  0  0  0
   22.9099  -12.0141  -15.7643 C   0  0  0  0  0  0  0  0  0  0  0  0
   23.2851  -10.5649  -15.5614 C   0  0  2  0  0  0  0  0  0  0  0  0
   23.7779  -10.3703  -14.1580 C   0  0  0  0  0  0  0  0  0  0  0  0
   22.1633   -9.6603  -15.9401 C   0  0  2  0  0  0  0  0  0  0  0  0
   21.8165   -9.9339  -17.3444 N   0  0  0  0  0  0  0  0  0  0  0  0
   22.4878   -8.2243  -15.7563 C   0  0  0  0  0  0  0  0  0  0  0  0
   23.2107   -7.6815  -16.6194 O   0  0  0  0  0  0  0  0  0  0  0  0
   22.0293   -7.4651  -14.6790 N   0  0  0  0  0  0  0  0  0  0  0  0
   22.2125   -6.0168  -14.5219 C   0  0  1  0  0  0  0  0  0  0  0  0
   21.8309   -5.2946  -15.7404 C   0  0  0  0  0  0  0  0  0  0  0  0
   21.9500   -3.8168  -15.6659 C   0  0  0  0  0  0  0  0  0  0  0  0
   21.4440   -3.1274  -16.8844 C   0  0  0  0  0  0  0  0  0  0  0  0
   21.0117   -3.8501  -17.8521 O   0  0  0  0  0  0  0  0  0  0  0  0
   21.7698   -5.4983  -13.2570 C   0  0  0  0  0  0  0  0  0  0  0  0
   21.0396   -6.0673  -12.4142 O   0  0  0  0  0  0  0  0  0  0  0  0
   21.4170   -1.7645  -17.0245 O   0  0  0  0  0  0  0  0  0  0  0  0
   22.1881   -4.2018  -12.8926 O   0  0  0  0  0  0  0  0  0  0  0  0
  1  5  1  0
  2  1  1  0
  3  2  1  0
  3  4  1  0
  4  5  1  0
  5  6  1  1
  6  7  2  0
  9 10  1  0
  9  8  1  0
 10 12  1  0
 10 11  1  1
 12 13  1  6
 12 14  1  0
 13  6  1  0
 14 15  2  0
 14 16  1  0
 16 17  1  0
 17 22  1  0
 17 18  1  6
 19 18  1  0
 19 20  1  0
 20 21  2  0
 22 23  2  0
 22 25  1  0
 24 20  1  0
M  END
$$$$
