PIE.pdb
     RDKit          3D

 25 25  0  0  1  0  0  0  0  0999 V2000
   28.5019  -21.4744  -15.6213 N   0  0  0  0  0  0  0  0  0  0  0  0
   28.6150  -21.2158  -17.0548 C   0  0  0  0  0  0  0  0  0  0  0  0
   28.4124  -19.6953  -17.1679 C   0  0  0  0  0  0  0  0  0  0  0  0
   27.2513  -19.5574  -16.1888 C   0  0  0  0  0  0  0  0  0  0  0  0
   27.7086  -20.4276  -15.0639 C   0  0  1  0  0  0  0  0  0  0  0  0
   26.5926  -20.9291  -14.2263 C   0  0  0  0  0  0  0  0  0  0  0  0
   26.0457  -22.0015  -14.5768 O   0  0  0  0  0  0  0  0  0  0  0  0
   26.5700  -20.3998   -8.9203 C   0  0  0  0  0  0  0  0  0  0  0  0
   26.2548  -20.9937  -10.2663 C   0  0  0  0  0  0  0  0  0  0  0  0
   25.0538  -20.3596  -10.9281 C   0  0  2  0  0  0  0  0  0  0  0  0
   23.8295  -20.6354  -10.1064 C   0  0  0  0  0  0  0  0  0  0  0  0
   24.9363  -20.7850  -12.3513 C   0  0  2  0  0  0  0  0  0  0  0  0
   26.1152  -20.2787  -13.0732 N   0  0  0  0  0  0  0  0  0  0  0  0
   23.6886  -20.3101  -12.9982 C   0  0  0  0  0  0  0  0  0  0  0  0
   23.5328  -19.0754  -13.1136 O   0  0  0  0  0  0  0  0  0  0  0  0
   22.6966  -21.1677  -13.4756 N   0  0  0  0  0  0  0  0  0  0  0  0
   21.4247  -20.7444  -14.0749 C   0  0  1  0  0  0  0  0  0  0  0  0
   21.1734  -21.4396  -15.3419 C   0  0  0  0  0  0  0  0  0  0  0  0
   19.9100  -21.0709  -16.0285 C   0  0  0  0  0  0  0  0  0  0  0  0
   19.6966  -21.8155  -17.2997 C   0  0  0  0  0  0  0  0  0  0  0  0
   18.6289  -22.5166  -17.4174 O   0  0  0  0  0  0  0  0  0  0  0  0
   20.3412  -20.6232  -13.1389 C   0  0  0  0  0  0  0  0  0  0  0  0
   20.1237  -21.3314  -12.1298 O   0  0  0  0  0  0  0  0  0  0  0  0
   20.5802  -21.7904  -18.3469 O   0  0  0  0  0  0  0  0  0  0  0  0
   19.3960  -19.5987  -13.3529 O   0  0  0  0  0  0  0  0  0  0  0  0
  1  5  1  0
  2  1  1  0
  3  2  1  0
  3  4  1  0
  4  5  1  0
  5  6  1  6
  6  7  2  0
  9 10  1  0
  9  8  1  0
 10 12  1  0
 10 11  1  1
 12 13  1  6
 12 14  1  0
 13  6  1  0
 14 15  2  0
 14 16  1  0
 16 17  1  0
 17 22  1  0
 17 18  1  6
 19 18  1  0
 19 20  1  0
 20 21  2  0
 22 23  2  0
 22 25  1  0
 24 20  1  0
M  END
$$$$
