PIE.pdb
     RDKit          3D

 25 25  0  0  1  0  0  0  0  0999 V2000
   20.7518  -12.3683  -18.4544 N   0  0  0  0  0  0  0  0  0  0  0  0
   20.7402  -13.7774  -18.8404 C   0  0  0  0  0  0  0  0  0  0  0  0
   19.6650  -14.3956  -17.9307 C   0  0  0  0  0  0  0  0  0  0  0  0
   20.0461  -13.6900  -16.6335 C   0  0  0  0  0  0  0  0  0  0  0  0
   20.2728  -12.2932  -17.1125 C   0  0  1  0  0  0  0  0  0  0  0  0
   21.1634  -11.5107  -16.2220 C   0  0  0  0  0  0  0  0  0  0  0  0
   20.8272  -11.4051  -15.0187 O   0  0  0  0  0  0  0  0  0  0  0  0
   26.2933  -12.0828  -15.8659 C   0  0  0  0  0  0  0  0  0  0  0  0
   24.8557  -11.7199  -15.6102 C   0  0  0  0  0  0  0  0  0  0  0  0
   24.5469  -10.2717  -15.9098 C   0  0  2  0  0  0  0  0  0  0  0  0
   25.4387   -9.3918  -15.0846 C   0  0  0  0  0  0  0  0  0  0  0  0
   23.0939   -9.9858  -15.7450 C   0  0  2  0  0  0  0  0  0  0  0  0
   22.3516  -10.8852  -16.6435 N   0  0  0  0  0  0  0  0  0  0  0  0
   22.7452   -8.5709  -16.0233 C   0  0  0  0  0  0  0  0  0  0  0  0
   22.4186   -8.2770  -17.1934 O   0  0  0  0  0  0  0  0  0  0  0  0
   22.7659   -7.5695  -15.0518 N   0  0  0  0  0  0  0  0  0  0  0  0
   22.1098   -6.2610  -15.1671 C   0  0  1  0  0  0  0  0  0  0  0  0
   20.7493   -6.3905  -15.7002 C   0  0  0  0  0  0  0  0  0  0  0  0
   19.9793   -5.1245  -15.7890 C   0  0  0  0  0  0  0  0  0  0  0  0
   18.5058   -5.3358  -15.7962 C   0  0  0  0  0  0  0  0  0  0  0  0
   18.0668   -6.5362  -15.6861 O   0  0  0  0  0  0  0  0  0  0  0  0
   22.3196   -5.3928  -14.0414 C   0  0  0  0  0  0  0  0  0  0  0  0
   22.7093   -5.7124  -12.8955 O   0  0  0  0  0  0  0  0  0  0  0  0
   17.5973   -4.3166  -15.9143 O   0  0  0  0  0  0  0  0  0  0  0  0
   22.0662   -4.0163  -14.2136 O   0  0  0  0  0  0  0  0  0  0  0  0
  1  5  1  0
  2  1  1  0
  3  2  1  0
  3  4  1  0
  4  5  1  0
  5  6  1  1
  6  7  2  0
  9 10  1  0
  9  8  1  0
 10 12  1  0
 10 11  1  1
 12 13  1  6
 12 14  1  0
 13  6  1  0
 14 15  2  0
 14 16  1  0
 16 17  1  0
 17 22  1  0
 17 18  1  1
 19 18  1  0
 19 20  1  0
 20 21  2  0
 22 23  2  0
 22 25  1  0
 24 20  1  0
M  END
$$$$
