PIE.pdb
     RDKit          3D

 25 25  0  0  1  0  0  0  0  0999 V2000
   21.0265  -12.1022  -18.6336 N   0  0  0  0  0  0  0  0  0  0  0  0
   20.9626  -13.5425  -18.8701 C   0  0  0  0  0  0  0  0  0  0  0  0
   19.7125  -13.9847  -18.0908 C   0  0  0  0  0  0  0  0  0  0  0  0
   19.9413  -13.1613  -16.8277 C   0  0  0  0  0  0  0  0  0  0  0  0
   20.3513  -11.8451  -17.4033 C   0  0  1  0  0  0  0  0  0  0  0  0
   21.1515  -11.0236  -16.4635 C   0  0  0  0  0  0  0  0  0  0  0  0
   20.6374  -10.7539  -15.3521 O   0  0  0  0  0  0  0  0  0  0  0  0
   26.3185  -11.8196  -15.8733 C   0  0  0  0  0  0  0  0  0  0  0  0
   24.8740  -11.4486  -15.6743 C   0  0  0  0  0  0  0  0  0  0  0  0
   24.6052   -9.9767  -15.8826 C   0  0  2  0  0  0  0  0  0  0  0  0
   25.4616   -9.1770  -14.9460 C   0  0  0  0  0  0  0  0  0  0  0  0
   23.1497   -9.6753  -15.7788 C   0  0  2  0  0  0  0  0  0  0  0  0
   22.4407  -10.5329  -16.7426 N   0  0  0  0  0  0  0  0  0  0  0  0
   22.8334   -8.2469  -16.0251 C   0  0  0  0  0  0  0  0  0  0  0  0
   23.1721   -7.7629  -17.1265 O   0  0  0  0  0  0  0  0  0  0  0  0
   22.1852   -7.4325  -15.0956 N   0  0  0  0  0  0  0  0  0  0  0  0
   21.8077   -6.0303  -15.3128 C   0  0  1  0  0  0  0  0  0  0  0  0
   20.3600   -5.8899  -15.5030 C   0  0  0  0  0  0  0  0  0  0  0  0
   19.8888   -4.5129  -15.7952 C   0  0  0  0  0  0  0  0  0  0  0  0
   18.4165   -4.4296  -15.9983 C   0  0  0  0  0  0  0  0  0  0  0  0
   17.7231   -5.4970  -15.8391 O   0  0  0  0  0  0  0  0  0  0  0  0
   22.4735   -5.0975  -14.4459 C   0  0  0  0  0  0  0  0  0  0  0  0
   22.9733   -5.3262  -13.3212 O   0  0  0  0  0  0  0  0  0  0  0  0
   17.7664   -3.2744  -16.3460 O   0  0  0  0  0  0  0  0  0  0  0  0
   22.5947   -3.7620  -14.8826 O   0  0  0  0  0  0  0  0  0  0  0  0
  1  5  1  0
  2  1  1  0
  3  2  1  0
  3  4  1  0
  4  5  1  0
  5  6  1  1
  6  7  2  0
  9 10  1  0
  9  8  1  0
 10 12  1  0
 10 11  1  1
 12 13  1  6
 12 14  1  0
 13  6  1  0
 14 15  2  0
 14 16  1  0
 16 17  1  0
 17 22  1  0
 17 18  1  1
 19 18  1  0
 19 20  1  0
 20 21  2  0
 22 23  2  0
 22 25  1  0
 24 20  1  0
M  END
$$$$
