PIE.pdb
     RDKit          3D

 25 25  0  0  1  0  0  0  0  0999 V2000
   18.0203  -11.7541  -17.0471 N   0  0  0  0  0  0  0  0  0  0  0  0
   17.4496  -13.0985  -17.0113 C   0  0  0  0  0  0  0  0  0  0  0  0
   16.0864  -12.9344  -17.7046 C   0  0  0  0  0  0  0  0  0  0  0  0
   15.6658  -11.6233  -17.0491 C   0  0  0  0  0  0  0  0  0  0  0  0
   16.9321  -10.8346  -17.1266 C   0  0  1  0  0  0  0  0  0  0  0  0
   17.0087   -9.7566  -16.1115 C   0  0  0  0  0  0  0  0  0  0  0  0
   16.1591   -8.8372  -16.1818 O   0  0  0  0  0  0  0  0  0  0  0  0
   17.0195   -8.7211  -10.3686 C   0  0  0  0  0  0  0  0  0  0  0  0
   17.4589   -8.1704  -11.6980 C   0  0  0  0  0  0  0  0  0  0  0  0
   17.5529   -9.2253  -12.7754 C   0  0  2  0  0  0  0  0  0  0  0  0
   18.4559  -10.3301  -12.3127 C   0  0  0  0  0  0  0  0  0  0  0  0
   17.9483   -8.6270  -14.0815 C   0  0  2  0  0  0  0  0  0  0  0  0
   17.9694   -9.7045  -15.0843 N   0  0  0  0  0  0  0  0  0  0  0  0
   19.2619   -7.9394  -14.0313 C   0  0  0  0  0  0  0  0  0  0  0  0
   20.2856   -8.6548  -13.9805 O   0  0  0  0  0  0  0  0  0  0  0  0
   19.4028   -6.5511  -14.0376 N   0  0  0  0  0  0  0  0  0  0  0  0
   20.6687   -5.8270  -14.2082 C   0  0  1  0  0  0  0  0  0  0  0  0
   20.5394   -4.7499  -15.1956 C   0  0  0  0  0  0  0  0  0  0  0  0
   21.7729   -3.9609  -15.4395 C   0  0  0  0  0  0  0  0  0  0  0  0
   21.5873   -2.8832  -16.4494 C   0  0  0  0  0  0  0  0  0  0  0  0
   21.4208   -3.2251  -17.6746 O   0  0  0  0  0  0  0  0  0  0  0  0
   21.3587   -5.5444  -12.9797 C   0  0  0  0  0  0  0  0  0  0  0  0
   22.5888   -5.3780  -12.8181 O   0  0  0  0  0  0  0  0  0  0  0  0
   21.5857   -1.5486  -16.1379 O   0  0  0  0  0  0  0  0  0  0  0  0
   20.5909   -5.4359  -11.8018 O   0  0  0  0  0  0  0  0  0  0  0  0
  1  5  1  0
  2  1  1  0
  3  2  1  0
  3  4  1  0
  4  5  1  0
  5  6  1  1
  6  7  2  0
  9 10  1  0
  9  8  1  0
 10 12  1  0
 10 11  1  1
 12 13  1  6
 12 14  1  0
 13  6  1  0
 14 15  2  0
 14 16  1  0
 16 17  1  0
 17 22  1  0
 17 18  1  1
 19 18  1  0
 19 20  1  0
 20 21  2  0
 22 23  2  0
 22 25  1  0
 24 20  1  0
M  END
$$$$
