KDP.pdb
     RDKit          3D

 25 25  0  0  1  0  0  0  0  0999 V2000
   26.6936  -33.6900   -2.4514 N   0  0  0  0  0  0  0  0  0  0  0  0
   27.7659  -34.6724   -2.5220 C   0  0  1  0  0  0  0  0  0  0  0  0
   28.4874  -34.6060   -3.8361 C   0  0  0  0  0  0  0  0  0  0  0  0
   27.7185  -34.9690   -5.0256 C   0  0  0  0  0  0  0  0  0  0  0  0
   28.2821  -35.0322   -6.3698 C   0  0  0  0  0  0  0  0  0  0  0  0
   27.4823  -35.4896   -7.5236 C   0  0  0  0  0  0  0  0  0  0  0  0
   28.4292  -35.4655   -8.6865 N   0  0  0  0  0  0  0  0  0  0  0  0
   28.7279  -34.2651   -1.4108 C   0  0  0  0  0  0  0  0  0  0  0  0
   28.9943  -33.0481   -1.2396 O   0  0  0  0  0  0  0  0  0  0  0  0
   29.3168  -35.2388   -0.5779 N   0  0  0  0  0  0  0  0  0  0  0  0
   30.2467  -34.8316    0.4777 C   0  0  1  0  0  0  0  0  0  0  0  0
   29.9631  -35.8040    1.6265 C   0  0  0  0  0  0  0  0  0  0  0  0
   30.7617  -35.4904    2.8355 C   0  0  0  0  0  0  0  0  0  0  0  0
   31.7552  -36.1267    3.2122 O   0  0  0  0  0  0  0  0  0  0  0  0
   31.6521  -34.9530    0.0291 C   0  0  0  0  0  0  0  0  0  0  0  0
   31.8873  -35.8787   -0.8260 O   0  0  0  0  0  0  0  0  0  0  0  0
   30.3865  -34.3958    3.6312 O   0  0  0  0  0  0  0  0  0  0  0  0
   32.6824  -34.1095    0.5028 N   0  0  0  0  0  0  0  0  0  0  0  0
   32.5462  -33.0646    1.4749 C   0  0  0  0  0  0  0  0  0  0  0  0
   33.4315  -31.9633    0.8797 C   0  0  0  0  0  0  0  0  0  0  0  0
   34.3624  -32.6516   -0.0860 C   0  0  0  0  0  0  0  0  0  0  0  0
   34.0590  -34.1200    0.0969 C   0  0  1  0  0  0  0  0  0  0  0  0
   34.9609  -34.6378    1.1811 C   0  0  0  0  0  0  0  0  0  0  0  0
   36.3121  -34.8613    0.9802 O   0  0  0  0  0  0  0  0  0  0  0  0
   34.5183  -34.8914    2.3317 O   0  0  0  0  0  0  0  0  0  0  0  0
  2  1  1  6
  3  2  1  0
  4  3  1  0
  5  6  1  0
  5  4  1  0
  6  7  1  0
  8  9  2  0
  8  2  1  0
 10  8  1  0
 11 15  1  0
 11 10  1  0
 11 12  1  1
 13 12  1  0
 13 14  2  0
 15 18  1  0
 16 15  2  0
 17 13  1  0
 18 22  1  0
 19 18  1  0
 19 20  1  0
 20 21  1  0
 22 21  1  0
 23 24  1  0
 22 23  1  1
 25 23  2  0
M  END
$$$$
