KDP.pdb
     RDKit          3D

 25 25  0  0  1  0  0  0  0  0999 V2000
   27.6386  -19.8595  -18.2282 N   0  0  0  0  0  0  0  0  0  0  0  0
   26.2869  -20.3314  -18.4926 C   0  0  1  0  0  0  0  0  0  0  0  0
   26.2802  -21.7696  -18.9209 C   0  0  0  0  0  0  0  0  0  0  0  0
   27.5628  -22.4705  -18.8856 C   0  0  0  0  0  0  0  0  0  0  0  0
   27.8616  -23.5737  -17.9787 C   0  0  0  0  0  0  0  0  0  0  0  0
   27.3994  -24.9487  -18.2542 C   0  0  0  0  0  0  0  0  0  0  0  0
   28.0145  -25.7888  -17.1746 N   0  0  0  0  0  0  0  0  0  0  0  0
   25.5741  -20.2142  -17.1494 C   0  0  0  0  0  0  0  0  0  0  0  0
   26.2491  -20.2296  -16.0884 O   0  0  0  0  0  0  0  0  0  0  0  0
   24.1708  -20.0881  -17.0895 N   0  0  0  0  0  0  0  0  0  0  0  0
   23.5100  -19.8850  -15.7985 C   0  0  1  0  0  0  0  0  0  0  0  0
   22.1888  -19.1970  -16.1546 C   0  0  0  0  0  0  0  0  0  0  0  0
   22.3605  -17.7438  -16.3921 C   0  0  0  0  0  0  0  0  0  0  0  0
   21.5213  -17.0109  -16.9328 O   0  0  0  0  0  0  0  0  0  0  0  0
   23.2571  -21.1750  -15.1178 C   0  0  0  0  0  0  0  0  0  0  0  0
   23.1691  -22.2012  -15.8810 O   0  0  0  0  0  0  0  0  0  0  0  0
   23.5537  -17.1261  -15.9836 O   0  0  0  0  0  0  0  0  0  0  0  0
   23.1194  -21.2865  -13.7156 N   0  0  0  0  0  0  0  0  0  0  0  0
   23.2404  -20.2227  -12.7622 C   0  0  0  0  0  0  0  0  0  0  0  0
   24.0163  -20.9028  -11.6281 C   0  0  0  0  0  0  0  0  0  0  0  0
   23.8247  -22.3856  -11.8212 C   0  0  0  0  0  0  0  0  0  0  0  0
   22.8478  -22.4820  -12.9693 C   0  0  1  0  0  0  0  0  0  0  0  0
   21.4627  -22.4791  -12.3877 C   0  0  0  0  0  0  0  0  0  0  0  0
   20.8932  -23.6052  -11.8186 O   0  0  0  0  0  0  0  0  0  0  0  0
   20.7552  -21.4382  -12.3933 O   0  0  0  0  0  0  0  0  0  0  0  0
  2  1  1  1
  3  2  1  0
  4  3  1  0
  5  6  1  0
  5  4  1  0
  6  7  1  0
  8  9  2  0
  8  2  1  0
 10  8  1  0
 11 15  1  0
 11 10  1  0
 11 12  1  6
 13 12  1  0
 13 14  2  0
 15 18  1  0
 16 15  2  0
 17 13  1  0
 18 22  1  0
 19 18  1  0
 19 20  1  0
 20 21  1  0
 22 21  1  0
 23 24  1  0
 22 23  1  1
 25 23  2  0
M  END
$$$$
