KDP.pdb
     RDKit          3D

 25 25  0  0  1  0  0  0  0  0999 V2000
   17.5610  -13.3101  -15.4642 N   0  0  0  0  0  0  0  0  0  0  0  0
   17.8342  -12.3596  -16.5327 C   0  0  1  0  0  0  0  0  0  0  0  0
   16.6557  -12.2084  -17.4494 C   0  0  0  0  0  0  0  0  0  0  0  0
   16.3857  -13.3204  -18.3595 C   0  0  0  0  0  0  0  0  0  0  0  0
   17.4179  -14.2024  -18.8939 C   0  0  0  0  0  0  0  0  0  0  0  0
   17.0957  -15.2797  -19.8507 C   0  0  0  0  0  0  0  0  0  0  0  0
   18.4156  -15.9073  -20.1879 N   0  0  0  0  0  0  0  0  0  0  0  0
   18.0710  -11.0363  -15.8125 C   0  0  0  0  0  0  0  0  0  0  0  0
   17.3459  -10.7280  -14.8323 O   0  0  0  0  0  0  0  0  0  0  0  0
   19.0927  -10.1611  -16.2354 N   0  0  0  0  0  0  0  0  0  0  0  0
   19.2927   -8.8844  -15.5464 C   0  0  1  0  0  0  0  0  0  0  0  0
   20.7030   -8.9895  -14.9585 C   0  0  0  0  0  0  0  0  0  0  0  0
   21.0842   -7.7758  -14.1973 C   0  0  0  0  0  0  0  0  0  0  0  0
   20.7235   -7.5239  -13.0397 O   0  0  0  0  0  0  0  0  0  0  0  0
   19.2067   -7.7475  -16.4904 C   0  0  0  0  0  0  0  0  0  0  0  0
   19.7302   -7.9393  -17.6447 O   0  0  0  0  0  0  0  0  0  0  0  0
   21.9154   -6.8241  -14.8101 O   0  0  0  0  0  0  0  0  0  0  0  0
   18.5892   -6.5206  -16.1569 N   0  0  0  0  0  0  0  0  0  0  0  0
   18.0029   -6.1797  -14.8938 C   0  0  0  0  0  0  0  0  0  0  0  0
   16.7387   -5.4275  -15.3261 C   0  0  0  0  0  0  0  0  0  0  0  0
   16.9816   -4.9836  -16.7463 C   0  0  0  0  0  0  0  0  0  0  0  0
   18.4132   -5.3838  -17.0151 C   0  0  1  0  0  0  0  0  0  0  0  0
   19.2895   -4.2327  -16.6102 C   0  0  0  0  0  0  0  0  0  0  0  0
   20.1508   -4.2990  -15.5286 O   0  0  0  0  0  0  0  0  0  0  0  0
   19.2765   -3.1475  -17.2475 O   0  0  0  0  0  0  0  0  0  0  0  0
  2  1  1  1
  3  2  1  0
  4  3  1  0
  5  6  1  0
  5  4  1  0
  6  7  1  0
  8  9  2  0
  8  2  1  0
 10  8  1  0
 11 15  1  0
 11 10  1  0
 11 12  1  6
 13 12  1  0
 13 14  2  0
 15 18  1  0
 16 15  2  0
 17 13  1  0
 18 22  1  0
 19 18  1  0
 19 20  1  0
 20 21  1  0
 22 21  1  0
 23 24  1  0
 22 23  1  1
 25 23  2  0
M  END
$$$$
