KDP.pdb
     RDKit          3D

 25 25  0  0  1  0  0  0  0  0999 V2000
   20.5998  -13.2232  -16.7388 N   0  0  0  0  0  0  0  0  0  0  0  0
   20.5656  -12.1563  -17.7289 C   0  0  1  0  0  0  0  0  0  0  0  0
   19.5699  -12.4444  -18.8140 C   0  0  0  0  0  0  0  0  0  0  0  0
   19.6977  -13.7310  -19.4967 C   0  0  0  0  0  0  0  0  0  0  0  0
   19.6306  -15.0212  -18.8188 C   0  0  0  0  0  0  0  0  0  0  0  0
   19.7073  -16.2926  -19.5655 C   0  0  0  0  0  0  0  0  0  0  0  0
   19.7067  -17.3616  -18.5133 N   0  0  0  0  0  0  0  0  0  0  0  0
   20.1035  -10.9296  -16.9495 C   0  0  0  0  0  0  0  0  0  0  0  0
   18.9789  -10.9427  -16.3867 O   0  0  0  0  0  0  0  0  0  0  0  0
   20.9248   -9.7871  -16.8552 N   0  0  0  0  0  0  0  0  0  0  0  0
   20.4647   -8.6164  -16.1051 C   0  0  1  0  0  0  0  0  0  0  0  0
   20.4008   -9.0996  -14.6531 C   0  0  0  0  0  0  0  0  0  0  0  0
   19.9601   -8.0300  -13.7260 C   0  0  0  0  0  0  0  0  0  0  0  0
   18.7943   -7.6281  -13.6118 O   0  0  0  0  0  0  0  0  0  0  0  0
   21.4152   -7.4892  -16.2362 C   0  0  0  0  0  0  0  0  0  0  0  0
   22.6580   -7.8033  -16.2317 O   0  0  0  0  0  0  0  0  0  0  0  0
   20.9147   -7.4090  -12.9041 O   0  0  0  0  0  0  0  0  0  0  0  0
   20.9962   -6.1451  -16.3602 N   0  0  0  0  0  0  0  0  0  0  0  0
   19.6431   -5.6714  -16.3437 C   0  0  0  0  0  0  0  0  0  0  0  0
   19.6692   -4.6048  -17.4449 C   0  0  0  0  0  0  0  0  0  0  0  0
   21.1176   -4.2290  -17.6284 C   0  0  0  0  0  0  0  0  0  0  0  0
   21.8350   -4.9947  -16.5417 C   0  0  1  0  0  0  0  0  0  0  0  0
   21.8667   -4.1234  -15.3183 C   0  0  0  0  0  0  0  0  0  0  0  0
   22.7437   -3.0608  -15.1852 O   0  0  0  0  0  0  0  0  0  0  0  0
   21.0856   -4.3266  -14.3526 O   0  0  0  0  0  0  0  0  0  0  0  0
  2  1  1  1
  3  2  1  0
  4  3  1  0
  5  6  1  0
  5  4  1  0
  6  7  1  0
  8  9  2  0
  8  2  1  0
 10  8  1  0
 11 15  1  0
 11 10  1  0
 11 12  1  1
 13 12  1  0
 13 14  2  0
 15 18  1  0
 16 15  2  0
 17 13  1  0
 18 22  1  0
 19 18  1  0
 19 20  1  0
 20 21  1  0
 22 21  1  0
 23 24  1  0
 22 23  1  1
 25 23  2  0
M  END
$$$$
