KDP.pdb
     RDKit          3D

 25 25  0  0  1  0  0  0  0  0999 V2000
   19.6165  -11.7149  -15.7310 N   0  0  0  0  0  0  0  0  0  0  0  0
   19.9527  -10.6313  -16.6435 C   0  0  1  0  0  0  0  0  0  0  0  0
   18.9599  -10.5275  -17.7640 C   0  0  0  0  0  0  0  0  0  0  0  0
   18.4707  -11.7857  -18.3256 C   0  0  0  0  0  0  0  0  0  0  0  0
   19.2569  -12.6428  -19.2066 C   0  0  0  0  0  0  0  0  0  0  0  0
   18.6843  -13.8603  -19.8146 C   0  0  0  0  0  0  0  0  0  0  0  0
   19.7898  -14.4337  -20.6506 N   0  0  0  0  0  0  0  0  0  0  0  0
   19.8628   -9.3722  -15.7876 C   0  0  0  0  0  0  0  0  0  0  0  0
   18.8494   -9.1865  -15.0665 O   0  0  0  0  0  0  0  0  0  0  0  0
   20.9034   -8.4204  -15.7984 N   0  0  0  0  0  0  0  0  0  0  0  0
   20.7142   -7.1238  -15.1444 C   0  0  1  0  0  0  0  0  0  0  0  0
   22.0565   -6.8463  -14.4610 C   0  0  0  0  0  0  0  0  0  0  0  0
   22.0802   -5.5249  -13.7893 C   0  0  0  0  0  0  0  0  0  0  0  0
   22.5523   -4.4901  -14.2792 O   0  0  0  0  0  0  0  0  0  0  0  0
   20.4058   -6.0658  -16.1327 C   0  0  0  0  0  0  0  0  0  0  0  0
   21.0305   -6.1454  -17.2493 O   0  0  0  0  0  0  0  0  0  0  0  0
   21.5332   -5.4091  -12.5010 O   0  0  0  0  0  0  0  0  0  0  0  0
   19.4828   -5.0262  -15.8782 N   0  0  0  0  0  0  0  0  0  0  0  0
   18.6845   -4.8681  -14.6979 C   0  0  0  0  0  0  0  0  0  0  0  0
   17.3413   -4.4174  -15.2841 C   0  0  0  0  0  0  0  0  0  0  0  0
   17.6437   -3.8874  -16.6627 C   0  0  0  0  0  0  0  0  0  0  0  0
   19.1508   -3.9363  -16.7511 C   0  0  1  0  0  0  0  0  0  0  0  0
   19.6779   -2.6258  -16.2397 C   0  0  0  0  0  0  0  0  0  0  0  0
   20.3840   -2.5207  -15.0537 O   0  0  0  0  0  0  0  0  0  0  0  0
   19.4974   -1.5564  -16.8783 O   0  0  0  0  0  0  0  0  0  0  0  0
  2  1  1  1
  3  2  1  0
  4  3  1  0
  5  6  1  0
  5  4  1  0
  6  7  1  0
  8  9  2  0
  8  2  1  0
 10  8  1  0
 11 15  1  0
 11 10  1  0
 11 12  1  6
 13 12  1  0
 13 14  2  0
 15 18  1  0
 16 15  2  0
 17 13  1  0
 18 22  1  0
 19 18  1  0
 19 20  1  0
 20 21  1  0
 22 21  1  0
 23 24  1  0
 22 23  1  1
 25 23  2  0
M  END
$$$$
