KDP.pdb
     RDKit          3D

 25 25  0  0  1  0  0  0  0  0999 V2000
   26.2394  -25.1180  -18.0624 N   0  0  0  0  0  0  0  0  0  0  0  0
   27.3333  -25.2807  -17.1155 C   0  0  1  0  0  0  0  0  0  0  0  0
   28.6392  -25.5120  -17.8176 C   0  0  0  0  0  0  0  0  0  0  0  0
   28.8305  -26.8254  -18.4310 C   0  0  0  0  0  0  0  0  0  0  0  0
   29.0524  -28.0520  -17.6728 C   0  0  0  0  0  0  0  0  0  0  0  0
   29.3438  -29.3345  -18.3438 C   0  0  0  0  0  0  0  0  0  0  0  0
   29.5631  -30.3147  -17.2299 N   0  0  0  0  0  0  0  0  0  0  0  0
   27.3996  -23.9469  -16.3788 C   0  0  0  0  0  0  0  0  0  0  0  0
   28.4015  -23.6843  -15.6656 O   0  0  0  0  0  0  0  0  0  0  0  0
   26.3511  -23.0107  -16.4924 N   0  0  0  0  0  0  0  0  0  0  0  0
   26.2911  -21.8668  -15.5800 C   0  0  1  0  0  0  0  0  0  0  0  0
   25.6763  -20.7445  -16.4215 C   0  0  0  0  0  0  0  0  0  0  0  0
   26.6576  -20.1437  -17.3563 C   0  0  0  0  0  0  0  0  0  0  0  0
   27.7465  -19.6572  -17.0230 O   0  0  0  0  0  0  0  0  0  0  0  0
   25.4390  -22.1625  -14.4062 C   0  0  0  0  0  0  0  0  0  0  0  0
   24.6216  -23.1406  -14.5417 O   0  0  0  0  0  0  0  0  0  0  0  0
   26.3559  -20.1107  -18.7275 O   0  0  0  0  0  0  0  0  0  0  0  0
   25.5097  -21.4235  -13.2035 N   0  0  0  0  0  0  0  0  0  0  0  0
   26.3813  -20.3174  -12.9353 C   0  0  0  0  0  0  0  0  0  0  0  0
   26.8126  -20.5990  -11.4911 C   0  0  0  0  0  0  0  0  0  0  0  0
   25.7775  -21.5351  -10.9209 C   0  0  0  0  0  0  0  0  0  0  0  0
   24.7388  -21.6410  -12.0125 C   0  0  1  0  0  0  0  0  0  0  0  0
   23.7316  -20.5493  -11.7876 C   0  0  0  0  0  0  0  0  0  0  0  0
   23.6607  -19.4260  -12.5935 O   0  0  0  0  0  0  0  0  0  0  0  0
   22.8997  -20.6135  -10.8454 O   0  0  0  0  0  0  0  0  0  0  0  0
  2  1  1  6
  3  2  1  0
  4  3  1  0
  5  6  1  0
  5  4  1  0
  6  7  1  0
  8  9  2  0
  8  2  1  0
 10  8  1  0
 11 15  1  0
 11 10  1  0
 11 12  1  6
 13 12  1  0
 13 14  2  0
 15 18  1  0
 16 15  2  0
 17 13  1  0
 18 22  1  0
 19 18  1  0
 19 20  1  0
 20 21  1  0
 22 21  1  0
 23 24  1  0
 22 23  1  1
 25 23  2  0
M  END
$$$$
