KDP.pdb
     RDKit          3D

 25 25  0  0  1  0  0  0  0  0999 V2000
   21.2645  -12.0829  -18.8519 N   0  0  0  0  0  0  0  0  0  0  0  0
   21.3752  -10.7106  -19.3255 C   0  0  1  0  0  0  0  0  0  0  0  0
   20.6499  -10.5167  -20.6248 C   0  0  0  0  0  0  0  0  0  0  0  0
   21.0425  -11.3878  -21.7315 C   0  0  0  0  0  0  0  0  0  0  0  0
   20.1256  -12.2892  -22.4212 C   0  0  0  0  0  0  0  0  0  0  0  0
   20.4800  -13.6972  -22.6892 C   0  0  0  0  0  0  0  0  0  0  0  0
   19.2980  -14.2631  -23.4187 N   0  0  0  0  0  0  0  0  0  0  0  0
   20.6860   -9.8801  -18.2480 C   0  0  0  0  0  0  0  0  0  0  0  0
   19.4796   -9.5567  -18.3945 O   0  0  0  0  0  0  0  0  0  0  0  0
   21.3883   -9.4754  -17.0939 N   0  0  0  0  0  0  0  0  0  0  0  0
   20.7484   -8.5835  -16.1245 C   0  0  1  0  0  0  0  0  0  0  0  0
   20.8041   -9.3585  -14.8046 C   0  0  0  0  0  0  0  0  0  0  0  0
   19.7556  -10.4034  -14.7241 C   0  0  0  0  0  0  0  0  0  0  0  0
   19.9680  -11.6231  -14.7544 O   0  0  0  0  0  0  0  0  0  0  0  0
   21.4839   -7.3043  -16.0073 C   0  0  0  0  0  0  0  0  0  0  0  0
   22.7015   -7.3214  -16.4078 O   0  0  0  0  0  0  0  0  0  0  0  0
   18.4130  -10.0093  -14.6041 O   0  0  0  0  0  0  0  0  0  0  0  0
   20.8959   -6.1279  -15.4895 N   0  0  0  0  0  0  0  0  0  0  0  0
   19.5617   -5.9971  -14.9814 C   0  0  0  0  0  0  0  0  0  0  0  0
   19.1429   -4.6333  -15.5435 C   0  0  0  0  0  0  0  0  0  0  0  0
   20.4217   -3.9113  -15.8843 C   0  0  0  0  0  0  0  0  0  0  0  0
   21.5077   -4.8340  -15.3834 C   0  0  1  0  0  0  0  0  0  0  0  0
   21.7952   -4.4633  -13.9562 C   0  0  0  0  0  0  0  0  0  0  0  0
   22.5485   -3.3537  -13.6138 O   0  0  0  0  0  0  0  0  0  0  0  0
   21.3556   -5.1556  -13.0015 O   0  0  0  0  0  0  0  0  0  0  0  0
  2  1  1  1
  3  2  1  0
  4  3  1  0
  5  6  1  0
  5  4  1  0
  6  7  1  0
  8  9  2  0
  8  2  1  0
 10  8  1  0
 11 15  1  0
 11 10  1  0
 11 12  1  1
 13 12  1  0
 13 14  2  0
 15 18  1  0
 16 15  2  0
 17 13  1  0
 18 22  1  0
 19 18  1  0
 19 20  1  0
 20 21  1  0
 22 21  1  0
 23 24  1  0
 22 23  1  1
 25 23  2  0
M  END
$$$$
