KDP.pdb
     RDKit          3D

 25 25  0  0  1  0  0  0  0  0999 V2000
   25.7911  -17.7096  -15.8671 N   0  0  0  0  0  0  0  0  0  0  0  0
   24.8868  -18.8283  -16.0921 C   0  0  1  0  0  0  0  0  0  0  0  0
   25.5457  -20.1399  -15.7799 C   0  0  0  0  0  0  0  0  0  0  0  0
   26.3288  -20.2034  -14.5468 C   0  0  0  0  0  0  0  0  0  0  0  0
   25.8597  -20.8339  -13.3176 C   0  0  0  0  0  0  0  0  0  0  0  0
   26.6628  -20.8070  -12.0789 C   0  0  0  0  0  0  0  0  0  0  0  0
   25.8369  -21.5410  -11.0646 N   0  0  0  0  0  0  0  0  0  0  0  0
   23.7483  -18.6013  -15.1031 C   0  0  0  0  0  0  0  0  0  0  0  0
   23.9551  -17.9148  -14.0700 O   0  0  0  0  0  0  0  0  0  0  0  0
   22.4717  -19.1522  -15.3386 N   0  0  0  0  0  0  0  0  0  0  0  0
   21.4261  -19.0347  -14.3200 C   0  0  1  0  0  0  0  0  0  0  0  0
   20.1285  -18.9083  -15.1237 C   0  0  0  0  0  0  0  0  0  0  0  0
   18.9483  -18.6964  -14.2519 C   0  0  0  0  0  0  0  0  0  0  0  0
   18.7536  -17.6906  -13.5562 O   0  0  0  0  0  0  0  0  0  0  0  0
   21.3858  -20.2342  -13.4535 C   0  0  0  0  0  0  0  0  0  0  0  0
   21.7896  -21.3255  -13.9914 O   0  0  0  0  0  0  0  0  0  0  0  0
   17.9619  -19.6942  -14.1914 O   0  0  0  0  0  0  0  0  0  0  0  0
   20.9341  -20.1966  -12.1148 N   0  0  0  0  0  0  0  0  0  0  0  0
   20.4383  -19.0467  -11.4168 C   0  0  0  0  0  0  0  0  0  0  0  0
   21.0745  -19.2198  -10.0325 C   0  0  0  0  0  0  0  0  0  0  0  0
   21.4496  -20.6759   -9.9241 C   0  0  0  0  0  0  0  0  0  0  0  0
   20.8960  -21.2915  -11.1876 C   0  0  1  0  0  0  0  0  0  0  0  0
   19.4900  -21.7343  -10.8980 C   0  0  0  0  0  0  0  0  0  0  0  0
   19.2057  -22.8577  -10.1408 O   0  0  0  0  0  0  0  0  0  0  0  0
   18.5006  -21.0923  -11.3372 O   0  0  0  0  0  0  0  0  0  0  0  0
  2  1  1  1
  3  2  1  0
  4  3  1  0
  5  6  1  0
  5  4  1  0
  6  7  1  0
  8  9  2  0
  8  2  1  0
 10  8  1  0
 11 15  1  0
 11 10  1  0
 11 12  1  6
 13 12  1  0
 13 14  2  0
 15 18  1  0
 16 15  2  0
 17 13  1  0
 18 22  1  0
 19 18  1  0
 19 20  1  0
 20 21  1  0
 22 21  1  0
 23 24  1  0
 22 23  1  1
 25 23  2  0
M  END
$$$$
