KDP.pdb
     RDKit          3D

 25 25  0  0  1  0  0  0  0  0999 V2000
   22.3252  -14.9694  -15.2425 N   0  0  0  0  0  0  0  0  0  0  0  0
   23.2509  -13.8461  -15.2747 C   0  0  1  0  0  0  0  0  0  0  0  0
   24.4314  -14.1310  -16.1564 C   0  0  0  0  0  0  0  0  0  0  0  0
   25.2167  -15.3221  -15.8365 C   0  0  0  0  0  0  0  0  0  0  0  0
   24.7454  -16.6869  -16.0459 C   0  0  0  0  0  0  0  0  0  0  0  0
   25.2563  -17.5208  -17.1520 C   0  0  0  0  0  0  0  0  0  0  0  0
   26.2113  -18.4802  -16.5060 N   0  0  0  0  0  0  0  0  0  0  0  0
   22.4434  -12.7059  -15.8860 C   0  0  0  0  0  0  0  0  0  0  0  0
   22.7250  -12.3002  -17.0426 O   0  0  0  0  0  0  0  0  0  0  0  0
   21.3879  -12.1073  -15.1674 N   0  0  0  0  0  0  0  0  0  0  0  0
   20.6580  -10.9776  -15.7468 C   0  0  1  0  0  0  0  0  0  0  0  0
   19.1840  -11.3174  -15.5067 C   0  0  0  0  0  0  0  0  0  0  0  0
   18.2784  -10.2378  -15.9669 C   0  0  0  0  0  0  0  0  0  0  0  0
   18.4937   -9.4986  -16.9369 O   0  0  0  0  0  0  0  0  0  0  0  0
   21.0148   -9.7082  -15.0741 C   0  0  0  0  0  0  0  0  0  0  0  0
   21.2663   -9.7922  -13.8199 O   0  0  0  0  0  0  0  0  0  0  0  0
   17.0799  -10.0145  -15.2696 O   0  0  0  0  0  0  0  0  0  0  0  0
   21.0795   -8.4721  -15.7565 N   0  0  0  0  0  0  0  0  0  0  0  0
   20.8091   -8.2538  -17.1474 C   0  0  0  0  0  0  0  0  0  0  0  0
   21.9137   -7.2619  -17.5311 C   0  0  0  0  0  0  0  0  0  0  0  0
   22.3817   -6.6380  -16.2409 C   0  0  0  0  0  0  0  0  0  0  0  0
   21.4413   -7.1993  -15.2006 C   0  0  1  0  0  0  0  0  0  0  0  0
   20.2633   -6.2717  -15.1064 C   0  0  0  0  0  0  0  0  0  0  0  0
   19.0218   -6.5918  -15.6282 O   0  0  0  0  0  0  0  0  0  0  0  0
   20.3590   -5.1516  -14.5406 O   0  0  0  0  0  0  0  0  0  0  0  0
  2  1  1  6
  3  2  1  0
  4  3  1  0
  5  6  1  0
  5  4  1  0
  6  7  1  0
  8  9  2  0
  8  2  1  0
 10  8  1  0
 11 15  1  0
 11 10  1  0
 11 12  1  1
 13 12  1  0
 13 14  2  0
 15 18  1  0
 16 15  2  0
 17 13  1  0
 18 22  1  0
 19 18  1  0
 19 20  1  0
 20 21  1  0
 22 21  1  0
 23 24  1  0
 22 23  1  6
 25 23  2  0
M  END
$$$$
