KDP.pdb
     RDKit          3D

 25 25  0  0  1  0  0  0  0  0999 V2000
   20.5100  -16.0535  -18.0900 N   0  0  0  0  0  0  0  0  0  0  0  0
   19.6895  -15.0439  -17.4363 C   0  0  1  0  0  0  0  0  0  0  0  0
   19.1057  -15.5562  -16.1523 C   0  0  0  0  0  0  0  0  0  0  0  0
   18.9876  -17.0074  -16.0184 C   0  0  0  0  0  0  0  0  0  0  0  0
   17.7502  -17.7466  -16.2446 C   0  0  0  0  0  0  0  0  0  0  0  0
   17.3707  -18.8970  -15.4006 C   0  0  0  0  0  0  0  0  0  0  0  0
   16.6499  -18.2984  -14.2294 N   0  0  0  0  0  0  0  0  0  0  0  0
   20.6612  -13.9122  -17.1185 C   0  0  0  0  0  0  0  0  0  0  0  0
   21.4508  -14.0304  -16.1469 O   0  0  0  0  0  0  0  0  0  0  0  0
   20.6810  -12.7407  -17.9035 N   0  0  0  0  0  0  0  0  0  0  0  0
   21.5165  -11.6068  -17.5026 C   0  0  1  0  0  0  0  0  0  0  0  0
   21.4640  -10.6563  -18.7025 C   0  0  0  0  0  0  0  0  0  0  0  0
   22.2773   -9.4360  -18.4861 C   0  0  0  0  0  0  0  0  0  0  0  0
   21.8186   -8.3194  -18.2095 O   0  0  0  0  0  0  0  0  0  0  0  0
   20.9776  -10.9462  -16.2925 C   0  0  0  0  0  0  0  0  0  0  0  0
   19.7052  -10.9998  -16.1468 O   0  0  0  0  0  0  0  0  0  0  0  0
   23.6746   -9.5236  -18.5967 O   0  0  0  0  0  0  0  0  0  0  0  0
   21.7999  -10.2933  -15.3464 N   0  0  0  0  0  0  0  0  0  0  0  0
   23.2235  -10.1403  -15.4193 C   0  0  0  0  0  0  0  0  0  0  0  0
   23.6417  -10.3865  -13.9648 C   0  0  0  0  0  0  0  0  0  0  0  0
   22.4064  -10.1602  -13.1308 C   0  0  0  0  0  0  0  0  0  0  0  0
   21.3790   -9.6703  -14.1238 C   0  0  1  0  0  0  0  0  0  0  0  0
   21.4888   -8.1734  -14.1888 C   0  0  0  0  0  0  0  0  0  0  0  0
   21.0101   -7.3488  -13.1853 O   0  0  0  0  0  0  0  0  0  0  0  0
   22.0288   -7.6012  -15.1712 O   0  0  0  0  0  0  0  0  0  0  0  0
  2  1  1  1
  3  2  1  0
  4  3  1  0
  5  6  1  0
  5  4  1  0
  6  7  1  0
  8  9  2  0
  8  2  1  0
 10  8  1  0
 11 15  1  0
 11 10  1  0
 11 12  1  6
 13 12  1  0
 13 14  2  0
 15 18  1  0
 16 15  2  0
 17 13  1  0
 18 22  1  0
 19 18  1  0
 19 20  1  0
 20 21  1  0
 22 21  1  0
 23 24  1  0
 22 23  1  6
 25 23  2  0
M  END
$$$$
