LLY.pdb
     RDKit          3D

 29 29  0  0  1  0  0  0  0  0999 V2000
    8.0555  -15.6292   17.5276 C   0  0  0  0  0  0  0  0  0  0  0  0
    7.2319  -14.5013   18.1772 C   0  0  2  0  0  0  0  0  0  0  0  0
    7.1133  -13.4086   17.1718 C   0  0  0  0  0  0  0  0  0  0  0  0
    7.9266  -14.1511   19.4359 C   0  0  0  0  0  0  0  0  0  0  0  0
    8.0675  -15.2284   20.4587 C   0  0  2  0  0  0  0  0  0  0  0  0
    6.6837  -15.6646   20.7402 N   0  0  0  0  0  0  0  0  0  0  0  0
    8.6533  -14.7966   21.7443 C   0  0  0  0  0  0  0  0  0  0  0  0
    9.8662  -14.4157   21.7669 O   0  0  0  0  0  0  0  0  0  0  0  0
    7.4611  -11.5362   24.9993 C   0  0  0  0  0  0  0  0  0  0  0  0
    6.6546  -12.8550   24.9005 C   0  0  2  0  0  0  0  0  0  0  0  0
    5.5107  -12.6899   25.8388 C   0  0  0  0  0  0  0  0  0  0  0  0
    7.5857  -13.9545   25.1943 C   0  0  0  0  0  0  0  0  0  0  0  0
    8.6604  -14.2734   24.2178 C   0  0  2  0  0  0  0  0  0  0  0  0
    7.9798  -14.7626   22.9847 N   0  0  0  0  0  0  0  0  0  0  0  0
    9.5254  -15.3595   24.7431 C   0  0  0  0  0  0  0  0  0  0  0  0
    9.0815  -16.5635   24.7997 O   0  0  0  0  0  0  0  0  0  0  0  0
   10.3918  -14.6118   31.6023 O   0  0  0  0  0  0  0  0  0  0  0  0
   10.4904  -15.2428   30.3707 C   0  0  0  0  0  0  0  0  0  0  0  0
   10.6826  -16.6220   30.2885 C   0  0  0  0  0  0  0  0  0  0  0  0
   10.7818  -17.2584   29.0711 C   0  0  0  0  0  0  0  0  0  0  0  0
   10.6861  -16.4944   27.9197 C   0  0  0  0  0  0  0  0  0  0  0  0
   10.7886  -17.1136   26.6014 C   0  0  0  0  0  0  0  0  0  0  0  0
   11.6650  -16.3661   25.6193 C   0  0  2  0  0  0  0  0  0  0  0  0
   10.8470  -15.2130   25.2072 N   0  0  0  0  0  0  0  0  0  0  0  0
   11.9663  -17.2386   24.4820 C   0  0  0  0  0  0  0  0  0  0  0  0
   12.8443  -18.3040   24.5271 O   0  0  0  0  0  0  0  0  0  0  0  0
   10.4946  -15.1198   27.9835 C   0  0  0  0  0  0  0  0  0  0  0  0
   10.3994  -14.5135   29.2118 C   0  0  0  0  0  0  0  0  0  0  0  0
   11.3896  -17.0134   23.3705 O   0  0  0  0  0  0  0  0  0  0  0  0
  2  4  1  0
  2  1  1  6
  3  2  1  0
  5  6  1  1
  5  4  1  0
  7  5  1  0
  8  7  2  0
 10  9  1  1
 10 12  1  0
 11 10  1  0
 13 12  1  1
 13 15  1  0
 13 14  1  0
 14  7  1  0
 15 24  1  0
 16 15  2  0
 17 18  1  0
 18 28  2  0
 19 20  2  0
 19 18  1  0
 20 21  1  0
 21 22  1  0
 21 27  2  0
 23 22  1  1
 23 25  1  0
 24 23  1  0
 25 29  2  0
 25 26  1  0
 28 27  1  0
M  END
$$$$
