LLY.pdb
     RDKit          3D

 29 29  0  0  1  0  0  0  0  0999 V2000
    5.7681  -12.4500   26.3909 C   0  0  0  0  0  0  0  0  0  0  0  0
    6.7824  -13.3525   27.1182 C   0  0  2  0  0  0  0  0  0  0  0  0
    7.6117  -12.4709   27.9865 C   0  0  0  0  0  0  0  0  0  0  0  0
    7.5099  -14.0938   26.0643 C   0  0  0  0  0  0  0  0  0  0  0  0
    6.7257  -15.0704   25.2533 C   0  0  2  0  0  0  0  0  0  0  0  0
    6.5058  -16.2198   26.1560 N   0  0  0  0  0  0  0  0  0  0  0  0
    7.4198  -15.5886   24.0567 C   0  0  0  0  0  0  0  0  0  0  0  0
    7.2931  -16.8186   23.7603 O   0  0  0  0  0  0  0  0  0  0  0  0
    6.8854  -13.9614   20.2494 C   0  0  0  0  0  0  0  0  0  0  0  0
    8.1456  -13.3031   20.8641 C   0  0  2  0  0  0  0  0  0  0  0  0
    8.5050  -12.1953   19.9368 C   0  0  0  0  0  0  0  0  0  0  0  0
    9.1495  -14.3642   21.0326 C   0  0  0  0  0  0  0  0  0  0  0  0
    8.8885  -15.4601   22.0028 C   0  0  2  0  0  0  0  0  0  0  0  0
    8.2316  -14.8314   23.1844 N   0  0  0  0  0  0  0  0  0  0  0  0
   10.1678  -16.0716   22.4427 C   0  0  0  0  0  0  0  0  0  0  0  0
   11.1176  -16.2520   21.5969 O   0  0  0  0  0  0  0  0  0  0  0  0
    9.3746  -13.5825   28.9363 O   0  0  0  0  0  0  0  0  0  0  0  0
    9.9308  -14.5411   28.1019 C   0  0  0  0  0  0  0  0  0  0  0  0
    9.2780  -15.7521   27.8711 C   0  0  0  0  0  0  0  0  0  0  0  0
    9.8214  -16.7106   27.0446 C   0  0  0  0  0  0  0  0  0  0  0  0
   11.0400  -16.4454   26.4420 C   0  0  0  0  0  0  0  0  0  0  0  0
   11.6664  -17.4258   25.5597 C   0  0  0  0  0  0  0  0  0  0  0  0
   11.8167  -16.9763   24.1222 C   0  0  2  0  0  0  0  0  0  0  0  0
   10.4758  -16.4950   23.7501 N   0  0  0  0  0  0  0  0  0  0  0  0
   12.2192  -18.1196   23.2998 C   0  0  0  0  0  0  0  0  0  0  0  0
   11.4104  -18.7278   22.3598 O   0  0  0  0  0  0  0  0  0  0  0  0
   11.7036  -15.2446   26.6609 C   0  0  0  0  0  0  0  0  0  0  0  0
   11.1369  -14.3082   27.4900 C   0  0  0  0  0  0  0  0  0  0  0  0
   13.3890  -18.5971   23.4493 O   0  0  0  0  0  0  0  0  0  0  0  0
  2  4  1  0
  2  1  1  6
  3  2  1  0
  5  6  1  1
  5  4  1  0
  7  5  1  0
  8  7  2  0
 10  9  1  6
 10 12  1  0
 11 10  1  0
 13 12  1  6
 13 15  1  0
 13 14  1  0
 14  7  1  0
 15 24  1  0
 16 15  2  0
 17 18  1  0
 18 28  2  0
 19 20  2  0
 19 18  1  0
 20 21  1  0
 21 22  1  0
 21 27  2  0
 23 22  1  1
 23 25  1  0
 24 23  1  0
 25 29  2  0
 25 26  1  0
 28 27  1  0
M  END
$$$$
