LLY.pdb
     RDKit          3D

 29 29  0  0  1  0  0  0  0  0999 V2000
    8.2339  -21.3472   18.4838 C   0  0  0  0  0  0  0  0  0  0  0  0
    7.7044  -19.9729   18.0329 C   0  0  2  0  0  0  0  0  0  0  0  0
    7.2532  -20.1175   16.6206 C   0  0  0  0  0  0  0  0  0  0  0  0
    8.8010  -19.0075   18.2672 C   0  0  0  0  0  0  0  0  0  0  0  0
    9.1966  -18.7565   19.6839 C   0  0  2  0  0  0  0  0  0  0  0  0
    7.9302  -18.8090   20.4441 N   0  0  0  0  0  0  0  0  0  0  0  0
    9.7981  -17.4317   19.9392 C   0  0  0  0  0  0  0  0  0  0  0  0
   10.9775  -17.2043   19.5220 O   0  0  0  0  0  0  0  0  0  0  0  0
    8.0450  -13.4809   18.9498 C   0  0  0  0  0  0  0  0  0  0  0  0
    7.6382  -14.0229   20.3428 C   0  0  2  0  0  0  0  0  0  0  0  0
    6.5518  -13.1216   20.8156 C   0  0  0  0  0  0  0  0  0  0  0  0
    8.8570  -14.0621   21.1645 C   0  0  0  0  0  0  0  0  0  0  0  0
    9.8969  -15.0825   20.8685 C   0  0  2  0  0  0  0  0  0  0  0  0
    9.1745  -16.3625   20.6186 N   0  0  0  0  0  0  0  0  0  0  0  0
   10.7873  -15.2633   22.0427 C   0  0  0  0  0  0  0  0  0  0  0  0
   11.6986  -14.3947   22.2974 O   0  0  0  0  0  0  0  0  0  0  0  0
   10.6688  -14.5857   30.5089 O   0  0  0  0  0  0  0  0  0  0  0  0
   10.4867  -14.8067   29.1515 C   0  0  0  0  0  0  0  0  0  0  0  0
    9.2987  -15.3579   28.6711 C   0  0  0  0  0  0  0  0  0  0  0  0
    9.1075  -15.5814   27.3256 C   0  0  0  0  0  0  0  0  0  0  0  0
   10.1278  -15.2451   26.4513 C   0  0  0  0  0  0  0  0  0  0  0  0
    9.9835  -15.4637   25.0149 C   0  0  0  0  0  0  0  0  0  0  0  0
   11.1495  -16.1772   24.3647 C   0  0  2  0  0  0  0  0  0  0  0  0
   10.7418  -16.3324   22.9583 N   0  0  0  0  0  0  0  0  0  0  0  0
   11.3389  -17.4780   25.0108 C   0  0  0  0  0  0  0  0  0  0  0  0
   10.8041  -18.6644   24.5479 O   0  0  0  0  0  0  0  0  0  0  0  0
   11.3173  -14.6952   26.9128 C   0  0  0  0  0  0  0  0  0  0  0  0
   11.4787  -14.4839   28.2599 C   0  0  0  0  0  0  0  0  0  0  0  0
   12.0399  -17.5364   26.0710 O   0  0  0  0  0  0  0  0  0  0  0  0
  2  4  1  0
  2  1  1  6
  3  2  1  0
  5  6  1  1
  5  4  1  0
  7  5  1  0
  8  7  2  0
 10  9  1  6
 10 12  1  0
 11 10  1  0
 13 12  1  1
 13 15  1  0
 13 14  1  0
 14  7  1  0
 15 24  1  0
 16 15  2  0
 17 18  1  0
 18 28  2  0
 19 20  2  0
 19 18  1  0
 20 21  1  0
 21 22  1  0
 21 27  2  0
 23 22  1  1
 23 25  1  0
 24 23  1  0
 25 29  2  0
 25 26  1  0
 28 27  1  0
M  END
$$$$
