LLY.pdb
     RDKit          3D

 29 29  0  0  1  0  0  0  0  0999 V2000
    8.0104  -15.2210   17.0776 C   0  0  0  0  0  0  0  0  0  0  0  0
    7.4257  -14.0778   17.9281 C   0  0  2  0  0  0  0  0  0  0  0  0
    7.2029  -12.9211   17.0164 C   0  0  0  0  0  0  0  0  0  0  0  0
    8.3799  -13.8545   19.0368 C   0  0  0  0  0  0  0  0  0  0  0  0
    8.5109  -14.9401   20.0521 C   0  0  2  0  0  0  0  0  0  0  0  0
    7.1559  -15.5205   20.1606 N   0  0  0  0  0  0  0  0  0  0  0  0
    8.8957  -14.4876   21.4046 C   0  0  0  0  0  0  0  0  0  0  0  0
   10.0592  -14.0060   21.5810 O   0  0  0  0  0  0  0  0  0  0  0  0
    6.2283  -12.6994   26.5590 C   0  0  0  0  0  0  0  0  0  0  0  0
    7.6262  -13.0385   25.9844 C   0  0  2  0  0  0  0  0  0  0  0  0
    8.3732  -11.7508   25.9767 C   0  0  0  0  0  0  0  0  0  0  0  0
    7.4134  -13.6769   24.6770 C   0  0  0  0  0  0  0  0  0  0  0  0
    8.5924  -14.1206   23.8876 C   0  0  2  0  0  0  0  0  0  0  0  0
    8.0753  -14.5369   22.5527 N   0  0  0  0  0  0  0  0  0  0  0  0
    9.2309  -15.2944   24.5346 C   0  0  0  0  0  0  0  0  0  0  0  0
    8.5156  -16.3013   24.8873 O   0  0  0  0  0  0  0  0  0  0  0  0
   10.6458  -14.5786   31.3264 O   0  0  0  0  0  0  0  0  0  0  0  0
   10.5399  -15.2263   30.1041 C   0  0  0  0  0  0  0  0  0  0  0  0
   11.3834  -16.2904   29.7847 C   0  0  0  0  0  0  0  0  0  0  0  0
   11.2867  -16.9403   28.5742 C   0  0  0  0  0  0  0  0  0  0  0  0
   10.3267  -16.5120   27.6724 C   0  0  0  0  0  0  0  0  0  0  0  0
   10.1810  -17.1598   26.3720 C   0  0  0  0  0  0  0  0  0  0  0  0
   11.1706  -16.6995   25.3231 C   0  0  2  0  0  0  0  0  0  0  0  0
   10.6031  -15.4385   24.8171 N   0  0  0  0  0  0  0  0  0  0  0  0
   11.2541  -17.7084   24.2644 C   0  0  0  0  0  0  0  0  0  0  0  0
   11.9083  -18.9184   24.3897 O   0  0  0  0  0  0  0  0  0  0  0  0
    9.4785  -15.4539   27.9744 C   0  0  0  0  0  0  0  0  0  0  0  0
    9.5987  -14.8255   29.1894 C   0  0  0  0  0  0  0  0  0  0  0  0
   10.6924  -17.4695   23.1482 O   0  0  0  0  0  0  0  0  0  0  0  0
  2  4  1  0
  2  1  1  6
  3  2  1  0
  5  6  1  1
  5  4  1  0
  7  5  1  0
  8  7  2  0
 10  9  1  6
 10 12  1  0
 11 10  1  0
 13 12  1  1
 13 15  1  0
 13 14  1  0
 14  7  1  0
 15 24  1  0
 16 15  2  0
 17 18  1  0
 18 28  2  0
 19 20  2  0
 19 18  1  0
 20 21  1  0
 21 22  1  0
 21 27  2  0
 23 22  1  1
 23 25  1  0
 24 23  1  0
 25 29  2  0
 25 26  1  0
 28 27  1  0
M  END
$$$$
