LLY.pdb
     RDKit          3D

 29 29  0  0  1  0  0  0  0  0999 V2000
    8.0881  -15.3402   17.4801 C   0  0  0  0  0  0  0  0  0  0  0  0
    7.4151  -14.2636   18.3520 C   0  0  2  0  0  0  0  0  0  0  0  0
    7.1707  -13.0811   17.4798 C   0  0  0  0  0  0  0  0  0  0  0  0
    8.3137  -14.0423   19.5068 C   0  0  0  0  0  0  0  0  0  0  0  0
    8.4259  -15.1466   20.5040 C   0  0  2  0  0  0  0  0  0  0  0  0
    7.0951  -15.7897   20.5061 N   0  0  0  0  0  0  0  0  0  0  0  0
    8.6968  -14.7119   21.8896 C   0  0  0  0  0  0  0  0  0  0  0  0
    9.8269  -14.1951   22.1591 O   0  0  0  0  0  0  0  0  0  0  0  0
    5.3796  -12.8991   26.6235 C   0  0  0  0  0  0  0  0  0  0  0  0
    6.8572  -13.1006   26.2042 C   0  0  2  0  0  0  0  0  0  0  0  0
    7.4751  -11.7479   26.2719 C   0  0  0  0  0  0  0  0  0  0  0  0
    6.8478  -13.7480   24.8840 C   0  0  0  0  0  0  0  0  0  0  0  0
    8.1291  -14.2320   24.3061 C   0  0  2  0  0  0  0  0  0  0  0  0
    7.7989  -14.8151   22.9743 N   0  0  0  0  0  0  0  0  0  0  0  0
    8.7063  -15.3003   25.1602 C   0  0  0  0  0  0  0  0  0  0  0  0
    8.1318  -16.4470   25.2303 O   0  0  0  0  0  0  0  0  0  0  0  0
   13.8785  -19.1798   31.2774 O   0  0  0  0  0  0  0  0  0  0  0  0
   13.2876  -18.3253   30.3580 C   0  0  0  0  0  0  0  0  0  0  0  0
   13.5742  -18.4325   28.9970 C   0  0  0  0  0  0  0  0  0  0  0  0
   12.9931  -17.5894   28.0759 C   0  0  0  0  0  0  0  0  0  0  0  0
   12.1107  -16.6242   28.5323 C   0  0  0  0  0  0  0  0  0  0  0  0
   11.4681  -15.6997   27.6027 C   0  0  0  0  0  0  0  0  0  0  0  0
   10.3765  -16.3151   26.7537 C   0  0  2  0  0  0  0  0  0  0  0  0
    9.8744  -15.1952   25.9400 N   0  0  0  0  0  0  0  0  0  0  0  0
    9.3298  -16.8491   27.6282 C   0  0  0  0  0  0  0  0  0  0  0  0
    9.1986  -18.1825   27.9639 O   0  0  0  0  0  0  0  0  0  0  0  0
   11.8140  -16.5038   29.8842 C   0  0  0  0  0  0  0  0  0  0  0  0
   12.4089  -17.3588   30.7788 C   0  0  0  0  0  0  0  0  0  0  0  0
    8.4757  -16.0442   28.1195 O   0  0  0  0  0  0  0  0  0  0  0  0
  2  4  1  0
  2  1  1  6
  3  2  1  0
  5  6  1  1
  5  4  1  0
  7  5  1  0
  8  7  2  0
 10  9  1  6
 10 12  1  0
 11 10  1  0
 13 12  1  1
 13 15  1  0
 13 14  1  0
 14  7  1  0
 15 24  1  0
 16 15  2  0
 17 18  1  0
 18 28  2  0
 19 20  2  0
 19 18  1  0
 20 21  1  0
 21 22  1  0
 21 27  2  0
 23 22  1  1
 23 25  1  0
 24 23  1  0
 25 29  2  0
 25 26  1  0
 28 27  1  0
M  END
$$$$
