LLY.pdb
     RDKit          3D

 29 29  0  0  1  0  0  0  0  0999 V2000
    8.3613  -12.4157   18.9360 C   0  0  0  0  0  0  0  0  0  0  0  0
    8.0391  -13.7449   19.6442 C   0  0  2  0  0  0  0  0  0  0  0  0
    6.5556  -13.8726   19.6856 C   0  0  0  0  0  0  0  0  0  0  0  0
    8.7219  -13.6933   20.9560 C   0  0  0  0  0  0  0  0  0  0  0  0
    8.7584  -14.9529   21.7551 C   0  0  2  0  0  0  0  0  0  0  0  0
    7.3744  -15.4695   21.7083 N   0  0  0  0  0  0  0  0  0  0  0  0
    9.1056  -14.7788   23.1803 C   0  0  0  0  0  0  0  0  0  0  0  0
   10.2986  -14.4619   23.4853 O   0  0  0  0  0  0  0  0  0  0  0  0
    8.0087  -11.9955   26.7341 C   0  0  0  0  0  0  0  0  0  0  0  0
    6.9485  -13.0185   26.2557 C   0  0  2  0  0  0  0  0  0  0  0  0
    5.7116  -12.6909   27.0166 C   0  0  0  0  0  0  0  0  0  0  0  0
    7.5120  -14.3592   26.4730 C   0  0  0  0  0  0  0  0  0  0  0  0
    8.6906  -14.7871   25.6742 C   0  0  2  0  0  0  0  0  0  0  0  0
    8.2181  -14.9323   24.2676 N   0  0  0  0  0  0  0  0  0  0  0  0
    9.1796  -16.1066   26.1475 C   0  0  0  0  0  0  0  0  0  0  0  0
    8.4138  -17.1359   26.0834 O   0  0  0  0  0  0  0  0  0  0  0  0
   12.1089  -18.1141   20.8639 O   0  0  0  0  0  0  0  0  0  0  0  0
   12.1353  -18.0563   22.2498 C   0  0  0  0  0  0  0  0  0  0  0  0
   12.4279  -16.8623   22.9090 C   0  0  0  0  0  0  0  0  0  0  0  0
   12.4568  -16.7939   24.2843 C   0  0  0  0  0  0  0  0  0  0  0  0
   12.1872  -17.9450   25.0060 C   0  0  0  0  0  0  0  0  0  0  0  0
   12.2080  -17.9338   26.4659 C   0  0  0  0  0  0  0  0  0  0  0  0
   10.8570  -17.7217   27.1149 C   0  0  2  0  0  0  0  0  0  0  0  0
   10.4546  -16.3726   26.6831 N   0  0  0  0  0  0  0  0  0  0  0  0
   11.0056  -17.7927   28.5703 C   0  0  0  0  0  0  0  0  0  0  0  0
   11.2532  -18.9555   29.2735 O   0  0  0  0  0  0  0  0  0  0  0  0
   11.8939  -19.1425   24.3654 C   0  0  0  0  0  0  0  0  0  0  0  0
   11.8725  -19.1796   22.9930 C   0  0  0  0  0  0  0  0  0  0  0  0
   10.9018  -16.7206   29.2473 O   0  0  0  0  0  0  0  0  0  0  0  0
  2  4  1  0
  2  1  1  1
  3  2  1  0
  5  6  1  1
  5  4  1  0
  7  5  1  0
  8  7  2  0
 10  9  1  1
 10 12  1  0
 11 10  1  0
 13 12  1  1
 13 15  1  0
 13 14  1  0
 14  7  1  0
 15 24  1  0
 16 15  2  0
 17 18  1  0
 18 28  2  0
 19 20  2  0
 19 18  1  0
 20 21  1  0
 21 22  1  0
 21 27  2  0
 23 22  1  6
 23 25  1  0
 24 23  1  0
 25 29  2  0
 25 26  1  0
 28 27  1  0
M  END
$$$$
