LLY.pdb
     RDKit          3D

 29 29  0  0  1  0  0  0  0  0999 V2000
    8.3402  -14.3324   18.1148 C   0  0  0  0  0  0  0  0  0  0  0  0
    7.6219  -13.3829   19.0920 C   0  0  2  0  0  0  0  0  0  0  0  0
    7.5752  -12.0412   18.4468 C   0  0  0  0  0  0  0  0  0  0  0  0
    8.3640  -13.4621   20.3697 C   0  0  0  0  0  0  0  0  0  0  0  0
    8.3686  -14.7773   21.0746 C   0  0  2  0  0  0  0  0  0  0  0  0
    6.9743  -15.2590   20.9834 N   0  0  0  0  0  0  0  0  0  0  0  0
    8.7103  -14.7154   22.5104 C   0  0  0  0  0  0  0  0  0  0  0  0
    9.9259  -14.5483   22.8436 O   0  0  0  0  0  0  0  0  0  0  0  0
    7.7297  -12.0636   26.3427 C   0  0  0  0  0  0  0  0  0  0  0  0
    6.5902  -12.9349   25.7579 C   0  0  2  0  0  0  0  0  0  0  0  0
    5.3890  -12.6167   26.5776 C   0  0  0  0  0  0  0  0  0  0  0  0
    7.0519  -14.3305   25.7917 C   0  0  0  0  0  0  0  0  0  0  0  0
    8.2465  -14.7172   24.9957 C   0  0  2  0  0  0  0  0  0  0  0  0
    7.7942  -14.8249   23.5791 N   0  0  0  0  0  0  0  0  0  0  0  0
    8.7479  -16.0440   25.4343 C   0  0  0  0  0  0  0  0  0  0  0  0
    7.9769  -17.0702   25.3852 O   0  0  0  0  0  0  0  0  0  0  0  0
   14.2297  -22.8424   26.4824 O   0  0  0  0  0  0  0  0  0  0  0  0
   13.5962  -21.6334   26.2341 C   0  0  0  0  0  0  0  0  0  0  0  0
   12.4068  -21.5868   25.5068 C   0  0  0  0  0  0  0  0  0  0  0  0
   11.7698  -20.3920   25.2547 C   0  0  0  0  0  0  0  0  0  0  0  0
   12.3391  -19.2272   25.7422 C   0  0  0  0  0  0  0  0  0  0  0  0
   11.7112  -17.9311   25.5021 C   0  0  0  0  0  0  0  0  0  0  0  0
   10.4570  -17.6777   26.3109 C   0  0  2  0  0  0  0  0  0  0  0  0
   10.0407  -16.3205   25.9198 N   0  0  0  0  0  0  0  0  0  0  0  0
   10.7824  -17.7445   27.7374 C   0  0  0  0  0  0  0  0  0  0  0  0
   11.1277  -16.6535   28.5109 O   0  0  0  0  0  0  0  0  0  0  0  0
   13.5231  -19.2556   26.4685 C   0  0  0  0  0  0  0  0  0  0  0  0
   14.1352  -20.4620   26.7039 C   0  0  0  0  0  0  0  0  0  0  0  0
   10.7501  -18.8760   28.3183 O   0  0  0  0  0  0  0  0  0  0  0  0
  2  4  1  0
  2  1  1  6
  3  2  1  0
  5  6  1  1
  5  4  1  0
  7  5  1  0
  8  7  2  0
 10  9  1  1
 10 12  1  0
 11 10  1  0
 13 12  1  1
 13 15  1  0
 13 14  1  0
 14  7  1  0
 15 24  1  0
 16 15  2  0
 17 18  1  0
 18 28  2  0
 19 20  2  0
 19 18  1  0
 20 21  1  0
 21 22  1  0
 21 27  2  0
 23 22  1  6
 23 25  1  0
 24 23  1  0
 25 29  2  0
 25 26  1  0
 28 27  1  0
M  END
$$$$
