LLY.pdb
     RDKit          3D

 29 29  0  0  1  0  0  0  0  0999 V2000
    8.3076  -13.4682   17.4224 C   0  0  0  0  0  0  0  0  0  0  0  0
    7.8120  -14.3861   18.5557 C   0  0  2  0  0  0  0  0  0  0  0  0
    6.4891  -13.8634   18.9979 C   0  0  0  0  0  0  0  0  0  0  0  0
    8.8800  -14.3959   19.5798 C   0  0  0  0  0  0  0  0  0  0  0  0
    8.7474  -15.3807   20.6930 C   0  0  2  0  0  0  0  0  0  0  0  0
    7.3316  -15.8034   20.6560 N   0  0  0  0  0  0  0  0  0  0  0  0
    8.9995  -14.8357   22.0426 C   0  0  0  0  0  0  0  0  0  0  0  0
   10.1137  -14.2689   22.2756 O   0  0  0  0  0  0  0  0  0  0  0  0
    5.3884  -13.2804   26.5058 C   0  0  0  0  0  0  0  0  0  0  0  0
    6.7647  -13.0160   25.8458 C   0  0  2  0  0  0  0  0  0  0  0  0
    6.5361  -11.8983   24.8895 C   0  0  0  0  0  0  0  0  0  0  0  0
    7.2176  -14.2888   25.2652 C   0  0  0  0  0  0  0  0  0  0  0  0
    8.4657  -14.3126   24.4579 C   0  0  2  0  0  0  0  0  0  0  0  0
    8.0995  -14.8819   23.1295 N   0  0  0  0  0  0  0  0  0  0  0  0
    9.4707  -15.2020   25.0928 C   0  0  0  0  0  0  0  0  0  0  0  0
   10.2747  -14.7334   25.9782 O   0  0  0  0  0  0  0  0  0  0  0  0
   11.5328  -14.0701   30.9049 O   0  0  0  0  0  0  0  0  0  0  0  0
   11.1632  -14.9537   29.9012 C   0  0  0  0  0  0  0  0  0  0  0  0
   10.0196  -14.7264   29.1354 C   0  0  0  0  0  0  0  0  0  0  0  0
    9.6437  -15.5971   28.1367 C   0  0  0  0  0  0  0  0  0  0  0  0
   10.4311  -16.7131   27.9060 C   0  0  0  0  0  0  0  0  0  0  0  0
   10.0795  -17.6733   26.8638 C   0  0  0  0  0  0  0  0  0  0  0  0
   10.6774  -17.3773   25.5050 C   0  0  2  0  0  0  0  0  0  0  0  0
    9.6496  -16.5727   24.8235 N   0  0  0  0  0  0  0  0  0  0  0  0
   10.9200  -18.6385   24.8007 C   0  0  0  0  0  0  0  0  0  0  0  0
   10.2241  -19.0538   23.6821 O   0  0  0  0  0  0  0  0  0  0  0  0
   11.5733  -16.9546   28.6592 C   0  0  0  0  0  0  0  0  0  0  0  0
   11.9227  -16.0684   29.6482 C   0  0  0  0  0  0  0  0  0  0  0  0
   11.8287  -19.4154   25.2358 O   0  0  0  0  0  0  0  0  0  0  0  0
  2  4  1  0
  2  1  1  6
  3  2  1  0
  5  6  1  1
  5  4  1  0
  7  5  1  0
  8  7  2  0
 10  9  1  6
 10 12  1  0
 11 10  1  0
 13 12  1  1
 13 15  1  0
 13 14  1  0
 14  7  1  0
 15 24  1  0
 16 15  2  0
 17 18  1  0
 18 28  2  0
 19 20  2  0
 19 18  1  0
 20 21  1  0
 21 22  1  0
 21 27  2  0
 23 22  1  1
 23 25  1  0
 24 23  1  0
 25 29  2  0
 25 26  1  0
 28 27  1  0
M  END
$$$$
