LLY.pdb
     RDKit          3D

 29 29  0  0  1  0  0  0  0  0999 V2000
    9.9945  -19.2333   18.8875 C   0  0  0  0  0  0  0  0  0  0  0  0
    9.4408  -18.9464   20.2958 C   0  0  2  0  0  0  0  0  0  0  0  0
    9.6471  -20.1775   21.1085 C   0  0  0  0  0  0  0  0  0  0  0  0
    8.0360  -18.5196   20.1112 C   0  0  0  0  0  0  0  0  0  0  0  0
    7.2950  -18.0709   21.3262 C   0  0  2  0  0  0  0  0  0  0  0  0
    5.8786  -18.0203   20.9069 N   0  0  0  0  0  0  0  0  0  0  0  0
    7.6495  -16.7214   21.8113 C   0  0  0  0  0  0  0  0  0  0  0  0
    8.1783  -15.8983   20.9990 O   0  0  0  0  0  0  0  0  0  0  0  0
    6.3575  -13.0005   26.4557 C   0  0  0  0  0  0  0  0  0  0  0  0
    7.3906  -13.1677   25.3137 C   0  0  2  0  0  0  0  0  0  0  0  0
    7.2953  -11.9191   24.5087 C   0  0  0  0  0  0  0  0  0  0  0  0
    7.0649  -14.4202   24.6156 C   0  0  0  0  0  0  0  0  0  0  0  0
    7.9719  -14.9084   23.5436 C   0  0  2  0  0  0  0  0  0  0  0  0
    7.4521  -16.2414   23.1243 N   0  0  0  0  0  0  0  0  0  0  0  0
    9.3472  -15.0828   24.0749 C   0  0  0  0  0  0  0  0  0  0  0  0
   10.1131  -14.0621   24.2219 O   0  0  0  0  0  0  0  0  0  0  0  0
   10.4468  -14.3054   30.9350 O   0  0  0  0  0  0  0  0  0  0  0  0
   10.6414  -15.0113   29.7567 C   0  0  0  0  0  0  0  0  0  0  0  0
   10.3538  -14.4311   28.5211 C   0  0  0  0  0  0  0  0  0  0  0  0
   10.5434  -15.1230   27.3454 C   0  0  0  0  0  0  0  0  0  0  0  0
   11.0294  -16.4181   27.4152 C   0  0  0  0  0  0  0  0  0  0  0  0
   11.2458  -17.2016   26.2023 C   0  0  0  0  0  0  0  0  0  0  0  0
   11.3296  -16.3854   24.9302 C   0  0  2  0  0  0  0  0  0  0  0  0
    9.9368  -16.3026   24.4594 N   0  0  0  0  0  0  0  0  0  0  0  0
   12.1777  -17.0864   23.9634 C   0  0  0  0  0  0  0  0  0  0  0  0
   11.7772  -18.1830   23.2252 O   0  0  0  0  0  0  0  0  0  0  0  0
   11.3209  -17.0111   28.6374 C   0  0  0  0  0  0  0  0  0  0  0  0
   11.1218  -16.2963   29.7927 C   0  0  0  0  0  0  0  0  0  0  0  0
   13.3659  -16.6705   23.7796 O   0  0  0  0  0  0  0  0  0  0  0  0
  2  4  1  0
  2  1  1  6
  3  2  1  0
  5  6  1  6
  5  4  1  0
  7  5  1  0
  8  7  2  0
 10  9  1  1
 10 12  1  0
 11 10  1  0
 13 12  1  1
 13 15  1  0
 13 14  1  0
 14  7  1  0
 15 24  1  0
 16 15  2  0
 17 18  1  0
 18 28  2  0
 19 20  2  0
 19 18  1  0
 20 21  1  0
 21 22  1  0
 21 27  2  0
 23 22  1  1
 23 25  1  0
 24 23  1  0
 25 29  2  0
 25 26  1  0
 28 27  1  0
M  END
$$$$
