LLY.pdb
     RDKit          3D

 29 29  0  0  1  0  0  0  0  0999 V2000
    4.3789  -19.9019   20.1841 C   0  0  0  0  0  0  0  0  0  0  0  0
    3.9503  -19.0171   21.3697 C   0  0  2  0  0  0  0  0  0  0  0  0
    2.4966  -18.7364   21.2057 C   0  0  0  0  0  0  0  0  0  0  0  0
    4.8439  -17.8378   21.3528 C   0  0  0  0  0  0  0  0  0  0  0  0
    6.0906  -17.9159   22.1689 C   0  0  2  0  0  0  0  0  0  0  0  0
    5.6421  -18.3781   23.4993 N   0  0  0  0  0  0  0  0  0  0  0  0
    6.7862  -16.6286   22.3717 C   0  0  0  0  0  0  0  0  0  0  0  0
    7.4306  -16.1214   21.4000 O   0  0  0  0  0  0  0  0  0  0  0  0
    6.0069  -13.5552   26.9191 C   0  0  0  0  0  0  0  0  0  0  0  0
    7.2761  -13.7221   26.0468 C   0  0  2  0  0  0  0  0  0  0  0  0
    8.1715  -12.5972   26.4326 C   0  0  0  0  0  0  0  0  0  0  0  0
    6.8360  -13.7539   24.6442 C   0  0  0  0  0  0  0  0  0  0  0  0
    7.5702  -14.6086   23.6743 C   0  0  2  0  0  0  0  0  0  0  0  0
    6.8055  -15.8843   23.5713 N   0  0  0  0  0  0  0  0  0  0  0  0
    8.9305  -14.9125   24.1854 C   0  0  0  0  0  0  0  0  0  0  0  0
    9.8089  -13.9789   24.2682 O   0  0  0  0  0  0  0  0  0  0  0  0
   10.6837  -14.2178   30.7636 O   0  0  0  0  0  0  0  0  0  0  0  0
   10.7198  -14.9818   29.6061 C   0  0  0  0  0  0  0  0  0  0  0  0
    9.7721  -15.9801   29.3799 C   0  0  0  0  0  0  0  0  0  0  0  0
    9.7988  -16.7443   28.2344 C   0  0  0  0  0  0  0  0  0  0  0  0
   10.7946  -16.4994   27.3033 C   0  0  0  0  0  0  0  0  0  0  0  0
   10.8755  -17.2810   26.0726 C   0  0  0  0  0  0  0  0  0  0  0  0
   10.8219  -16.4626   24.8004 C   0  0  2  0  0  0  0  0  0  0  0  0
    9.3902  -16.1724   24.6153 N   0  0  0  0  0  0  0  0  0  0  0  0
   11.3511  -17.2606   23.6919 C   0  0  0  0  0  0  0  0  0  0  0  0
   10.5909  -17.7398   22.6430 O   0  0  0  0  0  0  0  0  0  0  0  0
   11.7462  -15.5091   27.5127 C   0  0  0  0  0  0  0  0  0  0  0  0
   11.6939  -14.7633   28.6645 C   0  0  0  0  0  0  0  0  0  0  0  0
   12.5921  -17.5406   23.6796 O   0  0  0  0  0  0  0  0  0  0  0  0
  2  4  1  0
  2  1  1  6
  3  2  1  0
  5  6  1  1
  5  4  1  0
  7  5  1  0
  8  7  2  0
 10  9  1  1
 10 12  1  0
 11 10  1  0
 13 12  1  1
 13 15  1  0
 13 14  1  0
 14  7  1  0
 15 24  1  0
 16 15  2  0
 17 18  1  0
 18 28  2  0
 19 20  2  0
 19 18  1  0
 20 21  1  0
 21 22  1  0
 21 27  2  0
 23 22  1  1
 23 25  1  0
 24 23  1  0
 25 29  2  0
 25 26  1  0
 28 27  1  0
M  END
$$$$
