LLY.pdb
     RDKit          3D

 29 29  0  0  1  0  0  0  0  0999 V2000
    7.1352  -16.6043   17.3142 C   0  0  0  0  0  0  0  0  0  0  0  0
    7.4989  -17.4110   18.5749 C   0  0  2  0  0  0  0  0  0  0  0  0
    6.3353  -18.2869   18.8872 C   0  0  0  0  0  0  0  0  0  0  0  0
    7.8610  -16.4201   19.6124 C   0  0  0  0  0  0  0  0  0  0  0  0
    8.2833  -16.9493   20.9421 C   0  0  2  0  0  0  0  0  0  0  0  0
    7.0289  -17.0754   21.7136 N   0  0  0  0  0  0  0  0  0  0  0  0
    9.1762  -16.0604   21.7134 C   0  0  0  0  0  0  0  0  0  0  0  0
   10.3568  -15.8587   21.2864 O   0  0  0  0  0  0  0  0  0  0  0  0
    6.9540  -13.2187   23.2707 C   0  0  0  0  0  0  0  0  0  0  0  0
    7.6048  -13.7499   24.5722 C   0  0  2  0  0  0  0  0  0  0  0  0
    6.9488  -12.9985   25.6773 C   0  0  0  0  0  0  0  0  0  0  0  0
    9.0577  -13.5702   24.4339 C   0  0  0  0  0  0  0  0  0  0  0  0
    9.8352  -14.5509   23.6315 C   0  0  2  0  0  0  0  0  0  0  0  0
    8.8380  -15.3928   22.9106 N   0  0  0  0  0  0  0  0  0  0  0  0
   10.6350  -15.4259   24.5251 C   0  0  0  0  0  0  0  0  0  0  0  0
   11.6022  -14.9313   25.2106 O   0  0  0  0  0  0  0  0  0  0  0  0
    9.6003  -14.0254   30.7458 O   0  0  0  0  0  0  0  0  0  0  0  0
    9.7560  -14.9851   29.7561 C   0  0  0  0  0  0  0  0  0  0  0  0
    9.1710  -14.8175   28.5009 C   0  0  0  0  0  0  0  0  0  0  0  0
    9.3193  -15.7640   27.5114 C   0  0  0  0  0  0  0  0  0  0  0  0
   10.0676  -16.8957   27.7903 C   0  0  0  0  0  0  0  0  0  0  0  0
   10.2552  -17.9348   26.7819 C   0  0  0  0  0  0  0  0  0  0  0  0
   11.2382  -17.5813   25.6865 C   0  0  2  0  0  0  0  0  0  0  0  0
   10.4417  -16.8073   24.7197 N   0  0  0  0  0  0  0  0  0  0  0  0
   11.7537  -18.8138   25.0860 C   0  0  0  0  0  0  0  0  0  0  0  0
   12.6309  -19.6787   25.7108 O   0  0  0  0  0  0  0  0  0  0  0  0
   10.6572  -17.0783   29.0350 C   0  0  0  0  0  0  0  0  0  0  0  0
   10.4917  -16.1172   30.0016 C   0  0  0  0  0  0  0  0  0  0  0  0
   11.3786  -19.1230   23.9102 O   0  0  0  0  0  0  0  0  0  0  0  0
  2  4  1  0
  2  1  1  6
  3  2  1  0
  5  6  1  1
  5  4  1  0
  7  5  1  0
  8  7  2  0
 10  9  1  6
 10 12  1  0
 11 10  1  0
 13 12  1  1
 13 15  1  0
 13 14  1  0
 14  7  1  0
 15 24  1  0
 16 15  2  0
 17 18  1  0
 18 28  2  0
 19 20  2  0
 19 18  1  0
 20 21  1  0
 21 22  1  0
 21 27  2  0
 23 22  1  1
 23 25  1  0
 24 23  1  0
 25 29  2  0
 25 26  1  0
 28 27  1  0
M  END
$$$$
