LLY.pdb
     RDKit          3D

 29 29  0  0  1  0  0  0  0  0999 V2000
    9.2416  -13.3863   19.9287 C   0  0  0  0  0  0  0  0  0  0  0  0
    7.7421  -13.2288   19.6139 C   0  0  2  0  0  0  0  0  0  0  0  0
    7.3854  -11.8061   19.8735 C   0  0  0  0  0  0  0  0  0  0  0  0
    7.0363  -14.2346   20.4385 C   0  0  0  0  0  0  0  0  0  0  0  0
    7.8765  -15.2323   21.1632 C   0  0  2  0  0  0  0  0  0  0  0  0
    7.0244  -16.4352   21.2716 N   0  0  0  0  0  0  0  0  0  0  0  0
    8.2566  -14.8480   22.5380 C   0  0  0  0  0  0  0  0  0  0  0  0
    9.2961  -14.1360   22.7092 O   0  0  0  0  0  0  0  0  0  0  0  0
    7.4406  -12.1986   26.4751 C   0  0  0  0  0  0  0  0  0  0  0  0
    6.3306  -13.1030   25.8838 C   0  0  2  0  0  0  0  0  0  0  0  0
    5.1298  -12.8586   26.7290 C   0  0  0  0  0  0  0  0  0  0  0  0
    6.8524  -14.4777   25.8737 C   0  0  0  0  0  0  0  0  0  0  0  0
    8.0552  -14.7894   25.0575 C   0  0  2  0  0  0  0  0  0  0  0  0
    7.5591  -15.2019   23.7134 N   0  0  0  0  0  0  0  0  0  0  0  0
    8.8009  -15.9254   25.6556 C   0  0  0  0  0  0  0  0  0  0  0  0
    8.1922  -17.0252   25.9197 O   0  0  0  0  0  0  0  0  0  0  0  0
   12.1235  -18.0693   20.4690 O   0  0  0  0  0  0  0  0  0  0  0  0
   12.1375  -17.8601   21.8404 C   0  0  0  0  0  0  0  0  0  0  0  0
   12.0359  -18.9322   22.7272 C   0  0  0  0  0  0  0  0  0  0  0  0
   12.0487  -18.7356   24.0903 C   0  0  0  0  0  0  0  0  0  0  0  0
   12.1654  -17.4404   24.5671 C   0  0  0  0  0  0  0  0  0  0  0  0
   12.1799  -17.1709   26.0021 C   0  0  0  0  0  0  0  0  0  0  0  0
   10.8108  -17.0852   26.6421 C   0  0  2  0  0  0  0  0  0  0  0  0
   10.1714  -15.9361   25.9797 N   0  0  0  0  0  0  0  0  0  0  0  0
   10.9653  -16.8526   28.0800 C   0  0  0  0  0  0  0  0  0  0  0  0
   10.6082  -15.6841   28.7242 O   0  0  0  0  0  0  0  0  0  0  0  0
   12.2676  -16.3614   23.6980 C   0  0  0  0  0  0  0  0  0  0  0  0
   12.2520  -16.5887   22.3440 C   0  0  0  0  0  0  0  0  0  0  0  0
   11.4606  -17.7787   28.7982 O   0  0  0  0  0  0  0  0  0  0  0  0
  2  4  1  0
  2  1  1  1
  3  2  1  0
  5  6  1  1
  5  4  1  0
  7  5  1  0
  8  7  2  0
 10  9  1  1
 10 12  1  0
 11 10  1  0
 13 12  1  1
 13 15  1  0
 13 14  1  0
 14  7  1  0
 15 24  1  0
 16 15  2  0
 17 18  1  0
 18 28  2  0
 19 20  2  0
 19 18  1  0
 20 21  1  0
 21 22  1  0
 21 27  2  0
 23 22  1  6
 23 25  1  0
 24 23  1  0
 25 29  2  0
 25 26  1  0
 28 27  1  0
M  END
$$$$
