EMV.pdb
     RDKit          3D

 25 24  0  0  1  0  0  0  0  0999 V2000
    9.7316  -16.3662   19.8745 N   0  0  0  0  0  0  0  0  0  0  0  0
    8.7684  -16.7046   20.8891 C   0  0  1  0  0  0  0  0  0  0  0  0
    8.8092  -18.1883   21.1394 C   0  0  0  0  0  0  0  0  0  0  0  0
    9.2246  -18.9297   19.9270 C   0  0  0  0  0  0  0  0  0  0  0  0
    8.4742  -20.1907   19.7924 C   0  0  0  0  0  0  0  0  0  0  0  0
    7.3440  -20.2653   19.2362 O   0  0  0  0  0  0  0  0  0  0  0  0
    9.0912  -16.0440   22.1723 C   0  0  0  0  0  0  0  0  0  0  0  0
   10.2787  -15.8212   22.4635 O   0  0  0  0  0  0  0  0  0  0  0  0
    9.0705  -21.3537   20.3184 O   0  0  0  0  0  0  0  0  0  0  0  0
    6.3991  -11.2796   27.6969 C   0  0  0  0  0  0  0  0  0  0  0  0
    5.9493  -12.3903   26.3220 S   0  0  0  0  0  0  0  0  0  0  0  0
    7.4248  -13.2810   25.7993 C   0  0  0  0  0  0  0  0  0  0  0  0
    7.0701  -14.2052   24.6299 C   0  0  0  0  0  0  0  0  0  0  0  0
    8.3464  -14.8849   24.2111 C   0  0  2  0  0  0  0  0  0  0  0  0
    8.0614  -15.6792   23.0419 N   0  0  0  0  0  0  0  0  0  0  0  0
    8.9123  -15.7462   25.2567 C   0  0  0  0  0  0  0  0  0  0  0  0
    8.3444  -16.8238   25.5591 O   0  0  0  0  0  0  0  0  0  0  0  0
   12.9435  -16.1814   25.8259 C   0  0  0  0  0  0  0  0  0  0  0  0
   12.1533  -16.1405   27.0986 C   0  0  1  0  0  0  0  0  0  0  0  0
   12.4790  -14.8582   27.8124 C   0  0  0  0  0  0  0  0  0  0  0  0
   10.6907  -16.3683   26.8998 C   0  0  2  0  0  0  0  0  0  0  0  0
   10.1019  -15.4235   25.9709 N   0  0  0  0  0  0  0  0  0  0  0  0
    9.9534  -16.3236   28.2148 C   0  0  0  0  0  0  0  0  0  0  0  0
    8.9927  -15.3483   28.4618 O   0  0  0  0  0  0  0  0  0  0  0  0
   10.1758  -17.1540   29.1255 O   0  0  0  0  0  0  0  0  0  0  0  0
  2  1  1  6
  3  2  1  0
  4  3  1  0
  5  4  1  0
  6  5  2  0
  7  8  2  0
  7  2  1  0
  9  5  1  0
 11 10  1  0
 11 12  1  0
 12 13  1  0
 14 13  1  1
 14 15  1  0
 15  7  1  0
 16 22  1  0
 16 14  1  0
 17 16  2  0
 19 18  1  6
 19 21  1  0
 20 19  1  0
 21 22  1  6
 21 23  1  0
 23 24  1  0
 25 23  2  0
M  END
$$$$
