EMV.pdb
     RDKit          3D

 25 24  0  0  1  0  0  0  0  0999 V2000
    9.0471  -16.1029   19.7805 N   0  0  0  0  0  0  0  0  0  0  0  0
    9.6852  -16.6562   20.9460 C   0  0  1  0  0  0  0  0  0  0  0  0
   11.1678  -16.7514   20.7040 C   0  0  0  0  0  0  0  0  0  0  0  0
   11.5136  -17.9730   19.9424 C   0  0  0  0  0  0  0  0  0  0  0  0
   12.9695  -18.0784   19.7401 C   0  0  0  0  0  0  0  0  0  0  0  0
   13.7903  -17.2245   20.1751 O   0  0  0  0  0  0  0  0  0  0  0  0
    9.4980  -15.7800   22.1228 C   0  0  0  0  0  0  0  0  0  0  0  0
    9.6532  -14.5529   22.0022 O   0  0  0  0  0  0  0  0  0  0  0  0
   13.4404  -19.1963   19.0235 O   0  0  0  0  0  0  0  0  0  0  0  0
    7.0742  -12.7115   26.3974 C   0  0  0  0  0  0  0  0  0  0  0  0
    5.8439  -13.4200   25.2526 S   0  0  0  0  0  0  0  0  0  0  0  0
    6.7037  -14.4610   24.0607 C   0  0  0  0  0  0  0  0  0  0  0  0
    7.4064  -15.6035   24.8012 C   0  0  0  0  0  0  0  0  0  0  0  0
    8.8738  -15.4882   24.4850 C   0  0  2  0  0  0  0  0  0  0  0  0
    9.1507  -16.3391   23.3543 N   0  0  0  0  0  0  0  0  0  0  0  0
    9.7386  -15.8749   25.6066 C   0  0  0  0  0  0  0  0  0  0  0  0
   10.4458  -16.9088   25.5279 O   0  0  0  0  0  0  0  0  0  0  0  0
   11.4918  -15.1062   30.2192 C   0  0  0  0  0  0  0  0  0  0  0  0
   10.6318  -14.6536   29.0784 C   0  0  1  0  0  0  0  0  0  0  0  0
   11.0737  -13.2743   28.6757 C   0  0  0  0  0  0  0  0  0  0  0  0
   10.5808  -15.6275   27.9473 C   0  0  2  0  0  0  0  0  0  0  0  0
    9.8262  -15.1261   26.8153 N   0  0  0  0  0  0  0  0  0  0  0  0
   10.0131  -16.9500   28.3983 C   0  0  0  0  0  0  0  0  0  0  0  0
   10.8466  -17.9685   28.8488 O   0  0  0  0  0  0  0  0  0  0  0  0
    8.7820  -17.1798   28.3842 O   0  0  0  0  0  0  0  0  0  0  0  0
  2  1  1  6
  3  2  1  0
  4  3  1  0
  5  4  1  0
  6  5  2  0
  7  8  2  0
  7  2  1  0
  9  5  1  0
 11 10  1  0
 11 12  1  0
 12 13  1  0
 14 13  1  1
 14 15  1  0
 15  7  1  0
 16 22  1  0
 16 14  1  0
 17 16  2  0
 19 18  1  1
 19 21  1  0
 20 19  1  0
 21 22  1  6
 21 23  1  0
 23 24  1  0
 25 23  2  0
M  END
$$$$
