EMV.pdb
     RDKit          3D

 25 24  0  0  1  0  0  0  0  0999 V2000
    8.2344  -14.7662   19.8234 N   0  0  0  0  0  0  0  0  0  0  0  0
    7.4705  -15.2814   20.9292 C   0  0  1  0  0  0  0  0  0  0  0  0
    7.2933  -16.7669   20.7628 C   0  0  0  0  0  0  0  0  0  0  0  0
    7.2084  -17.1443   19.3336 C   0  0  0  0  0  0  0  0  0  0  0  0
    6.8913  -18.5751   19.1801 C   0  0  0  0  0  0  0  0  0  0  0  0
    6.7771  -19.3654   20.1572 O   0  0  0  0  0  0  0  0  0  0  0  0
    8.1806  -15.0748   22.2100 C   0  0  0  0  0  0  0  0  0  0  0  0
    9.4229  -15.0427   22.2220 O   0  0  0  0  0  0  0  0  0  0  0  0
    6.7115  -19.0574   17.8686 O   0  0  0  0  0  0  0  0  0  0  0  0
    7.0064  -11.5528   27.7389 C   0  0  0  0  0  0  0  0  0  0  0  0
    6.0057  -11.6307   26.2162 S   0  0  0  0  0  0  0  0  0  0  0  0
    6.8933  -12.6160   24.9975 C   0  0  0  0  0  0  0  0  0  0  0  0
    7.1628  -14.0100   25.5732 C   0  0  0  0  0  0  0  0  0  0  0  0
    8.1308  -14.6859   24.6391 C   0  0  2  0  0  0  0  0  0  0  0  0
    7.4500  -14.9195   23.3898 N   0  0  0  0  0  0  0  0  0  0  0  0
    8.6413  -15.9604   25.1593 C   0  0  0  0  0  0  0  0  0  0  0  0
    7.9111  -16.9811   25.1494 O   0  0  0  0  0  0  0  0  0  0  0  0
   12.3533  -19.0172   26.1105 C   0  0  0  0  0  0  0  0  0  0  0  0
   11.7978  -17.7220   25.6009 C   0  0  1  0  0  0  0  0  0  0  0  0
   11.8876  -17.7305   24.1003 C   0  0  0  0  0  0  0  0  0  0  0  0
   10.4337  -17.4116   26.1241 C   0  0  2  0  0  0  0  0  0  0  0  0
    9.9540  -16.1137   25.6909 N   0  0  0  0  0  0  0  0  0  0  0  0
   10.4005  -17.4955   27.6296 C   0  0  0  0  0  0  0  0  0  0  0  0
   10.5885  -18.7100   28.2813 O   0  0  0  0  0  0  0  0  0  0  0  0
   10.2040  -16.4854   28.3434 O   0  0  0  0  0  0  0  0  0  0  0  0
  2  1  1  6
  3  2  1  0
  4  3  1  0
  5  4  1  0
  6  5  2  0
  7  8  2  0
  7  2  1  0
  9  5  1  0
 11 10  1  0
 11 12  1  0
 12 13  1  0
 14 13  1  1
 14 15  1  0
 15  7  1  0
 16 22  1  0
 16 14  1  0
 17 16  2  0
 19 18  1  6
 19 21  1  0
 20 19  1  0
 21 22  1  1
 21 23  1  0
 23 24  1  0
 25 23  2  0
M  END
$$$$
