EMV.pdb
     RDKit          3D

 25 24  0  0  1  0  0  0  0  0999 V2000
   10.1457  -16.1969   19.7527 N   0  0  0  0  0  0  0  0  0  0  0  0
    9.8817  -16.9949   20.9212 C   0  0  1  0  0  0  0  0  0  0  0  0
   11.0239  -17.9505   21.1399 C   0  0  0  0  0  0  0  0  0  0  0  0
   12.3210  -17.2388   21.1951 C   0  0  0  0  0  0  0  0  0  0  0  0
   13.4471  -18.1888   21.2260 C   0  0  0  0  0  0  0  0  0  0  0  0
   13.2940  -19.4413   21.2133 O   0  0  0  0  0  0  0  0  0  0  0  0
    9.7895  -16.1518   22.1329 C   0  0  0  0  0  0  0  0  0  0  0  0
   10.4022  -15.0713   22.1740 O   0  0  0  0  0  0  0  0  0  0  0  0
   14.7462  -17.6456   21.2714 O   0  0  0  0  0  0  0  0  0  0  0  0
    6.4577  -11.8797   25.3307 C   0  0  0  0  0  0  0  0  0  0  0  0
    5.6990  -13.5318   25.1856 S   0  0  0  0  0  0  0  0  0  0  0  0
    6.9152  -14.7656   25.6780 C   0  0  0  0  0  0  0  0  0  0  0  0
    7.2127  -15.6853   24.4893 C   0  0  0  0  0  0  0  0  0  0  0  0
    8.7043  -15.6646   24.2868 C   0  0  2  0  0  0  0  0  0  0  0  0
    9.0180  -16.5778   23.2160 N   0  0  0  0  0  0  0  0  0  0  0  0
    9.4558  -16.0489   25.4881 C   0  0  0  0  0  0  0  0  0  0  0  0
   10.0485  -17.1543   25.5320 O   0  0  0  0  0  0  0  0  0  0  0  0
   10.9924  -15.0958   30.1472 C   0  0  0  0  0  0  0  0  0  0  0  0
   10.1858  -14.6963   28.9490 C   0  0  1  0  0  0  0  0  0  0  0  0
   10.5456  -13.2812   28.5913 C   0  0  0  0  0  0  0  0  0  0  0  0
   10.2958  -15.6556   27.8095 C   0  0  2  0  0  0  0  0  0  0  0  0
    9.5557  -15.2191   26.6416 N   0  0  0  0  0  0  0  0  0  0  0  0
    9.8434  -17.0349   28.2188 C   0  0  0  0  0  0  0  0  0  0  0  0
   10.7538  -17.9734   28.6936 O   0  0  0  0  0  0  0  0  0  0  0  0
    8.6430  -17.3847   28.1473 O   0  0  0  0  0  0  0  0  0  0  0  0
  2  1  1  6
  3  2  1  0
  4  3  1  0
  5  4  1  0
  6  5  2  0
  7  8  2  0
  7  2  1  0
  9  5  1  0
 11 10  1  0
 11 12  1  0
 12 13  1  0
 14 13  1  1
 14 15  1  0
 15  7  1  0
 16 22  1  0
 16 14  1  0
 17 16  2  0
 19 18  1  1
 19 21  1  0
 20 19  1  0
 21 22  1  6
 21 23  1  0
 23 24  1  0
 25 23  2  0
M  END
$$$$
