EMV.pdb
     RDKit          3D

 25 24  0  0  1  0  0  0  0  0999 V2000
    9.3716  -15.6977   20.1843 N   0  0  0  0  0  0  0  0  0  0  0  0
    8.8767  -16.4312   21.3196 C   0  0  1  0  0  0  0  0  0  0  0  0
    9.5941  -17.7513   21.4108 C   0  0  0  0  0  0  0  0  0  0  0  0
    9.3605  -18.5777   20.2048 C   0  0  0  0  0  0  0  0  0  0  0  0
   10.0652  -19.8683   20.3008 C   0  0  0  0  0  0  0  0  0  0  0  0
   11.1652  -20.0984   19.7271 O   0  0  0  0  0  0  0  0  0  0  0  0
    9.1472  -15.7077   22.5809 C   0  0  0  0  0  0  0  0  0  0  0  0
   10.2314  -15.1180   22.7270 O   0  0  0  0  0  0  0  0  0  0  0  0
    9.4595  -20.8761   21.0771 O   0  0  0  0  0  0  0  0  0  0  0  0
    6.1243  -11.6700   26.9292 C   0  0  0  0  0  0  0  0  0  0  0  0
    5.3636  -12.4643   25.4743 S   0  0  0  0  0  0  0  0  0  0  0  0
    6.6461  -13.3444   24.5664 C   0  0  0  0  0  0  0  0  0  0  0  0
    7.1038  -14.5564   25.3844 C   0  0  0  0  0  0  0  0  0  0  0  0
    8.4332  -14.9833   24.8214 C   0  0  2  0  0  0  0  0  0  0  0  0
    8.1849  -15.6956   23.5926 N   0  0  0  0  0  0  0  0  0  0  0  0
    9.1981  -15.8421   25.7340 C   0  0  0  0  0  0  0  0  0  0  0  0
    9.2217  -17.0843   25.5567 O   0  0  0  0  0  0  0  0  0  0  0  0
   12.6159  -14.5107   27.8219 C   0  0  0  0  0  0  0  0  0  0  0  0
   11.6967  -15.4514   28.5402 C   0  0  1  0  0  0  0  0  0  0  0  0
   10.9804  -14.6800   29.6134 C   0  0  0  0  0  0  0  0  0  0  0  0
   10.7871  -16.2082   27.6289 C   0  0  2  0  0  0  0  0  0  0  0  0
    9.9368  -15.3363   26.8421 N   0  0  0  0  0  0  0  0  0  0  0  0
    9.9420  -17.1895   28.4019 C   0  0  0  0  0  0  0  0  0  0  0  0
   10.5240  -18.2621   29.0696 O   0  0  0  0  0  0  0  0  0  0  0  0
    8.6966  -17.0777   28.4712 O   0  0  0  0  0  0  0  0  0  0  0  0
  2  1  1  6
  3  2  1  0
  4  3  1  0
  5  4  1  0
  6  5  2  0
  7  8  2  0
  7  2  1  0
  9  5  1  0
 11 10  1  0
 11 12  1  0
 12 13  1  0
 14 13  1  1
 14 15  1  0
 15  7  1  0
 16 22  1  0
 16 14  1  0
 17 16  2  0
 19 18  1  6
 19 21  1  0
 20 19  1  0
 21 22  1  1
 21 23  1  0
 23 24  1  0
 25 23  2  0
M  END
$$$$
