EMV.pdb
     RDKit          3D

 25 24  0  0  1  0  0  0  0  0999 V2000
    7.3096  -17.0674   20.7860 N   0  0  0  0  0  0  0  0  0  0  0  0
    8.7131  -16.7494   20.8133 C   0  0  1  0  0  0  0  0  0  0  0  0
    9.0426  -15.8500   19.6521 C   0  0  0  0  0  0  0  0  0  0  0  0
    8.7983  -16.5267   18.3581 C   0  0  0  0  0  0  0  0  0  0  0  0
    9.9647  -17.3295   17.9501 C   0  0  0  0  0  0  0  0  0  0  0  0
   11.1534  -16.9162   18.0425 O   0  0  0  0  0  0  0  0  0  0  0  0
    9.0683  -16.0094   22.0436 C   0  0  0  0  0  0  0  0  0  0  0  0
   10.2340  -15.6080   22.2005 O   0  0  0  0  0  0  0  0  0  0  0  0
    9.7121  -18.6166   17.4360 O   0  0  0  0  0  0  0  0  0  0  0  0
    6.9964  -10.7529   26.7630 C   0  0  0  0  0  0  0  0  0  0  0  0
    6.2702  -12.3762   26.3582 S   0  0  0  0  0  0  0  0  0  0  0  0
    7.6016  -13.5035   25.9108 C   0  0  0  0  0  0  0  0  0  0  0  0
    7.2186  -14.2569   24.6328 C   0  0  0  0  0  0  0  0  0  0  0  0
    8.4285  -15.0506   24.2175 C   0  0  2  0  0  0  0  0  0  0  0  0
    8.0933  -15.7709   23.0142 N   0  0  0  0  0  0  0  0  0  0  0  0
    8.8760  -16.0010   25.2432 C   0  0  0  0  0  0  0  0  0  0  0  0
    8.1167  -16.9288   25.6147 O   0  0  0  0  0  0  0  0  0  0  0  0
   12.4100  -17.7309   25.2011 C   0  0  0  0  0  0  0  0  0  0  0  0
   12.0538  -17.2980   26.5909 C   0  0  1  0  0  0  0  0  0  0  0  0
   12.9776  -16.1798   26.9857 C   0  0  0  0  0  0  0  0  0  0  0  0
   10.6055  -16.9761   26.7622 C   0  0  2  0  0  0  0  0  0  0  0  0
   10.1575  -15.9320   25.8615 N   0  0  0  0  0  0  0  0  0  0  0  0
   10.3031  -16.5892   28.1883 C   0  0  0  0  0  0  0  0  0  0  0  0
   10.4934  -17.4926   29.2288 O   0  0  0  0  0  0  0  0  0  0  0  0
    9.8729  -15.4517   28.4872 O   0  0  0  0  0  0  0  0  0  0  0  0
  2  1  1  1
  3  2  1  0
  4  3  1  0
  5  4  1  0
  6  5  2  0
  7  8  2  0
  7  2  1  0
  9  5  1  0
 11 10  1  0
 11 12  1  0
 12 13  1  0
 14 13  1  1
 14 15  1  0
 15  7  1  0
 16 22  1  0
 16 14  1  0
 17 16  2  0
 19 18  1  6
 19 21  1  0
 20 19  1  0
 21 22  1  6
 21 23  1  0
 23 24  1  0
 25 23  2  0
M  END
$$$$
