EMV.pdb
     RDKit          3D

 25 24  0  0  1  0  0  0  0  0999 V2000
    8.5113  -15.2725   19.3638 N   0  0  0  0  0  0  0  0  0  0  0  0
    7.6374  -15.5793   20.4657 C   0  0  1  0  0  0  0  0  0  0  0  0
    7.3388  -17.0546   20.4685 C   0  0  0  0  0  0  0  0  0  0  0  0
    7.5307  -17.6474   19.1255 C   0  0  0  0  0  0  0  0  0  0  0  0
    7.1602  -19.0737   19.1167 C   0  0  0  0  0  0  0  0  0  0  0  0
    6.7842  -19.6955   20.1483 O   0  0  0  0  0  0  0  0  0  0  0  0
    8.2826  -15.2695   21.7600 C   0  0  0  0  0  0  0  0  0  0  0  0
    9.5207  -15.3221   21.8540 O   0  0  0  0  0  0  0  0  0  0  0  0
    7.2381  -19.7512   17.8839 O   0  0  0  0  0  0  0  0  0  0  0  0
    7.1646  -10.6707   26.7240 C   0  0  0  0  0  0  0  0  0  0  0  0
    6.7779  -12.3801   27.2287 S   0  0  0  0  0  0  0  0  0  0  0  0
    7.8101  -13.5062   26.2747 C   0  0  0  0  0  0  0  0  0  0  0  0
    7.1763  -13.7299   24.8979 C   0  0  0  0  0  0  0  0  0  0  0  0
    8.1145  -14.6201   24.1274 C   0  0  2  0  0  0  0  0  0  0  0  0
    7.4961  -14.9233   22.8606 N   0  0  0  0  0  0  0  0  0  0  0  0
    8.4275  -15.8725   24.8266 C   0  0  0  0  0  0  0  0  0  0  0  0
    7.5093  -16.6784   25.1143 O   0  0  0  0  0  0  0  0  0  0  0  0
   10.8943  -18.6723   23.8249 C   0  0  0  0  0  0  0  0  0  0  0  0
   11.1528  -18.2455   25.2380 C   0  0  1  0  0  0  0  0  0  0  0  0
   12.4519  -17.4898   25.2701 C   0  0  0  0  0  0  0  0  0  0  0  0
   10.0094  -17.5109   25.8575 C   0  0  2  0  0  0  0  0  0  0  0  0
    9.7492  -16.2396   25.2106 N   0  0  0  0  0  0  0  0  0  0  0  0
   10.2392  -17.2992   27.3330 C   0  0  0  0  0  0  0  0  0  0  0  0
   10.3301  -18.3802   28.2038 O   0  0  0  0  0  0  0  0  0  0  0  0
   10.3553  -16.1537   27.8259 O   0  0  0  0  0  0  0  0  0  0  0  0
  2  1  1  6
  3  2  1  0
  4  3  1  0
  5  4  1  0
  6  5  2  0
  7  8  2  0
  7  2  1  0
  9  5  1  0
 11 10  1  0
 11 12  1  0
 12 13  1  0
 14 13  1  1
 14 15  1  0
 15  7  1  0
 16 22  1  0
 16 14  1  0
 17 16  2  0
 19 18  1  6
 19 21  1  0
 20 19  1  0
 21 22  1  6
 21 23  1  0
 23 24  1  0
 25 23  2  0
M  END
$$$$
