EMV.pdb
     RDKit          3D

 25 24  0  0  1  0  0  0  0  0999 V2000
    7.0302  -17.6384   20.8121 N   0  0  0  0  0  0  0  0  0  0  0  0
    8.4644  -17.5267   20.7634 C   0  0  1  0  0  0  0  0  0  0  0  0
    8.8682  -16.8561   19.4778 C   0  0  0  0  0  0  0  0  0  0  0  0
   10.3411  -16.7803   19.3473 C   0  0  0  0  0  0  0  0  0  0  0  0
   10.7628  -17.0029   17.9530 C   0  0  0  0  0  0  0  0  0  0  0  0
   10.6511  -16.1284   17.0501 O   0  0  0  0  0  0  0  0  0  0  0  0
    8.9710  -16.6811   21.8660 C   0  0  0  0  0  0  0  0  0  0  0  0
   10.1967  -16.5360   22.0116 O   0  0  0  0  0  0  0  0  0  0  0  0
   11.3143  -18.2611   17.6405 O   0  0  0  0  0  0  0  0  0  0  0  0
    7.3206  -11.7364   27.6891 C   0  0  0  0  0  0  0  0  0  0  0  0
    6.6945  -12.5657   26.1902 S   0  0  0  0  0  0  0  0  0  0  0  0
    7.9491  -13.7190   25.6075 C   0  0  0  0  0  0  0  0  0  0  0  0
    7.4644  -14.3831   24.3147 C   0  0  0  0  0  0  0  0  0  0  0  0
    8.5509  -15.3298   23.8789 C   0  0  2  0  0  0  0  0  0  0  0  0
    8.0696  -16.0570   22.7307 N   0  0  0  0  0  0  0  0  0  0  0  0
    8.9427  -16.2810   24.9264 C   0  0  0  0  0  0  0  0  0  0  0  0
    8.1176  -17.1279   25.3471 O   0  0  0  0  0  0  0  0  0  0  0  0
   11.7625  -18.7633   24.7572 C   0  0  0  0  0  0  0  0  0  0  0  0
   11.8662  -18.0459   26.0688 C   0  0  1  0  0  0  0  0  0  0  0  0
   13.0811  -17.1615   26.0255 C   0  0  0  0  0  0  0  0  0  0  0  0
   10.6128  -17.3341   26.4598 C   0  0  2  0  0  0  0  0  0  0  0  0
   10.2410  -16.3014   25.5124 N   0  0  0  0  0  0  0  0  0  0  0  0
   10.7357  -16.7433   27.8420 C   0  0  0  0  0  0  0  0  0  0  0  0
   10.9202  -17.5592   28.9534 O   0  0  0  0  0  0  0  0  0  0  0  0
   10.6765  -15.5081   28.0402 O   0  0  0  0  0  0  0  0  0  0  0  0
  2  1  1  6
  3  2  1  0
  4  3  1  0
  5  4  1  0
  6  5  2  0
  7  8  2  0
  7  2  1  0
  9  5  1  0
 11 10  1  0
 11 12  1  0
 12 13  1  0
 14 13  1  1
 14 15  1  0
 15  7  1  0
 16 22  1  0
 16 14  1  0
 17 16  2  0
 19 18  1  6
 19 21  1  0
 20 19  1  0
 21 22  1  6
 21 23  1  0
 23 24  1  0
 25 23  2  0
M  END
$$$$
