EMV.pdb
     RDKit          3D

 25 24  0  0  1  0  0  0  0  0999 V2000
    9.2284  -15.3435   19.0063 N   0  0  0  0  0  0  0  0  0  0  0  0
    8.3090  -15.7844   20.0222 C   0  0  1  0  0  0  0  0  0  0  0  0
    8.0924  -17.2679   19.8878 C   0  0  0  0  0  0  0  0  0  0  0  0
    7.8353  -17.6513   18.4811 C   0  0  0  0  0  0  0  0  0  0  0  0
    8.9313  -18.4794   17.9476 C   0  0  0  0  0  0  0  0  0  0  0  0
   10.0437  -18.0040   17.5887 O   0  0  0  0  0  0  0  0  0  0  0  0
    8.8581  -15.5517   21.3756 C   0  0  0  0  0  0  0  0  0  0  0  0
   10.0567  -15.7930   21.5988 O   0  0  0  0  0  0  0  0  0  0  0  0
    8.6992  -19.8651   17.8442 O   0  0  0  0  0  0  0  0  0  0  0  0
    5.5059  -12.8311   26.7255 C   0  0  0  0  0  0  0  0  0  0  0  0
    7.1732  -12.1370   26.4712 S   0  0  0  0  0  0  0  0  0  0  0  0
    8.2040  -13.3930   25.6943 C   0  0  0  0  0  0  0  0  0  0  0  0
    7.5776  -13.8061   24.3585 C   0  0  0  0  0  0  0  0  0  0  0  0
    8.5808  -14.6868   23.6624 C   0  0  2  0  0  0  0  0  0  0  0  0
    8.0264  -15.0658   22.3864 N   0  0  0  0  0  0  0  0  0  0  0  0
    8.9150  -15.8961   24.4247 C   0  0  0  0  0  0  0  0  0  0  0  0
    8.0996  -16.8484   24.4825 O   0  0  0  0  0  0  0  0  0  0  0  0
   12.2768  -19.0209   26.1428 C   0  0  0  0  0  0  0  0  0  0  0  0
   11.8528  -17.7926   25.3963 C   0  0  1  0  0  0  0  0  0  0  0  0
   12.0476  -18.0452   23.9273 C   0  0  0  0  0  0  0  0  0  0  0  0
   10.4810  -17.3219   25.7531 C   0  0  2  0  0  0  0  0  0  0  0  0
   10.1452  -16.0593   25.1244 N   0  0  0  0  0  0  0  0  0  0  0  0
   10.3199  -17.2104   27.2485 C   0  0  0  0  0  0  0  0  0  0  0  0
   10.2844  -18.3471   28.0496 O   0  0  0  0  0  0  0  0  0  0  0  0
   10.2127  -16.1014   27.8205 O   0  0  0  0  0  0  0  0  0  0  0  0
  2  1  1  6
  3  2  1  0
  4  3  1  0
  5  4  1  0
  6  5  2  0
  7  8  2  0
  7  2  1  0
  9  5  1  0
 11 10  1  0
 11 12  1  0
 12 13  1  0
 14 13  1  1
 14 15  1  0
 15  7  1  0
 16 22  1  0
 16 14  1  0
 17 16  2  0
 19 18  1  1
 19 21  1  0
 20 19  1  0
 21 22  1  6
 21 23  1  0
 23 24  1  0
 25 23  2  0
M  END
$$$$
