EMV.pdb
     RDKit          3D

 25 24  0  0  1  0  0  0  0  0999 V2000
   10.5112  -15.9314   19.9338 N   0  0  0  0  0  0  0  0  0  0  0  0
    9.7429  -16.5949   20.9542 C   0  0  1  0  0  0  0  0  0  0  0  0
   10.3497  -17.9431   21.2367 C   0  0  0  0  0  0  0  0  0  0  0  0
   11.7605  -17.8210   21.6687 C   0  0  0  0  0  0  0  0  0  0  0  0
   12.3657  -19.1467   21.8872 C   0  0  0  0  0  0  0  0  0  0  0  0
   13.2282  -19.3730   22.7800 O   0  0  0  0  0  0  0  0  0  0  0  0
    9.7741  -15.8359   22.2232 C   0  0  0  0  0  0  0  0  0  0  0  0
   10.7904  -15.1861   22.5222 O   0  0  0  0  0  0  0  0  0  0  0  0
   11.9427  -20.1939   21.0450 O   0  0  0  0  0  0  0  0  0  0  0  0
    5.6840  -11.3036   26.0632 C   0  0  0  0  0  0  0  0  0  0  0  0
    5.4994  -13.1165   25.9865 S   0  0  0  0  0  0  0  0  0  0  0  0
    7.1320  -13.8502   25.7861 C   0  0  0  0  0  0  0  0  0  0  0  0
    7.1708  -14.6485   24.4789 C   0  0  0  0  0  0  0  0  0  0  0  0
    8.6140  -14.9912   24.2220 C   0  0  2  0  0  0  0  0  0  0  0  0
    8.6647  -15.8579   23.0709 N   0  0  0  0  0  0  0  0  0  0  0  0
    9.2610  -15.6569   25.3595 C   0  0  0  0  0  0  0  0  0  0  0  0
    9.6122  -16.8583   25.2681 O   0  0  0  0  0  0  0  0  0  0  0  0
   11.3695  -15.4125   29.8818 C   0  0  0  0  0  0  0  0  0  0  0  0
   10.5169  -14.7805   28.8237 C   0  0  1  0  0  0  0  0  0  0  0  0
   11.1087  -13.4417   28.4813 C   0  0  0  0  0  0  0  0  0  0  0  0
   10.2857  -15.6610   27.6397 C   0  0  2  0  0  0  0  0  0  0  0  0
    9.5217  -15.0029   26.5979 N   0  0  0  0  0  0  0  0  0  0  0  0
    9.6032  -16.9434   28.0452 C   0  0  0  0  0  0  0  0  0  0  0  0
   10.3436  -18.0474   28.4555 O   0  0  0  0  0  0  0  0  0  0  0  0
    8.3567  -17.0625   28.0279 O   0  0  0  0  0  0  0  0  0  0  0  0
  2  1  1  6
  3  2  1  0
  4  3  1  0
  5  4  1  0
  6  5  2  0
  7  8  2  0
  7  2  1  0
  9  5  1  0
 11 10  1  0
 11 12  1  0
 12 13  1  0
 14 13  1  1
 14 15  1  0
 15  7  1  0
 16 22  1  0
 16 14  1  0
 17 16  2  0
 19 18  1  1
 19 21  1  0
 20 19  1  0
 21 22  1  6
 21 23  1  0
 23 24  1  0
 25 23  2  0
M  END
$$$$
