EMV.pdb
     RDKit          3D

 25 24  0  0  1  0  0  0  0  0999 V2000
    8.1817  -14.5040   19.6603 N   0  0  0  0  0  0  0  0  0  0  0  0
    7.6022  -15.2976   20.7120 C   0  0  1  0  0  0  0  0  0  0  0  0
    7.8054  -16.7570   20.4042 C   0  0  0  0  0  0  0  0  0  0  0  0
    7.0737  -17.1583   19.1813 C   0  0  0  0  0  0  0  0  0  0  0  0
    7.1102  -18.6198   18.9961 C   0  0  0  0  0  0  0  0  0  0  0  0
    7.6676  -19.4050   19.8115 O   0  0  0  0  0  0  0  0  0  0  0  0
    8.2679  -15.0353   22.0064 C   0  0  0  0  0  0  0  0  0  0  0  0
    9.4986  -14.8649   22.0375 O   0  0  0  0  0  0  0  0  0  0  0  0
    6.4848  -19.1385   17.8451 O   0  0  0  0  0  0  0  0  0  0  0  0
    7.0255  -11.7166   27.6073 C   0  0  0  0  0  0  0  0  0  0  0  0
    6.0148  -11.7515   26.0895 S   0  0  0  0  0  0  0  0  0  0  0  0
    6.8918  -12.7065   24.8395 C   0  0  0  0  0  0  0  0  0  0  0  0
    7.1434  -14.1221   25.3688 C   0  0  0  0  0  0  0  0  0  0  0  0
    8.1515  -14.7571   24.4484 C   0  0  2  0  0  0  0  0  0  0  0  0
    7.5092  -14.9831   23.1774 N   0  0  0  0  0  0  0  0  0  0  0  0
    8.6790  -16.0287   24.9585 C   0  0  0  0  0  0  0  0  0  0  0  0
    7.9383  -17.0404   25.0119 O   0  0  0  0  0  0  0  0  0  0  0  0
   12.4060  -19.0491   26.1067 C   0  0  0  0  0  0  0  0  0  0  0  0
   11.8592  -17.8040   25.4769 C   0  0  1  0  0  0  0  0  0  0  0  0
   11.9886  -17.9366   23.9851 C   0  0  0  0  0  0  0  0  0  0  0  0
   10.4808  -17.4590   25.9369 C   0  0  2  0  0  0  0  0  0  0  0  0
   10.0204  -16.1889   25.4106 N   0  0  0  0  0  0  0  0  0  0  0  0
   10.4000  -17.4510   27.4429 C   0  0  0  0  0  0  0  0  0  0  0  0
   10.5376  -18.6279   28.1716 O   0  0  0  0  0  0  0  0  0  0  0  0
   10.2075  -16.3952   28.0885 O   0  0  0  0  0  0  0  0  0  0  0  0
  2  1  1  6
  3  2  1  0
  4  3  1  0
  5  4  1  0
  6  5  2  0
  7  8  2  0
  7  2  1  0
  9  5  1  0
 11 10  1  0
 11 12  1  0
 12 13  1  0
 14 13  1  1
 14 15  1  0
 15  7  1  0
 16 22  1  0
 16 14  1  0
 17 16  2  0
 19 18  1  1
 19 21  1  0
 20 19  1  0
 21 22  1  1
 21 23  1  0
 23 24  1  0
 25 23  2  0
M  END
$$$$
