EMV.pdb
     RDKit          3D

 25 24  0  0  1  0  0  0  0  0999 V2000
    7.6108  -17.4231   20.3660 N   0  0  0  0  0  0  0  0  0  0  0  0
    9.0350  -17.2996   20.5340 C   0  0  1  0  0  0  0  0  0  0  0  0
    9.6147  -16.5723   19.3505 C   0  0  0  0  0  0  0  0  0  0  0  0
    9.0368  -17.0627   18.0787 C   0  0  0  0  0  0  0  0  0  0  0  0
    9.5742  -16.3153   16.9280 C   0  0  0  0  0  0  0  0  0  0  0  0
    8.8424  -15.7409   16.0755 O   0  0  0  0  0  0  0  0  0  0  0  0
    9.3630  -16.4981   21.7329 C   0  0  0  0  0  0  0  0  0  0  0  0
   10.5498  -16.2233   21.9787 O   0  0  0  0  0  0  0  0  0  0  0  0
   10.9757  -16.2546   16.7978 O   0  0  0  0  0  0  0  0  0  0  0  0
    7.4144  -11.1047   25.9472 C   0  0  0  0  0  0  0  0  0  0  0  0
    6.5570  -12.7138   25.9926 S   0  0  0  0  0  0  0  0  0  0  0  0
    7.7473  -14.0080   25.6029 C   0  0  0  0  0  0  0  0  0  0  0  0
    7.4781  -14.5340   24.1893 C   0  0  0  0  0  0  0  0  0  0  0  0
    8.6534  -15.3976   23.8162 C   0  0  2  0  0  0  0  0  0  0  0  0
    8.3387  -16.0606   22.5750 N   0  0  0  0  0  0  0  0  0  0  0  0
    8.9776  -16.4037   24.8351 C   0  0  0  0  0  0  0  0  0  0  0  0
    8.1189  -17.2536   25.1750 O   0  0  0  0  0  0  0  0  0  0  0  0
   12.3945  -19.1892   27.0254 C   0  0  0  0  0  0  0  0  0  0  0  0
   11.9937  -18.0677   26.1157 C   0  0  1  0  0  0  0  0  0  0  0  0
   12.3005  -18.4772   24.7022 C   0  0  0  0  0  0  0  0  0  0  0  0
   10.5880  -17.6069   26.3211 C   0  0  2  0  0  0  0  0  0  0  0  0
   10.2451  -16.4759   25.4812 N   0  0  0  0  0  0  0  0  0  0  0  0
   10.3371  -17.2667   27.7689 C   0  0  0  0  0  0  0  0  0  0  0  0
   10.1916  -18.2685   28.7229 O   0  0  0  0  0  0  0  0  0  0  0  0
   10.2506  -16.0812   28.1635 O   0  0  0  0  0  0  0  0  0  0  0  0
  2  1  1  6
  3  2  1  0
  4  3  1  0
  5  4  1  0
  6  5  2  0
  7  8  2  0
  7  2  1  0
  9  5  1  0
 11 10  1  0
 11 12  1  0
 12 13  1  0
 14 13  1  1
 14 15  1  0
 15  7  1  0
 16 22  1  0
 16 14  1  0
 17 16  2  0
 19 18  1  1
 19 21  1  0
 20 19  1  0
 21 22  1  6
 21 23  1  0
 23 24  1  0
 25 23  2  0
M  END
$$$$
