DSV.pdb
     RDKit          3D

 22 21  0  0  1  0  0  0  0  0999 V2000
    9.6923  -16.2047   18.7488 N   0  0  0  0  0  0  0  0  0  0  0  0
   10.3854  -15.7502   19.9870 C   0  0  1  0  0  0  0  0  0  0  0  0
   11.1180  -14.4799   19.6585 C   0  0  0  0  0  0  0  0  0  0  0  0
   12.4966  -14.7366   19.2522 C   0  0  0  0  0  0  0  0  0  0  0  0
   13.0112  -15.8490   19.2575 O   0  0  0  0  0  0  0  0  0  0  0  0
    9.3074  -15.4441   20.9782 C   0  0  0  0  0  0  0  0  0  0  0  0
    8.3941  -14.6541   20.6947 O   0  0  0  0  0  0  0  0  0  0  0  0
   13.2594  -13.6386   18.8353 O   0  0  0  0  0  0  0  0  0  0  0  0
    6.6980  -17.0163   24.6739 O   0  0  0  0  0  0  0  0  0  0  0  0
    7.7000  -17.1832   23.7544 C   0  0  0  0  0  0  0  0  0  0  0  0
    8.1911  -15.8469   23.1744 C   0  0  2  0  0  0  0  0  0  0  0  0
    9.3079  -16.0553   22.2700 N   0  0  0  0  0  0  0  0  0  0  0  0
    8.6578  -15.0821   24.3619 C   0  0  0  0  0  0  0  0  0  0  0  0
    9.8843  -15.1223   24.6986 O   0  0  0  0  0  0  0  0  0  0  0  0
    7.0382  -11.5048   25.8447 C   0  0  0  0  0  0  0  0  0  0  0  0
    7.1747  -12.6574   26.8360 C   0  0  1  0  0  0  0  0  0  0  0  0
    5.8273  -13.2609   27.0887 C   0  0  0  0  0  0  0  0  0  0  0  0
    8.1723  -13.6751   26.3211 C   0  0  2  0  0  0  0  0  0  0  0  0
    7.7347  -14.3100   25.1173 N   0  0  0  0  0  0  0  0  0  0  0  0
    8.3477  -14.6704   27.4225 C   0  0  0  0  0  0  0  0  0  0  0  0
    9.0210  -14.4002   28.5807 O   0  0  0  0  0  0  0  0  0  0  0  0
    7.8314  -15.8132   27.2354 O   0  0  0  0  0  0  0  0  0  0  0  0
  2  1  1  6
  3  2  1  0
  3  4  1  0
  4  8  1  0
  5  4  2  0
  6  2  1  0
  7  6  2  0
  9 10  1  0
 11 10  1  1
 11 13  1  0
 11 12  1  0
 12  6  1  0
 13 19  1  0
 14 13  2  0
 16 15  1  6
 16 17  1  0
 18 16  1  0
 18 19  1  6
 20 21  1  0
 20 18  1  0
 22 20  2  0
M  END
$$$$
