DSV.pdb
     RDKit          3D

 22 21  0  0  1  0  0  0  0  0999 V2000
    8.8128  -17.9754   20.4070 N   0  0  0  0  0  0  0  0  0  0  0  0
    8.5633  -16.5300   20.1446 C   0  0  1  0  0  0  0  0  0  0  0  0
    7.6226  -16.4350   18.9766 C   0  0  0  0  0  0  0  0  0  0  0  0
    8.2459  -16.8910   17.7377 C   0  0  0  0  0  0  0  0  0  0  0  0
    7.6228  -17.1214   16.7076 O   0  0  0  0  0  0  0  0  0  0  0  0
    7.8765  -15.9989   21.3631 C   0  0  0  0  0  0  0  0  0  0  0  0
    7.4248  -14.8438   21.3807 O   0  0  0  0  0  0  0  0  0  0  0  0
    9.6350  -17.0695   17.7442 O   0  0  0  0  0  0  0  0  0  0  0  0
    7.7313  -18.1327   25.0698 O   0  0  0  0  0  0  0  0  0  0  0  0
    6.6177  -17.4688   24.6266 C   0  0  0  0  0  0  0  0  0  0  0  0
    6.9643  -16.3212   23.6642 C   0  0  2  0  0  0  0  0  0  0  0  0
    7.7270  -16.8107   22.5296 N   0  0  0  0  0  0  0  0  0  0  0  0
    7.8184  -15.4107   24.4731 C   0  0  0  0  0  0  0  0  0  0  0  0
    9.0854  -15.4783   24.3755 O   0  0  0  0  0  0  0  0  0  0  0  0
    7.2373  -11.4803   25.2574 C   0  0  0  0  0  0  0  0  0  0  0  0
    7.4073  -12.3234   26.5184 C   0  0  1  0  0  0  0  0  0  0  0  0
    6.0783  -12.4938   27.1880 C   0  0  0  0  0  0  0  0  0  0  0  0
    8.0527  -13.6512   26.1770 C   0  0  2  0  0  0  0  0  0  0  0  0
    7.2191  -14.4691   25.3524 N   0  0  0  0  0  0  0  0  0  0  0  0
    8.3367  -14.3169   27.4849 C   0  0  0  0  0  0  0  0  0  0  0  0
    9.3069  -13.8938   28.3495 O   0  0  0  0  0  0  0  0  0  0  0  0
    7.6199  -15.3227   27.7715 O   0  0  0  0  0  0  0  0  0  0  0  0
  2  1  1  1
  3  2  1  0
  3  4  1  0
  4  8  1  0
  5  4  2  0
  6  2  1  0
  7  6  2  0
  9 10  1  0
 11 10  1  1
 11 13  1  0
 11 12  1  0
 12  6  1  0
 13 19  1  0
 14 13  2  0
 16 15  1  6
 16 17  1  0
 18 16  1  0
 18 19  1  6
 20 21  1  0
 20 18  1  0
 22 20  2  0
M  END
$$$$
