DSV.pdb
     RDKit          3D

 22 21  0  0  1  0  0  0  0  0999 V2000
   10.1486  -18.7535   21.6203 N   0  0  0  0  0  0  0  0  0  0  0  0
   10.2008  -17.3522   21.1164 C   0  0  1  0  0  0  0  0  0  0  0  0
    9.7941  -17.3729   19.6699 C   0  0  0  0  0  0  0  0  0  0  0  0
   10.9336  -17.6068   18.7878 C   0  0  0  0  0  0  0  0  0  0  0  0
   11.6079  -18.6302   18.8047 O   0  0  0  0  0  0  0  0  0  0  0  0
    9.1752  -16.5916   21.8962 C   0  0  0  0  0  0  0  0  0  0  0  0
    8.8990  -15.4188   21.6013 O   0  0  0  0  0  0  0  0  0  0  0  0
   11.2605  -16.5944   17.8769 O   0  0  0  0  0  0  0  0  0  0  0  0
    7.4190  -18.1306   25.4784 O   0  0  0  0  0  0  0  0  0  0  0  0
    6.6552  -17.3816   24.6223 C   0  0  0  0  0  0  0  0  0  0  0  0
    7.5043  -16.4473   23.7451 C   0  0  2  0  0  0  0  0  0  0  0  0
    8.4938  -17.2002   22.9951 N   0  0  0  0  0  0  0  0  0  0  0  0
    8.1969  -15.5609   24.7185 C   0  0  0  0  0  0  0  0  0  0  0  0
    9.4160  -15.7756   25.0138 O   0  0  0  0  0  0  0  0  0  0  0  0
    7.1973  -11.5127   25.1654 C   0  0  0  0  0  0  0  0  0  0  0  0
    7.4117  -12.3089   26.4499 C   0  0  1  0  0  0  0  0  0  0  0  0
    6.0857  -12.6071   27.0796 C   0  0  0  0  0  0  0  0  0  0  0  0
    8.2054  -13.5667   26.1595 C   0  0  2  0  0  0  0  0  0  0  0  0
    7.4972  -14.4784   25.3163 N   0  0  0  0  0  0  0  0  0  0  0  0
    8.5005  -14.1809   27.4900 C   0  0  0  0  0  0  0  0  0  0  0  0
    9.3862  -13.6489   28.3846 O   0  0  0  0  0  0  0  0  0  0  0  0
    7.8778  -15.2503   27.7664 O   0  0  0  0  0  0  0  0  0  0  0  0
  2  1  1  1
  3  2  1  0
  3  4  1  0
  4  8  1  0
  5  4  2  0
  6  2  1  0
  7  6  2  0
  9 10  1  0
 11 10  1  1
 11 13  1  0
 11 12  1  0
 12  6  1  0
 13 19  1  0
 14 13  2  0
 16 15  1  6
 16 17  1  0
 18 16  1  0
 18 19  1  6
 20 21  1  0
 20 18  1  0
 22 20  2  0
M  END
$$$$
