DSV.pdb
     RDKit          3D

 22 21  0  0  1  0  0  0  0  0999 V2000
    9.0062  -17.4764   19.2060 N   0  0  0  0  0  0  0  0  0  0  0  0
    9.8507  -17.4852   20.4336 C   0  0  1  0  0  0  0  0  0  0  0  0
   11.0810  -16.6718   20.1458 C   0  0  0  0  0  0  0  0  0  0  0  0
   12.0320  -17.4006   19.3116 C   0  0  0  0  0  0  0  0  0  0  0  0
   12.3183  -17.0766   18.1647 O   0  0  0  0  0  0  0  0  0  0  0  0
    9.0513  -16.7945   21.4930 C   0  0  0  0  0  0  0  0  0  0  0  0
    8.5146  -15.6994   21.2664 O   0  0  0  0  0  0  0  0  0  0  0  0
   12.6424  -18.5310   19.8692 O   0  0  0  0  0  0  0  0  0  0  0  0
    7.8965  -18.9149   24.8161 O   0  0  0  0  0  0  0  0  0  0  0  0
    7.1975  -17.7716   24.5306 C   0  0  0  0  0  0  0  0  0  0  0  0
    8.0499  -16.7364   23.7789 C   0  0  2  0  0  0  0  0  0  0  0  0
    8.8900  -17.3818   22.7858 N   0  0  0  0  0  0  0  0  0  0  0  0
    8.9103  -16.1357   24.8333 C   0  0  0  0  0  0  0  0  0  0  0  0
   10.1470  -16.4311   24.8855 O   0  0  0  0  0  0  0  0  0  0  0  0
    9.5354  -12.7898   28.4038 C   0  0  0  0  0  0  0  0  0  0  0  0
    8.5466  -13.4556   27.4506 C   0  0  1  0  0  0  0  0  0  0  0  0
    8.0396  -12.4433   26.4699 C   0  0  0  0  0  0  0  0  0  0  0  0
    9.1963  -14.6419   26.7673 C   0  0  2  0  0  0  0  0  0  0  0  0
    8.3506  -15.2352   25.7792 N   0  0  0  0  0  0  0  0  0  0  0  0
    9.5193  -15.6148   27.8552 C   0  0  0  0  0  0  0  0  0  0  0  0
   10.6781  -15.5771   28.5788 O   0  0  0  0  0  0  0  0  0  0  0  0
    8.6489  -16.5066   28.0890 O   0  0  0  0  0  0  0  0  0  0  0  0
  2  1  1  6
  3  2  1  0
  3  4  1  0
  4  8  1  0
  5  4  2  0
  6  2  1  0
  7  6  2  0
  9 10  1  0
 11 10  1  1
 11 13  1  0
 11 12  1  0
 12  6  1  0
 13 19  1  0
 14 13  2  0
 16 15  1  1
 16 17  1  0
 18 16  1  0
 18 19  1  6
 20 21  1  0
 20 18  1  0
 22 20  2  0
M  END
$$$$
