DSV.pdb
     RDKit          3D

 22 21  0  0  1  0  0  0  0  0999 V2000
    9.9962  -19.5186   23.1516 N   0  0  0  0  0  0  0  0  0  0  0  0
   11.3832  -18.9826   23.0567 C   0  0  1  0  0  0  0  0  0  0  0  0
   11.9287  -19.3665   21.7102 C   0  0  0  0  0  0  0  0  0  0  0  0
   12.2098  -20.7966   21.6248 C   0  0  0  0  0  0  0  0  0  0  0  0
   12.0075  -21.4707   20.6213 O   0  0  0  0  0  0  0  0  0  0  0  0
   11.2585  -17.4930   23.1211 C   0  0  0  0  0  0  0  0  0  0  0  0
   12.2036  -16.7646   22.7820 O   0  0  0  0  0  0  0  0  0  0  0  0
   12.7405  -21.4169   22.7627 O   0  0  0  0  0  0  0  0  0  0  0  0
    7.6598  -15.7550   24.3508 O   0  0  0  0  0  0  0  0  0  0  0  0
    8.4855  -14.9789   23.5806 C   0  0  0  0  0  0  0  0  0  0  0  0
    9.9522  -15.4335   23.6532 C   0  0  2  0  0  0  0  0  0  0  0  0
   10.0495  -16.8801   23.5737 N   0  0  0  0  0  0  0  0  0  0  0  0
   10.4085  -14.9843   24.9959 C   0  0  0  0  0  0  0  0  0  0  0  0
   10.5879  -13.7448   25.2216 O   0  0  0  0  0  0  0  0  0  0  0  0
    9.5419  -13.5195   27.1205 C   0  0  0  0  0  0  0  0  0  0  0  0
    9.9952  -14.6702   28.0149 C   0  0  1  0  0  0  0  0  0  0  0  0
    8.8083  -15.4966   28.4052 C   0  0  0  0  0  0  0  0  0  0  0  0
   11.0599  -15.4896   27.3141 C   0  0  2  0  0  0  0  0  0  0  0  0
   10.6434  -15.9384   26.0223 N   0  0  0  0  0  0  0  0  0  0  0  0
   11.3495  -16.6441   28.2184 C   0  0  0  0  0  0  0  0  0  0  0  0
   12.0100  -16.5205   29.4085 O   0  0  0  0  0  0  0  0  0  0  0  0
   10.9464  -17.7806   27.8266 O   0  0  0  0  0  0  0  0  0  0  0  0
  2  1  1  6
  3  2  1  0
  3  4  1  0
  4  8  1  0
  5  4  2  0
  6  2  1  0
  7  6  2  0
  9 10  1  0
 11 10  1  1
 11 13  1  0
 11 12  1  0
 12  6  1  0
 13 19  1  0
 14 13  2  0
 16 15  1  6
 16 17  1  0
 18 16  1  0
 18 19  1  6
 20 21  1  0
 20 18  1  0
 22 20  2  0
M  END
$$$$
