DSV.pdb
     RDKit          3D

 22 21  0  0  1  0  0  0  0  0999 V2000
    9.8162  -17.3096   19.7604 N   0  0  0  0  0  0  0  0  0  0  0  0
   10.7511  -17.3982   20.9172 C   0  0  1  0  0  0  0  0  0  0  0  0
   11.9981  -16.6423   20.5538 C   0  0  0  0  0  0  0  0  0  0  0  0
   13.0091  -17.5134   19.9619 C   0  0  0  0  0  0  0  0  0  0  0  0
   12.8204  -18.6966   19.7033 O   0  0  0  0  0  0  0  0  0  0  0  0
   10.0747  -16.6976   22.0530 C   0  0  0  0  0  0  0  0  0  0  0  0
    9.6197  -15.5528   21.9081 O   0  0  0  0  0  0  0  0  0  0  0  0
   14.2593  -16.9488   19.6797 O   0  0  0  0  0  0  0  0  0  0  0  0
    8.3848  -18.7919   25.1286 O   0  0  0  0  0  0  0  0  0  0  0  0
    8.0544  -17.4814   24.9030 C   0  0  0  0  0  0  0  0  0  0  0  0
    9.2512  -16.6525   24.4091 C   0  0  2  0  0  0  0  0  0  0  0  0
    9.9391  -17.3325   23.3261 N   0  0  0  0  0  0  0  0  0  0  0  0
   10.1531  -16.5727   25.5894 C   0  0  0  0  0  0  0  0  0  0  0  0
   11.2198  -17.2660   25.6189 O   0  0  0  0  0  0  0  0  0  0  0  0
   10.5989  -13.0892   27.7945 C   0  0  0  0  0  0  0  0  0  0  0  0
   10.4514  -14.3656   28.6184 C   0  0  1  0  0  0  0  0  0  0  0  0
    9.0804  -14.4161   29.2197 C   0  0  0  0  0  0  0  0  0  0  0  0
   10.7472  -15.5792   27.7605 C   0  0  2  0  0  0  0  0  0  0  0  0
    9.8222  -15.7245   26.6802 N   0  0  0  0  0  0  0  0  0  0  0  0
   10.6899  -16.7554   28.6812 C   0  0  0  0  0  0  0  0  0  0  0  0
   11.6243  -17.0004   29.6480 O   0  0  0  0  0  0  0  0  0  0  0  0
    9.7092  -17.5440   28.5261 O   0  0  0  0  0  0  0  0  0  0  0  0
  2  1  1  6
  3  2  1  0
  3  4  1  0
  4  8  1  0
  5  4  2  0
  6  2  1  0
  7  6  2  0
  9 10  1  0
 11 10  1  1
 11 13  1  0
 11 12  1  0
 12  6  1  0
 13 19  1  0
 14 13  2  0
 16 15  1  6
 16 17  1  0
 18 16  1  0
 18 19  1  6
 20 21  1  0
 20 18  1  0
 22 20  2  0
M  END
$$$$
