DSV.pdb
     RDKit          3D

 22 21  0  0  1  0  0  0  0  0999 V2000
    8.2270  -18.7883   19.6996 N   0  0  0  0  0  0  0  0  0  0  0  0
    8.4415  -17.3373   19.9617 C   0  0  1  0  0  0  0  0  0  0  0  0
    7.8384  -16.5736   18.8166 C   0  0  0  0  0  0  0  0  0  0  0  0
    8.6409  -16.6898   17.6027 C   0  0  0  0  0  0  0  0  0  0  0  0
    9.6916  -17.3179   17.5395 O   0  0  0  0  0  0  0  0  0  0  0  0
    7.6769  -17.0228   21.2087 C   0  0  0  0  0  0  0  0  0  0  0  0
    6.4369  -17.0530   21.2141 O   0  0  0  0  0  0  0  0  0  0  0  0
    8.1688  -16.0410   16.4548 O   0  0  0  0  0  0  0  0  0  0  0  0
    9.2173  -17.9703   24.8024 O   0  0  0  0  0  0  0  0  0  0  0  0
    7.8815  -17.7684   24.5743 C   0  0  0  0  0  0  0  0  0  0  0  0
    7.6194  -16.5599   23.6610 C   0  0  2  0  0  0  0  0  0  0  0  0
    8.3590  -16.6819   22.4174 N   0  0  0  0  0  0  0  0  0  0  0  0
    8.1425  -15.3994   24.4308 C   0  0  0  0  0  0  0  0  0  0  0  0
    9.3630  -15.0592   24.3118 O   0  0  0  0  0  0  0  0  0  0  0  0
    7.2789  -11.4536   27.2747 C   0  0  0  0  0  0  0  0  0  0  0  0
    6.6822  -12.6630   26.5599 C   0  0  1  0  0  0  0  0  0  0  0  0
    5.7297  -12.1977   25.5016 C   0  0  0  0  0  0  0  0  0  0  0  0
    7.7860  -13.5347   25.9958 C   0  0  2  0  0  0  0  0  0  0  0  0
    7.2802  -14.6744   25.2966 N   0  0  0  0  0  0  0  0  0  0  0  0
    8.6208  -13.9464   27.1655 C   0  0  0  0  0  0  0  0  0  0  0  0
    9.6121  -13.1679   27.6937 O   0  0  0  0  0  0  0  0  0  0  0  0
    8.3664  -15.0834   27.6656 O   0  0  0  0  0  0  0  0  0  0  0  0
  2  1  1  6
  3  2  1  0
  3  4  1  0
  4  8  1  0
  5  4  2  0
  6  2  1  0
  7  6  2  0
  9 10  1  0
 11 10  1  1
 11 13  1  0
 11 12  1  0
 12  6  1  0
 13 19  1  0
 14 13  2  0
 16 15  1  6
 16 17  1  0
 18 16  1  0
 18 19  1  1
 20 21  1  0
 20 18  1  0
 22 20  2  0
M  END
$$$$
