DSV.pdb
     RDKit          3D

 22 21  0  0  1  0  0  0  0  0999 V2000
    9.9686  -18.2278   19.8051 N   0  0  0  0  0  0  0  0  0  0  0  0
   10.5681  -17.2847   20.7907 C   0  0  1  0  0  0  0  0  0  0  0  0
   11.2691  -16.2032   20.0179 C   0  0  0  0  0  0  0  0  0  0  0  0
   12.6883  -16.4950   19.8392 C   0  0  0  0  0  0  0  0  0  0  0  0
   13.2354  -17.5024   20.2730 O   0  0  0  0  0  0  0  0  0  0  0  0
    9.4215  -16.6798   21.5376 C   0  0  0  0  0  0  0  0  0  0  0  0
    8.6916  -15.8344   20.9980 O   0  0  0  0  0  0  0  0  0  0  0  0
   13.4528  -15.5606   19.1294 O   0  0  0  0  0  0  0  0  0  0  0  0
    8.1576  -18.3232   25.1889 O   0  0  0  0  0  0  0  0  0  0  0  0
    7.2803  -17.6425   24.3863 C   0  0  0  0  0  0  0  0  0  0  0  0
    7.9712  -16.5422   23.5647 C   0  0  2  0  0  0  0  0  0  0  0  0
    9.1444  -17.0634   22.8860 N   0  0  0  0  0  0  0  0  0  0  0  0
    8.3961  -15.5404   24.5790 C   0  0  0  0  0  0  0  0  0  0  0  0
    9.6152  -15.4827   24.9396 O   0  0  0  0  0  0  0  0  0  0  0  0
    7.2926  -11.6914   27.4875 C   0  0  0  0  0  0  0  0  0  0  0  0
    6.7665  -12.7227   26.4928 C   0  0  1  0  0  0  0  0  0  0  0  0
    6.2055  -12.0199   25.2948 C   0  0  0  0  0  0  0  0  0  0  0  0
    7.8635  -13.7006   26.1234 C   0  0  2  0  0  0  0  0  0  0  0  0
    7.4417  -14.6518   25.1431 N   0  0  0  0  0  0  0  0  0  0  0  0
    8.2553  -14.3770   27.3975 C   0  0  0  0  0  0  0  0  0  0  0  0
    9.1769  -13.8665   28.2680 O   0  0  0  0  0  0  0  0  0  0  0  0
    7.6816  -15.4796   27.6484 O   0  0  0  0  0  0  0  0  0  0  0  0
  2  1  1  6
  3  2  1  0
  3  4  1  0
  4  8  1  0
  5  4  2  0
  6  2  1  0
  7  6  2  0
  9 10  1  0
 11 10  1  1
 11 13  1  0
 11 12  1  0
 12  6  1  0
 13 19  1  0
 14 13  2  0
 16 15  1  1
 16 17  1  0
 18 16  1  0
 18 19  1  6
 20 21  1  0
 20 18  1  0
 22 20  2  0
M  END
$$$$
