DSV.pdb
     RDKit          3D

 22 21  0  0  1  0  0  0  0  0999 V2000
   10.7997  -18.7957   20.6454 N   0  0  0  0  0  0  0  0  0  0  0  0
   11.3826  -17.5134   21.1314 C   0  0  1  0  0  0  0  0  0  0  0  0
   11.3558  -16.5386   19.9880 C   0  0  0  0  0  0  0  0  0  0  0  0
   12.5136  -16.6951   19.1126 C   0  0  0  0  0  0  0  0  0  0  0  0
   13.5317  -17.2979   19.4328 O   0  0  0  0  0  0  0  0  0  0  0  0
   10.4666  -17.0219   22.2074 C   0  0  0  0  0  0  0  0  0  0  0  0
   10.1099  -15.8343   22.2397 O   0  0  0  0  0  0  0  0  0  0  0  0
   12.4396  -16.1180   17.8387 O   0  0  0  0  0  0  0  0  0  0  0  0
    9.3326  -19.5358   25.4062 O   0  0  0  0  0  0  0  0  0  0  0  0
    8.4401  -18.5716   25.0175 C   0  0  0  0  0  0  0  0  0  0  0  0
    9.1194  -17.4110   24.2726 C   0  0  2  0  0  0  0  0  0  0  0  0
    9.9846  -17.9096   23.2183 N   0  0  0  0  0  0  0  0  0  0  0  0
    9.9480  -16.7439   25.3125 C   0  0  0  0  0  0  0  0  0  0  0  0
   11.2154  -16.8527   25.2779 O   0  0  0  0  0  0  0  0  0  0  0  0
   10.2575  -13.2492   28.7687 C   0  0  0  0  0  0  0  0  0  0  0  0
    9.3279  -14.1510   27.9610 C   0  0  1  0  0  0  0  0  0  0  0  0
    8.4995  -13.3134   27.0358 C   0  0  0  0  0  0  0  0  0  0  0  0
   10.1309  -15.2014   27.2206 C   0  0  2  0  0  0  0  0  0  0  0  0
    9.3238  -15.9882   26.3412 N   0  0  0  0  0  0  0  0  0  0  0  0
   10.7649  -16.0505   28.2749 C   0  0  0  0  0  0  0  0  0  0  0  0
   11.9037  -15.6961   28.9423 O   0  0  0  0  0  0  0  0  0  0  0  0
   10.1876  -17.1490   28.5350 O   0  0  0  0  0  0  0  0  0  0  0  0
  2  1  1  6
  3  2  1  0
  3  4  1  0
  4  8  1  0
  5  4  2  0
  6  2  1  0
  7  6  2  0
  9 10  1  0
 11 10  1  1
 11 13  1  0
 11 12  1  0
 12  6  1  0
 13 19  1  0
 14 13  2  0
 16 15  1  6
 16 17  1  0
 18 16  1  0
 18 19  1  6
 20 21  1  0
 20 18  1  0
 22 20  2  0
M  END
$$$$
