DSV.pdb
     RDKit          3D

 22 21  0  0  1  0  0  0  0  0999 V2000
    9.1667  -15.6821   19.4911 N   0  0  0  0  0  0  0  0  0  0  0  0
    8.7002  -14.3189   19.8707 C   0  0  1  0  0  0  0  0  0  0  0  0
    7.7053  -13.8735   18.8363 C   0  0  0  0  0  0  0  0  0  0  0  0
    8.2950  -13.8198   17.5019 C   0  0  0  0  0  0  0  0  0  0  0  0
    9.4552  -14.1311   17.2581 O   0  0  0  0  0  0  0  0  0  0  0  0
    7.9983  -14.4702   21.1832 C   0  0  0  0  0  0  0  0  0  0  0  0
    7.3630  -13.5239   21.6727 O   0  0  0  0  0  0  0  0  0  0  0  0
    7.4747  -13.3862   16.4529 O   0  0  0  0  0  0  0  0  0  0  0  0
    6.0723  -17.8116   23.8236 O   0  0  0  0  0  0  0  0  0  0  0  0
    7.3333  -17.3159   23.6200 C   0  0  0  0  0  0  0  0  0  0  0  0
    7.3183  -15.8534   23.1468 C   0  0  2  0  0  0  0  0  0  0  0  0
    8.0451  -15.7066   21.8984 N   0  0  0  0  0  0  0  0  0  0  0  0
    8.0342  -15.1139   24.2209 C   0  0  0  0  0  0  0  0  0  0  0  0
    9.2903  -14.9295   24.1334 O   0  0  0  0  0  0  0  0  0  0  0  0
    7.4670  -11.6316   25.6471 C   0  0  0  0  0  0  0  0  0  0  0  0
    7.3704  -12.6409   26.7881 C   0  0  1  0  0  0  0  0  0  0  0  0
    5.9348  -12.8201   27.1760 C   0  0  0  0  0  0  0  0  0  0  0  0
    8.0244  -13.9478   26.3874 C   0  0  2  0  0  0  0  0  0  0  0  0
    7.3157  -14.6163   25.3412 N   0  0  0  0  0  0  0  0  0  0  0  0
    8.0674  -14.7813   27.6276 C   0  0  0  0  0  0  0  0  0  0  0  0
    8.8604  -14.4911   28.7021 O   0  0  0  0  0  0  0  0  0  0  0  0
    7.3158  -15.8023   27.6455 O   0  0  0  0  0  0  0  0  0  0  0  0
  2  1  1  6
  3  2  1  0
  3  4  1  0
  4  8  1  0
  5  4  2  0
  6  2  1  0
  7  6  2  0
  9 10  1  0
 11 10  1  1
 11 13  1  0
 11 12  1  0
 12  6  1  0
 13 19  1  0
 14 13  2  0
 16 15  1  6
 16 17  1  0
 18 16  1  0
 18 19  1  6
 20 21  1  0
 20 18  1  0
 22 20  2  0
M  END
$$$$
