DSV.pdb
     RDKit          3D

 22 21  0  0  1  0  0  0  0  0999 V2000
   10.3218  -17.2485   20.0108 N   0  0  0  0  0  0  0  0  0  0  0  0
   11.1275  -17.5084   21.2370 C   0  0  1  0  0  0  0  0  0  0  0  0
   12.4628  -16.8437   21.0539 C   0  0  0  0  0  0  0  0  0  0  0  0
   13.3825  -17.6742   20.2821 C   0  0  0  0  0  0  0  0  0  0  0  0
   14.4005  -17.2473   19.7493 O   0  0  0  0  0  0  0  0  0  0  0  0
   10.4030  -16.8366   22.3605 C   0  0  0  0  0  0  0  0  0  0  0  0
   10.3984  -15.6001   22.4596 O   0  0  0  0  0  0  0  0  0  0  0  0
   13.0687  -19.0330   20.1535 O   0  0  0  0  0  0  0  0  0  0  0  0
    8.3543  -19.1442   25.1765 O   0  0  0  0  0  0  0  0  0  0  0  0
    7.8450  -17.8963   24.9303 C   0  0  0  0  0  0  0  0  0  0  0  0
    8.8976  -16.9384   24.3491 C   0  0  2  0  0  0  0  0  0  0  0  0
    9.7022  -17.6049   23.3407 N   0  0  0  0  0  0  0  0  0  0  0  0
    9.7578  -16.5909   25.5120 C   0  0  0  0  0  0  0  0  0  0  0  0
   10.9370  -17.0627   25.5904 O   0  0  0  0  0  0  0  0  0  0  0  0
   10.5022  -13.9391   29.6117 C   0  0  0  0  0  0  0  0  0  0  0  0
    9.4947  -14.3591   28.5448 C   0  0  1  0  0  0  0  0  0  0  0  0
    9.0630  -13.1557   27.7643 C   0  0  0  0  0  0  0  0  0  0  0  0
   10.0888  -15.4353   27.6588 C   0  0  2  0  0  0  0  0  0  0  0  0
    9.2618  -15.7347   26.5317 N   0  0  0  0  0  0  0  0  0  0  0  0
   10.2638  -16.6351   28.5330 C   0  0  0  0  0  0  0  0  0  0  0  0
    9.4883  -17.7562   28.4363 O   0  0  0  0  0  0  0  0  0  0  0  0
   11.1895  -16.5713   29.3971 O   0  0  0  0  0  0  0  0  0  0  0  0
  2  1  1  6
  3  2  1  0
  3  4  1  0
  4  8  1  0
  5  4  2  0
  6  2  1  0
  7  6  2  0
  9 10  1  0
 11 10  1  1
 11 13  1  0
 11 12  1  0
 12  6  1  0
 13 19  1  0
 14 13  2  0
 16 15  1  1
 16 17  1  0
 18 16  1  0
 18 19  1  6
 20 21  1  0
 20 18  1  0
 22 20  2  0
M  END
$$$$
