DSV.pdb
     RDKit          3D

 22 21  0  0  1  0  0  0  0  0999 V2000
   11.2788  -16.3246   19.5217 N   0  0  0  0  0  0  0  0  0  0  0  0
   11.0639  -16.8333   20.9056 C   0  0  1  0  0  0  0  0  0  0  0  0
   12.3600  -16.6850   21.6516 C   0  0  0  0  0  0  0  0  0  0  0  0
   13.3220  -17.7188   21.2815 C   0  0  0  0  0  0  0  0  0  0  0  0
   13.0066  -18.8626   20.9737 O   0  0  0  0  0  0  0  0  0  0  0  0
   10.0432  -15.9324   21.5258 C   0  0  0  0  0  0  0  0  0  0  0  0
   10.1794  -14.7002   21.4842 O   0  0  0  0  0  0  0  0  0  0  0  0
   14.6775  -17.3665   21.2832 O   0  0  0  0  0  0  0  0  0  0  0  0
    6.7466  -17.5315   23.6069 O   0  0  0  0  0  0  0  0  0  0  0  0
    6.5687  -16.3266   22.9791 C   0  0  0  0  0  0  0  0  0  0  0  0
    7.8952  -15.5846   22.7492 C   0  0  2  0  0  0  0  0  0  0  0  0
    8.8919  -16.4726   22.1778 N   0  0  0  0  0  0  0  0  0  0  0  0
    8.3269  -15.1757   24.1128 C   0  0  0  0  0  0  0  0  0  0  0  0
    9.2771  -15.7962   24.6886 O   0  0  0  0  0  0  0  0  0  0  0  0
    7.7239  -11.3156   25.8320 C   0  0  0  0  0  0  0  0  0  0  0  0
    7.3149  -12.5487   26.6333 C   0  0  1  0  0  0  0  0  0  0  0  0
    5.8262  -12.7060   26.5825 C   0  0  0  0  0  0  0  0  0  0  0  0
    8.0399  -13.7740   26.1145 C   0  0  2  0  0  0  0  0  0  0  0  0
    7.6780  -14.0955   24.7693 N   0  0  0  0  0  0  0  0  0  0  0  0
    7.6852  -14.8858   27.0486 C   0  0  0  0  0  0  0  0  0  0  0  0
    6.8202  -15.8933   26.7252 O   0  0  0  0  0  0  0  0  0  0  0  0
    8.2350  -14.8579   28.1908 O   0  0  0  0  0  0  0  0  0  0  0  0
  2  1  1  6
  3  2  1  0
  3  4  1  0
  4  8  1  0
  5  4  2  0
  6  2  1  0
  7  6  2  0
  9 10  1  0
 11 10  1  1
 11 13  1  0
 11 12  1  0
 12  6  1  0
 13 19  1  0
 14 13  2  0
 16 15  1  6
 16 17  1  0
 18 16  1  0
 18 19  1  6
 20 21  1  0
 20 18  1  0
 22 20  2  0
M  END
$$$$
