DSV.pdb
     RDKit          3D

 22 21  0  0  1  0  0  0  0  0999 V2000
   10.5409  -17.1920   16.7163 N   0  0  0  0  0  0  0  0  0  0  0  0
   10.0916  -18.3725   17.5067 C   0  0  1  0  0  0  0  0  0  0  0  0
   10.1979  -19.5812   16.6202 C   0  0  0  0  0  0  0  0  0  0  0  0
    9.4531  -19.4107   15.3762 C   0  0  0  0  0  0  0  0  0  0  0  0
    8.2375  -19.2617   15.3263 O   0  0  0  0  0  0  0  0  0  0  0  0
   11.0649  -18.5127   18.6343 C   0  0  0  0  0  0  0  0  0  0  0  0
   11.1042  -19.5526   19.3093 O   0  0  0  0  0  0  0  0  0  0  0  0
   10.1847  -19.4200   14.1820 O   0  0  0  0  0  0  0  0  0  0  0  0
   14.2789  -16.0810   18.8037 O   0  0  0  0  0  0  0  0  0  0  0  0
   14.2961  -17.1280   19.6873 C   0  0  0  0  0  0  0  0  0  0  0  0
   12.8822  -17.5899   20.0755 C   0  0  2  0  0  0  0  0  0  0  0  0
   11.9680  -17.4528   18.9557 N   0  0  0  0  0  0  0  0  0  0  0  0
   12.4758  -16.6538   21.1579 C   0  0  0  0  0  0  0  0  0  0  0  0
   12.6205  -15.3997   20.9976 O   0  0  0  0  0  0  0  0  0  0  0  0
    9.2629  -15.7730   22.4455 C   0  0  0  0  0  0  0  0  0  0  0  0
   10.0317  -16.2985   23.6549 C   0  0  1  0  0  0  0  0  0  0  0  0
    9.5605  -17.6818   23.9836 C   0  0  0  0  0  0  0  0  0  0  0  0
   11.5227  -16.2477   23.3896 C   0  0  2  0  0  0  0  0  0  0  0  0
   11.9282  -17.1608   22.3671 N   0  0  0  0  0  0  0  0  0  0  0  0
   12.1817  -16.5695   24.6921 C   0  0  0  0  0  0  0  0  0  0  0  0
   12.2908  -15.6767   25.7211 O   0  0  0  0  0  0  0  0  0  0  0  0
   12.6520  -17.7411   24.8103 O   0  0  0  0  0  0  0  0  0  0  0  0
  2  1  1  6
  3  2  1  0
  3  4  1  0
  4  8  1  0
  5  4  2  0
  6  2  1  0
  7  6  2  0
  9 10  1  0
 11 10  1  6
 11 13  1  0
 11 12  1  0
 12  6  1  0
 13 19  1  0
 14 13  2  0
 16 15  1  6
 16 17  1  0
 18 16  1  0
 18 19  1  6
 20 21  1  0
 20 18  1  0
 22 20  2  0
M  END
$$$$
