LEV.pdb
     RDKit          3D

 25 24  0  0  1  0  0  0  0  0999 V2000
    9.5470  -12.8731   19.4700 C   0  0  0  0  0  0  0  0  0  0  0  0
    8.1884  -13.3642   19.2107 C   0  0  2  0  0  0  0  0  0  0  0  0
    7.1609  -12.2564   19.2972 C   0  0  0  0  0  0  0  0  0  0  0  0
    7.7011  -14.5000   20.0836 C   0  0  0  0  0  0  0  0  0  0  0  0
    8.7793  -15.4927   20.4147 C   0  0  2  0  0  0  0  0  0  0  0  0
    8.6834  -16.6534   19.5700 N   0  0  0  0  0  0  0  0  0  0  0  0
    8.6710  -15.9109   21.8392 C   0  0  0  0  0  0  0  0  0  0  0  0
    7.6547  -15.6639   22.5652 O   0  0  0  0  0  0  0  0  0  0  0  0
    9.7153  -16.6267   22.4917 N   0  0  0  0  0  0  0  0  0  0  0  0
    9.8610  -17.1940   23.7331 C   0  0  1  0  0  0  0  0  0  0  0  0
   10.7874  -18.3279   24.0032 C   0  0  0  0  0  0  0  0  0  0  0  0
   10.9106  -18.9365   25.3466 C   0  0  0  0  0  0  0  0  0  0  0  0
   11.9723  -20.0173   25.1940 C   0  0  0  0  0  0  0  0  0  0  0  0
   13.1496  -19.7325   24.9514 O   0  0  0  0  0  0  0  0  0  0  0  0
   10.1485  -16.1780   24.7937 C   0  0  0  0  0  0  0  0  0  0  0  0
   11.1638  -15.4328   24.5533 O   0  0  0  0  0  0  0  0  0  0  0  0
   11.5705  -21.3158   25.3401 O   0  0  0  0  0  0  0  0  0  0  0  0
    8.3901  -13.2093   25.6102 C   0  0  0  0  0  0  0  0  0  0  0  0
    8.6666  -13.8676   26.9540 C   0  0  2  0  0  0  0  0  0  0  0  0
    9.1157  -12.7269   27.8539 C   0  0  0  0  0  0  0  0  0  0  0  0
    9.8382  -14.8403   26.8504 C   0  0  2  0  0  0  0  0  0  0  0  0
    9.4630  -15.9483   25.9679 N   0  0  0  0  0  0  0  0  0  0  0  0
   10.2436  -15.3485   28.1414 C   0  0  0  0  0  0  0  0  0  0  0  0
   11.0264  -14.5729   29.0105 O   0  0  0  0  0  0  0  0  0  0  0  0
    9.8898  -16.5100   28.5051 O   0  0  0  0  0  0  0  0  0  0  0  0
  2  1  1  1
  2  3  1  0
  4  5  1  0
  4  2  1  0
  5  7  1  0
  5  6  1  6
  7  8  2  0
  9  7  1  0
  9 10  1  0
 11 12  1  0
 10 11  1  6
 12 13  1  0
 13 17  1  0
 13 14  2  0
 15 10  1  0
 15 16  2  0
 19 18  1  6
 19 21  1  0
 20 19  1  0
 21 22  1  6
 21 23  1  0
 22 15  1  0
 23 25  2  0
 23 24  1  0
M  END
$$$$
