LEV.pdb
     RDKit          3D

 25 24  0  0  1  0  0  0  0  0999 V2000
    9.4030  -13.2275   19.5311 C   0  0  0  0  0  0  0  0  0  0  0  0
    7.9403  -13.2815   19.4225 C   0  0  2  0  0  0  0  0  0  0  0  0
    7.3177  -11.9036   19.4850 C   0  0  0  0  0  0  0  0  0  0  0  0
    7.2182  -14.1484   20.4307 C   0  0  0  0  0  0  0  0  0  0  0  0
    7.8089  -15.5244   20.5545 C   0  0  2  0  0  0  0  0  0  0  0  0
    7.0494  -16.4783   19.7910 N   0  0  0  0  0  0  0  0  0  0  0  0
    7.8334  -15.9450   21.9822 C   0  0  0  0  0  0  0  0  0  0  0  0
    6.7888  -16.0261   22.7054 O   0  0  0  0  0  0  0  0  0  0  0  0
    9.0481  -16.2900   22.6412 N   0  0  0  0  0  0  0  0  0  0  0  0
    9.3695  -16.6963   23.9123 C   0  0  1  0  0  0  0  0  0  0  0  0
   10.4957  -17.6246   24.2069 C   0  0  0  0  0  0  0  0  0  0  0  0
   10.8007  -18.0752   25.5833 C   0  0  0  0  0  0  0  0  0  0  0  0
   11.9335  -19.0806   25.4271 C   0  0  0  0  0  0  0  0  0  0  0  0
   13.1163  -18.7250   25.4478 O   0  0  0  0  0  0  0  0  0  0  0  0
    9.5410  -15.5445   24.8526 C   0  0  0  0  0  0  0  0  0  0  0  0
   10.5069  -14.7557   24.5546 O   0  0  0  0  0  0  0  0  0  0  0  0
   11.5886  -20.3937   25.2667 O   0  0  0  0  0  0  0  0  0  0  0  0
    6.7386  -13.8475   27.2851 C   0  0  0  0  0  0  0  0  0  0  0  0
    8.0429  -13.1364   26.9552 C   0  0  2  0  0  0  0  0  0  0  0  0
    7.8262  -12.5662   25.5620 C   0  0  0  0  0  0  0  0  0  0  0  0
    9.1937  -14.1338   26.8537 C   0  0  2  0  0  0  0  0  0  0  0  0
    8.7965  -15.2338   25.9709 N   0  0  0  0  0  0  0  0  0  0  0  0
    9.5861  -14.6502   28.1455 C   0  0  0  0  0  0  0  0  0  0  0  0
   10.2129  -13.8267   29.0935 O   0  0  0  0  0  0  0  0  0  0  0  0
    9.3627  -15.8631   28.4379 O   0  0  0  0  0  0  0  0  0  0  0  0
  2  1  1  1
  2  3  1  0
  4  5  1  0
  4  2  1  0
  5  7  1  0
  5  6  1  6
  7  8  2  0
  9  7  1  0
  9 10  1  0
 11 12  1  0
 10 11  1  6
 12 13  1  0
 13 17  1  0
 13 14  2  0
 15 10  1  0
 15 16  2  0
 19 18  1  6
 19 21  1  0
 20 19  1  0
 21 22  1  6
 21 23  1  0
 22 15  1  0
 23 25  2  0
 23 24  1  0
M  END
$$$$
