LEV.pdb
     RDKit          3D

 25 24  0  0  1  0  0  0  0  0999 V2000
    8.3259  -12.6674   24.9508 C   0  0  0  0  0  0  0  0  0  0  0  0
    6.9162  -12.4362   24.6138 C   0  0  2  0  0  0  0  0  0  0  0  0
    6.1589  -11.7980   25.7581 C   0  0  0  0  0  0  0  0  0  0  0  0
    6.1210  -13.6424   24.1643 C   0  0  0  0  0  0  0  0  0  0  0  0
    6.8983  -14.5566   23.2600 C   0  0  2  0  0  0  0  0  0  0  0  0
    6.0191  -15.4611   22.5680 N   0  0  0  0  0  0  0  0  0  0  0  0
    7.8869  -15.3400   24.0504 C   0  0  0  0  0  0  0  0  0  0  0  0
    7.6431  -15.8075   25.2092 O   0  0  0  0  0  0  0  0  0  0  0  0
    9.1909  -15.6218   23.5515 N   0  0  0  0  0  0  0  0  0  0  0  0
   10.2155  -16.4433   23.9509 C   0  0  1  0  0  0  0  0  0  0  0  0
   11.4261  -16.6926   23.1206 C   0  0  0  0  0  0  0  0  0  0  0  0
   12.5556  -17.5150   23.6088 C   0  0  0  0  0  0  0  0  0  0  0  0
   13.5275  -17.5842   22.4387 C   0  0  0  0  0  0  0  0  0  0  0  0
   13.5362  -18.5481   21.6661 O   0  0  0  0  0  0  0  0  0  0  0  0
   10.7269  -16.0951   25.3137 C   0  0  0  0  0  0  0  0  0  0  0  0
   11.5772  -15.1357   25.3322 O   0  0  0  0  0  0  0  0  0  0  0  0
   14.3878  -16.5343   22.2754 O   0  0  0  0  0  0  0  0  0  0  0  0
    9.8853  -13.9791   27.7472 C   0  0  0  0  0  0  0  0  0  0  0  0
   10.0687  -15.2855   28.5058 C   0  0  2  0  0  0  0  0  0  0  0  0
   10.7533  -14.8822   29.8025 C   0  0  0  0  0  0  0  0  0  0  0  0
   11.0289  -16.2123   27.7653 C   0  0  2  0  0  0  0  0  0  0  0  0
   10.3946  -16.6653   26.5245 N   0  0  0  0  0  0  0  0  0  0  0  0
   11.4200  -17.3495   28.5674 C   0  0  0  0  0  0  0  0  0  0  0  0
   12.3721  -17.2198   29.5903 O   0  0  0  0  0  0  0  0  0  0  0  0
   10.8990  -18.4851   28.3539 O   0  0  0  0  0  0  0  0  0  0  0  0
  2  1  1  1
  2  3  1  0
  4  5  1  0
  4  2  1  0
  5  7  1  0
  5  6  1  1
  7  8  2  0
  9  7  1  0
  9 10  1  0
 11 12  1  0
 10 11  1  6
 12 13  1  0
 13 17  1  0
 13 14  2  0
 15 10  1  0
 15 16  2  0
 19 18  1  6
 19 21  1  0
 20 19  1  0
 21 22  1  6
 21 23  1  0
 22 15  1  0
 23 25  2  0
 23 24  1  0
M  END
$$$$
