LEV.pdb
     RDKit          3D

 25 24  0  0  1  0  0  0  0  0999 V2000
    9.4533  -13.6122   19.4734 C   0  0  0  0  0  0  0  0  0  0  0  0
    8.0096  -13.5362   19.2204 C   0  0  2  0  0  0  0  0  0  0  0  0
    7.5120  -12.1070   19.2109 C   0  0  0  0  0  0  0  0  0  0  0  0
    7.1159  -14.3183   20.1579 C   0  0  0  0  0  0  0  0  0  0  0  0
    7.5402  -15.7508   20.3177 C   0  0  2  0  0  0  0  0  0  0  0  0
    6.6025  -16.6366   19.6805 N   0  0  0  0  0  0  0  0  0  0  0  0
    7.6408  -16.0974   21.7618 C   0  0  0  0  0  0  0  0  0  0  0  0
    6.6368  -16.1337   22.5440 O   0  0  0  0  0  0  0  0  0  0  0  0
    8.8881  -16.4165   22.3709 N   0  0  0  0  0  0  0  0  0  0  0  0
    9.2726  -16.7888   23.6349 C   0  0  1  0  0  0  0  0  0  0  0  0
   10.4594  -17.6473   23.9020 C   0  0  0  0  0  0  0  0  0  0  0  0
   10.8638  -18.0203   25.2760 C   0  0  0  0  0  0  0  0  0  0  0  0
   12.0793  -18.9200   25.0988 C   0  0  0  0  0  0  0  0  0  0  0  0
   12.5465  -19.5635   26.0442 O   0  0  0  0  0  0  0  0  0  0  0  0
    9.4068  -15.6181   24.5577 C   0  0  0  0  0  0  0  0  0  0  0  0
   10.2544  -14.7353   24.1751 O   0  0  0  0  0  0  0  0  0  0  0  0
   12.6306  -18.9901   23.8497 O   0  0  0  0  0  0  0  0  0  0  0  0
    8.0692  -11.9601   27.2316 C   0  0  0  0  0  0  0  0  0  0  0  0
    7.8501  -13.2009   26.3782 C   0  0  2  0  0  0  0  0  0  0  0  0
    6.6302  -13.8741   26.9876 C   0  0  0  0  0  0  0  0  0  0  0  0
    9.0162  -14.1742   26.5269 C   0  0  2  0  0  0  0  0  0  0  0  0
    8.7377  -15.3779   25.7392 N   0  0  0  0  0  0  0  0  0  0  0  0
    9.2609  -14.5286   27.9068 C   0  0  0  0  0  0  0  0  0  0  0  0
    9.1085  -15.8509   28.3517 O   0  0  0  0  0  0  0  0  0  0  0  0
    9.6218  -13.6398   28.7352 O   0  0  0  0  0  0  0  0  0  0  0  0
  2  1  1  1
  2  3  1  0
  4  5  1  0
  4  2  1  0
  5  7  1  0
  5  6  1  6
  7  8  2  0
  9  7  1  0
  9 10  1  0
 11 12  1  0
 10 11  1  6
 12 13  1  0
 13 17  1  0
 13 14  2  0
 15 10  1  0
 15 16  2  0
 19 18  1  1
 19 21  1  0
 20 19  1  0
 21 22  1  6
 21 23  1  0
 22 15  1  0
 23 25  2  0
 23 24  1  0
M  END
$$$$
