LEV.pdb
     RDKit          3D

 25 24  0  0  1  0  0  0  0  0999 V2000
    9.7138  -12.8134   19.3607 C   0  0  0  0  0  0  0  0  0  0  0  0
    8.4115  -13.1932   18.8005 C   0  0  2  0  0  0  0  0  0  0  0  0
    7.4018  -12.0709   18.9060 C   0  0  0  0  0  0  0  0  0  0  0  0
    7.7651  -14.4361   19.3722 C   0  0  0  0  0  0  0  0  0  0  0  0
    8.7593  -15.5012   19.7395 C   0  0  2  0  0  0  0  0  0  0  0  0
    8.7482  -16.5671   18.7733 N   0  0  0  0  0  0  0  0  0  0  0  0
    8.4442  -16.0540   21.0852 C   0  0  0  0  0  0  0  0  0  0  0  0
    7.2833  -16.4524   21.4234 O   0  0  0  0  0  0  0  0  0  0  0  0
    9.4390  -16.1750   22.0974 N   0  0  0  0  0  0  0  0  0  0  0  0
    9.4737  -16.7413   23.3473 C   0  0  1  0  0  0  0  0  0  0  0  0
   10.4759  -17.7682   23.7451 C   0  0  0  0  0  0  0  0  0  0  0  0
   10.6671  -19.0169   22.9739 C   0  0  0  0  0  0  0  0  0  0  0  0
   11.8625  -19.7016   23.6224 C   0  0  0  0  0  0  0  0  0  0  0  0
   12.9996  -19.2263   23.5382 O   0  0  0  0  0  0  0  0  0  0  0  0
    9.4939  -15.7159   24.4373 C   0  0  0  0  0  0  0  0  0  0  0  0
   10.5376  -14.9711   24.4457 O   0  0  0  0  0  0  0  0  0  0  0  0
   11.6259  -20.8623   24.3051 O   0  0  0  0  0  0  0  0  0  0  0  0
    7.1172  -12.9412   25.0955 C   0  0  0  0  0  0  0  0  0  0  0  0
    7.4273  -13.5757   26.4435 C   0  0  2  0  0  0  0  0  0  0  0  0
    7.6968  -12.3985   27.3678 C   0  0  0  0  0  0  0  0  0  0  0  0
    8.7152  -14.3917   26.3752 C   0  0  2  0  0  0  0  0  0  0  0  0
    8.5425  -15.4775   25.4065 N   0  0  0  0  0  0  0  0  0  0  0  0
    9.0914  -14.9298   27.6630 C   0  0  0  0  0  0  0  0  0  0  0  0
    9.7497  -14.1354   28.6144 O   0  0  0  0  0  0  0  0  0  0  0  0
    8.8247  -16.1355   27.9487 O   0  0  0  0  0  0  0  0  0  0  0  0
  2  1  1  1
  2  3  1  0
  4  5  1  0
  4  2  1  0
  5  7  1  0
  5  6  1  6
  7  8  2  0
  9  7  1  0
  9 10  1  0
 11 12  1  0
 10 11  1  6
 12 13  1  0
 13 17  1  0
 13 14  2  0
 15 10  1  0
 15 16  2  0
 19 18  1  6
 19 21  1  0
 20 19  1  0
 21 22  1  6
 21 23  1  0
 22 15  1  0
 23 25  2  0
 23 24  1  0
M  END
$$$$
