LEV.pdb
     RDKit          3D

 25 24  0  0  1  0  0  0  0  0999 V2000
    7.3599  -12.2745   20.4601 C   0  0  0  0  0  0  0  0  0  0  0  0
    8.2971  -13.3444   20.0984 C   0  0  2  0  0  0  0  0  0  0  0  0
    9.4145  -12.8408   19.2106 C   0  0  0  0  0  0  0  0  0  0  0  0
    7.7051  -14.5653   19.4288 C   0  0  0  0  0  0  0  0  0  0  0  0
    8.3540  -15.8487   19.8643 C   0  0  2  0  0  0  0  0  0  0  0  0
    7.8650  -16.9581   19.0898 N   0  0  0  0  0  0  0  0  0  0  0  0
    8.0809  -16.0973   21.3063 C   0  0  0  0  0  0  0  0  0  0  0  0
    6.9068  -16.1747   21.7926 O   0  0  0  0  0  0  0  0  0  0  0  0
    9.1340  -16.2680   22.2500 N   0  0  0  0  0  0  0  0  0  0  0  0
    9.1981  -16.7067   23.5490 C   0  0  1  0  0  0  0  0  0  0  0  0
   10.2470  -17.6435   24.0381 C   0  0  0  0  0  0  0  0  0  0  0  0
   10.4049  -19.0046   23.4787 C   0  0  0  0  0  0  0  0  0  0  0  0
   11.7288  -19.5090   24.0367 C   0  0  0  0  0  0  0  0  0  0  0  0
   12.0402  -19.3261   25.2181 O   0  0  0  0  0  0  0  0  0  0  0  0
    9.1748  -15.5793   24.5331 C   0  0  0  0  0  0  0  0  0  0  0  0
   10.0449  -14.6639   24.3118 O   0  0  0  0  0  0  0  0  0  0  0  0
   12.5576  -20.1760   23.1781 O   0  0  0  0  0  0  0  0  0  0  0  0
    6.5153  -13.0685   25.3284 C   0  0  0  0  0  0  0  0  0  0  0  0
    7.0494  -13.6159   26.6440 C   0  0  2  0  0  0  0  0  0  0  0  0
    7.2046  -12.3919   27.5331 C   0  0  0  0  0  0  0  0  0  0  0  0
    8.4427  -14.2104   26.4581 C   0  0  2  0  0  0  0  0  0  0  0  0
    8.3434  -15.4082   25.6198 N   0  0  0  0  0  0  0  0  0  0  0  0
    9.0714  -14.5364   27.7182 C   0  0  0  0  0  0  0  0  0  0  0  0
    9.7080  -13.5487   28.4856 O   0  0  0  0  0  0  0  0  0  0  0  0
    9.0507  -15.7289   28.1473 O   0  0  0  0  0  0  0  0  0  0  0  0
  2  1  1  6
  2  3  1  0
  4  5  1  0
  4  2  1  0
  5  7  1  0
  5  6  1  6
  7  8  2  0
  9  7  1  0
  9 10  1  0
 11 12  1  0
 10 11  1  6
 12 13  1  0
 13 17  1  0
 13 14  2  0
 15 10  1  0
 15 16  2  0
 19 18  1  6
 19 21  1  0
 20 19  1  0
 21 22  1  6
 21 23  1  0
 22 15  1  0
 23 25  2  0
 23 24  1  0
M  END
$$$$
