LEV.pdb
     RDKit          3D

 25 24  0  0  1  0  0  0  0  0999 V2000
    9.7439  -13.1834   19.5816 C   0  0  0  0  0  0  0  0  0  0  0  0
    8.3978  -13.3521   19.0214 C   0  0  2  0  0  0  0  0  0  0  0  0
    7.6584  -12.0355   18.9210 C   0  0  0  0  0  0  0  0  0  0  0  0
    7.4860  -14.3279   19.7326 C   0  0  0  0  0  0  0  0  0  0  0  0
    8.1748  -15.6084   20.1117 C   0  0  2  0  0  0  0  0  0  0  0  0
    7.7263  -16.6957   19.2832 N   0  0  0  0  0  0  0  0  0  0  0  0
    7.9033  -15.9331   21.5388 C   0  0  0  0  0  0  0  0  0  0  0  0
    6.7367  -15.9238   22.0485 O   0  0  0  0  0  0  0  0  0  0  0  0
    8.9496  -16.2815   22.4403 N   0  0  0  0  0  0  0  0  0  0  0  0
    8.9933  -16.6830   23.7521 C   0  0  1  0  0  0  0  0  0  0  0  0
    9.9714  -17.6829   24.2624 C   0  0  0  0  0  0  0  0  0  0  0  0
    9.9839  -18.1158   25.6777 C   0  0  0  0  0  0  0  0  0  0  0  0
   11.1037  -19.1437   25.7657 C   0  0  0  0  0  0  0  0  0  0  0  0
   11.3203  -19.7711   26.8076 O   0  0  0  0  0  0  0  0  0  0  0  0
    9.0681  -15.5269   24.6997 C   0  0  0  0  0  0  0  0  0  0  0  0
   10.1104  -14.7933   24.5603 O   0  0  0  0  0  0  0  0  0  0  0  0
   11.8577  -19.3471   24.6435 O   0  0  0  0  0  0  0  0  0  0  0  0
    6.3976  -12.8186   25.4555 C   0  0  0  0  0  0  0  0  0  0  0  0
    7.0376  -13.2897   26.7533 C   0  0  2  0  0  0  0  0  0  0  0  0
    7.3235  -12.0110   27.5253 C   0  0  0  0  0  0  0  0  0  0  0  0
    8.3835  -13.9568   26.4833 C   0  0  2  0  0  0  0  0  0  0  0  0
    8.1669  -15.1611   25.6772 N   0  0  0  0  0  0  0  0  0  0  0  0
    9.0818  -14.2941   27.7032 C   0  0  0  0  0  0  0  0  0  0  0  0
    9.9413  -13.3737   28.3225 O   0  0  0  0  0  0  0  0  0  0  0  0
    8.9203  -15.4349   28.2314 O   0  0  0  0  0  0  0  0  0  0  0  0
  2  1  1  1
  2  3  1  0
  4  5  1  0
  4  2  1  0
  5  7  1  0
  5  6  1  6
  7  8  2  0
  9  7  1  0
  9 10  1  0
 11 12  1  0
 10 11  1  6
 12 13  1  0
 13 17  1  0
 13 14  2  0
 15 10  1  0
 15 16  2  0
 19 18  1  6
 19 21  1  0
 20 19  1  0
 21 22  1  1
 21 23  1  0
 22 15  1  0
 23 25  2  0
 23 24  1  0
M  END
$$$$
