LEV.pdb
     RDKit          3D

 25 24  0  0  1  0  0  0  0  0999 V2000
    9.5460  -13.3539   19.0748 C   0  0  0  0  0  0  0  0  0  0  0  0
    8.1048  -13.3461   19.3521 C   0  0  2  0  0  0  0  0  0  0  0  0
    7.5666  -11.9402   19.5074 C   0  0  0  0  0  0  0  0  0  0  0  0
    7.6423  -14.1409   20.5538 C   0  0  0  0  0  0  0  0  0  0  0  0
    8.1808  -15.5434   20.5750 C   0  0  2  0  0  0  0  0  0  0  0  0
    7.3320  -16.4292   19.8235 N   0  0  0  0  0  0  0  0  0  0  0  0
    8.2826  -16.0320   21.9774 C   0  0  0  0  0  0  0  0  0  0  0  0
    7.2774  -16.1600   22.7481 O   0  0  0  0  0  0  0  0  0  0  0  0
    9.5327  -16.3943   22.5560 N   0  0  0  0  0  0  0  0  0  0  0  0
    9.9154  -16.9195   23.7650 C   0  0  1  0  0  0  0  0  0  0  0  0
   11.1581  -17.7197   23.9451 C   0  0  0  0  0  0  0  0  0  0  0  0
   11.5272  -18.3114   25.2505 C   0  0  0  0  0  0  0  0  0  0  0  0
   12.7382  -19.1868   24.9584 C   0  0  0  0  0  0  0  0  0  0  0  0
   12.7292  -20.3983   25.1993 O   0  0  0  0  0  0  0  0  0  0  0  0
    9.9384  -15.8905   24.8517 C   0  0  0  0  0  0  0  0  0  0  0  0
   10.7224  -14.9008   24.6287 O   0  0  0  0  0  0  0  0  0  0  0  0
   13.8352  -18.5782   24.4149 O   0  0  0  0  0  0  0  0  0  0  0  0
    7.4771  -13.4871   25.9846 C   0  0  0  0  0  0  0  0  0  0  0  0
    8.0158  -14.1460   27.2461 C   0  0  2  0  0  0  0  0  0  0  0  0
    8.2346  -12.9950   28.2157 C   0  0  0  0  0  0  0  0  0  0  0  0
    9.3817  -14.7760   26.9879 C   0  0  2  0  0  0  0  0  0  0  0  0
    9.2276  -15.8770   26.0332 N   0  0  0  0  0  0  0  0  0  0  0  0
   10.0023  -15.2545   28.2025 C   0  0  0  0  0  0  0  0  0  0  0  0
   10.7491  -14.3931   29.0209 O   0  0  0  0  0  0  0  0  0  0  0  0
    9.8740  -16.4683   28.5443 O   0  0  0  0  0  0  0  0  0  0  0  0
  2  1  1  1
  2  3  1  0
  4  5  1  0
  4  2  1  0
  5  7  1  0
  5  6  1  6
  7  8  2  0
  9  7  1  0
  9 10  1  0
 11 12  1  0
 10 11  1  6
 12 13  1  0
 13 17  1  0
 13 14  2  0
 15 10  1  0
 15 16  2  0
 19 18  1  6
 19 21  1  0
 20 19  1  0
 21 22  1  6
 21 23  1  0
 22 15  1  0
 23 25  2  0
 23 24  1  0
M  END
$$$$
