LEV.pdb
     RDKit          3D

 25 24  0  0  1  0  0  0  0  0999 V2000
    9.3548  -13.1659   18.8129 C   0  0  0  0  0  0  0  0  0  0  0  0
    7.8951  -13.2967   18.8914 C   0  0  2  0  0  0  0  0  0  0  0  0
    7.2110  -11.9497   18.9807 C   0  0  0  0  0  0  0  0  0  0  0  0
    7.3516  -14.1534   20.0139 C   0  0  0  0  0  0  0  0  0  0  0  0
    7.9763  -15.5189   20.0680 C   0  0  2  0  0  0  0  0  0  0  0  0
    7.2722  -16.4382   19.2142 N   0  0  0  0  0  0  0  0  0  0  0  0
    7.9610  -16.0344   21.4643 C   0  0  0  0  0  0  0  0  0  0  0  0
    6.8950  -16.3690   22.0748 O   0  0  0  0  0  0  0  0  0  0  0  0
    9.1589  -16.1893   22.2192 N   0  0  0  0  0  0  0  0  0  0  0  0
    9.4428  -16.6076   23.4954 C   0  0  1  0  0  0  0  0  0  0  0  0
   10.6677  -17.3798   23.8423 C   0  0  0  0  0  0  0  0  0  0  0  0
   10.9663  -17.7934   25.2316 C   0  0  0  0  0  0  0  0  0  0  0  0
   12.2308  -18.6355   25.1292 C   0  0  0  0  0  0  0  0  0  0  0  0
   12.1910  -19.8676   25.2080 O   0  0  0  0  0  0  0  0  0  0  0  0
    9.3762  -15.4907   24.4894 C   0  0  0  0  0  0  0  0  0  0  0  0
   10.0812  -14.4647   24.1825 O   0  0  0  0  0  0  0  0  0  0  0  0
   13.4119  -17.9728   24.9426 O   0  0  0  0  0  0  0  0  0  0  0  0
    7.4359  -12.1489   27.1089 C   0  0  0  0  0  0  0  0  0  0  0  0
    7.4545  -13.3901   26.2287 C   0  0  2  0  0  0  0  0  0  0  0  0
    6.2536  -14.2028   26.6873 C   0  0  0  0  0  0  0  0  0  0  0  0
    8.6953  -14.2339   26.5074 C   0  0  2  0  0  0  0  0  0  0  0  0
    8.6577  -15.4322   25.6649 N   0  0  0  0  0  0  0  0  0  0  0  0
    8.8016  -14.6082   27.8995 C   0  0  0  0  0  0  0  0  0  0  0  0
    9.1227  -13.6582   28.8813 O   0  0  0  0  0  0  0  0  0  0  0  0
    8.6008  -15.8096   28.2500 O   0  0  0  0  0  0  0  0  0  0  0  0
  2  1  1  1
  2  3  1  0
  4  5  1  0
  4  2  1  0
  5  7  1  0
  5  6  1  6
  7  8  2  0
  9  7  1  0
  9 10  1  0
 11 12  1  0
 10 11  1  6
 12 13  1  0
 13 17  1  0
 13 14  2  0
 15 10  1  0
 15 16  2  0
 19 18  1  1
 19 21  1  0
 20 19  1  0
 21 22  1  6
 21 23  1  0
 22 15  1  0
 23 25  2  0
 23 24  1  0
M  END
$$$$
