LEV.pdb
     RDKit          3D

 25 24  0  0  1  0  0  0  0  0999 V2000
    9.4340  -13.1952   18.6723 C   0  0  0  0  0  0  0  0  0  0  0  0
    7.9929  -13.4451   18.7944 C   0  0  2  0  0  0  0  0  0  0  0  0
    7.1934  -12.1602   18.7810 C   0  0  0  0  0  0  0  0  0  0  0  0
    7.5438  -14.2427   19.9991 C   0  0  0  0  0  0  0  0  0  0  0  0
    8.3676  -15.4783   20.2278 C   0  0  2  0  0  0  0  0  0  0  0  0
    7.9575  -16.5377   19.3450 N   0  0  0  0  0  0  0  0  0  0  0  0
    8.2292  -15.9326   21.6386 C   0  0  0  0  0  0  0  0  0  0  0  0
    7.1059  -16.1569   22.1941 O   0  0  0  0  0  0  0  0  0  0  0  0
    9.3645  -16.1494   22.4709 N   0  0  0  0  0  0  0  0  0  0  0  0
    9.5432  -16.6143   23.7500 C   0  0  1  0  0  0  0  0  0  0  0  0
   10.6785  -17.4942   24.1422 C   0  0  0  0  0  0  0  0  0  0  0  0
   10.8738  -18.8346   23.5459 C   0  0  0  0  0  0  0  0  0  0  0  0
   12.2237  -19.3061   24.0692 C   0  0  0  0  0  0  0  0  0  0  0  0
   12.3807  -19.6179   25.2542 O   0  0  0  0  0  0  0  0  0  0  0  0
    9.5169  -15.5147   24.7650 C   0  0  0  0  0  0  0  0  0  0  0  0
   10.4620  -14.6570   24.6425 O   0  0  0  0  0  0  0  0  0  0  0  0
   13.2543  -19.3742   23.1736 O   0  0  0  0  0  0  0  0  0  0  0  0
    7.0014  -12.8932   25.3613 C   0  0  0  0  0  0  0  0  0  0  0  0
    7.3841  -13.4350   26.7309 C   0  0  2  0  0  0  0  0  0  0  0  0
    7.5791  -12.1965   27.5917 C   0  0  0  0  0  0  0  0  0  0  0  0
    8.7297  -14.1531   26.6732 C   0  0  2  0  0  0  0  0  0  0  0  0
    8.6140  -15.3149   25.7878 N   0  0  0  0  0  0  0  0  0  0  0  0
    9.1852  -14.5681   27.9808 C   0  0  0  0  0  0  0  0  0  0  0  0
    9.7575  -13.6481   28.8728 O   0  0  0  0  0  0  0  0  0  0  0  0
    9.0681  -15.7784   28.3382 O   0  0  0  0  0  0  0  0  0  0  0  0
  2  1  1  1
  2  3  1  0
  4  5  1  0
  4  2  1  0
  5  7  1  0
  5  6  1  6
  7  8  2  0
  9  7  1  0
  9 10  1  0
 11 12  1  0
 10 11  1  6
 12 13  1  0
 13 17  1  0
 13 14  2  0
 15 10  1  0
 15 16  2  0
 19 18  1  6
 19 21  1  0
 20 19  1  0
 21 22  1  6
 21 23  1  0
 22 15  1  0
 23 25  2  0
 23 24  1  0
M  END
$$$$
