LEV.pdb
     RDKit          3D

 25 24  0  0  1  0  0  0  0  0999 V2000
    9.6794  -12.8848   18.9770 C   0  0  0  0  0  0  0  0  0  0  0  0
    8.2625  -13.2678   18.9776 C   0  0  2  0  0  0  0  0  0  0  0  0
    7.3511  -12.0621   19.0528 C   0  0  0  0  0  0  0  0  0  0  0  0
    7.8227  -14.2332   20.0565 C   0  0  0  0  0  0  0  0  0  0  0  0
    8.6933  -15.4547   20.1444 C   0  0  2  0  0  0  0  0  0  0  0  0
    8.3155  -16.4251   19.1518 N   0  0  0  0  0  0  0  0  0  0  0  0
    8.5830  -16.0662   21.4970 C   0  0  0  0  0  0  0  0  0  0  0  0
    7.4967  -16.5373   21.9652 O   0  0  0  0  0  0  0  0  0  0  0  0
    9.7053  -16.1656   22.3685 N   0  0  0  0  0  0  0  0  0  0  0  0
    9.9049  -16.6883   23.6218 C   0  0  1  0  0  0  0  0  0  0  0  0
   11.0952  -17.5086   23.9785 C   0  0  0  0  0  0  0  0  0  0  0  0
   11.0447  -18.9873   24.0189 C   0  0  0  0  0  0  0  0  0  0  0  0
   12.4671  -19.4388   23.7171 C   0  0  0  0  0  0  0  0  0  0  0  0
   13.4260  -19.0299   24.3801 O   0  0  0  0  0  0  0  0  0  0  0  0
    9.7939  -15.6519   24.6959 C   0  0  0  0  0  0  0  0  0  0  0  0
   10.6367  -14.6909   24.5950 O   0  0  0  0  0  0  0  0  0  0  0  0
   12.6400  -20.3183   22.6847 O   0  0  0  0  0  0  0  0  0  0  0  0
    6.9560  -13.3836   25.4793 C   0  0  0  0  0  0  0  0  0  0  0  0
    7.4559  -13.9530   26.7991 C   0  0  2  0  0  0  0  0  0  0  0  0
    7.4929  -12.7598   27.7412 C   0  0  0  0  0  0  0  0  0  0  0  0
    8.8899  -14.4575   26.6635 C   0  0  2  0  0  0  0  0  0  0  0  0
    8.9089  -15.6049   25.7523 N   0  0  0  0  0  0  0  0  0  0  0  0
    9.4637  -14.8255   27.9382 C   0  0  0  0  0  0  0  0  0  0  0  0
   10.0827  -13.8677   28.7561 O   0  0  0  0  0  0  0  0  0  0  0  0
    9.4098  -16.0283   28.3340 O   0  0  0  0  0  0  0  0  0  0  0  0
  2  1  1  1
  2  3  1  0
  4  5  1  0
  4  2  1  0
  5  7  1  0
  5  6  1  6
  7  8  2  0
  9  7  1  0
  9 10  1  0
 11 12  1  0
 10 11  1  6
 12 13  1  0
 13 17  1  0
 13 14  2  0
 15 10  1  0
 15 16  2  0
 19 18  1  6
 19 21  1  0
 20 19  1  0
 21 22  1  6
 21 23  1  0
 22 15  1  0
 23 25  2  0
 23 24  1  0
M  END
$$$$
