LEV.pdb
     RDKit          3D

 25 24  0  0  1  0  0  0  0  0999 V2000
    9.7962  -13.5751   19.1849 C   0  0  0  0  0  0  0  0  0  0  0  0
    8.3861  -13.5154   18.7822 C   0  0  2  0  0  0  0  0  0  0  0  0
    7.8812  -12.0911   18.7014 C   0  0  0  0  0  0  0  0  0  0  0  0
    7.4058  -14.2936   19.6323 C   0  0  0  0  0  0  0  0  0  0  0  0
    7.8788  -15.6829   19.9543 C   0  0  2  0  0  0  0  0  0  0  0  0
    7.0856  -16.6662   19.2660 N   0  0  0  0  0  0  0  0  0  0  0  0
    7.7978  -15.9247   21.4208 C   0  0  0  0  0  0  0  0  0  0  0  0
    6.7105  -15.8655   22.0805 O   0  0  0  0  0  0  0  0  0  0  0  0
    8.9516  -16.2438   22.1927 N   0  0  0  0  0  0  0  0  0  0  0  0
    9.1608  -16.6301   23.4931 C   0  0  1  0  0  0  0  0  0  0  0  0
   10.2955  -17.5000   23.9085 C   0  0  0  0  0  0  0  0  0  0  0  0
   10.5183  -17.8759   25.3225 C   0  0  0  0  0  0  0  0  0  0  0  0
   11.6653  -18.8767   25.2885 C   0  0  0  0  0  0  0  0  0  0  0  0
   12.0126  -19.4916   26.3020 O   0  0  0  0  0  0  0  0  0  0  0  0
    9.1776  -15.4687   24.4369 C   0  0  0  0  0  0  0  0  0  0  0  0
   10.0385  -14.5633   24.1488 O   0  0  0  0  0  0  0  0  0  0  0  0
   12.2931  -19.0702   24.0895 O   0  0  0  0  0  0  0  0  0  0  0  0
    7.3005  -11.9487   27.0393 C   0  0  0  0  0  0  0  0  0  0  0  0
    7.2239  -13.2249   26.2140 C   0  0  2  0  0  0  0  0  0  0  0  0
    6.1296  -14.0455   26.8788 C   0  0  0  0  0  0  0  0  0  0  0  0
    8.5168  -14.0269   26.3343 C   0  0  2  0  0  0  0  0  0  0  0  0
    8.3906  -15.2578   25.5495 N   0  0  0  0  0  0  0  0  0  0  0  0
    8.8387  -14.3438   27.7074 C   0  0  0  0  0  0  0  0  0  0  0  0
    8.8587  -15.6730   28.1573 O   0  0  0  0  0  0  0  0  0  0  0  0
    9.1114  -13.4146   28.5253 O   0  0  0  0  0  0  0  0  0  0  0  0
  2  1  1  1
  2  3  1  0
  4  5  1  0
  4  2  1  0
  5  7  1  0
  5  6  1  6
  7  8  2  0
  9  7  1  0
  9 10  1  0
 11 12  1  0
 10 11  1  6
 12 13  1  0
 13 17  1  0
 13 14  2  0
 15 10  1  0
 15 16  2  0
 19 18  1  1
 19 21  1  0
 20 19  1  0
 21 22  1  6
 21 23  1  0
 22 15  1  0
 23 25  2  0
 23 24  1  0
M  END
$$$$
