HCF.pdb
     RDKit          3D

 28 29  0  0  1  0  0  0  0  0999 V2000
    9.2141  -16.3092   19.7756 N   0  0  0  0  0  0  0  0  0  0  0  0
    8.4311  -15.3703   20.5086 C   0  0  1  0  0  0  0  0  0  0  0  0
    7.2180  -14.8876   19.7501 C   0  0  0  0  0  0  0  0  0  0  0  0
    7.6660  -14.3377   18.4542 C   0  0  0  0  0  0  0  0  0  0  0  0
    8.1926  -13.0549   18.2868 C   0  0  0  0  0  0  0  0  0  0  0  0
    8.4837  -12.9209   16.9691 N   0  0  0  0  0  0  0  0  0  0  0  0
    8.1641  -14.0471   16.3306 C   0  0  0  0  0  0  0  0  0  0  0  0
    7.6729  -14.8871   17.2464 N   0  0  0  0  0  0  0  0  0  0  0  0
    7.9988  -15.8739   21.8328 C   0  0  0  0  0  0  0  0  0  0  0  0
    6.9499  -16.5462   21.9984 O   0  0  0  0  0  0  0  0  0  0  0  0
    8.8032  -15.5851   22.9661 N   0  0  0  0  0  0  0  0  0  0  0  0
    8.7336  -16.4699   24.1130 C   0  0  1  0  0  0  0  0  0  0  0  0
    9.3460  -17.8218   23.8341 C   0  0  0  0  0  0  0  0  0  0  0  0
   11.0998  -17.6771   23.3995 S   0  0  0  0  0  0  0  0  0  0  0  0
    9.5215  -15.8530   25.2164 C   0  0  0  0  0  0  0  0  0  0  0  0
   10.5811  -15.2063   25.0125 O   0  0  0  0  0  0  0  0  0  0  0  0
    9.0888  -15.9800   26.5627 N   0  0  0  0  0  0  0  0  0  0  0  0
    9.8162  -15.3015   27.6154 C   0  0  1  0  0  0  0  0  0  0  0  0
    8.8195  -14.4570   28.3645 C   0  0  0  0  0  0  0  0  0  0  0  0
    8.1198  -13.4702   27.5411 C   0  0  0  0  0  0  0  0  0  0  0  0
    6.8502  -13.6430   27.0394 C   0  0  0  0  0  0  0  0  0  0  0  0
    6.2474  -12.6897   26.2794 C   0  0  0  0  0  0  0  0  0  0  0  0
    6.8997  -11.5019   25.9833 C   0  0  0  0  0  0  0  0  0  0  0  0
    8.1639  -11.3098   26.4727 C   0  0  0  0  0  0  0  0  0  0  0  0
    8.7644  -12.2876   27.2440 C   0  0  0  0  0  0  0  0  0  0  0  0
   10.5305  -16.2728   28.4536 C   0  0  0  0  0  0  0  0  0  0  0  0
   10.3013  -17.4975   28.2977 O   0  0  0  0  0  0  0  0  0  0  0  0
   11.4562  -15.9113   29.4204 O   0  0  0  0  0  0  0  0  0  0  0  0
  2  1  1  6
  3  4  1  0
  3  2  1  0
  4  5  2  0
  5  6  1  0
  7  6  1  0
  8  4  1  0
  8  7  2  0
  9  2  1  0
  9 10  2  0
 11  9  1  0
 12 11  1  0
 12 15  1  0
 12 13  1  6
 14 13  1  0
 15 17  1  0
 16 15  2  0
 17 18  1  0
 18 26  1  0
 19 20  1  0
 18 19  1  1
 20 25  1  0
 21 20  2  0
 21 22  1  0
 22 23  2  0
 23 24  1  0
 25 24  2  0
 26 27  2  0
 26 28  1  0
M  END
$$$$
