HCF.pdb
     RDKit          3D

 28 29  0  0  1  0  0  0  0  0999 V2000
    8.0153  -17.8888   19.1312 N   0  0  0  0  0  0  0  0  0  0  0  0
    7.6499  -18.1619   20.4817 C   0  0  1  0  0  0  0  0  0  0  0  0
    7.8990  -19.5951   20.8865 C   0  0  0  0  0  0  0  0  0  0  0  0
    6.8565  -20.4419   20.2714 C   0  0  0  0  0  0  0  0  0  0  0  0
    5.6086  -20.6917   20.8472 C   0  0  0  0  0  0  0  0  0  0  0  0
    4.9391  -21.5035   19.9919 N   0  0  0  0  0  0  0  0  0  0  0  0
    5.7088  -21.7589   18.9334 C   0  0  0  0  0  0  0  0  0  0  0  0
    6.8602  -21.1082   19.1240 N   0  0  0  0  0  0  0  0  0  0  0  0
    8.3087  -17.2664   21.4605 C   0  0  0  0  0  0  0  0  0  0  0  0
    9.4883  -16.8547   21.3230 O   0  0  0  0  0  0  0  0  0  0  0  0
    7.5773  -16.8542   22.6050 N   0  0  0  0  0  0  0  0  0  0  0  0
    8.2202  -15.9751   23.5626 C   0  0  1  0  0  0  0  0  0  0  0  0
    7.2301  -15.3160   24.4929 C   0  0  0  0  0  0  0  0  0  0  0  0
    6.2186  -16.5441   25.3612 S   0  0  0  0  0  0  0  0  0  0  0  0
    9.1281  -16.8018   24.4060 C   0  0  0  0  0  0  0  0  0  0  0  0
    9.1022  -18.0595   24.3973 O   0  0  0  0  0  0  0  0  0  0  0  0
   10.0718  -16.1791   25.2649 N   0  0  0  0  0  0  0  0  0  0  0  0
   10.9675  -16.9965   26.0568 C   0  0  1  0  0  0  0  0  0  0  0  0
   11.8464  -16.0556   26.8377 C   0  0  0  0  0  0  0  0  0  0  0  0
   11.1315  -15.2123   27.7964 C   0  0  0  0  0  0  0  0  0  0  0  0
   10.4616  -14.0581   27.4612 C   0  0  0  0  0  0  0  0  0  0  0  0
    9.8121  -13.3131   28.3955 C   0  0  0  0  0  0  0  0  0  0  0  0
    9.8046  -13.6969   29.7284 C   0  0  0  0  0  0  0  0  0  0  0  0
   10.4653  -14.8423   30.0834 C   0  0  0  0  0  0  0  0  0  0  0  0
   11.1213  -15.5899   29.1230 C   0  0  0  0  0  0  0  0  0  0  0  0
   10.2043  -17.9354   26.8889 C   0  0  0  0  0  0  0  0  0  0  0  0
   10.8168  -18.8471   27.4977 O   0  0  0  0  0  0  0  0  0  0  0  0
    8.8280  -17.8729   27.0438 O   0  0  0  0  0  0  0  0  0  0  0  0
  2  1  1  6
  3  4  1  0
  3  2  1  0
  4  5  2  0
  5  6  1  0
  7  6  1  0
  8  4  1  0
  8  7  2  0
  9  2  1  0
  9 10  2  0
 11  9  1  0
 12 11  1  0
 12 15  1  0
 12 13  1  1
 14 13  1  0
 15 17  1  0
 16 15  2  0
 17 18  1  0
 18 26  1  0
 19 20  1  0
 18 19  1  1
 20 25  1  0
 21 20  2  0
 21 22  1  0
 22 23  2  0
 23 24  1  0
 25 24  2  0
 26 27  2  0
 26 28  1  0
M  END
$$$$
