HCF.pdb
     RDKit          3D

 28 29  0  0  1  0  0  0  0  0999 V2000
    8.8857  -16.6380   19.6133 N   0  0  0  0  0  0  0  0  0  0  0  0
    8.6306  -15.7675   20.7130 C   0  0  1  0  0  0  0  0  0  0  0  0
    7.4206  -14.8881   20.5064 C   0  0  0  0  0  0  0  0  0  0  0  0
    7.6284  -14.0882   19.2820 C   0  0  0  0  0  0  0  0  0  0  0  0
    8.2772  -12.8515   19.2540 C   0  0  0  0  0  0  0  0  0  0  0  0
    8.2703  -12.4358   17.9632 N   0  0  0  0  0  0  0  0  0  0  0  0
    7.6556  -13.3483   17.2098 C   0  0  0  0  0  0  0  0  0  0  0  0
    7.2771  -14.3357   18.0266 N   0  0  0  0  0  0  0  0  0  0  0  0
    8.4905  -16.4791   22.0045 C   0  0  0  0  0  0  0  0  0  0  0  0
    7.5785  -17.3144   22.2283 O   0  0  0  0  0  0  0  0  0  0  0  0
    9.4266  -16.2068   23.0362 N   0  0  0  0  0  0  0  0  0  0  0  0
    9.3542  -16.9768   24.2629 C   0  0  1  0  0  0  0  0  0  0  0  0
   10.2315  -18.2052   24.2234 C   0  0  0  0  0  0  0  0  0  0  0  0
   11.8416  -17.8450   23.4727 S   0  0  0  0  0  0  0  0  0  0  0  0
    9.8545  -16.1186   25.3729 C   0  0  0  0  0  0  0  0  0  0  0  0
   10.7636  -15.2641   25.2114 O   0  0  0  0  0  0  0  0  0  0  0  0
    9.3067  -16.2432   26.6769 N   0  0  0  0  0  0  0  0  0  0  0  0
    9.8334  -15.4323   27.7551 C   0  0  1  0  0  0  0  0  0  0  0  0
    8.6905  -14.6055   28.2821 C   0  0  0  0  0  0  0  0  0  0  0  0
    8.2014  -13.5850   27.3542 C   0  0  0  0  0  0  0  0  0  0  0  0
    8.8097  -12.3670   27.1545 C   0  0  0  0  0  0  0  0  0  0  0  0
    8.3107  -11.4557   26.2767 C   0  0  0  0  0  0  0  0  0  0  0  0
    7.1620  -11.7281   25.5484 C   0  0  0  0  0  0  0  0  0  0  0  0
    6.5412  -12.9344   25.7322 C   0  0  0  0  0  0  0  0  0  0  0  0
    7.0596  -13.8513   26.6278 C   0  0  0  0  0  0  0  0  0  0  0  0
   10.4779  -16.2797   28.7665 C   0  0  0  0  0  0  0  0  0  0  0  0
   10.3136  -17.5236   28.7141 O   0  0  0  0  0  0  0  0  0  0  0  0
   11.2682  -15.7795   29.7900 O   0  0  0  0  0  0  0  0  0  0  0  0
  2  1  1  6
  3  4  1  0
  3  2  1  0
  4  5  2  0
  5  6  1  0
  7  6  1  0
  8  4  1  0
  8  7  2  0
  9  2  1  0
  9 10  2  0
 11  9  1  0
 12 11  1  0
 12 15  1  0
 12 13  1  6
 14 13  1  0
 15 17  1  0
 16 15  2  0
 17 18  1  0
 18 26  1  0
 19 20  1  0
 18 19  1  1
 20 25  1  0
 21 20  2  0
 21 22  1  0
 22 23  2  0
 23 24  1  0
 25 24  2  0
 26 27  2  0
 26 28  1  0
M  END
$$$$
