HCF.pdb
     RDKit          3D

 28 29  0  0  1  0  0  0  0  0999 V2000
    7.4990  -16.9217   20.0184 N   0  0  0  0  0  0  0  0  0  0  0  0
    7.4510  -15.8183   20.9196 C   0  0  1  0  0  0  0  0  0  0  0  0
    6.6323  -14.6612   20.3992 C   0  0  0  0  0  0  0  0  0  0  0  0
    7.2997  -14.1201   19.1975 C   0  0  0  0  0  0  0  0  0  0  0  0
    7.9919  -12.9072   19.1641 C   0  0  0  0  0  0  0  0  0  0  0  0
    8.4580  -12.7581   17.8994 N   0  0  0  0  0  0  0  0  0  0  0  0
    8.0883  -13.8092   17.1668 C   0  0  0  0  0  0  0  0  0  0  0  0
    7.3910  -14.6173   17.9707 N   0  0  0  0  0  0  0  0  0  0  0  0
    6.9607  -16.1834   22.2687 C   0  0  0  0  0  0  0  0  0  0  0  0
    5.8489  -16.7359   22.4647 O   0  0  0  0  0  0  0  0  0  0  0  0
    7.7810  -15.8971   23.3912 N   0  0  0  0  0  0  0  0  0  0  0  0
    7.6350  -16.7075   24.5849 C   0  0  1  0  0  0  0  0  0  0  0  0
    7.7555  -18.1846   24.2954 C   0  0  0  0  0  0  0  0  0  0  0  0
    7.6462  -19.1680   25.8142 S   0  0  0  0  0  0  0  0  0  0  0  0
    8.7416  -16.3537   25.5173 C   0  0  0  0  0  0  0  0  0  0  0  0
    9.9493  -16.3520   25.1652 O   0  0  0  0  0  0  0  0  0  0  0  0
    8.4583  -15.9995   26.8627 N   0  0  0  0  0  0  0  0  0  0  0  0
    9.5230  -15.5087   27.7130 C   0  0  1  0  0  0  0  0  0  0  0  0
    8.9863  -14.3027   28.4378 C   0  0  0  0  0  0  0  0  0  0  0  0
    8.1618  -13.4172   27.6146 C   0  0  0  0  0  0  0  0  0  0  0  0
    6.7869  -13.3816   27.6562 C   0  0  0  0  0  0  0  0  0  0  0  0
    6.0709  -12.5358   26.8678 C   0  0  0  0  0  0  0  0  0  0  0  0
    6.7102  -11.6742   25.9885 C   0  0  0  0  0  0  0  0  0  0  0  0
    8.0780  -11.6937   25.9315 C   0  0  0  0  0  0  0  0  0  0  0  0
    8.7931  -12.5587   26.7389 C   0  0  0  0  0  0  0  0  0  0  0  0
   10.0056  -16.5760   28.5987 C   0  0  0  0  0  0  0  0  0  0  0  0
   10.9317  -16.3241   29.4084 O   0  0  0  0  0  0  0  0  0  0  0  0
    9.4908  -17.8634   28.5929 O   0  0  0  0  0  0  0  0  0  0  0  0
  2  1  1  6
  3  4  1  0
  3  2  1  0
  4  5  2  0
  5  6  1  0
  7  6  1  0
  8  4  1  0
  8  7  2  0
  9  2  1  0
  9 10  2  0
 11  9  1  0
 12 11  1  0
 12 15  1  0
 12 13  1  6
 14 13  1  0
 15 17  1  0
 16 15  2  0
 17 18  1  0
 18 26  1  0
 19 20  1  0
 18 19  1  1
 20 25  1  0
 21 20  2  0
 21 22  1  0
 22 23  2  0
 23 24  1  0
 25 24  2  0
 26 27  2  0
 26 28  1  0
M  END
$$$$
