HCF.pdb
     RDKit          3D

 28 29  0  0  1  0  0  0  0  0999 V2000
    6.5946  -18.4873   18.9822 N   0  0  0  0  0  0  0  0  0  0  0  0
    7.0538  -17.2731   19.5712 C   0  0  1  0  0  0  0  0  0  0  0  0
    6.5557  -16.0401   18.8560 C   0  0  0  0  0  0  0  0  0  0  0  0
    7.2828  -15.9172   17.5759 C   0  0  0  0  0  0  0  0  0  0  0  0
    8.3703  -16.7148   17.2122 C   0  0  0  0  0  0  0  0  0  0  0  0
    8.7611  -16.3043   15.9802 N   0  0  0  0  0  0  0  0  0  0  0  0
    7.9739  -15.3060   15.5782 C   0  0  0  0  0  0  0  0  0  0  0  0
    7.0899  -15.0898   16.5567 N   0  0  0  0  0  0  0  0  0  0  0  0
    6.7240  -17.1578   21.0106 C   0  0  0  0  0  0  0  0  0  0  0  0
    5.5432  -17.1180   21.4395 O   0  0  0  0  0  0  0  0  0  0  0  0
    7.7871  -17.0886   21.9486 N   0  0  0  0  0  0  0  0  0  0  0  0
    7.4662  -16.9371   23.3547 C   0  0  1  0  0  0  0  0  0  0  0  0
    7.1547  -18.2570   24.0189 C   0  0  0  0  0  0  0  0  0  0  0  0
    8.5335  -19.4221   23.8552 S   0  0  0  0  0  0  0  0  0  0  0  0
    8.6635  -16.3752   24.0401 C   0  0  0  0  0  0  0  0  0  0  0  0
    9.6229  -15.8581   23.4120 O   0  0  0  0  0  0  0  0  0  0  0  0
    8.7586  -16.4080   25.4564 N   0  0  0  0  0  0  0  0  0  0  0  0
    9.8974  -15.7985   26.1115 C   0  0  1  0  0  0  0  0  0  0  0  0
   10.0037  -14.3903   25.5885 C   0  0  0  0  0  0  0  0  0  0  0  0
    8.8614  -13.5349   25.9123 C   0  0  0  0  0  0  0  0  0  0  0  0
    7.6250  -13.6390   25.3176 C   0  0  0  0  0  0  0  0  0  0  0  0
    6.5973  -12.8163   25.6594 C   0  0  0  0  0  0  0  0  0  0  0  0
    6.7649  -11.8371   26.6274 C   0  0  0  0  0  0  0  0  0  0  0  0
    7.9876  -11.7166   27.2316 C   0  0  0  0  0  0  0  0  0  0  0  0
    9.0233  -12.5598   26.8742 C   0  0  0  0  0  0  0  0  0  0  0  0
    9.7584  -15.8882   27.5707 C   0  0  0  0  0  0  0  0  0  0  0  0
    8.7071  -16.3761   28.0540 O   0  0  0  0  0  0  0  0  0  0  0  0
   10.7338  -15.4598   28.4579 O   0  0  0  0  0  0  0  0  0  0  0  0
  2  1  1  6
  3  4  1  0
  3  2  1  0
  4  5  2  0
  5  6  1  0
  7  6  1  0
  8  4  1  0
  8  7  2  0
  9  2  1  0
  9 10  2  0
 11  9  1  0
 12 11  1  0
 12 15  1  0
 12 13  1  1
 14 13  1  0
 15 17  1  0
 16 15  2  0
 17 18  1  0
 18 26  1  0
 19 20  1  0
 18 19  1  1
 20 25  1  0
 21 20  2  0
 21 22  1  0
 22 23  2  0
 23 24  1  0
 25 24  2  0
 26 27  2  0
 26 28  1  0
M  END
$$$$
