HCF.pdb
     RDKit          3D

 28 29  0  0  1  0  0  0  0  0999 V2000
   10.3624  -14.6914   19.7521 N   0  0  0  0  0  0  0  0  0  0  0  0
    9.5793  -13.8098   20.5531 C   0  0  1  0  0  0  0  0  0  0  0  0
    8.6626  -12.9260   19.7417 C   0  0  0  0  0  0  0  0  0  0  0  0
    8.2950  -13.6453   18.5048 C   0  0  0  0  0  0  0  0  0  0  0  0
    7.4612  -13.1239   17.5128 C   0  0  0  0  0  0  0  0  0  0  0  0
    7.3634  -14.0708   16.5471 N   0  0  0  0  0  0  0  0  0  0  0  0
    8.0888  -15.1335   16.8971 C   0  0  0  0  0  0  0  0  0  0  0  0
    8.6415  -14.8541   18.0811 N   0  0  0  0  0  0  0  0  0  0  0  0
    8.7800  -14.5091   21.5856 C   0  0  0  0  0  0  0  0  0  0  0  0
    7.9387  -13.9218   22.3115 O   0  0  0  0  0  0  0  0  0  0  0  0
    8.9714  -15.9041   21.7648 N   0  0  0  0  0  0  0  0  0  0  0  0
    8.1783  -16.5929   22.7646 C   0  0  1  0  0  0  0  0  0  0  0  0
    8.1938  -18.0913   22.5785 C   0  0  0  0  0  0  0  0  0  0  0  0
    7.0835  -18.9155   23.7506 S   0  0  0  0  0  0  0  0  0  0  0  0
    8.7786  -16.3125   24.0988 C   0  0  0  0  0  0  0  0  0  0  0  0
   10.0214  -16.2416   24.2809 O   0  0  0  0  0  0  0  0  0  0  0  0
    7.9454  -16.1123   25.2308 N   0  0  0  0  0  0  0  0  0  0  0  0
    8.5446  -15.8594   26.5249 C   0  0  1  0  0  0  0  0  0  0  0  0
    7.5226  -15.1176   27.3452 C   0  0  0  0  0  0  0  0  0  0  0  0
    7.1315  -13.8183   26.7970 C   0  0  0  0  0  0  0  0  0  0  0  0
    5.8337  -13.4564   26.5177 C   0  0  0  0  0  0  0  0  0  0  0  0
    5.5279  -12.2326   26.0094 C   0  0  0  0  0  0  0  0  0  0  0  0
    6.5242  -11.3018   25.7542 C   0  0  0  0  0  0  0  0  0  0  0  0
    7.8224  -11.6418   26.0251 C   0  0  0  0  0  0  0  0  0  0  0  0
    8.1187  -12.8896   26.5417 C   0  0  0  0  0  0  0  0  0  0  0  0
    9.0048  -17.1151   27.1314 C   0  0  0  0  0  0  0  0  0  0  0  0
    9.6201  -17.0742   28.2253 O   0  0  0  0  0  0  0  0  0  0  0  0
    8.7963  -18.3604   26.5586 O   0  0  0  0  0  0  0  0  0  0  0  0
  2  1  1  6
  3  4  1  0
  3  2  1  0
  4  5  2  0
  5  6  1  0
  7  6  1  0
  8  4  1  0
  8  7  2  0
  9  2  1  0
  9 10  2  0
 11  9  1  0
 12 11  1  0
 12 15  1  0
 12 13  1  6
 14 13  1  0
 15 17  1  0
 16 15  2  0
 17 18  1  0
 18 26  1  0
 19 20  1  0
 18 19  1  1
 20 25  1  0
 21 20  2  0
 21 22  1  0
 22 23  2  0
 23 24  1  0
 25 24  2  0
 26 27  2  0
 26 28  1  0
M  END
$$$$
