HCF.pdb
     RDKit          3D

 28 29  0  0  1  0  0  0  0  0999 V2000
    7.7560  -17.1570   19.0316 N   0  0  0  0  0  0  0  0  0  0  0  0
    7.9464  -16.0959   19.9643 C   0  0  1  0  0  0  0  0  0  0  0  0
    7.1512  -14.8577   19.6261 C   0  0  0  0  0  0  0  0  0  0  0  0
    7.7320  -14.2466   18.4130 C   0  0  0  0  0  0  0  0  0  0  0  0
    8.6706  -13.2122   18.4286 C   0  0  0  0  0  0  0  0  0  0  0  0
    8.9583  -12.9261   17.1347 N   0  0  0  0  0  0  0  0  0  0  0  0
    8.2490  -13.7266   16.3383 C   0  0  0  0  0  0  0  0  0  0  0  0
    7.5168  -14.5143   17.1314 N   0  0  0  0  0  0  0  0  0  0  0  0
    7.6547  -16.4850   21.3634 C   0  0  0  0  0  0  0  0  0  0  0  0
    6.5244  -16.8861   21.7390 O   0  0  0  0  0  0  0  0  0  0  0  0
    8.6965  -16.4017   22.3238 N   0  0  0  0  0  0  0  0  0  0  0  0
    8.4568  -16.9183   23.6575 C   0  0  1  0  0  0  0  0  0  0  0  0
    8.4879  -18.4273   23.7037 C   0  0  0  0  0  0  0  0  0  0  0  0
   10.0931  -19.0733   23.1638 S   0  0  0  0  0  0  0  0  0  0  0  0
    9.5528  -16.4318   24.5414 C   0  0  0  0  0  0  0  0  0  0  0  0
   10.7653  -16.4905   24.2115 O   0  0  0  0  0  0  0  0  0  0  0  0
    9.2533  -15.8744   25.8123 N   0  0  0  0  0  0  0  0  0  0  0  0
   10.3163  -15.2987   26.6100 C   0  0  1  0  0  0  0  0  0  0  0  0
   10.0912  -13.8099   26.6336 C   0  0  0  0  0  0  0  0  0  0  0  0
    8.7158  -13.4088   26.9319 C   0  0  0  0  0  0  0  0  0  0  0  0
    8.2971  -12.9332   28.1532 C   0  0  0  0  0  0  0  0  0  0  0  0
    7.0042  -12.5735   28.3738 C   0  0  0  0  0  0  0  0  0  0  0  0
    6.0579  -12.6757   27.3647 C   0  0  0  0  0  0  0  0  0  0  0  0
    6.4536  -13.1466   26.1416 C   0  0  0  0  0  0  0  0  0  0  0  0
    7.7714  -13.5086   25.9316 C   0  0  0  0  0  0  0  0  0  0  0  0
   10.3550  -15.9214   27.9393 C   0  0  0  0  0  0  0  0  0  0  0  0
   11.1801  -15.4991   28.7865 O   0  0  0  0  0  0  0  0  0  0  0  0
    9.5219  -16.9626   28.3187 O   0  0  0  0  0  0  0  0  0  0  0  0
  2  1  1  6
  3  4  1  0
  3  2  1  0
  4  5  2  0
  5  6  1  0
  7  6  1  0
  8  4  1  0
  8  7  2  0
  9  2  1  0
  9 10  2  0
 11  9  1  0
 12 11  1  0
 12 15  1  0
 12 13  1  6
 14 13  1  0
 15 17  1  0
 16 15  2  0
 17 18  1  0
 18 26  1  0
 19 20  1  0
 18 19  1  1
 20 25  1  0
 21 20  2  0
 21 22  1  0
 22 23  2  0
 23 24  1  0
 25 24  2  0
 26 27  2  0
 26 28  1  0
M  END
$$$$
