HCF.pdb
     RDKit          3D

 28 29  0  0  1  0  0  0  0  0999 V2000
    9.0317  -15.9556   20.1533 N   0  0  0  0  0  0  0  0  0  0  0  0
    8.2256  -15.0133   20.8563 C   0  0  1  0  0  0  0  0  0  0  0  0
    7.0242  -14.5526   20.0662 C   0  0  0  0  0  0  0  0  0  0  0  0
    7.4843  -14.1042   18.7360 C   0  0  0  0  0  0  0  0  0  0  0  0
    8.1720  -12.9104   18.5055 C   0  0  0  0  0  0  0  0  0  0  0  0
    8.4194  -12.8529   17.1734 N   0  0  0  0  0  0  0  0  0  0  0  0
    7.9218  -13.9414   16.5856 C   0  0  0  0  0  0  0  0  0  0  0  0
    7.3626  -14.6814   17.5474 N   0  0  0  0  0  0  0  0  0  0  0  0
    7.7706  -15.5014   22.1787 C   0  0  0  0  0  0  0  0  0  0  0  0
    6.8694  -14.9313   22.8438 O   0  0  0  0  0  0  0  0  0  0  0  0
    8.3782  -16.6642   22.7204 N   0  0  0  0  0  0  0  0  0  0  0  0
    7.9701  -17.1138   24.0374 C   0  0  1  0  0  0  0  0  0  0  0  0
    8.1059  -18.6086   24.2023 C   0  0  0  0  0  0  0  0  0  0  0  0
    9.8170  -19.1500   23.9485 S   0  0  0  0  0  0  0  0  0  0  0  0
    8.8734  -16.4803   25.0383 C   0  0  0  0  0  0  0  0  0  0  0  0
   10.0400  -16.1040   24.7552 O   0  0  0  0  0  0  0  0  0  0  0  0
    8.4333  -16.2781   26.3729 N   0  0  0  0  0  0  0  0  0  0  0  0
    9.2881  -15.5796   27.3105 C   0  0  1  0  0  0  0  0  0  0  0  0
    8.4262  -14.5728   28.0254 C   0  0  0  0  0  0  0  0  0  0  0  0
    7.8372  -13.5528   27.1570 C   0  0  0  0  0  0  0  0  0  0  0  0
    6.4847  -13.3367   27.0259 C   0  0  0  0  0  0  0  0  0  0  0  0
    5.9927  -12.3717   26.2033 C   0  0  0  0  0  0  0  0  0  0  0  0
    6.8471  -11.5674   25.4637 C   0  0  0  0  0  0  0  0  0  0  0  0
    8.1968  -11.7659   25.5796 C   0  0  0  0  0  0  0  0  0  0  0  0
    8.6829  -12.7505   26.4196 C   0  0  0  0  0  0  0  0  0  0  0  0
    9.9607  -16.5342   28.2008 C   0  0  0  0  0  0  0  0  0  0  0  0
    9.5791  -17.7305   28.2118 O   0  0  0  0  0  0  0  0  0  0  0  0
   11.0070  -16.1868   29.0415 O   0  0  0  0  0  0  0  0  0  0  0  0
  2  1  1  6
  3  4  1  0
  3  2  1  0
  4  5  2  0
  5  6  1  0
  7  6  1  0
  8  4  1  0
  8  7  2  0
  9  2  1  0
  9 10  2  0
 11  9  1  0
 12 11  1  0
 12 15  1  0
 12 13  1  6
 14 13  1  0
 15 17  1  0
 16 15  2  0
 17 18  1  0
 18 26  1  0
 19 20  1  0
 18 19  1  1
 20 25  1  0
 21 20  2  0
 21 22  1  0
 22 23  2  0
 23 24  1  0
 25 24  2  0
 26 27  2  0
 26 28  1  0
M  END
$$$$
