HCF.pdb
     RDKit          3D

 28 29  0  0  1  0  0  0  0  0999 V2000
    8.2421  -17.1380   18.8390 N   0  0  0  0  0  0  0  0  0  0  0  0
    8.2812  -16.1425   19.8586 C   0  0  1  0  0  0  0  0  0  0  0  0
    7.3523  -14.9822   19.5921 C   0  0  0  0  0  0  0  0  0  0  0  0
    7.7834  -14.3157   18.3462 C   0  0  0  0  0  0  0  0  0  0  0  0
    8.5347  -13.1388   18.3061 C   0  0  0  0  0  0  0  0  0  0  0  0
    8.7290  -12.8438   16.9968 N   0  0  0  0  0  0  0  0  0  0  0  0
    8.1395  -13.7730   16.2437 C   0  0  0  0  0  0  0  0  0  0  0  0
    7.5758  -14.6503   17.0791 N   0  0  0  0  0  0  0  0  0  0  0  0
    8.0035  -16.6772   21.2117 C   0  0  0  0  0  0  0  0  0  0  0  0
    6.9791  -17.3536   21.4816 O   0  0  0  0  0  0  0  0  0  0  0  0
    8.9340  -16.4149   22.2510 N   0  0  0  0  0  0  0  0  0  0  0  0
    8.7248  -17.0341   23.5455 C   0  0  1  0  0  0  0  0  0  0  0  0
    8.9605  -18.5253   23.5145 C   0  0  0  0  0  0  0  0  0  0  0  0
   10.5289  -18.9308   22.7012 S   0  0  0  0  0  0  0  0  0  0  0  0
    9.7151  -16.4553   24.4959 C   0  0  0  0  0  0  0  0  0  0  0  0
   10.9075  -16.2199   24.1715 O   0  0  0  0  0  0  0  0  0  0  0  0
    9.3325  -16.1451   25.8276 N   0  0  0  0  0  0  0  0  0  0  0  0
   10.3065  -15.5814   26.7393 C   0  0  1  0  0  0  0  0  0  0  0  0
   10.2282  -14.0844   26.5957 C   0  0  0  0  0  0  0  0  0  0  0  0
    8.8933  -13.5235   26.8076 C   0  0  0  0  0  0  0  0  0  0  0  0
    7.8175  -13.7555   25.9817 C   0  0  0  0  0  0  0  0  0  0  0  0
    6.5973  -13.2079   26.2285 C   0  0  0  0  0  0  0  0  0  0  0  0
    6.3970  -12.3904   27.3311 C   0  0  0  0  0  0  0  0  0  0  0  0
    7.4545  -12.1467   28.1658 C   0  0  0  0  0  0  0  0  0  0  0  0
    8.6893  -12.7101   27.9027 C   0  0  0  0  0  0  0  0  0  0  0  0
   10.0716  -16.0668   28.1052 C   0  0  0  0  0  0  0  0  0  0  0  0
    9.0945  -16.8248   28.3231 O   0  0  0  0  0  0  0  0  0  0  0  0
   10.8771  -15.7322   29.1829 O   0  0  0  0  0  0  0  0  0  0  0  0
  2  1  1  6
  3  4  1  0
  3  2  1  0
  4  5  2  0
  5  6  1  0
  7  6  1  0
  8  4  1  0
  8  7  2  0
  9  2  1  0
  9 10  2  0
 11  9  1  0
 12 11  1  0
 12 15  1  0
 12 13  1  6
 14 13  1  0
 15 17  1  0
 16 15  2  0
 17 18  1  0
 18 26  1  0
 19 20  1  0
 18 19  1  1
 20 25  1  0
 21 20  2  0
 21 22  1  0
 22 23  2  0
 23 24  1  0
 25 24  2  0
 26 27  2  0
 26 28  1  0
M  END
$$$$
