HCF.pdb
     RDKit          3D

 28 29  0  0  1  0  0  0  0  0999 V2000
    8.2525  -16.4335   20.1512 N   0  0  0  0  0  0  0  0  0  0  0  0
    7.8274  -15.3430   20.9650 C   0  0  1  0  0  0  0  0  0  0  0  0
    6.7728  -14.4861   20.3067 C   0  0  0  0  0  0  0  0  0  0  0  0
    7.2459  -14.1185   18.9564 C   0  0  0  0  0  0  0  0  0  0  0  0
    8.0151  -12.9867   18.6762 C   0  0  0  0  0  0  0  0  0  0  0  0
    8.2477  -12.9934   17.3402 N   0  0  0  0  0  0  0  0  0  0  0  0
    7.6645  -14.0624   16.7968 C   0  0  0  0  0  0  0  0  0  0  0  0
    7.0665  -14.7260   17.7905 N   0  0  0  0  0  0  0  0  0  0  0  0
    7.3398  -15.7619   22.2994 C   0  0  0  0  0  0  0  0  0  0  0  0
    6.7850  -14.9705   23.1029 O   0  0  0  0  0  0  0  0  0  0  0  0
    7.5057  -17.1164   22.6899 N   0  0  0  0  0  0  0  0  0  0  0  0
    7.2415  -17.4809   24.0685 C   0  0  1  0  0  0  0  0  0  0  0  0
    6.9332  -18.9508   24.2256 C   0  0  0  0  0  0  0  0  0  0  0  0
    6.9274  -19.4432   25.9700 S   0  0  0  0  0  0  0  0  0  0  0  0
    8.4736  -17.2063   24.8594 C   0  0  0  0  0  0  0  0  0  0  0  0
    9.6075  -17.6288   24.5152 O   0  0  0  0  0  0  0  0  0  0  0  0
    8.4021  -16.4413   26.0533 N   0  0  0  0  0  0  0  0  0  0  0  0
    9.6179  -16.1224   26.7730 C   0  0  1  0  0  0  0  0  0  0  0  0
    9.8880  -14.6575   26.5521 C   0  0  0  0  0  0  0  0  0  0  0  0
    8.7334  -13.7869   26.7767 C   0  0  0  0  0  0  0  0  0  0  0  0
    7.6652  -13.6825   25.9158 C   0  0  0  0  0  0  0  0  0  0  0  0
    6.6166  -12.8564   26.1766 C   0  0  0  0  0  0  0  0  0  0  0  0
    6.5910  -12.0858   27.3296 C   0  0  0  0  0  0  0  0  0  0  0  0
    7.6442  -12.1748   28.1999 C   0  0  0  0  0  0  0  0  0  0  0  0
    8.7034  -13.0188   27.9220 C   0  0  0  0  0  0  0  0  0  0  0  0
    9.4928  -16.5036   28.1856 C   0  0  0  0  0  0  0  0  0  0  0  0
    8.4080  -16.9878   28.5926 O   0  0  0  0  0  0  0  0  0  0  0  0
   10.5170  -16.3582   29.1087 O   0  0  0  0  0  0  0  0  0  0  0  0
  2  1  1  6
  3  4  1  0
  3  2  1  0
  4  5  2  0
  5  6  1  0
  7  6  1  0
  8  4  1  0
  8  7  2  0
  9  2  1  0
  9 10  2  0
 11  9  1  0
 12 11  1  0
 12 15  1  0
 12 13  1  6
 14 13  1  0
 15 17  1  0
 16 15  2  0
 17 18  1  0
 18 26  1  0
 19 20  1  0
 18 19  1  1
 20 25  1  0
 21 20  2  0
 21 22  1  0
 22 23  2  0
 23 24  1  0
 25 24  2  0
 26 27  2  0
 26 28  1  0
M  END
$$$$
