HCF.pdb
     RDKit          3D

 28 29  0  0  1  0  0  0  0  0999 V2000
    5.5944  -19.8417   19.0165 N   0  0  0  0  0  0  0  0  0  0  0  0
    6.3853  -18.7438   19.4648 C   0  0  1  0  0  0  0  0  0  0  0  0
    6.2996  -17.5400   18.5574 C   0  0  0  0  0  0  0  0  0  0  0  0
    7.2265  -17.7420   17.4249 C   0  0  0  0  0  0  0  0  0  0  0  0
    8.0215  -18.8779   17.2554 C   0  0  0  0  0  0  0  0  0  0  0  0
    8.7270  -18.6940   16.1121 N   0  0  0  0  0  0  0  0  0  0  0  0
    8.4052  -17.5141   15.5808 C   0  0  0  0  0  0  0  0  0  0  0  0
    7.4987  -16.9579   16.3897 N   0  0  0  0  0  0  0  0  0  0  0  0
    6.0729  -18.3225   20.8500 C   0  0  0  0  0  0  0  0  0  0  0  0
    4.9077  -18.3344   21.3209 O   0  0  0  0  0  0  0  0  0  0  0  0
    7.1351  -17.8853   21.6839 N   0  0  0  0  0  0  0  0  0  0  0  0
    6.8508  -17.5862   23.0742 C   0  0  1  0  0  0  0  0  0  0  0  0
    6.3454  -18.7918   23.8300 C   0  0  0  0  0  0  0  0  0  0  0  0
    7.5943  -20.1038   23.8951 S   0  0  0  0  0  0  0  0  0  0  0  0
    8.1247  -17.1670   23.7226 C   0  0  0  0  0  0  0  0  0  0  0  0
    9.2368  -17.6707   23.4191 O   0  0  0  0  0  0  0  0  0  0  0  0
    8.1205  -16.1627   24.7261 N   0  0  0  0  0  0  0  0  0  0  0  0
    9.3763  -15.6912   25.2723 C   0  0  1  0  0  0  0  0  0  0  0  0
    9.4139  -14.2002   25.0647 C   0  0  0  0  0  0  0  0  0  0  0  0
    8.3276  -13.4690   25.7179 C   0  0  0  0  0  0  0  0  0  0  0  0
    7.0523  -13.3648   25.2118 C   0  0  0  0  0  0  0  0  0  0  0  0
    6.0803  -12.6721   25.8637 C   0  0  0  0  0  0  0  0  0  0  0  0
    6.3465  -12.0427   27.0708 C   0  0  0  0  0  0  0  0  0  0  0  0
    7.6092  -12.1341   27.5921 C   0  0  0  0  0  0  0  0  0  0  0  0
    8.5875  -12.8416   26.9184 C   0  0  0  0  0  0  0  0  0  0  0  0
    9.5138  -16.1059   26.6743 C   0  0  0  0  0  0  0  0  0  0  0  0
   10.5533  -15.7904   27.3041 O   0  0  0  0  0  0  0  0  0  0  0  0
    8.5493  -16.8355   27.3524 O   0  0  0  0  0  0  0  0  0  0  0  0
  2  1  1  6
  3  4  1  0
  3  2  1  0
  4  5  2  0
  5  6  1  0
  7  6  1  0
  8  4  1  0
  8  7  2  0
  9  2  1  0
  9 10  2  0
 11  9  1  0
 12 11  1  0
 12 15  1  0
 12 13  1  1
 14 13  1  0
 15 17  1  0
 16 15  2  0
 17 18  1  0
 18 26  1  0
 19 20  1  0
 18 19  1  1
 20 25  1  0
 21 20  2  0
 21 22  1  0
 22 23  2  0
 23 24  1  0
 25 24  2  0
 26 27  2  0
 26 28  1  0
M  END
$$$$
