HKQ.pdb
     RDKit          3D

 29 29  0  0  1  0  0  0  0  0999 V2000
   11.2270  -17.2681   17.2046 N   0  0  0  0  0  0  0  0  0  0  0  0
   10.1550  -17.6213   18.1131 C   0  0  1  0  0  0  0  0  0  0  0  0
   10.2493  -19.1060   18.3615 C   0  0  0  0  0  0  0  0  0  0  0  0
    9.5179  -19.8000   17.2614 C   0  0  0  0  0  0  0  0  0  0  0  0
    8.7908  -19.2465   16.2385 C   0  0  0  0  0  0  0  0  0  0  0  0
    8.3057  -20.2385   15.4785 N   0  0  0  0  0  0  0  0  0  0  0  0
    8.7141  -21.4156   16.0036 C   0  0  0  0  0  0  0  0  0  0  0  0
    9.4481  -21.1372   17.0838 N   0  0  0  0  0  0  0  0  0  0  0  0
   10.2780  -16.8793   19.4043 C   0  0  0  0  0  0  0  0  0  0  0  0
   11.3400  -16.9285   20.0343 O   0  0  0  0  0  0  0  0  0  0  0  0
    9.2165  -16.1308   19.9143 N   0  0  0  0  0  0  0  0  0  0  0  0
    9.0669  -15.4497   21.1304 C   0  0  1  0  0  0  0  0  0  0  0  0
    7.8512  -14.6008   21.3637 C   0  0  0  0  0  0  0  0  0  0  0  0
    7.7914  -13.3960   20.4519 C   0  0  0  0  0  0  0  0  0  0  0  0
    7.6955  -13.7115   19.0006 C   0  0  0  0  0  0  0  0  0  0  0  0
    7.6059  -12.5757   18.0606 C   0  0  0  0  0  0  0  0  0  0  0  0
    7.4836  -13.0210   16.7117 N   0  0  0  0  0  0  0  0  0  0  0  0
    9.3333  -16.2850   22.2915 C   0  0  0  0  0  0  0  0  0  0  0  0
    8.8002  -17.4522   22.3006 O   0  0  0  0  0  0  0  0  0  0  0  0
   12.4098  -20.0252   23.1680 N   0  0  0  0  0  0  0  0  0  0  0  0
   12.9088  -19.6588   24.4724 C   0  0  0  0  0  0  0  0  0  0  0  0
   13.5021  -20.5351   25.1338 O   0  0  0  0  0  0  0  0  0  0  0  0
   12.6979  -18.3025   24.9584 C   0  0  0  0  0  0  0  0  0  0  0  0
   12.0099  -17.3158   24.0804 C   0  0  0  0  0  0  0  0  0  0  0  0
   10.5917  -16.9885   24.3823 C   0  0  2  0  0  0  0  0  0  0  0  0
   10.1077  -15.9730   23.4142 N   0  0  0  0  0  0  0  0  0  0  0  0
   10.3769  -16.3849   25.7076 C   0  0  0  0  0  0  0  0  0  0  0  0
   10.2693  -15.1357   25.9149 O   0  0  0  0  0  0  0  0  0  0  0  0
   10.2671  -17.1942   26.8619 O   0  0  0  0  0  0  0  0  0  0  0  0
  2  1  1  6
  3  4  1  0
  3  2  1  0
  4  5  2  0
  5  6  1  0
  7  6  1  0
  8  4  1  0
  8  7  2  0
  9  2  1  0
  9 10  2  0
 11  9  1  0
 12 11  1  0
 13 14  1  0
 12 13  1  1
 14 15  1  0
 15 16  1  0
 16 17  1  0
 18 19  2  0
 18 12  1  0
 20 21  1  0
 21 22  2  0
 23 21  1  0
 23 24  1  0
 25 24  1  6
 25 27  1  0
 25 26  1  0
 26 18  1  0
 27 29  1  0
 28 27  2  0
M  END
$$$$
