HKQ.pdb
     RDKit          3D

 29 29  0  0  1  0  0  0  0  0999 V2000
    6.5643  -20.1179   22.9380 N   0  0  0  0  0  0  0  0  0  0  0  0
    6.5517  -18.9063   23.7325 C   0  0  1  0  0  0  0  0  0  0  0  0
    6.8350  -19.3037   25.1597 C   0  0  0  0  0  0  0  0  0  0  0  0
    5.9012  -20.4108   25.5189 C   0  0  0  0  0  0  0  0  0  0  0  0
    4.9534  -21.0161   24.7336 C   0  0  0  0  0  0  0  0  0  0  0  0
    4.3424  -21.9623   25.4604 N   0  0  0  0  0  0  0  0  0  0  0  0
    4.8882  -21.9677   26.6974 C   0  0  0  0  0  0  0  0  0  0  0  0
    5.8319  -21.0231   26.7210 N   0  0  0  0  0  0  0  0  0  0  0  0
    7.5880  -17.9406   23.2568 C   0  0  0  0  0  0  0  0  0  0  0  0
    8.7224  -18.3504   22.9880 O   0  0  0  0  0  0  0  0  0  0  0  0
    7.3006  -16.5830   23.1095 N   0  0  0  0  0  0  0  0  0  0  0  0
    8.0998  -15.5098   22.6916 C   0  0  1  0  0  0  0  0  0  0  0  0
    7.4665  -14.3295   22.0143 C   0  0  0  0  0  0  0  0  0  0  0  0
    7.0358  -14.6268   20.5956 C   0  0  0  0  0  0  0  0  0  0  0  0
    7.5720  -13.6929   19.5682 C   0  0  0  0  0  0  0  0  0  0  0  0
    7.1509  -13.9047   18.1684 C   0  0  0  0  0  0  0  0  0  0  0  0
    7.5892  -12.8431   17.3236 N   0  0  0  0  0  0  0  0  0  0  0  0
    9.0416  -15.0667   23.7082 C   0  0  0  0  0  0  0  0  0  0  0  0
    8.6308  -14.1678   24.5266 O   0  0  0  0  0  0  0  0  0  0  0  0
    9.2667  -14.5075   29.2167 N   0  0  0  0  0  0  0  0  0  0  0  0
   10.3890  -15.3434   28.8610 C   0  0  0  0  0  0  0  0  0  0  0  0
   10.7017  -16.2604   29.6476 O   0  0  0  0  0  0  0  0  0  0  0  0
   11.1035  -15.0830   27.6193 C   0  0  0  0  0  0  0  0  0  0  0  0
   10.4027  -15.2906   26.3217 C   0  0  0  0  0  0  0  0  0  0  0  0
   11.1837  -15.0956   25.0721 C   0  0  2  0  0  0  0  0  0  0  0  0
   10.3557  -15.5027   23.9096 N   0  0  0  0  0  0  0  0  0  0  0  0
   12.3998  -15.9200   24.9815 C   0  0  0  0  0  0  0  0  0  0  0  0
   13.0095  -16.4069   25.9846 O   0  0  0  0  0  0  0  0  0  0  0  0
   12.9706  -16.2316   23.7258 O   0  0  0  0  0  0  0  0  0  0  0  0
  2  1  1  6
  3  4  1  0
  3  2  1  0
  4  5  2  0
  5  6  1  0
  7  6  1  0
  8  4  1  0
  8  7  2  0
  9  2  1  0
  9 10  2  0
 11  9  1  0
 12 11  1  0
 13 14  1  0
 12 13  1  1
 14 15  1  0
 15 16  1  0
 16 17  1  0
 18 19  2  0
 18 12  1  0
 20 21  1  0
 21 22  2  0
 23 21  1  0
 23 24  1  0
 25 24  1  1
 25 27  1  0
 25 26  1  0
 26 18  1  0
 27 29  1  0
 28 27  2  0
M  END
$$$$
