HKQ.pdb
     RDKit          3D

 29 29  0  0  1  0  0  0  0  0999 V2000
   12.3884  -18.1071   19.4094 N   0  0  0  0  0  0  0  0  0  0  0  0
   12.9625  -18.4884   20.6839 C   0  0  1  0  0  0  0  0  0  0  0  0
   14.1369  -17.5764   20.9369 C   0  0  0  0  0  0  0  0  0  0  0  0
   15.2428  -17.9933   20.0260 C   0  0  0  0  0  0  0  0  0  0  0  0
   15.3305  -19.1218   19.2513 C   0  0  0  0  0  0  0  0  0  0  0  0
   16.4967  -19.0930   18.5911 N   0  0  0  0  0  0  0  0  0  0  0  0
   17.1525  -17.9617   18.9348 C   0  0  0  0  0  0  0  0  0  0  0  0
   16.3829  -17.3032   19.8050 N   0  0  0  0  0  0  0  0  0  0  0  0
   11.9632  -18.3511   21.7864 C   0  0  0  0  0  0  0  0  0  0  0  0
   11.4818  -17.2405   22.0350 O   0  0  0  0  0  0  0  0  0  0  0  0
   11.5618  -19.4532   22.5424 N   0  0  0  0  0  0  0  0  0  0  0  0
   10.6777  -19.5578   23.6253 C   0  0  1  0  0  0  0  0  0  0  0  0
   10.0667  -20.8868   23.9618 C   0  0  0  0  0  0  0  0  0  0  0  0
    9.1652  -20.8294   25.1745 C   0  0  0  0  0  0  0  0  0  0  0  0
    8.5758  -22.1343   25.5806 C   0  0  0  0  0  0  0  0  0  0  0  0
    7.5747  -22.1217   26.6665 C   0  0  0  0  0  0  0  0  0  0  0  0
    7.0709  -23.4293   26.9292 N   0  0  0  0  0  0  0  0  0  0  0  0
   11.1669  -18.9043   24.8296 C   0  0  0  0  0  0  0  0  0  0  0  0
   12.3855  -19.1338   25.1595 O   0  0  0  0  0  0  0  0  0  0  0  0
    8.8087  -13.7869   27.9163 N   0  0  0  0  0  0  0  0  0  0  0  0
    9.9400  -14.1684   28.7283 C   0  0  0  0  0  0  0  0  0  0  0  0
   10.2030  -13.4641   29.7244 O   0  0  0  0  0  0  0  0  0  0  0  0
   10.7201  -15.3397   28.3544 C   0  0  0  0  0  0  0  0  0  0  0  0
   10.3147  -16.1302   27.1591 C   0  0  0  0  0  0  0  0  0  0  0  0
   11.0919  -17.3570   26.8421 C   0  0  2  0  0  0  0  0  0  0  0  0
   10.4679  -18.0454   25.6848 N   0  0  0  0  0  0  0  0  0  0  0  0
   11.1085  -18.3602   27.9191 C   0  0  0  0  0  0  0  0  0  0  0  0
   10.2010  -19.2318   28.0980 O   0  0  0  0  0  0  0  0  0  0  0  0
   12.1792  -18.4141   28.8411 O   0  0  0  0  0  0  0  0  0  0  0  0
  2  1  1  6
  3  4  1  0
  3  2  1  0
  4  5  2  0
  5  6  1  0
  7  6  1  0
  8  4  1  0
  8  7  2  0
  9  2  1  0
  9 10  2  0
 11  9  1  0
 12 11  1  0
 13 14  1  0
 12 13  1  1
 14 15  1  0
 15 16  1  0
 16 17  1  0
 18 19  2  0
 18 12  1  0
 20 21  1  0
 21 22  2  0
 23 21  1  0
 23 24  1  0
 25 24  1  1
 25 27  1  0
 25 26  1  0
 26 18  1  0
 27 29  1  0
 28 27  2  0
M  END
$$$$
