HKQ.pdb
     RDKit          3D

 29 29  0  0  1  0  0  0  0  0999 V2000
    7.0779  -13.5508   18.2111 N   0  0  0  0  0  0  0  0  0  0  0  0
    8.0174  -14.5621   18.6514 C   0  0  1  0  0  0  0  0  0  0  0  0
    9.4043  -14.0231   18.4039 C   0  0  0  0  0  0  0  0  0  0  0  0
    9.8281  -14.4624   17.0423 C   0  0  0  0  0  0  0  0  0  0  0  0
    9.2656  -14.1491   15.8311 C   0  0  0  0  0  0  0  0  0  0  0  0
    9.9676  -14.7611   14.8670 N   0  0  0  0  0  0  0  0  0  0  0  0
   10.9690  -15.4596   15.4477 C   0  0  0  0  0  0  0  0  0  0  0  0
   10.8744  -15.2710   16.7663 N   0  0  0  0  0  0  0  0  0  0  0  0
    7.8397  -14.8652   20.1038 C   0  0  0  0  0  0  0  0  0  0  0  0
    7.4159  -13.9850   20.8605 O   0  0  0  0  0  0  0  0  0  0  0  0
    8.1430  -16.1239   20.6241 N   0  0  0  0  0  0  0  0  0  0  0  0
    7.9504  -16.6658   21.9026 C   0  0  1  0  0  0  0  0  0  0  0  0
    7.9642  -18.1549   22.0899 C   0  0  0  0  0  0  0  0  0  0  0  0
    6.5872  -18.7724   21.9945 C   0  0  0  0  0  0  0  0  0  0  0  0
    6.4038  -19.7259   20.8666 C   0  0  0  0  0  0  0  0  0  0  0  0
    5.0907  -20.3908   20.7427 C   0  0  0  0  0  0  0  0  0  0  0  0
    5.0503  -21.2641   19.6164 N   0  0  0  0  0  0  0  0  0  0  0  0
    8.7553  -16.0178   22.9268 C   0  0  0  0  0  0  0  0  0  0  0  0
    9.9975  -15.8376   22.6601 O   0  0  0  0  0  0  0  0  0  0  0  0
    6.4557  -10.8639   26.0253 N   0  0  0  0  0  0  0  0  0  0  0  0
    6.7938  -12.2228   26.3772 C   0  0  0  0  0  0  0  0  0  0  0  0
    6.2844  -12.6979   27.4126 O   0  0  0  0  0  0  0  0  0  0  0  0
    7.7065  -12.9714   25.5246 C   0  0  0  0  0  0  0  0  0  0  0  0
    8.4849  -14.0988   26.1085 C   0  0  0  0  0  0  0  0  0  0  0  0
    9.2624  -14.9600   25.1793 C   0  0  2  0  0  0  0  0  0  0  0  0
    8.3411  -15.5596   24.1822 N   0  0  0  0  0  0  0  0  0  0  0  0
    9.9245  -16.1057   25.8242 C   0  0  0  0  0  0  0  0  0  0  0  0
   10.9196  -16.0073   26.6085 O   0  0  0  0  0  0  0  0  0  0  0  0
    9.4658  -17.4248   25.6028 O   0  0  0  0  0  0  0  0  0  0  0  0
  2  1  1  1
  3  4  1  0
  3  2  1  0
  4  5  2  0
  5  6  1  0
  7  6  1  0
  8  4  1  0
  8  7  2  0
  9  2  1  0
  9 10  2  0
 11  9  1  0
 12 11  1  0
 13 14  1  0
 12 13  1  6
 14 15  1  0
 15 16  1  0
 16 17  1  0
 18 19  2  0
 18 12  1  0
 20 21  1  0
 21 22  2  0
 23 21  1  0
 23 24  1  0
 25 24  1  1
 25 27  1  0
 25 26  1  0
 26 18  1  0
 27 29  1  0
 28 27  2  0
M  END
$$$$
