HKQ.pdb
     RDKit          3D

 29 29  0  0  1  0  0  0  0  0999 V2000
    9.4862  -18.9962   19.1405 N   0  0  0  0  0  0  0  0  0  0  0  0
   10.4061  -18.2948   20.0129 C   0  0  1  0  0  0  0  0  0  0  0  0
   10.7704  -16.9995   19.3312 C   0  0  0  0  0  0  0  0  0  0  0  0
   11.6536  -17.3259   18.1736 C   0  0  0  0  0  0  0  0  0  0  0  0
   12.8115  -18.0612   18.1645 C   0  0  0  0  0  0  0  0  0  0  0  0
   13.2776  -18.1020   16.9084 N   0  0  0  0  0  0  0  0  0  0  0  0
   12.4325  -17.4029   16.1178 C   0  0  0  0  0  0  0  0  0  0  0  0
   11.4520  -16.9372   16.8957 N   0  0  0  0  0  0  0  0  0  0  0  0
    9.7801  -18.0140   21.3404 C   0  0  0  0  0  0  0  0  0  0  0  0
    9.6515  -16.8438   21.7159 O   0  0  0  0  0  0  0  0  0  0  0  0
    9.3369  -19.0479   22.1661 N   0  0  0  0  0  0  0  0  0  0  0  0
    8.7333  -19.0254   23.4311 C   0  0  1  0  0  0  0  0  0  0  0  0
    7.9215  -20.2016   23.8897 C   0  0  0  0  0  0  0  0  0  0  0  0
    6.7575  -20.5059   22.9738 C   0  0  0  0  0  0  0  0  0  0  0  0
    5.9830  -21.7266   23.3276 C   0  0  0  0  0  0  0  0  0  0  0  0
    4.7575  -22.0051   22.5516 C   0  0  0  0  0  0  0  0  0  0  0  0
    4.2112  -23.2815   22.8760 N   0  0  0  0  0  0  0  0  0  0  0  0
    9.6323  -18.5862   24.4874 C   0  0  0  0  0  0  0  0  0  0  0  0
   10.8208  -19.0700   24.4755 O   0  0  0  0  0  0  0  0  0  0  0  0
   11.3403  -12.9535   28.4782 N   0  0  0  0  0  0  0  0  0  0  0  0
   10.4522  -14.0639   28.7293 C   0  0  0  0  0  0  0  0  0  0  0  0
    9.4269  -13.8454   29.4063 O   0  0  0  0  0  0  0  0  0  0  0  0
   10.7868  -15.3762   28.1943 C   0  0  0  0  0  0  0  0  0  0  0  0
    9.9747  -15.9329   27.0769 C   0  0  0  0  0  0  0  0  0  0  0  0
   10.3819  -17.2451   26.5096 C   0  0  2  0  0  0  0  0  0  0  0  0
    9.3619  -17.6908   25.5280 N   0  0  0  0  0  0  0  0  0  0  0  0
   10.4629  -18.3342   27.4966 C   0  0  0  0  0  0  0  0  0  0  0  0
    9.4751  -19.0493   27.8544 O   0  0  0  0  0  0  0  0  0  0  0  0
   11.6918  -18.6592   28.1160 O   0  0  0  0  0  0  0  0  0  0  0  0
  2  1  1  6
  3  4  1  0
  3  2  1  0
  4  5  2  0
  5  6  1  0
  7  6  1  0
  8  4  1  0
  8  7  2  0
  9  2  1  0
  9 10  2  0
 11  9  1  0
 12 11  1  0
 13 14  1  0
 12 13  1  1
 14 15  1  0
 15 16  1  0
 16 17  1  0
 18 19  2  0
 18 12  1  0
 20 21  1  0
 21 22  2  0
 23 21  1  0
 23 24  1  0
 25 24  1  1
 25 27  1  0
 25 26  1  0
 26 18  1  0
 27 29  1  0
 28 27  2  0
M  END
$$$$
