HKQ.pdb
     RDKit          3D

 29 29  0  0  1  0  0  0  0  0999 V2000
    8.2414  -16.3163   19.9384 N   0  0  0  0  0  0  0  0  0  0  0  0
    7.9184  -15.1866   20.7861 C   0  0  1  0  0  0  0  0  0  0  0  0
    6.8096  -14.4206   20.1086 C   0  0  0  0  0  0  0  0  0  0  0  0
    7.2942  -14.0173   18.7561 C   0  0  0  0  0  0  0  0  0  0  0  0
    8.4840  -14.3280   18.1483 C   0  0  0  0  0  0  0  0  0  0  0  0
    8.5026  -13.7561   16.9362 N   0  0  0  0  0  0  0  0  0  0  0  0
    7.3412  -13.0856   16.7640 C   0  0  0  0  0  0  0  0  0  0  0  0
    6.6168  -13.2511   17.8736 N   0  0  0  0  0  0  0  0  0  0  0  0
    7.4729  -15.6393   22.1387 C   0  0  0  0  0  0  0  0  0  0  0  0
    7.1835  -14.7979   22.9961 O   0  0  0  0  0  0  0  0  0  0  0  0
    7.3767  -16.9953   22.4540 N   0  0  0  0  0  0  0  0  0  0  0  0
    7.0136  -17.6436   23.6427 C   0  0  1  0  0  0  0  0  0  0  0  0
    6.5169  -19.0592   23.5969 C   0  0  0  0  0  0  0  0  0  0  0  0
    5.1192  -19.1741   23.0316 C   0  0  0  0  0  0  0  0  0  0  0  0
    4.9541  -20.2046   21.9705 C   0  0  0  0  0  0  0  0  0  0  0  0
    3.6143  -20.3528   21.3667 C   0  0  0  0  0  0  0  0  0  0  0  0
    3.6545  -21.1666   20.1967 N   0  0  0  0  0  0  0  0  0  0  0  0
    7.9946  -17.4839   24.7052 C   0  0  0  0  0  0  0  0  0  0  0  0
    9.2238  -17.6809   24.3939 O   0  0  0  0  0  0  0  0  0  0  0  0
    9.5769  -13.2374   28.3956 N   0  0  0  0  0  0  0  0  0  0  0  0
    9.9583  -14.2912   29.3060 C   0  0  0  0  0  0  0  0  0  0  0  0
   10.7753  -14.0119   30.2072 O   0  0  0  0  0  0  0  0  0  0  0  0
    9.3865  -15.6193   29.1351 C   0  0  0  0  0  0  0  0  0  0  0  0
    8.4815  -15.8766   27.9806 C   0  0  0  0  0  0  0  0  0  0  0  0
    8.8486  -16.9682   27.0408 C   0  0  2  0  0  0  0  0  0  0  0  0
    7.7647  -17.1376   26.0412 N   0  0  0  0  0  0  0  0  0  0  0  0
    8.9947  -18.2896   27.6726 C   0  0  0  0  0  0  0  0  0  0  0  0
    8.0572  -19.1420   27.7716 O   0  0  0  0  0  0  0  0  0  0  0  0
   10.2344  -18.6985   28.2161 O   0  0  0  0  0  0  0  0  0  0  0  0
  2  1  1  6
  3  4  1  0
  3  2  1  0
  4  5  2  0
  5  6  1  0
  7  6  1  0
  8  4  1  0
  8  7  2  0
  9  2  1  0
  9 10  2  0
 11  9  1  0
 12 11  1  0
 13 14  1  0
 12 13  1  6
 14 15  1  0
 15 16  1  0
 16 17  1  0
 18 19  2  0
 18 12  1  0
 20 21  1  0
 21 22  2  0
 23 21  1  0
 23 24  1  0
 25 24  1  1
 25 27  1  0
 25 26  1  0
 26 18  1  0
 27 29  1  0
 28 27  2  0
M  END
$$$$
