HKQ.pdb
     RDKit          3D

 29 29  0  0  1  0  0  0  0  0999 V2000
   11.4380  -13.8858   18.1733 N   0  0  0  0  0  0  0  0  0  0  0  0
   11.5761  -15.2725   18.5699 C   0  0  1  0  0  0  0  0  0  0  0  0
   12.6524  -15.8804   17.7056 C   0  0  0  0  0  0  0  0  0  0  0  0
   12.1124  -15.9977   16.3195 C   0  0  0  0  0  0  0  0  0  0  0  0
   10.9548  -16.6046   15.9033 C   0  0  0  0  0  0  0  0  0  0  0  0
   10.8621  -16.4727   14.5726 N   0  0  0  0  0  0  0  0  0  0  0  0
   11.9445  -15.7903   14.1360 C   0  0  0  0  0  0  0  0  0  0  0  0
   12.6952  -15.5077   15.2037 N   0  0  0  0  0  0  0  0  0  0  0  0
   11.9554  -15.3844   20.0110 C   0  0  0  0  0  0  0  0  0  0  0  0
   12.6748  -14.5175   20.5188 O   0  0  0  0  0  0  0  0  0  0  0  0
   11.5130  -16.4496   20.7964 N   0  0  0  0  0  0  0  0  0  0  0  0
   11.7511  -16.7670   22.1409 C   0  0  1  0  0  0  0  0  0  0  0  0
   10.8639  -17.7547   22.8411 C   0  0  0  0  0  0  0  0  0  0  0  0
   11.2892  -18.0190   24.2679 C   0  0  0  0  0  0  0  0  0  0  0  0
   10.5089  -19.0740   24.9701 C   0  0  0  0  0  0  0  0  0  0  0  0
   10.9010  -19.4036   26.3555 C   0  0  0  0  0  0  0  0  0  0  0  0
   10.1667  -20.5185   26.8561 N   0  0  0  0  0  0  0  0  0  0  0  0
   13.1497  -17.0514   22.4236 C   0  0  0  0  0  0  0  0  0  0  0  0
   13.6996  -17.9899   21.7427 O   0  0  0  0  0  0  0  0  0  0  0  0
   16.1700  -13.7763   19.6872 N   0  0  0  0  0  0  0  0  0  0  0  0
   17.2505  -14.0052   20.6171 C   0  0  0  0  0  0  0  0  0  0  0  0
   18.4139  -13.7935   20.2183 O   0  0  0  0  0  0  0  0  0  0  0  0
   16.9437  -14.4721   21.9618 C   0  0  0  0  0  0  0  0  0  0  0  0
   15.5663  -14.9485   22.2679 C   0  0  0  0  0  0  0  0  0  0  0  0
   15.4235  -16.1590   23.1186 C   0  0  2  0  0  0  0  0  0  0  0  0
   13.9824  -16.4226   23.3557 N   0  0  0  0  0  0  0  0  0  0  0  0
   16.0137  -16.0305   24.4610 C   0  0  0  0  0  0  0  0  0  0  0  0
   17.2609  -15.9406   24.6877 O   0  0  0  0  0  0  0  0  0  0  0  0
   15.1924  -15.9911   25.6114 O   0  0  0  0  0  0  0  0  0  0  0  0
  2  1  1  6
  3  4  1  0
  3  2  1  0
  4  5  2  0
  5  6  1  0
  7  6  1  0
  8  4  1  0
  8  7  2  0
  9  2  1  0
  9 10  2  0
 11  9  1  0
 12 11  1  0
 13 14  1  0
 12 13  1  6
 14 15  1  0
 15 16  1  0
 16 17  1  0
 18 19  2  0
 18 12  1  0
 20 21  1  0
 21 22  2  0
 23 21  1  0
 23 24  1  0
 25 24  1  6
 25 27  1  0
 25 26  1  0
 26 18  1  0
 27 29  1  0
 28 27  2  0
M  END
$$$$
