HKQ.pdb
     RDKit          3D

 29 29  0  0  1  0  0  0  0  0999 V2000
   11.2418  -15.3264   18.5285 N   0  0  0  0  0  0  0  0  0  0  0  0
   11.8065  -15.3173   19.8628 C   0  0  1  0  0  0  0  0  0  0  0  0
   12.5939  -14.0390   20.0071 C   0  0  0  0  0  0  0  0  0  0  0  0
   13.8865  -14.2152   19.2828 C   0  0  0  0  0  0  0  0  0  0  0  0
   14.3784  -15.3434   18.6773 C   0  0  0  0  0  0  0  0  0  0  0  0
   15.5750  -15.0527   18.1478 N   0  0  0  0  0  0  0  0  0  0  0  0
   15.8516  -13.7551   18.4079 C   0  0  0  0  0  0  0  0  0  0  0  0
   14.8211  -13.2578   19.0963 N   0  0  0  0  0  0  0  0  0  0  0  0
   10.7334  -15.3754   20.9011 C   0  0  0  0  0  0  0  0  0  0  0  0
   10.5135  -14.3828   21.6035 O   0  0  0  0  0  0  0  0  0  0  0  0
    9.9734  -16.5297   21.0944 N   0  0  0  0  0  0  0  0  0  0  0  0
    8.9160  -16.8028   21.9733 C   0  0  1  0  0  0  0  0  0  0  0  0
    7.9428  -17.8985   21.6494 C   0  0  0  0  0  0  0  0  0  0  0  0
    8.5418  -19.2792   21.7951 C   0  0  0  0  0  0  0  0  0  0  0  0
    7.6464  -20.2887   22.4230 C   0  0  0  0  0  0  0  0  0  0  0  0
    8.1884  -21.6475   22.6272 C   0  0  0  0  0  0  0  0  0  0  0  0
    7.2093  -22.5238   23.1806 N   0  0  0  0  0  0  0  0  0  0  0  0
    9.3348  -16.8904   23.3639 C   0  0  0  0  0  0  0  0  0  0  0  0
   10.5435  -17.2614   23.5831 O   0  0  0  0  0  0  0  0  0  0  0  0
    7.4915  -12.5066   27.2689 N   0  0  0  0  0  0  0  0  0  0  0  0
    6.6009  -13.5977   26.9509 C   0  0  0  0  0  0  0  0  0  0  0  0
    5.3767  -13.4116   27.1064 O   0  0  0  0  0  0  0  0  0  0  0  0
    7.1596  -14.8547   26.4735 C   0  0  0  0  0  0  0  0  0  0  0  0
    8.6319  -14.9672   26.2795 C   0  0  0  0  0  0  0  0  0  0  0  0
    9.1739  -16.2736   25.8223 C   0  0  2  0  0  0  0  0  0  0  0  0
    8.5768  -16.6173   24.5078 N   0  0  0  0  0  0  0  0  0  0  0  0
    8.8436  -17.4083   26.6997 C   0  0  0  0  0  0  0  0  0  0  0  0
    8.0074  -18.3191   26.4059 O   0  0  0  0  0  0  0  0  0  0  0  0
    9.4687  -17.5544   27.9597 O   0  0  0  0  0  0  0  0  0  0  0  0
  2  1  1  6
  3  4  1  0
  3  2  1  0
  4  5  2  0
  5  6  1  0
  7  6  1  0
  8  4  1  0
  8  7  2  0
  9  2  1  0
  9 10  2  0
 11  9  1  0
 12 11  1  0
 13 14  1  0
 12 13  1  6
 14 15  1  0
 15 16  1  0
 16 17  1  0
 18 19  2  0
 18 12  1  0
 20 21  1  0
 21 22  2  0
 23 21  1  0
 23 24  1  0
 25 24  1  1
 25 27  1  0
 25 26  1  0
 26 18  1  0
 27 29  1  0
 28 27  2  0
M  END
$$$$
