HKQ.pdb
     RDKit          3D

 29 29  0  0  1  0  0  0  0  0999 V2000
   10.3646  -15.4962   19.0001 N   0  0  0  0  0  0  0  0  0  0  0  0
    9.1720  -15.8230   19.7552 C   0  0  1  0  0  0  0  0  0  0  0  0
    8.8579  -17.2743   19.4905 C   0  0  0  0  0  0  0  0  0  0  0  0
    8.4287  -17.3958   18.0666 C   0  0  0  0  0  0  0  0  0  0  0  0
    9.2091  -17.4125   16.9387 C   0  0  0  0  0  0  0  0  0  0  0  0
    8.4081  -17.5375   15.8711 N   0  0  0  0  0  0  0  0  0  0  0  0
    7.1288  -17.6007   16.3039 C   0  0  0  0  0  0  0  0  0  0  0  0
    7.1537  -17.5138   17.6362 N   0  0  0  0  0  0  0  0  0  0  0  0
    9.3856  -15.6060   21.2182 C   0  0  0  0  0  0  0  0  0  0  0  0
   10.4250  -16.0142   21.7474 O   0  0  0  0  0  0  0  0  0  0  0  0
    8.4338  -14.9508   22.0005 N   0  0  0  0  0  0  0  0  0  0  0  0
    8.4468  -14.5785   23.3519 C   0  0  1  0  0  0  0  0  0  0  0  0
    7.3437  -13.7196   23.8981 C   0  0  0  0  0  0  0  0  0  0  0  0
    7.5388  -13.3683   25.3559 C   0  0  0  0  0  0  0  0  0  0  0  0
    6.4907  -12.4838   25.9340 C   0  0  0  0  0  0  0  0  0  0  0  0
    6.6398  -12.0842   27.3481 C   0  0  0  0  0  0  0  0  0  0  0  0
    5.5823  -11.2226   27.7629 N   0  0  0  0  0  0  0  0  0  0  0  0
    8.7163  -15.6908   24.2502 C   0  0  0  0  0  0  0  0  0  0  0  0
    7.9731  -16.7295   24.1261 O   0  0  0  0  0  0  0  0  0  0  0  0
   13.9526  -18.1185   23.6936 N   0  0  0  0  0  0  0  0  0  0  0  0
   13.5436  -18.8760   24.8527 C   0  0  0  0  0  0  0  0  0  0  0  0
   14.3134  -19.7679   25.2642 O   0  0  0  0  0  0  0  0  0  0  0  0
   12.2655  -18.5763   25.4826 C   0  0  0  0  0  0  0  0  0  0  0  0
   11.5159  -17.3606   25.0605 C   0  0  0  0  0  0  0  0  0  0  0  0
   10.2381  -17.0566   25.7564 C   0  0  2  0  0  0  0  0  0  0  0  0
    9.6966  -15.7728   25.2452 N   0  0  0  0  0  0  0  0  0  0  0  0
   10.3696  -16.8633   27.2097 C   0  0  0  0  0  0  0  0  0  0  0  0
   10.3031  -15.7343   27.7894 O   0  0  0  0  0  0  0  0  0  0  0  0
   10.5766  -17.9660   28.0704 O   0  0  0  0  0  0  0  0  0  0  0  0
  2  1  1  6
  3  4  1  0
  3  2  1  0
  4  5  2  0
  5  6  1  0
  7  6  1  0
  8  4  1  0
  8  7  2  0
  9  2  1  0
  9 10  2  0
 11  9  1  0
 12 11  1  0
 13 14  1  0
 12 13  1  1
 14 15  1  0
 15 16  1  0
 16 17  1  0
 18 19  2  0
 18 12  1  0
 20 21  1  0
 21 22  2  0
 23 21  1  0
 23 24  1  0
 25 24  1  6
 25 27  1  0
 25 26  1  0
 26 18  1  0
 27 29  1  0
 28 27  2  0
M  END
$$$$
