HKQ.pdb
     RDKit          3D

 29 29  0  0  1  0  0  0  0  0999 V2000
    8.5265  -16.8817   18.8409 N   0  0  0  0  0  0  0  0  0  0  0  0
    9.7227  -16.7941   19.6537 C   0  0  1  0  0  0  0  0  0  0  0  0
   10.1731  -15.3547   19.6341 C   0  0  0  0  0  0  0  0  0  0  0  0
    8.9548  -14.4965   19.5578 C   0  0  0  0  0  0  0  0  0  0  0  0
    7.6404  -14.8842   19.4975 C   0  0  0  0  0  0  0  0  0  0  0  0
    6.8764  -13.7843   19.4403 N   0  0  0  0  0  0  0  0  0  0  0  0
    7.6863  -12.7019   19.4633 C   0  0  0  0  0  0  0  0  0  0  0  0
    8.9436  -13.1459   19.5347 N   0  0  0  0  0  0  0  0  0  0  0  0
    9.4509  -17.2243   21.0587 C   0  0  0  0  0  0  0  0  0  0  0  0
   10.3604  -17.7284   21.7263 O   0  0  0  0  0  0  0  0  0  0  0  0
    8.1888  -17.0684   21.6333 N   0  0  0  0  0  0  0  0  0  0  0  0
    7.3881  -17.9608   22.3596 C   0  0  1  0  0  0  0  0  0  0  0  0
    6.3967  -18.8272   21.6389 C   0  0  0  0  0  0  0  0  0  0  0  0
    5.6460  -19.7574   22.5650 C   0  0  0  0  0  0  0  0  0  0  0  0
    4.7548  -20.7360   21.8843 C   0  0  0  0  0  0  0  0  0  0  0  0
    3.9605  -21.6430   22.7376 C   0  0  0  0  0  0  0  0  0  0  0  0
    3.2465  -22.6015   21.9603 N   0  0  0  0  0  0  0  0  0  0  0  0
    8.1380  -18.7454   23.3284 C   0  0  0  0  0  0  0  0  0  0  0  0
    8.4787  -19.9311   22.9752 O   0  0  0  0  0  0  0  0  0  0  0  0
   13.6724  -19.0441   25.6474 N   0  0  0  0  0  0  0  0  0  0  0  0
   13.0826  -19.2220   24.3415 C   0  0  0  0  0  0  0  0  0  0  0  0
   13.8392  -19.5402   23.4015 O   0  0  0  0  0  0  0  0  0  0  0  0
   11.6500  -19.0206   24.1757 C   0  0  0  0  0  0  0  0  0  0  0  0
   10.8310  -18.6282   25.3560 C   0  0  0  0  0  0  0  0  0  0  0  0
    9.4531  -19.1765   25.4579 C   0  0  2  0  0  0  0  0  0  0  0  0
    8.5408  -18.3658   24.6135 N   0  0  0  0  0  0  0  0  0  0  0  0
    8.8747  -19.1171   26.8102 C   0  0  0  0  0  0  0  0  0  0  0  0
    7.9057  -18.3641   27.1405 O   0  0  0  0  0  0  0  0  0  0  0  0
    9.3807  -19.9311   27.8498 O   0  0  0  0  0  0  0  0  0  0  0  0
  2  1  1  6
  3  4  1  0
  3  2  1  0
  4  5  2  0
  5  6  1  0
  7  6  1  0
  8  4  1  0
  8  7  2  0
  9  2  1  0
  9 10  2  0
 11  9  1  0
 12 11  1  0
 13 14  1  0
 12 13  1  6
 14 15  1  0
 15 16  1  0
 16 17  1  0
 18 19  2  0
 18 12  1  0
 20 21  1  0
 21 22  2  0
 23 21  1  0
 23 24  1  0
 25 24  1  1
 25 27  1  0
 25 26  1  0
 26 18  1  0
 27 29  1  0
 28 27  2  0
M  END
$$$$
