HKQ.pdb
     RDKit          3D

 29 29  0  0  1  0  0  0  0  0999 V2000
    6.5221  -15.5764   19.8021 N   0  0  0  0  0  0  0  0  0  0  0  0
    7.7685  -15.0832   20.3522 C   0  0  1  0  0  0  0  0  0  0  0  0
    7.9156  -13.6481   19.9119 C   0  0  0  0  0  0  0  0  0  0  0  0
    7.9045  -13.6251   18.4200 C   0  0  0  0  0  0  0  0  0  0  0  0
    7.0559  -12.9458   17.5834 C   0  0  0  0  0  0  0  0  0  0  0  0
    7.4067  -13.2113   16.3172 N   0  0  0  0  0  0  0  0  0  0  0  0
    8.4668  -14.0503   16.3363 C   0  0  0  0  0  0  0  0  0  0  0  0
    8.7596  -14.2940   17.6162 N   0  0  0  0  0  0  0  0  0  0  0  0
    7.7659  -15.1612   21.8444 C   0  0  0  0  0  0  0  0  0  0  0  0
    7.5086  -14.1492   22.5051 O   0  0  0  0  0  0  0  0  0  0  0  0
    8.0487  -16.3556   22.5084 N   0  0  0  0  0  0  0  0  0  0  0  0
    8.2541  -16.6304   23.8676 C   0  0  1  0  0  0  0  0  0  0  0  0
    7.4289  -17.6840   24.5471 C   0  0  0  0  0  0  0  0  0  0  0  0
    7.7553  -17.8299   26.0164 C   0  0  0  0  0  0  0  0  0  0  0  0
    7.1197  -18.9964   26.6876 C   0  0  0  0  0  0  0  0  0  0  0  0
    7.3135  -19.1328   28.1455 C   0  0  0  0  0  0  0  0  0  0  0  0
    8.1874  -20.2150   28.4584 N   0  0  0  0  0  0  0  0  0  0  0  0
    9.6586  -16.7828   24.2155 C   0  0  0  0  0  0  0  0  0  0  0  0
   10.1510  -17.9650   24.1343 O   0  0  0  0  0  0  0  0  0  0  0  0
    9.9165  -16.8167   29.4605 N   0  0  0  0  0  0  0  0  0  0  0  0
   10.2261  -15.4066   29.4767 C   0  0  0  0  0  0  0  0  0  0  0  0
   10.4120  -14.8661   30.5861 O   0  0  0  0  0  0  0  0  0  0  0  0
   10.3028  -14.6814   28.2163 C   0  0  0  0  0  0  0  0  0  0  0  0
    9.9718  -15.3912   26.9496 C   0  0  0  0  0  0  0  0  0  0  0  0
   11.0858  -15.6980   26.0145 C   0  0  2  0  0  0  0  0  0  0  0  0
   10.5525  -15.7905   24.6326 N   0  0  0  0  0  0  0  0  0  0  0  0
   11.7429  -16.9927   26.2572 C   0  0  0  0  0  0  0  0  0  0  0  0
   11.6398  -18.0012   25.4908 O   0  0  0  0  0  0  0  0  0  0  0  0
   12.5603  -17.1871   27.3945 O   0  0  0  0  0  0  0  0  0  0  0  0
  2  1  1  1
  3  4  1  0
  3  2  1  0
  4  5  2  0
  5  6  1  0
  7  6  1  0
  8  4  1  0
  8  7  2  0
  9  2  1  0
  9 10  2  0
 11  9  1  0
 12 11  1  0
 13 14  1  0
 12 13  1  6
 14 15  1  0
 15 16  1  0
 16 17  1  0
 18 19  2  0
 18 12  1  0
 20 21  1  0
 21 22  2  0
 23 21  1  0
 23 24  1  0
 25 24  1  1
 25 27  1  0
 25 26  1  0
 26 18  1  0
 27 29  1  0
 28 27  2  0
M  END
$$$$
