ACN.pdb
     RDKit          3D

 20 19  0  0  1  0  0  0  0  0999 V2000
    7.6752  -12.8502   19.5819 C   0  0  0  0  0  0  0  0  0  0  0  0
    7.6239  -14.1383   20.3672 C   0  0  2  0  0  0  0  0  0  0  0  0
    6.2810  -14.6200   20.6028 N   0  0  0  0  0  0  0  0  0  0  0  0
    8.3364  -14.0658   21.6598 C   0  0  0  0  0  0  0  0  0  0  0  0
    9.5691  -13.8011   21.7462 O   0  0  0  0  0  0  0  0  0  0  0  0
    7.6290  -14.3016   22.8538 N   0  0  0  0  0  0  0  0  0  0  0  0
    8.2527  -14.2630   24.1773 C   0  0  1  0  0  0  0  0  0  0  0  0
    7.2722  -13.6931   25.1409 C   0  0  0  0  0  0  0  0  0  0  0  0
    5.8617  -14.7701   25.4487 S   0  0  0  0  0  0  0  0  0  0  0  0
    8.6831  -15.6597   24.5112 C   0  0  0  0  0  0  0  0  0  0  0  0
    7.9181  -16.6079   24.2479 O   0  0  0  0  0  0  0  0  0  0  0  0
   12.7407  -16.2022   22.9184 N   0  0  0  0  0  0  0  0  0  0  0  0
   11.9943  -17.2312   23.5180 C   0  0  0  0  0  0  0  0  0  0  0  0
   11.4233  -18.0797   22.7941 O   0  0  0  0  0  0  0  0  0  0  0  0
   11.8690  -17.3375   24.9699 C   0  0  0  0  0  0  0  0  0  0  0  0
   10.4626  -17.1784   25.4852 C   0  0  2  0  0  0  0  0  0  0  0  0
    9.9305  -15.8791   25.1137 N   0  0  0  0  0  0  0  0  0  0  0  0
   10.3172  -17.3475   26.9343 C   0  0  0  0  0  0  0  0  0  0  0  0
   10.4771  -18.6409   27.4687 O   0  0  0  0  0  0  0  0  0  0  0  0
   10.0611  -16.4566   27.7771 O   0  0  0  0  0  0  0  0  0  0  0  0
  2  1  1  1
  2  3  1  0
  4  2  1  0
  4  5  2  0
  6  4  1  0
  7  6  1  0
  7  8  1  1
  9  8  1  0
 10  7  1  0
 10 17  1  0
 11 10  2  0
 13 15  1  0
 13 12  1  0
 14 13  2  0
 16 15  1  1
 16 17  1  0
 16 18  1  0
 18 20  2  0
 18 19  1  0
M  END
$$$$
