ACN.pdb
     RDKit          3D

 20 19  0  0  1  0  0  0  0  0999 V2000
    7.8505  -16.5101   15.0646 C   0  0  0  0  0  0  0  0  0  0  0  0
    8.1669  -15.0370   15.1551 C   0  0  2  0  0  0  0  0  0  0  0  0
    9.0089  -14.5582   14.0814 N   0  0  0  0  0  0  0  0  0  0  0  0
    8.7726  -14.6454   16.4449 C   0  0  0  0  0  0  0  0  0  0  0  0
   10.0208  -14.6477   16.6418 O   0  0  0  0  0  0  0  0  0  0  0  0
    7.9393  -14.2540   17.5098 N   0  0  0  0  0  0  0  0  0  0  0  0
    8.4364  -13.9788   18.8586 C   0  0  1  0  0  0  0  0  0  0  0  0
    7.3449  -13.3336   19.6377 C   0  0  0  0  0  0  0  0  0  0  0  0
    7.8141  -12.9298   21.3291 S   0  0  0  0  0  0  0  0  0  0  0  0
    8.9025  -15.2801   19.4390 C   0  0  0  0  0  0  0  0  0  0  0  0
    8.9824  -16.2792   18.6981 O   0  0  0  0  0  0  0  0  0  0  0  0
   12.3888  -18.0694   21.4641 N   0  0  0  0  0  0  0  0  0  0  0  0
   12.6187  -16.8932   20.7298 C   0  0  0  0  0  0  0  0  0  0  0  0
   13.7075  -16.7466   20.1272 O   0  0  0  0  0  0  0  0  0  0  0  0
   11.6151  -15.8343   20.6497 C   0  0  0  0  0  0  0  0  0  0  0  0
   10.3200  -16.1517   21.3503 C   0  0  2  0  0  0  0  0  0  0  0  0
    9.2371  -15.3563   20.7990 N   0  0  0  0  0  0  0  0  0  0  0  0
   10.3466  -15.9637   22.8041 C   0  0  0  0  0  0  0  0  0  0  0  0
   10.1242  -17.0894   23.6210 O   0  0  0  0  0  0  0  0  0  0  0  0
   10.5489  -14.8938   23.4239 O   0  0  0  0  0  0  0  0  0  0  0  0
  2  1  1  1
  2  3  1  0
  4  2  1  0
  4  5  2  0
  6  4  1  0
  7  6  1  0
  7  8  1  1
  9  8  1  0
 10  7  1  0
 10 17  1  0
 11 10  2  0
 13 15  1  0
 13 12  1  0
 14 13  2  0
 16 15  1  6
 16 17  1  0
 16 18  1  0
 18 20  2  0
 18 19  1  0
M  END
$$$$
