ACN.pdb
     RDKit          3D

 20 19  0  0  1  0  0  0  0  0999 V2000
    6.2282  -14.7824   20.5294 C   0  0  0  0  0  0  0  0  0  0  0  0
    7.2047  -13.6681   20.8183 C   0  0  2  0  0  0  0  0  0  0  0  0
    8.1486  -13.4332   19.7484 N   0  0  0  0  0  0  0  0  0  0  0  0
    7.9522  -13.8555   22.0791 C   0  0  0  0  0  0  0  0  0  0  0  0
    9.1644  -14.2113   22.1079 O   0  0  0  0  0  0  0  0  0  0  0  0
    7.3017  -13.6359   23.3080 N   0  0  0  0  0  0  0  0  0  0  0  0
    7.9332  -13.8811   24.6055 C   0  0  1  0  0  0  0  0  0  0  0  0
    7.5073  -12.8077   25.5441 C   0  0  0  0  0  0  0  0  0  0  0  0
    5.7241  -12.7343   25.7868 S   0  0  0  0  0  0  0  0  0  0  0  0
    7.5352  -15.2581   25.0449 C   0  0  0  0  0  0  0  0  0  0  0  0
    6.4730  -15.7475   24.6141 O   0  0  0  0  0  0  0  0  0  0  0  0
    8.8405  -20.2057   25.9286 N   0  0  0  0  0  0  0  0  0  0  0  0
    8.8991  -19.4804   24.7262 C   0  0  0  0  0  0  0  0  0  0  0  0
    9.1558  -20.0811   23.6568 O   0  0  0  0  0  0  0  0  0  0  0  0
    8.6652  -18.0384   24.6917 C   0  0  0  0  0  0  0  0  0  0  0  0
    8.4097  -17.4183   26.0403 C   0  0  2  0  0  0  0  0  0  0  0  0
    8.3561  -15.9711   25.9310 N   0  0  0  0  0  0  0  0  0  0  0  0
    9.3862  -17.7744   27.0744 C   0  0  0  0  0  0  0  0  0  0  0  0
   10.7327  -17.4187   26.8635 O   0  0  0  0  0  0  0  0  0  0  0  0
    9.1613  -18.3728   28.1519 O   0  0  0  0  0  0  0  0  0  0  0  0
  2  1  1  6
  2  3  1  0
  4  2  1  0
  4  5  2  0
  6  4  1  0
  7  6  1  0
  7  8  1  1
  9  8  1  0
 10  7  1  0
 10 17  1  0
 11 10  2  0
 13 15  1  0
 13 12  1  0
 14 13  2  0
 16 15  1  6
 16 17  1  0
 16 18  1  0
 18 20  2  0
 18 19  1  0
M  END
$$$$
