ACN.pdb
     RDKit          3D

 20 19  0  0  1  0  0  0  0  0999 V2000
    8.0699  -12.6556   18.2858 C   0  0  0  0  0  0  0  0  0  0  0  0
    8.2575  -14.0381   18.8619 C   0  0  2  0  0  0  0  0  0  0  0  0
    7.0651  -14.8544   18.8093 N   0  0  0  0  0  0  0  0  0  0  0  0
    8.7681  -14.0312   20.2486 C   0  0  0  0  0  0  0  0  0  0  0  0
    9.9487  -13.6874   20.5399 O   0  0  0  0  0  0  0  0  0  0  0  0
    7.9187  -14.4237   21.3003 N   0  0  0  0  0  0  0  0  0  0  0  0
    8.3793  -14.6100   22.6771 C   0  0  1  0  0  0  0  0  0  0  0  0
    7.2250  -14.3925   23.5908 C   0  0  0  0  0  0  0  0  0  0  0  0
    7.6053  -14.7309   25.3185 S   0  0  0  0  0  0  0  0  0  0  0  0
    8.9703  -15.9847   22.7702 C   0  0  0  0  0  0  0  0  0  0  0  0
    8.6740  -16.8307   21.9041 O   0  0  0  0  0  0  0  0  0  0  0  0
   12.7830  -19.3843   23.6425 N   0  0  0  0  0  0  0  0  0  0  0  0
   12.6499  -18.4609   22.5913 C   0  0  0  0  0  0  0  0  0  0  0  0
   13.3829  -18.5687   21.5807 O   0  0  0  0  0  0  0  0  0  0  0  0
   11.6731  -17.3756   22.6471 C   0  0  0  0  0  0  0  0  0  0  0  0
   10.7591  -17.4235   23.8433 C   0  0  2  0  0  0  0  0  0  0  0  0
    9.8401  -16.2991   23.8246 N   0  0  0  0  0  0  0  0  0  0  0  0
   11.4448  -17.4469   25.1390 C   0  0  0  0  0  0  0  0  0  0  0  0
   11.1009  -16.4638   26.0874 O   0  0  0  0  0  0  0  0  0  0  0  0
   12.3232  -18.2576   25.5144 O   0  0  0  0  0  0  0  0  0  0  0  0
  2  1  1  1
  2  3  1  0
  4  2  1  0
  4  5  2  0
  6  4  1  0
  7  6  1  0
  7  8  1  1
  9  8  1  0
 10  7  1  0
 10 17  1  0
 11 10  2  0
 13 15  1  0
 13 12  1  0
 14 13  2  0
 16 15  1  6
 16 17  1  0
 16 18  1  0
 18 20  2  0
 18 19  1  0
M  END
$$$$
