ACN.pdb
     RDKit          3D

 20 19  0  0  1  0  0  0  0  0999 V2000
    8.1347  -16.3571   15.5754 C   0  0  0  0  0  0  0  0  0  0  0  0
    7.7405  -14.9585   15.9839 C   0  0  2  0  0  0  0  0  0  0  0  0
    7.9456  -13.9724   14.9465 N   0  0  0  0  0  0  0  0  0  0  0  0
    8.4106  -14.4971   17.2175 C   0  0  0  0  0  0  0  0  0  0  0  0
    9.5398  -13.9297   17.2099 O   0  0  0  0  0  0  0  0  0  0  0  0
    7.7809  -14.6924   18.4612 N   0  0  0  0  0  0  0  0  0  0  0  0
    8.3424  -14.2211   19.7280 C   0  0  1  0  0  0  0  0  0  0  0  0
    7.2185  -13.9248   20.6574 C   0  0  0  0  0  0  0  0  0  0  0  0
    7.7477  -13.6511   22.3571 S   0  0  0  0  0  0  0  0  0  0  0  0
    9.2737  -15.2839   20.2288 C   0  0  0  0  0  0  0  0  0  0  0  0
    8.9547  -16.4811   20.0928 O   0  0  0  0  0  0  0  0  0  0  0  0
   13.5672  -13.8520   19.2953 N   0  0  0  0  0  0  0  0  0  0  0  0
   13.2472  -15.1228   19.8035 C   0  0  0  0  0  0  0  0  0  0  0  0
   13.3016  -16.1200   19.0467 O   0  0  0  0  0  0  0  0  0  0  0  0
   12.8533  -15.3107   21.1980 C   0  0  0  0  0  0  0  0  0  0  0  0
   11.4584  -15.8485   21.3822 C   0  0  2  0  0  0  0  0  0  0  0  0
   10.4814  -14.9196   20.8419 N   0  0  0  0  0  0  0  0  0  0  0  0
   11.0969  -16.1544   22.7698 C   0  0  0  0  0  0  0  0  0  0  0  0
   11.8646  -17.1147   23.4571 O   0  0  0  0  0  0  0  0  0  0  0  0
   10.1626  -15.6511   23.4357 O   0  0  0  0  0  0  0  0  0  0  0  0
  2  1  1  6
  2  3  1  0
  4  2  1  0
  4  5  2  0
  6  4  1  0
  7  6  1  0
  7  8  1  1
  9  8  1  0
 10  7  1  0
 10 17  1  0
 11 10  2  0
 13 15  1  0
 13 12  1  0
 14 13  2  0
 16 15  1  1
 16 17  1  0
 16 18  1  0
 18 20  2  0
 18 19  1  0
M  END
$$$$
