ACN.pdb
     RDKit          3D

 20 19  0  0  1  0  0  0  0  0999 V2000
    8.0084  -16.9919   15.2485 C   0  0  0  0  0  0  0  0  0  0  0  0
    8.2467  -15.5069   15.1206 C   0  0  2  0  0  0  0  0  0  0  0  0
    8.9889  -15.1392   13.9353 N   0  0  0  0  0  0  0  0  0  0  0  0
    8.9119  -14.9159   16.3004 C   0  0  0  0  0  0  0  0  0  0  0  0
   10.1665  -14.7905   16.3855 O   0  0  0  0  0  0  0  0  0  0  0  0
    8.1314  -14.4718   17.3844 N   0  0  0  0  0  0  0  0  0  0  0  0
    8.6989  -13.8405   18.5767 C   0  0  1  0  0  0  0  0  0  0  0  0
    7.6006  -13.1574   19.3129 C   0  0  0  0  0  0  0  0  0  0  0  0
    8.1328  -12.4131   20.8642 S   0  0  0  0  0  0  0  0  0  0  0  0
    9.3801  -14.9138   19.3714 C   0  0  0  0  0  0  0  0  0  0  0  0
    8.8967  -16.0626   19.3758 O   0  0  0  0  0  0  0  0  0  0  0  0
   13.9504  -13.8204   19.1944 N   0  0  0  0  0  0  0  0  0  0  0  0
   13.4468  -15.0396   19.6797 C   0  0  0  0  0  0  0  0  0  0  0  0
   13.5948  -16.0813   18.9992 O   0  0  0  0  0  0  0  0  0  0  0  0
   12.7542  -15.1230   20.9636 C   0  0  0  0  0  0  0  0  0  0  0  0
   11.3184  -15.5680   20.8670 C   0  0  2  0  0  0  0  0  0  0  0  0
   10.5422  -14.6124   20.0966 N   0  0  0  0  0  0  0  0  0  0  0  0
   10.6538  -15.7806   22.1564 C   0  0  0  0  0  0  0  0  0  0  0  0
   11.1903  -16.7509   23.0252 O   0  0  0  0  0  0  0  0  0  0  0  0
    9.6391  -15.1875   22.5903 O   0  0  0  0  0  0  0  0  0  0  0  0
  2  1  1  1
  2  3  1  0
  4  2  1  0
  4  5  2  0
  6  4  1  0
  7  6  1  0
  7  8  1  1
  9  8  1  0
 10  7  1  0
 10 17  1  0
 11 10  2  0
 13 15  1  0
 13 12  1  0
 14 13  2  0
 16 15  1  1
 16 17  1  0
 16 18  1  0
 18 20  2  0
 18 19  1  0
M  END
$$$$
