ACN.pdb
     RDKit          3D

 20 19  0  0  1  0  0  0  0  0999 V2000
    6.9928  -18.6271   17.4458 C   0  0  0  0  0  0  0  0  0  0  0  0
    7.3776  -17.2271   17.0334 C   0  0  2  0  0  0  0  0  0  0  0  0
    8.0732  -17.1667   15.7671 N   0  0  0  0  0  0  0  0  0  0  0  0
    8.1795  -16.5155   18.0505 C   0  0  0  0  0  0  0  0  0  0  0  0
    9.4409  -16.5790   18.0927 O   0  0  0  0  0  0  0  0  0  0  0  0
    7.5273  -15.7328   19.0219 N   0  0  0  0  0  0  0  0  0  0  0  0
    8.2272  -15.0818   20.1303 C   0  0  1  0  0  0  0  0  0  0  0  0
    7.3625  -13.9894   20.6534 C   0  0  0  0  0  0  0  0  0  0  0  0
    7.4652  -12.4710   19.6899 S   0  0  0  0  0  0  0  0  0  0  0  0
    8.5414  -16.1394   21.1454 C   0  0  0  0  0  0  0  0  0  0  0  0
    7.8641  -17.1856   21.1588 O   0  0  0  0  0  0  0  0  0  0  0  0
   13.3896  -18.7069   21.9307 N   0  0  0  0  0  0  0  0  0  0  0  0
   11.9925  -18.8162   22.0382 C   0  0  0  0  0  0  0  0  0  0  0  0
   11.4937  -19.8378   22.5652 O   0  0  0  0  0  0  0  0  0  0  0  0
   11.1042  -17.7634   21.5509 C   0  0  0  0  0  0  0  0  0  0  0  0
   10.4063  -16.9875   22.6370 C   0  0  2  0  0  0  0  0  0  0  0  0
    9.5839  -15.9377   22.0618 N   0  0  0  0  0  0  0  0  0  0  0  0
   11.2990  -16.3899   23.6348 C   0  0  0  0  0  0  0  0  0  0  0  0
   11.8411  -15.1190   23.3607 O   0  0  0  0  0  0  0  0  0  0  0  0
   11.6472  -16.8866   24.7310 O   0  0  0  0  0  0  0  0  0  0  0  0
  2  1  1  1
  2  3  1  0
  4  2  1  0
  4  5  2  0
  6  4  1  0
  7  6  1  0
  7  8  1  1
  9  8  1  0
 10  7  1  0
 10 17  1  0
 11 10  2  0
 13 15  1  0
 13 12  1  0
 14 13  2  0
 16 15  1  6
 16 17  1  0
 16 18  1  0
 18 20  2  0
 18 19  1  0
M  END
$$$$
