ACN.pdb
     RDKit          3D

 20 19  0  0  1  0  0  0  0  0999 V2000
    8.3921  -17.7899   15.2151 C   0  0  0  0  0  0  0  0  0  0  0  0
    8.3892  -16.3298   14.8323 C   0  0  2  0  0  0  0  0  0  0  0  0
    9.0625  -16.0574   13.5820 N   0  0  0  0  0  0  0  0  0  0  0  0
    8.9515  -15.4486   15.8768 C   0  0  0  0  0  0  0  0  0  0  0  0
   10.1742  -15.1321   15.9177 O   0  0  0  0  0  0  0  0  0  0  0  0
    8.1050  -14.9341   16.8770 N   0  0  0  0  0  0  0  0  0  0  0  0
    8.5488  -13.9736   17.8882 C   0  0  1  0  0  0  0  0  0  0  0  0
    7.3496  -13.2872   18.4407 C   0  0  0  0  0  0  0  0  0  0  0  0
    7.7164  -12.2279   19.8505 S   0  0  0  0  0  0  0  0  0  0  0  0
    9.3340  -14.7336   18.9147 C   0  0  0  0  0  0  0  0  0  0  0  0
    9.9672  -14.1013   19.7824 O   0  0  0  0  0  0  0  0  0  0  0  0
   10.0141  -20.5341   20.6614 N   0  0  0  0  0  0  0  0  0  0  0  0
    9.7529  -19.1989   21.0142 C   0  0  0  0  0  0  0  0  0  0  0  0
   10.0214  -18.8045   22.1729 O   0  0  0  0  0  0  0  0  0  0  0  0
    9.1758  -18.2554   20.0593 C   0  0  0  0  0  0  0  0  0  0  0  0
    9.9703  -16.9882   19.8810 C   0  0  2  0  0  0  0  0  0  0  0  0
    9.3479  -16.1357   18.8834 N   0  0  0  0  0  0  0  0  0  0  0  0
   11.3750  -17.1912   19.5135 C   0  0  0  0  0  0  0  0  0  0  0  0
   11.7835  -16.8050   18.2219 O   0  0  0  0  0  0  0  0  0  0  0  0
   12.2801  -17.6798   20.2289 O   0  0  0  0  0  0  0  0  0  0  0  0
  2  1  1  1
  2  3  1  0
  4  2  1  0
  4  5  2  0
  6  4  1  0
  7  6  1  0
  7  8  1  1
  9  8  1  0
 10  7  1  0
 10 17  1  0
 11 10  2  0
 13 15  1  0
 13 12  1  0
 14 13  2  0
 16 15  1  6
 16 17  1  0
 16 18  1  0
 18 20  2  0
 18 19  1  0
M  END
$$$$
