ACN.pdb
     RDKit          3D

 20 19  0  0  1  0  0  0  0  0999 V2000
    6.3352  -14.2379   20.2532 C   0  0  0  0  0  0  0  0  0  0  0  0
    7.2376  -13.0966   20.6549 C   0  0  2  0  0  0  0  0  0  0  0  0
    8.0986  -12.6358   19.5885 N   0  0  0  0  0  0  0  0  0  0  0  0
    8.0675  -13.3945   21.8408 C   0  0  0  0  0  0  0  0  0  0  0  0
    9.2681  -13.7792   21.7549 O   0  0  0  0  0  0  0  0  0  0  0  0
    7.5127  -13.2524   23.1267 N   0  0  0  0  0  0  0  0  0  0  0  0
    8.2112  -13.6480   24.3505 C   0  0  1  0  0  0  0  0  0  0  0  0
    7.5968  -12.9232   25.4959 C   0  0  0  0  0  0  0  0  0  0  0  0
    5.7979  -13.0091   25.5159 S   0  0  0  0  0  0  0  0  0  0  0  0
    8.1139  -15.1401   24.4601 C   0  0  0  0  0  0  0  0  0  0  0  0
    7.2930  -15.7471   23.7451 O   0  0  0  0  0  0  0  0  0  0  0  0
   11.3821  -19.1333   24.2064 N   0  0  0  0  0  0  0  0  0  0  0  0
   11.4619  -17.9089   23.5208 C   0  0  0  0  0  0  0  0  0  0  0  0
   12.3056  -17.7702   22.6047 O   0  0  0  0  0  0  0  0  0  0  0  0
   10.5810  -16.7905   23.8495 C   0  0  0  0  0  0  0  0  0  0  0  0
    9.7026  -17.0240   25.0506 C   0  0  2  0  0  0  0  0  0  0  0  0
    8.9399  -15.8278   25.3613 N   0  0  0  0  0  0  0  0  0  0  0  0
   10.4154  -17.4521   26.2582 C   0  0  0  0  0  0  0  0  0  0  0  0
   10.0820  -18.7022   26.8151 O   0  0  0  0  0  0  0  0  0  0  0  0
   11.3092  -16.8233   26.8709 O   0  0  0  0  0  0  0  0  0  0  0  0
  2  1  1  6
  2  3  1  0
  4  2  1  0
  4  5  2  0
  6  4  1  0
  7  6  1  0
  7  8  1  1
  9  8  1  0
 10  7  1  0
 10 17  1  0
 11 10  2  0
 13 15  1  0
 13 12  1  0
 14 13  2  0
 16 15  1  6
 16 17  1  0
 16 18  1  0
 18 20  2  0
 18 19  1  0
M  END
$$$$
