ACN.pdb
     RDKit          3D

 20 19  0  0  1  0  0  0  0  0999 V2000
    7.6744  -12.7828   19.4955 C   0  0  0  0  0  0  0  0  0  0  0  0
    7.6462  -14.0467   20.3204 C   0  0  2  0  0  0  0  0  0  0  0  0
    6.3282  -14.6286   20.4439 N   0  0  0  0  0  0  0  0  0  0  0  0
    8.2198  -13.8779   21.6718 C   0  0  0  0  0  0  0  0  0  0  0  0
    9.4040  -13.4821   21.8664 O   0  0  0  0  0  0  0  0  0  0  0  0
    7.4295  -14.1684   22.7998 N   0  0  0  0  0  0  0  0  0  0  0  0
    7.8961  -13.9869   24.1751 C   0  0  1  0  0  0  0  0  0  0  0  0
    6.7776  -13.4233   24.9789 C   0  0  0  0  0  0  0  0  0  0  0  0
    7.1530  -13.2921   26.7356 S   0  0  0  0  0  0  0  0  0  0  0  0
    8.3779  -15.3194   24.6649 C   0  0  0  0  0  0  0  0  0  0  0  0
    7.6035  -16.2952   24.6240 O   0  0  0  0  0  0  0  0  0  0  0  0
   10.9261  -18.8424   23.9662 N   0  0  0  0  0  0  0  0  0  0  0  0
   11.9414  -17.9265   24.2916 C   0  0  0  0  0  0  0  0  0  0  0  0
   13.0823  -18.0696   23.7935 O   0  0  0  0  0  0  0  0  0  0  0  0
   11.6981  -16.8066   25.1980 C   0  0  0  0  0  0  0  0  0  0  0  0
   10.2699  -16.6803   25.6598 C   0  0  2  0  0  0  0  0  0  0  0  0
    9.6831  -15.4487   25.1619 N   0  0  0  0  0  0  0  0  0  0  0  0
   10.0883  -16.7317   27.1138 C   0  0  0  0  0  0  0  0  0  0  0  0
   10.0748  -17.9961   27.7345 O   0  0  0  0  0  0  0  0  0  0  0  0
    9.9398  -15.7607   27.8914 O   0  0  0  0  0  0  0  0  0  0  0  0
  2  1  1  1
  2  3  1  0
  4  2  1  0
  4  5  2  0
  6  4  1  0
  7  6  1  0
  7  8  1  1
  9  8  1  0
 10  7  1  0
 10 17  1  0
 11 10  2  0
 13 15  1  0
 13 12  1  0
 14 13  2  0
 16 15  1  1
 16 17  1  0
 16 18  1  0
 18 20  2  0
 18 19  1  0
M  END
$$$$
