ACN.pdb
     RDKit          3D

 20 19  0  0  1  0  0  0  0  0999 V2000
    7.3994  -14.1514   20.3576 C   0  0  0  0  0  0  0  0  0  0  0  0
    7.3776  -14.9645   21.6292 C   0  0  2  0  0  0  0  0  0  0  0  0
    6.0446  -15.2480   22.1127 N   0  0  0  0  0  0  0  0  0  0  0  0
    8.1623  -14.3596   22.7256 C   0  0  0  0  0  0  0  0  0  0  0  0
    9.3755  -14.0305   22.5962 O   0  0  0  0  0  0  0  0  0  0  0  0
    7.5496  -14.1365   23.9732 N   0  0  0  0  0  0  0  0  0  0  0  0
    8.2769  -13.6608   25.1509 C   0  0  1  0  0  0  0  0  0  0  0  0
    7.3042  -13.0130   26.0722 C   0  0  0  0  0  0  0  0  0  0  0  0
    5.6362  -12.9155   25.3996 S   0  0  0  0  0  0  0  0  0  0  0  0
    8.9802  -14.8412   25.7508 C   0  0  0  0  0  0  0  0  0  0  0  0
    8.4222  -15.9554   25.7249 O   0  0  0  0  0  0  0  0  0  0  0  0
   11.8023  -15.3328   29.9465 N   0  0  0  0  0  0  0  0  0  0  0  0
   10.6654  -16.1029   29.6467 C   0  0  0  0  0  0  0  0  0  0  0  0
   10.2176  -16.8992   30.5044 O   0  0  0  0  0  0  0  0  0  0  0  0
    9.9890  -15.9960   28.3559 C   0  0  0  0  0  0  0  0  0  0  0  0
   10.8951  -15.6357   27.2079 C   0  0  2  0  0  0  0  0  0  0  0  0
   10.2462  -14.6766   26.3315 N   0  0  0  0  0  0  0  0  0  0  0  0
   11.3482  -16.7744   26.4030 C   0  0  0  0  0  0  0  0  0  0  0  0
   10.3819  -17.4975   25.6769 O   0  0  0  0  0  0  0  0  0  0  0  0
   12.5227  -17.1929   26.2800 O   0  0  0  0  0  0  0  0  0  0  0  0
  2  1  1  6
  2  3  1  0
  4  2  1  0
  4  5  2  0
  6  4  1  0
  7  6  1  0
  7  8  1  1
  9  8  1  0
 10  7  1  0
 10 17  1  0
 11 10  2  0
 13 15  1  0
 13 12  1  0
 14 13  2  0
 16 15  1  1
 16 17  1  0
 16 18  1  0
 18 20  2  0
 18 19  1  0
M  END
$$$$
