ACN.pdb
     RDKit          3D

 20 19  0  0  1  0  0  0  0  0999 V2000
    4.6599  -18.0468   20.3711 C   0  0  0  0  0  0  0  0  0  0  0  0
    5.7186  -17.4036   19.5086 C   0  0  2  0  0  0  0  0  0  0  0  0
    6.3517  -18.3212   18.5877 N   0  0  0  0  0  0  0  0  0  0  0  0
    6.7674  -16.7111   20.2860 C   0  0  0  0  0  0  0  0  0  0  0  0
    7.6993  -17.3277   20.8761 O   0  0  0  0  0  0  0  0  0  0  0  0
    6.7407  -15.3073   20.3862 N   0  0  0  0  0  0  0  0  0  0  0  0
    7.7650  -14.5331   21.0888 C   0  0  1  0  0  0  0  0  0  0  0  0
    7.6406  -13.1086   20.6765 C   0  0  0  0  0  0  0  0  0  0  0  0
    8.0825  -12.8200   18.9545 S   0  0  0  0  0  0  0  0  0  0  0  0
    7.5654  -14.7545   22.5581 C   0  0  0  0  0  0  0  0  0  0  0  0
    6.4248  -14.6171   23.0413 O   0  0  0  0  0  0  0  0  0  0  0  0
    7.1288  -18.8784   26.0761 N   0  0  0  0  0  0  0  0  0  0  0  0
    7.0700  -17.5432   25.6409 C   0  0  0  0  0  0  0  0  0  0  0  0
    6.4006  -16.7110   26.2962 O   0  0  0  0  0  0  0  0  0  0  0  0
    7.7742  -17.0996   24.4399 C   0  0  0  0  0  0  0  0  0  0  0  0
    8.5705  -15.8336   24.6189 C   0  0  2  0  0  0  0  0  0  0  0  0
    8.6576  -15.1077   23.3640 N   0  0  0  0  0  0  0  0  0  0  0  0
    9.9261  -16.0301   25.1418 C   0  0  0  0  0  0  0  0  0  0  0  0
   10.1395  -15.8281   26.5194 O   0  0  0  0  0  0  0  0  0  0  0  0
   10.9447  -16.3649   24.4938 O   0  0  0  0  0  0  0  0  0  0  0  0
  2  1  1  1
  2  3  1  0
  4  2  1  0
  4  5  2  0
  6  4  1  0
  7  6  1  0
  7  8  1  1
  9  8  1  0
 10  7  1  0
 10 17  1  0
 11 10  2  0
 13 15  1  0
 13 12  1  0
 14 13  2  0
 16 15  1  6
 16 17  1  0
 16 18  1  0
 18 20  2  0
 18 19  1  0
M  END
$$$$
