ACN.pdb
     RDKit          3D

 20 19  0  0  1  0  0  0  0  0999 V2000
    6.6135  -14.9071   20.2193 C   0  0  0  0  0  0  0  0  0  0  0  0
    7.2127  -13.5739   20.5963 C   0  0  2  0  0  0  0  0  0  0  0  0
    8.0032  -12.9756   19.5437 N   0  0  0  0  0  0  0  0  0  0  0  0
    8.0240  -13.6235   21.8304 C   0  0  0  0  0  0  0  0  0  0  0  0
    9.2840  -13.7196   21.8159 O   0  0  0  0  0  0  0  0  0  0  0  0
    7.3831  -13.5656   23.0823 N   0  0  0  0  0  0  0  0  0  0  0  0
    8.0931  -13.7038   24.3547 C   0  0  1  0  0  0  0  0  0  0  0  0
    7.3446  -12.9455   25.3937 C   0  0  0  0  0  0  0  0  0  0  0  0
    8.0868  -13.0509   27.0314 S   0  0  0  0  0  0  0  0  0  0  0  0
    8.2098  -15.1698   24.6463 C   0  0  0  0  0  0  0  0  0  0  0  0
    7.1983  -15.8903   24.5403 O   0  0  0  0  0  0  0  0  0  0  0  0
   11.3677  -16.8694   22.1787 N   0  0  0  0  0  0  0  0  0  0  0  0
   10.5319  -17.5881   23.0507 C   0  0  0  0  0  0  0  0  0  0  0  0
    9.5356  -18.1924   22.5898 O   0  0  0  0  0  0  0  0  0  0  0  0
   10.7981  -17.6500   24.4861 C   0  0  0  0  0  0  0  0  0  0  0  0
    9.6897  -17.1037   25.3474 C   0  0  2  0  0  0  0  0  0  0  0  0
    9.4461  -15.7066   25.0344 N   0  0  0  0  0  0  0  0  0  0  0  0
    9.9160  -17.2282   26.7906 C   0  0  0  0  0  0  0  0  0  0  0  0
    9.9761  -16.0467   27.5552 O   0  0  0  0  0  0  0  0  0  0  0  0
   10.0663  -18.2871   27.4432 O   0  0  0  0  0  0  0  0  0  0  0  0
  2  1  1  6
  2  3  1  0
  4  2  1  0
  4  5  2  0
  6  4  1  0
  7  6  1  0
  7  8  1  1
  9  8  1  0
 10  7  1  0
 10 17  1  0
 11 10  2  0
 13 15  1  0
 13 12  1  0
 14 13  2  0
 16 15  1  6
 16 17  1  0
 16 18  1  0
 18 20  2  0
 18 19  1  0
M  END
$$$$
