PYM.pdb
     RDKit          3D

 28 29  0  0  1  0  0  0  0  0999 V2000
   19.2709  -23.5485  -14.3464 N   0  0  0  0  0  0  0  0  0  0  0  0
   20.1131  -22.4650  -14.8146 C   0  0  0  0  0  0  0  0  0  0  0  0
   21.3120  -23.1274  -15.4488 C   0  0  0  0  0  0  0  0  0  0  0  0
   21.4955  -24.3553  -14.6165 C   0  0  0  0  0  0  0  0  0  0  0  0
   20.1097  -24.6924  -14.1748 C   0  0  1  0  0  0  0  0  0  0  0  0
   20.0523  -25.2443  -12.7943 C   0  0  0  0  0  0  0  0  0  0  0  0
   20.8944  -26.0979  -12.4148 O   0  0  0  0  0  0  0  0  0  0  0  0
   16.9869  -25.2519   -4.2617 O   0  0  0  0  0  0  0  0  0  0  0  0
   17.3276  -25.0115   -5.5901 C   0  0  0  0  0  0  0  0  0  0  0  0
   18.6581  -24.9083   -5.9415 C   0  0  0  0  0  0  0  0  0  0  0  0
   19.0220  -24.6711   -7.2464 C   0  0  0  0  0  0  0  0  0  0  0  0
   18.0818  -24.5235   -8.2742 C   0  0  0  0  0  0  0  0  0  0  0  0
   18.4495  -24.2350   -9.6442 C   0  0  0  0  0  0  0  0  0  0  0  0
   18.9212  -25.3200  -10.5231 C   0  0  2  0  0  0  0  0  0  0  0  0
   19.0364  -24.7970  -11.9103 N   0  0  0  0  0  0  0  0  0  0  0  0
   18.0186  -26.4736  -10.5880 C   0  0  0  0  0  0  0  0  0  0  0  0
   17.3354  -26.6618  -11.6418 O   0  0  0  0  0  0  0  0  0  0  0  0
   16.7615  -24.6305   -7.9011 C   0  0  0  0  0  0  0  0  0  0  0  0
   16.3814  -24.8708   -6.5798 C   0  0  0  0  0  0  0  0  0  0  0  0
   21.4063  -29.2136  -13.1348 C   0  0  0  0  0  0  0  0  0  0  0  0
   20.1786  -30.5180  -12.8144 S   0  0  0  0  0  0  0  0  0  0  0  0
   18.7371  -29.8885  -11.9658 C   0  0  0  0  0  0  0  0  0  0  0  0
   18.9715  -29.3133  -10.6165 C   0  0  0  0  0  0  0  0  0  0  0  0
   17.6958  -28.8529   -9.9114 C   0  0  2  0  0  0  0  0  0  0  0  0
   17.8297  -27.4400   -9.5566 N   0  0  0  0  0  0  0  0  0  0  0  0
   17.4781  -29.6800   -8.7235 C   0  0  0  0  0  0  0  0  0  0  0  0
   16.4735  -29.5421   -7.9966 O   0  0  0  0  0  0  0  0  0  0  0  0
   18.3819  -30.6806   -8.3277 O   0  0  0  0  0  0  0  0  0  0  0  0
  1  5  1  0
  2  3  1  0
  2  1  1  0
  3  4  1  0
  4  5  1  0
  5  6  1  1
  6  7  2  0
  9  8  1  0
  9 19  2  0
 10  9  1  0
 11 10  2  0
 11 12  1  0
 12 18  2  0
 13 12  1  0
 14 13  1  1
 14 16  1  0
 15 14  1  0
 15  6  1  0
 16 17  2  0
 16 25  1  0
 18 19  1  0
 21 22  1  0
 21 20  1  0
 22 23  1  0
 24 23  1  1
 24 26  1  0
 25 24  1  0
 26 27  2  0
 26 28  1  0
M  END
$$$$
