PYM.pdb
     RDKit          3D

 28 29  0  0  1  0  0  0  0  0999 V2000
   25.8964  -20.0311  -14.9386 N   0  0  0  0  0  0  0  0  0  0  0  0
   26.8712  -19.4452  -15.8380 C   0  0  0  0  0  0  0  0  0  0  0  0
   27.4786  -20.6046  -16.5898 C   0  0  0  0  0  0  0  0  0  0  0  0
   27.4680  -21.7032  -15.5764 C   0  0  0  0  0  0  0  0  0  0  0  0
   26.2763  -21.3929  -14.7322 C   0  0  1  0  0  0  0  0  0  0  0  0
   26.4742  -21.7221  -13.2948 C   0  0  0  0  0  0  0  0  0  0  0  0
   27.2215  -22.6758  -12.9575 O   0  0  0  0  0  0  0  0  0  0  0  0
   29.0325  -19.3374   -5.2654 O   0  0  0  0  0  0  0  0  0  0  0  0
   28.5505  -19.4646   -6.5653 C   0  0  0  0  0  0  0  0  0  0  0  0
   27.4559  -18.7221   -6.9591 C   0  0  0  0  0  0  0  0  0  0  0  0
   26.9595  -18.8288   -8.2372 C   0  0  0  0  0  0  0  0  0  0  0  0
   27.5251  -19.6805   -9.1947 C   0  0  0  0  0  0  0  0  0  0  0  0
   26.9893  -19.8315  -10.5309 C   0  0  0  0  0  0  0  0  0  0  0  0
   26.1883  -21.0208  -10.8720 C   0  0  2  0  0  0  0  0  0  0  0  0
   25.8101  -20.9479  -12.3082 N   0  0  0  0  0  0  0  0  0  0  0  0
   24.9360  -21.1359  -10.1183 C   0  0  0  0  0  0  0  0  0  0  0  0
   23.8642  -20.6913  -10.6343 O   0  0  0  0  0  0  0  0  0  0  0  0
   28.6154  -20.4108   -8.7804 C   0  0  0  0  0  0  0  0  0  0  0  0
   29.1270  -20.3102   -7.4858 C   0  0  0  0  0  0  0  0  0  0  0  0
   24.0929  -20.7813   -3.5498 C   0  0  0  0  0  0  0  0  0  0  0  0
   22.6170  -21.7006   -4.0865 S   0  0  0  0  0  0  0  0  0  0  0  0
   22.4406  -21.7064   -5.8651 C   0  0  0  0  0  0  0  0  0  0  0  0
   23.7029  -21.7316   -6.6477 C   0  0  0  0  0  0  0  0  0  0  0  0
   23.4920  -21.6902   -8.1611 C   0  0  2  0  0  0  0  0  0  0  0  0
   24.7948  -21.7215   -8.8258 N   0  0  0  0  0  0  0  0  0  0  0  0
   22.7475  -20.4790   -8.5095 C   0  0  0  0  0  0  0  0  0  0  0  0
   21.5167  -20.4948   -8.7130 O   0  0  0  0  0  0  0  0  0  0  0  0
   23.3682  -19.2244   -8.6347 O   0  0  0  0  0  0  0  0  0  0  0  0
  1  5  1  0
  2  3  1  0
  2  1  1  0
  3  4  1  0
  4  5  1  0
  5  6  1  1
  6  7  2  0
  9  8  1  0
  9 19  2  0
 10  9  1  0
 11 10  2  0
 11 12  1  0
 12 18  2  0
 13 12  1  0
 14 13  1  1
 14 16  1  0
 15 14  1  0
 15  6  1  0
 16 17  2  0
 16 25  1  0
 18 19  1  0
 21 22  1  0
 21 20  1  0
 22 23  1  0
 24 23  1  1
 24 26  1  0
 25 24  1  0
 26 27  2  0
 26 28  1  0
M  END
$$$$
