PYM.pdb
     RDKit          3D

 28 29  0  0  1  0  0  0  0  0999 V2000
   27.0505  -18.8107  -14.2131 N   0  0  0  0  0  0  0  0  0  0  0  0
   28.3338  -18.2271  -13.8739 C   0  0  0  0  0  0  0  0  0  0  0  0
   29.3636  -19.2666  -14.2449 C   0  0  0  0  0  0  0  0  0  0  0  0
   28.6555  -20.5533  -13.9674 C   0  0  0  0  0  0  0  0  0  0  0  0
   27.2210  -20.2293  -14.2252 C   0  0  1  0  0  0  0  0  0  0  0  0
   26.2870  -20.9275  -13.3012 C   0  0  0  0  0  0  0  0  0  0  0  0
   26.3576  -22.1737  -13.1470 O   0  0  0  0  0  0  0  0  0  0  0  0
   28.7635  -20.6491   -6.9040 O   0  0  0  0  0  0  0  0  0  0  0  0
   27.6839  -20.5350   -7.7757 C   0  0  0  0  0  0  0  0  0  0  0  0
   26.9572  -19.3623   -7.8063 C   0  0  0  0  0  0  0  0  0  0  0  0
   25.8862  -19.2233   -8.6578 C   0  0  0  0  0  0  0  0  0  0  0  0
   25.4790  -20.2440   -9.5264 C   0  0  0  0  0  0  0  0  0  0  0  0
   24.3304  -20.1254  -10.3994 C   0  0  0  0  0  0  0  0  0  0  0  0
   24.3204  -20.8190  -11.6998 C   0  0  2  0  0  0  0  0  0  0  0  0
   25.3151  -20.1716  -12.5957 N   0  0  0  0  0  0  0  0  0  0  0  0
   23.0330  -20.7622  -12.3991 C   0  0  0  0  0  0  0  0  0  0  0  0
   22.6514  -19.6581  -12.8970 O   0  0  0  0  0  0  0  0  0  0  0  0
   26.2179  -21.4040   -9.4792 C   0  0  0  0  0  0  0  0  0  0  0  0
   27.3063  -21.5555   -8.6188 C   0  0  0  0  0  0  0  0  0  0  0  0
   19.5956  -25.8698  -14.9405 C   0  0  0  0  0  0  0  0  0  0  0  0
   18.7139  -24.4111  -15.5776 S   0  0  0  0  0  0  0  0  0  0  0  0
   19.2292  -22.9067  -14.7617 C   0  0  0  0  0  0  0  0  0  0  0  0
   20.5194  -22.9691  -14.0283 C   0  0  0  0  0  0  0  0  0  0  0  0
   20.9053  -21.6574  -13.3449 C   0  0  2  0  0  0  0  0  0  0  0  0
   22.1410  -21.8586  -12.5883 N   0  0  0  0  0  0  0  0  0  0  0  0
   19.8113  -21.2312  -12.4707 C   0  0  0  0  0  0  0  0  0  0  0  0
   18.7666  -20.7187  -12.9206 O   0  0  0  0  0  0  0  0  0  0  0  0
   19.8658  -21.3732  -11.0737 O   0  0  0  0  0  0  0  0  0  0  0  0
  1  5  1  0
  2  3  1  0
  2  1  1  0
  3  4  1  0
  4  5  1  0
  5  6  1  1
  6  7  2  0
  9  8  1  0
  9 19  2  0
 10  9  1  0
 11 10  2  0
 11 12  1  0
 12 18  2  0
 13 12  1  0
 14 13  1  1
 14 16  1  0
 15 14  1  0
 15  6  1  0
 16 17  2  0
 16 25  1  0
 18 19  1  0
 21 22  1  0
 21 20  1  0
 22 23  1  0
 24 23  1  1
 24 26  1  0
 25 24  1  0
 26 27  2  0
 26 28  1  0
M  END
$$$$
