PYM.pdb
     RDKit          3D

 28 29  0  0  1  0  0  0  0  0999 V2000
   27.3323  -20.0550  -16.0278 N   0  0  0  0  0  0  0  0  0  0  0  0
   26.9672  -20.0484  -17.4310 C   0  0  0  0  0  0  0  0  0  0  0  0
   27.2023  -18.6348  -17.9053 C   0  0  0  0  0  0  0  0  0  0  0  0
   26.8693  -17.8172  -16.6992 C   0  0  0  0  0  0  0  0  0  0  0  0
   27.2293  -18.7096  -15.5577 C   0  0  1  0  0  0  0  0  0  0  0  0
   26.3089  -18.5764  -14.3963 C   0  0  0  0  0  0  0  0  0  0  0  0
   26.0609  -17.4443  -13.9076 O   0  0  0  0  0  0  0  0  0  0  0  0
   19.9212  -18.1042  -16.9991 O   0  0  0  0  0  0  0  0  0  0  0  0
   20.7923  -18.6474  -16.0586 C   0  0  0  0  0  0  0  0  0  0  0  0
   21.7768  -19.5221  -16.4709 C   0  0  0  0  0  0  0  0  0  0  0  0
   22.6503  -20.0729  -15.5626 C   0  0  0  0  0  0  0  0  0  0  0  0
   22.5924  -19.7839  -14.1933 C   0  0  0  0  0  0  0  0  0  0  0  0
   23.4801  -20.3865  -13.2216 C   0  0  0  0  0  0  0  0  0  0  0  0
   24.6838  -19.6617  -12.7763 C   0  0  2  0  0  0  0  0  0  0  0  0
   25.7139  -19.7410  -13.8458 N   0  0  0  0  0  0  0  0  0  0  0  0
   25.3001  -20.2114  -11.5648 C   0  0  0  0  0  0  0  0  0  0  0  0
   25.5860  -21.4481  -11.5267 O   0  0  0  0  0  0  0  0  0  0  0  0
   21.6034  -18.9094  -13.8048 C   0  0  0  0  0  0  0  0  0  0  0  0
   20.7118  -18.3449  -14.7182 C   0  0  0  0  0  0  0  0  0  0  0  0
   29.1423  -20.0252   -4.7298 C   0  0  0  0  0  0  0  0  0  0  0  0
   28.7084  -19.2088   -6.2972 S   0  0  0  0  0  0  0  0  0  0  0  0
   27.1393  -19.7767   -6.9373 C   0  0  0  0  0  0  0  0  0  0  0  0
   26.7014  -19.1761   -8.2234 C   0  0  0  0  0  0  0  0  0  0  0  0
   26.0957  -20.1833   -9.2007 C   0  0  2  0  0  0  0  0  0  0  0  0
   25.6272  -19.4721  -10.3901 N   0  0  0  0  0  0  0  0  0  0  0  0
   24.9989  -20.8933   -8.5406 C   0  0  0  0  0  0  0  0  0  0  0  0
   23.8028  -20.6346   -8.7833 O   0  0  0  0  0  0  0  0  0  0  0  0
   25.2214  -21.9099   -7.5963 O   0  0  0  0  0  0  0  0  0  0  0  0
  1  5  1  0
  2  3  1  0
  2  1  1  0
  3  4  1  0
  4  5  1  0
  5  6  1  1
  6  7  2  0
  9  8  1  0
  9 19  2  0
 10  9  1  0
 11 10  2  0
 11 12  1  0
 12 18  2  0
 13 12  1  0
 14 13  1  6
 14 16  1  0
 15 14  1  0
 15  6  1  0
 16 17  2  0
 16 25  1  0
 18 19  1  0
 21 22  1  0
 21 20  1  0
 22 23  1  0
 24 23  1  1
 24 26  1  0
 25 24  1  0
 26 27  2  0
 26 28  1  0
M  END
$$$$
