PYM.pdb
     RDKit          3D

 28 29  0  0  1  0  0  0  0  0999 V2000
   26.7552  -19.0567  -16.2427 N   0  0  0  0  0  0  0  0  0  0  0  0
   28.1381  -18.6211  -16.2331 C   0  0  0  0  0  0  0  0  0  0  0  0
   28.9364  -19.7919  -16.7529 C   0  0  0  0  0  0  0  0  0  0  0  0
   28.1723  -20.9710  -16.2430 C   0  0  0  0  0  0  0  0  0  0  0  0
   26.7613  -20.4848  -16.1994 C   0  0  1  0  0  0  0  0  0  0  0  0
   25.9895  -21.0275  -15.0490 C   0  0  0  0  0  0  0  0  0  0  0  0
   25.9929  -22.2615  -14.8058 O   0  0  0  0  0  0  0  0  0  0  0  0
   30.5035  -21.5982  -10.4740 O   0  0  0  0  0  0  0  0  0  0  0  0
   29.2206  -21.1781  -10.8148 C   0  0  0  0  0  0  0  0  0  0  0  0
   28.1408  -21.6372  -10.0884 C   0  0  0  0  0  0  0  0  0  0  0  0
   26.8631  -21.2380  -10.4041 C   0  0  0  0  0  0  0  0  0  0  0  0
   26.5891  -20.3598  -11.4603 C   0  0  0  0  0  0  0  0  0  0  0  0
   25.2466  -19.9624  -11.8277 C   0  0  0  0  0  0  0  0  0  0  0  0
   24.5821  -20.5951  -12.9812 C   0  0  2  0  0  0  0  0  0  0  0  0
   25.2491  -20.1372  -14.2288 N   0  0  0  0  0  0  0  0  0  0  0  0
   23.1635  -20.2506  -13.1184 C   0  0  0  0  0  0  0  0  0  0  0  0
   22.8321  -19.3096  -13.9040 O   0  0  0  0  0  0  0  0  0  0  0  0
   27.6805  -19.9146  -12.1705 C   0  0  0  0  0  0  0  0  0  0  0  0
   28.9812  -20.3135  -11.8587 C   0  0  0  0  0  0  0  0  0  0  0  0
   16.8870  -22.7969  -15.9145 C   0  0  0  0  0  0  0  0  0  0  0  0
   18.3902  -22.8978  -14.8940 S   0  0  0  0  0  0  0  0  0  0  0  0
   19.4163  -21.4446  -15.0658 C   0  0  0  0  0  0  0  0  0  0  0  0
   20.7329  -21.4884  -14.3795 C   0  0  0  0  0  0  0  0  0  0  0  0
   20.7365  -20.8160  -13.0068 C   0  0  2  0  0  0  0  0  0  0  0  0
   22.0838  -20.8909  -12.4419 N   0  0  0  0  0  0  0  0  0  0  0  0
   19.7610  -21.4829  -12.1427 C   0  0  0  0  0  0  0  0  0  0  0  0
   20.0011  -22.5789  -11.5972 O   0  0  0  0  0  0  0  0  0  0  0  0
   18.4969  -20.9327  -11.8709 O   0  0  0  0  0  0  0  0  0  0  0  0
  1  5  1  0
  2  3  1  0
  2  1  1  0
  3  4  1  0
  4  5  1  0
  5  6  1  1
  6  7  2  0
  9  8  1  0
  9 19  2  0
 10  9  1  0
 11 10  2  0
 11 12  1  0
 12 18  2  0
 13 12  1  0
 14 13  1  1
 14 16  1  0
 15 14  1  0
 15  6  1  0
 16 17  2  0
 16 25  1  0
 18 19  1  0
 21 22  1  0
 21 20  1  0
 22 23  1  0
 24 23  1  6
 24 26  1  0
 25 24  1  0
 26 27  2  0
 26 28  1  0
M  END
$$$$
