PYM.pdb
     RDKit          3D

 28 29  0  0  1  0  0  0  0  0999 V2000
   25.7002  -13.1926  -15.8721 N   0  0  0  0  0  0  0  0  0  0  0  0
   26.1147  -14.5230  -16.2729 C   0  0  0  0  0  0  0  0  0  0  0  0
   26.9036  -14.3363  -17.5462 C   0  0  0  0  0  0  0  0  0  0  0  0
   26.2205  -13.1766  -18.1963 C   0  0  0  0  0  0  0  0  0  0  0  0
   25.7131  -12.3747  -17.0437 C   0  0  1  0  0  0  0  0  0  0  0  0
   24.3976  -11.7327  -17.3100 C   0  0  0  0  0  0  0  0  0  0  0  0
   24.1629  -11.2020  -18.4258 O   0  0  0  0  0  0  0  0  0  0  0  0
   15.5180  -10.9107  -16.1787 O   0  0  0  0  0  0  0  0  0  0  0  0
   16.8769  -11.2131  -16.1579 C   0  0  0  0  0  0  0  0  0  0  0  0
   17.5995  -11.1721  -17.3329 C   0  0  0  0  0  0  0  0  0  0  0  0
   18.9429  -11.4663  -17.3402 C   0  0  0  0  0  0  0  0  0  0  0  0
   19.6419  -11.8178  -16.1784 C   0  0  0  0  0  0  0  0  0  0  0  0
   21.0465  -12.1677  -16.1783 C   0  0  0  0  0  0  0  0  0  0  0  0
   22.0579  -11.1502  -16.5163 C   0  0  2  0  0  0  0  0  0  0  0  0
   23.4103  -11.7257  -16.2907 N   0  0  0  0  0  0  0  0  0  0  0  0
   21.9820   -9.9354  -15.6989 C   0  0  0  0  0  0  0  0  0  0  0  0
   22.5663   -9.9148  -14.5716 O   0  0  0  0  0  0  0  0  0  0  0  0
   18.9018  -11.8521  -15.0187 C   0  0  0  0  0  0  0  0  0  0  0  0
   17.5381  -11.5554  -15.0002 C   0  0  0  0  0  0  0  0  0  0  0  0
   22.5451   -2.2041  -14.8912 C   0  0  0  0  0  0  0  0  0  0  0  0
   22.4005   -3.6369  -16.0036 S   0  0  0  0  0  0  0  0  0  0  0  0
   21.9468   -5.1254  -15.1244 C   0  0  0  0  0  0  0  0  0  0  0  0
   21.8535   -6.3639  -15.9393 C   0  0  0  0  0  0  0  0  0  0  0  0
   21.3590   -7.5812  -15.1582 C   0  0  2  0  0  0  0  0  0  0  0  0
   21.3020   -8.7342  -16.0567 N   0  0  0  0  0  0  0  0  0  0  0  0
   20.0427   -7.2854  -14.5903 C   0  0  0  0  0  0  0  0  0  0  0  0
   19.8909   -7.0024  -13.3848 O   0  0  0  0  0  0  0  0  0  0  0  0
   18.8695   -7.2987  -15.3638 O   0  0  0  0  0  0  0  0  0  0  0  0
  1  5  1  0
  2  3  1  0
  2  1  1  0
  3  4  1  0
  4  5  1  0
  5  6  1  6
  6  7  2  0
  9  8  1  0
  9 19  2  0
 10  9  1  0
 11 10  2  0
 11 12  1  0
 12 18  2  0
 13 12  1  0
 14 13  1  1
 14 16  1  0
 15 14  1  0
 15  6  1  0
 16 17  2  0
 16 25  1  0
 18 19  1  0
 21 22  1  0
 21 20  1  0
 22 23  1  0
 24 23  1  6
 24 26  1  0
 25 24  1  0
 26 27  2  0
 26 28  1  0
M  END
$$$$
