PYM.pdb
     RDKit          3D

 28 29  0  0  1  0  0  0  0  0999 V2000
   28.2463  -21.1529  -15.3267 N   0  0  0  0  0  0  0  0  0  0  0  0
   27.9336  -21.1454  -16.7426 C   0  0  0  0  0  0  0  0  0  0  0  0
   28.3767  -19.7943  -17.2492 C   0  0  0  0  0  0  0  0  0  0  0  0
   28.1181  -18.8976  -16.0816 C   0  0  0  0  0  0  0  0  0  0  0  0
   28.3130  -19.7906  -14.9011 C   0  0  1  0  0  0  0  0  0  0  0  0
   27.3805  -19.4931  -13.7806 C   0  0  0  0  0  0  0  0  0  0  0  0
   27.1594  -18.3041  -13.4354 O   0  0  0  0  0  0  0  0  0  0  0  0
   19.2203  -19.6015  -11.0481 O   0  0  0  0  0  0  0  0  0  0  0  0
   20.5134  -19.9836  -11.3950 C   0  0  0  0  0  0  0  0  0  0  0  0
   21.1514  -19.3482  -12.4407 C   0  0  0  0  0  0  0  0  0  0  0  0
   22.4287  -19.7062  -12.8039 C   0  0  0  0  0  0  0  0  0  0  0  0
   23.1419  -20.7168  -12.1466 C   0  0  0  0  0  0  0  0  0  0  0  0
   24.4712  -21.1301  -12.5433 C   0  0  0  0  0  0  0  0  0  0  0  0
   25.6419  -20.3341  -12.1333 C   0  0  2  0  0  0  0  0  0  0  0  0
   26.7432  -20.5660  -13.1052 N   0  0  0  0  0  0  0  0  0  0  0  0
   26.1728  -20.6860  -10.8127 C   0  0  0  0  0  0  0  0  0  0  0  0
   26.6652  -21.8431  -10.6358 O   0  0  0  0  0  0  0  0  0  0  0  0
   22.4865  -21.3364  -11.1072 C   0  0  0  0  0  0  0  0  0  0  0  0
   21.1905  -20.9809  -10.7304 C   0  0  0  0  0  0  0  0  0  0  0  0
   30.0770  -19.1588   -5.4272 C   0  0  0  0  0  0  0  0  0  0  0  0
   28.8027  -20.4131   -5.7653 S   0  0  0  0  0  0  0  0  0  0  0  0
   27.1935  -19.6807   -6.0269 C   0  0  0  0  0  0  0  0  0  0  0  0
   26.8931  -19.2393   -7.4130 C   0  0  0  0  0  0  0  0  0  0  0  0
   26.5506  -20.3848   -8.3653 C   0  0  2  0  0  0  0  0  0  0  0  0
   26.1985  -19.8301   -9.6724 N   0  0  0  0  0  0  0  0  0  0  0  0
   25.4448  -21.1623   -7.8036 C   0  0  0  0  0  0  0  0  0  0  0  0
   24.2557  -20.9326   -8.1031 O   0  0  0  0  0  0  0  0  0  0  0  0
   25.6505  -22.2151   -6.8959 O   0  0  0  0  0  0  0  0  0  0  0  0
  1  5  1  0
  2  3  1  0
  2  1  1  0
  3  4  1  0
  4  5  1  0
  5  6  1  1
  6  7  2  0
  9  8  1  0
  9 19  2  0
 10  9  1  0
 11 10  2  0
 11 12  1  0
 12 18  2  0
 13 12  1  0
 14 13  1  6
 14 16  1  0
 15 14  1  0
 15  6  1  0
 16 17  2  0
 16 25  1  0
 18 19  1  0
 21 22  1  0
 21 20  1  0
 22 23  1  0
 24 23  1  1
 24 26  1  0
 25 24  1  0
 26 27  2  0
 26 28  1  0
M  END
$$$$
