PYM.pdb
     RDKit          3D

 28 29  0  0  1  0  0  0  0  0999 V2000
   27.6338  -21.5739  -15.2396 N   0  0  0  0  0  0  0  0  0  0  0  0
   27.1192  -21.7374  -16.5853 C   0  0  0  0  0  0  0  0  0  0  0  0
   27.3498  -20.4132  -17.2721 C   0  0  0  0  0  0  0  0  0  0  0  0
   27.1777  -19.4263  -16.1629 C   0  0  0  0  0  0  0  0  0  0  0  0
   27.6286  -20.1744  -14.9520 C   0  0  1  0  0  0  0  0  0  0  0  0
   26.8446  -19.8421  -13.7319 C   0  0  0  0  0  0  0  0  0  0  0  0
   26.6154  -18.6430  -13.4298 O   0  0  0  0  0  0  0  0  0  0  0  0
   19.9833  -19.7530  -15.3063 O   0  0  0  0  0  0  0  0  0  0  0  0
   21.0278  -20.2036  -14.5035 C   0  0  0  0  0  0  0  0  0  0  0  0
   21.0646  -19.8430  -13.1720 C   0  0  0  0  0  0  0  0  0  0  0  0
   22.0851  -20.2743  -12.3570 C   0  0  0  0  0  0  0  0  0  0  0  0
   23.1256  -21.0885  -12.8220 C   0  0  0  0  0  0  0  0  0  0  0  0
   24.2260  -21.5173  -11.9851 C   0  0  0  0  0  0  0  0  0  0  0  0
   25.3979  -20.6417  -11.8054 C   0  0  2  0  0  0  0  0  0  0  0  0
   26.3584  -20.8935  -12.9123 N   0  0  0  0  0  0  0  0  0  0  0  0
   26.1326  -20.8726  -10.5578 C   0  0  0  0  0  0  0  0  0  0  0  0
   26.4513  -22.0607  -10.2422 O   0  0  0  0  0  0  0  0  0  0  0  0
   23.0685  -21.4359  -14.1524 C   0  0  0  0  0  0  0  0  0  0  0  0
   22.0376  -21.0036  -14.9882 C   0  0  0  0  0  0  0  0  0  0  0  0
   28.8565  -20.0790   -3.7156 C   0  0  0  0  0  0  0  0  0  0  0  0
   28.7125  -19.8494   -5.5150 S   0  0  0  0  0  0  0  0  0  0  0  0
   27.1424  -19.1306   -5.9759 C   0  0  0  0  0  0  0  0  0  0  0  0
   26.9257  -18.9085   -7.4286 C   0  0  0  0  0  0  0  0  0  0  0  0
   26.6487  -20.1899   -8.2146 C   0  0  2  0  0  0  0  0  0  0  0  0
   26.5441  -19.8645   -9.6370 N   0  0  0  0  0  0  0  0  0  0  0  0
   25.4147  -20.8009   -7.7179 C   0  0  0  0  0  0  0  0  0  0  0  0
   25.4262  -21.7818   -6.9470 O   0  0  0  0  0  0  0  0  0  0  0  0
   24.1423  -20.3227   -8.0741 O   0  0  0  0  0  0  0  0  0  0  0  0
  1  5  1  0
  2  3  1  0
  2  1  1  0
  3  4  1  0
  4  5  1  0
  5  6  1  1
  6  7  2  0
  9  8  1  0
  9 19  2  0
 10  9  1  0
 11 10  2  0
 11 12  1  0
 12 18  2  0
 13 12  1  0
 14 13  1  6
 14 16  1  0
 15 14  1  0
 15  6  1  0
 16 17  2  0
 16 25  1  0
 18 19  1  0
 21 22  1  0
 21 20  1  0
 22 23  1  0
 24 23  1  1
 24 26  1  0
 25 24  1  0
 26 27  2  0
 26 28  1  0
M  END
$$$$
