PYM.pdb
     RDKit          3D

 28 29  0  0  1  0  0  0  0  0999 V2000
   27.9105  -21.3293  -14.8386 N   0  0  0  0  0  0  0  0  0  0  0  0
   27.5335  -21.4245  -16.2355 C   0  0  0  0  0  0  0  0  0  0  0  0
   27.8746  -20.0844  -16.8406 C   0  0  0  0  0  0  0  0  0  0  0  0
   27.6187  -19.1342  -15.7156 C   0  0  0  0  0  0  0  0  0  0  0  0
   27.9183  -19.9421  -14.4964 C   0  0  1  0  0  0  0  0  0  0  0  0
   27.0225  -19.6287  -13.3505 C   0  0  0  0  0  0  0  0  0  0  0  0
   26.8065  -18.4346  -13.0199 O   0  0  0  0  0  0  0  0  0  0  0  0
   20.4564  -19.1919  -15.6816 O   0  0  0  0  0  0  0  0  0  0  0  0
   21.3692  -19.6637  -14.7420 C   0  0  0  0  0  0  0  0  0  0  0  0
   22.2704  -20.6441  -15.1041 C   0  0  0  0  0  0  0  0  0  0  0  0
   23.1825  -21.1278  -14.1955 C   0  0  0  0  0  0  0  0  0  0  0  0
   23.2484  -20.6626  -12.8760 C   0  0  0  0  0  0  0  0  0  0  0  0
   24.1769  -21.1902  -11.8989 C   0  0  0  0  0  0  0  0  0  0  0  0
   25.4043  -20.4426  -11.5721 C   0  0  2  0  0  0  0  0  0  0  0  0
   26.4145  -20.6922  -12.6344 N   0  0  0  0  0  0  0  0  0  0  0  0
   26.0275  -20.8383  -10.3054 C   0  0  0  0  0  0  0  0  0  0  0  0
   26.3992  -22.0430  -10.1524 O   0  0  0  0  0  0  0  0  0  0  0  0
   22.3408  -19.6852  -12.5371 C   0  0  0  0  0  0  0  0  0  0  0  0
   21.4110  -19.1874  -13.4513 C   0  0  0  0  0  0  0  0  0  0  0  0
   30.4012  -18.9720   -5.2592 C   0  0  0  0  0  0  0  0  0  0  0  0
   28.6791  -19.0070   -4.6721 S   0  0  0  0  0  0  0  0  0  0  0  0
   27.6505  -20.0714   -5.6738 C   0  0  0  0  0  0  0  0  0  0  0  0
   27.3252  -19.5743   -7.0353 C   0  0  0  0  0  0  0  0  0  0  0  0
   26.5112  -20.5593   -7.8741 C   0  0  2  0  0  0  0  0  0  0  0  0
   26.2720  -19.9777   -9.1949 N   0  0  0  0  0  0  0  0  0  0  0  0
   25.2521  -20.8500   -7.1864 C   0  0  0  0  0  0  0  0  0  0  0  0
   24.1769  -20.3124   -7.5200 O   0  0  0  0  0  0  0  0  0  0  0  0
   25.1730  -21.7518   -6.1115 O   0  0  0  0  0  0  0  0  0  0  0  0
  1  5  1  0
  2  3  1  0
  2  1  1  0
  3  4  1  0
  4  5  1  0
  5  6  1  1
  6  7  2  0
  9  8  1  0
  9 19  2  0
 10  9  1  0
 11 10  2  0
 11 12  1  0
 12 18  2  0
 13 12  1  0
 14 13  1  6
 14 16  1  0
 15 14  1  0
 15  6  1  0
 16 17  2  0
 16 25  1  0
 18 19  1  0
 21 22  1  0
 21 20  1  0
 22 23  1  0
 24 23  1  1
 24 26  1  0
 25 24  1  0
 26 27  2  0
 26 28  1  0
M  END
$$$$
