PYM.pdb
     RDKit          3D

 28 29  0  0  1  0  0  0  0  0999 V2000
   28.1154  -20.4174  -15.7993 N   0  0  0  0  0  0  0  0  0  0  0  0
   27.9218  -19.8508  -17.1199 C   0  0  0  0  0  0  0  0  0  0  0  0
   28.6537  -18.5307  -17.1068 C   0  0  0  0  0  0  0  0  0  0  0  0
   28.4809  -18.0661  -15.6968 C   0  0  0  0  0  0  0  0  0  0  0  0
   28.4081  -19.3351  -14.9136 C   0  0  1  0  0  0  0  0  0  0  0  0
   27.4650  -19.2621  -13.7652 C   0  0  0  0  0  0  0  0  0  0  0  0
   27.5078  -18.2907  -12.9675 O   0  0  0  0  0  0  0  0  0  0  0  0
   19.2124  -20.3680  -10.5790 O   0  0  0  0  0  0  0  0  0  0  0  0
   20.4440  -20.5004  -11.2145 C   0  0  0  0  0  0  0  0  0  0  0  0
   21.1418  -21.6857  -11.1022 C   0  0  0  0  0  0  0  0  0  0  0  0
   22.3605  -21.8429  -11.7198 C   0  0  0  0  0  0  0  0  0  0  0  0
   22.9526  -20.8290  -12.4836 C   0  0  0  0  0  0  0  0  0  0  0  0
   24.2519  -20.9672  -13.1064 C   0  0  0  0  0  0  0  0  0  0  0  0
   25.3904  -20.1690  -12.6175 C   0  0  2  0  0  0  0  0  0  0  0  0
   26.5165  -20.3010  -13.5797 N   0  0  0  0  0  0  0  0  0  0  0  0
   25.9062  -20.5972  -11.3135 C   0  0  0  0  0  0  0  0  0  0  0  0
   26.4328  -21.7480  -11.2079 O   0  0  0  0  0  0  0  0  0  0  0  0
   22.2393  -19.6563  -12.5822 C   0  0  0  0  0  0  0  0  0  0  0  0
   21.0019  -19.4862  -11.9594 C   0  0  0  0  0  0  0  0  0  0  0  0
   30.0699  -19.9092   -5.3315 C   0  0  0  0  0  0  0  0  0  0  0  0
   28.5200  -19.0251   -5.6886 S   0  0  0  0  0  0  0  0  0  0  0  0
   27.3901  -20.0161   -6.6559 C   0  0  0  0  0  0  0  0  0  0  0  0
   27.1222  -19.5417   -8.0379 C   0  0  0  0  0  0  0  0  0  0  0  0
   26.2052  -20.4643   -8.8405 C   0  0  2  0  0  0  0  0  0  0  0  0
   25.8813  -19.8243  -10.1154 N   0  0  0  0  0  0  0  0  0  0  0  0
   24.9963  -20.7366   -8.0613 C   0  0  0  0  0  0  0  0  0  0  0  0
   25.0209  -21.4258   -7.0216 O   0  0  0  0  0  0  0  0  0  0  0  0
   23.7351  -20.2394   -8.4311 O   0  0  0  0  0  0  0  0  0  0  0  0
  1  5  1  0
  2  3  1  0
  2  1  1  0
  3  4  1  0
  4  5  1  0
  5  6  1  1
  6  7  2  0
  9  8  1  0
  9 19  2  0
 10  9  1  0
 11 10  2  0
 11 12  1  0
 12 18  2  0
 13 12  1  0
 14 13  1  6
 14 16  1  0
 15 14  1  0
 15  6  1  0
 16 17  2  0
 16 25  1  0
 18 19  1  0
 21 22  1  0
 21 20  1  0
 22 23  1  0
 24 23  1  1
 24 26  1  0
 25 24  1  0
 26 27  2  0
 26 28  1  0
M  END
$$$$
