PYM.pdb
     RDKit          3D

 28 29  0  0  1  0  0  0  0  0999 V2000
   27.8372  -20.8788  -17.5303 N   0  0  0  0  0  0  0  0  0  0  0  0
   29.2370  -20.5010  -17.5245 C   0  0  0  0  0  0  0  0  0  0  0  0
   30.0070  -21.7927  -17.6543 C   0  0  0  0  0  0  0  0  0  0  0  0
   29.1494  -22.7693  -16.9163 C   0  0  0  0  0  0  0  0  0  0  0  0
   27.7659  -22.2439  -17.1143 C   0  0  1  0  0  0  0  0  0  0  0  0
   26.8898  -22.4373  -15.9274 C   0  0  0  0  0  0  0  0  0  0  0  0
   26.6140  -23.5955  -15.5221 O   0  0  0  0  0  0  0  0  0  0  0  0
   23.8671  -20.4281   -7.8022 O   0  0  0  0  0  0  0  0  0  0  0  0
   24.4411  -20.4434   -9.0706 C   0  0  0  0  0  0  0  0  0  0  0  0
   23.7354  -19.9332  -10.1411 C   0  0  0  0  0  0  0  0  0  0  0  0
   24.2790  -19.9362  -11.4044 C   0  0  0  0  0  0  0  0  0  0  0  0
   25.5552  -20.4473  -11.6725 C   0  0  0  0  0  0  0  0  0  0  0  0
   26.1235  -20.4924  -13.0030 C   0  0  0  0  0  0  0  0  0  0  0  0
   25.5772  -21.4252  -14.0049 C   0  0  2  0  0  0  0  0  0  0  0  0
   26.3685  -21.3001  -15.2577 N   0  0  0  0  0  0  0  0  0  0  0  0
   24.1809  -21.1639  -14.3680 C   0  0  0  0  0  0  0  0  0  0  0  0
   23.9206  -20.2107  -15.1656 O   0  0  0  0  0  0  0  0  0  0  0  0
   26.2408  -20.9506  -10.5905 C   0  0  0  0  0  0  0  0  0  0  0  0
   25.6984  -20.9525   -9.3045 C   0  0  0  0  0  0  0  0  0  0  0  0
   17.7349  -24.4318  -13.4332 C   0  0  0  0  0  0  0  0  0  0  0  0
   18.4019  -23.9646  -15.0606 S   0  0  0  0  0  0  0  0  0  0  0  0
   19.4746  -22.5386  -14.9615 C   0  0  0  0  0  0  0  0  0  0  0  0
   20.8569  -22.7918  -14.4801 C   0  0  0  0  0  0  0  0  0  0  0  0
   21.7134  -21.5306  -14.3705 C   0  0  2  0  0  0  0  0  0  0  0  0
   23.0504  -21.9002  -13.9060 N   0  0  0  0  0  0  0  0  0  0  0  0
   21.0716  -20.5927  -13.4479 C   0  0  0  0  0  0  0  0  0  0  0  0
   21.3392  -20.5759  -12.2295 O   0  0  0  0  0  0  0  0  0  0  0  0
   20.1180  -19.6525  -13.8737 O   0  0  0  0  0  0  0  0  0  0  0  0
  1  5  1  0
  2  3  1  0
  2  1  1  0
  3  4  1  0
  4  5  1  0
  5  6  1  1
  6  7  2  0
  9  8  1  0
  9 19  2  0
 10  9  1  0
 11 10  2  0
 11 12  1  0
 12 18  2  0
 13 12  1  0
 14 13  1  1
 14 16  1  0
 15 14  1  0
 15  6  1  0
 16 17  2  0
 16 25  1  0
 18 19  1  0
 21 22  1  0
 21 20  1  0
 22 23  1  0
 24 23  1  1
 24 26  1  0
 25 24  1  0
 26 27  2  0
 26 28  1  0
M  END
$$$$
