PYM.pdb
     RDKit          3D

 28 29  0  0  1  0  0  0  0  0999 V2000
   26.5860  -21.1326  -19.2759 N   0  0  0  0  0  0  0  0  0  0  0  0
   27.6283  -21.3902  -20.2504 C   0  0  0  0  0  0  0  0  0  0  0  0
   26.9300  -21.4440  -21.5875 C   0  0  0  0  0  0  0  0  0  0  0  0
   25.6002  -22.0355  -21.2472 C   0  0  0  0  0  0  0  0  0  0  0  0
   25.3523  -21.5665  -19.8516 C   0  0  1  0  0  0  0  0  0  0  0  0
   24.6493  -22.5729  -19.0110 C   0  0  0  0  0  0  0  0  0  0  0  0
   24.3907  -23.7154  -19.4689 O   0  0  0  0  0  0  0  0  0  0  0  0
   28.5647  -27.2866  -16.8472 O   0  0  0  0  0  0  0  0  0  0  0  0
   27.5568  -26.3687  -16.5642 C   0  0  0  0  0  0  0  0  0  0  0  0
   26.3087  -26.8246  -16.1915 C   0  0  0  0  0  0  0  0  0  0  0  0
   25.2955  -25.9393  -15.9066 C   0  0  0  0  0  0  0  0  0  0  0  0
   25.4681  -24.5511  -15.9769 C   0  0  0  0  0  0  0  0  0  0  0  0
   24.4000  -23.6092  -15.7177 C   0  0  0  0  0  0  0  0  0  0  0  0
   23.5212  -23.1730  -16.8176 C   0  0  2  0  0  0  0  0  0  0  0  0
   24.2735  -22.2294  -17.6865 N   0  0  0  0  0  0  0  0  0  0  0  0
   22.3176  -22.4613  -16.3765 C   0  0  0  0  0  0  0  0  0  0  0  0
   22.4383  -21.3022  -15.8720 O   0  0  0  0  0  0  0  0  0  0  0  0
   26.7203  -24.1191  -16.3502 C   0  0  0  0  0  0  0  0  0  0  0  0
   27.7554  -25.0088  -16.6416 C   0  0  0  0  0  0  0  0  0  0  0  0
   17.1153  -22.4480  -20.8273 C   0  0  0  0  0  0  0  0  0  0  0  0
   17.0411  -22.7977  -19.0431 S   0  0  0  0  0  0  0  0  0  0  0  0
   18.5237  -22.2723  -18.1944 C   0  0  0  0  0  0  0  0  0  0  0  0
   18.5903  -22.5795  -16.7426 C   0  0  0  0  0  0  0  0  0  0  0  0
   19.8705  -22.0899  -16.0660 C   0  0  2  0  0  0  0  0  0  0  0  0
   20.9820  -22.9528  -16.4659 N   0  0  0  0  0  0  0  0  0  0  0  0
   19.6826  -22.1050  -14.6143 C   0  0  0  0  0  0  0  0  0  0  0  0
   20.0122  -23.0842  -13.9150 O   0  0  0  0  0  0  0  0  0  0  0  0
   19.1231  -21.0209  -13.9169 O   0  0  0  0  0  0  0  0  0  0  0  0
  1  5  1  0
  2  3  1  0
  2  1  1  0
  3  4  1  0
  4  5  1  0
  5  6  1  1
  6  7  2  0
  9  8  1  0
  9 19  2  0
 10  9  1  0
 11 10  2  0
 11 12  1  0
 12 18  2  0
 13 12  1  0
 14 13  1  1
 14 16  1  0
 15 14  1  0
 15  6  1  0
 16 17  2  0
 16 25  1  0
 18 19  1  0
 21 22  1  0
 21 20  1  0
 22 23  1  0
 24 23  1  6
 24 26  1  0
 25 24  1  0
 26 27  2  0
 26 28  1  0
M  END
$$$$
