GVL.pdb
     RDKit          3D

 20 19  0  0  1  0  0  0  0  0999 V2000
   18.5730  -15.3797  -16.9192 N   0  0  0  0  0  0  0  0  0  0  0  0
   19.7546  -14.6996  -17.3671 C   0  0  0  0  0  0  0  0  0  0  0  0
   20.2984  -13.7735  -16.3434 C   0  0  0  0  0  0  0  0  0  0  0  0
   19.5736  -13.3994  -15.3803 O   0  0  0  0  0  0  0  0  0  0  0  0
   24.2516  -12.2508  -16.7542 C   0  0  0  0  0  0  0  0  0  0  0  0
   23.6374  -12.3023  -15.3688 C   0  0  1  0  0  0  0  0  0  0  0  0
   24.1578  -11.1926  -14.4867 C   0  0  0  0  0  0  0  0  0  0  0  0
   22.1312  -12.2634  -15.5015 C   0  0  2  0  0  0  0  0  0  0  0  0
   21.6222  -13.2678  -16.3817 N   0  0  0  0  0  0  0  0  0  0  0  0
   21.7130  -10.9312  -16.0049 C   0  0  0  0  0  0  0  0  0  0  0  0
   21.8230  -10.6508  -17.2084 O   0  0  0  0  0  0  0  0  0  0  0  0
   18.8774   -7.0125  -17.5641 C   0  0  0  0  0  0  0  0  0  0  0  0
   18.7340   -7.2589  -16.0753 C   0  0  1  0  0  0  0  0  0  0  0  0
   17.2523   -7.1890  -15.6735 C   0  0  0  0  0  0  0  0  0  0  0  0
   19.2856   -8.6054  -15.6802 C   0  0  0  0  0  0  0  0  0  0  0  0
   20.7951   -8.6030  -15.6020 C   0  0  2  0  0  0  0  0  0  0  0  0
   21.1763   -9.9321  -15.1464 N   0  0  0  0  0  0  0  0  0  0  0  0
   21.2826   -7.6447  -14.5828 C   0  0  0  0  0  0  0  0  0  0  0  0
   21.4408   -6.4036  -14.8428 O   0  0  0  0  0  0  0  0  0  0  0  0
   21.6080   -7.9922  -13.2724 O   0  0  0  0  0  0  0  0  0  0  0  0
  2  1  1  0
  3  2  1  0
  4  3  2  0
  6  5  1  6
  6  8  1  0
  7  6  1  0
  8 10  1  0
  8  9  1  6
  9  3  1  0
 10 17  1  0
 11 10  2  0
 13 12  1  6
 13 14  1  0
 15 13  1  0
 16 15  1  1
 17 16  1  0
 18 20  1  0
 18 16  1  0
 19 18  2  0
M  END
$$$$
