GVL.pdb
     RDKit          3D

 20 19  0  0  1  0  0  0  0  0999 V2000
   12.1706  -13.3192  -11.9319 N   0  0  0  0  0  0  0  0  0  0  0  0
   12.7417  -12.2483  -12.6977 C   0  0  0  0  0  0  0  0  0  0  0  0
   13.8907  -11.6093  -12.0100 C   0  0  0  0  0  0  0  0  0  0  0  0
   14.1009  -11.8358  -10.7864 O   0  0  0  0  0  0  0  0  0  0  0  0
   17.4512  -11.8131  -12.9847 C   0  0  0  0  0  0  0  0  0  0  0  0
   17.2087  -10.3258  -12.8161 C   0  0  1  0  0  0  0  0  0  0  0  0
   17.1822   -9.6110  -14.1460 C   0  0  0  0  0  0  0  0  0  0  0  0
   15.9270  -10.1259  -12.0382 C   0  0  2  0  0  0  0  0  0  0  0  0
   14.7942  -10.7336  -12.6629 N   0  0  0  0  0  0  0  0  0  0  0  0
   15.6642   -8.6735  -11.8824 C   0  0  0  0  0  0  0  0  0  0  0  0
   14.9852   -8.0636  -12.7227 O   0  0  0  0  0  0  0  0  0  0  0  0
   14.9168   -6.4649   -6.9445 C   0  0  0  0  0  0  0  0  0  0  0  0
   14.8120   -6.6793   -8.4415 C   0  0  1  0  0  0  0  0  0  0  0  0
   13.5940   -5.9229   -8.9946 C   0  0  0  0  0  0  0  0  0  0  0  0
   16.0506   -6.2040   -9.1580 C   0  0  0  0  0  0  0  0  0  0  0  0
   15.9958   -6.4880  -10.6416 C   0  0  2  0  0  0  0  0  0  0  0  0
   16.1695   -7.9266  -10.7823 N   0  0  0  0  0  0  0  0  0  0  0  0
   17.1245   -5.8485  -11.3571 C   0  0  0  0  0  0  0  0  0  0  0  0
   18.2265   -6.4610  -11.5658 O   0  0  0  0  0  0  0  0  0  0  0  0
   17.0973   -4.5490  -11.8616 O   0  0  0  0  0  0  0  0  0  0  0  0
  2  1  1  0
  3  2  1  0
  4  3  2  0
  6  5  1  6
  6  8  1  0
  7  6  1  0
  8 10  1  0
  8  9  1  6
  9  3  1  0
 10 17  1  0
 11 10  2  0
 13 12  1  1
 13 14  1  0
 15 13  1  0
 16 15  1  1
 17 16  1  0
 18 20  1  0
 18 16  1  0
 19 18  2  0
M  END
$$$$
