GVL.pdb
     RDKit          3D

 20 19  0  0  1  0  0  0  0  0999 V2000
   24.7057  -11.9842  -15.9839 N   0  0  0  0  0  0  0  0  0  0  0  0
   23.6346  -11.5280  -15.1449 C   0  0  0  0  0  0  0  0  0  0  0  0
   22.8150  -10.4750  -15.7937 C   0  0  0  0  0  0  0  0  0  0  0  0
   23.2596   -9.8588  -16.8014 O   0  0  0  0  0  0  0  0  0  0  0  0
   19.8799  -10.8740  -17.6232 C   0  0  0  0  0  0  0  0  0  0  0  0
   19.4352   -9.8492  -16.5979 C   0  0  1  0  0  0  0  0  0  0  0  0
   18.5574  -10.4676  -15.5361 C   0  0  0  0  0  0  0  0  0  0  0  0
   20.6602   -9.1869  -16.0074 C   0  0  2  0  0  0  0  0  0  0  0  0
   21.5241  -10.1075  -15.3374 N   0  0  0  0  0  0  0  0  0  0  0  0
   20.2401   -8.1389  -15.0440 C   0  0  0  0  0  0  0  0  0  0  0  0
   19.9981   -8.4311  -13.8628 O   0  0  0  0  0  0  0  0  0  0  0  0
   22.2313   -3.1059  -15.6954 C   0  0  0  0  0  0  0  0  0  0  0  0
   21.7111   -4.3851  -15.0701 C   0  0  1  0  0  0  0  0  0  0  0  0
   22.2084   -4.4991  -13.6205 C   0  0  0  0  0  0  0  0  0  0  0  0
   20.2040   -4.4326  -15.0762 C   0  0  0  0  0  0  0  0  0  0  0  0
   19.6718   -5.7277  -14.5066 C   0  0  2  0  0  0  0  0  0  0  0  0
   20.0981   -6.7753  -15.4232 N   0  0  0  0  0  0  0  0  0  0  0  0
   18.1905   -5.7455  -14.4953 C   0  0  0  0  0  0  0  0  0  0  0  0
   17.5120   -6.1732  -15.4901 O   0  0  0  0  0  0  0  0  0  0  0  0
   17.4095   -5.3098  -13.4257 O   0  0  0  0  0  0  0  0  0  0  0  0
  2  1  1  0
  3  2  1  0
  4  3  2  0
  6  5  1  6
  6  8  1  0
  7  6  1  0
  8 10  1  0
  8  9  1  1
  9  3  1  0
 10 17  1  0
 11 10  2  0
 13 12  1  1
 13 14  1  0
 15 13  1  0
 16 15  1  6
 17 16  1  0
 18 20  1  0
 18 16  1  0
 19 18  2  0
M  END
$$$$
