GVL.pdb
     RDKit          3D

 20 19  0  0  1  0  0  0  0  0999 V2000
   21.9685  -17.9580  -16.5445 N   0  0  0  0  0  0  0  0  0  0  0  0
   23.4024  -18.0133  -16.5251 C   0  0  0  0  0  0  0  0  0  0  0  0
   23.9172  -19.0576  -15.6054 C   0  0  0  0  0  0  0  0  0  0  0  0
   23.1540  -19.9796  -15.2050 O   0  0  0  0  0  0  0  0  0  0  0  0
   28.0356  -19.0789  -14.2527 C   0  0  0  0  0  0  0  0  0  0  0  0
   27.2770  -20.3527  -14.5710 C   0  0  1  0  0  0  0  0  0  0  0  0
   27.8084  -21.5287  -13.7868 C   0  0  0  0  0  0  0  0  0  0  0  0
   25.8043  -20.1194  -14.3172 C   0  0  2  0  0  0  0  0  0  0  0  0
   25.2540  -19.0842  -15.1346 N   0  0  0  0  0  0  0  0  0  0  0  0
   25.5984  -19.7620  -12.8914 C   0  0  0  0  0  0  0  0  0  0  0  0
   26.0266  -18.6868  -12.4445 O   0  0  0  0  0  0  0  0  0  0  0  0
   21.0504  -21.3713  -10.4367 C   0  0  0  0  0  0  0  0  0  0  0  0
   22.2765  -20.5729  -10.8330 C   0  0  1  0  0  0  0  0  0  0  0  0
   22.0679  -19.0891  -10.4915 C   0  0  0  0  0  0  0  0  0  0  0  0
   23.5133  -21.0688  -10.1274 C   0  0  0  0  0  0  0  0  0  0  0  0
   24.7566  -20.3311  -10.5691 C   0  0  2  0  0  0  0  0  0  0  0  0
   24.9130  -20.6201  -11.9874 N   0  0  0  0  0  0  0  0  0  0  0  0
   25.9653  -20.8530   -9.8900 C   0  0  0  0  0  0  0  0  0  0  0  0
   26.6371  -21.8318  -10.3632 O   0  0  0  0  0  0  0  0  0  0  0  0
   26.4777  -20.3412   -8.6987 O   0  0  0  0  0  0  0  0  0  0  0  0
  2  1  1  0
  3  2  1  0
  4  3  2  0
  6  5  1  1
  6  8  1  0
  7  6  1  0
  8 10  1  0
  8  9  1  6
  9  3  1  0
 10 17  1  0
 11 10  2  0
 13 12  1  1
 13 14  1  0
 15 13  1  0
 16 15  1  1
 17 16  1  0
 18 20  1  0
 18 16  1  0
 19 18  2  0
M  END
$$$$
