GVL.pdb
     RDKit          3D

 20 19  0  0  1  0  0  0  0  0999 V2000
   28.2989  -20.5464  -15.8593 N   0  0  0  0  0  0  0  0  0  0  0  0
   28.3486  -21.1822  -14.5737 C   0  0  0  0  0  0  0  0  0  0  0  0
   27.5986  -20.4283  -13.5390 C   0  0  0  0  0  0  0  0  0  0  0  0
   27.8337  -19.2021  -13.3551 O   0  0  0  0  0  0  0  0  0  0  0  0
   24.2262  -20.6626  -13.6334 C   0  0  0  0  0  0  0  0  0  0  0  0
   24.3566  -20.1820  -12.2013 C   0  0  1  0  0  0  0  0  0  0  0  0
   23.4281  -20.9307  -11.2752 C   0  0  0  0  0  0  0  0  0  0  0  0
   25.8030  -20.3040  -11.7759 C   0  0  2  0  0  0  0  0  0  0  0  0
   26.6040  -21.0188  -12.7194 N   0  0  0  0  0  0  0  0  0  0  0  0
   25.8766  -20.9970  -10.4654 C   0  0  0  0  0  0  0  0  0  0  0  0
   25.8263  -22.2351  -10.4051 O   0  0  0  0  0  0  0  0  0  0  0  0
   28.4008  -18.3474   -6.4487 C   0  0  0  0  0  0  0  0  0  0  0  0
   27.9152  -19.4781   -7.3339 C   0  0  1  0  0  0  0  0  0  0  0  0
   28.8688  -20.6778   -7.2211 C   0  0  0  0  0  0  0  0  0  0  0  0
   26.5243  -19.9206   -6.9557 C   0  0  0  0  0  0  0  0  0  0  0  0
   25.9601  -20.9264   -7.9329 C   0  0  2  0  0  0  0  0  0  0  0  0
   26.0059  -20.2867   -9.2399 N   0  0  0  0  0  0  0  0  0  0  0  0
   24.5356  -21.2171   -7.6483 C   0  0  0  0  0  0  0  0  0  0  0  0
   23.5885  -20.6567   -8.2978 O   0  0  0  0  0  0  0  0  0  0  0  0
   24.0978  -22.1084   -6.6696 O   0  0  0  0  0  0  0  0  0  0  0  0
  2  1  1  0
  3  2  1  0
  4  3  2  0
  6  5  1  6
  6  8  1  0
  7  6  1  0
  8 10  1  0
  8  9  1  6
  9  3  1  0
 10 17  1  0
 11 10  2  0
 13 12  1  1
 13 14  1  0
 15 13  1  0
 16 15  1  1
 17 16  1  0
 18 20  1  0
 18 16  1  0
 19 18  2  0
M  END
$$$$
