GVL.pdb
     RDKit          3D

 20 19  0  0  1  0  0  0  0  0999 V2000
   29.1676  -21.8793  -17.4447 N   0  0  0  0  0  0  0  0  0  0  0  0
   28.6441  -22.3734  -16.2033 C   0  0  0  0  0  0  0  0  0  0  0  0
   27.8666  -21.3464  -15.4669 C   0  0  0  0  0  0  0  0  0  0  0  0
   28.3763  -20.2163  -15.2306 O   0  0  0  0  0  0  0  0  0  0  0  0
   23.6957  -21.5215  -15.3559 C   0  0  0  0  0  0  0  0  0  0  0  0
   24.4831  -20.2436  -15.1417 C   0  0  1  0  0  0  0  0  0  0  0  0
   23.6516  -19.1842  -14.4587 C   0  0  0  0  0  0  0  0  0  0  0  0
   25.7388  -20.5692  -14.3638 C   0  0  2  0  0  0  0  0  0  0  0  0
   26.5464  -21.5633  -14.9981 N   0  0  0  0  0  0  0  0  0  0  0  0
   25.3708  -21.0472  -13.0077 C   0  0  0  0  0  0  0  0  0  0  0  0
   24.8140  -22.1457  -12.8578 O   0  0  0  0  0  0  0  0  0  0  0  0
   27.5355  -21.4800   -8.7182 C   0  0  0  0  0  0  0  0  0  0  0  0
   26.4605  -20.4815   -8.3370 C   0  0  1  0  0  0  0  0  0  0  0  0
   27.0293  -19.4521   -7.3477 C   0  0  0  0  0  0  0  0  0  0  0  0
   25.9241  -19.7556   -9.5448 C   0  0  0  0  0  0  0  0  0  0  0  0
   25.2180  -20.6872  -10.5032 C   0  0  2  0  0  0  0  0  0  0  0  0
   25.6347  -20.2821  -11.8380 N   0  0  0  0  0  0  0  0  0  0  0  0
   23.7481  -20.5137  -10.4424 C   0  0  0  0  0  0  0  0  0  0  0  0
   23.1514  -19.5765  -11.0738 O   0  0  0  0  0  0  0  0  0  0  0  0
   22.8914  -21.3346   -9.7102 O   0  0  0  0  0  0  0  0  0  0  0  0
  2  1  1  0
  3  2  1  0
  4  3  2  0
  6  5  1  1
  6  8  1  0
  7  6  1  0
  8 10  1  0
  8  9  1  6
  9  3  1  0
 10 17  1  0
 11 10  2  0
 13 12  1  6
 13 14  1  0
 15 13  1  0
 16 15  1  1
 17 16  1  0
 18 20  1  0
 18 16  1  0
 19 18  2  0
M  END
$$$$
