GVL.pdb
     RDKit          3D

 20 19  0  0  1  0  0  0  0  0999 V2000
   28.8889  -22.0681  -16.2232 N   0  0  0  0  0  0  0  0  0  0  0  0
   28.3322  -21.0456  -15.3842 C   0  0  0  0  0  0  0  0  0  0  0  0
   27.1948  -21.5381  -14.5686 C   0  0  0  0  0  0  0  0  0  0  0  0
   26.5292  -22.5398  -14.9512 O   0  0  0  0  0  0  0  0  0  0  0  0
   25.9357  -19.5427  -10.9245 C   0  0  0  0  0  0  0  0  0  0  0  0
   25.9280  -21.0531  -11.0580 C   0  0  1  0  0  0  0  0  0  0  0  0
   24.8763  -21.6851  -10.1778 C   0  0  0  0  0  0  0  0  0  0  0  0
   25.7402  -21.4129  -12.5152 C   0  0  2  0  0  0  0  0  0  0  0  0
   26.7978  -20.9343  -13.3490 N   0  0  0  0  0  0  0  0  0  0  0  0
   24.4563  -20.8499  -13.0024 C   0  0  0  0  0  0  0  0  0  0  0  0
   24.2778  -19.6225  -13.0293 O   0  0  0  0  0  0  0  0  0  0  0  0
   19.5700  -22.9375  -16.1932 C   0  0  0  0  0  0  0  0  0  0  0  0
   20.0920  -21.9244  -15.1937 C   0  0  1  0  0  0  0  0  0  0  0  0
   19.1437  -21.8429  -13.9872 C   0  0  0  0  0  0  0  0  0  0  0  0
   21.4730  -22.2852  -14.7079 C   0  0  0  0  0  0  0  0  0  0  0  0
   22.1220  -21.1547  -13.9426 C   0  0  2  0  0  0  0  0  0  0  0  0
   23.3899  -21.6764  -13.4530 N   0  0  0  0  0  0  0  0  0  0  0  0
   21.3248  -20.7798  -12.7516 C   0  0  0  0  0  0  0  0  0  0  0  0
   20.6678  -19.6851  -12.6952 O   0  0  0  0  0  0  0  0  0  0  0  0
   21.2141  -21.5636  -11.6039 O   0  0  0  0  0  0  0  0  0  0  0  0
  2  1  1  0
  3  2  1  0
  4  3  2  0
  6  5  1  6
  6  8  1  0
  7  6  1  0
  8 10  1  0
  8  9  1  6
  9  3  1  0
 10 17  1  0
 11 10  2  0
 13 12  1  6
 13 14  1  0
 15 13  1  0
 16 15  1  1
 17 16  1  0
 18 20  1  0
 18 16  1  0
 19 18  2  0
M  END
$$$$
