GVL.pdb
     RDKit          3D

 20 19  0  0  1  0  0  0  0  0999 V2000
   16.5819  -17.8294    5.2099 N   0  0  0  0  0  0  0  0  0  0  0  0
   16.5112  -16.5829    5.9174 C   0  0  0  0  0  0  0  0  0  0  0  0
   17.8499  -16.0739    6.3047 C   0  0  0  0  0  0  0  0  0  0  0  0
   18.8706  -16.8009    6.1548 O   0  0  0  0  0  0  0  0  0  0  0  0
   18.3809  -12.4232    8.5371 C   0  0  0  0  0  0  0  0  0  0  0  0
   19.3125  -12.7415    7.3838 C   0  0  1  0  0  0  0  0  0  0  0  0
   20.6936  -12.1745    7.6099 C   0  0  0  0  0  0  0  0  0  0  0  0
   19.3401  -14.2398    7.1787 C   0  0  2  0  0  0  0  0  0  0  0  0
   18.0593  -14.7819    6.8492 N   0  0  0  0  0  0  0  0  0  0  0  0
   19.8343  -14.8992    8.4131 C   0  0  0  0  0  0  0  0  0  0  0  0
   19.0379  -15.2767    9.2863 O   0  0  0  0  0  0  0  0  0  0  0  0
   23.4778  -18.0795   10.9970 C   0  0  0  0  0  0  0  0  0  0  0  0
   23.8959  -16.6400   10.7716 C   0  0  1  0  0  0  0  0  0  0  0  0
   25.4152  -16.5642   10.5533 C   0  0  0  0  0  0  0  0  0  0  0  0
   23.1987  -16.0404    9.5767 C   0  0  0  0  0  0  0  0  0  0  0  0
   21.7337  -15.7797    9.8423 C   0  0  2  0  0  0  0  0  0  0  0  0
   21.2188  -15.1251    8.6482 N   0  0  0  0  0  0  0  0  0  0  0  0
   21.5477  -14.8309   10.9647 C   0  0  0  0  0  0  0  0  0  0  0  0
   21.7019  -13.5709   10.8173 O   0  0  0  0  0  0  0  0  0  0  0  0
   21.1943  -15.2080   12.2596 O   0  0  0  0  0  0  0  0  0  0  0  0
  2  1  1  0
  3  2  1  0
  4  3  2  0
  6  5  1  1
  6  8  1  0
  7  6  1  0
  8 10  1  0
  8  9  1  1
  9  3  1  0
 10 17  1  0
 11 10  2  0
 13 12  1  6
 13 14  1  0
 15 13  1  0
 16 15  1  6
 17 16  1  0
 18 20  1  0
 18 16  1  0
 19 18  2  0
M  END
$$$$
