GVL.pdb
     RDKit          3D

 20 19  0  0  1  0  0  0  0  0999 V2000
   28.0509  -19.3388  -16.3930 N   0  0  0  0  0  0  0  0  0  0  0  0
   28.4638  -20.0319  -15.2062 C   0  0  0  0  0  0  0  0  0  0  0  0
   27.6618  -19.6492  -14.0180 C   0  0  0  0  0  0  0  0  0  0  0  0
   27.7027  -18.4655  -13.5820 O   0  0  0  0  0  0  0  0  0  0  0  0
   24.4444  -22.0841  -12.8555 C   0  0  0  0  0  0  0  0  0  0  0  0
   24.4856  -20.5918  -12.5900 C   0  0  1  0  0  0  0  0  0  0  0  0
   23.5380  -20.1962  -11.4828 C   0  0  0  0  0  0  0  0  0  0  0  0
   25.9120  -20.1895  -12.2876 C   0  0  2  0  0  0  0  0  0  0  0  0
   26.8273  -20.5590  -13.3213 N   0  0  0  0  0  0  0  0  0  0  0  0
   26.3460  -20.8225  -11.0172 C   0  0  0  0  0  0  0  0  0  0  0  0
   26.7070  -22.0093  -10.9973 O   0  0  0  0  0  0  0  0  0  0  0  0
   28.8143  -19.2100   -5.6747 C   0  0  0  0  0  0  0  0  0  0  0  0
   27.8446  -20.1579   -6.3522 C   0  0  1  0  0  0  0  0  0  0  0  0
   26.5598  -20.2773   -5.5174 C   0  0  0  0  0  0  0  0  0  0  0  0
   27.4858  -19.6869   -7.7388 C   0  0  0  0  0  0  0  0  0  0  0  0
   26.7036  -20.7257   -8.5096 C   0  0  2  0  0  0  0  0  0  0  0  0
   26.3677  -20.1109   -9.7858 N   0  0  0  0  0  0  0  0  0  0  0  0
   25.4224  -21.0463   -7.8385 C   0  0  0  0  0  0  0  0  0  0  0  0
   24.3937  -20.2965   -7.9520 O   0  0  0  0  0  0  0  0  0  0  0  0
   25.2162  -22.1689   -7.0378 O   0  0  0  0  0  0  0  0  0  0  0  0
  2  1  1  0
  3  2  1  0
  4  3  2  0
  6  5  1  1
  6  8  1  0
  7  6  1  0
  8 10  1  0
  8  9  1  6
  9  3  1  0
 10 17  1  0
 11 10  2  0
 13 12  1  1
 13 14  1  0
 15 13  1  0
 16 15  1  1
 17 16  1  0
 18 20  1  0
 18 16  1  0
 19 18  2  0
M  END
$$$$
