GVL.pdb
     RDKit          3D

 20 19  0  0  1  0  0  0  0  0999 V2000
   27.9750  -24.0930  -18.5059 N   0  0  0  0  0  0  0  0  0  0  0  0
   27.0173  -23.0755  -18.1790 C   0  0  0  0  0  0  0  0  0  0  0  0
   27.2745  -22.4594  -16.8539 C   0  0  0  0  0  0  0  0  0  0  0  0
   27.8773  -23.1135  -15.9587 O   0  0  0  0  0  0  0  0  0  0  0  0
   28.3141  -18.6200  -16.4178 C   0  0  0  0  0  0  0  0  0  0  0  0
   27.2373  -18.9828  -15.4138 C   0  0  1  0  0  0  0  0  0  0  0  0
   25.9005  -18.3910  -15.7917 C   0  0  0  0  0  0  0  0  0  0  0  0
   27.1764  -20.4889  -15.2869 C   0  0  2  0  0  0  0  0  0  0  0  0
   26.8725  -21.1412  -16.5218 N   0  0  0  0  0  0  0  0  0  0  0  0
   26.1461  -20.8598  -14.2850 C   0  0  0  0  0  0  0  0  0  0  0  0
   25.0451  -21.3006  -14.6489 O   0  0  0  0  0  0  0  0  0  0  0  0
   25.7374  -20.7593   -8.0624 C   0  0  0  0  0  0  0  0  0  0  0  0
   25.1235  -21.1640   -9.3880 C   0  0  1  0  0  0  0  0  0  0  0  0
   23.7993  -20.4143   -9.6022 C   0  0  0  0  0  0  0  0  0  0  0  0
   26.0476  -20.8654  -10.5415 C   0  0  0  0  0  0  0  0  0  0  0  0
   25.3779  -21.0803  -11.8794 C   0  0  2  0  0  0  0  0  0  0  0  0
   26.3692  -20.7294  -12.8862 N   0  0  0  0  0  0  0  0  0  0  0  0
   24.2334  -20.1584  -12.0660 C   0  0  0  0  0  0  0  0  0  0  0  0
   24.3992  -18.9257  -12.3594 O   0  0  0  0  0  0  0  0  0  0  0  0
   22.8963  -20.5340  -11.9442 O   0  0  0  0  0  0  0  0  0  0  0  0
  2  1  1  0
  3  2  1  0
  4  3  2  0
  6  5  1  6
  6  8  1  0
  7  6  1  0
  8 10  1  0
  8  9  1  6
  9  3  1  0
 10 17  1  0
 11 10  2  0
 13 12  1  1
 13 14  1  0
 15 13  1  0
 16 15  1  1
 17 16  1  0
 18 20  1  0
 18 16  1  0
 19 18  2  0
M  END
$$$$
