GVL.pdb
     RDKit          3D

 20 19  0  0  1  0  0  0  0  0999 V2000
   29.3785  -24.4070  -16.3808 N   0  0  0  0  0  0  0  0  0  0  0  0
   28.5611  -23.4461  -17.0649 C   0  0  0  0  0  0  0  0  0  0  0  0
   28.0498  -22.3887  -16.1583 C   0  0  0  0  0  0  0  0  0  0  0  0
   28.3158  -22.4299  -14.9253 O   0  0  0  0  0  0  0  0  0  0  0  0
   27.7920  -18.4699  -17.1331 C   0  0  0  0  0  0  0  0  0  0  0  0
   26.4973  -18.9707  -16.5231 C   0  0  1  0  0  0  0  0  0  0  0  0
   25.4230  -19.1545  -17.5683 C   0  0  0  0  0  0  0  0  0  0  0  0
   26.7777  -20.2496  -15.7657 C   0  0  2  0  0  0  0  0  0  0  0  0
   27.2569  -21.3021  -16.6056 N   0  0  0  0  0  0  0  0  0  0  0  0
   25.5381  -20.7059  -15.0890 C   0  0  0  0  0  0  0  0  0  0  0  0
   24.7377  -21.4491  -15.6771 O   0  0  0  0  0  0  0  0  0  0  0  0
   25.8026  -20.5457   -9.6304 C   0  0  0  0  0  0  0  0  0  0  0  0
   25.5780  -20.9500  -11.0740 C   0  0  1  0  0  0  0  0  0  0  0  0
   25.6066  -22.4813  -11.1993 C   0  0  0  0  0  0  0  0  0  0  0  0
   24.2575  -20.4405  -11.5937 C   0  0  0  0  0  0  0  0  0  0  0  0
   24.0399  -20.7977  -13.0463 C   0  0  2  0  0  0  0  0  0  0  0  0
   25.2160  -20.3192  -13.7585 N   0  0  0  0  0  0  0  0  0  0  0  0
   22.8748  -20.0784  -13.6118 C   0  0  0  0  0  0  0  0  0  0  0  0
   23.0018  -18.9685  -14.2324 O   0  0  0  0  0  0  0  0  0  0  0  0
   21.5583  -20.5292  -13.5263 O   0  0  0  0  0  0  0  0  0  0  0  0
  2  1  1  0
  3  2  1  0
  4  3  2  0
  6  5  1  6
  6  8  1  0
  7  6  1  0
  8 10  1  0
  8  9  1  6
  9  3  1  0
 10 17  1  0
 11 10  2  0
 13 12  1  1
 13 14  1  0
 15 13  1  0
 16 15  1  1
 17 16  1  0
 18 20  1  0
 18 16  1  0
 19 18  2  0
M  END
$$$$
