GVL.pdb
     RDKit          3D

 20 19  0  0  1  0  0  0  0  0999 V2000
   13.8016  -14.7241  -13.6272 N   0  0  0  0  0  0  0  0  0  0  0  0
   13.8606  -13.3683  -14.0936 C   0  0  0  0  0  0  0  0  0  0  0  0
   14.8509  -12.5542  -13.3467 C   0  0  0  0  0  0  0  0  0  0  0  0
   15.4067  -13.0238  -12.3155 O   0  0  0  0  0  0  0  0  0  0  0  0
   18.0115  -11.3062  -14.5463 C   0  0  0  0  0  0  0  0  0  0  0  0
   17.3523  -10.0540  -14.0016 C   0  0  1  0  0  0  0  0  0  0  0  0
   16.8790   -9.1454  -15.1110 C   0  0  0  0  0  0  0  0  0  0  0  0
   16.2242  -10.4589  -13.0788 C   0  0  2  0  0  0  0  0  0  0  0  0
   15.2223  -11.2414  -13.7319 N   0  0  0  0  0  0  0  0  0  0  0  0
   15.5871   -9.2435  -12.5133 C   0  0  0  0  0  0  0  0  0  0  0  0
   14.6124   -8.7237  -13.0781 O   0  0  0  0  0  0  0  0  0  0  0  0
   13.4226   -6.3308   -8.6184 C   0  0  0  0  0  0  0  0  0  0  0  0
   14.9322   -6.4242   -8.5171 C   0  0  1  0  0  0  0  0  0  0  0  0
   15.3533   -6.5151   -7.0420 C   0  0  0  0  0  0  0  0  0  0  0  0
   15.4642   -7.6277   -9.2534 C   0  0  0  0  0  0  0  0  0  0  0  0
   15.4664   -7.4251  -10.7514 C   0  0  2  0  0  0  0  0  0  0  0  0
   16.0559   -8.6291  -11.3191 N   0  0  0  0  0  0  0  0  0  0  0  0
   16.3403   -6.2949  -11.1432 C   0  0  0  0  0  0  0  0  0  0  0  0
   17.6063   -6.4271  -11.2569 O   0  0  0  0  0  0  0  0  0  0  0  0
   15.8806   -5.0082  -11.4208 O   0  0  0  0  0  0  0  0  0  0  0  0
  2  1  1  0
  3  2  1  0
  4  3  2  0
  6  5  1  6
  6  8  1  0
  7  6  1  0
  8 10  1  0
  8  9  1  6
  9  3  1  0
 10 17  1  0
 11 10  2  0
 13 12  1  1
 13 14  1  0
 15 13  1  0
 16 15  1  1
 17 16  1  0
 18 20  1  0
 18 16  1  0
 19 18  2  0
M  END
$$$$
