GVL.pdb
     RDKit          3D

 20 19  0  0  1  0  0  0  0  0999 V2000
   20.9024  -20.7675  -11.5379 N   0  0  0  0  0  0  0  0  0  0  0  0
   22.0240  -19.8838  -11.3949 C   0  0  0  0  0  0  0  0  0  0  0  0
   23.1308  -20.4935  -10.6173 C   0  0  0  0  0  0  0  0  0  0  0  0
   22.8808  -21.1456   -9.5662 O   0  0  0  0  0  0  0  0  0  0  0  0
   27.2895  -19.9498  -11.7204 C   0  0  0  0  0  0  0  0  0  0  0  0
   26.7729  -21.2713  -11.1859 C   0  0  1  0  0  0  0  0  0  0  0  0
   27.8532  -22.0418  -10.4652 C   0  0  0  0  0  0  0  0  0  0  0  0
   25.5773  -21.0045  -10.2985 C   0  0  2  0  0  0  0  0  0  0  0  0
   24.4931  -20.3851  -10.9941 N   0  0  0  0  0  0  0  0  0  0  0  0
   25.9835  -20.1288   -9.1711 C   0  0  0  0  0  0  0  0  0  0  0  0
   25.9032  -18.8950   -9.2727 O   0  0  0  0  0  0  0  0  0  0  0  0
   28.3160  -21.0546   -3.4760 C   0  0  0  0  0  0  0  0  0  0  0  0
   27.8466  -20.0617   -4.5209 C   0  0  1  0  0  0  0  0  0  0  0  0
   29.0411  -19.2489   -5.0445 C   0  0  0  0  0  0  0  0  0  0  0  0
   27.1777  -20.7529   -5.6820 C   0  0  0  0  0  0  0  0  0  0  0  0
   26.9643  -19.8223   -6.8539 C   0  0  2  0  0  0  0  0  0  0  0  0
   26.4748  -20.6540   -7.9439 N   0  0  0  0  0  0  0  0  0  0  0  0
   28.2411  -19.2257   -7.3106 C   0  0  0  0  0  0  0  0  0  0  0  0
   28.5683  -18.0250   -7.0203 O   0  0  0  0  0  0  0  0  0  0  0  0
   29.1887  -19.8976   -8.0817 O   0  0  0  0  0  0  0  0  0  0  0  0
  2  1  1  0
  3  2  1  0
  4  3  2  0
  6  5  1  1
  6  8  1  0
  7  6  1  0
  8 10  1  0
  8  9  1  6
  9  3  1  0
 10 17  1  0
 11 10  2  0
 13 12  1  1
 13 14  1  0
 15 13  1  0
 16 15  1  1
 17 16  1  0
 18 20  1  0
 18 16  1  0
 19 18  2  0
M  END
$$$$
