GVL.pdb
     RDKit          3D

 20 19  0  0  1  0  0  0  0  0999 V2000
   20.8852  -18.7723  -15.5245 N   0  0  0  0  0  0  0  0  0  0  0  0
   21.8200  -17.8027  -15.0294 C   0  0  0  0  0  0  0  0  0  0  0  0
   23.2260  -18.1597  -15.3414 C   0  0  0  0  0  0  0  0  0  0  0  0
   23.5078  -19.3194  -15.7518 O   0  0  0  0  0  0  0  0  0  0  0  0
   25.8251  -15.9747  -17.3222 C   0  0  0  0  0  0  0  0  0  0  0  0
   26.4615  -16.4111  -16.0169 C   0  0  1  0  0  0  0  0  0  0  0  0
   26.5617  -15.2675  -15.0358 C   0  0  0  0  0  0  0  0  0  0  0  0
   25.6739  -17.5739  -15.4553 C   0  0  2  0  0  0  0  0  0  0  0  0
   24.3048  -17.2506  -15.2024 N   0  0  0  0  0  0  0  0  0  0  0  0
   26.2987  -18.0289  -14.1882 C   0  0  0  0  0  0  0  0  0  0  0  0
   26.2398  -17.3236  -13.1693 O   0  0  0  0  0  0  0  0  0  0  0  0
   24.7484  -21.4233  -10.9892 C   0  0  0  0  0  0  0  0  0  0  0  0
   25.8710  -21.2573  -11.9942 C   0  0  1  0  0  0  0  0  0  0  0  0
   25.3169  -21.3778  -13.4225 C   0  0  0  0  0  0  0  0  0  0  0  0
   26.5558  -19.9223  -11.8454 C   0  0  0  0  0  0  0  0  0  0  0  0
   27.6477  -19.7237  -12.8717 C   0  0  2  0  0  0  0  0  0  0  0  0
   26.9818  -19.2723  -14.0851 N   0  0  0  0  0  0  0  0  0  0  0  0
   28.3189  -21.0024  -13.2021 C   0  0  0  0  0  0  0  0  0  0  0  0
   28.1881  -21.5589  -14.3450 O   0  0  0  0  0  0  0  0  0  0  0  0
   29.1393  -21.7073  -12.3223 O   0  0  0  0  0  0  0  0  0  0  0  0
  2  1  1  0
  3  2  1  0
  4  3  2  0
  6  5  1  6
  6  8  1  0
  7  6  1  0
  8 10  1  0
  8  9  1  1
  9  3  1  0
 10 17  1  0
 11 10  2  0
 13 12  1  1
 13 14  1  0
 15 13  1  0
 16 15  1  1
 17 16  1  0
 18 20  1  0
 18 16  1  0
 19 18  2  0
M  END
$$$$
