RHP.pdb
     RDKit          3D

 29 30  0  0  1  0  0  0  0  0999 V2000
    9.1310  -15.4634   13.4614 N   0  0  0  0  0  0  0  0  0  0  0  0
    8.3715  -15.7433   14.6319 C   0  0  0  0  0  0  0  0  0  0  0  0
    7.1723  -15.3349   14.7411 N   0  0  0  0  0  0  0  0  0  0  0  0
    8.9620  -16.4925   15.6999 N   0  0  0  0  0  0  0  0  0  0  0  0
    8.1709  -16.6912   16.8943 C   0  0  0  0  0  0  0  0  0  0  0  0
    7.6984  -15.3650   17.4576 C   0  0  0  0  0  0  0  0  0  0  0  0
    8.5750  -14.9166   18.6106 C   0  0  0  0  0  0  0  0  0  0  0  0
    7.9130  -13.7238   19.2274 C   0  0  2  0  0  0  0  0  0  0  0  0
    8.1353  -12.5088   18.4964 N   0  0  0  0  0  0  0  0  0  0  0  0
    8.2305  -13.5604   20.6777 C   0  0  0  0  0  0  0  0  0  0  0  0
    9.3695  -13.1120   20.9642 O   0  0  0  0  0  0  0  0  0  0  0  0
    6.5705  -15.6681   15.4993 N   0  0  0  0  0  0  0  0  0  0  0  0
    7.3392  -13.8763   21.7071 C   0  0  2  0  0  0  0  0  0  0  0  0
    7.6630  -13.7397   23.1487 C   0  0  0  0  0  0  0  0  0  0  0  0
    6.4953  -13.1946   23.8893 C   0  0  0  0  0  0  0  0  0  0  0  0
    6.7016  -13.0418   25.3493 C   0  0  0  0  0  0  0  0  0  0  0  0
    6.7390  -11.8685   26.0373 N   0  0  0  0  0  0  0  0  0  0  0  0
    6.9742  -12.1297   27.3444 C   0  0  0  0  0  0  0  0  0  0  0  0
    7.0769  -13.4520   27.4328 N   0  0  0  0  0  0  0  0  0  0  0  0
    6.9167  -14.0280   26.2438 C   0  0  0  0  0  0  0  0  0  0  0  0
    8.0426  -15.1096   23.6211 O   0  0  0  0  0  0  0  0  0  0  0  0
    7.2459  -16.0861   23.3099 N   0  0  0  0  0  0  0  0  0  0  0  0
    9.1663  -15.4729   24.3640 C   0  0  0  0  0  0  0  0  0  0  0  0
   10.1913  -14.4913   24.7616 C   0  0  0  0  0  0  0  0  0  0  0  0
   11.4149  -15.3122   25.0910 C   0  0  0  0  0  0  0  0  0  0  0  0
   10.8725  -16.6505   25.5339 C   0  0  1  0  0  0  0  0  0  0  0  0
    9.5002  -16.7663   24.8762 C   0  0  0  0  0  0  0  0  0  0  0  0
    8.5905  -17.2174   25.9708 O   0  0  0  0  0  0  0  0  0  0  0  0
    7.7025  -16.4165   26.3660 O   0  0  0  0  0  0  0  0  0  0  0  0
  2  1  1  0
  3  2  2  0
  4  2  1  0
  5  4  1  0
  6  5  1  0
  7  6  1  0
  8  7  1  0
  8  9  1  6
 10 12  1  0
 10  8  1  0
 11 10  2  0
 13 14  1  6
 13 12  1  0
 14 15  1  0
 15 19  1  0
 15 16  2  0
 16 17  1  0
 18 17  1  0
 19 18  2  0
 20 21  2  0
 20 13  1  0
 22 20  1  0
 23 22  1  0
 24 23  1  0
 24 25  1  0
 25 26  1  0
 26 22  1  0
 26 27  1  1
 28 27  2  0
 29 27  1  0
M  END
$$$$
