RHP.pdb
     RDKit          3D

 29 30  0  0  1  0  0  0  0  0999 V2000
   10.0944  -14.3359   15.9960 N   0  0  0  0  0  0  0  0  0  0  0  0
    9.2283  -13.5725   16.8281 C   0  0  0  0  0  0  0  0  0  0  0  0
    9.4925  -12.3589   17.1004 N   0  0  0  0  0  0  0  0  0  0  0  0
    8.0461  -14.1755   17.3662 N   0  0  0  0  0  0  0  0  0  0  0  0
    7.9482  -14.2872   18.8049 C   0  0  0  0  0  0  0  0  0  0  0  0
    6.7121  -15.0695   19.2043 C   0  0  0  0  0  0  0  0  0  0  0  0
    6.5220  -15.0617   20.7086 C   0  0  0  0  0  0  0  0  0  0  0  0
    7.0949  -16.3429   21.2301 C   0  0  2  0  0  0  0  0  0  0  0  0
    6.6463  -17.5009   20.5106 N   0  0  0  0  0  0  0  0  0  0  0  0
    6.9193  -16.5078   22.7042 C   0  0  0  0  0  0  0  0  0  0  0  0
    5.7421  -16.6347   23.1267 O   0  0  0  0  0  0  0  0  0  0  0  0
    8.9478  -11.8465   17.7996 N   0  0  0  0  0  0  0  0  0  0  0  0
    7.9801  -16.5264   23.6143 C   0  0  2  0  0  0  0  0  0  0  0  0
    7.8023  -16.5390   25.0873 C   0  0  0  0  0  0  0  0  0  0  0  0
    8.3054  -17.8168   25.6559 C   0  0  0  0  0  0  0  0  0  0  0  0
    7.5289  -19.0183   25.2672 C   0  0  0  0  0  0  0  0  0  0  0  0
    6.2177  -19.0453   24.9046 N   0  0  0  0  0  0  0  0  0  0  0  0
    5.8561  -20.3241   24.6479 C   0  0  0  0  0  0  0  0  0  0  0  0
    6.9470  -21.0539   24.8577 N   0  0  0  0  0  0  0  0  0  0  0  0
    7.9716  -20.2917   25.2325 C   0  0  0  0  0  0  0  0  0  0  0  0
    8.5562  -15.3535   25.6072 O   0  0  0  0  0  0  0  0  0  0  0  0
    9.8309  -15.3092   25.3662 N   0  0  0  0  0  0  0  0  0  0  0  0
    8.0495  -14.2715   26.3277 C   0  0  0  0  0  0  0  0  0  0  0  0
    6.6092  -13.9610   26.3621 C   0  0  0  0  0  0  0  0  0  0  0  0
    6.5284  -12.5187   26.8013 C   0  0  0  0  0  0  0  0  0  0  0  0
    7.7713  -12.2990   27.6309 C   0  0  1  0  0  0  0  0  0  0  0  0
    8.7717  -13.3424   27.1413 C   0  0  0  0  0  0  0  0  0  0  0  0
    9.3218  -13.9558   28.3864 O   0  0  0  0  0  0  0  0  0  0  0  0
    8.9873  -15.1394   28.6572 O   0  0  0  0  0  0  0  0  0  0  0  0
  2  1  1  0
  3  2  2  0
  4  2  1  0
  5  4  1  0
  6  5  1  0
  7  6  1  0
  8  7  1  0
  8  9  1  6
 10 12  1  0
 10  8  1  0
 11 10  2  0
 13 14  1  6
 13 12  1  0
 14 15  1  0
 15 19  1  0
 15 16  2  0
 16 17  1  0
 18 17  1  0
 19 18  2  0
 20 21  2  0
 20 13  1  0
 22 20  1  0
 23 22  1  0
 24 23  1  0
 24 25  1  0
 25 26  1  0
 26 22  1  0
 26 27  1  1
 28 27  2  0
 29 27  1  0
M  END
$$$$
