RHP.pdb
     RDKit          3D

 29 30  0  0  1  0  0  0  0  0999 V2000
   12.0876  -20.2778   18.3339 N   0  0  0  0  0  0  0  0  0  0  0  0
   12.3124  -21.5820   18.8571 C   0  0  0  0  0  0  0  0  0  0  0  0
   12.9047  -22.4672   18.1626 N   0  0  0  0  0  0  0  0  0  0  0  0
   11.8674  -21.9036   20.1797 N   0  0  0  0  0  0  0  0  0  0  0  0
   11.1026  -20.9023   20.8898 C   0  0  0  0  0  0  0  0  0  0  0  0
   12.0116  -19.8333   21.4645 C   0  0  0  0  0  0  0  0  0  0  0  0
   11.2158  -18.7848   22.2169 C   0  0  0  0  0  0  0  0  0  0  0  0
   11.2512  -17.5336   21.3955 C   0  0  2  0  0  0  0  0  0  0  0  0
   12.5177  -17.3065   20.7597 N   0  0  0  0  0  0  0  0  0  0  0  0
   10.7854  -16.3270   22.1427 C   0  0  0  0  0  0  0  0  0  0  0  0
   11.6728  -15.5605   22.5960 O   0  0  0  0  0  0  0  0  0  0  0  0
   13.1517  -23.3746   18.5673 N   0  0  0  0  0  0  0  0  0  0  0  0
    9.4388  -16.0190   22.3562 C   0  0  1  0  0  0  0  0  0  0  0  0
    8.9744  -14.8051   23.0719 C   0  0  0  0  0  0  0  0  0  0  0  0
    7.5870  -14.4646   22.6617 C   0  0  0  0  0  0  0  0  0  0  0  0
    7.4303  -14.1159   21.2295 C   0  0  0  0  0  0  0  0  0  0  0  0
    8.1003  -13.1373   20.5625 N   0  0  0  0  0  0  0  0  0  0  0  0
    7.6689  -13.1012   19.2801 C   0  0  0  0  0  0  0  0  0  0  0  0
    6.7464  -14.0534   19.1853 N   0  0  0  0  0  0  0  0  0  0  0  0
    6.5819  -14.6819   20.3469 C   0  0  0  0  0  0  0  0  0  0  0  0
    9.0702  -15.1218   24.5330 O   0  0  0  0  0  0  0  0  0  0  0  0
    9.3057  -16.3563   24.8579 N   0  0  0  0  0  0  0  0  0  0  0  0
    8.9385  -14.2395   25.6057 C   0  0  0  0  0  0  0  0  0  0  0  0
    8.4303  -12.8672   25.4312 C   0  0  0  0  0  0  0  0  0  0  0  0
    8.8885  -12.1191   26.6600 C   0  0  0  0  0  0  0  0  0  0  0  0
    9.0000  -13.1751   27.7341 C   0  0  2  0  0  0  0  0  0  0  0  0
    9.2175  -14.4880   26.9867 C   0  0  0  0  0  0  0  0  0  0  0  0
    8.2615  -15.4468   27.6159 O   0  0  0  0  0  0  0  0  0  0  0  0
    7.2188  -15.7444   26.9753 O   0  0  0  0  0  0  0  0  0  0  0  0
  2  1  1  0
  3  2  2  0
  4  2  1  0
  5  4  1  0
  6  5  1  0
  7  6  1  0
  8  7  1  0
  8  9  1  1
 10 12  1  0
 10  8  1  0
 11 10  2  0
 13 14  1  6
 13 12  1  0
 14 15  1  0
 15 19  1  0
 15 16  2  0
 16 17  1  0
 18 17  1  0
 19 18  2  0
 20 21  2  0
 20 13  1  0
 22 20  1  0
 23 22  1  0
 24 23  1  0
 24 25  1  0
 25 26  1  0
 26 22  1  0
 26 27  1  1
 28 27  2  0
 29 27  1  0
M  END
$$$$
