RHP.pdb
     RDKit          3D

 29 30  0  0  1  0  0  0  0  0999 V2000
    7.9741  -15.4464   16.6800 N   0  0  0  0  0  0  0  0  0  0  0  0
    7.9198  -14.1229   16.1599 C   0  0  0  0  0  0  0  0  0  0  0  0
    7.7353  -13.9201   14.9182 N   0  0  0  0  0  0  0  0  0  0  0  0
    8.0749  -13.0056   17.0421 N   0  0  0  0  0  0  0  0  0  0  0  0
    7.8514  -13.2319   18.4531 C   0  0  0  0  0  0  0  0  0  0  0  0
    8.6394  -14.4323   18.9404 C   0  0  0  0  0  0  0  0  0  0  0  0
    8.8317  -14.3870   20.4437 C   0  0  0  0  0  0  0  0  0  0  0  0
    8.3625  -15.7012   20.9861 C   0  0  2  0  0  0  0  0  0  0  0  0
    7.5450  -16.4375   20.0645 N   0  0  0  0  0  0  0  0  0  0  0  0
    7.7145  -15.5856   22.3269 C   0  0  0  0  0  0  0  0  0  0  0  0
    6.4767  -15.3664   22.3440 O   0  0  0  0  0  0  0  0  0  0  0  0
    7.6870  -12.9690   14.5424 N   0  0  0  0  0  0  0  0  0  0  0  0
    8.4061  -15.7069   23.5356 C   0  0  1  0  0  0  0  0  0  0  0  0
    7.8186  -15.3785   24.8579 C   0  0  0  0  0  0  0  0  0  0  0  0
    6.6234  -16.2240   25.1148 C   0  0  0  0  0  0  0  0  0  0  0  0
    6.8646  -17.6840   25.0269 C   0  0  0  0  0  0  0  0  0  0  0  0
    6.9503  -18.4171   23.8838 N   0  0  0  0  0  0  0  0  0  0  0  0
    7.1489  -19.7167   24.2058 C   0  0  0  0  0  0  0  0  0  0  0  0
    7.1804  -19.7560   25.5341 N   0  0  0  0  0  0  0  0  0  0  0  0
    7.0113  -18.5434   26.0559 C   0  0  0  0  0  0  0  0  0  0  0  0
    8.9032  -15.6125   25.8643 O   0  0  0  0  0  0  0  0  0  0  0  0
    9.7131  -16.6027   25.6439 N   0  0  0  0  0  0  0  0  0  0  0  0
    9.1571  -14.8843   27.0271 C   0  0  0  0  0  0  0  0  0  0  0  0
    8.2598  -13.8099   27.4881 C   0  0  0  0  0  0  0  0  0  0  0  0
    9.0927  -12.9827   28.4377 C   0  0  0  0  0  0  0  0  0  0  0  0
   10.1115  -13.9476   28.9964 C   0  0  2  0  0  0  0  0  0  0  0  0
   10.2389  -15.0500   27.9486 C   0  0  0  0  0  0  0  0  0  0  0  0
   10.1601  -16.3232   28.7243 O   0  0  0  0  0  0  0  0  0  0  0  0
   11.1383  -16.6280   29.4567 O   0  0  0  0  0  0  0  0  0  0  0  0
  2  1  1  0
  3  2  2  0
  4  2  1  0
  5  4  1  0
  6  5  1  0
  7  6  1  0
  8  7  1  0
  8  9  1  6
 10 12  1  0
 10  8  1  0
 11 10  2  0
 13 14  1  1
 13 12  1  0
 14 15  1  0
 15 19  1  0
 15 16  2  0
 16 17  1  0
 18 17  1  0
 19 18  2  0
 20 21  2  0
 20 13  1  0
 22 20  1  0
 23 22  1  0
 24 23  1  0
 24 25  1  0
 25 26  1  0
 26 22  1  0
 26 27  1  1
 28 27  2  0
 29 27  1  0
M  END
$$$$
