RHP.pdb
     RDKit          3D

 29 30  0  0  1  0  0  0  0  0999 V2000
    9.4298  -12.5321   18.6211 N   0  0  0  0  0  0  0  0  0  0  0  0
    8.7417  -13.4343   17.7622 C   0  0  0  0  0  0  0  0  0  0  0  0
    7.6127  -13.1249   17.2656 N   0  0  0  0  0  0  0  0  0  0  0  0
    9.3246  -14.7052   17.4525 N   0  0  0  0  0  0  0  0  0  0  0  0
   10.5536  -15.0593   18.1276 C   0  0  0  0  0  0  0  0  0  0  0  0
   10.2680  -15.8100   19.4138 C   0  0  0  0  0  0  0  0  0  0  0  0
   11.5526  -16.2604   20.0814 C   0  0  0  0  0  0  0  0  0  0  0  0
   11.1652  -17.0130   21.3163 C   0  0  2  0  0  0  0  0  0  0  0  0
   10.2048  -18.0511   21.0716 N   0  0  0  0  0  0  0  0  0  0  0  0
   10.7407  -16.1226   22.4379 C   0  0  0  0  0  0  0  0  0  0  0  0
   11.5514  -15.2305   22.7947 O   0  0  0  0  0  0  0  0  0  0  0  0
    7.1171  -13.7702   16.6443 N   0  0  0  0  0  0  0  0  0  0  0  0
    9.5114  -16.2340   23.0939 C   0  0  1  0  0  0  0  0  0  0  0  0
    9.0696  -15.3215   24.1773 C   0  0  0  0  0  0  0  0  0  0  0  0
    7.5867  -15.3221   24.2784 C   0  0  0  0  0  0  0  0  0  0  0  0
    7.0277  -14.3244   25.2215 C   0  0  0  0  0  0  0  0  0  0  0  0
    7.3232  -12.9966   25.2553 N   0  0  0  0  0  0  0  0  0  0  0  0
    6.6395  -12.4171   26.2696 C   0  0  0  0  0  0  0  0  0  0  0  0
    5.9414  -13.3960   26.8365 N   0  0  0  0  0  0  0  0  0  0  0  0
    6.1566  -14.5579   26.2243 C   0  0  0  0  0  0  0  0  0  0  0  0
    9.7218  -15.8183   25.4310 O   0  0  0  0  0  0  0  0  0  0  0  0
   10.1221  -17.0531   25.4419 N   0  0  0  0  0  0  0  0  0  0  0  0
    9.9589  -15.1061   26.6071 C   0  0  0  0  0  0  0  0  0  0  0  0
    9.5083  -13.7138   26.7820 C   0  0  0  0  0  0  0  0  0  0  0  0
   10.3458  -13.1689   27.9140 C   0  0  0  0  0  0  0  0  0  0  0  0
   10.6953  -14.3772   28.7502 C   0  0  2  0  0  0  0  0  0  0  0  0
   10.6069  -15.5658   27.7969 C   0  0  0  0  0  0  0  0  0  0  0  0
    9.8143  -16.5906   28.5389 O   0  0  0  0  0  0  0  0  0  0  0  0
    8.6584  -16.8598   28.1173 O   0  0  0  0  0  0  0  0  0  0  0  0
  2  1  1  0
  3  2  2  0
  4  2  1  0
  5  4  1  0
  6  5  1  0
  7  6  1  0
  8  7  1  0
  8  9  1  6
 10 12  1  0
 10  8  1  0
 11 10  2  0
 13 14  1  1
 13 12  1  0
 14 15  1  0
 15 19  1  0
 15 16  2  0
 16 17  1  0
 18 17  1  0
 19 18  2  0
 20 21  2  0
 20 13  1  0
 22 20  1  0
 23 22  1  0
 24 23  1  0
 24 25  1  0
 25 26  1  0
 26 22  1  0
 26 27  1  1
 28 27  2  0
 29 27  1  0
M  END
$$$$
