RHP.pdb
     RDKit          3D

 29 30  0  0  1  0  0  0  0  0999 V2000
   10.6002  -13.1248   17.1554 N   0  0  0  0  0  0  0  0  0  0  0  0
    9.2363  -13.5233   17.2342 C   0  0  0  0  0  0  0  0  0  0  0  0
    8.4314  -13.2762   16.2813 N   0  0  0  0  0  0  0  0  0  0  0  0
    8.7626  -14.2096   18.3983 N   0  0  0  0  0  0  0  0  0  0  0  0
    7.3393  -14.4441   18.5032 C   0  0  0  0  0  0  0  0  0  0  0  0
    7.0155  -15.2682   19.7342 C   0  0  0  0  0  0  0  0  0  0  0  0
    7.1030  -14.4284   20.9936 C   0  0  0  0  0  0  0  0  0  0  0  0
    8.3016  -14.9027   21.7552 C   0  0  2  0  0  0  0  0  0  0  0  0
    9.0550  -15.9079   21.0612 N   0  0  0  0  0  0  0  0  0  0  0  0
    7.9816  -15.3207   23.1530 C   0  0  0  0  0  0  0  0  0  0  0  0
    7.3320  -14.5058   23.8563 O   0  0  0  0  0  0  0  0  0  0  0  0
    7.4507  -13.5653   16.3333 N   0  0  0  0  0  0  0  0  0  0  0  0
    8.3631  -16.5483   23.7021 C   0  0  1  0  0  0  0  0  0  0  0  0
    8.1350  -16.9239   25.1192 C   0  0  0  0  0  0  0  0  0  0  0  0
    8.0166  -18.3998   25.2482 C   0  0  0  0  0  0  0  0  0  0  0  0
    7.9580  -18.8991   26.6427 C   0  0  0  0  0  0  0  0  0  0  0  0
    6.8460  -18.9748   27.4233 N   0  0  0  0  0  0  0  0  0  0  0  0
    7.1921  -19.4548   28.6406 C   0  0  0  0  0  0  0  0  0  0  0  0
    8.5037  -19.6628   28.5841 N   0  0  0  0  0  0  0  0  0  0  0  0
    8.9922  -19.3360   27.3901 C   0  0  0  0  0  0  0  0  0  0  0  0
    9.3019  -16.3813   25.8861 O   0  0  0  0  0  0  0  0  0  0  0  0
   10.4787  -16.8292   25.5704 N   0  0  0  0  0  0  0  0  0  0  0  0
    9.2810  -15.4366   26.9125 C   0  0  0  0  0  0  0  0  0  0  0  0
    8.0526  -14.7109   27.2820 C   0  0  0  0  0  0  0  0  0  0  0  0
    8.5275  -13.4954   28.0414 C   0  0  0  0  0  0  0  0  0  0  0  0
    9.8429  -13.9143   28.6542 C   0  0  1  0  0  0  0  0  0  0  0  0
   10.3596  -15.0427   27.7659 C   0  0  0  0  0  0  0  0  0  0  0  0
   10.7776  -16.1148   28.7172 O   0  0  0  0  0  0  0  0  0  0  0  0
   10.0913  -17.1701   28.7535 O   0  0  0  0  0  0  0  0  0  0  0  0
  2  1  1  0
  3  2  2  0
  4  2  1  0
  5  4  1  0
  6  5  1  0
  7  6  1  0
  8  7  1  0
  8  9  1  6
 10 12  1  0
 10  8  1  0
 11 10  2  0
 13 14  1  1
 13 12  1  0
 14 15  1  0
 15 19  1  0
 15 16  2  0
 16 17  1  0
 18 17  1  0
 19 18  2  0
 20 21  2  0
 20 13  1  0
 22 20  1  0
 23 22  1  0
 24 23  1  0
 24 25  1  0
 25 26  1  0
 26 22  1  0
 26 27  1  1
 28 27  2  0
 29 27  1  0
M  END
$$$$
