RHP.pdb
     RDKit          3D

 29 30  0  0  1  0  0  0  0  0999 V2000
    8.5487  -13.7968   15.2285 N   0  0  0  0  0  0  0  0  0  0  0  0
    8.8619  -13.7520   16.6160 C   0  0  0  0  0  0  0  0  0  0  0  0
    9.9748  -14.1929   17.0451 N   0  0  0  0  0  0  0  0  0  0  0  0
    7.9152  -13.2056   17.5410 N   0  0  0  0  0  0  0  0  0  0  0  0
    8.2466  -13.2609   18.9478 C   0  0  0  0  0  0  0  0  0  0  0  0
    8.1590  -14.6821   19.4692 C   0  0  0  0  0  0  0  0  0  0  0  0
    7.1113  -14.8016   20.5587 C   0  0  0  0  0  0  0  0  0  0  0  0
    7.1192  -16.2256   21.0211 C   0  0  2  0  0  0  0  0  0  0  0  0
    6.2118  -17.0652   20.2920 N   0  0  0  0  0  0  0  0  0  0  0  0
    6.9345  -16.3651   22.4967 C   0  0  0  0  0  0  0  0  0  0  0  0
    5.7524  -16.3691   22.9246 O   0  0  0  0  0  0  0  0  0  0  0  0
   10.1994  -14.1700   18.0437 N   0  0  0  0  0  0  0  0  0  0  0  0
    7.9920  -16.4881   23.4025 C   0  0  2  0  0  0  0  0  0  0  0  0
    7.8100  -16.6164   24.8695 C   0  0  0  0  0  0  0  0  0  0  0  0
    8.1523  -17.9933   25.3124 C   0  0  0  0  0  0  0  0  0  0  0  0
    7.2074  -19.0435   24.8634 C   0  0  0  0  0  0  0  0  0  0  0  0
    5.8492  -18.9625   24.8787 N   0  0  0  0  0  0  0  0  0  0  0  0
    5.3317  -20.1258   24.4193 C   0  0  0  0  0  0  0  0  0  0  0  0
    6.3773  -20.8949   24.1331 N   0  0  0  0  0  0  0  0  0  0  0  0
    7.5220  -20.2671   24.3914 C   0  0  0  0  0  0  0  0  0  0  0  0
    8.7011  -15.5849   25.4907 O   0  0  0  0  0  0  0  0  0  0  0  0
    9.9658  -15.6435   25.2038 N   0  0  0  0  0  0  0  0  0  0  0  0
    8.3342  -14.5499   26.3514 C   0  0  0  0  0  0  0  0  0  0  0  0
    6.9316  -14.1265   26.5114 C   0  0  0  0  0  0  0  0  0  0  0  0
    7.0049  -12.7392   27.1027 C   0  0  0  0  0  0  0  0  0  0  0  0
    8.3067  -12.7156   27.8683 C   0  0  1  0  0  0  0  0  0  0  0  0
    9.1809  -13.7786   27.2088 C   0  0  0  0  0  0  0  0  0  0  0  0
    9.7422  -14.5681   28.3449 O   0  0  0  0  0  0  0  0  0  0  0  0
    9.3063  -15.7364   28.5222 O   0  0  0  0  0  0  0  0  0  0  0  0
  2  1  1  0
  3  2  2  0
  4  2  1  0
  5  4  1  0
  6  5  1  0
  7  6  1  0
  8  7  1  0
  8  9  1  6
 10 12  1  0
 10  8  1  0
 11 10  2  0
 13 14  1  6
 13 12  1  0
 14 15  1  0
 15 19  1  0
 15 16  2  0
 16 17  1  0
 18 17  1  0
 19 18  2  0
 20 21  2  0
 20 13  1  0
 22 20  1  0
 23 22  1  0
 24 23  1  0
 24 25  1  0
 25 26  1  0
 26 22  1  0
 26 27  1  1
 28 27  2  0
 29 27  1  0
M  END
$$$$
