RHP.pdb
     RDKit          3D

 29 30  0  0  1  0  0  0  0  0999 V2000
   11.0307  -15.5259   14.5040 N   0  0  0  0  0  0  0  0  0  0  0  0
   11.3823  -16.0594   15.7757 C   0  0  0  0  0  0  0  0  0  0  0  0
   11.6301  -17.2989   15.9140 N   0  0  0  0  0  0  0  0  0  0  0  0
   11.4579  -15.1932   16.9135 N   0  0  0  0  0  0  0  0  0  0  0  0
   10.3521  -15.2155   17.8454 C   0  0  0  0  0  0  0  0  0  0  0  0
    9.5564  -13.9267   17.7724 C   0  0  0  0  0  0  0  0  0  0  0  0
    8.8704  -13.6316   19.0919 C   0  0  0  0  0  0  0  0  0  0  0  0
    7.7626  -14.6274   19.2432 C   0  0  2  0  0  0  0  0  0  0  0  0
    6.6166  -14.3307   18.4318 N   0  0  0  0  0  0  0  0  0  0  0  0
    7.3819  -14.8706   20.6670 C   0  0  0  0  0  0  0  0  0  0  0  0
    6.6362  -14.0169   21.2107 O   0  0  0  0  0  0  0  0  0  0  0  0
   11.8887  -17.6846   16.8264 N   0  0  0  0  0  0  0  0  0  0  0  0
    7.8076  -15.9787   21.4051 C   0  0  2  0  0  0  0  0  0  0  0  0
    7.3891  -16.2480   22.8029 C   0  0  0  0  0  0  0  0  0  0  0  0
    7.3166  -17.7126   23.0457 C   0  0  0  0  0  0  0  0  0  0  0  0
    7.1174  -18.0984   24.4630 C   0  0  0  0  0  0  0  0  0  0  0  0
    6.3645  -17.4314   25.3795 N   0  0  0  0  0  0  0  0  0  0  0  0
    6.4476  -18.0708   26.5696 C   0  0  0  0  0  0  0  0  0  0  0  0
    7.2467  -19.1125   26.3618 N   0  0  0  0  0  0  0  0  0  0  0  0
    7.6656  -19.1538   25.0992 C   0  0  0  0  0  0  0  0  0  0  0  0
    8.4056  -15.5798   23.6772 O   0  0  0  0  0  0  0  0  0  0  0  0
    9.6552  -15.8354   23.4356 N   0  0  0  0  0  0  0  0  0  0  0  0
    8.1724  -14.7001   24.7347 C   0  0  0  0  0  0  0  0  0  0  0  0
    6.8250  -14.1889   25.0436 C   0  0  0  0  0  0  0  0  0  0  0  0
    7.0556  -12.9534   25.8803 C   0  0  0  0  0  0  0  0  0  0  0  0
    8.3781  -13.1961   26.5684 C   0  0  1  0  0  0  0  0  0  0  0  0
    9.1197  -14.1883   25.6767 C   0  0  0  0  0  0  0  0  0  0  0  0
    9.6372  -15.2289   26.6139 O   0  0  0  0  0  0  0  0  0  0  0  0
    9.0794  -16.3581   26.6061 O   0  0  0  0  0  0  0  0  0  0  0  0
  2  1  1  0
  3  2  2  0
  4  2  1  0
  5  4  1  0
  6  5  1  0
  7  6  1  0
  8  7  1  0
  8  9  1  6
 10 12  1  0
 10  8  1  0
 11 10  2  0
 13 14  1  6
 13 12  1  0
 14 15  1  0
 15 19  1  0
 15 16  2  0
 16 17  1  0
 18 17  1  0
 19 18  2  0
 20 21  2  0
 20 13  1  0
 22 20  1  0
 23 22  1  0
 24 23  1  0
 24 25  1  0
 25 26  1  0
 26 22  1  0
 26 27  1  1
 28 27  2  0
 29 27  1  0
M  END
$$$$
