RHP.pdb
     RDKit          3D

 29 30  0  0  1  0  0  0  0  0999 V2000
    4.1759  -24.7061   24.9553 N   0  0  0  0  0  0  0  0  0  0  0  0
    2.9627  -24.2223   24.3904 C   0  0  0  0  0  0  0  0  0  0  0  0
    1.8647  -24.8315   24.5907 N   0  0  0  0  0  0  0  0  0  0  0  0
    2.9758  -23.0371   23.5868 N   0  0  0  0  0  0  0  0  0  0  0  0
    4.1169  -22.8276   22.7230 C   0  0  0  0  0  0  0  0  0  0  0  0
    5.2181  -22.0823   23.4518 C   0  0  0  0  0  0  0  0  0  0  0  0
    5.2804  -20.6322   23.0132 C   0  0  0  0  0  0  0  0  0  0  0  0
    6.2369  -20.5620   21.8635 C   0  0  2  0  0  0  0  0  0  0  0  0
    7.1031  -21.7029   21.7740 N   0  0  0  0  0  0  0  0  0  0  0  0
    7.0050  -19.2818   21.8158 C   0  0  0  0  0  0  0  0  0  0  0  0
    8.1531  -19.2873   22.3279 O   0  0  0  0  0  0  0  0  0  0  0  0
    0.9959  -24.5050   24.1585 N   0  0  0  0  0  0  0  0  0  0  0  0
    6.5161  -18.1052   21.2410 C   0  0  2  0  0  0  0  0  0  0  0  0
    7.2919  -16.8429   21.1609 C   0  0  0  0  0  0  0  0  0  0  0  0
    6.6096  -15.8753   20.2624 C   0  0  0  0  0  0  0  0  0  0  0  0
    7.3358  -14.5993   20.0571 C   0  0  0  0  0  0  0  0  0  0  0  0
    7.0599  -13.4114   20.6606 N   0  0  0  0  0  0  0  0  0  0  0  0
    7.9188  -12.4718   20.2007 C   0  0  0  0  0  0  0  0  0  0  0  0
    8.7010  -13.0981   19.3274 N   0  0  0  0  0  0  0  0  0  0  0  0
    8.3716  -14.3831   19.2208 C   0  0  0  0  0  0  0  0  0  0  0  0
    7.3997  -16.3315   22.5648 O   0  0  0  0  0  0  0  0  0  0  0  0
    6.3436  -16.4272   23.3135 N   0  0  0  0  0  0  0  0  0  0  0  0
    8.5136  -15.7580   23.1787 C   0  0  0  0  0  0  0  0  0  0  0  0
    9.7751  -15.5287   22.4521 C   0  0  0  0  0  0  0  0  0  0  0  0
   10.8248  -15.3732   23.5261 C   0  0  0  0  0  0  0  0  0  0  0  0
   10.0745  -14.8380   24.7227 C   0  0  2  0  0  0  0  0  0  0  0  0
    8.6286  -15.2843   24.5238 C   0  0  0  0  0  0  0  0  0  0  0  0
    7.8133  -14.0616   24.7876 O   0  0  0  0  0  0  0  0  0  0  0  0
    7.6597  -13.7035   25.9853 O   0  0  0  0  0  0  0  0  0  0  0  0
  2  1  1  0
  3  2  2  0
  4  2  1  0
  5  4  1  0
  6  5  1  0
  7  6  1  0
  8  7  1  0
  8  9  1  1
 10 12  1  0
 10  8  1  0
 11 10  2  0
 13 14  1  6
 13 12  1  0
 14 15  1  0
 15 19  1  0
 15 16  2  0
 16 17  1  0
 18 17  1  0
 19 18  2  0
 20 21  2  0
 20 13  1  0
 22 20  1  0
 23 22  1  0
 24 23  1  0
 24 25  1  0
 25 26  1  0
 26 22  1  0
 26 27  1  6
 28 27  2  0
 29 27  1  0
M  END
$$$$
