RHP.pdb
     RDKit          3D

 29 30  0  0  1  0  0  0  0  0999 V2000
    7.7060  -14.5720   14.9692 N   0  0  0  0  0  0  0  0  0  0  0  0
    8.2183  -14.6194   16.2960 C   0  0  0  0  0  0  0  0  0  0  0  0
    9.1087  -13.7959   16.6782 N   0  0  0  0  0  0  0  0  0  0  0  0
    7.7280  -15.6044   17.2125 N   0  0  0  0  0  0  0  0  0  0  0  0
    8.3382  -15.6613   18.5225 C   0  0  0  0  0  0  0  0  0  0  0  0
    9.7680  -16.1582   18.4327 C   0  0  0  0  0  0  0  0  0  0  0  0
   10.6551  -15.4586   19.4440 C   0  0  0  0  0  0  0  0  0  0  0  0
   10.6103  -16.2690   20.7021 C   0  0  2  0  0  0  0  0  0  0  0  0
    9.7831  -17.4371   20.5969 N   0  0  0  0  0  0  0  0  0  0  0  0
   10.2700  -15.4595   21.9104 C   0  0  0  0  0  0  0  0  0  0  0  0
   10.9111  -14.3914   22.0791 O   0  0  0  0  0  0  0  0  0  0  0  0
    9.4780  -13.0867   16.0388 N   0  0  0  0  0  0  0  0  0  0  0  0
    9.2937  -15.8275   22.8406 C   0  0  1  0  0  0  0  0  0  0  0  0
    8.9026  -14.9888   24.0004 C   0  0  0  0  0  0  0  0  0  0  0  0
    7.4238  -14.9728   24.1490 C   0  0  0  0  0  0  0  0  0  0  0  0
    6.9195  -14.1233   25.2542 C   0  0  0  0  0  0  0  0  0  0  0  0
    6.1811  -14.5424   26.3175 N   0  0  0  0  0  0  0  0  0  0  0  0
    5.8860  -13.4769   27.0984 C   0  0  0  0  0  0  0  0  0  0  0  0
    6.4456  -12.4293   26.5016 N   0  0  0  0  0  0  0  0  0  0  0  0
    7.0759  -12.7902   25.3864 C   0  0  0  0  0  0  0  0  0  0  0  0
    9.5841  -15.5856   25.1936 O   0  0  0  0  0  0  0  0  0  0  0  0
    9.9455  -16.8295   25.1094 N   0  0  0  0  0  0  0  0  0  0  0  0
    9.8863  -14.9592   26.4031 C   0  0  0  0  0  0  0  0  0  0  0  0
    9.5164  -13.5581   26.6716 C   0  0  0  0  0  0  0  0  0  0  0  0
   10.4078  -13.1277   27.8117 C   0  0  0  0  0  0  0  0  0  0  0  0
   10.7097  -14.4011   28.5657 C   0  0  2  0  0  0  0  0  0  0  0  0
   10.5350  -15.5236   27.5465 C   0  0  0  0  0  0  0  0  0  0  0  0
    9.7048  -16.5478   28.2470 O   0  0  0  0  0  0  0  0  0  0  0  0
    8.5351  -16.7469   27.8246 O   0  0  0  0  0  0  0  0  0  0  0  0
  2  1  1  0
  3  2  2  0
  4  2  1  0
  5  4  1  0
  6  5  1  0
  7  6  1  0
  8  7  1  0
  8  9  1  6
 10 12  1  0
 10  8  1  0
 11 10  2  0
 13 14  1  1
 13 12  1  0
 14 15  1  0
 15 19  1  0
 15 16  2  0
 16 17  1  0
 18 17  1  0
 19 18  2  0
 20 21  2  0
 20 13  1  0
 22 20  1  0
 23 22  1  0
 24 23  1  0
 24 25  1  0
 25 26  1  0
 26 22  1  0
 26 27  1  1
 28 27  2  0
 29 27  1  0
M  END
$$$$
