RHP.pdb
     RDKit          3D

 29 30  0  0  1  0  0  0  0  0999 V2000
   11.3144  -20.5961   15.3357 N   0  0  0  0  0  0  0  0  0  0  0  0
   11.1298  -19.5801   16.3149 C   0  0  0  0  0  0  0  0  0  0  0  0
   11.8462  -18.5296   16.3038 N   0  0  0  0  0  0  0  0  0  0  0  0
   10.1273  -19.7401   17.3249 N   0  0  0  0  0  0  0  0  0  0  0  0
    9.8909  -18.6248   18.2148 C   0  0  0  0  0  0  0  0  0  0  0  0
   11.0595  -18.4301   19.1613 C   0  0  0  0  0  0  0  0  0  0  0  0
   10.9163  -17.1432   19.9501 C   0  0  0  0  0  0  0  0  0  0  0  0
   10.8911  -17.5172   21.3996 C   0  0  2  0  0  0  0  0  0  0  0  0
   10.1556  -18.7209   21.6635 N   0  0  0  0  0  0  0  0  0  0  0  0
   10.4540  -16.3983   22.2873 C   0  0  0  0  0  0  0  0  0  0  0  0
   10.9669  -15.2701   22.0758 O   0  0  0  0  0  0  0  0  0  0  0  0
   11.7331  -17.8086   17.0218 N   0  0  0  0  0  0  0  0  0  0  0  0
    9.5224  -16.5454   23.3190 C   0  0  1  0  0  0  0  0  0  0  0  0
    9.1490  -15.4555   24.2540 C   0  0  0  0  0  0  0  0  0  0  0  0
    7.6751  -15.2638   24.2591 C   0  0  0  0  0  0  0  0  0  0  0  0
    7.1920  -14.1846   25.1533 C   0  0  0  0  0  0  0  0  0  0  0  0
    6.3076  -14.3253   26.1777 N   0  0  0  0  0  0  0  0  0  0  0  0
    6.0906  -13.1152   26.7439 C   0  0  0  0  0  0  0  0  0  0  0  0
    6.8419  -12.2591   26.0588 N   0  0  0  0  0  0  0  0  0  0  0  0
    7.5173  -12.8771   25.0928 C   0  0  0  0  0  0  0  0  0  0  0  0
    9.6705  -15.8638   25.5977 O   0  0  0  0  0  0  0  0  0  0  0  0
    9.8330  -17.1341   25.8097 N   0  0  0  0  0  0  0  0  0  0  0  0
   10.0117  -15.0343   26.6664 C   0  0  0  0  0  0  0  0  0  0  0  0
    9.6915  -13.5958   26.6725 C   0  0  0  0  0  0  0  0  0  0  0  0
   10.6141  -12.9921   27.7040 C   0  0  0  0  0  0  0  0  0  0  0  0
   10.8865  -14.1127   28.6793 C   0  0  2  0  0  0  0  0  0  0  0  0
   10.6597  -15.3984   27.8888 C   0  0  0  0  0  0  0  0  0  0  0  0
    9.8079  -16.2451   28.7757 O   0  0  0  0  0  0  0  0  0  0  0  0
    8.6071  -16.4256   28.4413 O   0  0  0  0  0  0  0  0  0  0  0  0
  2  1  1  0
  3  2  2  0
  4  2  1  0
  5  4  1  0
  6  5  1  0
  7  6  1  0
  8  7  1  0
  8  9  1  6
 10 12  1  0
 10  8  1  0
 11 10  2  0
 13 14  1  1
 13 12  1  0
 14 15  1  0
 15 19  1  0
 15 16  2  0
 16 17  1  0
 18 17  1  0
 19 18  2  0
 20 21  2  0
 20 13  1  0
 22 20  1  0
 23 22  1  0
 24 23  1  0
 24 25  1  0
 25 26  1  0
 26 22  1  0
 26 27  1  1
 28 27  2  0
 29 27  1  0
M  END
$$$$
