RHP.pdb
     RDKit          3D

 29 30  0  0  1  0  0  0  0  0999 V2000
    7.4752  -12.7526   17.3374 N   0  0  0  0  0  0  0  0  0  0  0  0
    8.2108  -12.5860   18.5442 C   0  0  0  0  0  0  0  0  0  0  0  0
    8.2415  -11.4610   19.1360 N   0  0  0  0  0  0  0  0  0  0  0  0
    8.9255  -13.6956   19.0998 N   0  0  0  0  0  0  0  0  0  0  0  0
    8.8469  -14.9592   18.4006 C   0  0  0  0  0  0  0  0  0  0  0  0
    7.8490  -15.8859   19.0674 C   0  0  0  0  0  0  0  0  0  0  0  0
    8.3547  -16.3541   20.4180 C   0  0  0  0  0  0  0  0  0  0  0  0
    7.3355  -17.3063   20.9624 C   0  0  2  0  0  0  0  0  0  0  0  0
    6.1109  -17.3173   20.2141 N   0  0  0  0  0  0  0  0  0  0  0  0
    7.0866  -17.1275   22.4243 C   0  0  0  0  0  0  0  0  0  0  0  0
    6.2000  -16.2994   22.7537 O   0  0  0  0  0  0  0  0  0  0  0  0
    8.8505  -11.3089   19.9448 N   0  0  0  0  0  0  0  0  0  0  0  0
    7.7790  -17.8230   23.4196 C   0  0  2  0  0  0  0  0  0  0  0  0
    7.5891  -17.5894   24.8725 C   0  0  0  0  0  0  0  0  0  0  0  0
    7.8998  -18.8251   25.6377 C   0  0  0  0  0  0  0  0  0  0  0  0
    7.8533  -18.6717   27.1114 C   0  0  0  0  0  0  0  0  0  0  0  0
    7.3766  -17.5946   27.7927 N   0  0  0  0  0  0  0  0  0  0  0  0
    7.5260  -17.8099   29.1207 C   0  0  0  0  0  0  0  0  0  0  0  0
    8.0896  -19.0089   29.2282 N   0  0  0  0  0  0  0  0  0  0  0  0
    8.2985  -19.5519   28.0312 C   0  0  0  0  0  0  0  0  0  0  0  0
    8.5004  -16.4567   25.2339 O   0  0  0  0  0  0  0  0  0  0  0  0
    9.7395  -16.5494   24.8582 N   0  0  0  0  0  0  0  0  0  0  0  0
    8.1768  -15.2937   25.9335 C   0  0  0  0  0  0  0  0  0  0  0  0
    6.8095  -15.0253   26.4137 C   0  0  0  0  0  0  0  0  0  0  0  0
    6.7642  -13.5361   26.6587 C   0  0  0  0  0  0  0  0  0  0  0  0
    8.1902  -13.1554   26.9796 C   0  0  2  0  0  0  0  0  0  0  0  0
    9.0515  -14.2304   26.3222 C   0  0  0  0  0  0  0  0  0  0  0  0
   10.0304  -14.6306   27.3760 O   0  0  0  0  0  0  0  0  0  0  0  0
   10.9210  -13.8004   27.6982 O   0  0  0  0  0  0  0  0  0  0  0  0
  2  1  1  0
  3  2  2  0
  4  2  1  0
  5  4  1  0
  6  5  1  0
  7  6  1  0
  8  7  1  0
  8  9  1  6
 10 12  1  0
 10  8  1  0
 11 10  2  0
 13 14  1  6
 13 12  1  0
 14 15  1  0
 15 19  1  0
 15 16  2  0
 16 17  1  0
 18 17  1  0
 19 18  2  0
 20 21  2  0
 20 13  1  0
 22 20  1  0
 23 22  1  0
 24 23  1  0
 24 25  1  0
 25 26  1  0
 26 22  1  0
 26 27  1  1
 28 27  2  0
 29 27  1  0
M  END
$$$$
