RHP.pdb
     RDKit          3D

 29 30  0  0  1  0  0  0  0  0999 V2000
   14.4405  -15.3875   20.5543 N   0  0  0  0  0  0  0  0  0  0  0  0
   14.2668  -14.2966   19.6571 C   0  0  0  0  0  0  0  0  0  0  0  0
   15.2471  -13.5486   19.3465 N   0  0  0  0  0  0  0  0  0  0  0  0
   12.9749  -14.0359   19.0968 N   0  0  0  0  0  0  0  0  0  0  0  0
   12.4561  -14.9892   18.1408 C   0  0  0  0  0  0  0  0  0  0  0  0
   11.1445  -14.5067   17.5524 C   0  0  0  0  0  0  0  0  0  0  0  0
   10.0133  -15.4614   17.8809 C   0  0  0  0  0  0  0  0  0  0  0  0
    8.8249  -14.6259   18.2434 C   0  0  2  0  0  0  0  0  0  0  0  0
    9.0487  -13.2177   18.0796 N   0  0  0  0  0  0  0  0  0  0  0  0
    8.2743  -14.9429   19.5952 C   0  0  0  0  0  0  0  0  0  0  0  0
    7.4401  -14.1336   20.0743 O   0  0  0  0  0  0  0  0  0  0  0  0
   15.1180  -12.7419   18.7296 N   0  0  0  0  0  0  0  0  0  0  0  0
    8.6365  -16.0724   20.3348 C   0  0  2  0  0  0  0  0  0  0  0  0
    7.9151  -16.5293   21.5482 C   0  0  0  0  0  0  0  0  0  0  0  0
    7.6422  -17.9880   21.4663 C   0  0  0  0  0  0  0  0  0  0  0  0
    7.1371  -18.5971   22.7199 C   0  0  0  0  0  0  0  0  0  0  0  0
    7.7736  -19.5371   23.4701 N   0  0  0  0  0  0  0  0  0  0  0  0
    6.9898  -19.8675   24.5230 C   0  0  0  0  0  0  0  0  0  0  0  0
    5.8924  -19.1280   24.3989 N   0  0  0  0  0  0  0  0  0  0  0  0
    5.9541  -18.3519   23.3194 C   0  0  0  0  0  0  0  0  0  0  0  0
    8.7952  -16.1833   22.7100 O   0  0  0  0  0  0  0  0  0  0  0  0
   10.0381  -16.5516   22.6427 N   0  0  0  0  0  0  0  0  0  0  0  0
    8.4396  -15.5005   23.8736 C   0  0  0  0  0  0  0  0  0  0  0  0
    7.0878  -14.9487   24.0740 C   0  0  0  0  0  0  0  0  0  0  0  0
    7.2430  -13.9138   25.1624 C   0  0  0  0  0  0  0  0  0  0  0  0
    8.4235  -14.3867   25.9774 C   0  0  1  0  0  0  0  0  0  0  0  0
    9.2477  -15.2517   25.0277 C   0  0  0  0  0  0  0  0  0  0  0  0
    9.5542  -16.4873   25.8077 O   0  0  0  0  0  0  0  0  0  0  0  0
    8.9419  -17.5442   25.5010 O   0  0  0  0  0  0  0  0  0  0  0  0
  2  1  1  0
  3  2  2  0
  4  2  1  0
  5  4  1  0
  6  5  1  0
  7  6  1  0
  8  7  1  0
  8  9  1  1
 10 12  1  0
 10  8  1  0
 11 10  2  0
 13 14  1  6
 13 12  1  0
 14 15  1  0
 15 19  1  0
 15 16  2  0
 16 17  1  0
 18 17  1  0
 19 18  2  0
 20 21  2  0
 20 13  1  0
 22 20  1  0
 23 22  1  0
 24 23  1  0
 24 25  1  0
 25 26  1  0
 26 22  1  0
 26 27  1  1
 28 27  2  0
 29 27  1  0
M  END
$$$$
