PLA.pdb
     RDKit          3D

 21 21  0  0  1  0  0  0  0  0999 V2000
   26.5431  -36.0606  -11.1102 N   0  0  0  0  0  0  0  0  0  0  0  0
   25.8771  -36.4247  -12.3456 C   0  0  0  0  0  0  0  0  0  0  0  0
   26.2255  -35.3448  -13.3501 C   0  0  0  0  0  0  0  0  0  0  0  0
   26.4387  -34.1613  -12.4111 C   0  0  0  0  0  0  0  0  0  0  0  0
   27.2773  -34.8570  -11.3530 C   0  0  1  0  0  0  0  0  0  0  0  0
   27.4595  -34.0237  -10.1491 C   0  0  0  0  0  0  0  0  0  0  0  0
   28.0291  -32.9030  -10.1782 O   0  0  0  0  0  0  0  0  0  0  0  0
   25.4797  -31.1818   -7.9153 C   0  0  0  0  0  0  0  0  0  0  0  0
   24.8221  -32.5600   -8.0685 C   0  0  2  0  0  0  0  0  0  0  0  0
   23.3812  -32.4700   -7.6175 C   0  0  0  0  0  0  0  0  0  0  0  0
   25.5900  -33.5412   -7.2458 C   0  0  0  0  0  0  0  0  0  0  0  0
   27.0303  -33.6976   -7.6763 C   0  0  2  0  0  0  0  0  0  0  0  0
   26.9720  -34.5083   -8.9113 N   0  0  0  0  0  0  0  0  0  0  0  0
   27.8441  -34.4579   -6.7135 C   0  0  0  0  0  0  0  0  0  0  0  0
   27.4533  -35.6166   -6.3705 O   0  0  0  0  0  0  0  0  0  0  0  0
   31.1426  -34.1835   -4.9554 C   0  0  0  0  0  0  0  0  0  0  0  0
   29.7869  -34.7954   -5.2384 C   0  0  2  0  0  0  0  0  0  0  0  0
   29.0446  -33.9629   -6.1476 N   0  0  0  0  0  0  0  0  0  0  0  0
   29.0792  -34.9319   -3.9352 C   0  0  0  0  0  0  0  0  0  0  0  0
   28.0499  -34.2694   -3.7181 O   0  0  0  0  0  0  0  0  0  0  0  0
   29.6023  -35.8075   -2.9949 O   0  0  0  0  0  0  0  0  0  0  0  0
  1  2  1  0
  3  2  1  0
  4  5  1  0
  4  3  1  0
  5  1  1  0
  5  6  1  1
  6 13  1  0
  7  6  2  0
  9  8  1  1
  9 10  1  0
  9 11  1  0
 12 11  1  1
 12 13  1  0
 14 12  1  0
 15 14  2  0
 17 16  1  1
 17 18  1  0
 17 19  1  0
 18 14  1  0
 19 21  1  0
 20 19  2  0
M  END
$$$$
