PLA.pdb
     RDKit          3D

 21 21  0  0  1  0  0  0  0  0999 V2000
   22.0679  -14.2071  -19.8519 N   0  0  0  0  0  0  0  0  0  0  0  0
   22.0467  -15.4393  -20.6158 C   0  0  0  0  0  0  0  0  0  0  0  0
   21.1414  -16.3915  -19.8606 C   0  0  0  0  0  0  0  0  0  0  0  0
   21.3267  -15.8698  -18.4388 C   0  0  0  0  0  0  0  0  0  0  0  0
   21.2062  -14.3827  -18.7235 C   0  0  1  0  0  0  0  0  0  0  0  0
   21.5840  -13.5596  -17.5586 C   0  0  0  0  0  0  0  0  0  0  0  0
   20.9616  -13.6012  -16.4667 O   0  0  0  0  0  0  0  0  0  0  0  0
   24.9802  -13.1851  -14.6032 C   0  0  0  0  0  0  0  0  0  0  0  0
   25.2703  -13.1038  -16.1080 C   0  0  2  0  0  0  0  0  0  0  0  0
   26.7678  -13.1138  -16.3212 C   0  0  0  0  0  0  0  0  0  0  0  0
   24.6531  -11.8521  -16.6388 C   0  0  0  0  0  0  0  0  0  0  0  0
   23.1441  -11.8378  -16.5555 C   0  0  2  0  0  0  0  0  0  0  0  0
   22.6933  -12.6881  -17.6778 N   0  0  0  0  0  0  0  0  0  0  0  0
   22.5636  -10.5037  -16.7805 C   0  0  0  0  0  0  0  0  0  0  0  0
   22.7997   -9.9172  -17.8819 O   0  0  0  0  0  0  0  0  0  0  0  0
   19.8471   -8.4109  -16.2828 C   0  0  0  0  0  0  0  0  0  0  0  0
   21.3462   -8.4804  -16.0815 C   0  0  2  0  0  0  0  0  0  0  0  0
   21.7524   -9.8376  -15.8292 N   0  0  0  0  0  0  0  0  0  0  0  0
   21.6825   -7.5963  -14.9313 C   0  0  0  0  0  0  0  0  0  0  0  0
   22.1142   -8.0916  -13.8760 O   0  0  0  0  0  0  0  0  0  0  0  0
   21.4989   -6.2293  -15.0810 O   0  0  0  0  0  0  0  0  0  0  0  0
  1  2  1  0
  3  2  1  0
  4  5  1  0
  4  3  1  0
  5  1  1  0
  5  6  1  1
  6 13  1  0
  7  6  2  0
  9  8  1  1
  9 10  1  0
  9 11  1  0
 12 11  1  6
 12 13  1  0
 14 12  1  0
 15 14  2  0
 17 16  1  1
 17 18  1  0
 17 19  1  0
 18 14  1  0
 19 21  1  0
 20 19  2  0
M  END
$$$$
