PLA.pdb
     RDKit          3D

 21 21  0  0  1  0  0  0  0  0999 V2000
   18.9707  -10.0351  -19.4047 N   0  0  0  0  0  0  0  0  0  0  0  0
   18.6372  -10.9774  -20.4549 C   0  0  0  0  0  0  0  0  0  0  0  0
   17.5976  -11.9131  -19.8715 C   0  0  0  0  0  0  0  0  0  0  0  0
   17.9796  -11.8545  -18.3955 C   0  0  0  0  0  0  0  0  0  0  0  0
   18.1639  -10.3524  -18.2665 C   0  0  1  0  0  0  0  0  0  0  0  0
   18.7822   -9.9748  -16.9811 C   0  0  0  0  0  0  0  0  0  0  0  0
   18.2134  -10.1560  -15.8743 O   0  0  0  0  0  0  0  0  0  0  0  0
   24.0567  -10.6543  -14.6174 C   0  0  0  0  0  0  0  0  0  0  0  0
   22.8490   -9.7134  -14.5106 C   0  0  2  0  0  0  0  0  0  0  0  0
   22.1234   -9.9903  -13.2127 C   0  0  0  0  0  0  0  0  0  0  0  0
   21.9640   -9.9488  -15.6900 C   0  0  0  0  0  0  0  0  0  0  0  0
   20.7763   -9.0162  -15.7524 C   0  0  2  0  0  0  0  0  0  0  0  0
   20.0689   -9.3843  -16.9973 N   0  0  0  0  0  0  0  0  0  0  0  0
   21.1570   -7.6006  -15.8891 C   0  0  0  0  0  0  0  0  0  0  0  0
   22.0079   -7.2843  -16.7772 O   0  0  0  0  0  0  0  0  0  0  0  0
   19.9062   -4.2549  -15.0207 C   0  0  0  0  0  0  0  0  0  0  0  0
   21.0456   -5.2120  -15.3004 C   0  0  2  0  0  0  0  0  0  0  0  0
   20.6218   -6.5693  -15.0789 N   0  0  0  0  0  0  0  0  0  0  0  0
   22.1683   -4.8450  -14.3935 C   0  0  0  0  0  0  0  0  0  0  0  0
   22.3804   -5.5161  -13.3688 O   0  0  0  0  0  0  0  0  0  0  0  0
   22.9501   -3.7495  -14.7300 O   0  0  0  0  0  0  0  0  0  0  0  0
  1  2  1  0
  3  2  1  0
  4  5  1  0
  4  3  1  0
  5  1  1  0
  5  6  1  1
  6 13  1  0
  7  6  2  0
  9  8  1  6
  9 10  1  0
  9 11  1  0
 12 11  1  6
 12 13  1  0
 14 12  1  0
 15 14  2  0
 17 16  1  1
 17 18  1  0
 17 19  1  0
 18 14  1  0
 19 21  1  0
 20 19  2  0
M  END
$$$$
