PLA.pdb
     RDKit          3D

 21 21  0  0  1  0  0  0  0  0999 V2000
   21.5244  -18.9857  -18.1911 N   0  0  0  0  0  0  0  0  0  0  0  0
   22.4779  -19.4251  -19.1910 C   0  0  0  0  0  0  0  0  0  0  0  0
   23.4493  -18.2782  -19.3844 C   0  0  0  0  0  0  0  0  0  0  0  0
   22.5491  -17.0989  -19.0281 C   0  0  0  0  0  0  0  0  0  0  0  0
   21.9075  -17.6712  -17.7761 C   0  0  1  0  0  0  0  0  0  0  0  0
   20.7774  -16.8489  -17.3029 C   0  0  0  0  0  0  0  0  0  0  0  0
   19.5918  -17.0461  -17.6727 O   0  0  0  0  0  0  0  0  0  0  0  0
   17.6737  -15.9467  -14.2804 C   0  0  0  0  0  0  0  0  0  0  0  0
   19.1386  -16.2487  -13.9368 C   0  0  2  0  0  0  0  0  0  0  0  0
   19.2602  -16.4583  -12.4438 C   0  0  0  0  0  0  0  0  0  0  0  0
   19.9754  -15.1002  -14.3953 C   0  0  0  0  0  0  0  0  0  0  0  0
   19.9708  -14.9072  -15.8943 C   0  0  2  0  0  0  0  0  0  0  0  0
   21.0416  -15.7950  -16.3952 N   0  0  0  0  0  0  0  0  0  0  0  0
   20.3331  -13.5404  -16.3042 C   0  0  0  0  0  0  0  0  0  0  0  0
   21.5171  -13.1357  -16.0871 O   0  0  0  0  0  0  0  0  0  0  0  0
   19.0349  -10.7374  -18.3659 C   0  0  0  0  0  0  0  0  0  0  0  0
   19.8543  -11.3083  -17.2278 C   0  0  2  0  0  0  0  0  0  0  0  0
   19.4268  -12.6498  -16.9303 N   0  0  0  0  0  0  0  0  0  0  0  0
   19.6693  -10.4124  -16.0528 C   0  0  0  0  0  0  0  0  0  0  0  0
   19.0739  -10.8298  -15.0444 O   0  0  0  0  0  0  0  0  0  0  0  0
   20.1762   -9.1231  -16.1266 O   0  0  0  0  0  0  0  0  0  0  0  0
  1  2  1  0
  3  2  1  0
  4  5  1  0
  4  3  1  0
  5  1  1  0
  5  6  1  6
  6 13  1  0
  7  6  2  0
  9  8  1  1
  9 10  1  0
  9 11  1  0
 12 11  1  1
 12 13  1  0
 14 12  1  0
 15 14  2  0
 17 16  1  6
 17 18  1  0
 17 19  1  0
 18 14  1  0
 19 21  1  0
 20 19  2  0
M  END
$$$$
