PLA.pdb
     RDKit          3D

 21 21  0  0  1  0  0  0  0  0999 V2000
   27.4132  -22.0640  -15.8944 N   0  0  0  0  0  0  0  0  0  0  0  0
   27.6417  -21.4218  -17.1740 C   0  0  0  0  0  0  0  0  0  0  0  0
   27.5877  -19.9295  -16.9159 C   0  0  0  0  0  0  0  0  0  0  0  0
   26.6495  -19.8973  -15.7132 C   0  0  0  0  0  0  0  0  0  0  0  0
   27.2637  -21.0332  -14.9136 C   0  0  1  0  0  0  0  0  0  0  0  0
   26.4223  -21.4267  -13.7672 C   0  0  0  0  0  0  0  0  0  0  0  0
   25.7691  -22.5010  -13.7408 O   0  0  0  0  0  0  0  0  0  0  0  0
   26.0082  -19.3080   -8.0155 C   0  0  0  0  0  0  0  0  0  0  0  0
   25.3200  -20.1829   -9.0719 C   0  0  2  0  0  0  0  0  0  0  0  0
   25.2670  -21.6090   -8.5705 C   0  0  0  0  0  0  0  0  0  0  0  0
   26.0953  -20.0814  -10.3439 C   0  0  0  0  0  0  0  0  0  0  0  0
   25.4767  -20.8432  -11.4933 C   0  0  2  0  0  0  0  0  0  0  0  0
   26.3490  -20.5572  -12.6523 N   0  0  0  0  0  0  0  0  0  0  0  0
   24.1323  -20.3618  -11.8514 C   0  0  0  0  0  0  0  0  0  0  0  0
   23.2388  -20.3308  -10.9493 O   0  0  0  0  0  0  0  0  0  0  0  0
   22.4186  -18.6769  -14.7173 C   0  0  0  0  0  0  0  0  0  0  0  0
   22.4657  -19.3960  -13.3857 C   0  0  2  0  0  0  0  0  0  0  0  0
   23.7818  -19.9297  -13.1541 N   0  0  0  0  0  0  0  0  0  0  0  0
   21.4461  -20.4805  -13.4290 C   0  0  0  0  0  0  0  0  0  0  0  0
   20.2376  -20.1920  -13.4721 O   0  0  0  0  0  0  0  0  0  0  0  0
   21.8884  -21.7954  -13.4196 O   0  0  0  0  0  0  0  0  0  0  0  0
  1  2  1  0
  3  2  1  0
  4  5  1  0
  4  3  1  0
  5  1  1  0
  5  6  1  1
  6 13  1  0
  7  6  2  0
  9  8  1  1
  9 10  1  0
  9 11  1  0
 12 11  1  1
 12 13  1  0
 14 12  1  0
 15 14  2  0
 17 16  1  6
 17 18  1  0
 17 19  1  0
 18 14  1  0
 19 21  1  0
 20 19  2  0
M  END
$$$$
