PLA.pdb
     RDKit          3D

 21 21  0  0  1  0  0  0  0  0999 V2000
   25.5979    1.7112   -7.4712 N   0  0  0  0  0  0  0  0  0  0  0  0
   24.9631    1.1598   -8.6523 C   0  0  0  0  0  0  0  0  0  0  0  0
   23.5424    1.6873   -8.6563 C   0  0  0  0  0  0  0  0  0  0  0  0
   23.3208    1.8772   -7.1587 C   0  0  0  0  0  0  0  0  0  0  0  0
   24.6398    2.5473   -6.8155 C   0  0  1  0  0  0  0  0  0  0  0  0
   24.8486    2.6541   -5.3587 C   0  0  0  0  0  0  0  0  0  0  0  0
   24.1594    3.4097   -4.6271 O   0  0  0  0  0  0  0  0  0  0  0  0
   24.9950    1.1098   -0.7213 C   0  0  0  0  0  0  0  0  0  0  0  0
   24.8458    0.2089   -1.9547 C   0  0  2  0  0  0  0  0  0  0  0  0
   24.8003   -1.2350   -1.5062 C   0  0  0  0  0  0  0  0  0  0  0  0
   26.0035    0.4605   -2.8634 C   0  0  0  0  0  0  0  0  0  0  0  0
   26.1242    1.9003   -3.3069 C   0  0  2  0  0  0  0  0  0  0  0  0
   25.8676    1.8725   -4.7627 N   0  0  0  0  0  0  0  0  0  0  0  0
   27.4784    2.4500   -3.1301 C   0  0  0  0  0  0  0  0  0  0  0  0
   28.4134    2.0086   -3.8676 O   0  0  0  0  0  0  0  0  0  0  0  0
   29.1119    5.4482   -1.8032 C   0  0  0  0  0  0  0  0  0  0  0  0
   29.1353    3.9685   -2.1234 C   0  0  2  0  0  0  0  0  0  0  0  0
   27.7943    3.4492   -2.1770 N   0  0  0  0  0  0  0  0  0  0  0  0
   29.9301    3.2951   -1.0592 C   0  0  0  0  0  0  0  0  0  0  0  0
   29.3642    2.5433   -0.2468 O   0  0  0  0  0  0  0  0  0  0  0  0
   31.2957    3.5346   -1.0117 O   0  0  0  0  0  0  0  0  0  0  0  0
  1  2  1  0
  3  2  1  0
  4  5  1  0
  4  3  1  0
  5  1  1  0
  5  6  1  1
  6 13  1  0
  7  6  2  0
  9  8  1  1
  9 10  1  0
  9 11  1  0
 12 11  1  6
 12 13  1  0
 14 12  1  0
 15 14  2  0
 17 16  1  1
 17 18  1  0
 17 19  1  0
 18 14  1  0
 19 21  1  0
 20 19  2  0
M  END
$$$$
