PLA.pdb
     RDKit          3D

 21 21  0  0  1  0  0  0  0  0999 V2000
   29.8232  -20.7846  -10.7198 N   0  0  0  0  0  0  0  0  0  0  0  0
   31.2087  -20.8639  -11.1396 C   0  0  0  0  0  0  0  0  0  0  0  0
   31.6925  -22.2457  -10.7484 C   0  0  0  0  0  0  0  0  0  0  0  0
   30.7897  -22.5183   -9.5490 C   0  0  0  0  0  0  0  0  0  0  0  0
   29.4735  -22.0456  -10.1415 C   0  0  1  0  0  0  0  0  0  0  0  0
   28.4062  -21.9539   -9.1268 C   0  0  0  0  0  0  0  0  0  0  0  0
   27.9124  -22.9656   -8.5666 O   0  0  0  0  0  0  0  0  0  0  0  0
   27.8037  -20.7863   -5.0251 C   0  0  0  0  0  0  0  0  0  0  0  0
   28.3083  -19.7196   -6.0065 C   0  0  2  0  0  0  0  0  0  0  0  0
   28.7778  -18.5139   -5.2232 C   0  0  0  0  0  0  0  0  0  0  0  0
   27.1912  -19.3664   -6.9321 C   0  0  0  0  0  0  0  0  0  0  0  0
   26.7801  -20.4980   -7.8456 C   0  0  2  0  0  0  0  0  0  0  0  0
   27.9198  -20.6727   -8.7710 N   0  0  0  0  0  0  0  0  0  0  0  0
   25.6095  -20.1753   -8.6781 C   0  0  0  0  0  0  0  0  0  0  0  0
   24.5238  -19.8574   -8.1010 O   0  0  0  0  0  0  0  0  0  0  0  0
   24.7914  -19.2781  -12.1716 C   0  0  0  0  0  0  0  0  0  0  0  0
   24.4359  -19.8607  -10.8201 C   0  0  2  0  0  0  0  0  0  0  0  0
   25.6310  -20.2008  -10.0943 N   0  0  0  0  0  0  0  0  0  0  0  0
   23.5932  -21.0645  -11.0618 C   0  0  0  0  0  0  0  0  0  0  0  0
   24.0348  -22.1938  -10.7877 O   0  0  0  0  0  0  0  0  0  0  0  0
   22.3250  -20.8797  -11.5929 O   0  0  0  0  0  0  0  0  0  0  0  0
  1  2  1  0
  3  2  1  0
  4  5  1  0
  4  3  1  0
  5  1  1  0
  5  6  1  1
  6 13  1  0
  7  6  2  0
  9  8  1  1
  9 10  1  0
  9 11  1  0
 12 11  1  1
 12 13  1  0
 14 12  1  0
 15 14  2  0
 17 16  1  6
 17 18  1  0
 17 19  1  0
 18 14  1  0
 19 21  1  0
 20 19  2  0
M  END
$$$$
