PLA.pdb
     RDKit          3D

 21 21  0  0  1  0  0  0  0  0999 V2000
   14.4031  -19.7146    2.8785 N   0  0  0  0  0  0  0  0  0  0  0  0
   13.7518  -20.3600    1.7554 C   0  0  0  0  0  0  0  0  0  0  0  0
   14.7340  -21.3862    1.2273 C   0  0  0  0  0  0  0  0  0  0  0  0
   16.0517  -20.7305    1.6292 C   0  0  0  0  0  0  0  0  0  0  0  0
   15.6842  -20.3289    3.0471 C   0  0  1  0  0  0  0  0  0  0  0  0
   16.6914  -19.4369    3.6529 C   0  0  0  0  0  0  0  0  0  0  0  0
   17.8931  -19.7739    3.8062 O   0  0  0  0  0  0  0  0  0  0  0  0
   18.7107  -15.6409    2.7251 C   0  0  0  0  0  0  0  0  0  0  0  0
   17.1820  -15.5859    2.8486 C   0  0  2  0  0  0  0  0  0  0  0  0
   16.7009  -14.2253    2.3956 C   0  0  0  0  0  0  0  0  0  0  0  0
   16.8156  -15.8467    4.2724 C   0  0  0  0  0  0  0  0  0  0  0  0
   17.2137  -17.2212    4.7587 C   0  0  2  0  0  0  0  0  0  0  0  0
   16.2853  -18.1489    4.0781 N   0  0  0  0  0  0  0  0  0  0  0  0
   17.0076  -17.4070    6.2045 C   0  0  0  0  0  0  0  0  0  0  0  0
   15.8544  -17.7468    6.6141 O   0  0  0  0  0  0  0  0  0  0  0  0
   16.4193  -16.6057    8.8652 C   0  0  0  0  0  0  0  0  0  0  0  0
   17.7093  -17.3390    8.5640 C   0  0  2  0  0  0  0  0  0  0  0  0
   18.0318  -17.2260    7.1662 N   0  0  0  0  0  0  0  0  0  0  0  0
   17.5148  -18.7621    8.9572 C   0  0  0  0  0  0  0  0  0  0  0  0
   17.5746  -19.6557    8.0950 O   0  0  0  0  0  0  0  0  0  0  0  0
   17.2699  -19.0444   10.2932 O   0  0  0  0  0  0  0  0  0  0  0  0
  1  2  1  0
  3  2  1  0
  4  5  1  0
  4  3  1  0
  5  1  1  0
  5  6  1  6
  6 13  1  0
  7  6  2  0
  9  8  1  1
  9 10  1  0
  9 11  1  0
 12 11  1  6
 12 13  1  0
 14 12  1  0
 15 14  2  0
 17 16  1  6
 17 18  1  0
 17 19  1  0
 18 14  1  0
 19 21  1  0
 20 19  2  0
M  END
$$$$
