PLA.pdb
     RDKit          3D

 21 21  0  0  1  0  0  0  0  0999 V2000
   18.7667  -11.5090  -19.1361 N   0  0  0  0  0  0  0  0  0  0  0  0
   18.2006  -11.5386  -20.4705 C   0  0  0  0  0  0  0  0  0  0  0  0
   18.4948  -10.1858  -21.0867 C   0  0  0  0  0  0  0  0  0  0  0  0
   18.5477   -9.3224  -19.8299 C   0  0  0  0  0  0  0  0  0  0  0  0
   19.3947  -10.2355  -18.9607 C   0  0  1  0  0  0  0  0  0  0  0  0
   19.4368   -9.7867  -17.5557 C   0  0  0  0  0  0  0  0  0  0  0  0
   18.4980   -9.9983  -16.7464 O   0  0  0  0  0  0  0  0  0  0  0  0
   23.2013  -10.3927  -13.2798 C   0  0  0  0  0  0  0  0  0  0  0  0
   22.1334   -9.3770  -13.7079 C   0  0  2  0  0  0  0  0  0  0  0  0
   20.9437   -9.4946  -12.7812 C   0  0  0  0  0  0  0  0  0  0  0  0
   21.7520   -9.6640  -15.1227 C   0  0  0  0  0  0  0  0  0  0  0  0
   20.7463   -8.6883  -15.6892 C   0  0  2  0  0  0  0  0  0  0  0  0
   20.5826   -9.0891  -17.1029 N   0  0  0  0  0  0  0  0  0  0  0  0
   21.2301   -7.2979  -15.7008 C   0  0  0  0  0  0  0  0  0  0  0  0
   22.2507   -7.0166  -16.4023 O   0  0  0  0  0  0  0  0  0  0  0  0
   20.0373   -3.9005  -14.9744 C   0  0  0  0  0  0  0  0  0  0  0  0
   21.1518   -4.9219  -15.0584 C   0  0  2  0  0  0  0  0  0  0  0  0
   20.6146   -6.2538  -14.9677 N   0  0  0  0  0  0  0  0  0  0  0  0
   22.0945   -4.6454  -13.9392 C   0  0  0  0  0  0  0  0  0  0  0  0
   22.0756   -5.3617  -12.9233 O   0  0  0  0  0  0  0  0  0  0  0  0
   22.9744   -3.5812  -14.0724 O   0  0  0  0  0  0  0  0  0  0  0  0
  1  2  1  0
  3  2  1  0
  4  5  1  0
  4  3  1  0
  5  1  1  0
  5  6  1  1
  6 13  1  0
  7  6  2  0
  9  8  1  1
  9 10  1  0
  9 11  1  0
 12 11  1  6
 12 13  1  0
 14 12  1  0
 15 14  2  0
 17 16  1  1
 17 18  1  0
 17 19  1  0
 18 14  1  0
 19 21  1  0
 20 19  2  0
M  END
$$$$
