PLA.pdb
     RDKit          3D

 21 21  0  0  1  0  0  0  0  0999 V2000
   27.2196  -18.3402  -16.1783 N   0  0  0  0  0  0  0  0  0  0  0  0
   28.3559  -17.6322  -16.7347 C   0  0  0  0  0  0  0  0  0  0  0  0
   29.2934  -18.6927  -17.2760 C   0  0  0  0  0  0  0  0  0  0  0  0
   28.9458  -19.8569  -16.3531 C   0  0  0  0  0  0  0  0  0  0  0  0
   27.4322  -19.7382  -16.3956 C   0  0  1  0  0  0  0  0  0  0  0  0
   26.7770  -20.5980  -15.3912 C   0  0  0  0  0  0  0  0  0  0  0  0
   26.7885  -21.8535  -15.4603 O   0  0  0  0  0  0  0  0  0  0  0  0
   25.5847  -20.1035   -9.5344 C   0  0  0  0  0  0  0  0  0  0  0  0
   25.2071  -20.9004  -10.7905 C   0  0  2  0  0  0  0  0  0  0  0  0
   25.6332  -22.3399  -10.6060 C   0  0  0  0  0  0  0  0  0  0  0  0
   25.8874  -20.2774  -11.9646 C   0  0  0  0  0  0  0  0  0  0  0  0
   25.3667  -20.7662  -13.2966 C   0  0  2  0  0  0  0  0  0  0  0  0
   26.1087  -19.9813  -14.3061 N   0  0  0  0  0  0  0  0  0  0  0  0
   23.9389  -20.4734  -13.5040 C   0  0  0  0  0  0  0  0  0  0  0  0
   23.5467  -19.2691  -13.4097 O   0  0  0  0  0  0  0  0  0  0  0  0
   21.0943  -21.8483  -15.2826 C   0  0  0  0  0  0  0  0  0  0  0  0
   21.6245  -21.0703  -14.0969 C   0  0  2  0  0  0  0  0  0  0  0  0
   22.9761  -21.4681  -13.8043 N   0  0  0  0  0  0  0  0  0  0  0  0
   20.7222  -21.3452  -12.9445 C   0  0  0  0  0  0  0  0  0  0  0  0
   21.1197  -22.0526  -12.0027 O   0  0  0  0  0  0  0  0  0  0  0  0
   19.4496  -20.7931  -12.9634 O   0  0  0  0  0  0  0  0  0  0  0  0
  1  2  1  0
  3  2  1  0
  4  5  1  0
  4  3  1  0
  5  1  1  0
  5  6  1  1
  6 13  1  0
  7  6  2  0
  9  8  1  1
  9 10  1  0
  9 11  1  0
 12 11  1  1
 12 13  1  0
 14 12  1  0
 15 14  2  0
 17 16  1  6
 17 18  1  0
 17 19  1  0
 18 14  1  0
 19 21  1  0
 20 19  2  0
M  END
$$$$
