PLA.pdb
     RDKit          3D

 21 21  0  0  1  0  0  0  0  0999 V2000
   18.3152  -10.7271  -16.4457 N   0  0  0  0  0  0  0  0  0  0  0  0
   17.7760  -12.0113  -16.8484 C   0  0  0  0  0  0  0  0  0  0  0  0
   18.9217  -12.9993  -16.7606 C   0  0  0  0  0  0  0  0  0  0  0  0
   20.1025  -12.0666  -17.0131 C   0  0  0  0  0  0  0  0  0  0  0  0
   19.6899  -10.9236  -16.1018 C   0  0  1  0  0  0  0  0  0  0  0  0
   20.5252   -9.7235  -16.2996 C   0  0  0  0  0  0  0  0  0  0  0  0
   21.7536   -9.6989  -16.0316 O   0  0  0  0  0  0  0  0  0  0  0  0
   22.2496   -6.4154  -19.4379 C   0  0  0  0  0  0  0  0  0  0  0  0
   20.8593   -7.0393  -19.6193 C   0  0  2  0  0  0  0  0  0  0  0  0
   20.2005   -6.4271  -20.8354 C   0  0  0  0  0  0  0  0  0  0  0  0
   20.0638   -6.7826  -18.3820 C   0  0  0  0  0  0  0  0  0  0  0  0
   20.6979   -7.3382  -17.1276 C   0  0  2  0  0  0  0  0  0  0  0  0
   19.9161   -8.5528  -16.8123 N   0  0  0  0  0  0  0  0  0  0  0  0
   20.5678   -6.4425  -15.9664 C   0  0  0  0  0  0  0  0  0  0  0  0
   19.4491   -5.8789  -15.7573 O   0  0  0  0  0  0  0  0  0  0  0  0
   21.8785   -5.9583  -12.6665 C   0  0  0  0  0  0  0  0  0  0  0  0
   21.3951   -5.3059  -13.9445 C   0  0  2  0  0  0  0  0  0  0  0  0
   21.6291   -6.1754  -15.0670 N   0  0  0  0  0  0  0  0  0  0  0  0
   22.1343   -4.0221  -14.0962 C   0  0  0  0  0  0  0  0  0  0  0  0
   22.0109   -3.1320  -13.2372 O   0  0  0  0  0  0  0  0  0  0  0  0
   22.9475   -3.8626  -15.2089 O   0  0  0  0  0  0  0  0  0  0  0  0
  1  2  1  0
  3  2  1  0
  4  5  1  0
  4  3  1  0
  5  1  1  0
  5  6  1  6
  6 13  1  0
  7  6  2  0
  9  8  1  1
  9 10  1  0
  9 11  1  0
 12 11  1  6
 12 13  1  0
 14 12  1  0
 15 14  2  0
 17 16  1  1
 17 18  1  0
 17 19  1  0
 18 14  1  0
 19 21  1  0
 20 19  2  0
M  END
$$$$
