PLA.pdb
     RDKit          3D

 21 21  0  0  1  0  0  0  0  0999 V2000
   16.5898  -28.8786   -2.9040 N   0  0  0  0  0  0  0  0  0  0  0  0
   15.2474  -28.8310   -3.4496 C   0  0  0  0  0  0  0  0  0  0  0  0
   14.4939  -27.7997   -2.6340 C   0  0  0  0  0  0  0  0  0  0  0  0
   15.2421  -27.9046   -1.3085 C   0  0  0  0  0  0  0  0  0  0  0  0
   16.6619  -27.9163   -1.8477 C   0  0  1  0  0  0  0  0  0  0  0  0
   17.6511  -28.2556   -0.8067 C   0  0  0  0  0  0  0  0  0  0  0  0
   18.3878  -29.2724   -0.8749 O   0  0  0  0  0  0  0  0  0  0  0  0
   20.8663  -26.2401   -1.1042 C   0  0  0  0  0  0  0  0  0  0  0  0
   20.2150  -26.0755    0.2757 C   0  0  2  0  0  0  0  0  0  0  0  0
   21.0816  -25.1711    1.1236 C   0  0  0  0  0  0  0  0  0  0  0  0
   20.0723  -27.4277    0.8925 C   0  0  0  0  0  0  0  0  0  0  0  0
   18.6888  -27.7038    1.4347 C   0  0  2  0  0  0  0  0  0  0  0  0
   17.7737  -27.3993    0.3141 N   0  0  0  0  0  0  0  0  0  0  0  0
   18.3101  -26.8090    2.5406 C   0  0  0  0  0  0  0  0  0  0  0  0
   17.8754  -25.6489    2.2607 O   0  0  0  0  0  0  0  0  0  0  0  0
   19.1581  -25.2924    5.2319 C   0  0  0  0  0  0  0  0  0  0  0  0
   18.0112  -26.2288    4.9152 C   0  0  2  0  0  0  0  0  0  0  0  0
   18.4054  -27.1754    3.9056 N   0  0  0  0  0  0  0  0  0  0  0  0
   16.8692  -25.3931    4.4515 C   0  0  0  0  0  0  0  0  0  0  0  0
   16.0777  -24.9124    5.2808 O   0  0  0  0  0  0  0  0  0  0  0  0
   16.7270  -25.1774    3.0884 O   0  0  0  0  0  0  0  0  0  0  0  0
  1  2  1  0
  3  2  1  0
  4  5  1  0
  4  3  1  0
  5  1  1  0
  5  6  1  1
  6 13  1  0
  7  6  2  0
  9  8  1  6
  9 10  1  0
  9 11  1  0
 12 11  1  6
 12 13  1  0
 14 12  1  0
 15 14  2  0
 17 16  1  6
 17 18  1  0
 17 19  1  0
 18 14  1  0
 19 21  1  0
 20 19  2  0
M  END
$$$$
