YLA.pdb
     RDKit          3D

 26 26  0  0  1  0  0  0  0  0999 V2000
   14.7223  -13.4967  -20.6790 O   0  0  0  0  0  0  0  0  0  0  0  0
   15.4156  -12.7552  -19.7258 C   0  0  0  0  0  0  0  0  0  0  0  0
   16.6995  -12.2779  -19.9475 C   0  0  0  0  0  0  0  0  0  0  0  0
   17.3528  -11.5412  -18.9649 C   0  0  0  0  0  0  0  0  0  0  0  0
   16.7515  -11.2663  -17.7557 C   0  0  0  0  0  0  0  0  0  0  0  0
   17.4675  -10.4784  -16.7223 C   0  0  0  0  0  0  0  0  0  0  0  0
   18.7071  -11.2566  -16.3392 C   0  0  2  0  0  0  0  0  0  0  0  0
   18.3073  -12.4581  -15.6863 N   0  0  0  0  0  0  0  0  0  0  0  0
   19.5924  -10.4658  -15.4366 C   0  0  0  0  0  0  0  0  0  0  0  0
   19.2393  -10.3314  -14.2475 O   0  0  0  0  0  0  0  0  0  0  0  0
   15.4726  -11.7565  -17.5676 C   0  0  0  0  0  0  0  0  0  0  0  0
   14.8106  -12.4888  -18.5315 C   0  0  0  0  0  0  0  0  0  0  0  0
   25.0243  -10.9654  -15.3148 C   0  0  0  0  0  0  0  0  0  0  0  0
   23.5475  -10.7222  -14.9721 C   0  0  1  0  0  0  0  0  0  0  0  0
   23.4958  -10.9154  -13.4468 C   0  0  0  0  0  0  0  0  0  0  0  0
   23.1592   -9.3473  -15.3601 C   0  0  0  0  0  0  0  0  0  0  0  0
   21.6921   -9.0221  -15.2380 C   0  0  2  0  0  0  0  0  0  0  0  0
   20.7874   -9.8929  -15.9215 N   0  0  0  0  0  0  0  0  0  0  0  0
   21.3444   -7.6161  -15.4399 C   0  0  0  0  0  0  0  0  0  0  0  0
   21.9296   -6.7090  -14.7541 O   0  0  0  0  0  0  0  0  0  0  0  0
   19.7258   -5.5234  -17.9982 C   0  0  0  0  0  0  0  0  0  0  0  0
   20.0743   -5.7380  -16.5324 C   0  0  2  0  0  0  0  0  0  0  0  0
   20.3762   -7.1524  -16.3668 N   0  0  0  0  0  0  0  0  0  0  0  0
   18.9270   -5.3244  -15.7251 C   0  0  0  0  0  0  0  0  0  0  0  0
   18.6521   -3.9726  -15.5997 O   0  0  0  0  0  0  0  0  0  0  0  0
   18.1726   -6.1342  -15.1356 O   0  0  0  0  0  0  0  0  0  0  0  0
  2  1  1  0
  2  3  2  0
  4  3  1  0
  5  4  2  0
  6  5  1  0
  7  6  1  0
  7  9  1  0
  7  8  1  1
  9 18  1  0
  9 10  2  0
 11 12  2  0
 11  5  1  0
 12  2  1  0
 14 13  1  1
 14 15  1  0
 16 14  1  0
 17 16  1  6
 18 17  1  0
 19 23  1  0
 19 17  1  0
 20 19  2  0
 22 21  1  6
 22 23  1  0
 22 24  1  0
 24 25  1  0
 26 24  2  0
M  END
$$$$
