YLA.pdb
     RDKit          3D

 26 26  0  0  1  0  0  0  0  0999 V2000
   21.1179  -13.2351  -24.6848 O   0  0  0  0  0  0  0  0  0  0  0  0
   20.6767  -12.4674  -23.6100 C   0  0  0  0  0  0  0  0  0  0  0  0
   19.7882  -11.4132  -23.7668 C   0  0  0  0  0  0  0  0  0  0  0  0
   19.3755  -10.6742  -22.6628 C   0  0  0  0  0  0  0  0  0  0  0  0
   19.8314  -10.9636  -21.3949 C   0  0  0  0  0  0  0  0  0  0  0  0
   19.3776  -10.1618  -20.2319 C   0  0  0  0  0  0  0  0  0  0  0  0
   19.4063  -11.0671  -19.0201 C   0  0  2  0  0  0  0  0  0  0  0  0
   18.2802  -11.9381  -19.0753 N   0  0  0  0  0  0  0  0  0  0  0  0
   19.3733  -10.2843  -17.7513 C   0  0  0  0  0  0  0  0  0  0  0  0
   18.2578  -10.0281  -17.2550 O   0  0  0  0  0  0  0  0  0  0  0  0
   20.7153  -12.0197  -21.2741 C   0  0  0  0  0  0  0  0  0  0  0  0
   21.1346  -12.7627  -22.3585 C   0  0  0  0  0  0  0  0  0  0  0  0
   20.6873   -9.0073  -12.8038 C   0  0  0  0  0  0  0  0  0  0  0  0
   21.9261   -8.8839  -13.7026 C   0  0  1  0  0  0  0  0  0  0  0  0
   23.0591   -9.4562  -12.8336 C   0  0  0  0  0  0  0  0  0  0  0  0
   21.7343   -9.6766  -14.9380 C   0  0  0  0  0  0  0  0  0  0  0  0
   20.7285   -9.1284  -15.9184 C   0  0  2  0  0  0  0  0  0  0  0  0
   20.5701   -9.8525  -17.1408 N   0  0  0  0  0  0  0  0  0  0  0  0
   20.8036   -7.6866  -16.1509 C   0  0  0  0  0  0  0  0  0  0  0  0
   21.8425   -7.1818  -16.6999 O   0  0  0  0  0  0  0  0  0  0  0  0
   18.4718   -4.7968  -16.1965 C   0  0  0  0  0  0  0  0  0  0  0  0
   19.8898   -5.3421  -16.1070 C   0  0  2  0  0  0  0  0  0  0  0  0
   19.7842   -6.7625  -15.8068 N   0  0  0  0  0  0  0  0  0  0  0  0
   20.5946   -4.6105  -15.0547 C   0  0  0  0  0  0  0  0  0  0  0  0
   20.9200   -3.2814  -15.2694 O   0  0  0  0  0  0  0  0  0  0  0  0
   20.9228   -5.1260  -13.9597 O   0  0  0  0  0  0  0  0  0  0  0  0
  2  1  1  0
  2  3  2  0
  4  3  1  0
  5  4  2  0
  6  5  1  0
  7  6  1  0
  7  9  1  0
  7  8  1  6
  9 18  1  0
  9 10  2  0
 11 12  2  0
 11  5  1  0
 12  2  1  0
 14 13  1  1
 14 15  1  0
 16 14  1  0
 17 16  1  6
 18 17  1  0
 19 23  1  0
 19 17  1  0
 20 19  2  0
 22 21  1  1
 22 23  1  0
 22 24  1  0
 24 25  1  0
 26 24  2  0
M  END
$$$$
