YLA.pdb
     RDKit          3D

 26 26  0  0  1  0  0  0  0  0999 V2000
   17.0473  -21.7900  -11.9249 O   0  0  0  0  0  0  0  0  0  0  0  0
   18.3305  -21.3071  -12.1686 C   0  0  0  0  0  0  0  0  0  0  0  0
   19.4131  -21.6409  -11.3673 C   0  0  0  0  0  0  0  0  0  0  0  0
   20.6772  -21.1337  -11.6501 C   0  0  0  0  0  0  0  0  0  0  0  0
   20.8899  -20.2942  -12.7222 C   0  0  0  0  0  0  0  0  0  0  0  0
   22.2469  -19.7653  -13.0047 C   0  0  0  0  0  0  0  0  0  0  0  0
   22.6933  -20.3496  -14.3269 C   0  0  2  0  0  0  0  0  0  0  0  0
   22.6997  -21.7702  -14.2184 N   0  0  0  0  0  0  0  0  0  0  0  0
   24.0532  -19.8694  -14.7061 C   0  0  0  0  0  0  0  0  0  0  0  0
   24.2142  -18.6419  -14.8612 O   0  0  0  0  0  0  0  0  0  0  0  0
   19.7902  -19.9820  -13.4996 C   0  0  0  0  0  0  0  0  0  0  0  0
   18.5299  -20.4763  -13.2331 C   0  0  0  0  0  0  0  0  0  0  0  0
   28.3451  -21.3394  -11.9410 C   0  0  0  0  0  0  0  0  0  0  0  0
   27.2509  -20.7089  -12.8142 C   0  0  1  0  0  0  0  0  0  0  0  0
   27.3618  -19.2069  -12.5009 C   0  0  0  0  0  0  0  0  0  0  0  0
   27.5214  -20.9883  -14.2426 C   0  0  0  0  0  0  0  0  0  0  0  0
   26.4772  -20.5005  -15.2145 C   0  0  2  0  0  0  0  0  0  0  0  0
   25.1156  -20.7816  -14.8812 N   0  0  0  0  0  0  0  0  0  0  0  0
   26.7563  -20.7771  -16.6231 C   0  0  0  0  0  0  0  0  0  0  0  0
   27.8770  -20.4300  -17.1320 O   0  0  0  0  0  0  0  0  0  0  0  0
   25.4524  -22.9384  -19.3197 C   0  0  0  0  0  0  0  0  0  0  0  0
   26.1851  -21.6703  -18.9056 C   0  0  2  0  0  0  0  0  0  0  0  0
   25.8565  -21.4226  -17.5093 N   0  0  0  0  0  0  0  0  0  0  0  0
   25.7401  -20.5814  -19.7749 C   0  0  0  0  0  0  0  0  0  0  0  0
   24.9814  -19.5593  -19.2286 O   0  0  0  0  0  0  0  0  0  0  0  0
   26.0105  -20.5229  -20.9979 O   0  0  0  0  0  0  0  0  0  0  0  0
  2  1  1  0
  2  3  2  0
  4  3  1  0
  5  4  2  0
  6  5  1  0
  7  6  1  0
  7  9  1  0
  7  8  1  1
  9 18  1  0
  9 10  2  0
 11 12  2  0
 11  5  1  0
 12  2  1  0
 14 13  1  1
 14 15  1  0
 16 14  1  0
 17 16  1  1
 18 17  1  0
 19 23  1  0
 19 17  1  0
 20 19  2  0
 22 21  1  6
 22 23  1  0
 22 24  1  0
 24 25  1  0
 26 24  2  0
M  END
$$$$
