YLA.pdb
     RDKit          3D

 26 26  0  0  1  0  0  0  0  0999 V2000
   15.9268  -20.2170  -16.7512 O   0  0  0  0  0  0  0  0  0  0  0  0
   16.8178  -19.1468  -16.7498 C   0  0  0  0  0  0  0  0  0  0  0  0
   17.9738  -19.1432  -17.5172 C   0  0  0  0  0  0  0  0  0  0  0  0
   18.8343  -18.0507  -17.4831 C   0  0  0  0  0  0  0  0  0  0  0  0
   18.5676  -16.9518  -16.6954 C   0  0  0  0  0  0  0  0  0  0  0  0
   19.4998  -15.7978  -16.6748 C   0  0  0  0  0  0  0  0  0  0  0  0
   20.8009  -16.2787  -16.0710 C   0  0  2  0  0  0  0  0  0  0  0  0
   20.5568  -16.6861  -14.7277 N   0  0  0  0  0  0  0  0  0  0  0  0
   21.8409  -15.2100  -16.0898 C   0  0  0  0  0  0  0  0  0  0  0  0
   21.6977  -14.2456  -15.3114 O   0  0  0  0  0  0  0  0  0  0  0  0
   17.4078  -16.9880  -15.9437 C   0  0  0  0  0  0  0  0  0  0  0  0
   16.5438  -18.0634  -15.9659 C   0  0  0  0  0  0  0  0  0  0  0  0
   27.0623  -16.5714  -16.3675 C   0  0  0  0  0  0  0  0  0  0  0  0
   25.7444  -15.8466  -16.0586 C   0  0  1  0  0  0  0  0  0  0  0  0
   26.0487  -15.0869  -14.7560 C   0  0  0  0  0  0  0  0  0  0  0  0
   25.4071  -14.9202  -17.1629 C   0  0  0  0  0  0  0  0  0  0  0  0
   24.0087  -14.3571  -17.1412 C   0  0  2  0  0  0  0  0  0  0  0  0
   22.9460  -15.2967  -16.9630 N   0  0  0  0  0  0  0  0  0  0  0  0
   23.7059  -13.3940  -18.1992 C   0  0  0  0  0  0  0  0  0  0  0  0
   23.4508  -13.8054  -19.3830 O   0  0  0  0  0  0  0  0  0  0  0  0
   23.2719   -9.6802  -18.5259 C   0  0  0  0  0  0  0  0  0  0  0  0
   23.4361  -11.0695  -19.1251 C   0  0  2  0  0  0  0  0  0  0  0  0
   23.6691  -11.9876  -18.0198 N   0  0  0  0  0  0  0  0  0  0  0  0
   24.5639  -11.0348  -20.0558 C   0  0  0  0  0  0  0  0  0  0  0  0
   24.3874  -10.4437  -21.2960 O   0  0  0  0  0  0  0  0  0  0  0  0
   25.6910  -11.5153  -19.7893 O   0  0  0  0  0  0  0  0  0  0  0  0
  2  1  1  0
  2  3  2  0
  4  3  1  0
  5  4  2  0
  6  5  1  0
  7  6  1  0
  7  9  1  0
  7  8  1  1
  9 18  1  0
  9 10  2  0
 11 12  2  0
 11  5  1  0
 12  2  1  0
 14 13  1  6
 14 15  1  0
 16 14  1  0
 17 16  1  6
 18 17  1  0
 19 23  1  0
 19 17  1  0
 20 19  2  0
 22 21  1  1
 22 23  1  0
 22 24  1  0
 24 25  1  0
 26 24  2  0
M  END
$$$$
