YLA.pdb
     RDKit          3D

 26 26  0  0  1  0  0  0  0  0999 V2000
   18.2234  -14.9889  -22.7550 O   0  0  0  0  0  0  0  0  0  0  0  0
   18.0931  -13.9917  -21.7919 C   0  0  0  0  0  0  0  0  0  0  0  0
   16.9278  -13.8159  -21.0593 C   0  0  0  0  0  0  0  0  0  0  0  0
   16.8443  -12.8052  -20.1071 C   0  0  0  0  0  0  0  0  0  0  0  0
   17.9041  -11.9580  -19.8654 C   0  0  0  0  0  0  0  0  0  0  0  0
   17.7924  -10.8870  -18.8449 C   0  0  0  0  0  0  0  0  0  0  0  0
   18.6073  -11.3189  -17.6456 C   0  0  2  0  0  0  0  0  0  0  0  0
   17.9419  -12.4070  -17.0105 N   0  0  0  0  0  0  0  0  0  0  0  0
   18.7836  -10.2023  -16.6730 C   0  0  0  0  0  0  0  0  0  0  0  0
   17.8315   -9.9392  -15.9110 O   0  0  0  0  0  0  0  0  0  0  0  0
   19.0495  -12.1607  -20.6125 C   0  0  0  0  0  0  0  0  0  0  0  0
   19.1489  -13.1581  -21.5606 C   0  0  0  0  0  0  0  0  0  0  0  0
   23.3945   -9.7788  -13.7117 C   0  0  0  0  0  0  0  0  0  0  0  0
   21.9375   -9.7329  -14.1937 C   0  0  1  0  0  0  0  0  0  0  0  0
   21.1319   -9.5928  -12.8906 C   0  0  0  0  0  0  0  0  0  0  0  0
   21.7372   -8.5681  -15.0852 C   0  0  0  0  0  0  0  0  0  0  0  0
   20.3685   -8.4460  -15.7056 C   0  0  2  0  0  0  0  0  0  0  0  0
   19.9914   -9.4741  -16.6247 N   0  0  0  0  0  0  0  0  0  0  0  0
   20.0281   -7.1172  -16.2127 C   0  0  0  0  0  0  0  0  0  0  0  0
   20.6725   -6.6275  -17.2029 O   0  0  0  0  0  0  0  0  0  0  0  0
   17.3050   -4.6155  -15.8787 C   0  0  0  0  0  0  0  0  0  0  0  0
   18.7623   -4.9424  -16.1709 C   0  0  2  0  0  0  0  0  0  0  0  0
   19.0049   -6.2915  -15.6808 N   0  0  0  0  0  0  0  0  0  0  0  0
   19.5975   -3.9536  -15.4897 C   0  0  0  0  0  0  0  0  0  0  0  0
   20.4506   -4.3794  -14.4850 O   0  0  0  0  0  0  0  0  0  0  0  0
   19.5826   -2.7311  -15.7686 O   0  0  0  0  0  0  0  0  0  0  0  0
  2  1  1  0
  2  3  2  0
  4  3  1  0
  5  4  2  0
  6  5  1  0
  7  6  1  0
  7  9  1  0
  7  8  1  1
  9 18  1  0
  9 10  2  0
 11 12  2  0
 11  5  1  0
 12  2  1  0
 14 13  1  1
 14 15  1  0
 16 14  1  0
 17 16  1  6
 18 17  1  0
 19 23  1  0
 19 17  1  0
 20 19  2  0
 22 21  1  1
 22 23  1  0
 22 24  1  0
 24 25  1  0
 26 24  2  0
M  END
$$$$
