YLA.pdb
     RDKit          3D

 26 26  0  0  1  0  0  0  0  0999 V2000
   18.9147  -12.7787  -25.2843 O   0  0  0  0  0  0  0  0  0  0  0  0
   19.2008  -12.3943  -23.9768 C   0  0  0  0  0  0  0  0  0  0  0  0
   18.3919  -12.7473  -22.9062 C   0  0  0  0  0  0  0  0  0  0  0  0
   18.7184  -12.3398  -21.6168 C   0  0  0  0  0  0  0  0  0  0  0  0
   19.8420  -11.5820  -21.3669 C   0  0  0  0  0  0  0  0  0  0  0  0
   20.1706  -11.1587  -19.9834 C   0  0  0  0  0  0  0  0  0  0  0  0
   21.3693  -11.9663  -19.5365 C   0  0  2  0  0  0  0  0  0  0  0  0
   20.9773  -13.3298  -19.4063 N   0  0  0  0  0  0  0  0  0  0  0  0
   21.9076  -11.4728  -18.2363 C   0  0  0  0  0  0  0  0  0  0  0  0
   21.3433  -11.8542  -17.1910 O   0  0  0  0  0  0  0  0  0  0  0  0
   20.6257  -11.2480  -22.4557 C   0  0  0  0  0  0  0  0  0  0  0  0
   20.3163  -11.6439  -23.7407 C   0  0  0  0  0  0  0  0  0  0  0  0
   25.4393  -10.1162  -14.4935 C   0  0  0  0  0  0  0  0  0  0  0  0
   25.7073   -9.3467  -15.7949 C   0  0  1  0  0  0  0  0  0  0  0  0
   27.2427   -9.3184  -15.8861 C   0  0  0  0  0  0  0  0  0  0  0  0
   25.1072  -10.0675  -16.9402 C   0  0  0  0  0  0  0  0  0  0  0  0
   23.6080   -9.9668  -17.0645 C   0  0  2  0  0  0  0  0  0  0  0  0
   23.0187  -10.6035  -18.2009 N   0  0  0  0  0  0  0  0  0  0  0  0
   23.0504   -8.6331  -16.8435 C   0  0  0  0  0  0  0  0  0  0  0  0
   23.3278   -7.6830  -17.6533 O   0  0  0  0  0  0  0  0  0  0  0  0
   20.3144   -7.1190  -14.8519 C   0  0  0  0  0  0  0  0  0  0  0  0
   21.6112   -6.9610  -15.6325 C   0  0  2  0  0  0  0  0  0  0  0  0
   22.1947   -8.2879  -15.7663 N   0  0  0  0  0  0  0  0  0  0  0  0
   22.4831   -6.0514  -14.8897 C   0  0  0  0  0  0  0  0  0  0  0  0
   22.1380   -4.7122  -14.8110 O   0  0  0  0  0  0  0  0  0  0  0  0
   23.5347   -6.4215  -14.3157 O   0  0  0  0  0  0  0  0  0  0  0  0
  2  1  1  0
  2  3  2  0
  4  3  1  0
  5  4  2  0
  6  5  1  0
  7  6  1  0
  7  9  1  0
  7  8  1  1
  9 18  1  0
  9 10  2  0
 11 12  2  0
 11  5  1  0
 12  2  1  0
 14 13  1  1
 14 15  1  0
 16 14  1  0
 17 16  1  6
 18 17  1  0
 19 23  1  0
 19 17  1  0
 20 19  2  0
 22 21  1  1
 22 23  1  0
 22 24  1  0
 24 25  1  0
 26 24  2  0
M  END
$$$$
