YLA.pdb
     RDKit          3D

 26 26  0  0  1  0  0  0  0  0999 V2000
   26.3400  -16.1130  -20.6324 O   0  0  0  0  0  0  0  0  0  0  0  0
   25.6080  -16.8569  -19.7105 C   0  0  0  0  0  0  0  0  0  0  0  0
   25.4962  -16.4845  -18.3785 C   0  0  0  0  0  0  0  0  0  0  0  0
   24.7535  -17.2597  -17.4939 C   0  0  0  0  0  0  0  0  0  0  0  0
   24.1139  -18.4077  -17.9090 C   0  0  0  0  0  0  0  0  0  0  0  0
   23.3272  -19.2191  -16.9477 C   0  0  0  0  0  0  0  0  0  0  0  0
   24.3105  -19.9095  -16.0284 C   0  0  2  0  0  0  0  0  0  0  0  0
   25.1095  -20.8001  -16.8020 N   0  0  0  0  0  0  0  0  0  0  0  0
   23.6124  -20.6689  -14.9515 C   0  0  0  0  0  0  0  0  0  0  0  0
   22.9506  -21.6730  -15.2834 O   0  0  0  0  0  0  0  0  0  0  0  0
   24.2458  -18.7498  -19.2420 C   0  0  0  0  0  0  0  0  0  0  0  0
   24.9784  -17.9922  -20.1324 C   0  0  0  0  0  0  0  0  0  0  0  0
   25.8541  -20.5446   -9.8117 C   0  0  0  0  0  0  0  0  0  0  0  0
   25.2496  -20.8345  -11.1930 C   0  0  1  0  0  0  0  0  0  0  0  0
   25.6518  -22.2948  -11.4621 C   0  0  0  0  0  0  0  0  0  0  0  0
   23.7786  -20.6754  -11.1437 C   0  0  0  0  0  0  0  0  0  0  0  0
   23.0596  -20.8220  -12.4608 C   0  0  2  0  0  0  0  0  0  0  0  0
   23.7039  -20.2566  -13.6049 N   0  0  0  0  0  0  0  0  0  0  0  0
   21.6325  -20.5039  -12.4329 C   0  0  0  0  0  0  0  0  0  0  0  0
   21.2313  -19.3389  -12.7755 O   0  0  0  0  0  0  0  0  0  0  0  0
   19.1163  -20.0320  -13.3056 C   0  0  0  0  0  0  0  0  0  0  0  0
   19.2016  -21.1308  -12.2560 C   0  0  2  0  0  0  0  0  0  0  0  0
   20.6141  -21.4110  -12.0434 N   0  0  0  0  0  0  0  0  0  0  0  0
   18.4807  -22.2998  -12.7594 C   0  0  0  0  0  0  0  0  0  0  0  0
   17.1045  -22.2262  -12.8978 O   0  0  0  0  0  0  0  0  0  0  0  0
   19.0461  -23.3736  -13.0748 O   0  0  0  0  0  0  0  0  0  0  0  0
  2  1  1  0
  2  3  2  0
  4  3  1  0
  5  4  2  0
  6  5  1  0
  7  6  1  0
  7  9  1  0
  7  8  1  6
  9 18  1  0
  9 10  2  0
 11 12  2  0
 11  5  1  0
 12  2  1  0
 14 13  1  1
 14 15  1  0
 16 14  1  0
 17 16  1  1
 18 17  1  0
 19 23  1  0
 19 17  1  0
 20 19  2  0
 22 21  1  6
 22 23  1  0
 22 24  1  0
 24 25  1  0
 26 24  2  0
M  END
$$$$
