YLA.pdb
     RDKit          3D

 26 26  0  0  1  0  0  0  0  0999 V2000
   16.8221  -12.9535  -16.0941 O   0  0  0  0  0  0  0  0  0  0  0  0
   17.7832  -11.9465  -16.1328 C   0  0  0  0  0  0  0  0  0  0  0  0
   17.4685  -10.6327  -16.4491 C   0  0  0  0  0  0  0  0  0  0  0  0
   18.4631   -9.6605  -16.4752 C   0  0  0  0  0  0  0  0  0  0  0  0
   19.7758   -9.9694  -16.1909 C   0  0  0  0  0  0  0  0  0  0  0  0
   20.8200   -8.9160  -16.2248 C   0  0  0  0  0  0  0  0  0  0  0  0
   21.1398   -8.6434  -17.6782 C   0  0  2  0  0  0  0  0  0  0  0  0
   21.9038   -9.7323  -18.1887 N   0  0  0  0  0  0  0  0  0  0  0  0
   21.9048   -7.3738  -17.8414 C   0  0  0  0  0  0  0  0  0  0  0  0
   23.1470   -7.4261  -17.7379 O   0  0  0  0  0  0  0  0  0  0  0  0
   20.0547  -11.2872  -15.8799 C   0  0  0  0  0  0  0  0  0  0  0  0
   19.0804  -12.2636  -15.8496 C   0  0  0  0  0  0  0  0  0  0  0  0
   20.4133   -3.7462  -21.7503 C   0  0  0  0  0  0  0  0  0  0  0  0
   21.1528   -4.6610  -20.7635 C   0  0  1  0  0  0  0  0  0  0  0  0
   22.5644   -4.7718  -21.3647 C   0  0  0  0  0  0  0  0  0  0  0  0
   21.1803   -4.0378  -19.4210 C   0  0  0  0  0  0  0  0  0  0  0  0
   21.8043   -4.8665  -18.3269 C   0  0  2  0  0  0  0  0  0  0  0  0
   21.2360   -6.1593  -18.1039 N   0  0  0  0  0  0  0  0  0  0  0  0
   22.0492   -4.1604  -17.0700 C   0  0  0  0  0  0  0  0  0  0  0  0
   22.7727   -3.1058  -17.0608 O   0  0  0  0  0  0  0  0  0  0  0  0
   20.4535   -3.3836  -14.0243 C   0  0  0  0  0  0  0  0  0  0  0  0
   21.8001   -3.8110  -14.5902 C   0  0  2  0  0  0  0  0  0  0  0  0
   21.5338   -4.5590  -15.8102 N   0  0  0  0  0  0  0  0  0  0  0  0
   22.4797   -4.6270  -13.5844 C   0  0  0  0  0  0  0  0  0  0  0  0
   22.8879   -4.0279  -12.4041 O   0  0  0  0  0  0  0  0  0  0  0  0
   22.7145   -5.8496  -13.7343 O   0  0  0  0  0  0  0  0  0  0  0  0
  2  1  1  0
  2  3  2  0
  4  3  1  0
  5  4  2  0
  6  5  1  0
  7  6  1  0
  7  9  1  0
  7  8  1  1
  9 18  1  0
  9 10  2  0
 11 12  2  0
 11  5  1  0
 12  2  1  0
 14 13  1  6
 14 15  1  0
 16 14  1  0
 17 16  1  6
 18 17  1  0
 19 23  1  0
 19 17  1  0
 20 19  2  0
 22 21  1  1
 22 23  1  0
 22 24  1  0
 24 25  1  0
 26 24  2  0
M  END
$$$$
