YLA.pdb
     RDKit          3D

 26 26  0  0  1  0  0  0  0  0999 V2000
   26.6136  -16.4750  -18.1075 O   0  0  0  0  0  0  0  0  0  0  0  0
   26.0956  -17.2582  -17.0791 C   0  0  0  0  0  0  0  0  0  0  0  0
   25.7875  -16.7348  -15.8316 C   0  0  0  0  0  0  0  0  0  0  0  0
   25.2718  -17.5567  -14.8347 C   0  0  0  0  0  0  0  0  0  0  0  0
   25.0540  -18.8998  -15.0536 C   0  0  0  0  0  0  0  0  0  0  0  0
   24.5031  -19.7573  -13.9755 C   0  0  0  0  0  0  0  0  0  0  0  0
   25.6584  -20.1653  -13.0879 C   0  0  2  0  0  0  0  0  0  0  0  0
   26.5226  -21.0214  -13.8296 N   0  0  0  0  0  0  0  0  0  0  0  0
   25.1845  -20.8706  -11.8625 C   0  0  0  0  0  0  0  0  0  0  0  0
   24.7547  -22.0348  -11.9912 O   0  0  0  0  0  0  0  0  0  0  0  0
   25.3717  -19.3885  -16.3072 C   0  0  0  0  0  0  0  0  0  0  0  0
   25.8839  -18.5873  -17.3069 C   0  0  0  0  0  0  0  0  0  0  0  0
   27.1416  -19.1327   -6.8472 C   0  0  0  0  0  0  0  0  0  0  0  0
   26.7158  -19.9400   -8.0818 C   0  0  1  0  0  0  0  0  0  0  0  0
   27.4067  -21.2993   -7.8785 C   0  0  0  0  0  0  0  0  0  0  0  0
   25.2421  -20.0776   -8.1113 C   0  0  0  0  0  0  0  0  0  0  0  0
   24.6657  -20.6810   -9.3670 C   0  0  2  0  0  0  0  0  0  0  0  0
   25.2252  -20.2332  -10.6041 N   0  0  0  0  0  0  0  0  0  0  0  0
   23.2053  -20.7329   -9.4225 C   0  0  0  0  0  0  0  0  0  0  0  0
   22.5702  -19.9783  -10.2365 O   0  0  0  0  0  0  0  0  0  0  0  0
   20.7374  -22.3612  -10.1582 C   0  0  0  0  0  0  0  0  0  0  0  0
   20.9609  -21.6925   -8.8095 C   0  0  2  0  0  0  0  0  0  0  0  0
   22.3999  -21.5810   -8.6202 N   0  0  0  0  0  0  0  0  0  0  0  0
   20.3353  -22.5216   -7.7796 C   0  0  0  0  0  0  0  0  0  0  0  0
   21.1451  -23.1642   -6.8577 O   0  0  0  0  0  0  0  0  0  0  0  0
   19.0954  -22.6832   -7.6856 O   0  0  0  0  0  0  0  0  0  0  0  0
  2  1  1  0
  2  3  2  0
  4  3  1  0
  5  4  2  0
  6  5  1  0
  7  6  1  0
  7  9  1  0
  7  8  1  6
  9 18  1  0
  9 10  2  0
 11 12  2  0
 11  5  1  0
 12  2  1  0
 14 13  1  1
 14 15  1  0
 16 14  1  0
 17 16  1  1
 18 17  1  0
 19 23  1  0
 19 17  1  0
 20 19  2  0
 22 21  1  6
 22 23  1  0
 22 24  1  0
 24 25  1  0
 26 24  2  0
M  END
$$$$
