YLA.pdb
     RDKit          3D

 26 26  0  0  1  0  0  0  0  0999 V2000
   26.3328  -10.8949  -23.5772 O   0  0  0  0  0  0  0  0  0  0  0  0
   26.9604  -10.3571  -22.4564 C   0  0  0  0  0  0  0  0  0  0  0  0
   26.2889   -9.5573  -21.5428 C   0  0  0  0  0  0  0  0  0  0  0  0
   26.9582   -9.0423  -20.4373 C   0  0  0  0  0  0  0  0  0  0  0  0
   28.2928   -9.3078  -20.2189 C   0  0  0  0  0  0  0  0  0  0  0  0
   28.9862   -8.7476  -19.0329 C   0  0  0  0  0  0  0  0  0  0  0  0
   29.6294   -9.9031  -18.2980 C   0  0  2  0  0  0  0  0  0  0  0  0
   28.6012  -10.7369  -17.7710 N   0  0  0  0  0  0  0  0  0  0  0  0
   30.5061   -9.4267  -17.1898 C   0  0  0  0  0  0  0  0  0  0  0  0
   29.9684   -9.1630  -16.0954 O   0  0  0  0  0  0  0  0  0  0  0  0
   28.9313  -10.1077  -21.1482 C   0  0  0  0  0  0  0  0  0  0  0  0
   28.2825  -10.6265  -22.2498 C   0  0  0  0  0  0  0  0  0  0  0  0
   35.8732  -10.6451  -14.7418 C   0  0  0  0  0  0  0  0  0  0  0  0
   34.9439   -9.4724  -15.0859 C   0  0  1  0  0  0  0  0  0  0  0  0
   35.8981   -8.4174  -15.6716 C   0  0  0  0  0  0  0  0  0  0  0  0
   33.9337   -9.9034  -16.0785 C   0  0  0  0  0  0  0  0  0  0  0  0
   32.8851   -8.8795  -16.4326 C   0  0  2  0  0  0  0  0  0  0  0  0
   31.8965   -9.2825  -17.3835 N   0  0  0  0  0  0  0  0  0  0  0  0
   33.3923   -7.5377  -16.7170 C   0  0  0  0  0  0  0  0  0  0  0  0
   33.9468   -7.2901  -17.8426 O   0  0  0  0  0  0  0  0  0  0  0  0
   33.3926   -4.1832  -15.0276 C   0  0  0  0  0  0  0  0  0  0  0  0
   33.7282   -5.0985  -16.1963 C   0  0  2  0  0  0  0  0  0  0  0  0
   33.3200   -6.4435  -15.8176 N   0  0  0  0  0  0  0  0  0  0  0  0
   35.1669   -5.0121  -16.4452 C   0  0  0  0  0  0  0  0  0  0  0  0
   35.6166   -4.2245  -17.4921 O   0  0  0  0  0  0  0  0  0  0  0  0
   36.0220   -5.6176  -15.7563 O   0  0  0  0  0  0  0  0  0  0  0  0
  2  1  1  0
  2  3  2  0
  4  3  1  0
  5  4  2  0
  6  5  1  0
  7  6  1  0
  7  9  1  0
  7  8  1  1
  9 18  1  0
  9 10  2  0
 11 12  2  0
 11  5  1  0
 12  2  1  0
 14 13  1  6
 14 15  1  0
 16 14  1  0
 17 16  1  6
 18 17  1  0
 19 23  1  0
 19 17  1  0
 20 19  2  0
 22 21  1  1
 22 23  1  0
 22 24  1  0
 24 25  1  0
 26 24  2  0
M  END
$$$$
