YLA.pdb
     RDKit          3D

 26 26  0  0  1  0  0  0  0  0999 V2000
   16.6000  -19.8359  -17.1061 O   0  0  0  0  0  0  0  0  0  0  0  0
   17.9923  -19.8150  -17.0925 C   0  0  0  0  0  0  0  0  0  0  0  0
   18.7503  -20.9715  -16.9771 C   0  0  0  0  0  0  0  0  0  0  0  0
   20.1395  -20.9010  -16.9681 C   0  0  0  0  0  0  0  0  0  0  0  0
   20.7973  -19.6945  -17.0723 C   0  0  0  0  0  0  0  0  0  0  0  0
   22.2800  -19.6433  -17.0605 C   0  0  0  0  0  0  0  0  0  0  0  0
   22.7178  -19.5650  -15.6144 C   0  0  2  0  0  0  0  0  0  0  0  0
   22.2799  -18.3223  -15.0724 N   0  0  0  0  0  0  0  0  0  0  0  0
   24.1994  -19.6746  -15.4846 C   0  0  0  0  0  0  0  0  0  0  0  0
   24.7493  -20.6959  -15.9439 O   0  0  0  0  0  0  0  0  0  0  0  0
   20.0122  -18.5622  -17.1858 C   0  0  0  0  0  0  0  0  0  0  0  0
   18.6336  -18.6145  -17.1964 C   0  0  0  0  0  0  0  0  0  0  0  0
   26.8257  -14.9506  -15.6541 C   0  0  0  0  0  0  0  0  0  0  0  0
   26.5197  -16.4319  -15.9173 C   0  0  1  0  0  0  0  0  0  0  0  0
   27.2832  -16.7310  -17.2189 C   0  0  0  0  0  0  0  0  0  0  0  0
   27.0162  -17.2574  -14.7933 C   0  0  0  0  0  0  0  0  0  0  0  0
   26.3539  -18.6014  -14.6252 C   0  0  2  0  0  0  0  0  0  0  0  0
   24.9448  -18.6513  -14.8611 N   0  0  0  0  0  0  0  0  0  0  0  0
   26.7251  -19.3345  -13.4155 C   0  0  0  0  0  0  0  0  0  0  0  0
   27.9258  -19.7472  -13.2624 O   0  0  0  0  0  0  0  0  0  0  0  0
   25.3037  -20.1236  -10.0698 C   0  0  0  0  0  0  0  0  0  0  0  0
   26.2236  -20.4766  -11.2297 C   0  0  2  0  0  0  0  0  0  0  0  0
   25.8339  -19.6398  -12.3552 N   0  0  0  0  0  0  0  0  0  0  0  0
   26.0620  -21.9003  -11.5235 C   0  0  0  0  0  0  0  0  0  0  0  0
   26.5448  -22.8279  -10.6153 O   0  0  0  0  0  0  0  0  0  0  0  0
   25.5053  -22.3298  -12.5618 O   0  0  0  0  0  0  0  0  0  0  0  0
  2  1  1  0
  2  3  2  0
  4  3  1  0
  5  4  2  0
  6  5  1  0
  7  6  1  0
  7  9  1  0
  7  8  1  6
  9 18  1  0
  9 10  2  0
 11 12  2  0
 11  5  1  0
 12  2  1  0
 14 13  1  1
 14 15  1  0
 16 14  1  0
 17 16  1  1
 18 17  1  0
 19 23  1  0
 19 17  1  0
 20 19  2  0
 22 21  1  1
 22 23  1  0
 22 24  1  0
 24 25  1  0
 26 24  2  0
M  END
$$$$
