YLA.pdb
     RDKit          3D

 26 26  0  0  1  0  0  0  0  0999 V2000
   15.2789  -11.9405  -22.3567 O   0  0  0  0  0  0  0  0  0  0  0  0
   15.8886  -11.2010  -21.3464 C   0  0  0  0  0  0  0  0  0  0  0  0
   17.2656  -11.0502  -21.2655 C   0  0  0  0  0  0  0  0  0  0  0  0
   17.8295  -10.3016  -20.2376 C   0  0  0  0  0  0  0  0  0  0  0  0
   17.0466   -9.6942  -19.2797 C   0  0  0  0  0  0  0  0  0  0  0  0
   17.6700   -8.9005  -18.1923 C   0  0  0  0  0  0  0  0  0  0  0  0
   18.4073   -9.8677  -17.2925 C   0  0  2  0  0  0  0  0  0  0  0  0
   17.4552  -10.7202  -16.6625 N   0  0  0  0  0  0  0  0  0  0  0  0
   19.2033   -9.1514  -16.2547 C   0  0  0  0  0  0  0  0  0  0  0  0
   18.6540   -8.9178  -15.1591 O   0  0  0  0  0  0  0  0  0  0  0  0
   15.6791   -9.8646  -19.3899 C   0  0  0  0  0  0  0  0  0  0  0  0
   15.1037  -10.6036  -20.4029 C   0  0  0  0  0  0  0  0  0  0  0  0
   24.1702  -10.6672  -14.8535 C   0  0  0  0  0  0  0  0  0  0  0  0
   22.7498  -10.0848  -14.8806 C   0  0  1  0  0  0  0  0  0  0  0  0
   22.3261  -10.1017  -13.4019 C   0  0  0  0  0  0  0  0  0  0  0  0
   22.7791   -8.7076  -15.4227 C   0  0  0  0  0  0  0  0  0  0  0  0
   21.4346   -8.0633  -15.6468 C   0  0  2  0  0  0  0  0  0  0  0  0
   20.5328   -8.7555  -16.5137 N   0  0  0  0  0  0  0  0  0  0  0  0
   21.4685   -6.6302  -15.9361 C   0  0  0  0  0  0  0  0  0  0  0  0
   22.0891   -5.8348  -15.1502 O   0  0  0  0  0  0  0  0  0  0  0  0
   20.7158   -4.3584  -18.7760 C   0  0  0  0  0  0  0  0  0  0  0  0
   20.8879   -4.5836  -17.2807 C   0  0  2  0  0  0  0  0  0  0  0  0
   20.8483   -6.0214  -17.0570 N   0  0  0  0  0  0  0  0  0  0  0  0
   19.8024   -3.8910  -16.5869 C   0  0  0  0  0  0  0  0  0  0  0  0
   19.9148   -2.5284  -16.3648 O   0  0  0  0  0  0  0  0  0  0  0  0
   18.7671   -4.4691  -16.1790 O   0  0  0  0  0  0  0  0  0  0  0  0
  2  1  1  0
  2  3  2  0
  4  3  1  0
  5  4  2  0
  6  5  1  0
  7  6  1  0
  7  9  1  0
  7  8  1  1
  9 18  1  0
  9 10  2  0
 11 12  2  0
 11  5  1  0
 12  2  1  0
 14 13  1  1
 14 15  1  0
 16 14  1  0
 17 16  1  6
 18 17  1  0
 19 23  1  0
 19 17  1  0
 20 19  2  0
 22 21  1  6
 22 23  1  0
 22 24  1  0
 24 25  1  0
 26 24  2  0
M  END
$$$$
