YLA.pdb
     RDKit          3D

 26 26  0  0  1  0  0  0  0  0999 V2000
   12.3944   -8.6972  -18.4061 O   0  0  0  0  0  0  0  0  0  0  0  0
   13.7597   -8.9090  -18.5801 C   0  0  0  0  0  0  0  0  0  0  0  0
   14.2573   -9.9861  -19.2995 C   0  0  0  0  0  0  0  0  0  0  0  0
   15.6301  -10.1565  -19.4465 C   0  0  0  0  0  0  0  0  0  0  0  0
   16.5267   -9.2710  -18.8887 C   0  0  0  0  0  0  0  0  0  0  0  0
   17.9867   -9.4728  -19.0585 C   0  0  0  0  0  0  0  0  0  0  0  0
   18.4654  -10.3115  -17.8939 C   0  0  2  0  0  0  0  0  0  0  0  0
   17.6334  -11.4633  -17.7895 N   0  0  0  0  0  0  0  0  0  0  0  0
   18.4249   -9.5457  -16.6149 C   0  0  0  0  0  0  0  0  0  0  0  0
   17.4809   -9.7723  -15.8313 O   0  0  0  0  0  0  0  0  0  0  0  0
   15.9974   -8.2094  -18.1786 C   0  0  0  0  0  0  0  0  0  0  0  0
   14.6389   -8.0257  -18.0232 C   0  0  0  0  0  0  0  0  0  0  0  0
   20.3422   -7.7201  -12.1116 C   0  0  0  0  0  0  0  0  0  0  0  0
   21.0608   -6.9900  -13.2552 C   0  0  1  0  0  0  0  0  0  0  0  0
   22.5194   -6.9133  -12.7725 C   0  0  0  0  0  0  0  0  0  0  0  0
   20.9421   -7.7718  -14.5067 C   0  0  0  0  0  0  0  0  0  0  0  0
   19.5683   -7.8108  -15.1267 C   0  0  2  0  0  0  0  0  0  0  0  0
   19.4260   -8.5986  -16.3112 N   0  0  0  0  0  0  0  0  0  0  0  0
   18.9045   -6.5144  -15.2577 C   0  0  0  0  0  0  0  0  0  0  0  0
   19.3253   -5.6656  -16.1168 O   0  0  0  0  0  0  0  0  0  0  0  0
   15.8121   -4.8613  -13.9449 C   0  0  0  0  0  0  0  0  0  0  0  0
   17.1410   -4.8126  -14.6851 C   0  0  2  0  0  0  0  0  0  0  0  0
   17.7903   -6.0999  -14.4841 N   0  0  0  0  0  0  0  0  0  0  0  0
   17.9292   -3.7096  -14.1362 C   0  0  0  0  0  0  0  0  0  0  0  0
   18.9547   -3.9984  -13.2510 O   0  0  0  0  0  0  0  0  0  0  0  0
   17.7249   -2.5069  -14.4260 O   0  0  0  0  0  0  0  0  0  0  0  0
  2  1  1  0
  2  3  2  0
  4  3  1  0
  5  4  2  0
  6  5  1  0
  7  6  1  0
  7  9  1  0
  7  8  1  1
  9 18  1  0
  9 10  2  0
 11 12  2  0
 11  5  1  0
 12  2  1  0
 14 13  1  1
 14 15  1  0
 16 14  1  0
 17 16  1  6
 18 17  1  0
 19 23  1  0
 19 17  1  0
 20 19  2  0
 22 21  1  1
 22 23  1  0
 22 24  1  0
 24 25  1  0
 26 24  2  0
M  END
$$$$
