YLA.pdb
     RDKit          3D

 26 26  0  0  1  0  0  0  0  0999 V2000
   27.6909  -16.1442  -20.4296 O   0  0  0  0  0  0  0  0  0  0  0  0
   27.3341  -17.0191  -19.4065 C   0  0  0  0  0  0  0  0  0  0  0  0
   27.9349  -16.9826  -18.1564 C   0  0  0  0  0  0  0  0  0  0  0  0
   27.5451  -17.8772  -17.1650 C   0  0  0  0  0  0  0  0  0  0  0  0
   26.5619  -18.8159  -17.3921 C   0  0  0  0  0  0  0  0  0  0  0  0
   26.1623  -19.7602  -16.3198 C   0  0  0  0  0  0  0  0  0  0  0  0
   24.7062  -19.4965  -16.0052 C   0  0  2  0  0  0  0  0  0  0  0  0
   24.5940  -18.2042  -15.4160 N   0  0  0  0  0  0  0  0  0  0  0  0
   24.1532  -20.5219  -15.0742 C   0  0  0  0  0  0  0  0  0  0  0  0
   24.1538  -21.7109  -15.4521 O   0  0  0  0  0  0  0  0  0  0  0  0
   25.9843  -18.8249  -18.6481 C   0  0  0  0  0  0  0  0  0  0  0  0
   26.3591  -17.9448  -19.6423 C   0  0  0  0  0  0  0  0  0  0  0  0
   25.6352  -20.3857   -9.9701 C   0  0  0  0  0  0  0  0  0  0  0  0
   25.1718  -20.6437  -11.4110 C   0  0  1  0  0  0  0  0  0  0  0  0
   25.9807  -21.8825  -11.8324 C   0  0  0  0  0  0  0  0  0  0  0  0
   23.7160  -20.9111  -11.4328 C   0  0  0  0  0  0  0  0  0  0  0  0
   23.0847  -20.9883  -12.7998 C   0  0  2  0  0  0  0  0  0  0  0  0
   23.6485  -20.1487  -13.8103 N   0  0  0  0  0  0  0  0  0  0  0  0
   21.6230  -20.9464  -12.8168 C   0  0  0  0  0  0  0  0  0  0  0  0
   20.9539  -21.6809  -12.0115 O   0  0  0  0  0  0  0  0  0  0  0  0
   18.9285  -18.9561  -14.4958 C   0  0  0  0  0  0  0  0  0  0  0  0
   19.3967  -20.1544  -13.6828 C   0  0  2  0  0  0  0  0  0  0  0  0
   20.8521  -20.1296  -13.6830 N   0  0  0  0  0  0  0  0  0  0  0  0
   18.8691  -21.3658  -14.3100 C   0  0  0  0  0  0  0  0  0  0  0  0
   17.5184  -21.6468  -14.1869 O   0  0  0  0  0  0  0  0  0  0  0  0
   19.5796  -22.1703  -14.9585 O   0  0  0  0  0  0  0  0  0  0  0  0
  2  1  1  0
  2  3  2  0
  4  3  1  0
  5  4  2  0
  6  5  1  0
  7  6  1  0
  7  9  1  0
  7  8  1  1
  9 18  1  0
  9 10  2  0
 11 12  2  0
 11  5  1  0
 12  2  1  0
 14 13  1  1
 14 15  1  0
 16 14  1  0
 17 16  1  1
 18 17  1  0
 19 23  1  0
 19 17  1  0
 20 19  2  0
 22 21  1  6
 22 23  1  0
 22 24  1  0
 24 25  1  0
 26 24  2  0
M  END
$$$$
