YLA.pdb
     RDKit          3D

 26 26  0  0  1  0  0  0  0  0999 V2000
   22.1755  -18.0139  -16.0168 O   0  0  0  0  0  0  0  0  0  0  0  0
   22.7352  -18.4529  -14.8196 C   0  0  0  0  0  0  0  0  0  0  0  0
   21.9747  -19.0316  -13.8136 C   0  0  0  0  0  0  0  0  0  0  0  0
   22.5784  -19.4552  -12.6341 C   0  0  0  0  0  0  0  0  0  0  0  0
   23.9343  -19.3146  -12.4317 C   0  0  0  0  0  0  0  0  0  0  0  0
   24.5567  -19.7737  -11.1655 C   0  0  0  0  0  0  0  0  0  0  0  0
   25.4825  -20.9204  -11.5071 C   0  0  2  0  0  0  0  0  0  0  0  0
   24.7007  -22.0085  -11.9915 N   0  0  0  0  0  0  0  0  0  0  0  0
   26.2714  -21.3589  -10.3200 C   0  0  0  0  0  0  0  0  0  0  0  0
   25.6474  -21.8391   -9.3523 O   0  0  0  0  0  0  0  0  0  0  0  0
   24.6622  -18.7343  -13.4538 C   0  0  0  0  0  0  0  0  0  0  0  0
   24.0792  -18.3087  -14.6296 C   0  0  0  0  0  0  0  0  0  0  0  0
   30.8586  -22.9693   -7.7847 C   0  0  0  0  0  0  0  0  0  0  0  0
   30.9446  -21.5432   -8.3470 C   0  0  1  0  0  0  0  0  0  0  0  0
   32.4202  -21.4081   -8.7603 C   0  0  0  0  0  0  0  0  0  0  0  0
   30.0388  -21.4035   -9.5095 C   0  0  0  0  0  0  0  0  0  0  0  0
   28.5650  -21.3812   -9.1924 C   0  0  2  0  0  0  0  0  0  0  0  0
   27.6766  -21.2306  -10.3024 N   0  0  0  0  0  0  0  0  0  0  0  0
   28.1793  -20.5241   -8.0721 C   0  0  0  0  0  0  0  0  0  0  0  0
   27.9028  -19.2923   -8.2765 O   0  0  0  0  0  0  0  0  0  0  0  0
   26.9097  -20.6503   -4.6584 C   0  0  0  0  0  0  0  0  0  0  0  0
   27.9098  -20.0251   -5.6202 C   0  0  2  0  0  0  0  0  0  0  0  0
   28.0813  -20.9572   -6.7251 N   0  0  0  0  0  0  0  0  0  0  0  0
   29.1599  -19.7987   -4.8953 C   0  0  0  0  0  0  0  0  0  0  0  0
   29.2355  -18.7344   -4.0120 O   0  0  0  0  0  0  0  0  0  0  0  0
   30.1751  -20.5220   -5.0316 O   0  0  0  0  0  0  0  0  0  0  0  0
  2  1  1  0
  2  3  2  0
  4  3  1  0
  5  4  2  0
  6  5  1  0
  7  6  1  0
  7  9  1  0
  7  8  1  1
  9 18  1  0
  9 10  2  0
 11 12  2  0
 11  5  1  0
 12  2  1  0
 14 13  1  6
 14 15  1  0
 16 14  1  0
 17 16  1  6
 18 17  1  0
 19 23  1  0
 19 17  1  0
 20 19  2  0
 22 21  1  1
 22 23  1  0
 22 24  1  0
 24 25  1  0
 26 24  2  0
M  END
$$$$
