ACH.pdb
     RDKit          3D

 22 22  0  0  1  0  0  0  0  0999 V2000
   29.6311  -35.3658   -4.2978 C   0  0  0  0  0  0  0  0  0  0  0  0
   28.1511  -35.0816   -4.1542 C   0  0  2  0  0  0  0  0  0  0  0  0
   27.6631  -34.4440   -5.3644 N   0  0  0  0  0  0  0  0  0  0  0  0
   27.8949  -34.1412   -3.0332 C   0  0  0  0  0  0  0  0  0  0  0  0
   27.3654  -33.0378   -3.3060 O   0  0  0  0  0  0  0  0  0  0  0  0
   28.2194  -34.4335   -1.6828 N   0  0  0  0  0  0  0  0  0  0  0  0
   27.8050  -33.6150   -0.5627 C   0  0  1  0  0  0  0  0  0  0  0  0
   26.2756  -33.7253   -0.4958 C   0  0  0  0  0  0  0  0  0  0  0  0
   25.7626  -35.4231   -0.2207 S   0  0  0  0  0  0  0  0  0  0  0  0
   28.3071  -34.1661    0.7240 C   0  0  0  0  0  0  0  0  0  0  0  0
   28.2467  -35.4144    0.8678 O   0  0  0  0  0  0  0  0  0  0  0  0
   28.8321  -33.3978    1.7643 N   0  0  0  0  0  0  0  0  0  0  0  0
   29.3941  -33.9848    3.0125 C   0  0  1  0  0  0  0  0  0  0  0  0
   30.3500  -32.9484    3.4875 C   0  0  0  0  0  0  0  0  0  0  0  0
   31.6039  -32.7920    2.7710 C   0  0  0  0  0  0  0  0  0  0  0  0
   32.2136  -33.3804    1.7134 C   0  0  0  0  0  0  0  0  0  0  0  0
   33.3989  -32.7827    1.4474 N   0  0  0  0  0  0  0  0  0  0  0  0
   33.5200  -31.8170    2.3486 C   0  0  0  0  0  0  0  0  0  0  0  0
   32.4725  -31.7950    3.1488 N   0  0  0  0  0  0  0  0  0  0  0  0
   28.2183  -34.1354    3.8934 C   0  0  0  0  0  0  0  0  0  0  0  0
   27.0975  -33.7620    3.5303 O   0  0  0  0  0  0  0  0  0  0  0  0
   28.3423  -34.6969    5.1441 O   0  0  0  0  0  0  0  0  0  0  0  0
  2  1  1  6
  3  2  1  0
  4  6  1  0
  4  2  1  0
  5  4  2  0
  7  6  1  0
  7 10  1  0
  7  8  1  1
  9  8  1  0
 10 12  1  0
 11 10  2  0
 12 13  1  0
 13 14  1  1
 13 20  1  0
 15 14  1  0
 16 15  2  0
 17 16  1  0
 18 17  1  0
 18 19  2  0
 19 15  1  0
 20 22  1  0
 21 20  2  0
M  END
$$$$
