ACH.pdb
     RDKit          3D

 22 22  0  0  1  0  0  0  0  0999 V2000
   28.0801  -31.5228  -11.2730 C   0  0  0  0  0  0  0  0  0  0  0  0
   27.8110  -32.5616  -12.3408 C   0  0  2  0  0  0  0  0  0  0  0  0
   27.2354  -31.9160  -13.5073 N   0  0  0  0  0  0  0  0  0  0  0  0
   26.8252  -33.5679  -11.8694 C   0  0  0  0  0  0  0  0  0  0  0  0
   25.6183  -33.3808  -12.1536 O   0  0  0  0  0  0  0  0  0  0  0  0
   27.1852  -34.7183  -11.1202 N   0  0  0  0  0  0  0  0  0  0  0  0
   26.2305  -35.6981  -10.6459 C   0  0  1  0  0  0  0  0  0  0  0  0
   26.5025  -36.9806  -11.4439 C   0  0  0  0  0  0  0  0  0  0  0  0
   25.5645  -36.9997  -12.9740 S   0  0  0  0  0  0  0  0  0  0  0  0
   26.4777  -36.0477   -9.2218 C   0  0  0  0  0  0  0  0  0  0  0  0
   27.6717  -36.2650   -8.8906 O   0  0  0  0  0  0  0  0  0  0  0  0
   25.4843  -36.1478   -8.2463 N   0  0  0  0  0  0  0  0  0  0  0  0
   25.7710  -36.4291   -6.8120 C   0  0  1  0  0  0  0  0  0  0  0  0
   24.8452  -35.5193   -6.0849 C   0  0  0  0  0  0  0  0  0  0  0  0
   25.3669  -34.2525   -5.6022 C   0  0  0  0  0  0  0  0  0  0  0  0
   26.5409  -33.5793   -5.6749 C   0  0  0  0  0  0  0  0  0  0  0  0
   26.4475  -32.3804   -5.0531 N   0  0  0  0  0  0  0  0  0  0  0  0
   25.2048  -32.3140   -4.5941 C   0  0  0  0  0  0  0  0  0  0  0  0
   24.5370  -33.4080   -4.9028 N   0  0  0  0  0  0  0  0  0  0  0  0
   25.4231  -37.8558   -6.6547 C   0  0  0  0  0  0  0  0  0  0  0  0
   24.9272  -38.2793   -5.6048 O   0  0  0  0  0  0  0  0  0  0  0  0
   25.6435  -38.7515   -7.6766 O   0  0  0  0  0  0  0  0  0  0  0  0
  2  1  1  1
  3  2  1  0
  4  6  1  0
  4  2  1  0
  5  4  2  0
  7  6  1  0
  7 10  1  0
  7  8  1  6
  9  8  1  0
 10 12  1  0
 11 10  2  0
 12 13  1  0
 13 14  1  1
 13 20  1  0
 15 14  1  0
 16 15  2  0
 17 16  1  0
 18 17  1  0
 18 19  2  0
 19 15  1  0
 20 22  1  0
 21 20  2  0
M  END
$$$$
