ACH.pdb
     RDKit          3D

 22 22  0  0  1  0  0  0  0  0999 V2000
   22.9456  -16.8784  -17.6424 C   0  0  0  0  0  0  0  0  0  0  0  0
   23.3131  -15.5150  -18.1881 C   0  0  2  0  0  0  0  0  0  0  0  0
   24.5934  -15.5971  -18.8685 N   0  0  0  0  0  0  0  0  0  0  0  0
   23.4658  -14.5249  -17.0913 C   0  0  0  0  0  0  0  0  0  0  0  0
   22.4800  -14.3270  -16.3419 O   0  0  0  0  0  0  0  0  0  0  0  0
   24.6642  -13.8018  -16.8570 N   0  0  0  0  0  0  0  0  0  0  0  0
   24.7787  -12.7296  -15.8907 C   0  0  1  0  0  0  0  0  0  0  0  0
   26.2815  -12.4731  -15.7133 C   0  0  0  0  0  0  0  0  0  0  0  0
   27.0903  -13.8805  -14.9476 S   0  0  0  0  0  0  0  0  0  0  0  0
   24.2117  -11.4614  -16.4214 C   0  0  0  0  0  0  0  0  0  0  0  0
   24.4733  -11.1813  -17.6197 O   0  0  0  0  0  0  0  0  0  0  0  0
   23.4207  -10.5776  -15.6855 N   0  0  0  0  0  0  0  0  0  0  0  0
   22.7886   -9.3628  -16.2712 C   0  0  1  0  0  0  0  0  0  0  0  0
   21.5837   -9.8942  -16.9636 C   0  0  0  0  0  0  0  0  0  0  0  0
   20.6051   -8.9443  -17.4636 C   0  0  0  0  0  0  0  0  0  0  0  0
   19.4040   -8.4636  -17.0598 C   0  0  0  0  0  0  0  0  0  0  0  0
   18.9421   -7.5323  -17.9271 N   0  0  0  0  0  0  0  0  0  0  0  0
   19.8673   -7.4378  -18.8730 C   0  0  0  0  0  0  0  0  0  0  0  0
   20.8670   -8.2616  -18.6282 N   0  0  0  0  0  0  0  0  0  0  0  0
   22.4612   -8.5320  -15.0948 C   0  0  0  0  0  0  0  0  0  0  0  0
   22.3880   -9.0273  -13.9648 O   0  0  0  0  0  0  0  0  0  0  0  0
   22.2290   -7.1818  -15.2285 O   0  0  0  0  0  0  0  0  0  0  0  0
  2  1  1  1
  3  2  1  0
  4  6  1  0
  4  2  1  0
  5  4  2  0
  7  6  1  0
  7 10  1  0
  7  8  1  6
  9  8  1  0
 10 12  1  0
 11 10  2  0
 12 13  1  0
 13 14  1  1
 13 20  1  0
 15 14  1  0
 16 15  2  0
 17 16  1  0
 18 17  1  0
 18 19  2  0
 19 15  1  0
 20 22  1  0
 21 20  2  0
M  END
$$$$
