ACH.pdb
     RDKit          3D

 22 22  0  0  1  0  0  0  0  0999 V2000
   27.9373  -10.9842  -15.2997 C   0  0  0  0  0  0  0  0  0  0  0  0
   27.2415  -10.8844  -16.6405 C   0  0  2  0  0  0  0  0  0  0  0  0
   28.1771  -11.2299  -17.6960 N   0  0  0  0  0  0  0  0  0  0  0  0
   26.7840   -9.4955  -16.9017 C   0  0  0  0  0  0  0  0  0  0  0  0
   27.6507   -8.6436  -17.2110 O   0  0  0  0  0  0  0  0  0  0  0  0
   25.4251   -9.0950  -16.8177 N   0  0  0  0  0  0  0  0  0  0  0  0
   24.9557   -7.7704  -17.1664 C   0  0  1  0  0  0  0  0  0  0  0  0
   25.0845   -7.6595  -18.6918 C   0  0  0  0  0  0  0  0  0  0  0  0
   24.3777   -6.1216  -19.2889 S   0  0  0  0  0  0  0  0  0  0  0  0
   23.5067   -7.6155  -16.8704 C   0  0  0  0  0  0  0  0  0  0  0  0
   22.7317   -8.4717  -17.3692 O   0  0  0  0  0  0  0  0  0  0  0  0
   22.9622   -6.5967  -16.0868 N   0  0  0  0  0  0  0  0  0  0  0  0
   21.5150   -6.5113  -15.7453 C   0  0  1  0  0  0  0  0  0  0  0  0
   21.4833   -6.7866  -14.2836 C   0  0  0  0  0  0  0  0  0  0  0  0
   21.5137   -8.1713  -13.8456 C   0  0  0  0  0  0  0  0  0  0  0  0
   21.6183   -9.3878  -14.4336 C   0  0  0  0  0  0  0  0  0  0  0  0
   21.6331  -10.3720  -13.5040 N   0  0  0  0  0  0  0  0  0  0  0  0
   21.5376   -9.7562  -12.3331 C   0  0  0  0  0  0  0  0  0  0  0  0
   21.4653   -8.4505  -12.5000 N   0  0  0  0  0  0  0  0  0  0  0  0
   21.1539   -5.1189  -16.0804 C   0  0  0  0  0  0  0  0  0  0  0  0
   20.0017   -4.7023  -15.9183 O   0  0  0  0  0  0  0  0  0  0  0  0
   22.0947   -4.2485  -16.5828 O   0  0  0  0  0  0  0  0  0  0  0  0
  2  1  1  1
  3  2  1  0
  4  6  1  0
  4  2  1  0
  5  4  2  0
  7  6  1  0
  7 10  1  0
  7  8  1  6
  9  8  1  0
 10 12  1  0
 11 10  2  0
 12 13  1  0
 13 14  1  1
 13 20  1  0
 15 14  1  0
 16 15  2  0
 17 16  1  0
 18 17  1  0
 18 19  2  0
 19 15  1  0
 20 22  1  0
 21 20  2  0
M  END
$$$$
