ACH.pdb
     RDKit          3D

 22 22  0  0  1  0  0  0  0  0999 V2000
   17.3639  -14.0394  -16.6718 C   0  0  0  0  0  0  0  0  0  0  0  0
   17.7547  -12.7295  -17.3224 C   0  0  2  0  0  0  0  0  0  0  0  0
   18.7125  -12.9852  -18.3837 N   0  0  0  0  0  0  0  0  0  0  0  0
   18.4171  -11.8261  -16.3468 C   0  0  0  0  0  0  0  0  0  0  0  0
   17.7661  -11.4863  -15.3304 O   0  0  0  0  0  0  0  0  0  0  0  0
   19.7388  -11.3366  -16.5126 N   0  0  0  0  0  0  0  0  0  0  0  0
   20.3420  -10.3453  -15.6466 C   0  0  1  0  0  0  0  0  0  0  0  0
   21.8540  -10.6056  -15.6876 C   0  0  0  0  0  0  0  0  0  0  0  0
   22.7371   -9.4459  -14.6405 S   0  0  0  0  0  0  0  0  0  0  0  0
   20.1531   -8.9718  -16.1843 C   0  0  0  0  0  0  0  0  0  0  0  0
   20.3842   -8.8062  -17.4098 O   0  0  0  0  0  0  0  0  0  0  0  0
   19.7424   -7.8736  -15.4269 N   0  0  0  0  0  0  0  0  0  0  0  0
   19.5848   -6.5038  -15.9900 C   0  0  1  0  0  0  0  0  0  0  0  0
   18.2511   -6.0717  -15.4919 C   0  0  0  0  0  0  0  0  0  0  0  0
   17.0806   -6.4119  -16.2822 C   0  0  0  0  0  0  0  0  0  0  0  0
   16.8366   -7.0156  -17.4707 C   0  0  0  0  0  0  0  0  0  0  0  0
   15.5055   -7.1030  -17.7018 N   0  0  0  0  0  0  0  0  0  0  0  0
   14.9244   -6.5492  -16.6458 C   0  0  0  0  0  0  0  0  0  0  0  0
   15.8301   -6.1292  -15.7848 N   0  0  0  0  0  0  0  0  0  0  0  0
   20.7006   -5.7442  -15.3908 C   0  0  0  0  0  0  0  0  0  0  0  0
   21.3431   -6.1995  -14.4383 O   0  0  0  0  0  0  0  0  0  0  0  0
   21.0535   -4.5067  -15.8800 O   0  0  0  0  0  0  0  0  0  0  0  0
  2  1  1  1
  3  2  1  0
  4  6  1  0
  4  2  1  0
  5  4  2  0
  7  6  1  0
  7 10  1  0
  7  8  1  6
  9  8  1  0
 10 12  1  0
 11 10  2  0
 12 13  1  0
 13 14  1  1
 13 20  1  0
 15 14  1  0
 16 15  2  0
 17 16  1  0
 18 17  1  0
 18 19  2  0
 19 15  1  0
 20 22  1  0
 21 20  2  0
M  END
$$$$
