ACH.pdb
     RDKit          3D

 22 22  0  0  1  0  0  0  0  0999 V2000
   20.0462  -12.1433  -20.6028 C   0  0  0  0  0  0  0  0  0  0  0  0
   21.1404  -11.5897  -19.7152 C   0  0  2  0  0  0  0  0  0  0  0  0
   21.6592  -12.6511  -18.8706 N   0  0  0  0  0  0  0  0  0  0  0  0
   20.6123  -10.5343  -18.8129 C   0  0  0  0  0  0  0  0  0  0  0  0
   20.2682   -9.4441  -19.3282 O   0  0  0  0  0  0  0  0  0  0  0  0
   20.4817  -10.7038  -17.4100 N   0  0  0  0  0  0  0  0  0  0  0  0
   20.0536   -9.6526  -16.5111 C   0  0  1  0  0  0  0  0  0  0  0  0
   19.4191  -10.3556  -15.3032 C   0  0  0  0  0  0  0  0  0  0  0  0
   17.7914  -10.9933  -15.7094 S   0  0  0  0  0  0  0  0  0  0  0  0
   21.2150   -8.8948  -15.9741 C   0  0  0  0  0  0  0  0  0  0  0  0
   22.3425   -9.4451  -16.0668 O   0  0  0  0  0  0  0  0  0  0  0  0
   21.1335   -7.6326  -15.3838 N   0  0  0  0  0  0  0  0  0  0  0  0
   22.3200   -6.7677  -15.1336 C   0  0  1  0  0  0  0  0  0  0  0  0
   22.8400   -6.4832  -16.4982 C   0  0  0  0  0  0  0  0  0  0  0  0
   23.9331   -5.5359  -16.6319 C   0  0  0  0  0  0  0  0  0  0  0  0
   25.0595   -5.2287  -15.9438 C   0  0  0  0  0  0  0  0  0  0  0  0
   25.7549   -4.2509  -16.5707 N   0  0  0  0  0  0  0  0  0  0  0  0
   25.0512   -3.9537  -17.6551 C   0  0  0  0  0  0  0  0  0  0  0  0
   23.9649   -4.6977  -17.7217 N   0  0  0  0  0  0  0  0  0  0  0  0
   21.7553   -5.5759  -14.4689 C   0  0  0  0  0  0  0  0  0  0  0  0
   22.4897   -4.7141  -13.9734 O   0  0  0  0  0  0  0  0  0  0  0  0
   20.3933   -5.3952  -14.3846 O   0  0  0  0  0  0  0  0  0  0  0  0
  2  1  1  6
  3  2  1  0
  4  6  1  0
  4  2  1  0
  5  4  2  0
  7  6  1  0
  7 10  1  0
  7  8  1  1
  9  8  1  0
 10 12  1  0
 11 10  2  0
 12 13  1  0
 13 14  1  6
 13 20  1  0
 15 14  1  0
 16 15  2  0
 17 16  1  0
 18 17  1  0
 18 19  2  0
 19 15  1  0
 20 22  1  0
 21 20  2  0
M  END
$$$$
