ACH.pdb
     RDKit          3D

 22 22  0  0  1  0  0  0  0  0999 V2000
   28.8341  -24.7873  -19.0523 C   0  0  0  0  0  0  0  0  0  0  0  0
   27.9881  -23.5320  -19.0638 C   0  0  2  0  0  0  0  0  0  0  0  0
   28.8320  -22.3844  -19.3463 N   0  0  0  0  0  0  0  0  0  0  0  0
   27.3642  -23.2972  -17.7362 C   0  0  0  0  0  0  0  0  0  0  0  0
   26.7033  -24.2337  -17.2278 O   0  0  0  0  0  0  0  0  0  0  0  0
   27.4821  -22.0738  -17.0265 N   0  0  0  0  0  0  0  0  0  0  0  0
   26.8030  -21.8024  -15.7768 C   0  0  1  0  0  0  0  0  0  0  0  0
   27.7930  -21.0045  -14.9173 C   0  0  0  0  0  0  0  0  0  0  0  0
   26.9971  -20.3667  -13.4405 S   0  0  0  0  0  0  0  0  0  0  0  0
   25.6325  -20.9083  -15.9813 C   0  0  0  0  0  0  0  0  0  0  0  0
   25.8637  -19.7777  -16.4822 O   0  0  0  0  0  0  0  0  0  0  0  0
   24.3158  -21.2397  -15.6576 N   0  0  0  0  0  0  0  0  0  0  0  0
   23.1816  -20.2796  -15.7585 C   0  0  1  0  0  0  0  0  0  0  0  0
   22.4358  -20.7435  -16.9593 C   0  0  0  0  0  0  0  0  0  0  0  0
   21.1389  -20.1492  -17.2332 C   0  0  0  0  0  0  0  0  0  0  0  0
   19.8461  -20.5556  -17.2156 C   0  0  0  0  0  0  0  0  0  0  0  0
   19.0162  -19.5342  -17.5330 N   0  0  0  0  0  0  0  0  0  0  0  0
   19.8046  -18.4892  -17.7472 C   0  0  0  0  0  0  0  0  0  0  0  0
   21.0695  -18.8197  -17.5775 N   0  0  0  0  0  0  0  0  0  0  0  0
   22.4352  -20.4801  -14.5000 C   0  0  0  0  0  0  0  0  0  0  0  0
   22.5603  -21.5195  -13.8430 O   0  0  0  0  0  0  0  0  0  0  0  0
   21.5793  -19.5114  -14.0264 O   0  0  0  0  0  0  0  0  0  0  0  0
  2  1  1  1
  3  2  1  0
  4  6  1  0
  4  2  1  0
  5  4  2  0
  7  6  1  0
  7 10  1  0
  7  8  1  1
  9  8  1  0
 10 12  1  0
 11 10  2  0
 12 13  1  0
 13 14  1  6
 13 20  1  0
 15 14  1  0
 16 15  2  0
 17 16  1  0
 18 17  1  0
 18 19  2  0
 19 15  1  0
 20 22  1  0
 21 20  2  0
M  END
$$$$
