ACH.pdb
     RDKit          3D

 22 22  0  0  1  0  0  0  0  0999 V2000
   19.3737  -14.4615  -18.7915 C   0  0  0  0  0  0  0  0  0  0  0  0
   20.8084  -14.1844  -18.3957 C   0  0  2  0  0  0  0  0  0  0  0  0
   21.4523  -15.4290  -18.0144 N   0  0  0  0  0  0  0  0  0  0  0  0
   20.8717  -13.2827  -17.2169 C   0  0  0  0  0  0  0  0  0  0  0  0
   20.2339  -13.6177  -16.1905 O   0  0  0  0  0  0  0  0  0  0  0  0
   21.6135  -12.0729  -17.2016 N   0  0  0  0  0  0  0  0  0  0  0  0
   21.6298  -11.1557  -16.0814 C   0  0  1  0  0  0  0  0  0  0  0  0
   23.1077  -10.8542  -15.7977 C   0  0  0  0  0  0  0  0  0  0  0  0
   23.2780   -9.6203  -14.5054 S   0  0  0  0  0  0  0  0  0  0  0  0
   21.0128   -9.8516  -16.4421 C   0  0  0  0  0  0  0  0  0  0  0  0
   21.4434   -9.2892  -17.4817 O   0  0  0  0  0  0  0  0  0  0  0  0
   20.0029   -9.2234  -15.7114 N   0  0  0  0  0  0  0  0  0  0  0  0
   19.4664   -7.8754  -16.0481 C   0  0  1  0  0  0  0  0  0  0  0  0
   18.1032   -7.8821  -15.4523 C   0  0  0  0  0  0  0  0  0  0  0  0
   17.3611   -6.6336  -15.4234 C   0  0  0  0  0  0  0  0  0  0  0  0
   17.5225   -5.3808  -15.9142 C   0  0  0  0  0  0  0  0  0  0  0  0
   16.4600   -4.6015  -15.6032 N   0  0  0  0  0  0  0  0  0  0  0  0
   15.6364   -5.3815  -14.9156 C   0  0  0  0  0  0  0  0  0  0  0  0
   16.1406   -6.5932  -14.7911 N   0  0  0  0  0  0  0  0  0  0  0  0
   20.3912   -6.9464  -15.3678 C   0  0  0  0  0  0  0  0  0  0  0  0
   20.6719   -5.8493  -15.8629 O   0  0  0  0  0  0  0  0  0  0  0  0
   20.9650   -7.2806  -14.1619 O   0  0  0  0  0  0  0  0  0  0  0  0
  2  1  1  1
  3  2  1  0
  4  6  1  0
  4  2  1  0
  5  4  2  0
  7  6  1  0
  7 10  1  0
  7  8  1  6
  9  8  1  0
 10 12  1  0
 11 10  2  0
 12 13  1  0
 13 14  1  1
 13 20  1  0
 15 14  1  0
 16 15  2  0
 17 16  1  0
 18 17  1  0
 18 19  2  0
 19 15  1  0
 20 22  1  0
 21 20  2  0
M  END
$$$$
