ACH.pdb
     RDKit          3D

 22 22  0  0  1  0  0  0  0  0999 V2000
   22.3748  -12.6696  -20.7441 C   0  0  0  0  0  0  0  0  0  0  0  0
   23.0124  -13.2569  -19.5030 C   0  0  2  0  0  0  0  0  0  0  0  0
   22.6806  -14.6678  -19.4122 N   0  0  0  0  0  0  0  0  0  0  0  0
   22.4875  -12.6064  -18.2750 C   0  0  0  0  0  0  0  0  0  0  0  0
   21.2443  -12.4855  -18.1641 O   0  0  0  0  0  0  0  0  0  0  0  0
   23.3215  -12.1215  -17.2341 N   0  0  0  0  0  0  0  0  0  0  0  0
   22.8179  -11.5399  -16.0075 C   0  0  1  0  0  0  0  0  0  0  0  0
   23.8525  -11.8689  -14.9226 C   0  0  0  0  0  0  0  0  0  0  0  0
   23.7399  -13.5894  -14.4241 S   0  0  0  0  0  0  0  0  0  0  0  0
   22.7768  -10.0557  -16.0906 C   0  0  0  0  0  0  0  0  0  0  0  0
   23.7503   -9.4925  -16.6542 O   0  0  0  0  0  0  0  0  0  0  0  0
   21.7429   -9.2622  -15.5908 N   0  0  0  0  0  0  0  0  0  0  0  0
   21.7014   -7.7811  -15.7422 C   0  0  1  0  0  0  0  0  0  0  0  0
   20.9971   -7.5812  -17.0374 C   0  0  0  0  0  0  0  0  0  0  0  0
   20.6578   -6.2247  -17.4314 C   0  0  0  0  0  0  0  0  0  0  0  0
   20.9140   -4.9741  -16.9765 C   0  0  0  0  0  0  0  0  0  0  0  0
   20.3572   -4.0437  -17.7871 N   0  0  0  0  0  0  0  0  0  0  0  0
   19.7534   -4.7272  -18.7504 C   0  0  0  0  0  0  0  0  0  0  0  0
   19.9126   -6.0233  -18.5694 N   0  0  0  0  0  0  0  0  0  0  0  0
   20.9129   -7.3283  -14.5784 C   0  0  0  0  0  0  0  0  0  0  0  0
   20.2319   -8.1233  -13.9213 O   0  0  0  0  0  0  0  0  0  0  0  0
   20.9172   -6.0059  -14.1959 O   0  0  0  0  0  0  0  0  0  0  0  0
  2  1  1  6
  3  2  1  0
  4  6  1  0
  4  2  1  0
  5  4  2  0
  7  6  1  0
  7 10  1  0
  7  8  1  1
  9  8  1  0
 10 12  1  0
 11 10  2  0
 12 13  1  0
 13 14  1  6
 13 20  1  0
 15 14  1  0
 16 15  2  0
 17 16  1  0
 18 17  1  0
 18 19  2  0
 19 15  1  0
 20 22  1  0
 21 20  2  0
M  END
$$$$
