ACH.pdb
     RDKit          3D

 22 22  0  0  1  0  0  0  0  0999 V2000
   22.6272  -13.4111  -17.3704 C   0  0  0  0  0  0  0  0  0  0  0  0
   22.5887  -11.9865  -17.8810 C   0  0  2  0  0  0  0  0  0  0  0  0
   23.5207  -11.8451  -18.9858 N   0  0  0  0  0  0  0  0  0  0  0  0
   23.0149  -11.0305  -16.8269 C   0  0  0  0  0  0  0  0  0  0  0  0
   22.4306  -11.0845  -15.7188 O   0  0  0  0  0  0  0  0  0  0  0  0
   24.0423  -10.0700  -17.0169 N   0  0  0  0  0  0  0  0  0  0  0  0
   24.3712   -9.0447  -16.0488 C   0  0  1  0  0  0  0  0  0  0  0  0
   25.7575   -8.5157  -16.4413 C   0  0  0  0  0  0  0  0  0  0  0  0
   27.0425   -9.6931  -16.0128 S   0  0  0  0  0  0  0  0  0  0  0  0
   23.4491   -7.8831  -16.1579 C   0  0  0  0  0  0  0  0  0  0  0  0
   23.1482   -7.5056  -17.3196 O   0  0  0  0  0  0  0  0  0  0  0  0
   22.9059   -7.1974  -15.0702 N   0  0  0  0  0  0  0  0  0  0  0  0
   21.9624   -6.0537  -15.2119 C   0  0  1  0  0  0  0  0  0  0  0  0
   20.7335   -6.5256  -14.5186 C   0  0  0  0  0  0  0  0  0  0  0  0
   19.8116   -7.3715  -15.2566 C   0  0  0  0  0  0  0  0  0  0  0  0
   19.7523   -7.9162  -16.4961 C   0  0  0  0  0  0  0  0  0  0  0  0
   18.6420   -8.6786  -16.6342 N   0  0  0  0  0  0  0  0  0  0  0  0
   18.0123   -8.6036  -15.4692 C   0  0  0  0  0  0  0  0  0  0  0  0
   18.6793   -7.8364  -14.6297 N   0  0  0  0  0  0  0  0  0  0  0  0
   22.6381   -4.9476  -14.5041 C   0  0  0  0  0  0  0  0  0  0  0  0
   22.1416   -3.8164  -14.4673 O   0  0  0  0  0  0  0  0  0  0  0  0
   23.8410   -5.1501  -13.8660 O   0  0  0  0  0  0  0  0  0  0  0  0
  2  1  1  1
  3  2  1  0
  4  6  1  0
  4  2  1  0
  5  4  2  0
  7  6  1  0
  7 10  1  0
  7  8  1  6
  9  8  1  0
 10 12  1  0
 11 10  2  0
 12 13  1  0
 13 14  1  1
 13 20  1  0
 15 14  1  0
 16 15  2  0
 17 16  1  0
 18 17  1  0
 18 19  2  0
 19 15  1  0
 20 22  1  0
 21 20  2  0
M  END
$$$$
