ACH.pdb
     RDKit          3D

 22 22  0  0  1  0  0  0  0  0999 V2000
   46.5049  -14.1906   -9.9153 C   0  0  0  0  0  0  0  0  0  0  0  0
   46.5001  -13.9956   -8.4140 C   0  0  2  0  0  0  0  0  0  0  0  0
   46.5761  -15.2897   -7.7596 N   0  0  0  0  0  0  0  0  0  0  0  0
   45.2386  -13.3534   -7.9637 C   0  0  0  0  0  0  0  0  0  0  0  0
   44.1771  -14.0123   -8.0715 O   0  0  0  0  0  0  0  0  0  0  0  0
   45.1826  -12.0424   -7.4232 N   0  0  0  0  0  0  0  0  0  0  0  0
   43.9612  -11.4155   -6.9632 C   0  0  1  0  0  0  0  0  0  0  0  0
   44.3537  -10.5473   -5.7599 C   0  0  0  0  0  0  0  0  0  0  0  0
   42.9215   -9.7121   -5.0724 S   0  0  0  0  0  0  0  0  0  0  0  0
   43.4199  -10.4759   -7.9807 C   0  0  0  0  0  0  0  0  0  0  0  0
   44.2594   -9.8212   -8.6509 O   0  0  0  0  0  0  0  0  0  0  0  0
   42.0615  -10.2784   -8.2342 N   0  0  0  0  0  0  0  0  0  0  0  0
   41.5503   -9.3360   -9.2681 C   0  0  1  0  0  0  0  0  0  0  0  0
   40.5648  -10.1510  -10.0283 C   0  0  0  0  0  0  0  0  0  0  0  0
   39.7237   -9.4773  -11.0024 C   0  0  0  0  0  0  0  0  0  0  0  0
   39.6174   -8.2270  -11.5141 C   0  0  0  0  0  0  0  0  0  0  0  0
   38.6463   -8.1733  -12.4559 N   0  0  0  0  0  0  0  0  0  0  0  0
   38.1506   -9.4017  -12.5255 C   0  0  0  0  0  0  0  0  0  0  0  0
   38.7675  -10.1999  -11.6767 N   0  0  0  0  0  0  0  0  0  0  0  0
   40.9235   -8.2542   -8.4818 C   0  0  0  0  0  0  0  0  0  0  0  0
   40.4960   -8.4607   -7.3407 O   0  0  0  0  0  0  0  0  0  0  0  0
   40.7996   -6.9859   -9.0022 O   0  0  0  0  0  0  0  0  0  0  0  0
  2  1  1  6
  3  2  1  0
  4  6  1  0
  4  2  1  0
  5  4  2  0
  7  6  1  0
  7 10  1  0
  7  8  1  1
  9  8  1  0
 10 12  1  0
 11 10  2  0
 12 13  1  0
 13 14  1  6
 13 20  1  0
 15 14  1  0
 16 15  2  0
 17 16  1  0
 18 17  1  0
 18 19  2  0
 19 15  1  0
 20 22  1  0
 21 20  2  0
M  END
$$$$
