ACH.pdb
     RDKit          3D

 22 22  0  0  1  0  0  0  0  0999 V2000
   24.0207  -15.4412  -18.5257 C   0  0  0  0  0  0  0  0  0  0  0  0
   24.6195  -14.2001  -19.1525 C   0  0  2  0  0  0  0  0  0  0  0  0
   25.9467  -14.5069  -19.6561 N   0  0  0  0  0  0  0  0  0  0  0  0
   24.7748  -13.1171  -18.1477 C   0  0  0  0  0  0  0  0  0  0  0  0
   23.7410  -12.7016  -17.5725 O   0  0  0  0  0  0  0  0  0  0  0  0
   26.0272  -12.5388  -17.8142 N   0  0  0  0  0  0  0  0  0  0  0  0
   26.1724  -11.3671  -16.9760 C   0  0  1  0  0  0  0  0  0  0  0  0
   27.6507  -11.3152  -16.5668 C   0  0  0  0  0  0  0  0  0  0  0  0
   28.0245   -9.7944  -15.6900 S   0  0  0  0  0  0  0  0  0  0  0  0
   25.9211  -10.1189  -17.7443 C   0  0  0  0  0  0  0  0  0  0  0  0
   26.5234   -9.9983  -18.8421 O   0  0  0  0  0  0  0  0  0  0  0  0
   25.0731   -9.0904  -17.3302 N   0  0  0  0  0  0  0  0  0  0  0  0
   24.8552   -7.8433  -18.1148 C   0  0  1  0  0  0  0  0  0  0  0  0
   23.6428   -8.1450  -18.9224 C   0  0  0  0  0  0  0  0  0  0  0  0
   23.0420   -7.0659  -19.6871 C   0  0  0  0  0  0  0  0  0  0  0  0
   22.5875   -5.8144  -19.4343 C   0  0  0  0  0  0  0  0  0  0  0  0
   22.1520   -5.2218  -20.5710 N   0  0  0  0  0  0  0  0  0  0  0  0
   22.3408   -6.1157  -21.5326 C   0  0  0  0  0  0  0  0  0  0  0  0
   22.8673   -7.2204  -21.0424 N   0  0  0  0  0  0  0  0  0  0  0  0
   24.6221   -6.8124  -17.0832 C   0  0  0  0  0  0  0  0  0  0  0  0
   24.5041   -7.1180  -15.8915 O   0  0  0  0  0  0  0  0  0  0  0  0
   24.5303   -5.4820  -17.4248 O   0  0  0  0  0  0  0  0  0  0  0  0
  2  1  1  1
  3  2  1  0
  4  6  1  0
  4  2  1  0
  5  4  2  0
  7  6  1  0
  7 10  1  0
  7  8  1  6
  9  8  1  0
 10 12  1  0
 11 10  2  0
 12 13  1  0
 13 14  1  6
 13 20  1  0
 15 14  1  0
 16 15  2  0
 17 16  1  0
 18 17  1  0
 18 19  2  0
 19 15  1  0
 20 22  1  0
 21 20  2  0
M  END
$$$$
