IRH.pdb
     RDKit          3D

 30 30  0  0  1  0  0  0  0  0999 V2000
   28.0394  -20.2232   -3.8069 C   0  0  0  0  0  0  0  0  0  0  0  0
   26.9364  -20.2277   -4.8555 C   0  0  0  0  0  0  0  0  0  0  0  0
   27.4690  -19.9006   -6.2234 C   0  0  2  0  0  0  0  0  0  0  0  0
   28.2436  -18.6338   -6.2320 C   0  0  0  0  0  0  0  0  0  0  0  0
   26.3198  -19.9571   -7.2070 C   0  0  2  0  0  0  0  0  0  0  0  0
   25.7569  -21.3049   -7.1096 N   0  0  0  0  0  0  0  0  0  0  0  0
   26.7493  -19.6915   -8.5855 C   0  0  0  0  0  0  0  0  0  0  0  0
   27.1596  -18.5606   -8.9817 O   0  0  0  0  0  0  0  0  0  0  0  0
   32.5291  -23.5862  -13.2891 N   0  0  0  0  0  0  0  0  0  0  0  0
   32.2237  -22.7598  -12.1499 C   0  0  0  0  0  0  0  0  0  0  0  0
   33.0949  -22.5930  -11.2199 N   0  0  0  0  0  0  0  0  0  0  0  0
   30.9671  -22.1126  -12.0254 N   0  0  0  0  0  0  0  0  0  0  0  0
   29.8610  -22.3677  -12.9295 C   0  0  0  0  0  0  0  0  0  0  0  0
   28.7474  -21.3605  -12.6657 C   0  0  0  0  0  0  0  0  0  0  0  0
   28.2525  -21.4704  -11.2592 C   0  0  0  0  0  0  0  0  0  0  0  0
   27.1163  -20.4976  -10.9288 C   0  0  2  0  0  0  0  0  0  0  0  0
   26.7128  -20.7446   -9.5376 N   0  0  0  0  0  0  0  0  0  0  0  0
   25.9892  -20.5579  -11.8461 C   0  0  0  0  0  0  0  0  0  0  0  0
   25.2381  -21.5944  -11.9505 O   0  0  0  0  0  0  0  0  0  0  0  0
   32.9514  -22.0488  -10.3658 N   0  0  0  0  0  0  0  0  0  0  0  0
   25.6318  -19.4735  -12.6904 C   0  0  2  0  0  0  0  0  0  0  0  0
   24.6622  -19.6581  -13.7603 C   0  0  0  0  0  0  0  0  0  0  0  0
   25.4703  -20.3096  -14.8995 C   0  0  0  0  0  0  0  0  0  0  0  0
   24.6326  -20.4657  -16.0905 C   0  0  0  0  0  0  0  0  0  0  0  0
   23.3033  -20.0461  -16.1293 N   0  0  0  0  0  0  0  0  0  0  0  0
   22.8748  -20.3619  -17.3708 C   0  0  0  0  0  0  0  0  0  0  0  0
   23.8837  -20.9431  -18.0579 N   0  0  0  0  0  0  0  0  0  0  0  0
   24.9760  -21.0085  -17.2634 C   0  0  0  0  0  0  0  0  0  0  0  0
   23.5289  -20.4907  -13.3357 O   0  0  0  0  0  0  0  0  0  0  0  0
   23.6790  -21.6375  -12.7950 O   0  0  0  0  0  0  0  0  0  0  0  0
  2  3  1  0
  2  1  1  0
  3  4  1  1
  5  7  1  0
  5  3  1  0
  5  6  1  6
  7  8  2  0
 10 12  1  0
 10  9  1  0
 11 10  2  0
 13 14  1  0
 13 12  1  0
 14 15  1  0
 16 15  1  6
 17 16  1  0
 17  7  1  0
 18 16  1  0
 19 18  2  0
 20 18  1  0
 21 20  1  0
 21 22  1  6
 22 23  1  0
 23 27  1  0
 23 24  2  0
 24 25  1  0
 26 25  1  0
 27 26  2  0
 28 21  1  0
 29 28  2  0
 30 28  1  0
M  END
$$$$
