IRH.pdb
     RDKit          3D

 30 30  0  0  1  0  0  0  0  0999 V2000
   25.0110  -19.7928   -8.3033 C   0  0  0  0  0  0  0  0  0  0  0  0
   25.7348  -20.7101   -9.2785 C   0  0  0  0  0  0  0  0  0  0  0  0
   25.2164  -20.5497  -10.6811 C   0  0  2  0  0  0  0  0  0  0  0  0
   23.7410  -20.7021  -10.7511 C   0  0  0  0  0  0  0  0  0  0  0  0
   26.0010  -21.4747  -11.5866 C   0  0  2  0  0  0  0  0  0  0  0  0
   27.4163  -21.1904  -11.3434 N   0  0  0  0  0  0  0  0  0  0  0  0
   25.6850  -21.2697  -13.0056 C   0  0  0  0  0  0  0  0  0  0  0  0
   25.9356  -20.1948  -13.6269 O   0  0  0  0  0  0  0  0  0  0  0  0
   28.0719  -25.5596  -18.3071 N   0  0  0  0  0  0  0  0  0  0  0  0
   27.3108  -26.1236  -17.2223 C   0  0  0  0  0  0  0  0  0  0  0  0
   27.8252  -27.0357  -16.4773 N   0  0  0  0  0  0  0  0  0  0  0  0
   25.9874  -25.6911  -16.9483 N   0  0  0  0  0  0  0  0  0  0  0  0
   25.2042  -24.9172  -17.8936 C   0  0  0  0  0  0  0  0  0  0  0  0
   24.9390  -23.5307  -17.3176 C   0  0  0  0  0  0  0  0  0  0  0  0
   25.1588  -23.5178  -15.8389 C   0  0  0  0  0  0  0  0  0  0  0  0
   24.8305  -22.1747  -15.1796 C   0  0  2  0  0  0  0  0  0  0  0  0
   25.0692  -22.3198  -13.7370 N   0  0  0  0  0  0  0  0  0  0  0  0
   23.4949  -21.6758  -15.4674 C   0  0  0  0  0  0  0  0  0  0  0  0
   23.0892  -21.4372  -16.6623 O   0  0  0  0  0  0  0  0  0  0  0  0
   27.3288  -27.5528  -15.7476 N   0  0  0  0  0  0  0  0  0  0  0  0
   22.5383  -21.4205  -14.4494 C   0  0  1  0  0  0  0  0  0  0  0  0
   21.1909  -20.9898  -14.7925 C   0  0  0  0  0  0  0  0  0  0  0  0
   20.4200  -21.0495  -13.4593 C   0  0  0  0  0  0  0  0  0  0  0  0
   19.9406  -22.4108  -13.2112 C   0  0  0  0  0  0  0  0  0  0  0  0
   20.1977  -23.4648  -14.0872 N   0  0  0  0  0  0  0  0  0  0  0  0
   19.5969  -24.5372  -13.5271 C   0  0  0  0  0  0  0  0  0  0  0  0
   19.0035  -24.1645  -12.3710 N   0  0  0  0  0  0  0  0  0  0  0  0
   19.2160  -22.8437  -12.1739 C   0  0  0  0  0  0  0  0  0  0  0  0
   21.1786  -19.6444  -15.3822 O   0  0  0  0  0  0  0  0  0  0  0  0
   22.0064  -18.7338  -15.0420 O   0  0  0  0  0  0  0  0  0  0  0  0
  2  3  1  0
  2  1  1  0
  3  4  1  1
  5  7  1  0
  5  3  1  0
  5  6  1  6
  7  8  2  0
 10 12  1  0
 10  9  1  0
 11 10  2  0
 13 14  1  0
 13 12  1  0
 14 15  1  0
 16 15  1  6
 17 16  1  0
 17  7  1  0
 18 16  1  0
 19 18  2  0
 20 18  1  0
 21 20  1  0
 21 22  1  6
 22 23  1  0
 23 27  1  0
 23 24  2  0
 24 25  1  0
 26 25  1  0
 27 26  2  0
 28 21  1  0
 29 28  2  0
 30 28  1  0
M  END
$$$$
