IRH.pdb
     RDKit          3D

 30 30  0  0  1  0  0  0  0  0999 V2000
   22.8446  -18.2925  -21.6324 C   0  0  0  0  0  0  0  0  0  0  0  0
   22.8980  -17.8378  -20.1810 C   0  0  0  0  0  0  0  0  0  0  0  0
   22.3693  -18.8926  -19.2485 C   0  0  2  0  0  0  0  0  0  0  0  0
   21.0869  -19.4682  -19.7273 C   0  0  0  0  0  0  0  0  0  0  0  0
   22.3311  -18.3150  -17.8499 C   0  0  2  0  0  0  0  0  0  0  0  0
   23.6972  -17.8896  -17.5399 N   0  0  0  0  0  0  0  0  0  0  0  0
   21.8714  -19.2904  -16.8537 C   0  0  0  0  0  0  0  0  0  0  0  0
   20.7471  -19.8705  -16.9139 O   0  0  0  0  0  0  0  0  0  0  0  0
   24.9060  -24.9996  -15.1372 N   0  0  0  0  0  0  0  0  0  0  0  0
   26.1083  -24.3292  -15.5602 C   0  0  0  0  0  0  0  0  0  0  0  0
   26.8516  -24.8480  -16.4713 N   0  0  0  0  0  0  0  0  0  0  0  0
   26.5000  -23.0902  -14.9903 N   0  0  0  0  0  0  0  0  0  0  0  0
   25.6403  -22.3290  -14.1028 C   0  0  0  0  0  0  0  0  0  0  0  0
   24.3497  -21.9705  -14.8310 C   0  0  0  0  0  0  0  0  0  0  0  0
   23.4968  -21.0739  -13.9920 C   0  0  0  0  0  0  0  0  0  0  0  0
   22.2571  -20.5455  -14.7202 C   0  0  2  0  0  0  0  0  0  0  0  0
   22.7177  -19.6157  -15.7606 N   0  0  0  0  0  0  0  0  0  0  0  0
   21.2604  -19.9437  -13.8485 C   0  0  0  0  0  0  0  0  0  0  0  0
   21.4812  -18.8644  -13.1885 O   0  0  0  0  0  0  0  0  0  0  0  0
   27.7357  -24.4578  -16.8065 N   0  0  0  0  0  0  0  0  0  0  0  0
   19.9671  -20.5014  -13.6667 C   0  0  1  0  0  0  0  0  0  0  0  0
   18.8093  -19.6386  -13.4826 C   0  0  0  0  0  0  0  0  0  0  0  0
   18.8511  -18.6811  -14.6895 C   0  0  0  0  0  0  0  0  0  0  0  0
   17.7443  -17.7249  -14.6169 C   0  0  0  0  0  0  0  0  0  0  0  0
   17.1371  -17.3750  -13.4113 N   0  0  0  0  0  0  0  0  0  0  0  0
   16.1732  -16.4916  -13.7507 C   0  0  0  0  0  0  0  0  0  0  0  0
   16.1863  -16.3077  -15.0899 N   0  0  0  0  0  0  0  0  0  0  0  0
   17.1616  -17.0737  -15.6292 C   0  0  0  0  0  0  0  0  0  0  0  0
   17.5577  -20.4054  -13.4242 O   0  0  0  0  0  0  0  0  0  0  0  0
   17.3565  -21.4534  -14.1253 O   0  0  0  0  0  0  0  0  0  0  0  0
  2  3  1  0
  2  1  1  0
  3  4  1  6
  5  7  1  0
  5  3  1  0
  5  6  1  1
  7  8  2  0
 10 12  1  0
 10  9  1  0
 11 10  2  0
 13 14  1  0
 13 12  1  0
 14 15  1  0
 16 15  1  1
 17 16  1  0
 17  7  1  0
 18 16  1  0
 19 18  2  0
 20 18  1  0
 21 20  1  0
 21 22  1  1
 22 23  1  0
 23 27  1  0
 23 24  2  0
 24 25  1  0
 26 25  1  0
 27 26  2  0
 28 21  1  0
 29 28  2  0
 30 28  1  0
M  END
$$$$
