IRH.pdb
     RDKit          3D

 30 30  0  0  1  0  0  0  0  0999 V2000
   27.9870  -18.5107  -20.1054 C   0  0  0  0  0  0  0  0  0  0  0  0
   26.6087  -18.0180  -19.6882 C   0  0  0  0  0  0  0  0  0  0  0  0
   25.8855  -19.0354  -18.8493 C   0  0  2  0  0  0  0  0  0  0  0  0
   25.1850  -20.0471  -19.6804 C   0  0  0  0  0  0  0  0  0  0  0  0
   25.0084  -18.2987  -17.8598 C   0  0  2  0  0  0  0  0  0  0  0  0
   25.9015  -17.4605  -17.0582 N   0  0  0  0  0  0  0  0  0  0  0  0
   24.2601  -19.2117  -16.9870 C   0  0  0  0  0  0  0  0  0  0  0  0
   23.4052  -20.0418  -17.4165 O   0  0  0  0  0  0  0  0  0  0  0  0
   26.6407  -19.8464   -9.7166 N   0  0  0  0  0  0  0  0  0  0  0  0
   25.5148  -20.7241   -9.9060 C   0  0  0  0  0  0  0  0  0  0  0  0
   24.6577  -20.8891   -8.9628 N   0  0  0  0  0  0  0  0  0  0  0  0
   25.3220  -21.4216  -11.1266 N   0  0  0  0  0  0  0  0  0  0  0  0
   26.2712  -21.3606  -12.2226 C   0  0  0  0  0  0  0  0  0  0  0  0
   25.5185  -21.1798  -13.5361 C   0  0  0  0  0  0  0  0  0  0  0  0
   24.4155  -20.1821  -13.3845 C   0  0  0  0  0  0  0  0  0  0  0  0
   23.6265  -19.9361  -14.6742 C   0  0  2  0  0  0  0  0  0  0  0  0
   24.4948  -19.1796  -15.5868 N   0  0  0  0  0  0  0  0  0  0  0  0
   22.3403  -19.2865  -14.4759 C   0  0  0  0  0  0  0  0  0  0  0  0
   22.1804  -18.0183  -14.5999 O   0  0  0  0  0  0  0  0  0  0  0  0
   23.8524  -21.5189   -8.9988 N   0  0  0  0  0  0  0  0  0  0  0  0
   21.1645  -20.0067  -14.1359 C   0  0  2  0  0  0  0  0  0  0  0  0
   19.8739  -19.6158  -14.6839 C   0  0  0  0  0  0  0  0  0  0  0  0
   20.0785  -19.6597  -16.2108 C   0  0  0  0  0  0  0  0  0  0  0  0
   18.8618  -19.2219  -16.8982 C   0  0  0  0  0  0  0  0  0  0  0  0
   18.1779  -18.0607  -16.5400 N   0  0  0  0  0  0  0  0  0  0  0  0
   17.1251  -18.0023  -17.3844 C   0  0  0  0  0  0  0  0  0  0  0  0
   17.1591  -19.0676  -18.2160 N   0  0  0  0  0  0  0  0  0  0  0  0
   18.2372  -19.8262  -17.9147 C   0  0  0  0  0  0  0  0  0  0  0  0
   18.7964  -20.5106  -14.2412 O   0  0  0  0  0  0  0  0  0  0  0  0
   18.8373  -21.7758  -14.4076 O   0  0  0  0  0  0  0  0  0  0  0  0
  2  3  1  0
  2  1  1  0
  3  4  1  6
  5  7  1  0
  5  3  1  0
  5  6  1  1
  7  8  2  0
 10 12  1  0
 10  9  1  0
 11 10  2  0
 13 14  1  0
 13 12  1  0
 14 15  1  0
 16 15  1  1
 17 16  1  0
 17  7  1  0
 18 16  1  0
 19 18  2  0
 20 18  1  0
 21 20  1  0
 21 22  1  6
 22 23  1  0
 23 27  1  0
 23 24  2  0
 24 25  1  0
 26 25  1  0
 27 26  2  0
 28 21  1  0
 29 28  2  0
 30 28  1  0
M  END
$$$$
