IRH.pdb
     RDKit          3D

 30 30  0  0  1  0  0  0  0  0999 V2000
   14.7447  -24.3728    2.6043 C   0  0  0  0  0  0  0  0  0  0  0  0
   14.6274  -22.8909    2.2781 C   0  0  0  0  0  0  0  0  0  0  0  0
   15.8722  -22.1379    2.6593 C   0  0  2  0  0  0  0  0  0  0  0  0
   16.2029  -22.2991    4.0980 C   0  0  0  0  0  0  0  0  0  0  0  0
   15.7239  -20.7061    2.1912 C   0  0  2  0  0  0  0  0  0  0  0  0
   15.5237  -20.7625    0.7421 N   0  0  0  0  0  0  0  0  0  0  0  0
   16.9039  -19.8901    2.5030 C   0  0  0  0  0  0  0  0  0  0  0  0
   17.9554  -19.8875    1.7968 O   0  0  0  0  0  0  0  0  0  0  0  0
   17.0101  -11.7764    3.7385 N   0  0  0  0  0  0  0  0  0  0  0  0
   16.4342  -13.0304    3.3263 C   0  0  0  0  0  0  0  0  0  0  0  0
   15.2969  -13.0541    2.7282 N   0  0  0  0  0  0  0  0  0  0  0  0
   17.1003  -14.2604    3.5649 N   0  0  0  0  0  0  0  0  0  0  0  0
   18.1544  -14.4023    4.5521 C   0  0  0  0  0  0  0  0  0  0  0  0
   18.6610  -15.8402    4.5503 C   0  0  0  0  0  0  0  0  0  0  0  0
   17.5959  -16.7792    4.0821 C   0  0  0  0  0  0  0  0  0  0  0  0
   18.0575  -18.2368    3.9899 C   0  0  2  0  0  0  0  0  0  0  0  0
   16.8835  -19.0522    3.6494 N   0  0  0  0  0  0  0  0  0  0  0  0
   18.7398  -18.7262    5.1776 C   0  0  0  0  0  0  0  0  0  0  0  0
   18.1773  -18.7633    6.3315 O   0  0  0  0  0  0  0  0  0  0  0  0
   14.8154  -13.8973    2.4064 N   0  0  0  0  0  0  0  0  0  0  0  0
   20.0766  -19.2046    5.1488 C   0  0  2  0  0  0  0  0  0  0  0  0
   20.7580  -19.5688    6.3825 C   0  0  0  0  0  0  0  0  0  0  0  0
   20.8481  -18.2487    7.1727 C   0  0  0  0  0  0  0  0  0  0  0  0
   21.4923  -18.4761    8.4680 C   0  0  0  0  0  0  0  0  0  0  0  0
   22.6176  -19.2871    8.6108 N   0  0  0  0  0  0  0  0  0  0  0  0
   22.9057  -19.2535    9.9301 C   0  0  0  0  0  0  0  0  0  0  0  0
   22.0084  -18.4657   10.5640 N   0  0  0  0  0  0  0  0  0  0  0  0
   21.1296  -17.9826    9.6569 C   0  0  0  0  0  0  0  0  0  0  0  0
   20.0339  -20.6112    7.1218 O   0  0  0  0  0  0  0  0  0  0  0  0
   18.8443  -20.4496    7.5567 O   0  0  0  0  0  0  0  0  0  0  0  0
  2  3  1  0
  2  1  1  0
  3  4  1  1
  5  7  1  0
  5  3  1  0
  5  6  1  6
  7  8  2  0
 10 12  1  0
 10  9  1  0
 11 10  2  0
 13 14  1  0
 13 12  1  0
 14 15  1  0
 16 15  1  1
 17 16  1  0
 17  7  1  0
 18 16  1  0
 19 18  2  0
 20 18  1  0
 21 20  1  0
 21 22  1  6
 22 23  1  0
 23 27  1  0
 23 24  2  0
 24 25  1  0
 26 25  1  0
 27 26  2  0
 28 21  1  0
 29 28  2  0
 30 28  1  0
M  END
$$$$
