IRH.pdb
     RDKit          3D

 30 30  0  0  1  0  0  0  0  0999 V2000
   25.3977  -13.6247  -22.3269 C   0  0  0  0  0  0  0  0  0  0  0  0
   25.2507  -13.0395  -20.9297 C   0  0  0  0  0  0  0  0  0  0  0  0
   24.4121  -11.7911  -20.9356 C   0  0  2  0  0  0  0  0  0  0  0  0
   24.9123  -10.7880  -21.9094 C   0  0  0  0  0  0  0  0  0  0  0  0
   24.2867  -11.2958  -19.5108 C   0  0  2  0  0  0  0  0  0  0  0  0
   24.0855  -12.4815  -18.6761 N   0  0  0  0  0  0  0  0  0  0  0  0
   23.1647  -10.3650  -19.3384 C   0  0  0  0  0  0  0  0  0  0  0  0
   23.0866   -9.2500  -19.9343 O   0  0  0  0  0  0  0  0  0  0  0  0
   15.3709  -11.2703  -14.6781 N   0  0  0  0  0  0  0  0  0  0  0  0
   15.3106  -10.1376  -15.5655 C   0  0  0  0  0  0  0  0  0  0  0  0
   14.1925   -9.5401  -15.7761 N   0  0  0  0  0  0  0  0  0  0  0  0
   16.4716   -9.6545  -16.2229 N   0  0  0  0  0  0  0  0  0  0  0  0
   17.5610  -10.5230  -16.6289 C   0  0  0  0  0  0  0  0  0  0  0  0
   18.6634   -9.6879  -17.2705 C   0  0  0  0  0  0  0  0  0  0  0  0
   19.8275  -10.5454  -17.6511 C   0  0  0  0  0  0  0  0  0  0  0  0
   21.0248   -9.7549  -18.1875 C   0  0  2  0  0  0  0  0  0  0  0  0
   22.1011  -10.7160  -18.4652 N   0  0  0  0  0  0  0  0  0  0  0  0
   21.4655   -8.6725  -17.3217 C   0  0  0  0  0  0  0  0  0  0  0  0
   22.0355   -8.8815  -16.1900 O   0  0  0  0  0  0  0  0  0  0  0  0
   14.0654   -8.7135  -16.3651 N   0  0  0  0  0  0  0  0  0  0  0  0
   21.3034   -7.3042  -17.6655 C   0  0  2  0  0  0  0  0  0  0  0  0
   21.6967   -6.2566  -16.7346 C   0  0  0  0  0  0  0  0  0  0  0  0
   22.0983   -5.0743  -17.6380 C   0  0  0  0  0  0  0  0  0  0  0  0
   22.5657   -3.9501  -16.8242 C   0  0  0  0  0  0  0  0  0  0  0  0
   23.0202   -4.1128  -15.5160 N   0  0  0  0  0  0  0  0  0  0  0  0
   23.3502   -2.8690  -15.1051 C   0  0  0  0  0  0  0  0  0  0  0  0
   23.1126   -1.9900  -16.1043 N   0  0  0  0  0  0  0  0  0  0  0  0
   22.6248   -2.6603  -17.1726 C   0  0  0  0  0  0  0  0  0  0  0  0
   20.6090   -5.9065  -15.8114 O   0  0  0  0  0  0  0  0  0  0  0  0
   19.3821   -5.8900  -16.1644 O   0  0  0  0  0  0  0  0  0  0  0  0
  2  3  1  0
  2  1  1  0
  3  4  1  6
  5  7  1  0
  5  3  1  0
  5  6  1  1
  7  8  2  0
 10 12  1  0
 10  9  1  0
 11 10  2  0
 13 14  1  0
 13 12  1  0
 14 15  1  0
 16 15  1  1
 17 16  1  0
 17  7  1  0
 18 16  1  0
 19 18  2  0
 20 18  1  0
 21 20  1  0
 21 22  1  6
 22 23  1  0
 23 27  1  0
 23 24  2  0
 24 25  1  0
 26 25  1  0
 27 26  2  0
 28 21  1  0
 29 28  2  0
 30 28  1  0
M  END
$$$$
