CEK.pdb
     RDKit          3D

 25 24  0  0  1  0  0  0  0  0999 V2000
    6.4531  -19.9834   24.0198 N   0  0  0  0  0  0  0  0  0  0  0  0
    6.7802  -18.6276   23.6653 C   0  0  1  0  0  0  0  0  0  0  0  0
    6.5853  -17.7842   24.9307 C   0  0  0  0  0  0  0  0  0  0  0  0
    6.7482  -16.0413   24.4941 S   0  0  0  0  0  0  0  0  0  0  0  0
    8.2077  -18.5983   23.2407 C   0  0  0  0  0  0  0  0  0  0  0  0
    9.0851  -19.3416   23.7980 O   0  0  0  0  0  0  0  0  0  0  0  0
    8.6764  -17.7577   22.2077 N   0  0  0  0  0  0  0  0  0  0  0  0
   10.0784  -17.7762   21.7592 C   0  0  1  0  0  0  0  0  0  0  0  0
   10.1126  -17.6499   20.2650 C   0  0  0  0  0  0  0  0  0  0  0  0
   11.5098  -17.7004   19.7386 C   0  0  0  0  0  0  0  0  0  0  0  0
   11.4903  -17.6094   18.2178 C   0  0  0  0  0  0  0  0  0  0  0  0
   10.6634  -18.3154   17.5833 O   0  0  0  0  0  0  0  0  0  0  0  0
   10.7633  -16.7055   22.5068 C   0  0  0  0  0  0  0  0  0  0  0  0
   10.0915  -15.6943   22.8938 O   0  0  0  0  0  0  0  0  0  0  0  0
   12.3658  -16.7687   17.5844 O   0  0  0  0  0  0  0  0  0  0  0  0
   12.1400  -16.6863   22.8566 N   0  0  0  0  0  0  0  0  0  0  0  0
   12.6175  -16.0482   24.0974 C   0  0  1  0  0  0  0  0  0  0  0  0
   11.9281  -16.6102   25.2787 C   0  0  0  0  0  0  0  0  0  0  0  0
   12.4696  -16.0529   26.5610 C   0  0  0  0  0  0  0  0  0  0  0  0
   11.6880  -16.6774   27.7242 C   0  0  0  0  0  0  0  0  0  0  0  0
   12.2311  -16.1738   29.0449 C   0  0  0  0  0  0  0  0  0  0  0  0
   11.6227  -16.8283   30.1718 N   0  0  0  0  0  0  0  0  0  0  0  0
   14.0705  -16.1267   24.1976 C   0  0  0  0  0  0  0  0  0  0  0  0
   14.7314  -15.5064   25.0994 O   0  0  0  0  0  0  0  0  0  0  0  0
   14.8497  -16.8746   23.3377 O   0  0  0  0  0  0  0  0  0  0  0  0
  2  1  1  1
  3  2  1  0
  4  3  1  0
  5  2  1  0
  5  6  2  0
  7  5  1  0
  8  7  1  0
  9 10  1  0
  8  9  1  6
 10 11  1  0
 11 12  2  0
 11 15  1  0
 13  8  1  0
 14 13  2  0
 16 13  1  0
 17 16  1  0
 17 23  1  0
 17 18  1  1
 19 18  1  0
 20 19  1  0
 20 21  1  0
 22 21  1  0
 23 25  1  0
 24 23  2  0
M  END
$$$$
