CEK.pdb
     RDKit          3D

 25 24  0  0  1  0  0  0  0  0999 V2000
    7.7159  -15.7644   16.8681 N   0  0  0  0  0  0  0  0  0  0  0  0
    8.5307  -15.0563   17.8198 C   0  0  1  0  0  0  0  0  0  0  0  0
    7.8255  -13.7230   18.0948 C   0  0  0  0  0  0  0  0  0  0  0  0
    8.7565  -12.8260   19.3532 S   0  0  0  0  0  0  0  0  0  0  0  0
    8.5937  -15.8730   19.0639 C   0  0  0  0  0  0  0  0  0  0  0  0
    7.5455  -16.4007   19.5696 O   0  0  0  0  0  0  0  0  0  0  0  0
    9.8011  -16.1130   19.7553 N   0  0  0  0  0  0  0  0  0  0  0  0
    9.8547  -16.9382   20.9732 C   0  0  1  0  0  0  0  0  0  0  0  0
   11.0469  -17.8450   20.8940 C   0  0  0  0  0  0  0  0  0  0  0  0
   11.2219  -18.4082   19.5215 C   0  0  0  0  0  0  0  0  0  0  0  0
   12.4396  -19.3238   19.4924 C   0  0  0  0  0  0  0  0  0  0  0  0
   12.3041  -20.4910   19.0410 O   0  0  0  0  0  0  0  0  0  0  0  0
    9.8420  -15.9971   22.1082 C   0  0  0  0  0  0  0  0  0  0  0  0
   10.7624  -15.1201   22.1948 O   0  0  0  0  0  0  0  0  0  0  0  0
   13.6411  -18.8576   19.9544 O   0  0  0  0  0  0  0  0  0  0  0  0
    8.8743  -15.9621   23.1476 N   0  0  0  0  0  0  0  0  0  0  0  0
    8.9544  -14.9872   24.2513 C   0  0  1  0  0  0  0  0  0  0  0  0
    7.6125  -14.4720   24.5984 C   0  0  0  0  0  0  0  0  0  0  0  0
    7.6757  -13.4149   25.6598 C   0  0  0  0  0  0  0  0  0  0  0  0
    6.2760  -12.8064   25.8158 C   0  0  0  0  0  0  0  0  0  0  0  0
    6.3308  -11.6062   26.7374 C   0  0  0  0  0  0  0  0  0  0  0  0
    5.0248  -11.0764   27.0239 N   0  0  0  0  0  0  0  0  0  0  0  0
    9.6586  -15.5534   25.3962 C   0  0  0  0  0  0  0  0  0  0  0  0
   10.0040  -14.8502   26.4066 O   0  0  0  0  0  0  0  0  0  0  0  0
   10.0054  -16.8866   25.4885 O   0  0  0  0  0  0  0  0  0  0  0  0
  2  1  1  6
  3  2  1  0
  4  3  1  0
  5  2  1  0
  5  6  2  0
  7  5  1  0
  8  7  1  0
  9 10  1  0
  8  9  1  6
 10 11  1  0
 11 12  2  0
 11 15  1  0
 13  8  1  0
 14 13  2  0
 16 13  1  0
 17 16  1  0
 17 23  1  0
 17 18  1  1
 19 18  1  0
 20 19  1  0
 20 21  1  0
 22 21  1  0
 23 25  1  0
 24 23  2  0
M  END
$$$$
