CEK.pdb
     RDKit          3D

 25 24  0  0  1  0  0  0  0  0999 V2000
   12.5274  -18.2622   16.1308 N   0  0  0  0  0  0  0  0  0  0  0  0
   12.0436  -17.1798   16.9465 C   0  0  1  0  0  0  0  0  0  0  0  0
   10.8479  -17.7258   17.7355 C   0  0  0  0  0  0  0  0  0  0  0  0
    9.3643  -17.5638   16.7218 S   0  0  0  0  0  0  0  0  0  0  0  0
   13.1381  -16.7843   17.8763 C   0  0  0  0  0  0  0  0  0  0  0  0
   13.9245  -17.6514   18.3887 O   0  0  0  0  0  0  0  0  0  0  0  0
   13.3733  -15.4422   18.2462 N   0  0  0  0  0  0  0  0  0  0  0  0
   14.4656  -15.0614   19.1566 C   0  0  1  0  0  0  0  0  0  0  0  0
   15.0817  -13.7836   18.6692 C   0  0  0  0  0  0  0  0  0  0  0  0
   15.9126  -14.0024   17.4471 C   0  0  0  0  0  0  0  0  0  0  0  0
   16.9217  -12.8701   17.3014 C   0  0  0  0  0  0  0  0  0  0  0  0
   16.7570  -11.8257   17.9846 O   0  0  0  0  0  0  0  0  0  0  0  0
   13.8765  -15.0120   20.5075 C   0  0  0  0  0  0  0  0  0  0  0  0
   12.6452  -14.7096   20.6345 O   0  0  0  0  0  0  0  0  0  0  0  0
   17.9740  -13.0158   16.4378 O   0  0  0  0  0  0  0  0  0  0  0  0
   14.5613  -15.2808   21.7227 N   0  0  0  0  0  0  0  0  0  0  0  0
   13.8495  -15.7369   22.9311 C   0  0  1  0  0  0  0  0  0  0  0  0
   13.0700  -16.9624   22.6532 C   0  0  0  0  0  0  0  0  0  0  0  0
   12.4002  -17.4917   23.8857 C   0  0  0  0  0  0  0  0  0  0  0  0
   11.3701  -18.5452   23.4579 C   0  0  0  0  0  0  0  0  0  0  0  0
   10.6370  -19.0779   24.6710 C   0  0  0  0  0  0  0  0  0  0  0  0
    9.7284  -20.1416   24.3377 N   0  0  0  0  0  0  0  0  0  0  0  0
   14.7711  -15.8923   24.0509 C   0  0  0  0  0  0  0  0  0  0  0  0
   16.0393  -15.9395   23.8953 O   0  0  0  0  0  0  0  0  0  0  0  0
   14.3570  -15.9960   25.3638 O   0  0  0  0  0  0  0  0  0  0  0  0
  2  1  1  6
  3  2  1  0
  4  3  1  0
  5  2  1  0
  5  6  2  0
  7  5  1  0
  8  7  1  0
  9 10  1  0
  8  9  1  6
 10 11  1  0
 11 12  2  0
 11 15  1  0
 13  8  1  0
 14 13  2  0
 16 13  1  0
 17 16  1  0
 17 23  1  0
 17 18  1  6
 19 18  1  0
 20 19  1  0
 20 21  1  0
 22 21  1  0
 23 25  1  0
 24 23  2  0
M  END
$$$$
