CEK.pdb
     RDKit          3D

 25 24  0  0  1  0  0  0  0  0999 V2000
    7.0153  -13.6349   19.0619 N   0  0  0  0  0  0  0  0  0  0  0  0
    8.3979  -13.5848   19.4579 C   0  0  1  0  0  0  0  0  0  0  0  0
    8.5040  -12.5092   20.5452 C   0  0  0  0  0  0  0  0  0  0  0  0
    7.4935  -13.0097   21.9535 S   0  0  0  0  0  0  0  0  0  0  0  0
    8.7622  -14.9180   20.0136 C   0  0  0  0  0  0  0  0  0  0  0  0
    7.8725  -15.7950   20.2819 O   0  0  0  0  0  0  0  0  0  0  0  0
   10.0979  -15.2928   20.2761 N   0  0  0  0  0  0  0  0  0  0  0  0
   10.4662  -16.6694   20.6453 C   0  0  1  0  0  0  0  0  0  0  0  0
   11.3237  -17.2509   19.5606 C   0  0  0  0  0  0  0  0  0  0  0  0
   11.6856  -18.6721   19.8452 C   0  0  0  0  0  0  0  0  0  0  0  0
   12.6353  -19.1864   18.7704 C   0  0  0  0  0  0  0  0  0  0  0  0
   13.8391  -19.3887   19.0779 O   0  0  0  0  0  0  0  0  0  0  0  0
   11.0918  -16.5843   21.9778 C   0  0  0  0  0  0  0  0  0  0  0  0
   11.9856  -15.7004   22.1860 O   0  0  0  0  0  0  0  0  0  0  0  0
   12.1593  -19.4138   17.5070 O   0  0  0  0  0  0  0  0  0  0  0  0
   10.7872  -17.4102   23.0928 N   0  0  0  0  0  0  0  0  0  0  0  0
   11.5464  -17.3236   24.3542 C   0  0  1  0  0  0  0  0  0  0  0  0
   10.9920  -18.2465   25.3679 C   0  0  0  0  0  0  0  0  0  0  0  0
   11.7770  -18.2127   26.6449 C   0  0  0  0  0  0  0  0  0  0  0  0
   11.2328  -19.3071   27.5723 C   0  0  0  0  0  0  0  0  0  0  0  0
   12.0520  -19.3649   28.8445 C   0  0  0  0  0  0  0  0  0  0  0  0
   11.5650  -20.3576   29.7641 N   0  0  0  0  0  0  0  0  0  0  0  0
   12.9713  -17.5280   24.1195 C   0  0  0  0  0  0  0  0  0  0  0  0
   13.4196  -18.4972   23.4161 O   0  0  0  0  0  0  0  0  0  0  0  0
   13.9496  -16.6972   24.6282 O   0  0  0  0  0  0  0  0  0  0  0  0
  2  1  1  1
  3  2  1  0
  4  3  1  0
  5  2  1  0
  5  6  2  0
  7  5  1  0
  8  7  1  0
  9 10  1  0
  8  9  1  6
 10 11  1  0
 11 12  2  0
 11 15  1  0
 13  8  1  0
 14 13  2  0
 16 13  1  0
 17 16  1  0
 17 23  1  0
 17 18  1  1
 19 18  1  0
 20 19  1  0
 20 21  1  0
 22 21  1  0
 23 25  1  0
 24 23  2  0
M  END
$$$$
