CEK.pdb
     RDKit          3D

 25 24  0  0  1  0  0  0  0  0999 V2000
    6.4764  -15.2106   19.9581 N   0  0  0  0  0  0  0  0  0  0  0  0
    7.9064  -15.0585   19.9034 C   0  0  1  0  0  0  0  0  0  0  0  0
    8.1882  -13.5516   19.9226 C   0  0  0  0  0  0  0  0  0  0  0  0
    7.6604  -12.8854   21.5140 S   0  0  0  0  0  0  0  0  0  0  0  0
    8.4812  -15.7064   21.1153 C   0  0  0  0  0  0  0  0  0  0  0  0
    7.7552  -15.9913   22.1276 O   0  0  0  0  0  0  0  0  0  0  0  0
    9.8483  -16.0428   21.2213 N   0  0  0  0  0  0  0  0  0  0  0  0
   10.3750  -16.8319   22.3470 C   0  0  1  0  0  0  0  0  0  0  0  0
   11.6854  -17.4400   21.9435 C   0  0  0  0  0  0  0  0  0  0  0  0
   12.2755  -18.2601   23.0439 C   0  0  0  0  0  0  0  0  0  0  0  0
   13.6303  -18.8055   22.6095 C   0  0  0  0  0  0  0  0  0  0  0  0
   14.6325  -18.0463   22.6710 O   0  0  0  0  0  0  0  0  0  0  0  0
   10.4239  -15.9174   23.5027 C   0  0  0  0  0  0  0  0  0  0  0  0
   10.6333  -14.6768   23.3012 O   0  0  0  0  0  0  0  0  0  0  0  0
   13.7229  -20.0977   22.1666 O   0  0  0  0  0  0  0  0  0  0  0  0
   10.2508  -16.2879   24.8631 N   0  0  0  0  0  0  0  0  0  0  0  0
    9.8305  -15.3128   25.8865 C   0  0  1  0  0  0  0  0  0  0  0  0
    8.5061  -14.7422   25.5591 C   0  0  0  0  0  0  0  0  0  0  0  0
    8.0067  -13.8301   26.6392 C   0  0  0  0  0  0  0  0  0  0  0  0
    6.6231  -13.3105   26.2276 C   0  0  0  0  0  0  0  0  0  0  0  0
    6.0799  -12.3796   27.2912 C   0  0  0  0  0  0  0  0  0  0  0  0
    4.7311  -11.9630   27.0165 N   0  0  0  0  0  0  0  0  0  0  0  0
    9.8806  -15.9025   27.2195 C   0  0  0  0  0  0  0  0  0  0  0  0
    9.6942  -15.2159   28.2819 O   0  0  0  0  0  0  0  0  0  0  0  0
   10.1268  -17.2419   27.4464 O   0  0  0  0  0  0  0  0  0  0  0  0
  2  1  1  1
  3  2  1  0
  4  3  1  0
  5  2  1  0
  5  6  2  0
  7  5  1  0
  8  7  1  0
  9 10  1  0
  8  9  1  6
 10 11  1  0
 11 12  2  0
 11 15  1  0
 13  8  1  0
 14 13  2  0
 16 13  1  0
 17 16  1  0
 17 23  1  0
 17 18  1  6
 19 18  1  0
 20 19  1  0
 20 21  1  0
 22 21  1  0
 23 25  1  0
 24 23  2  0
M  END
$$$$
