CEK.pdb
     RDKit          3D

 25 24  0  0  1  0  0  0  0  0999 V2000
    4.9986  -12.6077   26.8359 N   0  0  0  0  0  0  0  0  0  0  0  0
    6.1984  -12.3428   26.0866 C   0  0  1  0  0  0  0  0  0  0  0  0
    7.2552  -11.8848   27.0985 C   0  0  0  0  0  0  0  0  0  0  0  0
    8.8523  -11.7936   26.2643 S   0  0  0  0  0  0  0  0  0  0  0  0
    6.6220  -13.6152   25.4382 C   0  0  0  0  0  0  0  0  0  0  0  0
    6.5489  -14.7336   26.0520 O   0  0  0  0  0  0  0  0  0  0  0  0
    7.1253  -13.6657   24.1201 N   0  0  0  0  0  0  0  0  0  0  0  0
    7.4553  -14.9378   23.4567 C   0  0  1  0  0  0  0  0  0  0  0  0
    7.4504  -14.7273   21.9716 C   0  0  0  0  0  0  0  0  0  0  0  0
    7.9485  -15.9318   21.2417 C   0  0  0  0  0  0  0  0  0  0  0  0
    8.0123  -15.6385   19.7479 C   0  0  0  0  0  0  0  0  0  0  0  0
    9.0274  -15.0490   19.2933 O   0  0  0  0  0  0  0  0  0  0  0  0
    8.7369  -15.3825   24.0348 C   0  0  0  0  0  0  0  0  0  0  0  0
    9.6512  -14.5209   24.2480 O   0  0  0  0  0  0  0  0  0  0  0  0
    6.9720  -16.0204   18.9439 O   0  0  0  0  0  0  0  0  0  0  0  0
    9.0671  -16.7161   24.3958 N   0  0  0  0  0  0  0  0  0  0  0  0
   10.3447  -17.0496   25.0526 C   0  0  1  0  0  0  0  0  0  0  0  0
   10.1664  -18.1482   26.0261 C   0  0  0  0  0  0  0  0  0  0  0  0
   11.4606  -18.5359   26.6764 C   0  0  0  0  0  0  0  0  0  0  0  0
   11.1930  -19.7257   27.6073 C   0  0  0  0  0  0  0  0  0  0  0  0
   12.4354  -20.0462   28.4114 C   0  0  0  0  0  0  0  0  0  0  0  0
   12.2102  -21.0919   29.3727 N   0  0  0  0  0  0  0  0  0  0  0  0
   11.3807  -17.3291   24.0648 C   0  0  0  0  0  0  0  0  0  0  0  0
   12.6143  -17.4501   24.3785 O   0  0  0  0  0  0  0  0  0  0  0  0
   11.1200  -17.4903   22.7186 O   0  0  0  0  0  0  0  0  0  0  0  0
  2  1  1  1
  3  2  1  0
  4  3  1  0
  5  2  1  0
  5  6  2  0
  7  5  1  0
  8  7  1  0
  9 10  1  0
  8  9  1  6
 10 11  1  0
 11 12  2  0
 11 15  1  0
 13  8  1  0
 14 13  2  0
 16 13  1  0
 17 16  1  0
 17 23  1  0
 17 18  1  1
 19 18  1  0
 20 19  1  0
 20 21  1  0
 22 21  1  0
 23 25  1  0
 24 23  2  0
M  END
$$$$
