CEK.pdb
     RDKit          3D

 25 24  0  0  1  0  0  0  0  0999 V2000
    7.4738  -14.3813   18.4906 N   0  0  0  0  0  0  0  0  0  0  0  0
    8.5904  -13.5021   18.7165 C   0  0  1  0  0  0  0  0  0  0  0  0
    8.2595  -12.6865   19.9718 C   0  0  0  0  0  0  0  0  0  0  0  0
    8.0220  -13.8227   21.3529 S   0  0  0  0  0  0  0  0  0  0  0  0
    9.7954  -14.3455   18.9519 C   0  0  0  0  0  0  0  0  0  0  0  0
    9.6947  -15.5708   19.3001 O   0  0  0  0  0  0  0  0  0  0  0  0
   11.1097  -13.8505   18.8069 N   0  0  0  0  0  0  0  0  0  0  0  0
   12.2936  -14.6909   19.0505 C   0  0  1  0  0  0  0  0  0  0  0  0
   13.4056  -14.2363   18.1525 C   0  0  0  0  0  0  0  0  0  0  0  0
   14.6256  -15.0836   18.3122 C   0  0  0  0  0  0  0  0  0  0  0  0
   15.6891  -14.6484   17.3116 C   0  0  0  0  0  0  0  0  0  0  0  0
   15.5248  -13.5650   16.6919 O   0  0  0  0  0  0  0  0  0  0  0  0
   12.5661  -14.6076   20.4973 C   0  0  0  0  0  0  0  0  0  0  0  0
   11.7841  -13.9243   21.2356 O   0  0  0  0  0  0  0  0  0  0  0  0
   16.7881  -15.4403   17.1130 O   0  0  0  0  0  0  0  0  0  0  0  0
   13.6436  -15.2360   21.1771 N   0  0  0  0  0  0  0  0  0  0  0  0
   13.5103  -15.7214   22.5633 C   0  0  1  0  0  0  0  0  0  0  0  0
   12.3110  -16.5738   22.7106 C   0  0  0  0  0  0  0  0  0  0  0  0
   12.1660  -17.1002   24.1070 C   0  0  0  0  0  0  0  0  0  0  0  0
   10.9556  -18.0423   24.1420 C   0  0  0  0  0  0  0  0  0  0  0  0
   10.7008  -18.5085   25.5600 C   0  0  0  0  0  0  0  0  0  0  0  0
    9.4757  -19.2522   25.6795 N   0  0  0  0  0  0  0  0  0  0  0  0
   14.7337  -16.3821   23.0037 C   0  0  0  0  0  0  0  0  0  0  0  0
   15.3995  -17.1696   22.2478 O   0  0  0  0  0  0  0  0  0  0  0  0
   15.2758  -16.2117   24.2619 O   0  0  0  0  0  0  0  0  0  0  0  0
  2  1  1  1
  3  2  1  0
  4  3  1  0
  5  2  1  0
  5  6  2  0
  7  5  1  0
  8  7  1  0
  9 10  1  0
  8  9  1  6
 10 11  1  0
 11 12  2  0
 11 15  1  0
 13  8  1  0
 14 13  2  0
 16 13  1  0
 17 16  1  0
 17 23  1  0
 17 18  1  6
 19 18  1  0
 20 19  1  0
 20 21  1  0
 22 21  1  0
 23 25  1  0
 24 23  2  0
M  END
$$$$
