CEK.pdb
     RDKit          3D

 25 24  0  0  1  0  0  0  0  0999 V2000
    7.7277  -13.5304   17.5362 N   0  0  0  0  0  0  0  0  0  0  0  0
    8.4391  -13.1793   18.7369 C   0  0  1  0  0  0  0  0  0  0  0  0
    7.4081  -13.1734   19.8716 C   0  0  0  0  0  0  0  0  0  0  0  0
    8.2774  -12.9835   21.4410 S   0  0  0  0  0  0  0  0  0  0  0  0
    9.4686  -14.2279   18.9808 C   0  0  0  0  0  0  0  0  0  0  0  0
    9.1985  -15.4704   18.8547 O   0  0  0  0  0  0  0  0  0  0  0  0
   10.7925  -13.9191   19.3620 N   0  0  0  0  0  0  0  0  0  0  0  0
   11.8235  -14.9578   19.5206 C   0  0  1  0  0  0  0  0  0  0  0  0
   13.0020  -14.6083   18.6610 C   0  0  0  0  0  0  0  0  0  0  0  0
   14.0957  -15.6182   18.7866 C   0  0  0  0  0  0  0  0  0  0  0  0
   15.3019  -15.1750   17.9678 C   0  0  0  0  0  0  0  0  0  0  0  0
   16.3717  -15.8305   18.0693 O   0  0  0  0  0  0  0  0  0  0  0  0
   12.0934  -15.0516   20.9673 C   0  0  0  0  0  0  0  0  0  0  0  0
   12.5613  -14.0349   21.5763 O   0  0  0  0  0  0  0  0  0  0  0  0
   15.1926  -14.0834   17.1486 O   0  0  0  0  0  0  0  0  0  0  0  0
   11.8733  -16.1951   21.7809 N   0  0  0  0  0  0  0  0  0  0  0  0
   12.3969  -16.2820   23.1569 C   0  0  1  0  0  0  0  0  0  0  0  0
   11.8305  -17.4507   23.8639 C   0  0  0  0  0  0  0  0  0  0  0  0
   12.4102  -17.6093   25.2375 C   0  0  0  0  0  0  0  0  0  0  0  0
   11.6993  -18.7814   25.9266 C   0  0  0  0  0  0  0  0  0  0  0  0
   12.3264  -19.0469   27.2790 C   0  0  0  0  0  0  0  0  0  0  0  0
   11.7625  -20.2006   27.9265 N   0  0  0  0  0  0  0  0  0  0  0  0
   13.8553  -16.2682   23.1610 C   0  0  0  0  0  0  0  0  0  0  0  0
   14.5328  -15.4925   23.9187 O   0  0  0  0  0  0  0  0  0  0  0  0
   14.6228  -17.0876   22.3576 O   0  0  0  0  0  0  0  0  0  0  0  0
  2  1  1  6
  3  2  1  0
  4  3  1  0
  5  2  1  0
  5  6  2  0
  7  5  1  0
  8  7  1  0
  9 10  1  0
  8  9  1  6
 10 11  1  0
 11 12  2  0
 11 15  1  0
 13  8  1  0
 14 13  2  0
 16 13  1  0
 17 16  1  0
 17 23  1  0
 17 18  1  6
 19 18  1  0
 20 19  1  0
 20 21  1  0
 22 21  1  0
 23 25  1  0
 24 23  2  0
M  END
$$$$
