CEK.pdb
     RDKit          3D

 25 24  0  0  1  0  0  0  0  0999 V2000
    8.2893  -14.2620   17.2212 N   0  0  0  0  0  0  0  0  0  0  0  0
    9.1935  -13.4942   18.0360 C   0  0  1  0  0  0  0  0  0  0  0  0
    8.4068  -13.0662   19.2803 C   0  0  0  0  0  0  0  0  0  0  0  0
    7.2443  -11.7689   18.8109 S   0  0  0  0  0  0  0  0  0  0  0  0
   10.3262  -14.3815   18.4215 C   0  0  0  0  0  0  0  0  0  0  0  0
   10.1598  -15.6353   18.6031 O   0  0  0  0  0  0  0  0  0  0  0  0
   11.6399  -13.8992   18.6086 N   0  0  0  0  0  0  0  0  0  0  0  0
   12.7708  -14.7984   18.8905 C   0  0  1  0  0  0  0  0  0  0  0  0
   13.9744  -14.3174   18.1357 C   0  0  0  0  0  0  0  0  0  0  0  0
   15.1903  -15.1202   18.4658 C   0  0  0  0  0  0  0  0  0  0  0  0
   16.3665  -14.6429   17.6230 C   0  0  0  0  0  0  0  0  0  0  0  0
   16.3550  -14.8774   16.3862 O   0  0  0  0  0  0  0  0  0  0  0  0
   12.9101  -14.8362   20.3580 C   0  0  0  0  0  0  0  0  0  0  0  0
   12.9228  -13.7394   21.0064 O   0  0  0  0  0  0  0  0  0  0  0  0
   17.3985  -13.9762   18.2272 O   0  0  0  0  0  0  0  0  0  0  0  0
   13.0302  -16.0086   21.1512 N   0  0  0  0  0  0  0  0  0  0  0  0
   13.1490  -15.9443   22.6197 C   0  0  1  0  0  0  0  0  0  0  0  0
   12.5385  -17.1340   23.2509 C   0  0  0  0  0  0  0  0  0  0  0  0
   12.7504  -17.1514   24.7351 C   0  0  0  0  0  0  0  0  0  0  0  0
   12.2627  -18.5025   25.2742 C   0  0  0  0  0  0  0  0  0  0  0  0
   12.5248  -18.5934   26.7628 C   0  0  0  0  0  0  0  0  0  0  0  0
   12.0402  -19.8231   27.3295 N   0  0  0  0  0  0  0  0  0  0  0  0
   14.5358  -15.7373   23.0214 C   0  0  0  0  0  0  0  0  0  0  0  0
   15.5227  -16.0689   22.2792 O   0  0  0  0  0  0  0  0  0  0  0  0
   14.8986  -15.1665   24.2250 O   0  0  0  0  0  0  0  0  0  0  0  0
  2  1  1  6
  3  2  1  0
  4  3  1  0
  5  2  1  0
  5  6  2  0
  7  5  1  0
  8  7  1  0
  9 10  1  0
  8  9  1  6
 10 11  1  0
 11 12  2  0
 11 15  1  0
 13  8  1  0
 14 13  2  0
 16 13  1  0
 17 16  1  0
 17 23  1  0
 17 18  1  1
 19 18  1  0
 20 19  1  0
 20 21  1  0
 22 21  1  0
 23 25  1  0
 24 23  2  0
M  END
$$$$
