CEK.pdb
     RDKit          3D

 25 24  0  0  1  0  0  0  0  0999 V2000
    5.3873  -13.4086   26.6960 N   0  0  0  0  0  0  0  0  0  0  0  0
    6.3988  -12.9947   25.7597 C   0  0  1  0  0  0  0  0  0  0  0  0
    7.4225  -12.1749   26.5539 C   0  0  0  0  0  0  0  0  0  0  0  0
    6.7234  -10.5458   26.8885 S   0  0  0  0  0  0  0  0  0  0  0  0
    7.0378  -14.2211   25.2060 C   0  0  0  0  0  0  0  0  0  0  0  0
    7.1450  -15.2889   25.8996 O   0  0  0  0  0  0  0  0  0  0  0  0
    7.5593  -14.2808   23.8953 N   0  0  0  0  0  0  0  0  0  0  0  0
    8.0854  -15.5289   23.3187 C   0  0  1  0  0  0  0  0  0  0  0  0
    8.2508  -15.3489   21.8388 C   0  0  0  0  0  0  0  0  0  0  0  0
    8.9086  -16.5330   21.2088 C   0  0  0  0  0  0  0  0  0  0  0  0
    9.1420  -16.2644   19.7272 C   0  0  0  0  0  0  0  0  0  0  0  0
   10.0765  -15.4886   19.3962 O   0  0  0  0  0  0  0  0  0  0  0  0
    9.3179  -15.8395   24.0662 C   0  0  0  0  0  0  0  0  0  0  0  0
   10.0071  -14.8820   24.5477 O   0  0  0  0  0  0  0  0  0  0  0  0
    8.3357  -16.8688   18.8003 O   0  0  0  0  0  0  0  0  0  0  0  0
    9.8311  -17.1399   24.3183 N   0  0  0  0  0  0  0  0  0  0  0  0
   10.9591  -17.3646   25.2414 C   0  0  1  0  0  0  0  0  0  0  0  0
   10.5318  -18.1593   26.4129 C   0  0  0  0  0  0  0  0  0  0  0  0
   11.6846  -18.5008   27.3086 C   0  0  0  0  0  0  0  0  0  0  0  0
   11.1463  -19.3060   28.4985 C   0  0  0  0  0  0  0  0  0  0  0  0
   12.2799  -19.6733   29.4329 C   0  0  0  0  0  0  0  0  0  0  0  0
   11.8103  -20.2664   30.6560 N   0  0  0  0  0  0  0  0  0  0  0  0
   12.0959  -17.9518   24.5413 C   0  0  0  0  0  0  0  0  0  0  0  0
   13.3021  -17.7907   24.9337 O   0  0  0  0  0  0  0  0  0  0  0  0
   11.9680  -18.7291   23.4075 O   0  0  0  0  0  0  0  0  0  0  0  0
  2  1  1  1
  3  2  1  0
  4  3  1  0
  5  2  1  0
  5  6  2  0
  7  5  1  0
  8  7  1  0
  9 10  1  0
  8  9  1  6
 10 11  1  0
 11 12  2  0
 11 15  1  0
 13  8  1  0
 14 13  2  0
 16 13  1  0
 17 16  1  0
 17 23  1  0
 17 18  1  1
 19 18  1  0
 20 19  1  0
 20 21  1  0
 22 21  1  0
 23 25  1  0
 24 23  2  0
M  END
$$$$
