CEK.pdb
     RDKit          3D

 25 24  0  0  1  0  0  0  0  0999 V2000
    7.4283  -13.6050   18.0876 N   0  0  0  0  0  0  0  0  0  0  0  0
    8.6319  -12.9657   18.5500 C   0  0  1  0  0  0  0  0  0  0  0  0
    8.2535  -12.1763   19.8086 C   0  0  0  0  0  0  0  0  0  0  0  0
    7.5810  -13.3225   21.0289 S   0  0  0  0  0  0  0  0  0  0  0  0
    9.6154  -14.0327   18.8863 C   0  0  0  0  0  0  0  0  0  0  0  0
    9.2639  -15.2573   18.9847 O   0  0  0  0  0  0  0  0  0  0  0  0
   10.9821  -13.7620   19.1151 N   0  0  0  0  0  0  0  0  0  0  0  0
   11.9801  -14.8354   19.2520 C   0  0  1  0  0  0  0  0  0  0  0  0
   13.1549  -14.5219   18.3737 C   0  0  0  0  0  0  0  0  0  0  0  0
   14.2319  -15.5488   18.5050 C   0  0  0  0  0  0  0  0  0  0  0  0
   15.4086  -15.1777   17.6109 C   0  0  0  0  0  0  0  0  0  0  0  0
   16.5137  -14.9100   18.1509 O   0  0  0  0  0  0  0  0  0  0  0  0
   12.2712  -14.9447   20.6934 C   0  0  0  0  0  0  0  0  0  0  0  0
   12.6224  -13.9009   21.3342 O   0  0  0  0  0  0  0  0  0  0  0  0
   15.2357  -15.1450   16.2531 O   0  0  0  0  0  0  0  0  0  0  0  0
   12.1927  -16.1322   21.4690 N   0  0  0  0  0  0  0  0  0  0  0  0
   12.5916  -16.1609   22.8885 C   0  0  1  0  0  0  0  0  0  0  0  0
   11.9859  -17.3172   23.5833 C   0  0  0  0  0  0  0  0  0  0  0  0
   12.4481  -17.4207   25.0059 C   0  0  0  0  0  0  0  0  0  0  0  0
   11.9063  -18.7305   25.5929 C   0  0  0  0  0  0  0  0  0  0  0  0
   12.4414  -18.9321   26.9951 C   0  0  0  0  0  0  0  0  0  0  0  0
   12.0203  -20.1829   27.5667 N   0  0  0  0  0  0  0  0  0  0  0  0
   14.0432  -16.1148   23.0226 C   0  0  0  0  0  0  0  0  0  0  0  0
   14.8286  -16.6801   22.1869 O   0  0  0  0  0  0  0  0  0  0  0  0
   14.6883  -15.4585   24.0518 O   0  0  0  0  0  0  0  0  0  0  0  0
  2  1  1  1
  3  2  1  0
  4  3  1  0
  5  2  1  0
  5  6  2  0
  7  5  1  0
  8  7  1  0
  9 10  1  0
  8  9  1  6
 10 11  1  0
 11 12  2  0
 11 15  1  0
 13  8  1  0
 14 13  2  0
 16 13  1  0
 17 16  1  0
 17 23  1  0
 17 18  1  6
 19 18  1  0
 20 19  1  0
 20 21  1  0
 22 21  1  0
 23 25  1  0
 24 23  2  0
M  END
$$$$
