CEK.pdb
     RDKit          3D

 25 24  0  0  1  0  0  0  0  0999 V2000
    7.2638  -18.6631   17.2055 N   0  0  0  0  0  0  0  0  0  0  0  0
    7.8389  -18.2559   18.4603 C   0  0  1  0  0  0  0  0  0  0  0  0
    6.7288  -18.3753   19.5109 C   0  0  0  0  0  0  0  0  0  0  0  0
    7.4320  -18.0303   21.1361 S   0  0  0  0  0  0  0  0  0  0  0  0
    8.9526  -19.1930   18.7775 C   0  0  0  0  0  0  0  0  0  0  0  0
    8.8298  -20.4545   18.6157 O   0  0  0  0  0  0  0  0  0  0  0  0
   10.1996  -18.7520   19.2713 N   0  0  0  0  0  0  0  0  0  0  0  0
   11.2686  -19.6914   19.6479 C   0  0  1  0  0  0  0  0  0  0  0  0
   12.5208  -19.3250   18.9079 C   0  0  0  0  0  0  0  0  0  0  0  0
   13.6511  -20.2407   19.2482 C   0  0  0  0  0  0  0  0  0  0  0  0
   14.9128  -19.7933   18.5206 C   0  0  0  0  0  0  0  0  0  0  0  0
   14.9557  -19.9034   17.2673 O   0  0  0  0  0  0  0  0  0  0  0  0
   11.3586  -19.6436   21.1189 C   0  0  0  0  0  0  0  0  0  0  0  0
   11.3280  -18.5120   21.7038 O   0  0  0  0  0  0  0  0  0  0  0  0
   15.9600  -19.2866   19.2424 O   0  0  0  0  0  0  0  0  0  0  0  0
   11.4744  -20.7666   21.9811 N   0  0  0  0  0  0  0  0  0  0  0  0
   11.4441  -20.6258   23.4488 C   0  0  1  0  0  0  0  0  0  0  0  0
   10.9360  -21.8593   24.0866 C   0  0  0  0  0  0  0  0  0  0  0  0
   10.9801  -21.7751   25.5830 C   0  0  0  0  0  0  0  0  0  0  0  0
   10.4878  -23.1113   26.1540 C   0  0  0  0  0  0  0  0  0  0  0  0
   10.6436  -23.1217   27.6602 C   0  0  0  0  0  0  0  0  0  0  0  0
   10.2929  -24.3913   28.2376 N   0  0  0  0  0  0  0  0  0  0  0  0
   12.7479  -20.2182   23.9599 C   0  0  0  0  0  0  0  0  0  0  0  0
   13.8375  -20.4661   23.3384 O   0  0  0  0  0  0  0  0  0  0  0  0
   12.9156  -19.5316   25.1459 O   0  0  0  0  0  0  0  0  0  0  0  0
  2  1  1  6
  3  2  1  0
  4  3  1  0
  5  2  1  0
  5  6  2  0
  7  5  1  0
  8  7  1  0
  9 10  1  0
  8  9  1  6
 10 11  1  0
 11 12  2  0
 11 15  1  0
 13  8  1  0
 14 13  2  0
 16 13  1  0
 17 16  1  0
 17 23  1  0
 17 18  1  1
 19 18  1  0
 20 19  1  0
 20 21  1  0
 22 21  1  0
 23 25  1  0
 24 23  2  0
M  END
$$$$
