GRA.pdb
     RDKit          3D

 21 20  0  0  1  0  0  0  0  0999 V2000
    7.4548  -21.6742   20.4914 N   0  0  0  0  0  0  0  0  0  0  0  0
    7.1769  -20.5196   21.2963 C   0  0  0  0  0  0  0  0  0  0  0  0
    8.3603  -19.5989   21.1979 C   0  0  0  0  0  0  0  0  0  0  0  0
    9.4042  -19.9303   20.6040 O   0  0  0  0  0  0  0  0  0  0  0  0
    7.7940  -14.1497   17.3987 N   0  0  0  0  0  0  0  0  0  0  0  0
    7.6637  -13.1674   18.4169 C   0  0  0  0  0  0  0  0  0  0  0  0
    8.2123  -12.0001   18.2614 N   0  0  0  0  0  0  0  0  0  0  0  0
    6.9439  -13.4419   19.6003 N   0  0  0  0  0  0  0  0  0  0  0  0
    7.6554  -13.9332   20.7530 C   0  0  0  0  0  0  0  0  0  0  0  0
    8.0132  -15.3875   20.5662 C   0  0  0  0  0  0  0  0  0  0  0  0
    8.6816  -15.9638   21.7669 C   0  0  0  0  0  0  0  0  0  0  0  0
    9.3184  -17.3044   21.5918 C   0  0  2  0  0  0  0  0  0  0  0  0
    8.2583  -18.3287   21.8047 N   0  0  0  0  0  0  0  0  0  0  0  0
   10.4342  -17.6183   22.4846 C   0  0  0  0  0  0  0  0  0  0  0  0
   10.1711  -17.7016   23.7415 O   0  0  0  0  0  0  0  0  0  0  0  0
    8.1701  -11.2878   19.0213 C   0  0  0  0  0  0  0  0  0  0  0  0
   13.7921  -19.1830   22.5692 C   0  0  1  0  0  0  0  0  0  0  0  0
   12.8146  -18.1707   23.0956 N   0  0  0  0  0  0  0  0  0  0  0  0
   11.7745  -17.8473   22.1456 C   0  0  0  0  0  0  0  0  0  0  0  0
   13.5728  -16.9339   23.4037 O   0  0  0  0  0  0  0  0  0  0  0  0
   13.2913  -15.8851   22.7895 O   0  0  0  0  0  0  0  0  0  0  0  0
  1  2  1  0
  2  3  1  0
  3  4  2  0
  6  8  1  0
  6  5  1  0
  7  6  2  0
  9 10  1  0
  9  8  1  0
 10 11  1  0
 12 11  1  1
 12 14  1  0
 13  3  1  0
 13 12  1  0
 14 18  1  0
 14 15  2  0
 17 16  1  1
 17 19  1  0
 18 17  1  0
 19 21  1  0
 20 19  2  0
M  END
$$$$
