GRA.pdb
     RDKit          3D

 21 20  0  0  1  0  0  0  0  0999 V2000
   11.4976  -18.3893   22.0522 N   0  0  0  0  0  0  0  0  0  0  0  0
   12.5241  -17.5934   22.6614 C   0  0  0  0  0  0  0  0  0  0  0  0
   11.8574  -16.4303   23.3402 C   0  0  0  0  0  0  0  0  0  0  0  0
   12.4929  -15.4136   23.6786 O   0  0  0  0  0  0  0  0  0  0  0  0
    6.4790  -13.1194   19.9323 N   0  0  0  0  0  0  0  0  0  0  0  0
    7.7319  -13.7192   19.6336 C   0  0  0  0  0  0  0  0  0  0  0  0
    8.3954  -13.3388   18.5834 N   0  0  0  0  0  0  0  0  0  0  0  0
    8.2690  -14.7267   20.4643 N   0  0  0  0  0  0  0  0  0  0  0  0
    7.4860  -15.2091   21.5736 C   0  0  0  0  0  0  0  0  0  0  0  0
    7.9030  -14.5171   22.8484 C   0  0  0  0  0  0  0  0  0  0  0  0
    8.3269  -15.4815   23.9023 C   0  0  0  0  0  0  0  0  0  0  0  0
    9.7630  -15.4270   24.3121 C   0  0  2  0  0  0  0  0  0  0  0  0
   10.4710  -16.5197   23.5888 N   0  0  0  0  0  0  0  0  0  0  0  0
   10.0401  -15.5788   25.7407 C   0  0  0  0  0  0  0  0  0  0  0  0
   10.2033  -16.7772   26.1801 O   0  0  0  0  0  0  0  0  0  0  0  0
    9.3269  -13.7525   18.3649 C   0  0  0  0  0  0  0  0  0  0  0  0
   10.1338  -13.6134   28.9712 C   0  0  2  0  0  0  0  0  0  0  0  0
   10.4091  -14.8153   28.1125 N   0  0  0  0  0  0  0  0  0  0  0  0
   10.1562  -14.5736   26.7102 C   0  0  0  0  0  0  0  0  0  0  0  0
    9.5166  -15.9073   28.5711 O   0  0  0  0  0  0  0  0  0  0  0  0
    8.5369  -16.2219   27.8657 O   0  0  0  0  0  0  0  0  0  0  0  0
  1  2  1  0
  2  3  1  0
  3  4  2  0
  6  8  1  0
  6  5  1  0
  7  6  2  0
  9 10  1  0
  9  8  1  0
 10 11  1  0
 12 11  1  1
 12 14  1  0
 13  3  1  0
 13 12  1  0
 14 18  1  0
 14 15  2  0
 17 16  1  6
 17 19  1  0
 18 17  1  0
 19 21  1  0
 20 19  2  0
M  END
$$$$
