GRA.pdb
     RDKit          3D

 21 20  0  0  1  0  0  0  0  0999 V2000
    3.7177  -19.9153   19.2123 N   0  0  0  0  0  0  0  0  0  0  0  0
    4.9400  -20.3586   19.8188 C   0  0  0  0  0  0  0  0  0  0  0  0
    4.7848  -20.2272   21.3076 C   0  0  0  0  0  0  0  0  0  0  0  0
    3.7933  -19.6729   21.8193 O   0  0  0  0  0  0  0  0  0  0  0  0
    4.0331  -25.3321   27.4002 N   0  0  0  0  0  0  0  0  0  0  0  0
    3.0896  -25.3898   26.3394 C   0  0  0  0  0  0  0  0  0  0  0  0
    1.9099  -25.8911   26.5516 N   0  0  0  0  0  0  0  0  0  0  0  0
    3.4159  -24.9086   25.0527 N   0  0  0  0  0  0  0  0  0  0  0  0
    4.6877  -24.2619   24.8502 C   0  0  0  0  0  0  0  0  0  0  0  0
    4.4836  -22.8335   24.4076 C   0  0  0  0  0  0  0  0  0  0  0  0
    5.7686  -22.1548   24.0782 C   0  0  0  0  0  0  0  0  0  0  0  0
    5.6695  -20.7397   23.6081 C   0  0  2  0  0  0  0  0  0  0  0  0
    5.8067  -20.7557   22.1250 N   0  0  0  0  0  0  0  0  0  0  0  0
    6.6595  -19.8040   24.1421 C   0  0  0  0  0  0  0  0  0  0  0  0
    7.8826  -19.9793   23.7826 O   0  0  0  0  0  0  0  0  0  0  0  0
    1.1807  -25.8670   25.8071 C   0  0  0  0  0  0  0  0  0  0  0  0
    6.9964  -16.5604   26.0375 C   0  0  1  0  0  0  0  0  0  0  0  0
    7.4980  -17.8893   25.5476 N   0  0  0  0  0  0  0  0  0  0  0  0
    6.4475  -18.7212   25.0061 C   0  0  0  0  0  0  0  0  0  0  0  0
    8.1073  -18.5916   26.7030 O   0  0  0  0  0  0  0  0  0  0  0  0
    9.0725  -18.0623   27.2900 O   0  0  0  0  0  0  0  0  0  0  0  0
  1  2  1  0
  2  3  1  0
  3  4  2  0
  6  8  1  0
  6  5  1  0
  7  6  2  0
  9 10  1  0
  9  8  1  0
 10 11  1  0
 12 11  1  1
 12 14  1  0
 13  3  1  0
 13 12  1  0
 14 18  1  0
 14 15  2  0
 17 16  1  6
 17 19  1  0
 18 17  1  0
 19 21  1  0
 20 19  2  0
M  END
$$$$
