GRA.pdb
     RDKit          3D

 21 20  0  0  1  0  0  0  0  0999 V2000
   10.0705  -20.1583   17.1206 N   0  0  0  0  0  0  0  0  0  0  0  0
    9.2841  -19.9599   18.3040 C   0  0  0  0  0  0  0  0  0  0  0  0
    9.9072  -18.8363   19.0832 C   0  0  0  0  0  0  0  0  0  0  0  0
   11.1129  -18.5445   18.9669 O   0  0  0  0  0  0  0  0  0  0  0  0
    8.1496  -12.7689   18.5051 N   0  0  0  0  0  0  0  0  0  0  0  0
    8.4260  -12.4830   19.8692 C   0  0  0  0  0  0  0  0  0  0  0  0
    9.2501  -11.5260   20.1738 N   0  0  0  0  0  0  0  0  0  0  0  0
    7.8159  -13.2264   20.9030 N   0  0  0  0  0  0  0  0  0  0  0  0
    6.9037  -14.2868   20.5569 C   0  0  0  0  0  0  0  0  0  0  0  0
    7.6670  -15.4996   20.0831 C   0  0  0  0  0  0  0  0  0  0  0  0
    8.4723  -16.1214   21.1718 C   0  0  0  0  0  0  0  0  0  0  0  0
    9.6299  -16.9633   20.7422 C   0  0  2  0  0  0  0  0  0  0  0  0
    9.0795  -18.1080   19.9643 N   0  0  0  0  0  0  0  0  0  0  0  0
   10.4726  -17.5063   21.8079 C   0  0  0  0  0  0  0  0  0  0  0  0
   10.0471  -18.5617   22.4088 O   0  0  0  0  0  0  0  0  0  0  0  0
    9.5550  -11.3813   21.1600 C   0  0  0  0  0  0  0  0  0  0  0  0
   13.9190  -17.1202   23.3266 C   0  0  1  0  0  0  0  0  0  0  0  0
   12.5291  -17.6859   23.2513 N   0  0  0  0  0  0  0  0  0  0  0  0
   11.7051  -17.0223   22.2667 C   0  0  0  0  0  0  0  0  0  0  0  0
   11.9023  -17.5132   24.5842 O   0  0  0  0  0  0  0  0  0  0  0  0
   10.9145  -16.7590   24.6930 O   0  0  0  0  0  0  0  0  0  0  0  0
  1  2  1  0
  2  3  1  0
  3  4  2  0
  6  8  1  0
  6  5  1  0
  7  6  2  0
  9 10  1  0
  9  8  1  0
 10 11  1  0
 12 11  1  1
 12 14  1  0
 13  3  1  0
 13 12  1  0
 14 18  1  0
 14 15  2  0
 17 16  1  6
 17 19  1  0
 18 17  1  0
 19 21  1  0
 20 19  2  0
M  END
$$$$
