GRA.pdb
     RDKit          3D

 21 20  0  0  1  0  0  0  0  0999 V2000
    2.5089  -20.0000   21.0151 N   0  0  0  0  0  0  0  0  0  0  0  0
    2.8135  -18.8645   21.8373 C   0  0  0  0  0  0  0  0  0  0  0  0
    4.2991  -18.6464   21.7823 C   0  0  0  0  0  0  0  0  0  0  0  0
    5.0508  -19.3978   21.1322 O   0  0  0  0  0  0  0  0  0  0  0  0
    8.2166  -11.8382   19.6747 N   0  0  0  0  0  0  0  0  0  0  0  0
    8.4709  -13.1818   19.2888 C   0  0  0  0  0  0  0  0  0  0  0  0
    8.8841  -13.4400   18.0845 N   0  0  0  0  0  0  0  0  0  0  0  0
    8.2806  -14.2450   20.1983 N   0  0  0  0  0  0  0  0  0  0  0  0
    7.9150  -13.9437   21.5592 C   0  0  0  0  0  0  0  0  0  0  0  0
    7.8095  -15.2147   22.3661 C   0  0  0  0  0  0  0  0  0  0  0  0
    6.4200  -15.7524   22.3945 C   0  0  0  0  0  0  0  0  0  0  0  0
    6.2855  -17.2404   22.4267 C   0  0  2  0  0  0  0  0  0  0  0  0
    4.8306  -17.5515   22.4968 N   0  0  0  0  0  0  0  0  0  0  0  0
    6.9479  -17.9316   23.5332 C   0  0  0  0  0  0  0  0  0  0  0  0
    6.4786  -17.7279   24.7139 O   0  0  0  0  0  0  0  0  0  0  0  0
    9.0438  -14.4232   17.7771 C   0  0  0  0  0  0  0  0  0  0  0  0
    9.3911  -20.7099   24.2402 C   0  0  1  0  0  0  0  0  0  0  0  0
    8.6068  -19.4855   24.6187 N   0  0  0  0  0  0  0  0  0  0  0  0
    8.0432  -18.8038   23.4756 C   0  0  0  0  0  0  0  0  0  0  0  0
    9.5325  -18.5571   25.3119 O   0  0  0  0  0  0  0  0  0  0  0  0
    9.8999  -18.8271   26.4732 O   0  0  0  0  0  0  0  0  0  0  0  0
  1  2  1  0
  2  3  1  0
  3  4  2  0
  6  8  1  0
  6  5  1  0
  7  6  2  0
  9 10  1  0
  9  8  1  0
 10 11  1  0
 12 11  1  1
 12 14  1  0
 13  3  1  0
 13 12  1  0
 14 18  1  0
 14 15  2  0
 17 16  1  1
 17 19  1  0
 18 17  1  0
 19 21  1  0
 20 19  2  0
M  END
$$$$
