GRA.pdb
     RDKit          3D

 21 20  0  0  1  0  0  0  0  0999 V2000
    4.7578  -19.6509   23.3288 N   0  0  0  0  0  0  0  0  0  0  0  0
    4.8591  -18.2263   23.4649 C   0  0  0  0  0  0  0  0  0  0  0  0
    6.2469  -17.8257   23.0508 C   0  0  0  0  0  0  0  0  0  0  0  0
    7.1084  -18.6685   22.7354 O   0  0  0  0  0  0  0  0  0  0  0  0
    7.8820  -13.9793   17.3401 N   0  0  0  0  0  0  0  0  0  0  0  0
    8.8531  -13.4198   18.2134 C   0  0  0  0  0  0  0  0  0  0  0  0
   10.0913  -13.3318   17.8301 N   0  0  0  0  0  0  0  0  0  0  0  0
    8.4912  -12.9559   19.4970 N   0  0  0  0  0  0  0  0  0  0  0  0
    7.1622  -13.2208   19.9869 C   0  0  0  0  0  0  0  0  0  0  0  0
    7.0978  -14.5949   20.6079 C   0  0  0  0  0  0  0  0  0  0  0  0
    7.7132  -14.6314   21.9645 C   0  0  0  0  0  0  0  0  0  0  0  0
    7.8954  -15.9838   22.5738 C   0  0  2  0  0  0  0  0  0  0  0  0
    6.5551  -16.4486   23.0276 N   0  0  0  0  0  0  0  0  0  0  0  0
    8.8110  -16.0687   23.7118 C   0  0  0  0  0  0  0  0  0  0  0  0
    8.4079  -15.5642   24.8249 O   0  0  0  0  0  0  0  0  0  0  0  0
   10.8112  -12.9065   18.4526 C   0  0  0  0  0  0  0  0  0  0  0  0
   10.9228  -17.9783   25.6352 C   0  0  1  0  0  0  0  0  0  0  0  0
   10.9420  -16.6577   24.9188 N   0  0  0  0  0  0  0  0  0  0  0  0
   10.0902  -16.6395   23.7513 C   0  0  0  0  0  0  0  0  0  0  0  0
   12.3378  -16.4021   24.4880 O   0  0  0  0  0  0  0  0  0  0  0  0
   12.6029  -16.4051   23.2689 O   0  0  0  0  0  0  0  0  0  0  0  0
  1  2  1  0
  2  3  1  0
  3  4  2  0
  6  8  1  0
  6  5  1  0
  7  6  2  0
  9 10  1  0
  9  8  1  0
 10 11  1  0
 12 11  1  1
 12 14  1  0
 13  3  1  0
 13 12  1  0
 14 18  1  0
 14 15  2  0
 17 16  1  1
 17 19  1  0
 18 17  1  0
 19 21  1  0
 20 19  2  0
M  END
$$$$
