GRA.pdb
     RDKit          3D

 21 20  0  0  1  0  0  0  0  0999 V2000
    6.5189  -20.3132   26.6611 N   0  0  0  0  0  0  0  0  0  0  0  0
    6.4059  -18.8838   26.6130 C   0  0  0  0  0  0  0  0  0  0  0  0
    7.2610  -18.3962   25.4777 C   0  0  0  0  0  0  0  0  0  0  0  0
    8.0405  -19.1536   24.8688 O   0  0  0  0  0  0  0  0  0  0  0  0
    6.6034  -12.8973   19.9141 N   0  0  0  0  0  0  0  0  0  0  0  0
    7.9302  -13.3079   19.6145 C   0  0  0  0  0  0  0  0  0  0  0  0
    8.7208  -12.5100   18.9617 N   0  0  0  0  0  0  0  0  0  0  0  0
    8.4045  -14.5754   20.0172 N   0  0  0  0  0  0  0  0  0  0  0  0
    7.7331  -15.2644   21.0900 C   0  0  0  0  0  0  0  0  0  0  0  0
    7.9160  -14.5161   22.3878 C   0  0  0  0  0  0  0  0  0  0  0  0
    7.2923  -15.2240   23.5412 C   0  0  0  0  0  0  0  0  0  0  0  0
    7.9387  -16.5042   23.9616 C   0  0  2  0  0  0  0  0  0  0  0  0
    7.1575  -17.0369   25.1124 N   0  0  0  0  0  0  0  0  0  0  0  0
    9.3418  -16.4238   24.3681 C   0  0  0  0  0  0  0  0  0  0  0  0
    9.6112  -15.7013   25.3983 O   0  0  0  0  0  0  0  0  0  0  0  0
    9.7037  -12.7884   18.7544 C   0  0  0  0  0  0  0  0  0  0  0  0
   12.5850  -18.1271   24.3254 C   0  0  1  0  0  0  0  0  0  0  0  0
   11.8196  -16.8410   24.1913 N   0  0  0  0  0  0  0  0  0  0  0  0
   10.4503  -17.0430   23.7752 C   0  0  0  0  0  0  0  0  0  0  0  0
   12.5064  -16.0158   23.1682 O   0  0  0  0  0  0  0  0  0  0  0  0
   11.9345  -15.8057   22.0795 O   0  0  0  0  0  0  0  0  0  0  0  0
  1  2  1  0
  2  3  1  0
  3  4  2  0
  6  8  1  0
  6  5  1  0
  7  6  2  0
  9 10  1  0
  9  8  1  0
 10 11  1  0
 12 11  1  1
 12 14  1  0
 13  3  1  0
 13 12  1  0
 14 18  1  0
 14 15  2  0
 17 16  1  1
 17 19  1  0
 18 17  1  0
 19 21  1  0
 20 19  2  0
M  END
$$$$
