GRA.pdb
     RDKit          3D

 21 20  0  0  1  0  0  0  0  0999 V2000
    8.0321  -20.1837   24.9595 N   0  0  0  0  0  0  0  0  0  0  0  0
    7.1186  -19.3214   24.2665 C   0  0  0  0  0  0  0  0  0  0  0  0
    7.5724  -17.9057   24.4848 C   0  0  0  0  0  0  0  0  0  0  0  0
    8.5228  -17.6286   25.2412 O   0  0  0  0  0  0  0  0  0  0  0  0
    7.6485  -12.5093   17.9745 N   0  0  0  0  0  0  0  0  0  0  0  0
    8.1799  -13.8261   17.9246 C   0  0  0  0  0  0  0  0  0  0  0  0
    8.7629  -14.2461   16.8422 N   0  0  0  0  0  0  0  0  0  0  0  0
    8.0834  -14.6888   19.0382 N   0  0  0  0  0  0  0  0  0  0  0  0
    7.4823  -14.1982   20.2524 C   0  0  0  0  0  0  0  0  0  0  0  0
    7.5506  -15.2504   21.3322 C   0  0  0  0  0  0  0  0  0  0  0  0
    6.9169  -14.7982   22.6029 C   0  0  0  0  0  0  0  0  0  0  0  0
    7.3781  -15.4768   23.8519 C   0  0  2  0  0  0  0  0  0  0  0  0
    6.8841  -16.8810   23.8006 N   0  0  0  0  0  0  0  0  0  0  0  0
    6.9340  -14.8888   25.1159 C   0  0  0  0  0  0  0  0  0  0  0  0
    5.7224  -15.1277   25.4777 O   0  0  0  0  0  0  0  0  0  0  0  0
    9.0889  -15.2330   16.7631 C   0  0  0  0  0  0  0  0  0  0  0  0
    8.1846  -12.8407   28.0538 C   0  0  1  0  0  0  0  0  0  0  0  0
    7.1327  -13.5046   27.2110 N   0  0  0  0  0  0  0  0  0  0  0  0
    7.6676  -14.0882   26.0018 C   0  0  0  0  0  0  0  0  0  0  0  0
    6.1400  -12.4688   26.8355 O   0  0  0  0  0  0  0  0  0  0  0  0
    5.4235  -11.9691   27.7262 O   0  0  0  0  0  0  0  0  0  0  0  0
  1  2  1  0
  2  3  1  0
  3  4  2  0
  6  8  1  0
  6  5  1  0
  7  6  2  0
  9 10  1  0
  9  8  1  0
 10 11  1  0
 12 11  1  6
 12 14  1  0
 13  3  1  0
 13 12  1  0
 14 18  1  0
 14 15  2  0
 17 16  1  1
 17 19  1  0
 18 17  1  0
 19 21  1  0
 20 19  2  0
M  END
$$$$
