GRA.pdb
     RDKit          3D

 21 20  0  0  1  0  0  0  0  0999 V2000
   13.6501  -17.5412   21.9410 N   0  0  0  0  0  0  0  0  0  0  0  0
   12.2881  -17.8530   22.2666 C   0  0  0  0  0  0  0  0  0  0  0  0
   11.7427  -16.7169   23.0848 C   0  0  0  0  0  0  0  0  0  0  0  0
   12.4455  -15.7386   23.4030 O   0  0  0  0  0  0  0  0  0  0  0  0
    7.5347  -14.6276   19.7962 N   0  0  0  0  0  0  0  0  0  0  0  0
    7.9265  -13.3351   20.2376 C   0  0  0  0  0  0  0  0  0  0  0  0
    8.4721  -12.5051   19.4002 N   0  0  0  0  0  0  0  0  0  0  0  0
    7.7310  -12.9374   21.5782 N   0  0  0  0  0  0  0  0  0  0  0  0
    7.1695  -13.8803   22.5122 C   0  0  0  0  0  0  0  0  0  0  0  0
    7.9452  -15.1745   22.4790 C   0  0  0  0  0  0  0  0  0  0  0  0
    8.3033  -15.6540   23.8438 C   0  0  0  0  0  0  0  0  0  0  0  0
    9.7564  -15.6373   24.1923 C   0  0  2  0  0  0  0  0  0  0  0  0
   10.3927  -16.7866   23.4904 N   0  0  0  0  0  0  0  0  0  0  0  0
   10.0874  -15.7383   25.6139 C   0  0  0  0  0  0  0  0  0  0  0  0
   10.5265  -16.8731   26.0324 O   0  0  0  0  0  0  0  0  0  0  0  0
    8.8238  -11.5787   19.7234 C   0  0  0  0  0  0  0  0  0  0  0  0
   10.2197  -13.6658   28.7920 C   0  0  2  0  0  0  0  0  0  0  0  0
   10.5176  -14.8648   27.9371 N   0  0  0  0  0  0  0  0  0  0  0  0
    9.9907  -14.7439   26.5966 C   0  0  0  0  0  0  0  0  0  0  0  0
    9.8923  -16.0433   28.5848 O   0  0  0  0  0  0  0  0  0  0  0  0
    8.8568  -16.5275   28.0851 O   0  0  0  0  0  0  0  0  0  0  0  0
  1  2  1  0
  2  3  1  0
  3  4  2  0
  6  8  1  0
  6  5  1  0
  7  6  2  0
  9 10  1  0
  9  8  1  0
 10 11  1  0
 12 11  1  1
 12 14  1  0
 13  3  1  0
 13 12  1  0
 14 18  1  0
 14 15  2  0
 17 16  1  6
 17 19  1  0
 18 17  1  0
 19 21  1  0
 20 19  2  0
M  END
$$$$
