GRA.pdb
     RDKit          3D

 21 20  0  0  1  0  0  0  0  0999 V2000
    4.8620  -27.1944   28.9890 N   0  0  0  0  0  0  0  0  0  0  0  0
    4.4365  -25.8609   28.6744 C   0  0  0  0  0  0  0  0  0  0  0  0
    5.5729  -25.1728   27.9722 C   0  0  0  0  0  0  0  0  0  0  0  0
    6.6353  -25.7652   27.7031 O   0  0  0  0  0  0  0  0  0  0  0  0
    6.9841  -21.9304   21.0001 N   0  0  0  0  0  0  0  0  0  0  0  0
    7.8049  -20.9946   21.6853 C   0  0  0  0  0  0  0  0  0  0  0  0
    8.7002  -20.3196   21.0290 N   0  0  0  0  0  0  0  0  0  0  0  0
    7.6616  -20.7862   23.0744 N   0  0  0  0  0  0  0  0  0  0  0  0
    6.6489  -21.5198   23.7904 C   0  0  0  0  0  0  0  0  0  0  0  0
    6.6631  -21.1411   25.2513 C   0  0  0  0  0  0  0  0  0  0  0  0
    5.7802  -22.0181   26.0711 C   0  0  0  0  0  0  0  0  0  0  0  0
    6.4571  -23.1028   26.8449 C   0  0  2  0  0  0  0  0  0  0  0  0
    5.4040  -23.8168   27.6193 N   0  0  0  0  0  0  0  0  0  0  0  0
    7.4989  -22.6827   27.7823 C   0  0  0  0  0  0  0  0  0  0  0  0
    7.1182  -22.0354   28.8273 O   0  0  0  0  0  0  0  0  0  0  0  0
    9.2943  -19.6136   21.5140 C   0  0  0  0  0  0  0  0  0  0  0  0
   11.1063  -23.2806   28.6594 C   0  0  1  0  0  0  0  0  0  0  0  0
    9.8415  -22.4700   28.6835 N   0  0  0  0  0  0  0  0  0  0  0  0
    8.8806  -22.8986   27.6925 C   0  0  0  0  0  0  0  0  0  0  0  0
   10.2078  -21.0599   28.4061 O   0  0  0  0  0  0  0  0  0  0  0  0
    9.8540  -20.5463   27.3256 O   0  0  0  0  0  0  0  0  0  0  0  0
  1  2  1  0
  2  3  1  0
  3  4  2  0
  6  8  1  0
  6  5  1  0
  7  6  2  0
  9 10  1  0
  9  8  1  0
 10 11  1  0
 12 11  1  1
 12 14  1  0
 13  3  1  0
 13 12  1  0
 14 18  1  0
 14 15  2  0
 17 16  1  1
 17 19  1  0
 18 17  1  0
 19 21  1  0
 20 19  2  0
M  END
$$$$
