GRA.pdb
     RDKit          3D

 21 20  0  0  1  0  0  0  0  0999 V2000
    5.1985  -21.4771   23.7334 N   0  0  0  0  0  0  0  0  0  0  0  0
    5.3396  -20.1335   24.2161 C   0  0  0  0  0  0  0  0  0  0  0  0
    6.4170  -19.4684   23.4070 C   0  0  0  0  0  0  0  0  0  0  0  0
    7.0966  -20.0972   22.5734 O   0  0  0  0  0  0  0  0  0  0  0  0
    8.5366  -13.2854   17.3953 N   0  0  0  0  0  0  0  0  0  0  0  0
    7.9069  -13.2468   18.6684 C   0  0  0  0  0  0  0  0  0  0  0  0
    7.2556  -12.1839   19.0342 N   0  0  0  0  0  0  0  0  0  0  0  0
    7.9784  -14.3509   19.5456 N   0  0  0  0  0  0  0  0  0  0  0  0
    7.3207  -14.2706   20.8252 C   0  0  0  0  0  0  0  0  0  0  0  0
    8.0856  -15.0629   21.8572 C   0  0  0  0  0  0  0  0  0  0  0  0
    7.2010  -15.9660   22.6461 C   0  0  0  0  0  0  0  0  0  0  0  0
    7.6813  -17.3691   22.8311 C   0  0  2  0  0  0  0  0  0  0  0  0
    6.6437  -18.0915   23.6183 N   0  0  0  0  0  0  0  0  0  0  0  0
    8.9634  -17.5347   23.5162 C   0  0  0  0  0  0  0  0  0  0  0  0
    9.0021  -17.2283   24.7655 O   0  0  0  0  0  0  0  0  0  0  0  0
    6.7736  -12.1477   19.9577 C   0  0  0  0  0  0  0  0  0  0  0  0
   12.4719  -18.8658   22.9879 C   0  0  1  0  0  0  0  0  0  0  0  0
   11.4049  -18.1150   23.7332 N   0  0  0  0  0  0  0  0  0  0  0  0
   10.1753  -17.9939   22.9832 C   0  0  0  0  0  0  0  0  0  0  0  0
   11.9248  -16.7538   24.0091 O   0  0  0  0  0  0  0  0  0  0  0  0
   12.6976  -16.5875   24.9743 O   0  0  0  0  0  0  0  0  0  0  0  0
  1  2  1  0
  2  3  1  0
  3  4  2  0
  6  8  1  0
  6  5  1  0
  7  6  2  0
  9 10  1  0
  9  8  1  0
 10 11  1  0
 12 11  1  1
 12 14  1  0
 13  3  1  0
 13 12  1  0
 14 18  1  0
 14 15  2  0
 17 16  1  1
 17 19  1  0
 18 17  1  0
 19 21  1  0
 20 19  2  0
M  END
$$$$
