IFE.pdb
     RDKit          3D

 29 29  0  0  1  0  0  0  0  0999 V2000
   21.0666  -13.8022  -21.2574 C   0  0  0  0  0  0  0  0  0  0  0  0
   19.9649  -13.9640  -20.2701 C   0  0  0  0  0  0  0  0  0  0  0  0
   19.7869  -12.8065  -19.3224 C   0  0  2  0  0  0  0  0  0  0  0  0
   19.8304  -11.4704  -19.9829 C   0  0  0  0  0  0  0  0  0  0  0  0
   20.8959  -12.8721  -18.2947 C   0  0  2  0  0  0  0  0  0  0  0  0
   20.9336  -14.2382  -17.8101 N   0  0  0  0  0  0  0  0  0  0  0  0
   20.6969  -11.9063  -17.1748 C   0  0  0  0  0  0  0  0  0  0  0  0
   19.6308  -11.9480  -16.5133 O   0  0  0  0  0  0  0  0  0  0  0  0
   21.6678  -10.9442  -16.8317 N   0  0  0  0  0  0  0  0  0  0  0  0
   21.5391   -9.8891  -15.8917 C   0  0  1  0  0  0  0  0  0  0  0  0
   22.7928   -9.4919  -15.2059 C   0  0  0  0  0  0  0  0  0  0  0  0
   22.6377   -8.4357  -14.2076 C   0  0  0  0  0  0  0  0  0  0  0  0
   22.2484   -8.7050  -12.9138 C   0  0  0  0  0  0  0  0  0  0  0  0
   22.1048   -7.6879  -11.9729 C   0  0  0  0  0  0  0  0  0  0  0  0
   22.3498   -6.3766  -12.3131 C   0  0  0  0  0  0  0  0  0  0  0  0
   22.7398   -6.0951  -13.6046 C   0  0  0  0  0  0  0  0  0  0  0  0
   22.8803   -7.1231  -14.5386 C   0  0  0  0  0  0  0  0  0  0  0  0
   20.9265   -8.6582  -16.5145 C   0  0  0  0  0  0  0  0  0  0  0  0
   21.3276   -8.1628  -17.5952 O   0  0  0  0  0  0  0  0  0  0  0  0
   19.8417   -7.9821  -15.8993 N   0  0  0  0  0  0  0  0  0  0  0  0
   19.1829   -6.8329  -16.5485 C   0  0  1  0  0  0  0  0  0  0  0  0
   17.7501   -7.1387  -16.8271 C   0  0  0  0  0  0  0  0  0  0  0  0
   16.8636   -7.2659  -15.6415 C   0  0  0  0  0  0  0  0  0  0  0  0
   15.4580   -7.5658  -15.9931 C   0  0  0  0  0  0  0  0  0  0  0  0
   15.0936   -8.4566  -16.8004 O   0  0  0  0  0  0  0  0  0  0  0  0
   19.2595   -5.7095  -15.5854 C   0  0  0  0  0  0  0  0  0  0  0  0
   18.9972   -4.3811  -15.9163 O   0  0  0  0  0  0  0  0  0  0  0  0
   14.4291   -6.8311  -15.4102 O   0  0  0  0  0  0  0  0  0  0  0  0
   19.5770   -5.9262  -14.3897 O   0  0  0  0  0  0  0  0  0  0  0  0
  2  1  1  0
  3  2  1  0
  3  4  1  6
  5  3  1  0
  5  6  1  1
  7  5  1  0
  7  8  2  0
  9  7  1  0
 10  9  1  0
 10 11  1  6
 12 11  1  0
 12 17  2  0
 13 12  1  0
 14 13  2  0
 14 15  1  0
 15 16  2  0
 16 17  1  0
 18 10  1  0
 19 18  2  0
 20 18  1  0
 21 20  1  0
 21 26  1  0
 21 22  1  1
 23 22  1  0
 23 24  1  0
 24 25  2  0
 26 27  1  0
 28 24  1  0
 29 26  2  0
M  END
$$$$
