IFE.pdb
     RDKit          3D

 29 29  0  0  1  0  0  0  0  0999 V2000
   25.0084  -28.2815  -20.9134 C   0  0  0  0  0  0  0  0  0  0  0  0
   24.5860  -28.9155  -19.6350 C   0  0  0  0  0  0  0  0  0  0  0  0
   25.5810  -29.8818  -19.0467 C   0  0  2  0  0  0  0  0  0  0  0  0
   25.9702  -30.9871  -19.9687 C   0  0  0  0  0  0  0  0  0  0  0  0
   24.9636  -30.4859  -17.8041 C   0  0  2  0  0  0  0  0  0  0  0  0
   24.8293  -29.4102  -16.8411 N   0  0  0  0  0  0  0  0  0  0  0  0
   25.7740  -31.6098  -17.2502 C   0  0  0  0  0  0  0  0  0  0  0  0
   26.0754  -32.5726  -17.9970 O   0  0  0  0  0  0  0  0  0  0  0  0
   26.2152  -31.6288  -15.9119 N   0  0  0  0  0  0  0  0  0  0  0  0
   27.0539  -32.5935  -15.2960 C   0  0  1  0  0  0  0  0  0  0  0  0
   28.3333  -32.0721  -14.7565 C   0  0  0  0  0  0  0  0  0  0  0  0
   29.2803  -31.6051  -15.7671 C   0  0  0  0  0  0  0  0  0  0  0  0
   30.2193  -32.4413  -16.3300 C   0  0  0  0  0  0  0  0  0  0  0  0
   31.1155  -31.9820  -17.2924 C   0  0  0  0  0  0  0  0  0  0  0  0
   31.0868  -30.6706  -17.7100 C   0  0  0  0  0  0  0  0  0  0  0  0
   30.1516  -29.8247  -17.1539 C   0  0  0  0  0  0  0  0  0  0  0  0
   29.2587  -30.2966  -16.1902 C   0  0  0  0  0  0  0  0  0  0  0  0
   26.3375  -33.3326  -14.1919 C   0  0  0  0  0  0  0  0  0  0  0  0
   25.5469  -32.7756  -13.3927 O   0  0  0  0  0  0  0  0  0  0  0  0
   26.5229  -34.7252  -13.9953 N   0  0  0  0  0  0  0  0  0  0  0  0
   25.7760  -35.4625  -12.9587 C   0  0  1  0  0  0  0  0  0  0  0  0
   24.3066  -35.3217  -13.1712 C   0  0  0  0  0  0  0  0  0  0  0  0
   23.6693  -36.3400  -14.0456 C   0  0  0  0  0  0  0  0  0  0  0  0
   22.9029  -37.3579  -13.2936 C   0  0  0  0  0  0  0  0  0  0  0  0
   21.9676  -37.1070  -12.4934 O   0  0  0  0  0  0  0  0  0  0  0  0
   26.1520  -36.8880  -13.1080 C   0  0  0  0  0  0  0  0  0  0  0  0
   26.8431  -37.3999  -14.2050 O   0  0  0  0  0  0  0  0  0  0  0  0
   23.2062  -38.7073  -13.4532 O   0  0  0  0  0  0  0  0  0  0  0  0
   25.8472  -37.7162  -12.2144 O   0  0  0  0  0  0  0  0  0  0  0  0
  2  1  1  0
  3  2  1  0
  3  4  1  6
  5  3  1  0
  5  6  1  1
  7  5  1  0
  7  8  2  0
  9  7  1  0
 10  9  1  0
 10 11  1  1
 12 11  1  0
 12 17  2  0
 13 12  1  0
 14 13  2  0
 14 15  1  0
 15 16  2  0
 16 17  1  0
 18 10  1  0
 19 18  2  0
 20 18  1  0
 21 20  1  0
 21 26  1  0
 21 22  1  6
 23 22  1  0
 23 24  1  0
 24 25  2  0
 26 27  1  0
 28 24  1  0
 29 26  2  0
M  END
$$$$
