IFE.pdb
     RDKit          3D

 29 29  0  0  1  0  0  0  0  0999 V2000
   17.5654  -12.5063  -22.0317 C   0  0  0  0  0  0  0  0  0  0  0  0
   18.5444  -12.6164  -20.9163 C   0  0  0  0  0  0  0  0  0  0  0  0
   18.5776  -11.4349  -19.9821 C   0  0  2  0  0  0  0  0  0  0  0  0
   19.0368  -10.1690  -20.6222 C   0  0  0  0  0  0  0  0  0  0  0  0
   19.5182  -11.7681  -18.8443 C   0  0  2  0  0  0  0  0  0  0  0  0
   19.1306  -13.0764  -18.3536 N   0  0  0  0  0  0  0  0  0  0  0  0
   19.4826  -10.7494  -17.7546 C   0  0  0  0  0  0  0  0  0  0  0  0
   18.4080  -10.5525  -17.1363 O   0  0  0  0  0  0  0  0  0  0  0  0
   20.6179   -9.9968  -17.3930 N   0  0  0  0  0  0  0  0  0  0  0  0
   20.6772   -8.9159  -16.4757 C   0  0  1  0  0  0  0  0  0  0  0  0
   21.9114   -8.8444  -15.6561 C   0  0  0  0  0  0  0  0  0  0  0  0
   21.9370   -7.7572  -14.6795 C   0  0  0  0  0  0  0  0  0  0  0  0
   22.4816   -6.5259  -14.9715 C   0  0  0  0  0  0  0  0  0  0  0  0
   22.4990   -5.4989  -14.0305 C   0  0  0  0  0  0  0  0  0  0  0  0
   21.9685   -5.6881  -12.7743 C   0  0  0  0  0  0  0  0  0  0  0  0
   21.4209   -6.9159  -12.4709 C   0  0  0  0  0  0  0  0  0  0  0  0
   21.4094   -7.9374  -13.4223 C   0  0  0  0  0  0  0  0  0  0  0  0
   20.4863   -7.5870  -17.1656 C   0  0  0  0  0  0  0  0  0  0  0  0
   21.1456   -7.2350  -18.1733 O   0  0  0  0  0  0  0  0  0  0  0  0
   19.5309   -6.6461  -16.7028 N   0  0  0  0  0  0  0  0  0  0  0  0
   19.3309   -5.3531  -17.3843 C   0  0  1  0  0  0  0  0  0  0  0  0
   17.8852   -5.1325  -17.6764 C   0  0  0  0  0  0  0  0  0  0  0  0
   17.5418   -3.8643  -18.3702 C   0  0  0  0  0  0  0  0  0  0  0  0
   16.1093   -3.7631  -18.7264 C   0  0  0  0  0  0  0  0  0  0  0  0
   15.4475   -2.6955  -18.7464 O   0  0  0  0  0  0  0  0  0  0  0  0
   19.7992   -4.3087  -16.4433 C   0  0  0  0  0  0  0  0  0  0  0  0
   20.0505   -4.5353  -15.0911 O   0  0  0  0  0  0  0  0  0  0  0  0
   15.4014   -4.9109  -19.0719 O   0  0  0  0  0  0  0  0  0  0  0  0
   19.9924   -3.1362  -16.8499 O   0  0  0  0  0  0  0  0  0  0  0  0
  2  1  1  0
  3  2  1  0
  3  4  1  6
  5  3  1  0
  5  6  1  1
  7  5  1  0
  7  8  2  0
  9  7  1  0
 10  9  1  0
 10 11  1  6
 12 11  1  0
 12 17  2  0
 13 12  1  0
 14 13  2  0
 14 15  1  0
 15 16  2  0
 16 17  1  0
 18 10  1  0
 19 18  2  0
 20 18  1  0
 21 20  1  0
 21 26  1  0
 21 22  1  1
 23 22  1  0
 23 24  1  0
 24 25  2  0
 26 27  1  0
 28 24  1  0
 29 26  2  0
M  END
$$$$
