IFE.pdb
     RDKit          3D

 29 29  0  0  1  0  0  0  0  0999 V2000
   27.9196  -20.1394  -20.4342 C   0  0  0  0  0  0  0  0  0  0  0  0
   27.4007  -21.5157  -20.2076 C   0  0  0  0  0  0  0  0  0  0  0  0
   26.5197  -21.6702  -18.9953 C   0  0  2  0  0  0  0  0  0  0  0  0
   25.4652  -20.6229  -18.8752 C   0  0  0  0  0  0  0  0  0  0  0  0
   27.4027  -21.6077  -17.7678 C   0  0  2  0  0  0  0  0  0  0  0  0
   28.3975  -22.6520  -17.9173 N   0  0  0  0  0  0  0  0  0  0  0  0
   26.6333  -21.7711  -16.4998 C   0  0  0  0  0  0  0  0  0  0  0  0
   25.6511  -22.5525  -16.4767 O   0  0  0  0  0  0  0  0  0  0  0  0
   26.9716  -21.0761  -15.3214 N   0  0  0  0  0  0  0  0  0  0  0  0
   26.2204  -21.0030  -14.1198 C   0  0  1  0  0  0  0  0  0  0  0  0
   26.9327  -20.4148  -12.9594 C   0  0  0  0  0  0  0  0  0  0  0  0
   26.1726  -20.4107  -11.7110 C   0  0  0  0  0  0  0  0  0  0  0  0
   25.4243  -19.3238  -11.3151 C   0  0  0  0  0  0  0  0  0  0  0  0
   24.7048  -19.3343  -10.1224 C   0  0  0  0  0  0  0  0  0  0  0  0
   24.7222  -20.4390   -9.3011 C   0  0  0  0  0  0  0  0  0  0  0  0
   25.4674  -21.5323   -9.6869 C   0  0  0  0  0  0  0  0  0  0  0  0
   26.1843  -21.5099  -10.8845 C   0  0  0  0  0  0  0  0  0  0  0  0
   24.9265  -20.2508  -14.3153 C   0  0  0  0  0  0  0  0  0  0  0  0
   24.8753  -19.0675  -14.7294 O   0  0  0  0  0  0  0  0  0  0  0  0
   23.6732  -20.8540  -14.0365 N   0  0  0  0  0  0  0  0  0  0  0  0
   22.4280  -20.0635  -14.0062 C   0  0  1  0  0  0  0  0  0  0  0  0
   21.5406  -20.4394  -15.1443 C   0  0  0  0  0  0  0  0  0  0  0  0
   20.2256  -19.7505  -15.2066 C   0  0  0  0  0  0  0  0  0  0  0  0
   19.3974  -20.1762  -16.3565 C   0  0  0  0  0  0  0  0  0  0  0  0
   19.7025  -21.0902  -17.1624 O   0  0  0  0  0  0  0  0  0  0  0  0
   21.7505  -20.4011  -12.7324 C   0  0  0  0  0  0  0  0  0  0  0  0
   22.1376  -21.4490  -11.8987 O   0  0  0  0  0  0  0  0  0  0  0  0
   18.1813  -19.5447  -16.6022 O   0  0  0  0  0  0  0  0  0  0  0  0
   20.7637  -19.7267  -12.3465 O   0  0  0  0  0  0  0  0  0  0  0  0
  2  1  1  0
  3  2  1  0
  3  4  1  1
  5  3  1  0
  5  6  1  6
  7  5  1  0
  7  8  2  0
  9  7  1  0
 10  9  1  0
 10 11  1  1
 12 11  1  0
 12 17  2  0
 13 12  1  0
 14 13  2  0
 14 15  1  0
 15 16  2  0
 16 17  1  0
 18 10  1  0
 19 18  2  0
 20 18  1  0
 21 20  1  0
 21 26  1  0
 21 22  1  6
 23 22  1  0
 23 24  1  0
 24 25  2  0
 26 27  1  0
 28 24  1  0
 29 26  2  0
M  END
$$$$
