IFE.pdb
     RDKit          3D

 29 29  0  0  1  0  0  0  0  0999 V2000
   28.3993  -18.2048  -15.3201 C   0  0  0  0  0  0  0  0  0  0  0  0
   27.4707  -19.3676  -15.3218 C   0  0  0  0  0  0  0  0  0  0  0  0
   26.9569  -19.7716  -13.9644 C   0  0  2  0  0  0  0  0  0  0  0  0
   26.5267  -18.6252  -13.1136 C   0  0  0  0  0  0  0  0  0  0  0  0
   28.0657  -20.5128  -13.2492 C   0  0  2  0  0  0  0  0  0  0  0  0
   28.3721  -21.6797  -14.0535 N   0  0  0  0  0  0  0  0  0  0  0  0
   27.6918  -20.8984  -11.8570 C   0  0  0  0  0  0  0  0  0  0  0  0
   26.8806  -21.8399  -11.6801 O   0  0  0  0  0  0  0  0  0  0  0  0
   28.2194  -20.2400  -10.7283 N   0  0  0  0  0  0  0  0  0  0  0  0
   27.8485  -20.4270   -9.3715 C   0  0  1  0  0  0  0  0  0  0  0  0
   28.7534  -19.8065   -8.3735 C   0  0  0  0  0  0  0  0  0  0  0  0
   28.3134  -19.9314   -6.9853 C   0  0  0  0  0  0  0  0  0  0  0  0
   28.6196  -21.0343   -6.2186 C   0  0  0  0  0  0  0  0  0  0  0  0
   28.1934  -21.1396   -4.8966 C   0  0  0  0  0  0  0  0  0  0  0  0
   27.4493  -20.1371   -4.3165 C   0  0  0  0  0  0  0  0  0  0  0  0
   27.1369  -19.0290   -5.0739 C   0  0  0  0  0  0  0  0  0  0  0  0
   27.5697  -18.9349   -6.3978 C   0  0  0  0  0  0  0  0  0  0  0  0
   26.4434  -19.9443   -9.1053 C   0  0  0  0  0  0  0  0  0  0  0  0
   26.0628  -18.7726   -9.3427 O   0  0  0  0  0  0  0  0  0  0  0  0
   25.4574  -20.8074   -8.5620 N   0  0  0  0  0  0  0  0  0  0  0  0
   24.0278  -20.4431   -8.5673 C   0  0  1  0  0  0  0  0  0  0  0  0
   23.4102  -20.7631   -9.8864 C   0  0  0  0  0  0  0  0  0  0  0  0
   21.9707  -20.4267  -10.0360 C   0  0  0  0  0  0  0  0  0  0  0  0
   21.4407  -20.7167  -11.3867 C   0  0  0  0  0  0  0  0  0  0  0  0
   21.4723  -21.8417  -11.9447 O   0  0  0  0  0  0  0  0  0  0  0  0
   23.3833  -21.2677   -7.5184 C   0  0  0  0  0  0  0  0  0  0  0  0
   22.0469  -21.1436   -7.1424 O   0  0  0  0  0  0  0  0  0  0  0  0
   20.8545  -19.6970  -12.1315 O   0  0  0  0  0  0  0  0  0  0  0  0
   24.0478  -22.1413   -6.9080 O   0  0  0  0  0  0  0  0  0  0  0  0
  2  1  1  0
  3  2  1  0
  3  4  1  1
  5  3  1  0
  5  6  1  6
  7  5  1  0
  7  8  2  0
  9  7  1  0
 10  9  1  0
 10 11  1  1
 12 11  1  0
 12 17  2  0
 13 12  1  0
 14 13  2  0
 14 15  1  0
 15 16  2  0
 16 17  1  0
 18 10  1  0
 19 18  2  0
 20 18  1  0
 21 20  1  0
 21 26  1  0
 21 22  1  6
 23 22  1  0
 23 24  1  0
 24 25  2  0
 26 27  1  0
 28 24  1  0
 29 26  2  0
M  END
$$$$
