IFE.pdb
     RDKit          3D

 29 29  0  0  1  0  0  0  0  0999 V2000
   19.1072  -22.2364  -11.4374 C   0  0  0  0  0  0  0  0  0  0  0  0
   20.2674  -22.1402  -10.5104 C   0  0  0  0  0  0  0  0  0  0  0  0
   21.4413  -21.3595  -11.0417 C   0  0  2  0  0  0  0  0  0  0  0  0
   21.9598  -21.8586  -12.3475 C   0  0  0  0  0  0  0  0  0  0  0  0
   22.5541  -21.4396  -10.0191 C   0  0  2  0  0  0  0  0  0  0  0  0
   22.0223  -20.9007   -8.7825 N   0  0  0  0  0  0  0  0  0  0  0  0
   23.7794  -20.7034  -10.4472 C   0  0  0  0  0  0  0  0  0  0  0  0
   23.6979  -19.4774  -10.7041 O   0  0  0  0  0  0  0  0  0  0  0  0
   25.0310  -21.3387  -10.5740 N   0  0  0  0  0  0  0  0  0  0  0  0
   26.2428  -20.7667  -11.0406 C   0  0  1  0  0  0  0  0  0  0  0  0
   27.4597  -21.1507  -10.2844 C   0  0  0  0  0  0  0  0  0  0  0  0
   27.6290  -20.4643   -9.0051 C   0  0  0  0  0  0  0  0  0  0  0  0
   26.8740  -19.3646   -8.6609 C   0  0  0  0  0  0  0  0  0  0  0  0
   27.0464  -18.7205   -7.4378 C   0  0  0  0  0  0  0  0  0  0  0  0
   27.9827  -19.1689   -6.5336 C   0  0  0  0  0  0  0  0  0  0  0  0
   28.7438  -20.2683   -6.8672 C   0  0  0  0  0  0  0  0  0  0  0  0
   28.5619  -20.9053   -8.0960 C   0  0  0  0  0  0  0  0  0  0  0  0
   26.4757  -21.0667  -12.5015 C   0  0  0  0  0  0  0  0  0  0  0  0
   26.6340  -22.2285  -12.9476 O   0  0  0  0  0  0  0  0  0  0  0  0
   26.5282  -20.0298  -13.4682 N   0  0  0  0  0  0  0  0  0  0  0  0
   26.3362  -20.3059  -14.9045 C   0  0  1  0  0  0  0  0  0  0  0  0
   26.0373  -19.0464  -15.6451 C   0  0  0  0  0  0  0  0  0  0  0  0
   25.8200  -19.1814  -17.1087 C   0  0  0  0  0  0  0  0  0  0  0  0
   25.5311  -17.8934  -17.7772 C   0  0  0  0  0  0  0  0  0  0  0  0
   25.6641  -16.7627  -17.2465 O   0  0  0  0  0  0  0  0  0  0  0  0
   27.6173  -20.8643  -15.3969 C   0  0  0  0  0  0  0  0  0  0  0  0
   27.7388  -21.6297  -16.5555 O   0  0  0  0  0  0  0  0  0  0  0  0
   25.0756  -17.8857  -19.0928 O   0  0  0  0  0  0  0  0  0  0  0  0
   28.6798  -20.6583  -14.7596 O   0  0  0  0  0  0  0  0  0  0  0  0
  2  1  1  0
  3  2  1  0
  3  4  1  6
  5  3  1  0
  5  6  1  1
  7  5  1  0
  7  8  2  0
  9  7  1  0
 10  9  1  0
 10 11  1  1
 12 11  1  0
 12 17  2  0
 13 12  1  0
 14 13  2  0
 14 15  1  0
 15 16  2  0
 16 17  1  0
 18 10  1  0
 19 18  2  0
 20 18  1  0
 21 20  1  0
 21 26  1  0
 21 22  1  6
 23 22  1  0
 23 24  1  0
 24 25  2  0
 26 27  1  0
 28 24  1  0
 29 26  2  0
M  END
$$$$
