IFE.pdb
     RDKit          3D

 29 29  0  0  1  0  0  0  0  0999 V2000
   20.1847  -14.2814  -19.6712 C   0  0  0  0  0  0  0  0  0  0  0  0
   21.5348  -13.8303  -19.2373 C   0  0  0  0  0  0  0  0  0  0  0  0
   21.5430  -12.6078  -18.3569 C   0  0  2  0  0  0  0  0  0  0  0  0
   20.9227  -11.4055  -18.9836 C   0  0  0  0  0  0  0  0  0  0  0  0
   22.9832  -12.2867  -18.0204 C   0  0  2  0  0  0  0  0  0  0  0  0
   23.5347  -13.4669  -17.3837 N   0  0  0  0  0  0  0  0  0  0  0  0
   23.1125  -11.0876  -17.1418 C   0  0  0  0  0  0  0  0  0  0  0  0
   22.7513  -11.1666  -15.9421 O   0  0  0  0  0  0  0  0  0  0  0  0
   23.6282   -9.8637  -17.6130 N   0  0  0  0  0  0  0  0  0  0  0  0
   23.7379   -8.6435  -16.8970 C   0  0  1  0  0  0  0  0  0  0  0  0
   25.1227   -8.2005  -16.6039 C   0  0  0  0  0  0  0  0  0  0  0  0
   26.0009   -9.2421  -16.0747 C   0  0  0  0  0  0  0  0  0  0  0  0
   25.7992   -9.8069  -14.8344 C   0  0  0  0  0  0  0  0  0  0  0  0
   26.6446  -10.7990  -14.3430 C   0  0  0  0  0  0  0  0  0  0  0  0
   27.7122  -11.2451  -15.0890 C   0  0  0  0  0  0  0  0  0  0  0  0
   27.9239  -10.6873  -16.3314 C   0  0  0  0  0  0  0  0  0  0  0  0
   27.0698   -9.6937  -16.8130 C   0  0  0  0  0  0  0  0  0  0  0  0
   23.0162   -7.5182  -17.5977 C   0  0  0  0  0  0  0  0  0  0  0  0
   23.3151   -7.1226  -18.7503 O   0  0  0  0  0  0  0  0  0  0  0  0
   21.9388   -6.8341  -16.9785 N   0  0  0  0  0  0  0  0  0  0  0  0
   21.2199   -5.7457  -17.6677 C   0  0  1  0  0  0  0  0  0  0  0  0
   19.7908   -5.7103  -17.2432 C   0  0  0  0  0  0  0  0  0  0  0  0
   19.5386   -5.3984  -15.8125 C   0  0  0  0  0  0  0  0  0  0  0  0
   18.1058   -5.4522  -15.4471 C   0  0  0  0  0  0  0  0  0  0  0  0
   17.2041   -4.7509  -15.9697 O   0  0  0  0  0  0  0  0  0  0  0  0
   21.8786   -4.4841  -17.2554 C   0  0  0  0  0  0  0  0  0  0  0  0
   22.7926   -4.3896  -16.2072 O   0  0  0  0  0  0  0  0  0  0  0  0
   17.6793   -6.3310  -14.4551 O   0  0  0  0  0  0  0  0  0  0  0  0
   21.6239   -3.4140  -17.8614 O   0  0  0  0  0  0  0  0  0  0  0  0
  2  1  1  0
  3  2  1  0
  3  4  1  6
  5  3  1  0
  5  6  1  1
  7  5  1  0
  7  8  2  0
  9  7  1  0
 10  9  1  0
 10 11  1  6
 12 11  1  0
 12 17  2  0
 13 12  1  0
 14 13  2  0
 14 15  1  0
 15 16  2  0
 16 17  1  0
 18 10  1  0
 19 18  2  0
 20 18  1  0
 21 20  1  0
 21 26  1  0
 21 22  1  1
 23 22  1  0
 23 24  1  0
 24 25  2  0
 26 27  1  0
 28 24  1  0
 29 26  2  0
M  END
$$$$
