IFE.pdb
     RDKit          3D

 29 29  0  0  1  0  0  0  0  0999 V2000
   18.4198  -14.8827  -16.9306 C   0  0  0  0  0  0  0  0  0  0  0  0
   17.8954  -13.4909  -16.8791 C   0  0  0  0  0  0  0  0  0  0  0  0
   18.6009  -12.5825  -15.9062 C   0  0  2  0  0  0  0  0  0  0  0  0
   18.6356  -13.1012  -14.5087 C   0  0  0  0  0  0  0  0  0  0  0  0
   17.8818  -11.2509  -15.9080 C   0  0  2  0  0  0  0  0  0  0  0  0
   17.9416  -10.7476  -17.2665 N   0  0  0  0  0  0  0  0  0  0  0  0
   18.4749  -10.2782  -14.9443 C   0  0  0  0  0  0  0  0  0  0  0  0
   18.5418  -10.5849  -13.7289 O   0  0  0  0  0  0  0  0  0  0  0  0
   18.9648   -9.0213  -15.3520 N   0  0  0  0  0  0  0  0  0  0  0  0
   19.4815   -7.9900  -14.5256 C   0  0  1  0  0  0  0  0  0  0  0  0
   20.8400   -7.5117  -14.8801 C   0  0  0  0  0  0  0  0  0  0  0  0
   21.8884   -8.5268  -14.7981 C   0  0  0  0  0  0  0  0  0  0  0  0
   22.2678   -9.0898  -13.5993 C   0  0  0  0  0  0  0  0  0  0  0  0
   23.2688  -10.0565  -13.5366 C   0  0  0  0  0  0  0  0  0  0  0  0
   23.9106  -10.4783  -14.6791 C   0  0  0  0  0  0  0  0  0  0  0  0
   23.5395   -9.9221  -15.8842 C   0  0  0  0  0  0  0  0  0  0  0  0
   22.5349   -8.9540  -15.9343 C   0  0  0  0  0  0  0  0  0  0  0  0
   18.5557   -6.7989  -14.4747 C   0  0  0  0  0  0  0  0  0  0  0  0
   17.9055   -6.3911  -15.4672 O   0  0  0  0  0  0  0  0  0  0  0  0
   18.3666   -6.0623  -13.2772 N   0  0  0  0  0  0  0  0  0  0  0  0
   17.4197   -4.9331  -13.2093 C   0  0  1  0  0  0  0  0  0  0  0  0
   17.1622   -4.5494  -11.7913 C   0  0  0  0  0  0  0  0  0  0  0  0
   16.4740   -5.5638  -10.9515 C   0  0  0  0  0  0  0  0  0  0  0  0
   16.3370   -5.1543   -9.5363 C   0  0  0  0  0  0  0  0  0  0  0  0
   15.8396   -5.8648   -8.6277 O   0  0  0  0  0  0  0  0  0  0  0  0
   18.0714   -3.7997  -13.9065 C   0  0  0  0  0  0  0  0  0  0  0  0
   17.3832   -2.7004  -14.4172 O   0  0  0  0  0  0  0  0  0  0  0  0
   16.7789   -3.8962   -9.1362 O   0  0  0  0  0  0  0  0  0  0  0  0
   19.3169   -3.7923  -14.0676 O   0  0  0  0  0  0  0  0  0  0  0  0
  2  1  1  0
  3  2  1  0
  3  4  1  1
  5  3  1  0
  5  6  1  6
  7  5  1  0
  7  8  2  0
  9  7  1  0
 10  9  1  0
 10 11  1  6
 12 11  1  0
 12 17  2  0
 13 12  1  0
 14 13  2  0
 14 15  1  0
 15 16  2  0
 16 17  1  0
 18 10  1  0
 19 18  2  0
 20 18  1  0
 21 20  1  0
 21 26  1  0
 21 22  1  1
 23 22  1  0
 23 24  1  0
 24 25  2  0
 26 27  1  0
 28 24  1  0
 29 26  2  0
M  END
$$$$
