IFE.pdb
     RDKit          3D

 29 29  0  0  1  0  0  0  0  0999 V2000
   27.4694  -21.2822  -20.1339 C   0  0  0  0  0  0  0  0  0  0  0  0
   27.9634  -21.8858  -18.8664 C   0  0  0  0  0  0  0  0  0  0  0  0
   27.0217  -21.7651  -17.6967 C   0  0  2  0  0  0  0  0  0  0  0  0
   26.6598  -20.3602  -17.3525 C   0  0  0  0  0  0  0  0  0  0  0  0
   27.6889  -22.3988  -16.4953 C   0  0  2  0  0  0  0  0  0  0  0  0
   27.9605  -23.7784  -16.8497 N   0  0  0  0  0  0  0  0  0  0  0  0
   26.8520  -22.3117  -15.2630 C   0  0  0  0  0  0  0  0  0  0  0  0
   25.7786  -22.9600  -15.2056 O   0  0  0  0  0  0  0  0  0  0  0  0
   27.2255  -21.5237  -14.1559 N   0  0  0  0  0  0  0  0  0  0  0  0
   26.5087  -21.3477  -12.9440 C   0  0  1  0  0  0  0  0  0  0  0  0
   27.2982  -20.8064  -11.8111 C   0  0  0  0  0  0  0  0  0  0  0  0
   26.5526  -20.6484  -10.5640 C   0  0  0  0  0  0  0  0  0  0  0  0
   26.1144  -21.7307   -9.8329 C   0  0  0  0  0  0  0  0  0  0  0  0
   25.4047  -21.5647   -8.6457 C   0  0  0  0  0  0  0  0  0  0  0  0
   25.1201  -20.3054   -8.1677 C   0  0  0  0  0  0  0  0  0  0  0  0
   25.5534  -19.2151   -8.8907 C   0  0  0  0  0  0  0  0  0  0  0  0
   26.2638  -19.3942  -10.0790 C   0  0  0  0  0  0  0  0  0  0  0  0
   25.2922  -20.4751  -13.1365 C   0  0  0  0  0  0  0  0  0  0  0  0
   25.3533  -19.2934  -13.5536 O   0  0  0  0  0  0  0  0  0  0  0  0
   23.9879  -20.9544  -12.8511 N   0  0  0  0  0  0  0  0  0  0  0  0
   22.7984  -20.0995  -13.0250 C   0  0  1  0  0  0  0  0  0  0  0  0
   22.1721  -20.3373  -14.3574 C   0  0  0  0  0  0  0  0  0  0  0  0
   20.8409  -19.7150  -14.5774 C   0  0  0  0  0  0  0  0  0  0  0  0
   20.2588  -20.0339  -15.8998 C   0  0  0  0  0  0  0  0  0  0  0  0
   20.7738  -20.8089  -16.7436 O   0  0  0  0  0  0  0  0  0  0  0  0
   21.8425  -20.4939  -11.9637 C   0  0  0  0  0  0  0  0  0  0  0  0
   20.8136  -19.6760  -11.4995 O   0  0  0  0  0  0  0  0  0  0  0  0
   19.0511  -19.4549  -16.2799 O   0  0  0  0  0  0  0  0  0  0  0  0
   21.9321  -21.6247  -11.4247 O   0  0  0  0  0  0  0  0  0  0  0  0
  2  1  1  0
  3  2  1  0
  3  4  1  1
  5  3  1  0
  5  6  1  6
  7  5  1  0
  7  8  2  0
  9  7  1  0
 10  9  1  0
 10 11  1  1
 12 11  1  0
 12 17  2  0
 13 12  1  0
 14 13  2  0
 14 15  1  0
 15 16  2  0
 16 17  1  0
 18 10  1  0
 19 18  2  0
 20 18  1  0
 21 20  1  0
 21 26  1  0
 21 22  1  6
 23 22  1  0
 23 24  1  0
 24 25  2  0
 26 27  1  0
 28 24  1  0
 29 26  2  0
M  END
$$$$
