IFE.pdb
     RDKit          3D

 29 29  0  0  1  0  0  0  0  0999 V2000
   27.9661  -19.1163  -20.3973 C   0  0  0  0  0  0  0  0  0  0  0  0
   28.4714  -20.0066  -19.3172 C   0  0  0  0  0  0  0  0  0  0  0  0
   27.5032  -20.2473  -18.1883 C   0  0  2  0  0  0  0  0  0  0  0  0
   27.0538  -19.0034  -17.4998 C   0  0  0  0  0  0  0  0  0  0  0  0
   28.1845  -21.1400  -17.1738 C   0  0  2  0  0  0  0  0  0  0  0  0
   28.5286  -22.3676  -17.8646 N   0  0  0  0  0  0  0  0  0  0  0  0
   27.3276  -21.4116  -15.9828 C   0  0  0  0  0  0  0  0  0  0  0  0
   26.3122  -22.1382  -16.1126 O   0  0  0  0  0  0  0  0  0  0  0  0
   27.6190  -20.8787  -14.7111 N   0  0  0  0  0  0  0  0  0  0  0  0
   26.8174  -20.9531  -13.5427 C   0  0  1  0  0  0  0  0  0  0  0  0
   27.4882  -20.5456  -12.2842 C   0  0  0  0  0  0  0  0  0  0  0  0
   26.6339  -20.5686  -11.0984 C   0  0  0  0  0  0  0  0  0  0  0  0
   26.2344  -21.7479  -10.5089 C   0  0  0  0  0  0  0  0  0  0  0  0
   25.4199  -21.7544   -9.3789 C   0  0  0  0  0  0  0  0  0  0  0  0
   24.9892  -20.5739   -8.8166 C   0  0  0  0  0  0  0  0  0  0  0  0
   25.3826  -19.3878   -9.3978 C   0  0  0  0  0  0  0  0  0  0  0  0
   26.1990  -19.3942  -10.5302 C   0  0  0  0  0  0  0  0  0  0  0  0
   25.5463  -20.1517  -13.6857 C   0  0  0  0  0  0  0  0  0  0  0  0
   25.5321  -18.9339  -13.9871 O   0  0  0  0  0  0  0  0  0  0  0  0
   24.2736  -20.7448  -13.4838 N   0  0  0  0  0  0  0  0  0  0  0  0
   23.0321  -19.9532  -13.5746 C   0  0  1  0  0  0  0  0  0  0  0  0
   22.4912  -19.9840  -14.9640 C   0  0  0  0  0  0  0  0  0  0  0  0
   21.2012  -19.2796  -15.1819 C   0  0  0  0  0  0  0  0  0  0  0  0
   20.6965  -19.4011  -16.5674 C   0  0  0  0  0  0  0  0  0  0  0  0
   19.5220  -19.7197  -16.8790 O   0  0  0  0  0  0  0  0  0  0  0  0
   22.0587  -20.5977  -12.6621 C   0  0  0  0  0  0  0  0  0  0  0  0
   20.9186  -19.9661  -12.1681 O   0  0  0  0  0  0  0  0  0  0  0  0
   21.5517  -19.1531  -17.6376 O   0  0  0  0  0  0  0  0  0  0  0  0
   22.2368  -21.7833  -12.2877 O   0  0  0  0  0  0  0  0  0  0  0  0
  2  1  1  0
  3  2  1  0
  3  4  1  1
  5  3  1  0
  5  6  1  6
  7  5  1  0
  7  8  2  0
  9  7  1  0
 10  9  1  0
 10 11  1  1
 12 11  1  0
 12 17  2  0
 13 12  1  0
 14 13  2  0
 14 15  1  0
 15 16  2  0
 16 17  1  0
 18 10  1  0
 19 18  2  0
 20 18  1  0
 21 20  1  0
 21 26  1  0
 21 22  1  6
 23 22  1  0
 23 24  1  0
 24 25  2  0
 26 27  1  0
 28 24  1  0
 29 26  2  0
M  END
$$$$
