IFE.pdb
     RDKit          3D

 29 29  0  0  1  0  0  0  0  0999 V2000
   28.9030  -17.7617  -16.5931 C   0  0  0  0  0  0  0  0  0  0  0  0
   29.0767  -18.6011  -15.3766 C   0  0  0  0  0  0  0  0  0  0  0  0
   27.8008  -19.1635  -14.8061 C   0  0  2  0  0  0  0  0  0  0  0  0
   26.8439  -18.1266  -14.3239 C   0  0  0  0  0  0  0  0  0  0  0  0
   28.1668  -20.0593  -13.6425 C   0  0  2  0  0  0  0  0  0  0  0  0
   29.0721  -21.0661  -14.1615 N   0  0  0  0  0  0  0  0  0  0  0  0
   26.9723  -20.6842  -13.0028 C   0  0  0  0  0  0  0  0  0  0  0  0
   26.4872  -21.7287  -13.5022 O   0  0  0  0  0  0  0  0  0  0  0  0
   26.3664  -20.1408  -11.8523 N   0  0  0  0  0  0  0  0  0  0  0  0
   25.1911  -20.5975  -11.2016 C   0  0  1  0  0  0  0  0  0  0  0  0
   25.0325  -20.1590   -9.7936 C   0  0  0  0  0  0  0  0  0  0  0  0
   26.2332  -20.2921   -8.9708 C   0  0  0  0  0  0  0  0  0  0  0  0
   26.5844  -19.3459   -8.0331 C   0  0  0  0  0  0  0  0  0  0  0  0
   27.7320  -19.4861   -7.2559 C   0  0  0  0  0  0  0  0  0  0  0  0
   28.5518  -20.5820   -7.4050 C   0  0  0  0  0  0  0  0  0  0  0  0
   28.2104  -21.5350   -8.3401 C   0  0  0  0  0  0  0  0  0  0  0  0
   27.0579  -21.3834   -9.1131 C   0  0  0  0  0  0  0  0  0  0  0  0
   23.9459  -20.2129  -11.9632 C   0  0  0  0  0  0  0  0  0  0  0  0
   23.8138  -19.1140  -12.5540 O   0  0  0  0  0  0  0  0  0  0  0  0
   22.8360  -21.0915  -12.0543 N   0  0  0  0  0  0  0  0  0  0  0  0
   21.6680  -20.7718  -12.8968 C   0  0  1  0  0  0  0  0  0  0  0  0
   21.6053  -21.6848  -14.0743 C   0  0  0  0  0  0  0  0  0  0  0  0
   21.5716  -23.1399  -13.7755 C   0  0  0  0  0  0  0  0  0  0  0  0
   21.5987  -23.9858  -14.9892 C   0  0  0  0  0  0  0  0  0  0  0  0
   21.6572  -23.5516  -16.1665 O   0  0  0  0  0  0  0  0  0  0  0  0
   20.4712  -20.9902  -12.0509 C   0  0  0  0  0  0  0  0  0  0  0  0
   19.1744  -20.6524  -12.4348 O   0  0  0  0  0  0  0  0  0  0  0  0
   21.5581  -25.3718  -14.8652 O   0  0  0  0  0  0  0  0  0  0  0  0
   20.5909  -21.5077  -10.9128 O   0  0  0  0  0  0  0  0  0  0  0  0
  2  1  1  0
  3  2  1  0
  3  4  1  1
  5  3  1  0
  5  6  1  6
  7  5  1  0
  7  8  2  0
  9  7  1  0
 10  9  1  0
 10 11  1  1
 12 11  1  0
 12 17  2  0
 13 12  1  0
 14 13  2  0
 14 15  1  0
 15 16  2  0
 16 17  1  0
 18 10  1  0
 19 18  2  0
 20 18  1  0
 21 20  1  0
 21 26  1  0
 21 22  1  6
 23 22  1  0
 23 24  1  0
 24 25  2  0
 26 27  1  0
 28 24  1  0
 29 26  2  0
M  END
$$$$
