IFE.pdb
     RDKit          3D

 29 29  0  0  1  0  0  0  0  0999 V2000
   30.6144  -21.4732  -18.1630 C   0  0  0  0  0  0  0  0  0  0  0  0
   29.1297  -21.5581  -18.1063 C   0  0  0  0  0  0  0  0  0  0  0  0
   28.5634  -21.8719  -16.7460 C   0  0  2  0  0  0  0  0  0  0  0  0
   28.2079  -23.3071  -16.5540 C   0  0  0  0  0  0  0  0  0  0  0  0
   27.3152  -21.0371  -16.5581 C   0  0  2  0  0  0  0  0  0  0  0  0
   27.7297  -19.6490  -16.6202 N   0  0  0  0  0  0  0  0  0  0  0  0
   26.6143  -21.3354  -15.2749 C   0  0  0  0  0  0  0  0  0  0  0  0
   26.0857  -22.4626  -15.1144 O   0  0  0  0  0  0  0  0  0  0  0  0
   26.5244  -20.3921  -14.2318 N   0  0  0  0  0  0  0  0  0  0  0  0
   25.8277  -20.5315  -13.0035 C   0  0  1  0  0  0  0  0  0  0  0  0
   26.4534  -19.8607  -11.8379 C   0  0  0  0  0  0  0  0  0  0  0  0
   27.7649  -20.3839  -11.4604 C   0  0  0  0  0  0  0  0  0  0  0  0
   28.8980  -20.1146  -12.1963 C   0  0  0  0  0  0  0  0  0  0  0  0
   30.1416  -20.6202  -11.8243 C   0  0  0  0  0  0  0  0  0  0  0  0
   30.2727  -21.4081  -10.7030 C   0  0  0  0  0  0  0  0  0  0  0  0
   29.1460  -21.6841   -9.9590 C   0  0  0  0  0  0  0  0  0  0  0  0
   27.9052  -21.1718  -10.3420 C   0  0  0  0  0  0  0  0  0  0  0  0
   24.3990  -20.0575  -13.1151 C   0  0  0  0  0  0  0  0  0  0  0  0
   24.0784  -18.9547  -13.6202 O   0  0  0  0  0  0  0  0  0  0  0  0
   23.3200  -20.8502  -12.6462 N   0  0  0  0  0  0  0  0  0  0  0  0
   21.9252  -20.5525  -13.0233 C   0  0  1  0  0  0  0  0  0  0  0  0
   21.4253  -21.5501  -14.0127 C   0  0  0  0  0  0  0  0  0  0  0  0
   20.0277  -21.3653  -14.4822 C   0  0  0  0  0  0  0  0  0  0  0  0
   19.6186  -22.3564  -15.5017 C   0  0  0  0  0  0  0  0  0  0  0  0
   19.3998  -23.5724  -15.2747 O   0  0  0  0  0  0  0  0  0  0  0  0
   21.1251  -20.6605  -11.7808 C   0  0  0  0  0  0  0  0  0  0  0  0
   20.0325  -19.8471  -11.4853 O   0  0  0  0  0  0  0  0  0  0  0  0
   19.4512  -21.9565  -16.8247 O   0  0  0  0  0  0  0  0  0  0  0  0
   21.4179  -21.5239  -10.9169 O   0  0  0  0  0  0  0  0  0  0  0  0
  2  1  1  0
  3  2  1  0
  3  4  1  6
  5  3  1  0
  5  6  1  1
  7  5  1  0
  7  8  2  0
  9  7  1  0
 10  9  1  0
 10 11  1  1
 12 11  1  0
 12 17  2  0
 13 12  1  0
 14 13  2  0
 14 15  1  0
 15 16  2  0
 16 17  1  0
 18 10  1  0
 19 18  2  0
 20 18  1  0
 21 20  1  0
 21 26  1  0
 21 22  1  6
 23 22  1  0
 23 24  1  0
 24 25  2  0
 26 27  1  0
 28 24  1  0
 29 26  2  0
M  END
$$$$
