NII.pdb
     RDKit          3D

 25 24  0  0  1  0  0  0  0  0999 V2000
   16.9150  -11.2387  -19.5273 N   0  0  0  0  0  0  0  0  0  0  0  0
   16.9197   -9.8656  -19.2035 C   0  0  0  0  0  0  0  0  0  0  0  0
   16.3999   -8.9810  -19.9549 O   0  0  0  0  0  0  0  0  0  0  0  0
   17.5381   -9.3964  -17.9595 C   0  0  0  0  0  0  0  0  0  0  0  0
   18.1953  -10.5046  -17.1738 C   0  0  2  0  0  0  0  0  0  0  0  0
   17.1822  -11.4308  -16.6865 N   0  0  0  0  0  0  0  0  0  0  0  0
   19.0534  -10.0064  -16.0856 C   0  0  0  0  0  0  0  0  0  0  0  0
   18.6598   -9.7348  -14.9247 O   0  0  0  0  0  0  0  0  0  0  0  0
   23.8171  -12.2268  -15.5821 C   0  0  0  0  0  0  0  0  0  0  0  0
   22.4852  -11.5384  -15.2874 C   0  0  0  0  0  0  0  0  0  0  0  0
   22.6809  -10.0795  -15.6506 C   0  0  2  0  0  0  0  0  0  0  0  0
   23.7087   -9.5128  -14.6909 C   0  0  0  0  0  0  0  0  0  0  0  0
   21.3797   -9.2937  -15.4071 C   0  0  2  0  0  0  0  0  0  0  0  0
   20.4354   -9.8140  -16.3558 N   0  0  0  0  0  0  0  0  0  0  0  0
   21.6363   -7.8634  -15.5358 C   0  0  0  0  0  0  0  0  0  0  0  0
   22.0973   -7.4201  -16.6160 O   0  0  0  0  0  0  0  0  0  0  0  0
   19.1737   -2.6011  -15.4111 C   0  0  0  0  0  0  0  0  0  0  0  0
   20.4833   -3.2625  -15.0101 C   0  0  0  0  0  0  0  0  0  0  0  0
   20.3287   -4.7609  -14.9732 C   0  0  2  0  0  0  0  0  0  0  0  0
   19.3017   -5.0735  -13.8835 C   0  0  0  0  0  0  0  0  0  0  0  0
   21.6269   -5.4585  -14.7172 C   0  0  2  0  0  0  0  0  0  0  0  0
   21.4023   -6.9066  -14.5136 N   0  0  0  0  0  0  0  0  0  0  0  0
   22.3563   -5.0085  -13.5193 C   0  0  0  0  0  0  0  0  0  0  0  0
   22.4558   -5.7804  -12.3716 O   0  0  0  0  0  0  0  0  0  0  0  0
   22.9319   -3.8952  -13.4710 O   0  0  0  0  0  0  0  0  0  0  0  0
  1  2  1  0
  2  3  2  0
  4  5  1  0
  4  2  1  0
  5  6  1  1
  7  5  1  0
  7  8  2  0
 10 11  1  0
 10  9  1  0
 11 13  1  0
 11 12  1  1
 13 14  1  6
 14  7  1  0
 15 22  1  0
 15 13  1  0
 16 15  2  0
 17 18  1  0
 18 19  1  0
 19 21  1  0
 19 20  1  1
 21 22  1  1
 21 23  1  0
 23 24  1  0
 25 23  2  0
M  END
$$$$
