NII.pdb
     RDKit          3D

 25 24  0  0  1  0  0  0  0  0999 V2000
   29.7762  -19.0101  -15.2511 N   0  0  0  0  0  0  0  0  0  0  0  0
   28.4244  -18.6740  -15.0278 C   0  0  0  0  0  0  0  0  0  0  0  0
   27.8043  -17.8169  -15.7336 O   0  0  0  0  0  0  0  0  0  0  0  0
   27.6664  -19.3153  -13.9488 C   0  0  0  0  0  0  0  0  0  0  0  0
   28.5219  -20.1944  -13.0698 C   0  0  2  0  0  0  0  0  0  0  0  0
   29.2007  -21.1935  -13.8838 N   0  0  0  0  0  0  0  0  0  0  0  0
   27.7682  -20.8071  -11.9629 C   0  0  0  0  0  0  0  0  0  0  0  0
   28.1776  -21.7574  -11.2518 O   0  0  0  0  0  0  0  0  0  0  0  0
   28.4890  -20.0574   -7.9360 C   0  0  0  0  0  0  0  0  0  0  0  0
   27.8182  -20.7282   -9.1339 C   0  0  0  0  0  0  0  0  0  0  0  0
   26.4858  -20.0272   -9.3117 C   0  0  2  0  0  0  0  0  0  0  0  0
   25.6599  -20.3135   -8.0730 C   0  0  0  0  0  0  0  0  0  0  0  0
   25.7182  -20.6411  -10.4967 C   0  0  2  0  0  0  0  0  0  0  0  0
   26.4770  -20.2933  -11.6653 N   0  0  0  0  0  0  0  0  0  0  0  0
   24.3449  -20.1491  -10.5023 C   0  0  0  0  0  0  0  0  0  0  0  0
   24.1283  -18.9389  -10.2487 O   0  0  0  0  0  0  0  0  0  0  0  0
   22.3956  -19.8576  -15.5156 C   0  0  0  0  0  0  0  0  0  0  0  0
   21.7440  -19.9943  -14.1480 C   0  0  0  0  0  0  0  0  0  0  0  0
   22.7493  -20.4638  -13.1285 C   0  0  2  0  0  0  0  0  0  0  0  0
   23.2519  -21.8300  -13.5986 C   0  0  0  0  0  0  0  0  0  0  0  0
   22.1680  -20.5391  -11.7524 C   0  0  2  0  0  0  0  0  0  0  0  0
   23.2033  -20.9467  -10.7773 N   0  0  0  0  0  0  0  0  0  0  0  0
   21.0748  -21.5119  -11.5845 C   0  0  0  0  0  0  0  0  0  0  0  0
   19.7376  -21.1537  -11.6651 O   0  0  0  0  0  0  0  0  0  0  0  0
   21.2944  -22.7258  -11.3583 O   0  0  0  0  0  0  0  0  0  0  0  0
  1  2  1  0
  2  3  2  0
  4  5  1  0
  4  2  1  0
  5  6  1  6
  7  5  1  0
  7  8  2  0
 10 11  1  0
 10  9  1  0
 11 13  1  0
 11 12  1  1
 13 14  1  6
 14  7  1  0
 15 22  1  0
 15 13  1  0
 16 15  2  0
 17 18  1  0
 18 19  1  0
 19 21  1  0
 19 20  1  6
 21 22  1  1
 21 23  1  0
 23 24  1  0
 25 23  2  0
M  END
$$$$
