NII.pdb
     RDKit          3D

 25 24  0  0  1  0  0  0  0  0999 V2000
   20.7927  -17.0222  -17.6827 N   0  0  0  0  0  0  0  0  0  0  0  0
   20.6169  -17.5146  -16.3724 C   0  0  0  0  0  0  0  0  0  0  0  0
   19.6669  -17.1340  -15.6175 O   0  0  0  0  0  0  0  0  0  0  0  0
   21.5443  -18.5066  -15.8194 C   0  0  0  0  0  0  0  0  0  0  0  0
   22.5979  -18.9432  -16.8077 C   0  0  2  0  0  0  0  0  0  0  0  0
   21.9814  -19.7214  -17.8735 N   0  0  0  0  0  0  0  0  0  0  0  0
   23.7146  -19.6655  -16.1753 C   0  0  0  0  0  0  0  0  0  0  0  0
   23.6573  -20.8418  -15.7402 O   0  0  0  0  0  0  0  0  0  0  0  0
   28.7544  -18.1234  -17.6779 C   0  0  0  0  0  0  0  0  0  0  0  0
   27.5855  -19.0207  -17.2737 C   0  0  0  0  0  0  0  0  0  0  0  0
   27.2991  -18.7020  -15.8195 C   0  0  2  0  0  0  0  0  0  0  0  0
   28.4916  -19.1778  -15.0131 C   0  0  0  0  0  0  0  0  0  0  0  0
   26.0891  -19.5165  -15.3270 C   0  0  2  0  0  0  0  0  0  0  0  0
   24.9587  -18.9918  -16.0408 N   0  0  0  0  0  0  0  0  0  0  0  0
   25.9844  -19.4149  -13.8755 C   0  0  0  0  0  0  0  0  0  0  0  0
   25.8725  -18.2809  -13.3489 O   0  0  0  0  0  0  0  0  0  0  0  0
   22.2076  -20.9230  -10.9956 C   0  0  0  0  0  0  0  0  0  0  0  0
   23.4698  -20.2347  -11.4923 C   0  0  0  0  0  0  0  0  0  0  0  0
   24.6954  -20.9326  -10.9620 C   0  0  2  0  0  0  0  0  0  0  0  0
   24.6483  -20.8135   -9.4376 C   0  0  0  0  0  0  0  0  0  0  0  0
   25.9598  -20.3570  -11.5164 C   0  0  2  0  0  0  0  0  0  0  0  0
   25.9998  -20.5211  -12.9862 N   0  0  0  0  0  0  0  0  0  0  0  0
   27.2015  -20.9779  -11.0243 C   0  0  0  0  0  0  0  0  0  0  0  0
   27.8554  -20.5378   -9.8834 O   0  0  0  0  0  0  0  0  0  0  0  0
   27.7393  -21.9457  -11.6136 O   0  0  0  0  0  0  0  0  0  0  0  0
  1  2  1  0
  2  3  2  0
  4  5  1  0
  4  2  1  0
  5  6  1  6
  7  5  1  0
  7  8  2  0
 10 11  1  0
 10  9  1  0
 11 13  1  0
 11 12  1  1
 13 14  1  6
 14  7  1  0
 15 22  1  0
 15 13  1  0
 16 15  2  0
 17 18  1  0
 18 19  1  0
 19 21  1  0
 19 20  1  1
 21 22  1  6
 21 23  1  0
 23 24  1  0
 25 23  2  0
M  END
$$$$
