NII.pdb
     RDKit          3D

 25 24  0  0  1  0  0  0  0  0999 V2000
   29.3192  -19.7304  -16.5623 N   0  0  0  0  0  0  0  0  0  0  0  0
   27.9995  -19.3827  -16.9194 C   0  0  0  0  0  0  0  0  0  0  0  0
   27.7351  -18.5091  -17.8050 O   0  0  0  0  0  0  0  0  0  0  0  0
   26.8568  -20.0308  -16.2680 C   0  0  0  0  0  0  0  0  0  0  0  0
   27.2675  -21.1002  -15.2856 C   0  0  2  0  0  0  0  0  0  0  0  0
   27.9114  -22.1984  -15.9934 N   0  0  0  0  0  0  0  0  0  0  0  0
   26.1520  -21.5671  -14.4452 C   0  0  0  0  0  0  0  0  0  0  0  0
   25.3517  -22.4838  -14.7544 O   0  0  0  0  0  0  0  0  0  0  0  0
   26.7163  -20.4447   -9.1237 C   0  0  0  0  0  0  0  0  0  0  0  0
   26.3612  -21.2261  -10.3879 C   0  0  0  0  0  0  0  0  0  0  0  0
   25.1639  -20.5191  -10.9920 C   0  0  2  0  0  0  0  0  0  0  0  0
   23.9832  -20.7749  -10.0760 C   0  0  0  0  0  0  0  0  0  0  0  0
   24.8050  -21.1507  -12.3494 C   0  0  2  0  0  0  0  0  0  0  0  0
   25.9546  -20.9415  -13.1845 N   0  0  0  0  0  0  0  0  0  0  0  0
   23.5743  -20.5564  -12.8595 C   0  0  0  0  0  0  0  0  0  0  0  0
   23.4806  -19.3063  -12.9246 O   0  0  0  0  0  0  0  0  0  0  0  0
   21.5392  -21.7264  -17.4713 C   0  0  0  0  0  0  0  0  0  0  0  0
   21.9086  -21.0121  -16.1803 C   0  0  0  0  0  0  0  0  0  0  0  0
   20.8387  -21.2162  -15.1390 C   0  0  2  0  0  0  0  0  0  0  0  0
   19.5627  -20.5707  -15.6825 C   0  0  0  0  0  0  0  0  0  0  0  0
   21.2210  -20.6392  -13.8130 C   0  0  2  0  0  0  0  0  0  0  0  0
   22.4441  -21.2942  -13.2993 N   0  0  0  0  0  0  0  0  0  0  0  0
   20.2191  -20.8001  -12.7454 C   0  0  0  0  0  0  0  0  0  0  0  0
   19.3786  -19.7710  -12.3487 O   0  0  0  0  0  0  0  0  0  0  0  0
   20.0695  -21.8841  -12.1324 O   0  0  0  0  0  0  0  0  0  0  0  0
  1  2  1  0
  2  3  2  0
  4  5  1  0
  4  2  1  0
  5  6  1  6
  7  5  1  0
  7  8  2  0
 10 11  1  0
 10  9  1  0
 11 13  1  0
 11 12  1  1
 13 14  1  6
 14  7  1  0
 15 22  1  0
 15 13  1  0
 16 15  2  0
 17 18  1  0
 18 19  1  0
 19 21  1  0
 19 20  1  6
 21 22  1  1
 21 23  1  0
 23 24  1  0
 25 23  2  0
M  END
$$$$
