NII.pdb
     RDKit          3D

 25 24  0  0  1  0  0  0  0  0999 V2000
   16.5817  -20.4785    3.6367 N   0  0  0  0  0  0  0  0  0  0  0  0
   16.8816  -19.1400    3.3071 C   0  0  0  0  0  0  0  0  0  0  0  0
   16.8808  -18.7108    2.1100 O   0  0  0  0  0  0  0  0  0  0  0  0
   17.2130  -18.1713    4.3567 C   0  0  0  0  0  0  0  0  0  0  0  0
   17.0516  -18.7323    5.7484 C   0  0  2  0  0  0  0  0  0  0  0  0
   15.6504  -19.0451    5.9941 N   0  0  0  0  0  0  0  0  0  0  0  0
   17.6094  -17.8536    6.7902 C   0  0  0  0  0  0  0  0  0  0  0  0
   16.9430  -17.0492    7.4868 O   0  0  0  0  0  0  0  0  0  0  0  0
   21.3324  -20.1013    9.7615 C   0  0  0  0  0  0  0  0  0  0  0  0
   20.1647  -19.2400    9.2825 C   0  0  0  0  0  0  0  0  0  0  0  0
   20.7864  -18.0397    8.5961 C   0  0  2  0  0  0  0  0  0  0  0  0
   21.5045  -17.2360    9.6623 C   0  0  0  0  0  0  0  0  0  0  0  0
   19.6857  -17.1243    8.0299 C   0  0  2  0  0  0  0  0  0  0  0  0
   19.0078  -17.9100    7.0372 N   0  0  0  0  0  0  0  0  0  0  0  0
   20.2817  -15.8943    7.5201 C   0  0  0  0  0  0  0  0  0  0  0  0
   21.2530  -15.9683    6.7284 O   0  0  0  0  0  0  0  0  0  0  0  0
   17.9661  -12.5128    4.5743 C   0  0  0  0  0  0  0  0  0  0  0  0
   19.0127  -13.3293    5.3168 C   0  0  0  0  0  0  0  0  0  0  0  0
   19.5242  -12.5696    6.5133 C   0  0  2  0  0  0  0  0  0  0  0  0
   20.1637  -11.2853    5.9823 C   0  0  0  0  0  0  0  0  0  0  0  0
   20.4957  -13.3707    7.3205 C   0  0  2  0  0  0  0  0  0  0  0  0
   19.8430  -14.5863    7.8546 N   0  0  0  0  0  0  0  0  0  0  0  0
   21.0527  -12.6823    8.4976 C   0  0  0  0  0  0  0  0  0  0  0  0
   20.4604  -12.7463    9.7497 O   0  0  0  0  0  0  0  0  0  0  0  0
   22.1005  -11.9961    8.4319 O   0  0  0  0  0  0  0  0  0  0  0  0
  1  2  1  0
  2  3  2  0
  4  5  1  0
  4  2  1  0
  5  6  1  1
  7  5  1  0
  7  8  2  0
 10 11  1  0
 10  9  1  0
 11 13  1  0
 11 12  1  1
 13 14  1  6
 14  7  1  0
 15 22  1  0
 15 13  1  0
 16 15  2  0
 17 18  1  0
 18 19  1  0
 19 21  1  0
 19 20  1  6
 21 22  1  1
 21 23  1  0
 23 24  1  0
 25 23  2  0
M  END
$$$$
