NII.pdb
     RDKit          3D

 25 24  0  0  1  0  0  0  0  0999 V2000
   29.5915  -22.9449  -16.2406 N   0  0  0  0  0  0  0  0  0  0  0  0
   29.2932  -21.5986  -16.5384 C   0  0  0  0  0  0  0  0  0  0  0  0
   29.5446  -21.0734  -17.6689 O   0  0  0  0  0  0  0  0  0  0  0  0
   28.6675  -20.7348  -15.5322 C   0  0  0  0  0  0  0  0  0  0  0  0
   27.2958  -21.2093  -15.1193 C   0  0  2  0  0  0  0  0  0  0  0  0
   26.4102  -21.2223  -16.2756 N   0  0  0  0  0  0  0  0  0  0  0  0
   26.7309  -20.4322  -14.0032 C   0  0  0  0  0  0  0  0  0  0  0  0
   26.8121  -19.1854  -13.8798 O   0  0  0  0  0  0  0  0  0  0  0  0
   21.9532  -20.3017  -13.6961 C   0  0  0  0  0  0  0  0  0  0  0  0
   23.4489  -20.0495  -13.5114 C   0  0  0  0  0  0  0  0  0  0  0  0
   23.8308  -20.7389  -12.2163 C   0  0  2  0  0  0  0  0  0  0  0  0
   23.0520  -20.0652  -11.1035 C   0  0  0  0  0  0  0  0  0  0  0  0
   25.3205  -20.5013  -11.9090 C   0  0  2  0  0  0  0  0  0  0  0  0
   26.0377  -21.1341  -12.9803 N   0  0  0  0  0  0  0  0  0  0  0  0
   25.6389  -21.0194  -10.5830 C   0  0  0  0  0  0  0  0  0  0  0  0
   25.6052  -22.2588  -10.3868 O   0  0  0  0  0  0  0  0  0  0  0  0
   29.1184  -18.5921   -7.0067 C   0  0  0  0  0  0  0  0  0  0  0  0
   28.3876  -19.6704   -7.7922 C   0  0  0  0  0  0  0  0  0  0  0  0
   26.9871  -19.8496   -7.2660 C   0  0  2  0  0  0  0  0  0  0  0  0
   27.1155  -20.3658   -5.8317 C   0  0  0  0  0  0  0  0  0  0  0  0
   26.1787  -20.7813   -8.1120 C   0  0  2  0  0  0  0  0  0  0  0  0
   25.9922  -20.2167   -9.4667 N   0  0  0  0  0  0  0  0  0  0  0  0
   24.8189  -21.0583   -7.6183 C   0  0  0  0  0  0  0  0  0  0  0  0
   24.5234  -22.1513   -6.8177 O   0  0  0  0  0  0  0  0  0  0  0  0
   23.8470  -20.3159   -7.8962 O   0  0  0  0  0  0  0  0  0  0  0  0
  1  2  1  0
  2  3  2  0
  4  5  1  0
  4  2  1  0
  5  6  1  6
  7  5  1  0
  7  8  2  0
 10 11  1  0
 10  9  1  0
 11 13  1  0
 11 12  1  1
 13 14  1  6
 14  7  1  0
 15 22  1  0
 15 13  1  0
 16 15  2  0
 17 18  1  0
 18 19  1  0
 19 21  1  0
 19 20  1  1
 21 22  1  6
 21 23  1  0
 23 24  1  0
 25 23  2  0
M  END
$$$$
