NII.pdb
     RDKit          3D

 25 24  0  0  1  0  0  0  0  0999 V2000
   20.9371  -22.0408  -18.2972 N   0  0  0  0  0  0  0  0  0  0  0  0
   20.8159  -21.7885  -16.9146 C   0  0  0  0  0  0  0  0  0  0  0  0
   19.8089  -21.1981  -16.4099 O   0  0  0  0  0  0  0  0  0  0  0  0
   21.8707  -22.2074  -15.9862 C   0  0  0  0  0  0  0  0  0  0  0  0
   22.6430  -21.0462  -15.4093 C   0  0  2  0  0  0  0  0  0  0  0  0
   23.2579  -20.2805  -16.4850 N   0  0  0  0  0  0  0  0  0  0  0  0
   23.6282  -21.4586  -14.3955 C   0  0  0  0  0  0  0  0  0  0  0  0
   23.4419  -22.3490  -13.5302 O   0  0  0  0  0  0  0  0  0  0  0  0
   28.7739  -21.1713  -15.9475 C   0  0  0  0  0  0  0  0  0  0  0  0
   27.4962  -21.6601  -15.2668 C   0  0  0  0  0  0  0  0  0  0  0  0
   27.2428  -20.7022  -14.1193 C   0  0  2  0  0  0  0  0  0  0  0  0
   28.3434  -20.9227  -13.1001 C   0  0  0  0  0  0  0  0  0  0  0  0
   25.9210  -21.0576  -13.4146 C   0  0  2  0  0  0  0  0  0  0  0  0
   24.8914  -20.8074  -14.3840 N   0  0  0  0  0  0  0  0  0  0  0  0
   25.7930  -20.2807  -12.1865 C   0  0  0  0  0  0  0  0  0  0  0  0
   25.6549  -19.0354  -12.2627 O   0  0  0  0  0  0  0  0  0  0  0  0
   22.9423  -21.6014   -7.5819 C   0  0  0  0  0  0  0  0  0  0  0  0
   24.2444  -21.5203   -8.3639 C   0  0  0  0  0  0  0  0  0  0  0  0
   24.3911  -20.1652   -9.0063 C   0  0  2  0  0  0  0  0  0  0  0  0
   23.2483  -20.0266  -10.0138 C   0  0  0  0  0  0  0  0  0  0  0  0
   25.7234  -19.9908   -9.6636 C   0  0  2  0  0  0  0  0  0  0  0  0
   25.8127  -20.8310  -10.8781 N   0  0  0  0  0  0  0  0  0  0  0  0
   26.8842  -20.3744   -8.8421 C   0  0  0  0  0  0  0  0  0  0  0  0
   27.7406  -21.4064   -9.1951 O   0  0  0  0  0  0  0  0  0  0  0  0
   27.1643  -19.7848   -7.7712 O   0  0  0  0  0  0  0  0  0  0  0  0
  1  2  1  0
  2  3  2  0
  4  5  1  0
  4  2  1  0
  5  6  1  6
  7  5  1  0
  7  8  2  0
 10 11  1  0
 10  9  1  0
 11 13  1  0
 11 12  1  1
 13 14  1  6
 14  7  1  0
 15 22  1  0
 15 13  1  0
 16 15  2  0
 17 18  1  0
 18 19  1  0
 19 21  1  0
 19 20  1  6
 21 22  1  6
 21 23  1  0
 23 24  1  0
 25 23  2  0
M  END
$$$$
