NII.pdb
     RDKit          3D

 25 24  0  0  1  0  0  0  0  0999 V2000
   26.9259  -25.2401  -15.5125 N   0  0  0  0  0  0  0  0  0  0  0  0
   25.6251  -25.0127  -16.0089 C   0  0  0  0  0  0  0  0  0  0  0  0
   25.0883  -25.7525  -16.8930 O   0  0  0  0  0  0  0  0  0  0  0  0
   24.8249  -23.8888  -15.5122 C   0  0  0  0  0  0  0  0  0  0  0  0
   25.5633  -23.0384  -14.5077 C   0  0  2  0  0  0  0  0  0  0  0  0
   25.6980  -23.7642  -13.2520 N   0  0  0  0  0  0  0  0  0  0  0  0
   24.9486  -21.7143  -14.3139 C   0  0  0  0  0  0  0  0  0  0  0  0
   24.1084  -21.4334  -13.4242 O   0  0  0  0  0  0  0  0  0  0  0  0
   28.1671  -17.7219  -15.8596 C   0  0  0  0  0  0  0  0  0  0  0  0
   27.1704  -18.5819  -15.0839 C   0  0  0  0  0  0  0  0  0  0  0  0
   25.8444  -18.4349  -15.8040 C   0  0  2  0  0  0  0  0  0  0  0  0
   25.3791  -17.0066  -15.5990 C   0  0  0  0  0  0  0  0  0  0  0  0
   24.7824  -19.3358  -15.1477 C   0  0  2  0  0  0  0  0  0  0  0  0
   25.3263  -20.6642  -15.1939 N   0  0  0  0  0  0  0  0  0  0  0  0
   23.5088  -19.1825  -15.8422 C   0  0  0  0  0  0  0  0  0  0  0  0
   23.4673  -19.3468  -17.0860 O   0  0  0  0  0  0  0  0  0  0  0  0
   19.5541  -22.2251  -15.0679 C   0  0  0  0  0  0  0  0  0  0  0  0
   20.5131  -21.2203  -15.6879 C   0  0  0  0  0  0  0  0  0  0  0  0
   20.0439  -19.8123  -15.4274 C   0  0  2  0  0  0  0  0  0  0  0  0
   18.6673  -19.6763  -16.0806 C   0  0  0  0  0  0  0  0  0  0  0  0
   21.0012  -18.7898  -15.9519 C   0  0  2  0  0  0  0  0  0  0  0  0
   22.2804  -18.8536  -15.2113 N   0  0  0  0  0  0  0  0  0  0  0  0
   20.5547  -17.3913  -15.8321 C   0  0  0  0  0  0  0  0  0  0  0  0
   19.9131  -16.7213  -16.8627 O   0  0  0  0  0  0  0  0  0  0  0  0
   20.7310  -16.7250  -14.7842 O   0  0  0  0  0  0  0  0  0  0  0  0
  1  2  1  0
  2  3  2  0
  4  5  1  0
  4  2  1  0
  5  6  1  1
  7  5  1  0
  7  8  2  0
 10 11  1  0
 10  9  1  0
 11 13  1  0
 11 12  1  1
 13 14  1  6
 14  7  1  0
 15 22  1  0
 15 13  1  0
 16 15  2  0
 17 18  1  0
 18 19  1  0
 19 21  1  0
 19 20  1  6
 21 22  1  1
 21 23  1  0
 23 24  1  0
 25 23  2  0
M  END
$$$$
