NII.pdb
     RDKit          3D

 25 24  0  0  1  0  0  0  0  0999 V2000
   20.7507  -18.5414  -14.8219 N   0  0  0  0  0  0  0  0  0  0  0  0
   20.9489  -18.7385  -13.4392 C   0  0  0  0  0  0  0  0  0  0  0  0
   20.1825  -18.2365  -12.5571 O   0  0  0  0  0  0  0  0  0  0  0  0
   22.0716  -19.5486  -12.9561 C   0  0  0  0  0  0  0  0  0  0  0  0
   23.0511  -19.9075  -14.0466 C   0  0  2  0  0  0  0  0  0  0  0  0
   22.3300  -20.3804  -15.2205 N   0  0  0  0  0  0  0  0  0  0  0  0
   24.0743  -20.8704  -13.6055 C   0  0  0  0  0  0  0  0  0  0  0  0
   23.9659  -22.1193  -13.6751 O   0  0  0  0  0  0  0  0  0  0  0  0
   30.0781  -20.4646  -13.0085 C   0  0  0  0  0  0  0  0  0  0  0  0
   28.8577  -21.2985  -12.6212 C   0  0  0  0  0  0  0  0  0  0  0  0
   27.6480  -20.4808  -13.0290 C   0  0  2  0  0  0  0  0  0  0  0  0
   27.7182  -19.1688  -12.2725 C   0  0  0  0  0  0  0  0  0  0  0  0
   26.3562  -21.1796  -12.5675 C   0  0  2  0  0  0  0  0  0  0  0  0
   25.2826  -20.3611  -13.0573 N   0  0  0  0  0  0  0  0  0  0  0  0
   26.3753  -21.3431  -11.1180 C   0  0  0  0  0  0  0  0  0  0  0  0
   27.1728  -22.1665  -10.6063 O   0  0  0  0  0  0  0  0  0  0  0  0
   28.0373  -18.9551   -7.1034 C   0  0  0  0  0  0  0  0  0  0  0  0
   27.4595  -20.0540   -7.9822 C   0  0  0  0  0  0  0  0  0  0  0  0
   25.9573  -20.0856   -7.8692 C   0  0  2  0  0  0  0  0  0  0  0  0
   25.6297  -20.4300   -6.4151 C   0  0  0  0  0  0  0  0  0  0  0  0
   25.3382  -21.0646   -8.8156 C   0  0  2  0  0  0  0  0  0  0  0  0
   25.5444  -20.6298  -10.2147 N   0  0  0  0  0  0  0  0  0  0  0  0
   23.8824  -21.2390   -8.6758 C   0  0  0  0  0  0  0  0  0  0  0  0
   23.3178  -22.0600   -7.7113 O   0  0  0  0  0  0  0  0  0  0  0  0
   23.0675  -20.6505   -9.4259 O   0  0  0  0  0  0  0  0  0  0  0  0
  1  2  1  0
  2  3  2  0
  4  5  1  0
  4  2  1  0
  5  6  1  6
  7  5  1  0
  7  8  2  0
 10 11  1  0
 10  9  1  0
 11 13  1  0
 11 12  1  1
 13 14  1  1
 14  7  1  0
 15 22  1  0
 15 13  1  0
 16 15  2  0
 17 18  1  0
 18 19  1  0
 19 21  1  0
 19 20  1  1
 21 22  1  6
 21 23  1  0
 23 24  1  0
 25 23  2  0
M  END
$$$$
