NII.pdb
     RDKit          3D

 25 24  0  0  1  0  0  0  0  0999 V2000
   15.4645  -22.2598   -0.6437 N   0  0  0  0  0  0  0  0  0  0  0  0
   14.3087  -22.3845    0.1555 C   0  0  0  0  0  0  0  0  0  0  0  0
   13.3110  -23.0952   -0.1861 O   0  0  0  0  0  0  0  0  0  0  0  0
   14.2124  -21.6832    1.4396 C   0  0  0  0  0  0  0  0  0  0  0  0
   15.4138  -20.8171    1.7293 C   0  0  2  0  0  0  0  0  0  0  0  0
   16.5972  -21.6520    1.8839 N   0  0  0  0  0  0  0  0  0  0  0  0
   15.2147  -19.9266    2.8852 C   0  0  0  0  0  0  0  0  0  0  0  0
   14.2832  -19.0926    3.0000 O   0  0  0  0  0  0  0  0  0  0  0  0
   15.9181  -22.3952    7.0653 C   0  0  0  0  0  0  0  0  0  0  0  0
   15.2821  -21.0921    6.5833 C   0  0  0  0  0  0  0  0  0  0  0  0
   16.4326  -20.1441    6.3073 C   0  0  2  0  0  0  0  0  0  0  0  0
   16.5973  -19.2699    7.5351 C   0  0  0  0  0  0  0  0  0  0  0  0
   16.0734  -19.1989    5.1464 C   0  0  2  0  0  0  0  0  0  0  0  0
   16.1401  -20.0068    3.9609 N   0  0  0  0  0  0  0  0  0  0  0  0
   16.9769  -18.0536    5.1459 C   0  0  0  0  0  0  0  0  0  0  0  0
   18.2051  -18.2442    4.9697 O   0  0  0  0  0  0  0  0  0  0  0  0
   17.7438  -14.5511    1.7288 C   0  0  0  0  0  0  0  0  0  0  0  0
   17.9068  -15.4438    2.9494 C   0  0  0  0  0  0  0  0  0  0  0  0
   17.4418  -14.7295    4.1920 C   0  0  2  0  0  0  0  0  0  0  0  0
   18.2998  -13.4702    4.3264 C   0  0  0  0  0  0  0  0  0  0  0  0
   17.5402  -15.5906    5.4111 C   0  0  2  0  0  0  0  0  0  0  0  0
   16.5715  -16.7062    5.3337 N   0  0  0  0  0  0  0  0  0  0  0  0
   17.2469  -14.9119    6.6850 C   0  0  0  0  0  0  0  0  0  0  0  0
   18.2223  -14.2641    7.4279 O   0  0  0  0  0  0  0  0  0  0  0  0
   16.0911  -14.8820    7.1712 O   0  0  0  0  0  0  0  0  0  0  0  0
  1  2  1  0
  2  3  2  0
  4  5  1  0
  4  2  1  0
  5  6  1  1
  7  5  1  0
  7  8  2  0
 10 11  1  0
 10  9  1  0
 11 13  1  0
 11 12  1  1
 13 14  1  6
 14  7  1  0
 15 22  1  0
 15 13  1  0
 16 15  2  0
 17 18  1  0
 18 19  1  0
 19 21  1  0
 19 20  1  1
 21 22  1  6
 21 23  1  0
 23 24  1  0
 25 23  2  0
M  END
$$$$
