NII.pdb
     RDKit          3D

 25 24  0  0  1  0  0  0  0  0999 V2000
   22.2694  -24.2169  -13.0023 N   0  0  0  0  0  0  0  0  0  0  0  0
   21.3776  -23.1327  -12.8631 C   0  0  0  0  0  0  0  0  0  0  0  0
   20.1205  -23.2541  -13.0117 O   0  0  0  0  0  0  0  0  0  0  0  0
   21.8784  -21.7945  -12.5339 C   0  0  0  0  0  0  0  0  0  0  0  0
   23.3790  -21.7484  -12.3805 C   0  0  2  0  0  0  0  0  0  0  0  0
   23.7433  -22.0578  -11.0046 N   0  0  0  0  0  0  0  0  0  0  0  0
   23.9635  -20.4737  -12.8303 C   0  0  0  0  0  0  0  0  0  0  0  0
   23.5664  -19.3355  -12.4794 O   0  0  0  0  0  0  0  0  0  0  0  0
   29.1333  -20.4734  -12.7005 C   0  0  0  0  0  0  0  0  0  0  0  0
   27.6616  -20.0642  -12.6636 C   0  0  0  0  0  0  0  0  0  0  0  0
   27.2765  -19.7639  -14.0988 C   0  0  2  0  0  0  0  0  0  0  0  0
   28.0686  -18.5451  -14.5297 C   0  0  0  0  0  0  0  0  0  0  0  0
   25.7912  -19.3662  -14.1767 C   0  0  2  0  0  0  0  0  0  0  0  0
   25.0623  -20.5204  -13.7304 N   0  0  0  0  0  0  0  0  0  0  0  0
   25.4666  -18.9364  -15.5324 C   0  0  0  0  0  0  0  0  0  0  0  0
   25.4876  -19.7795  -16.4622 O   0  0  0  0  0  0  0  0  0  0  0  0
   21.3230  -15.6129  -18.3258 C   0  0  0  0  0  0  0  0  0  0  0  0
   22.7440  -16.1389  -18.4592 C   0  0  0  0  0  0  0  0  0  0  0  0
   23.2418  -16.6573  -17.1348 C   0  0  2  0  0  0  0  0  0  0  0  0
   23.2297  -15.4754  -16.1637 C   0  0  0  0  0  0  0  0  0  0  0  0
   24.6047  -17.2645  -17.2399 C   0  0  2  0  0  0  0  0  0  0  0  0
   25.1205  -17.6088  -15.8967 N   0  0  0  0  0  0  0  0  0  0  0  0
   25.6342  -16.3977  -17.8386 C   0  0  0  0  0  0  0  0  0  0  0  0
   25.8189  -16.2946  -19.2090 O   0  0  0  0  0  0  0  0  0  0  0  0
   26.4054  -15.7001  -17.1373 O   0  0  0  0  0  0  0  0  0  0  0  0
  1  2  1  0
  2  3  2  0
  4  5  1  0
  4  2  1  0
  5  6  1  1
  7  5  1  0
  7  8  2  0
 10 11  1  0
 10  9  1  0
 11 13  1  0
 11 12  1  1
 13 14  1  6
 14  7  1  0
 15 22  1  0
 15 13  1  0
 16 15  2  0
 17 18  1  0
 18 19  1  0
 19 21  1  0
 19 20  1  1
 21 22  1  1
 21 23  1  0
 23 24  1  0
 25 23  2  0
M  END
$$$$
