NII.pdb
     RDKit          3D

 25 24  0  0  1  0  0  0  0  0999 V2000
   21.4075  -18.1681  -15.7691 N   0  0  0  0  0  0  0  0  0  0  0  0
   20.5667  -18.1665  -14.6363 C   0  0  0  0  0  0  0  0  0  0  0  0
   19.8072  -17.1887  -14.3461 O   0  0  0  0  0  0  0  0  0  0  0  0
   20.5364  -19.3190  -13.7303 C   0  0  0  0  0  0  0  0  0  0  0  0
   21.9096  -19.8665  -13.4273 C   0  0  2  0  0  0  0  0  0  0  0  0
   22.4969  -20.4220  -14.6390 N   0  0  0  0  0  0  0  0  0  0  0  0
   21.9093  -20.8387  -12.3212 C   0  0  0  0  0  0  0  0  0  0  0  0
   21.5394  -22.0349  -12.4137 O   0  0  0  0  0  0  0  0  0  0  0  0
   25.8242  -19.8523   -8.7471 C   0  0  0  0  0  0  0  0  0  0  0  0
   24.8710  -20.5950   -9.6823 C   0  0  0  0  0  0  0  0  0  0  0  0
   23.5221  -20.5922   -8.9903 C   0  0  2  0  0  0  0  0  0  0  0  0
   23.6467  -21.4723   -7.7621 C   0  0  0  0  0  0  0  0  0  0  0  0
   22.4629  -21.2523   -9.8918 C   0  0  2  0  0  0  0  0  0  0  0  0
   22.3600  -20.4035  -11.0456 N   0  0  0  0  0  0  0  0  0  0  0  0
   21.2169  -21.4142   -9.1507 C   0  0  0  0  0  0  0  0  0  0  0  0
   20.5498  -20.3952   -8.8467 O   0  0  0  0  0  0  0  0  0  0  0  0
   17.2330  -23.7049  -11.0751 C   0  0  0  0  0  0  0  0  0  0  0  0
   18.0481  -22.8094  -10.1547 C   0  0  0  0  0  0  0  0  0  0  0  0
   18.4095  -23.5424   -8.8888 C   0  0  2  0  0  0  0  0  0  0  0  0
   17.1016  -23.8046   -8.1399 C   0  0  0  0  0  0  0  0  0  0  0  0
   19.3776  -22.7745   -8.0459 C   0  0  2  0  0  0  0  0  0  0  0  0
   20.6828  -22.6615   -8.7333 N   0  0  0  0  0  0  0  0  0  0  0  0
   19.6818  -23.3732   -6.7349 C   0  0  0  0  0  0  0  0  0  0  0  0
   18.9351  -23.1016   -5.5985 O   0  0  0  0  0  0  0  0  0  0  0  0
   20.6391  -24.1673   -6.5732 O   0  0  0  0  0  0  0  0  0  0  0  0
  1  2  1  0
  2  3  2  0
  4  5  1  0
  4  2  1  0
  5  6  1  6
  7  5  1  0
  7  8  2  0
 10 11  1  0
 10  9  1  0
 11 13  1  0
 11 12  1  1
 13 14  1  6
 14  7  1  0
 15 22  1  0
 15 13  1  0
 16 15  2  0
 17 18  1  0
 18 19  1  0
 19 21  1  0
 19 20  1  1
 21 22  1  6
 21 23  1  0
 23 24  1  0
 25 23  2  0
M  END
$$$$
