NII.pdb
     RDKit          3D

 25 24  0  0  1  0  0  0  0  0999 V2000
   21.7950  -18.6002  -14.0100 N   0  0  0  0  0  0  0  0  0  0  0  0
   21.1716  -19.2526  -12.9255 C   0  0  0  0  0  0  0  0  0  0  0  0
   20.0299  -18.9100  -12.4823 O   0  0  0  0  0  0  0  0  0  0  0  0
   21.8321  -20.3761  -12.2534 C   0  0  0  0  0  0  0  0  0  0  0  0
   23.1963  -20.6826  -12.8212 C   0  0  2  0  0  0  0  0  0  0  0  0
   23.0636  -21.5610  -13.9754 N   0  0  0  0  0  0  0  0  0  0  0  0
   24.1261  -21.2292  -11.8186 C   0  0  0  0  0  0  0  0  0  0  0  0
   23.9519  -22.2967  -11.1809 O   0  0  0  0  0  0  0  0  0  0  0  0
   28.9355  -21.6839  -13.4014 C   0  0  0  0  0  0  0  0  0  0  0  0
   27.5944  -21.8196  -12.6817 C   0  0  0  0  0  0  0  0  0  0  0  0
   27.6563  -20.8689  -11.5024 C   0  0  2  0  0  0  0  0  0  0  0  0
   28.7785  -21.3454  -10.6011 C   0  0  0  0  0  0  0  0  0  0  0  0
   26.3625  -20.9676  -10.6739 C   0  0  2  0  0  0  0  0  0  0  0  0
   25.3164  -20.5037  -11.5417 N   0  0  0  0  0  0  0  0  0  0  0  0
   26.5067  -20.2004   -9.4416 C   0  0  0  0  0  0  0  0  0  0  0  0
   26.4281  -18.9484   -9.4884 O   0  0  0  0  0  0  0  0  0  0  0  0
   25.4848  -22.2339   -4.2843 C   0  0  0  0  0  0  0  0  0  0  0  0
   25.5078  -21.3137   -5.4951 C   0  0  0  0  0  0  0  0  0  0  0  0
   26.8964  -20.7749   -5.7228 C   0  0  2  0  0  0  0  0  0  0  0  0
   27.2690  -19.9697   -4.4766 C   0  0  0  0  0  0  0  0  0  0  0  0
   26.9843  -19.9390   -6.9601 C   0  0  2  0  0  0  0  0  0  0  0  0
   26.7353  -20.7674   -8.1604 N   0  0  0  0  0  0  0  0  0  0  0  0
   28.2905  -19.3005   -7.1955 C   0  0  0  0  0  0  0  0  0  0  0  0
   29.3646  -19.9795   -7.7506 O   0  0  0  0  0  0  0  0  0  0  0  0
   28.5048  -18.0992   -6.9053 O   0  0  0  0  0  0  0  0  0  0  0  0
  1  2  1  0
  2  3  2  0
  4  5  1  0
  4  2  1  0
  5  6  1  6
  7  5  1  0
  7  8  2  0
 10 11  1  0
 10  9  1  0
 11 13  1  0
 11 12  1  1
 13 14  1  6
 14  7  1  0
 15 22  1  0
 15 13  1  0
 16 15  2  0
 17 18  1  0
 18 19  1  0
 19 21  1  0
 19 20  1  1
 21 22  1  6
 21 23  1  0
 23 24  1  0
 25 23  2  0
M  END
$$$$
