WND.pdb
     RDKit          3D

 31 32  0  0  1  0  0  0  0  0999 V2000
    6.5280  -17.4753   24.3012 N   0  0  0  0  0  0  0  0  0  0  0  0
    7.0981  -16.2492   23.7625 C   0  0  1  0  0  0  0  0  0  0  0  0
    8.0035  -15.7047   24.8755 C   0  0  0  0  0  0  0  0  0  0  0  0
    7.1290  -14.8627   25.7271 C   0  0  0  0  0  0  0  0  0  0  0  0
    6.0304  -15.2369   26.4691 C   0  0  0  0  0  0  0  0  0  0  0  0
    5.5065  -14.1738   27.1005 N   0  0  0  0  0  0  0  0  0  0  0  0
    6.2482  -13.0958   26.7841 C   0  0  0  0  0  0  0  0  0  0  0  0
    6.1850  -11.7677   27.1324 C   0  0  0  0  0  0  0  0  0  0  0  0
    7.0896  -10.8553   26.6608 C   0  0  0  0  0  0  0  0  0  0  0  0
    8.0968  -11.2690   25.8112 C   0  0  0  0  0  0  0  0  0  0  0  0
    8.1795  -12.5975   25.4483 C   0  0  0  0  0  0  0  0  0  0  0  0
    7.2700  -13.5049   25.9249 C   0  0  0  0  0  0  0  0  0  0  0  0
    7.8252  -16.4679   22.5145 C   0  0  0  0  0  0  0  0  0  0  0  0
    8.1843  -17.6329   22.2107 O   0  0  0  0  0  0  0  0  0  0  0  0
    6.9655  -13.2239   19.1396 N   0  0  0  0  0  0  0  0  0  0  0  0
    7.8021  -14.3340   18.8387 C   0  0  0  0  0  0  0  0  0  0  0  0
    7.4126  -15.1665   17.9704 O   0  0  0  0  0  0  0  0  0  0  0  0
    9.0745  -14.4283   19.5723 C   0  0  0  0  0  0  0  0  0  0  0  0
    9.1201  -15.5868   20.5454 C   0  0  2  0  0  0  0  0  0  0  0  0
    8.1522  -15.4185   21.6147 N   0  0  0  0  0  0  0  0  0  0  0  0
   10.4782  -15.6943   21.1618 C   0  0  0  0  0  0  0  0  0  0  0  0
   10.6721  -15.3040   22.3504 O   0  0  0  0  0  0  0  0  0  0  0  0
   11.5827  -16.2272   20.4590 N   0  0  0  0  0  0  0  0  0  0  0  0
   12.7081  -16.8071   21.2219 C   0  0  1  0  0  0  0  0  0  0  0  0
   12.1975  -17.9203   22.0793 C   0  0  0  0  0  0  0  0  0  0  0  0
   12.6210  -17.7806   23.4648 C   0  0  0  0  0  0  0  0  0  0  0  0
   13.3671  -16.8801   23.8516 O   0  0  0  0  0  0  0  0  0  0  0  0
   13.7099  -17.2699   20.2231 C   0  0  0  0  0  0  0  0  0  0  0  0
   13.4647  -18.1057   19.3290 O   0  0  0  0  0  0  0  0  0  0  0  0
   12.1938  -18.6839   24.4610 O   0  0  0  0  0  0  0  0  0  0  0  0
   15.0027  -16.7431   20.2818 O   0  0  0  0  0  0  0  0  0  0  0  0
  2 13  1  0
  2  1  1  1
  3  2  1  0
  4  3  1  0
  4  5  2  0
  6  5  1  0
  7 12  2  0
  7  6  1  0
  8  7  1  0
  9 10  1  0
  9  8  2  0
 10 11  2  0
 11 12  1  0
 12  4  1  0
 13 14  2  0
 15 16  1  0
 16 17  2  0
 18 16  1  0
 19 18  1  6
 19 21  1  0
 20 19  1  0
 20 13  1  0
 21 22  2  0
 23 24  1  0
 23 21  1  0
 24 28  1  0
 24 25  1  6
 26 25  1  0
 26 30  1  0
 27 26  2  0
 28 29  2  0
 28 31  1  0
M  END
$$$$
