WND.pdb
     RDKit          3D

 31 32  0  0  1  0  0  0  0  0999 V2000
    6.1894  -17.1081   24.1894 N   0  0  0  0  0  0  0  0  0  0  0  0
    7.0848  -16.0460   23.7553 C   0  0  1  0  0  0  0  0  0  0  0  0
    7.9642  -15.7388   24.9749 C   0  0  0  0  0  0  0  0  0  0  0  0
    7.1521  -14.8495   25.8402 C   0  0  0  0  0  0  0  0  0  0  0  0
    6.0667  -15.1687   26.6260 C   0  0  0  0  0  0  0  0  0  0  0  0
    5.6055  -14.0756   27.2552 N   0  0  0  0  0  0  0  0  0  0  0  0
    6.3760  -13.0324   26.8941 C   0  0  0  0  0  0  0  0  0  0  0  0
    6.3750  -11.6971   27.2199 C   0  0  0  0  0  0  0  0  0  0  0  0
    7.2965  -10.8282   26.7011 C   0  0  0  0  0  0  0  0  0  0  0  0
    8.2573  -11.2946   25.8254 C   0  0  0  0  0  0  0  0  0  0  0  0
    8.2770  -12.6313   25.4843 C   0  0  0  0  0  0  0  0  0  0  0  0
    7.3511  -13.4950   26.0082 C   0  0  0  0  0  0  0  0  0  0  0  0
    7.8737  -16.4190   22.5837 C   0  0  0  0  0  0  0  0  0  0  0  0
    7.9849  -17.6334   22.2813 O   0  0  0  0  0  0  0  0  0  0  0  0
    7.6882  -12.9555   19.4071 N   0  0  0  0  0  0  0  0  0  0  0  0
    8.0458  -14.3026   19.1241 C   0  0  0  0  0  0  0  0  0  0  0  0
    7.2149  -15.0325   18.5113 O   0  0  0  0  0  0  0  0  0  0  0  0
    9.3746  -14.7483   19.5733 C   0  0  0  0  0  0  0  0  0  0  0  0
    9.3180  -15.8578   20.6015 C   0  0  2  0  0  0  0  0  0  0  0  0
    8.5308  -15.4683   21.7579 N   0  0  0  0  0  0  0  0  0  0  0  0
   10.6953  -16.2005   21.0722 C   0  0  0  0  0  0  0  0  0  0  0  0
   11.5619  -16.6260   20.2534 O   0  0  0  0  0  0  0  0  0  0  0  0
   11.0826  -16.0656   22.4248 N   0  0  0  0  0  0  0  0  0  0  0  0
   12.3160  -16.7349   22.8894 C   0  0  1  0  0  0  0  0  0  0  0  0
   13.2589  -15.7069   23.4272 C   0  0  0  0  0  0  0  0  0  0  0  0
   14.4383  -15.5557   22.5877 C   0  0  0  0  0  0  0  0  0  0  0  0
   15.4167  -14.8846   22.9186 O   0  0  0  0  0  0  0  0  0  0  0  0
   11.9038  -17.7258   23.9207 C   0  0  0  0  0  0  0  0  0  0  0  0
   12.6637  -18.5985   24.3887 O   0  0  0  0  0  0  0  0  0  0  0  0
   14.5299  -16.1797   21.3256 O   0  0  0  0  0  0  0  0  0  0  0  0
   10.5916  -17.6839   24.3990 O   0  0  0  0  0  0  0  0  0  0  0  0
  2 13  1  0
  2  1  1  1
  3  2  1  0
  4  3  1  0
  4  5  2  0
  6  5  1  0
  7 12  2  0
  7  6  1  0
  8  7  1  0
  9 10  1  0
  9  8  2  0
 10 11  2  0
 11 12  1  0
 12  4  1  0
 13 14  2  0
 15 16  1  0
 16 17  2  0
 18 16  1  0
 19 18  1  6
 19 21  1  0
 20 19  1  0
 20 13  1  0
 21 22  2  0
 23 24  1  0
 23 21  1  0
 24 28  1  0
 24 25  1  1
 26 25  1  0
 26 30  1  0
 27 26  2  0
 28 29  2  0
 28 31  1  0
M  END
$$$$
