WND.pdb
     RDKit          3D

 31 32  0  0  1  0  0  0  0  0999 V2000
    6.6888  -17.4451   24.6336 N   0  0  0  0  0  0  0  0  0  0  0  0
    7.5924  -16.5336   23.9474 C   0  0  1  0  0  0  0  0  0  0  0  0
    8.3609  -15.8139   25.0639 C   0  0  0  0  0  0  0  0  0  0  0  0
    7.3921  -14.8710   25.6734 C   0  0  0  0  0  0  0  0  0  0  0  0
    6.1805  -15.1457   26.2684 C   0  0  0  0  0  0  0  0  0  0  0  0
    5.5990  -14.0124   26.6936 N   0  0  0  0  0  0  0  0  0  0  0  0
    6.4146  -12.9864   26.3859 C   0  0  0  0  0  0  0  0  0  0  0  0
    6.3403  -11.6275   26.5777 C   0  0  0  0  0  0  0  0  0  0  0  0
    7.3355  -10.7855   26.1609 C   0  0  0  0  0  0  0  0  0  0  0  0
    8.4487  -11.3043   25.5290 C   0  0  0  0  0  0  0  0  0  0  0  0
    8.5444  -12.6656   25.3259 C   0  0  0  0  0  0  0  0  0  0  0  0
    7.5437  -13.5020   25.7464 C   0  0  0  0  0  0  0  0  0  0  0  0
    8.4836  -17.2202   23.0156 C   0  0  0  0  0  0  0  0  0  0  0  0
    8.4977  -18.4763   22.9942 O   0  0  0  0  0  0  0  0  0  0  0  0
    8.2899  -17.6108   18.7564 N   0  0  0  0  0  0  0  0  0  0  0  0
    8.8954  -16.3996   19.1912 C   0  0  0  0  0  0  0  0  0  0  0  0
    8.2745  -15.3136   19.0074 O   0  0  0  0  0  0  0  0  0  0  0  0
   10.2168  -16.5067   19.8305 C   0  0  0  0  0  0  0  0  0  0  0  0
   10.1820  -17.2308   21.1593 C   0  0  2  0  0  0  0  0  0  0  0  0
    9.3468  -16.5332   22.1207 N   0  0  0  0  0  0  0  0  0  0  0  0
   11.5599  -17.3340   21.7309 C   0  0  0  0  0  0  0  0  0  0  0  0
   12.4448  -18.0222   21.1427 O   0  0  0  0  0  0  0  0  0  0  0  0
   11.9280  -16.6792   22.9283 N   0  0  0  0  0  0  0  0  0  0  0  0
   13.2158  -17.0215   23.5680 C   0  0  1  0  0  0  0  0  0  0  0  0
   14.1193  -15.8314   23.5190 C   0  0  0  0  0  0  0  0  0  0  0  0
   14.8163  -15.7272   22.2455 C   0  0  0  0  0  0  0  0  0  0  0  0
   15.3540  -16.6880   21.6934 O   0  0  0  0  0  0  0  0  0  0  0  0
   12.9039  -17.4439   24.9607 C   0  0  0  0  0  0  0  0  0  0  0  0
   11.7552  -17.4340   25.4490 O   0  0  0  0  0  0  0  0  0  0  0  0
   14.9175  -14.4988   21.5588 O   0  0  0  0  0  0  0  0  0  0  0  0
   13.9518  -17.8788   25.7763 O   0  0  0  0  0  0  0  0  0  0  0  0
  2 13  1  0
  2  1  1  1
  3  2  1  0
  4  3  1  0
  4  5  2  0
  6  5  1  0
  7 12  2  0
  7  6  1  0
  8  7  1  0
  9 10  1  0
  9  8  2  0
 10 11  2  0
 11 12  1  0
 12  4  1  0
 13 14  2  0
 15 16  1  0
 16 17  2  0
 18 16  1  0
 19 18  1  6
 19 21  1  0
 20 19  1  0
 20 13  1  0
 21 22  2  0
 23 24  1  0
 23 21  1  0
 24 28  1  0
 24 25  1  1
 26 25  1  0
 26 30  1  0
 27 26  2  0
 28 29  2  0
 28 31  1  0
M  END
$$$$
