WND.pdb
     RDKit          3D

 31 32  0  0  1  0  0  0  0  0999 V2000
    9.0293  -17.9830   20.9121 N   0  0  0  0  0  0  0  0  0  0  0  0
   10.1458  -17.0907   20.6371 C   0  0  1  0  0  0  0  0  0  0  0  0
   10.1753  -16.1094   21.8166 C   0  0  0  0  0  0  0  0  0  0  0  0
    8.9030  -15.3515   21.7390 C   0  0  0  0  0  0  0  0  0  0  0  0
    7.8184  -15.3999   22.5868 C   0  0  0  0  0  0  0  0  0  0  0  0
    6.8575  -14.5607   22.1675 N   0  0  0  0  0  0  0  0  0  0  0  0
    7.2949  -13.9548   21.0477 C   0  0  0  0  0  0  0  0  0  0  0  0
    6.7492  -13.0173   20.2036 C   0  0  0  0  0  0  0  0  0  0  0  0
    7.4254  -12.5546   19.1072 C   0  0  0  0  0  0  0  0  0  0  0  0
    8.6902  -13.0359   18.8318 C   0  0  0  0  0  0  0  0  0  0  0  0
    9.2575  -13.9775   19.6657 C   0  0  0  0  0  0  0  0  0  0  0  0
    8.5742  -14.4356   20.7615 C   0  0  0  0  0  0  0  0  0  0  0  0
   11.4105  -17.8044   20.4787 C   0  0  0  0  0  0  0  0  0  0  0  0
   11.5126  -18.9757   20.9215 O   0  0  0  0  0  0  0  0  0  0  0  0
   12.8301  -18.9417   17.3075 N   0  0  0  0  0  0  0  0  0  0  0  0
   13.9585  -18.0860   17.1755 C   0  0  0  0  0  0  0  0  0  0  0  0
   14.4131  -17.8597   16.0176 O   0  0  0  0  0  0  0  0  0  0  0  0
   14.5168  -17.5228   18.4153 C   0  0  0  0  0  0  0  0  0  0  0  0
   13.7839  -17.9732   19.6607 C   0  0  2  0  0  0  0  0  0  0  0  0
   12.5461  -17.2359   19.8424 N   0  0  0  0  0  0  0  0  0  0  0  0
   14.6346  -17.7565   20.8712 C   0  0  0  0  0  0  0  0  0  0  0  0
   15.7177  -18.3965   21.0127 O   0  0  0  0  0  0  0  0  0  0  0  0
   14.2748  -16.8445   21.8893 N   0  0  0  0  0  0  0  0  0  0  0  0
   15.0724  -16.8046   23.1332 C   0  0  1  0  0  0  0  0  0  0  0  0
   15.7332  -15.4685   23.2494 C   0  0  0  0  0  0  0  0  0  0  0  0
   16.7678  -15.2817   22.2428 C   0  0  0  0  0  0  0  0  0  0  0  0
   16.6539  -14.4973   21.3001 O   0  0  0  0  0  0  0  0  0  0  0  0
   14.1319  -17.0752   24.2546 C   0  0  0  0  0  0  0  0  0  0  0  0
   12.9077  -17.2668   24.1038 O   0  0  0  0  0  0  0  0  0  0  0  0
   17.9809  -16.0006   22.2902 O   0  0  0  0  0  0  0  0  0  0  0  0
   14.6402  -17.1196   25.5553 O   0  0  0  0  0  0  0  0  0  0  0  0
  2 13  1  0
  2  1  1  1
  3  2  1  0
  4  3  1  0
  4  5  2  0
  6  5  1  0
  7 12  2  0
  7  6  1  0
  8  7  1  0
  9 10  1  0
  9  8  2  0
 10 11  2  0
 11 12  1  0
 12  4  1  0
 13 14  2  0
 15 16  1  0
 16 17  2  0
 18 16  1  0
 19 18  1  6
 19 21  1  0
 20 19  1  0
 20 13  1  0
 21 22  2  0
 23 24  1  0
 23 21  1  0
 24 28  1  0
 24 25  1  1
 26 25  1  0
 26 30  1  0
 27 26  2  0
 28 29  2  0
 28 31  1  0
M  END
$$$$
