WND.pdb
     RDKit          3D

 31 32  0  0  1  0  0  0  0  0999 V2000
    6.4451  -17.2003   24.7329 N   0  0  0  0  0  0  0  0  0  0  0  0
    7.5352  -16.5578   24.0136 C   0  0  1  0  0  0  0  0  0  0  0  0
    8.2658  -15.7114   25.0647 C   0  0  0  0  0  0  0  0  0  0  0  0
    7.2269  -14.8472   25.6755 C   0  0  0  0  0  0  0  0  0  0  0  0
    6.0883  -15.2188   26.3559 C   0  0  0  0  0  0  0  0  0  0  0  0
    5.4018  -14.1337   26.7492 N   0  0  0  0  0  0  0  0  0  0  0  0
    6.0753  -13.0438   26.3358 C   0  0  0  0  0  0  0  0  0  0  0  0
    5.8534  -11.6925   26.4537 C   0  0  0  0  0  0  0  0  0  0  0  0
    6.7208  -10.7716   25.9313 C   0  0  0  0  0  0  0  0  0  0  0  0
    7.8522  -11.2004   25.2654 C   0  0  0  0  0  0  0  0  0  0  0  0
    8.0950  -12.5523   25.1351 C   0  0  0  0  0  0  0  0  0  0  0  0
    7.2218  -13.4680   25.6612 C   0  0  0  0  0  0  0  0  0  0  0  0
    8.4223  -17.5182   23.3619 C   0  0  0  0  0  0  0  0  0  0  0  0
    8.0321  -18.7016   23.2012 O   0  0  0  0  0  0  0  0  0  0  0  0
    9.7662  -17.1257   18.6079 N   0  0  0  0  0  0  0  0  0  0  0  0
    9.2116  -16.0392   19.3392 C   0  0  0  0  0  0  0  0  0  0  0  0
    9.0012  -14.9487   18.7349 O   0  0  0  0  0  0  0  0  0  0  0  0
    8.9219  -16.2726   20.7632 C   0  0  0  0  0  0  0  0  0  0  0  0
   10.0205  -17.0259   21.4820 C   0  0  2  0  0  0  0  0  0  0  0  0
    9.7203  -17.1799   22.8944 N   0  0  0  0  0  0  0  0  0  0  0  0
   11.3181  -16.2927   21.3610 C   0  0  0  0  0  0  0  0  0  0  0  0
   11.9644  -16.3148   20.2727 O   0  0  0  0  0  0  0  0  0  0  0  0
   11.8682  -15.5561   22.4347 N   0  0  0  0  0  0  0  0  0  0  0  0
   12.8566  -16.2065   23.3207 C   0  0  1  0  0  0  0  0  0  0  0  0
   12.3335  -17.5422   23.7419 C   0  0  0  0  0  0  0  0  0  0  0  0
   13.3161  -18.2973   24.5054 C   0  0  0  0  0  0  0  0  0  0  0  0
   14.1948  -18.9811   23.9789 O   0  0  0  0  0  0  0  0  0  0  0  0
   14.1241  -16.3084   22.5472 C   0  0  0  0  0  0  0  0  0  0  0  0
   14.2028  -16.1258   21.3149 O   0  0  0  0  0  0  0  0  0  0  0  0
   13.3182  -18.2890   25.9163 O   0  0  0  0  0  0  0  0  0  0  0  0
   15.2997  -16.6262   23.2324 O   0  0  0  0  0  0  0  0  0  0  0  0
  2 13  1  0
  2  1  1  1
  3  2  1  0
  4  3  1  0
  4  5  2  0
  6  5  1  0
  7 12  2  0
  7  6  1  0
  8  7  1  0
  9 10  1  0
  9  8  2  0
 10 11  2  0
 11 12  1  0
 12  4  1  0
 13 14  2  0
 15 16  1  0
 16 17  2  0
 18 16  1  0
 19 18  1  6
 19 21  1  0
 20 19  1  0
 20 13  1  0
 21 22  2  0
 23 24  1  0
 23 21  1  0
 24 28  1  0
 24 25  1  6
 26 25  1  0
 26 30  1  0
 27 26  2  0
 28 29  2  0
 28 31  1  0
M  END
$$$$
