WND.pdb
     RDKit          3D

 31 32  0  0  1  0  0  0  0  0999 V2000
    9.0850  -16.1066   22.7162 N   0  0  0  0  0  0  0  0  0  0  0  0
    8.5487  -16.6743   23.9444 C   0  0  1  0  0  0  0  0  0  0  0  0
    7.1223  -16.1188   24.0541 C   0  0  0  0  0  0  0  0  0  0  0  0
    7.2453  -14.6557   23.8459 C   0  0  0  0  0  0  0  0  0  0  0  0
    7.4514  -13.9671   22.6708 C   0  0  0  0  0  0  0  0  0  0  0  0
    7.5096  -12.6461   22.9053 N   0  0  0  0  0  0  0  0  0  0  0  0
    7.3437  -12.4512   24.2270 C   0  0  0  0  0  0  0  0  0  0  0  0
    7.3093  -11.3304   25.0217 C   0  0  0  0  0  0  0  0  0  0  0  0
    7.1171  -11.4118   26.3744 C   0  0  0  0  0  0  0  0  0  0  0  0
    6.9526  -12.6483   26.9673 C   0  0  0  0  0  0  0  0  0  0  0  0
    6.9837  -13.7870   26.1888 C   0  0  0  0  0  0  0  0  0  0  0  0
    7.1764  -13.6969   24.8351 C   0  0  0  0  0  0  0  0  0  0  0  0
    8.5759  -18.1349   23.9477 C   0  0  0  0  0  0  0  0  0  0  0  0
    7.8169  -18.7636   23.1685 O   0  0  0  0  0  0  0  0  0  0  0  0
   10.9216  -21.1915   21.1609 N   0  0  0  0  0  0  0  0  0  0  0  0
   10.1329  -20.2336   21.8559 C   0  0  0  0  0  0  0  0  0  0  0  0
    8.8999  -20.1563   21.5868 O   0  0  0  0  0  0  0  0  0  0  0  0
   10.8238  -19.3950   22.8487 C   0  0  0  0  0  0  0  0  0  0  0  0
   10.4762  -19.7504   24.2784 C   0  0  2  0  0  0  0  0  0  0  0  0
    9.4264  -18.8917   24.7972 N   0  0  0  0  0  0  0  0  0  0  0  0
   11.6761  -19.5990   25.1577 C   0  0  0  0  0  0  0  0  0  0  0  0
   12.6992  -20.3207   24.9709 O   0  0  0  0  0  0  0  0  0  0  0  0
   11.7202  -18.6609   26.2141 N   0  0  0  0  0  0  0  0  0  0  0  0
   12.6186  -18.9116   27.3608 C   0  0  1  0  0  0  0  0  0  0  0  0
   11.9891  -19.9218   28.2653 C   0  0  0  0  0  0  0  0  0  0  0  0
   10.7874  -19.4076   28.9058 C   0  0  0  0  0  0  0  0  0  0  0  0
   10.4132  -18.2396   28.7923 O   0  0  0  0  0  0  0  0  0  0  0  0
   13.9138  -19.3799   26.7965 C   0  0  0  0  0  0  0  0  0  0  0  0
   14.1889  -20.5800   26.5913 O   0  0  0  0  0  0  0  0  0  0  0  0
    9.9687  -20.2314   29.7068 O   0  0  0  0  0  0  0  0  0  0  0  0
   14.8842  -18.4276   26.4742 O   0  0  0  0  0  0  0  0  0  0  0  0
  2 13  1  0
  2  1  1  6
  3  2  1  0
  4  3  1  0
  4  5  2  0
  6  5  1  0
  7 12  2  0
  7  6  1  0
  8  7  1  0
  9 10  1  0
  9  8  2  0
 10 11  2  0
 11 12  1  0
 12  4  1  0
 13 14  2  0
 15 16  1  0
 16 17  2  0
 18 16  1  0
 19 18  1  6
 19 21  1  0
 20 19  1  0
 20 13  1  0
 21 22  2  0
 23 24  1  0
 23 21  1  0
 24 28  1  0
 24 25  1  1
 26 25  1  0
 26 30  1  0
 27 26  2  0
 28 29  2  0
 28 31  1  0
M  END
$$$$
