WND.pdb
     RDKit          3D

 31 32  0  0  1  0  0  0  0  0999 V2000
    7.0808  -17.7893   24.3355 N   0  0  0  0  0  0  0  0  0  0  0  0
    8.0439  -16.7496   24.0041 C   0  0  1  0  0  0  0  0  0  0  0  0
    8.3406  -16.0394   25.3318 C   0  0  0  0  0  0  0  0  0  0  0  0
    7.1680  -15.1694   25.5912 C   0  0  0  0  0  0  0  0  0  0  0  0
    5.8874  -15.5327   25.9453 C   0  0  0  0  0  0  0  0  0  0  0  0
    5.1125  -14.4447   26.0838 N   0  0  0  0  0  0  0  0  0  0  0  0
    5.8680  -13.3610   25.8246 C   0  0  0  0  0  0  0  0  0  0  0  0
    5.6143  -12.0102   25.8155 C   0  0  0  0  0  0  0  0  0  0  0  0
    6.5873  -11.0964   25.5131 C   0  0  0  0  0  0  0  0  0  0  0  0
    7.8616  -11.5321   25.2069 C   0  0  0  0  0  0  0  0  0  0  0  0
    8.1388  -12.8837   25.2099 C   0  0  0  0  0  0  0  0  0  0  0  0
    7.1591  -13.7922   25.5140 C   0  0  0  0  0  0  0  0  0  0  0  0
    9.2522  -17.2810   23.3783 C   0  0  0  0  0  0  0  0  0  0  0  0
    9.6803  -18.4081   23.7317 O   0  0  0  0  0  0  0  0  0  0  0  0
   10.4972  -17.8785   19.0657 N   0  0  0  0  0  0  0  0  0  0  0  0
   10.7258  -16.5320   19.4625 C   0  0  0  0  0  0  0  0  0  0  0  0
   10.1407  -15.6076   18.8288 O   0  0  0  0  0  0  0  0  0  0  0  0
   11.6392  -16.3169   20.5964 C   0  0  0  0  0  0  0  0  0  0  0  0
   11.2347  -17.0745   21.8429 C   0  0  2  0  0  0  0  0  0  0  0  0
    9.9784  -16.5808   22.3783 N   0  0  0  0  0  0  0  0  0  0  0  0
   12.2799  -16.9274   22.9022 C   0  0  0  0  0  0  0  0  0  0  0  0
   12.5566  -15.7846   23.3712 O   0  0  0  0  0  0  0  0  0  0  0  0
   12.9895  -18.0361   23.4171 N   0  0  0  0  0  0  0  0  0  0  0  0
   14.0081  -17.8138   24.4648 C   0  0  1  0  0  0  0  0  0  0  0  0
   14.1316  -19.0486   25.2986 C   0  0  0  0  0  0  0  0  0  0  0  0
   13.0061  -19.2082   26.2078 C   0  0  0  0  0  0  0  0  0  0  0  0
   12.3724  -18.2566   26.6658 O   0  0  0  0  0  0  0  0  0  0  0  0
   15.2755  -17.4694   23.7646 C   0  0  0  0  0  0  0  0  0  0  0  0
   16.3195  -17.1165   24.3508 O   0  0  0  0  0  0  0  0  0  0  0  0
   12.5693  -20.4838   26.6234 O   0  0  0  0  0  0  0  0  0  0  0  0
   15.3080  -17.5431   22.3696 O   0  0  0  0  0  0  0  0  0  0  0  0
  2 13  1  0
  2  1  1  1
  3  2  1  0
  4  3  1  0
  4  5  2  0
  6  5  1  0
  7 12  2  0
  7  6  1  0
  8  7  1  0
  9 10  1  0
  9  8  2  0
 10 11  2  0
 11 12  1  0
 12  4  1  0
 13 14  2  0
 15 16  1  0
 16 17  2  0
 18 16  1  0
 19 18  1  6
 19 21  1  0
 20 19  1  0
 20 13  1  0
 21 22  2  0
 23 24  1  0
 23 21  1  0
 24 28  1  0
 24 25  1  6
 26 25  1  0
 26 30  1  0
 27 26  2  0
 28 29  2  0
 28 31  1  0
M  END
$$$$
