WND.pdb
     RDKit          3D

 31 32  0  0  1  0  0  0  0  0999 V2000
    6.8468  -17.8543   24.6622 N   0  0  0  0  0  0  0  0  0  0  0  0
    7.5463  -16.7183   24.0804 C   0  0  1  0  0  0  0  0  0  0  0  0
    8.2817  -16.0560   25.2533 C   0  0  0  0  0  0  0  0  0  0  0  0
    7.2977  -15.1375   25.8755 C   0  0  0  0  0  0  0  0  0  0  0  0
    6.1093  -15.4437   26.5012 C   0  0  0  0  0  0  0  0  0  0  0  0
    5.5021  -14.3247   26.9283 N   0  0  0  0  0  0  0  0  0  0  0  0
    6.2775  -13.2770   26.5915 C   0  0  0  0  0  0  0  0  0  0  0  0
    6.1646  -11.9190   26.7712 C   0  0  0  0  0  0  0  0  0  0  0  0
    7.1229  -11.0507   26.3229 C   0  0  0  0  0  0  0  0  0  0  0  0
    8.2371  -11.5411   25.6707 C   0  0  0  0  0  0  0  0  0  0  0  0
    8.3713  -12.9009   25.4792 C   0  0  0  0  0  0  0  0  0  0  0  0
    7.4075  -13.7637   25.9312 C   0  0  0  0  0  0  0  0  0  0  0  0
    8.4559  -17.1080   23.0057 C   0  0  0  0  0  0  0  0  0  0  0  0
    8.8895  -18.2865   22.9673 O   0  0  0  0  0  0  0  0  0  0  0  0
    9.0144  -17.4101   18.0413 N   0  0  0  0  0  0  0  0  0  0  0  0
    8.6820  -16.2590   18.8075 C   0  0  0  0  0  0  0  0  0  0  0  0
    7.5379  -15.7423   18.6567 O   0  0  0  0  0  0  0  0  0  0  0  0
    9.7108  -15.7518   19.7297 C   0  0  0  0  0  0  0  0  0  0  0  0
    9.8579  -16.5895   20.9818 C   0  0  2  0  0  0  0  0  0  0  0  0
    8.8819  -16.2124   21.9888 N   0  0  0  0  0  0  0  0  0  0  0  0
   11.2217  -16.4117   21.5685 C   0  0  0  0  0  0  0  0  0  0  0  0
   11.7115  -15.2524   21.7051 O   0  0  0  0  0  0  0  0  0  0  0  0
   12.0077  -17.5085   21.9895 N   0  0  0  0  0  0  0  0  0  0  0  0
   13.3164  -17.2522   22.6270 C   0  0  1  0  0  0  0  0  0  0  0  0
   13.5115  -18.2174   23.7519 C   0  0  0  0  0  0  0  0  0  0  0  0
   14.8271  -18.0875   24.3608 C   0  0  0  0  0  0  0  0  0  0  0  0
   15.6821  -17.3011   23.9513 O   0  0  0  0  0  0  0  0  0  0  0  0
   14.3476  -17.3996   21.5637 C   0  0  0  0  0  0  0  0  0  0  0  0
   15.1056  -16.4777   21.1983 O   0  0  0  0  0  0  0  0  0  0  0  0
   15.2048  -18.8682   25.4738 O   0  0  0  0  0  0  0  0  0  0  0  0
   14.4822  -18.6389   20.9325 O   0  0  0  0  0  0  0  0  0  0  0  0
  2 13  1  0
  2  1  1  1
  3  2  1  0
  4  3  1  0
  4  5  2  0
  6  5  1  0
  7 12  2  0
  7  6  1  0
  8  7  1  0
  9 10  1  0
  9  8  2  0
 10 11  2  0
 11 12  1  0
 12  4  1  0
 13 14  2  0
 15 16  1  0
 16 17  2  0
 18 16  1  0
 19 18  1  6
 19 21  1  0
 20 19  1  0
 20 13  1  0
 21 22  2  0
 23 24  1  0
 23 21  1  0
 24 28  1  0
 24 25  1  1
 26 25  1  0
 26 30  1  0
 27 26  2  0
 28 29  2  0
 28 31  1  0
M  END
$$$$
