WND.pdb
     RDKit          3D

 31 32  0  0  1  0  0  0  0  0999 V2000
    6.5690  -17.9790   25.1650 N   0  0  0  0  0  0  0  0  0  0  0  0
    7.2955  -16.9760   24.4005 C   0  0  1  0  0  0  0  0  0  0  0  0
    8.1202  -16.2009   25.4369 C   0  0  0  0  0  0  0  0  0  0  0  0
    7.1830  -15.2274   26.0476 C   0  0  0  0  0  0  0  0  0  0  0  0
    5.9579  -15.4613   26.6321 C   0  0  0  0  0  0  0  0  0  0  0  0
    5.4161  -14.3104   27.0627 N   0  0  0  0  0  0  0  0  0  0  0  0
    6.2716  -13.3133   26.7690 C   0  0  0  0  0  0  0  0  0  0  0  0
    6.2467  -11.9541   26.9715 C   0  0  0  0  0  0  0  0  0  0  0  0
    7.2756  -11.1466   26.5683 C   0  0  0  0  0  0  0  0  0  0  0  0
    8.3730  -11.7016   25.9397 C   0  0  0  0  0  0  0  0  0  0  0  0
    8.4193  -13.0639   25.7261 C   0  0  0  0  0  0  0  0  0  0  0  0
    7.3851  -13.8656   26.1329 C   0  0  0  0  0  0  0  0  0  0  0  0
    8.1301  -17.5615   23.3543 C   0  0  0  0  0  0  0  0  0  0  0  0
    8.3901  -18.7901   23.3939 O   0  0  0  0  0  0  0  0  0  0  0  0
    7.3927  -15.0603   20.4143 N   0  0  0  0  0  0  0  0  0  0  0  0
    8.6446  -15.4502   19.8633 C   0  0  0  0  0  0  0  0  0  0  0  0
    9.4176  -14.5514   19.4237 O   0  0  0  0  0  0  0  0  0  0  0  0
    8.9466  -16.8905   19.8477 C   0  0  0  0  0  0  0  0  0  0  0  0
    9.4046  -17.4207   21.1895 C   0  0  2  0  0  0  0  0  0  0  0  0
    8.6707  -16.8047   22.2807 N   0  0  0  0  0  0  0  0  0  0  0  0
   10.8590  -17.1378   21.3909 C   0  0  0  0  0  0  0  0  0  0  0  0
   11.7153  -17.5850   20.5728 O   0  0  0  0  0  0  0  0  0  0  0  0
   11.3320  -16.3725   22.4811 N   0  0  0  0  0  0  0  0  0  0  0  0
   12.5806  -16.7815   23.1583 C   0  0  1  0  0  0  0  0  0  0  0  0
   13.5315  -15.6280   23.1722 C   0  0  0  0  0  0  0  0  0  0  0  0
   14.3262  -15.5609   21.9547 C   0  0  0  0  0  0  0  0  0  0  0  0
   13.8924  -15.1112   20.8933 O   0  0  0  0  0  0  0  0  0  0  0  0
   12.2005  -17.2239   24.5277 C   0  0  0  0  0  0  0  0  0  0  0  0
   11.2398  -16.7508   25.1692 O   0  0  0  0  0  0  0  0  0  0  0  0
   15.6617  -16.0150   21.9199 O   0  0  0  0  0  0  0  0  0  0  0  0
   12.9574  -18.2271   25.1386 O   0  0  0  0  0  0  0  0  0  0  0  0
  2 13  1  0
  2  1  1  1
  3  2  1  0
  4  3  1  0
  4  5  2  0
  6  5  1  0
  7 12  2  0
  7  6  1  0
  8  7  1  0
  9 10  1  0
  9  8  2  0
 10 11  2  0
 11 12  1  0
 12  4  1  0
 13 14  2  0
 15 16  1  0
 16 17  2  0
 18 16  1  0
 19 18  1  6
 19 21  1  0
 20 19  1  0
 20 13  1  0
 21 22  2  0
 23 24  1  0
 23 21  1  0
 24 28  1  0
 24 25  1  1
 26 25  1  0
 26 30  1  0
 27 26  2  0
 28 29  2  0
 28 31  1  0
M  END
$$$$
