WND.pdb
     RDKit          3D

 31 32  0  0  1  0  0  0  0  0999 V2000
    6.7984  -17.3503   23.8248 N   0  0  0  0  0  0  0  0  0  0  0  0
    7.9946  -16.5422   23.6395 C   0  0  1  0  0  0  0  0  0  0  0  0
    8.3901  -16.0814   25.0489 C   0  0  0  0  0  0  0  0  0  0  0  0
    7.2935  -15.1916   25.5016 C   0  0  0  0  0  0  0  0  0  0  0  0
    6.0235  -15.5305   25.9132 C   0  0  0  0  0  0  0  0  0  0  0  0
    5.3267  -14.4299   26.2394 N   0  0  0  0  0  0  0  0  0  0  0  0
    6.1237  -13.3619   26.0481 C   0  0  0  0  0  0  0  0  0  0  0  0
    5.9505  -12.0089   26.2168 C   0  0  0  0  0  0  0  0  0  0  0  0
    6.9507  -11.1150   25.9453 C   0  0  0  0  0  0  0  0  0  0  0  0
    8.1708  -11.5737   25.4886 C   0  0  0  0  0  0  0  0  0  0  0  0
    8.3669  -12.9279   25.3119 C   0  0  0  0  0  0  0  0  0  0  0  0
    7.3605  -13.8165   25.5861 C   0  0  0  0  0  0  0  0  0  0  0  0
    9.0700  -17.2735   22.9739 C   0  0  0  0  0  0  0  0  0  0  0  0
    9.1038  -18.5264   23.0606 O   0  0  0  0  0  0  0  0  0  0  0  0
    9.2911  -17.4578   19.4661 N   0  0  0  0  0  0  0  0  0  0  0  0
   10.5015  -16.7824   19.1477 C   0  0  0  0  0  0  0  0  0  0  0  0
   10.6491  -16.3258   17.9779 O   0  0  0  0  0  0  0  0  0  0  0  0
   11.5023  -16.6660   20.2205 C   0  0  0  0  0  0  0  0  0  0  0  0
   11.1014  -17.3804   21.4933 C   0  0  2  0  0  0  0  0  0  0  0  0
   10.0931  -16.6338   22.2244 N   0  0  0  0  0  0  0  0  0  0  0  0
   12.2877  -17.5551   22.3867 C   0  0  0  0  0  0  0  0  0  0  0  0
   13.2474  -18.3015   22.0343 O   0  0  0  0  0  0  0  0  0  0  0  0
   12.3881  -16.9060   23.6383 N   0  0  0  0  0  0  0  0  0  0  0  0
   13.4567  -17.3127   24.5751 C   0  0  1  0  0  0  0  0  0  0  0  0
   14.4377  -16.1933   24.7159 C   0  0  0  0  0  0  0  0  0  0  0  0
   15.0896  -15.8768   23.4536 C   0  0  0  0  0  0  0  0  0  0  0  0
   15.2705  -14.7233   23.0617 O   0  0  0  0  0  0  0  0  0  0  0  0
   12.7917  -17.6535   25.8624 C   0  0  0  0  0  0  0  0  0  0  0  0
   13.4014  -18.0577   26.8738 O   0  0  0  0  0  0  0  0  0  0  0  0
   15.5597  -16.8905   22.5921 O   0  0  0  0  0  0  0  0  0  0  0  0
   11.4042  -17.5155   25.9532 O   0  0  0  0  0  0  0  0  0  0  0  0
  2 13  1  0
  2  1  1  1
  3  2  1  0
  4  3  1  0
  4  5  2  0
  6  5  1  0
  7 12  2  0
  7  6  1  0
  8  7  1  0
  9 10  1  0
  9  8  2  0
 10 11  2  0
 11 12  1  0
 12  4  1  0
 13 14  2  0
 15 16  1  0
 16 17  2  0
 18 16  1  0
 19 18  1  6
 19 21  1  0
 20 19  1  0
 20 13  1  0
 21 22  2  0
 23 24  1  0
 23 21  1  0
 24 28  1  0
 24 25  1  1
 26 25  1  0
 26 30  1  0
 27 26  2  0
 28 29  2  0
 28 31  1  0
M  END
$$$$
