WND.pdb
     RDKit          3D

 31 32  0  0  1  0  0  0  0  0999 V2000
    6.7111  -15.3250   20.8204 N   0  0  0  0  0  0  0  0  0  0  0  0
    7.3612  -15.2267   22.1188 C   0  0  1  0  0  0  0  0  0  0  0  0
    6.2674  -15.5619   23.1418 C   0  0  0  0  0  0  0  0  0  0  0  0
    6.8784  -15.3279   24.4725 C   0  0  0  0  0  0  0  0  0  0  0  0
    7.3533  -16.2520   25.3770 C   0  0  0  0  0  0  0  0  0  0  0  0
    7.8271  -15.6359   26.4721 N   0  0  0  0  0  0  0  0  0  0  0  0
    7.6710  -14.3095   26.3027 C   0  0  0  0  0  0  0  0  0  0  0  0
    7.9710  -13.2144   27.0771 C   0  0  0  0  0  0  0  0  0  0  0  0
    7.7046  -11.9395   26.6563 C   0  0  0  0  0  0  0  0  0  0  0  0
    7.1184  -11.7364   25.4224 C   0  0  0  0  0  0  0  0  0  0  0  0
    6.8086  -12.8212   24.6283 C   0  0  0  0  0  0  0  0  0  0  0  0
    7.0787  -14.0945   25.0567 C   0  0  0  0  0  0  0  0  0  0  0  0
    8.5189  -16.1099   22.2366 C   0  0  0  0  0  0  0  0  0  0  0  0
    8.3418  -17.3537   22.2497 O   0  0  0  0  0  0  0  0  0  0  0  0
   13.1189  -18.1999   22.3512 N   0  0  0  0  0  0  0  0  0  0  0  0
   13.3410  -16.9142   21.7852 C   0  0  0  0  0  0  0  0  0  0  0  0
   14.4575  -16.6783   21.2407 O   0  0  0  0  0  0  0  0  0  0  0  0
   12.2376  -15.9447   21.8788 C   0  0  0  0  0  0  0  0  0  0  0  0
   10.9864  -16.5205   22.5067 C   0  0  2  0  0  0  0  0  0  0  0  0
    9.8518  -15.6299   22.3389 N   0  0  0  0  0  0  0  0  0  0  0  0
   11.1930  -16.7375   23.9716 C   0  0  0  0  0  0  0  0  0  0  0  0
   11.6209  -15.7962   24.7020 O   0  0  0  0  0  0  0  0  0  0  0  0
   10.9235  -17.9780   24.5932 N   0  0  0  0  0  0  0  0  0  0  0  0
   11.2726  -18.1589   26.0180 C   0  0  1  0  0  0  0  0  0  0  0  0
   10.0944  -18.7250   26.7436 C   0  0  0  0  0  0  0  0  0  0  0  0
   10.4162  -19.0721   28.1201 C   0  0  0  0  0  0  0  0  0  0  0  0
   10.8672  -18.2606   28.9295 O   0  0  0  0  0  0  0  0  0  0  0  0
   12.4552  -19.0619   26.0585 C   0  0  0  0  0  0  0  0  0  0  0  0
   12.5389  -20.1265   25.4123 O   0  0  0  0  0  0  0  0  0  0  0  0
   10.2266  -20.3800   28.6143 O   0  0  0  0  0  0  0  0  0  0  0  0
   13.5396  -18.7048   26.8640 O   0  0  0  0  0  0  0  0  0  0  0  0
  2 13  1  0
  2  1  1  6
  3  2  1  0
  4  3  1  0
  4  5  2  0
  6  5  1  0
  7 12  2  0
  7  6  1  0
  8  7  1  0
  9 10  1  0
  9  8  2  0
 10 11  2  0
 11 12  1  0
 12  4  1  0
 13 14  2  0
 15 16  1  0
 16 17  2  0
 18 16  1  0
 19 18  1  1
 19 21  1  0
 20 19  1  0
 20 13  1  0
 21 22  2  0
 23 24  1  0
 23 21  1  0
 24 28  1  0
 24 25  1  1
 26 25  1  0
 26 30  1  0
 27 26  2  0
 28 29  2  0
 28 31  1  0
M  END
$$$$
