WND.pdb
     RDKit          3D

 31 32  0  0  1  0  0  0  0  0999 V2000
    6.5066  -17.4933   23.9576 N   0  0  0  0  0  0  0  0  0  0  0  0
    7.5284  -16.5481   23.5324 C   0  0  1  0  0  0  0  0  0  0  0  0
    8.2517  -16.1325   24.8205 C   0  0  0  0  0  0  0  0  0  0  0  0
    7.3527  -15.1606   25.4886 C   0  0  0  0  0  0  0  0  0  0  0  0
    6.1545  -15.3933   26.1270 C   0  0  0  0  0  0  0  0  0  0  0  0
    5.6436  -14.2447   26.5991 N   0  0  0  0  0  0  0  0  0  0  0  0
    6.4929  -13.2501   26.2797 C   0  0  0  0  0  0  0  0  0  0  0  0
    6.4893  -11.8939   26.5026 C   0  0  0  0  0  0  0  0  0  0  0  0
    7.5051  -11.0888   26.0629 C   0  0  0  0  0  0  0  0  0  0  0  0
    8.5668  -11.6432   25.3753 C   0  0  0  0  0  0  0  0  0  0  0  0
    8.5912  -13.0025   25.1402 C   0  0  0  0  0  0  0  0  0  0  0  0
    7.5704  -13.8019   25.5839 C   0  0  0  0  0  0  0  0  0  0  0  0
    8.4416  -17.1144   22.5427 C   0  0  0  0  0  0  0  0  0  0  0  0
    8.7217  -18.3379   22.5968 O   0  0  0  0  0  0  0  0  0  0  0  0
    7.6978  -17.1608   18.8547 N   0  0  0  0  0  0  0  0  0  0  0  0
    8.6980  -16.2686   18.3790 C   0  0  0  0  0  0  0  0  0  0  0  0
    8.5123  -15.6875   17.2715 O   0  0  0  0  0  0  0  0  0  0  0  0
    9.8885  -16.0888   19.2255 C   0  0  0  0  0  0  0  0  0  0  0  0
    9.8673  -16.9402   20.4769 C   0  0  2  0  0  0  0  0  0  0  0  0
    9.0377  -16.3439   21.5089 N   0  0  0  0  0  0  0  0  0  0  0  0
   11.2503  -17.0932   21.0245 C   0  0  0  0  0  0  0  0  0  0  0  0
   12.1308  -17.7221   20.3674 O   0  0  0  0  0  0  0  0  0  0  0  0
   11.6280  -16.5517   22.2743 N   0  0  0  0  0  0  0  0  0  0  0  0
   12.9753  -16.8450   22.8070 C   0  0  1  0  0  0  0  0  0  0  0  0
   13.8461  -15.6432   22.6273 C   0  0  0  0  0  0  0  0  0  0  0  0
   15.2134  -15.8899   23.0612 C   0  0  0  0  0  0  0  0  0  0  0  0
   15.5762  -16.9529   23.5666 O   0  0  0  0  0  0  0  0  0  0  0  0
   12.7996  -17.2132   24.2385 C   0  0  0  0  0  0  0  0  0  0  0  0
   11.7540  -17.0026   24.8868 O   0  0  0  0  0  0  0  0  0  0  0  0
   16.2183  -14.9089   22.9255 O   0  0  0  0  0  0  0  0  0  0  0  0
   13.8618  -17.8313   24.9033 O   0  0  0  0  0  0  0  0  0  0  0  0
  2 13  1  0
  2  1  1  1
  3  2  1  0
  4  3  1  0
  4  5  2  0
  6  5  1  0
  7 12  2  0
  7  6  1  0
  8  7  1  0
  9 10  1  0
  9  8  2  0
 10 11  2  0
 11 12  1  0
 12  4  1  0
 13 14  2  0
 15 16  1  0
 16 17  2  0
 18 16  1  0
 19 18  1  6
 19 21  1  0
 20 19  1  0
 20 13  1  0
 21 22  2  0
 23 24  1  0
 23 21  1  0
 24 28  1  0
 24 25  1  1
 26 25  1  0
 26 30  1  0
 27 26  2  0
 28 29  2  0
 28 31  1  0
M  END
$$$$
