IWS.pdb
     RDKit          3D

 29 30  0  0  1  0  0  0  0  0999 V2000
    7.5613  -12.0941   20.4604 C   0  0  0  0  0  0  0  0  0  0  0  0
    7.5762  -13.4926   21.0784 C   0  0  0  0  0  0  0  0  0  0  0  0
    8.4923  -14.4110   20.2935 C   0  0  2  0  0  0  0  0  0  0  0  0
    8.0799  -14.3819   18.8638 C   0  0  0  0  0  0  0  0  0  0  0  0
    8.6428  -15.7516   20.8995 C   0  0  2  0  0  0  0  0  0  0  0  0
    7.3118  -16.3560   20.9846 N   0  0  0  0  0  0  0  0  0  0  0  0
    9.3328  -15.7833   22.2028 C   0  0  0  0  0  0  0  0  0  0  0  0
   10.4812  -15.2843   22.3137 O   0  0  0  0  0  0  0  0  0  0  0  0
    8.7916  -16.3466   23.3735 N   0  0  0  0  0  0  0  0  0  0  0  0
    9.4078  -16.4464   24.6492 C   0  0  1  0  0  0  0  0  0  0  0  0
    8.2830  -16.6459   25.6762 C   0  0  0  0  0  0  0  0  0  0  0  0
    7.2957  -15.5322   25.5552 C   0  0  0  0  0  0  0  0  0  0  0  0
    6.0351  -15.5541   25.0057 C   0  0  0  0  0  0  0  0  0  0  0  0
    5.5459  -14.3088   25.1391 N   0  0  0  0  0  0  0  0  0  0  0  0
    6.4263  -13.5087   25.7397 C   0  0  0  0  0  0  0  0  0  0  0  0
    6.4303  -12.1782   26.1089 C   0  0  0  0  0  0  0  0  0  0  0  0
    7.5091  -11.5880   26.7366 C   0  0  0  0  0  0  0  0  0  0  0  0
    8.6386  -12.3265   27.0191 C   0  0  0  0  0  0  0  0  0  0  0  0
    8.6320  -13.6602   26.6480 C   0  0  0  0  0  0  0  0  0  0  0  0
    7.5514  -14.2525   26.0191 C   0  0  0  0  0  0  0  0  0  0  0  0
   10.4721  -17.4159   24.7873 C   0  0  0  0  0  0  0  0  0  0  0  0
   10.1819  -18.6191   24.9854 O   0  0  0  0  0  0  0  0  0  0  0  0
   14.4474  -16.2407   24.4953 O   0  0  0  0  0  0  0  0  0  0  0  0
   14.1477  -17.5538   24.1033 C   0  0  0  0  0  0  0  0  0  0  0  0
   12.9205  -18.0714   24.8056 C   0  0  2  0  0  0  0  0  0  0  0  0
   11.8529  -17.0954   24.7127 N   0  0  0  0  0  0  0  0  0  0  0  0
   13.2793  -18.3572   26.2192 C   0  0  0  0  0  0  0  0  0  0  0  0
   12.6725  -17.7573   27.1381 O   0  0  0  0  0  0  0  0  0  0  0  0
   14.2724  -19.2764   26.4924 O   0  0  0  0  0  0  0  0  0  0  0  0
  2  1  1  0
  3  2  1  0
  3  4  1  6
  5  3  1  0
  5  6  1  1
  7  5  1  0
  8  7  2  0
  9  7  1  0
 10  9  1  0
 11 12  1  0
 10 11  1  1
 12 20  1  0
 12 13  2  0
 13 14  1  0
 15 14  1  0
 15 16  2  0
 17 16  1  0
 18 17  2  0
 19 18  1  0
 19 20  2  0
 20 15  1  0
 21 22  2  0
 21 10  1  0
 25 24  1  6
 24 23  1  0
 25 26  1  0
 26 21  1  0
 27 25  1  0
 28 27  2  0
 29 27  1  0
M  END
$$$$
