IWS.pdb
     RDKit          3D

 29 30  0  0  1  0  0  0  0  0999 V2000
    7.2253  -12.5052   17.0687 C   0  0  0  0  0  0  0  0  0  0  0  0
    7.9088  -13.7969   17.5187 C   0  0  0  0  0  0  0  0  0  0  0  0
    8.0988  -13.8017   19.0229 C   0  0  2  0  0  0  0  0  0  0  0  0
    8.8026  -12.5505   19.4151 C   0  0  0  0  0  0  0  0  0  0  0  0
    8.6757  -15.0615   19.5399 C   0  0  2  0  0  0  0  0  0  0  0  0
    7.7940  -16.1574   19.1331 N   0  0  0  0  0  0  0  0  0  0  0  0
    8.9354  -15.0899   20.9916 C   0  0  0  0  0  0  0  0  0  0  0  0
    9.9563  -14.5210   21.4547 O   0  0  0  0  0  0  0  0  0  0  0  0
    8.1045  -15.7244   21.9339 N   0  0  0  0  0  0  0  0  0  0  0  0
    8.2739  -15.7700   23.3433 C   0  0  1  0  0  0  0  0  0  0  0  0
    6.8700  -15.8522   23.9613 C   0  0  0  0  0  0  0  0  0  0  0  0
    6.9248  -15.3981   25.3827 C   0  0  0  0  0  0  0  0  0  0  0  0
    6.8574  -16.1517   26.5312 C   0  0  0  0  0  0  0  0  0  0  0  0
    6.9539  -15.2851   27.5549 N   0  0  0  0  0  0  0  0  0  0  0  0
    7.0777  -14.0335   27.1144 C   0  0  0  0  0  0  0  0  0  0  0  0
    7.2078  -12.8013   27.7240 C   0  0  0  0  0  0  0  0  0  0  0  0
    7.3210  -11.6284   27.0046 C   0  0  0  0  0  0  0  0  0  0  0  0
    7.3070  -11.6541   25.6261 C   0  0  0  0  0  0  0  0  0  0  0  0
    7.1766  -12.8906   25.0174 C   0  0  0  0  0  0  0  0  0  0  0  0
    7.0632  -14.0665   25.7375 C   0  0  0  0  0  0  0  0  0  0  0  0
    9.1748  -16.7758   23.8613 C   0  0  0  0  0  0  0  0  0  0  0  0
    9.0080  -17.9740   23.5332 O   0  0  0  0  0  0  0  0  0  0  0  0
   12.8553  -16.6766   23.6817 O   0  0  0  0  0  0  0  0  0  0  0  0
   12.6051  -17.0069   25.0219 C   0  0  0  0  0  0  0  0  0  0  0  0
   11.1939  -17.4954   25.2142 C   0  0  2  0  0  0  0  0  0  0  0  0
   10.2588  -16.4972   24.7344 N   0  0  0  0  0  0  0  0  0  0  0  0
   10.9940  -17.7830   26.6585 C   0  0  0  0  0  0  0  0  0  0  0  0
   11.7557  -18.5978   27.2316 O   0  0  0  0  0  0  0  0  0  0  0  0
    9.9749  -17.1482   27.3399 O   0  0  0  0  0  0  0  0  0  0  0  0
  2  1  1  0
  3  2  1  0
  3  4  1  6
  5  3  1  0
  5  6  1  1
  7  5  1  0
  8  7  2  0
  9  7  1  0
 10  9  1  0
 11 12  1  0
 10 11  1  1
 12 20  1  0
 12 13  2  0
 13 14  1  0
 15 14  1  0
 15 16  2  0
 17 16  1  0
 18 17  2  0
 19 18  1  0
 19 20  2  0
 20 15  1  0
 21 22  2  0
 21 10  1  0
 25 24  1  1
 24 23  1  0
 25 26  1  0
 26 21  1  0
 27 25  1  0
 28 27  2  0
 29 27  1  0
M  END
$$$$
