IWS.pdb
     RDKit          3D

 29 30  0  0  1  0  0  0  0  0999 V2000
    6.8789  -12.4152   19.9000 C   0  0  0  0  0  0  0  0  0  0  0  0
    7.1703  -13.8850   20.2048 C   0  0  0  0  0  0  0  0  0  0  0  0
    8.4630  -14.0200   20.9854 C   0  0  2  0  0  0  0  0  0  0  0  0
    9.5267  -13.2594   20.2748 C   0  0  0  0  0  0  0  0  0  0  0  0
    8.7917  -15.4166   21.3441 C   0  0  2  0  0  0  0  0  0  0  0  0
    7.6000  -16.2326   21.1034 N   0  0  0  0  0  0  0  0  0  0  0  0
    9.3122  -15.6135   22.7101 C   0  0  0  0  0  0  0  0  0  0  0  0
   10.3127  -14.9586   23.0976 O   0  0  0  0  0  0  0  0  0  0  0  0
    8.7609  -16.5064   23.6481 N   0  0  0  0  0  0  0  0  0  0  0  0
    9.1972  -16.7393   24.9794 C   0  0  1  0  0  0  0  0  0  0  0  0
    7.9383  -16.8229   25.8557 C   0  0  0  0  0  0  0  0  0  0  0  0
    7.1994  -15.5270   25.7897 C   0  0  0  0  0  0  0  0  0  0  0  0
    5.9375  -15.2786   25.3024 C   0  0  0  0  0  0  0  0  0  0  0  0
    5.7244  -13.9611   25.4667 N   0  0  0  0  0  0  0  0  0  0  0  0
    6.7788  -13.3705   26.0282 C   0  0  0  0  0  0  0  0  0  0  0  0
    7.0764  -12.0756   26.4045 C   0  0  0  0  0  0  0  0  0  0  0  0
    8.2823  -11.7318   26.9820 C   0  0  0  0  0  0  0  0  0  0  0  0
    9.2457  -12.6927   27.2047 C   0  0  0  0  0  0  0  0  0  0  0  0
    8.9449  -13.9900   26.8267 C   0  0  0  0  0  0  0  0  0  0  0  0
    7.7367  -14.3356   26.2479 C   0  0  0  0  0  0  0  0  0  0  0  0
   10.0999  -17.8501   25.1867 C   0  0  0  0  0  0  0  0  0  0  0  0
    9.6615  -19.0206   25.0929 O   0  0  0  0  0  0  0  0  0  0  0  0
   14.1758  -17.2344   25.5285 O   0  0  0  0  0  0  0  0  0  0  0  0
   13.7323  -18.5103   25.1501 C   0  0  0  0  0  0  0  0  0  0  0  0
   12.3782  -18.8176   25.7326 C   0  0  2  0  0  0  0  0  0  0  0  0
   11.4779  -17.7066   25.4958 N   0  0  0  0  0  0  0  0  0  0  0  0
   12.5465  -19.0857   27.1846 C   0  0  0  0  0  0  0  0  0  0  0  0
   11.9539  -18.3559   28.0146 O   0  0  0  0  0  0  0  0  0  0  0  0
   13.3510  -20.1316   27.5906 O   0  0  0  0  0  0  0  0  0  0  0  0
  2  1  1  0
  3  2  1  0
  3  4  1  6
  5  3  1  0
  5  6  1  1
  7  5  1  0
  8  7  2  0
  9  7  1  0
 10  9  1  0
 11 12  1  0
 10 11  1  1
 12 20  1  0
 12 13  2  0
 13 14  1  0
 15 14  1  0
 15 16  2  0
 17 16  1  0
 18 17  2  0
 19 18  1  0
 19 20  2  0
 20 15  1  0
 21 22  2  0
 21 10  1  0
 25 24  1  1
 24 23  1  0
 25 26  1  0
 26 21  1  0
 27 25  1  0
 28 27  2  0
 29 27  1  0
M  END
$$$$
