IWS.pdb
     RDKit          3D

 29 30  0  0  1  0  0  0  0  0999 V2000
    6.9021  -12.2603   19.3213 C   0  0  0  0  0  0  0  0  0  0  0  0
    7.0172  -13.7332   19.7155 C   0  0  0  0  0  0  0  0  0  0  0  0
    8.0684  -13.9147   20.7929 C   0  0  2  0  0  0  0  0  0  0  0  0
    9.2642  -13.1073   20.4282 C   0  0  0  0  0  0  0  0  0  0  0  0
    8.3205  -15.3306   21.1376 C   0  0  2  0  0  0  0  0  0  0  0  0
    7.0264  -16.0123   21.2034 N   0  0  0  0  0  0  0  0  0  0  0  0
    9.1090  -15.5527   22.3642 C   0  0  0  0  0  0  0  0  0  0  0  0
   10.2714  -15.0823   22.4532 O   0  0  0  0  0  0  0  0  0  0  0  0
    8.6504  -16.2737   23.4826 N   0  0  0  0  0  0  0  0  0  0  0  0
    9.3352  -16.4981   24.7064 C   0  0  1  0  0  0  0  0  0  0  0  0
    8.2644  -16.7003   25.7890 C   0  0  0  0  0  0  0  0  0  0  0  0
    7.2740  -15.5848   25.7234 C   0  0  0  0  0  0  0  0  0  0  0  0
    5.9901  -15.6003   25.2305 C   0  0  0  0  0  0  0  0  0  0  0  0
    5.5087  -14.3560   25.3981 N   0  0  0  0  0  0  0  0  0  0  0  0
    6.4160  -13.5627   25.9669 C   0  0  0  0  0  0  0  0  0  0  0  0
    6.4380  -12.2359   26.3489 C   0  0  0  0  0  0  0  0  0  0  0  0
    7.5443  -11.6528   26.9337 C   0  0  0  0  0  0  0  0  0  0  0  0
    8.6845  -12.3950   27.1581 C   0  0  0  0  0  0  0  0  0  0  0  0
    8.6598  -13.7248   26.7743 C   0  0  0  0  0  0  0  0  0  0  0  0
    7.5516  -14.3100   26.1883 C   0  0  0  0  0  0  0  0  0  0  0  0
   10.3415  -17.5369   24.7115 C   0  0  0  0  0  0  0  0  0  0  0  0
    9.9815  -18.7376   24.7093 O   0  0  0  0  0  0  0  0  0  0  0  0
   14.3236  -16.6076   24.1827 O   0  0  0  0  0  0  0  0  0  0  0  0
   13.9318  -17.9298   23.9259 C   0  0  0  0  0  0  0  0  0  0  0  0
   12.7492  -18.3272   24.7691 C   0  0  2  0  0  0  0  0  0  0  0  0
   11.7391  -17.2888   24.7189 N   0  0  0  0  0  0  0  0  0  0  0  0
   13.2253  -18.5610   26.1573 C   0  0  0  0  0  0  0  0  0  0  0  0
   12.6978  -17.9251   27.1007 O   0  0  0  0  0  0  0  0  0  0  0  0
   14.2377  -19.4726   26.3807 O   0  0  0  0  0  0  0  0  0  0  0  0
  2  1  1  0
  3  2  1  0
  3  4  1  6
  5  3  1  0
  5  6  1  1
  7  5  1  0
  8  7  2  0
  9  7  1  0
 10  9  1  0
 11 12  1  0
 10 11  1  1
 12 20  1  0
 12 13  2  0
 13 14  1  0
 15 14  1  0
 15 16  2  0
 17 16  1  0
 18 17  2  0
 19 18  1  0
 19 20  2  0
 20 15  1  0
 21 22  2  0
 21 10  1  0
 25 24  1  6
 24 23  1  0
 25 26  1  0
 26 21  1  0
 27 25  1  0
 28 27  2  0
 29 27  1  0
M  END
$$$$
