IWS.pdb
     RDKit          3D

 29 30  0  0  1  0  0  0  0  0999 V2000
    6.5019  -12.7769   19.0016 C   0  0  0  0  0  0  0  0  0  0  0  0
    7.0664  -14.1459   19.3826 C   0  0  0  0  0  0  0  0  0  0  0  0
    7.9326  -14.0375   20.6222 C   0  0  2  0  0  0  0  0  0  0  0  0
    8.9291  -12.9527   20.4099 C   0  0  0  0  0  0  0  0  0  0  0  0
    8.4730  -15.3362   21.0789 C   0  0  2  0  0  0  0  0  0  0  0  0
    7.3590  -16.2837   21.1511 N   0  0  0  0  0  0  0  0  0  0  0  0
    9.2294  -15.2973   22.3446 C   0  0  0  0  0  0  0  0  0  0  0  0
   10.2272  -14.5403   22.4527 O   0  0  0  0  0  0  0  0  0  0  0  0
    8.9146  -16.0654   23.4811 N   0  0  0  0  0  0  0  0  0  0  0  0
    9.6677  -16.1848   24.6793 C   0  0  1  0  0  0  0  0  0  0  0  0
    8.6745  -16.5219   25.8015 C   0  0  0  0  0  0  0  0  0  0  0  0
    7.5209  -15.5754   25.7457 C   0  0  0  0  0  0  0  0  0  0  0  0
    6.2567  -15.7862   25.2468 C   0  0  0  0  0  0  0  0  0  0  0  0
    5.5850  -14.6356   25.4281 N   0  0  0  0  0  0  0  0  0  0  0  0
    6.3546  -13.7170   26.0111 C   0  0  0  0  0  0  0  0  0  0  0  0
    6.1665  -12.4085   26.4101 C   0  0  0  0  0  0  0  0  0  0  0  0
    7.1658  -11.6664   27.0074 C   0  0  0  0  0  0  0  0  0  0  0  0
    8.4080  -12.2227   27.2275 C   0  0  0  0  0  0  0  0  0  0  0  0
    8.5940  -13.5346   26.8266 C   0  0  0  0  0  0  0  0  0  0  0  0
    7.5932  -14.2791   26.2281 C   0  0  0  0  0  0  0  0  0  0  0  0
   10.8055  -17.0771   24.6502 C   0  0  0  0  0  0  0  0  0  0  0  0
   10.6197  -18.3101   24.7788 O   0  0  0  0  0  0  0  0  0  0  0  0
   13.1035  -17.5127   21.8535 O   0  0  0  0  0  0  0  0  0  0  0  0
   13.0351  -18.3310   22.9909 C   0  0  0  0  0  0  0  0  0  0  0  0
   13.2654  -17.5411   24.2520 C   0  0  2  0  0  0  0  0  0  0  0  0
   12.1479  -16.6472   24.4826 N   0  0  0  0  0  0  0  0  0  0  0  0
   14.5423  -16.7948   24.1067 C   0  0  0  0  0  0  0  0  0  0  0  0
   14.5210  -15.5409   24.0979 O   0  0  0  0  0  0  0  0  0  0  0  0
   15.7254  -17.4957   23.9846 O   0  0  0  0  0  0  0  0  0  0  0  0
  2  1  1  0
  3  2  1  0
  3  4  1  6
  5  3  1  0
  5  6  1  1
  7  5  1  0
  8  7  2  0
  9  7  1  0
 10  9  1  0
 11 12  1  0
 10 11  1  1
 12 20  1  0
 12 13  2  0
 13 14  1  0
 15 14  1  0
 15 16  2  0
 17 16  1  0
 18 17  2  0
 19 18  1  0
 19 20  2  0
 20 15  1  0
 21 22  2  0
 21 10  1  0
 25 24  1  6
 24 23  1  0
 25 26  1  0
 26 21  1  0
 27 25  1  0
 28 27  2  0
 29 27  1  0
M  END
$$$$
