IWS.pdb
     RDKit          3D

 29 30  0  0  1  0  0  0  0  0999 V2000
    7.8359  -12.0959   19.7685 C   0  0  0  0  0  0  0  0  0  0  0  0
    7.4308  -13.4003   19.0810 C   0  0  0  0  0  0  0  0  0  0  0  0
    8.6589  -14.1783   18.6509 C   0  0  2  0  0  0  0  0  0  0  0  0
    8.7143  -14.1911   17.1637 C   0  0  0  0  0  0  0  0  0  0  0  0
    8.7874  -15.4923   19.3174 C   0  0  2  0  0  0  0  0  0  0  0  0
    7.5859  -16.2700   19.0084 N   0  0  0  0  0  0  0  0  0  0  0  0
    9.0381  -15.4432   20.7701 C   0  0  0  0  0  0  0  0  0  0  0  0
   10.0848  -14.8998   21.2052 O   0  0  0  0  0  0  0  0  0  0  0  0
    8.1709  -15.9740   21.7433 N   0  0  0  0  0  0  0  0  0  0  0  0
    8.3116  -15.9071   23.1550 C   0  0  1  0  0  0  0  0  0  0  0  0
    6.8942  -15.8968   23.7469 C   0  0  0  0  0  0  0  0  0  0  0  0
    6.9599  -15.5125   25.1883 C   0  0  0  0  0  0  0  0  0  0  0  0
    6.9256  -16.3233   26.2987 C   0  0  0  0  0  0  0  0  0  0  0  0
    7.0182  -15.5065   27.3628 N   0  0  0  0  0  0  0  0  0  0  0  0
    7.1084  -14.2321   26.9836 C   0  0  0  0  0  0  0  0  0  0  0  0
    7.2207  -13.0290   27.6520 C   0  0  0  0  0  0  0  0  0  0  0  0
    7.2979  -11.8197   26.9905 C   0  0  0  0  0  0  0  0  0  0  0  0
    7.2644  -11.7775   25.6127 C   0  0  0  0  0  0  0  0  0  0  0  0
    7.1519  -12.9850   24.9450 C   0  0  0  0  0  0  0  0  0  0  0  0
    7.0746  -14.1973   25.6071 C   0  0  0  0  0  0  0  0  0  0  0  0
    9.1710  -16.8921   23.7738 C   0  0  0  0  0  0  0  0  0  0  0  0
    8.9684  -18.1085   23.5490 O   0  0  0  0  0  0  0  0  0  0  0  0
   12.9386  -15.9626   25.1403 O   0  0  0  0  0  0  0  0  0  0  0  0
   12.5601  -17.2726   24.8112 C   0  0  0  0  0  0  0  0  0  0  0  0
   11.1403  -17.5557   25.2251 C   0  0  2  0  0  0  0  0  0  0  0  0
   10.2518  -16.5731   24.6369 N   0  0  0  0  0  0  0  0  0  0  0  0
   11.0753  -17.5330   26.7096 C   0  0  0  0  0  0  0  0  0  0  0  0
   10.3022  -16.7244   27.2763 O   0  0  0  0  0  0  0  0  0  0  0  0
   11.8662  -18.4017   27.4347 O   0  0  0  0  0  0  0  0  0  0  0  0
  2  1  1  0
  3  2  1  0
  3  4  1  6
  5  3  1  0
  5  6  1  1
  7  5  1  0
  8  7  2  0
  9  7  1  0
 10  9  1  0
 11 12  1  0
 10 11  1  1
 12 20  1  0
 12 13  2  0
 13 14  1  0
 15 14  1  0
 15 16  2  0
 17 16  1  0
 18 17  2  0
 19 18  1  0
 19 20  2  0
 20 15  1  0
 21 22  2  0
 21 10  1  0
 25 24  1  1
 24 23  1  0
 25 26  1  0
 26 21  1  0
 27 25  1  0
 28 27  2  0
 29 27  1  0
M  END
$$$$
