IWS.pdb
     RDKit          3D

 29 30  0  0  1  0  0  0  0  0999 V2000
    8.3142  -15.3323   17.2201 C   0  0  0  0  0  0  0  0  0  0  0  0
    7.4100  -15.3150   18.4530 C   0  0  0  0  0  0  0  0  0  0  0  0
    8.2335  -15.1396   19.7139 C   0  0  2  0  0  0  0  0  0  0  0  0
    9.4049  -16.0550   19.6453 C   0  0  0  0  0  0  0  0  0  0  0  0
    7.4316  -15.2020   20.9549 C   0  0  2  0  0  0  0  0  0  0  0  0
    6.3431  -14.2302   20.8335 N   0  0  0  0  0  0  0  0  0  0  0  0
    8.1872  -15.0105   22.2071 C   0  0  0  0  0  0  0  0  0  0  0  0
    8.6345  -13.8724   22.4987 O   0  0  0  0  0  0  0  0  0  0  0  0
    8.4581  -16.0337   23.1348 N   0  0  0  0  0  0  0  0  0  0  0  0
    9.3650  -15.9922   24.2269 C   0  0  1  0  0  0  0  0  0  0  0  0
    8.5553  -16.3044   25.4943 C   0  0  0  0  0  0  0  0  0  0  0  0
    7.4395  -15.3210   25.6266 C   0  0  0  0  0  0  0  0  0  0  0  0
    6.0989  -15.5001   25.3770 C   0  0  0  0  0  0  0  0  0  0  0  0
    5.5064  -14.3236   25.6471 N   0  0  0  0  0  0  0  0  0  0  0  0
    6.3975  -13.4188   26.0510 C   0  0  0  0  0  0  0  0  0  0  0  0
    6.3251  -12.0960   26.4408 C   0  0  0  0  0  0  0  0  0  0  0  0
    7.4392  -11.3749   26.8211 C   0  0  0  0  0  0  0  0  0  0  0  0
    8.6841  -11.9679   26.8227 C   0  0  0  0  0  0  0  0  0  0  0  0
    8.7539  -13.2940   26.4316 C   0  0  0  0  0  0  0  0  0  0  0  0
    7.6380  -14.0174   26.0504 C   0  0  0  0  0  0  0  0  0  0  0  0
   10.5621  -16.7959   24.1136 C   0  0  0  0  0  0  0  0  0  0  0  0
   10.4550  -18.0373   23.9769 O   0  0  0  0  0  0  0  0  0  0  0  0
   14.3081  -15.0090   24.0403 O   0  0  0  0  0  0  0  0  0  0  0  0
   14.1986  -16.2825   23.4624 C   0  0  0  0  0  0  0  0  0  0  0  0
   13.0812  -17.0758   24.0864 C   0  0  2  0  0  0  0  0  0  0  0  0
   11.8793  -16.2678   24.1468 N   0  0  0  0  0  0  0  0  0  0  0  0
   13.5176  -17.5095   25.4391 C   0  0  0  0  0  0  0  0  0  0  0  0
   12.8208  -17.2016   26.4352 O   0  0  0  0  0  0  0  0  0  0  0  0
   14.6803  -18.2420   25.5723 O   0  0  0  0  0  0  0  0  0  0  0  0
  2  1  1  0
  3  2  1  0
  3  4  1  1
  5  3  1  0
  5  6  1  6
  7  5  1  0
  8  7  2  0
  9  7  1  0
 10  9  1  0
 11 12  1  0
 10 11  1  1
 12 20  1  0
 12 13  2  0
 13 14  1  0
 15 14  1  0
 15 16  2  0
 17 16  1  0
 18 17  2  0
 19 18  1  0
 19 20  2  0
 20 15  1  0
 21 22  2  0
 21 10  1  0
 25 24  1  1
 24 23  1  0
 25 26  1  0
 26 21  1  0
 27 25  1  0
 28 27  2  0
 29 27  1  0
M  END
$$$$
