IWS.pdb
     RDKit          3D

 29 30  0  0  1  0  0  0  0  0999 V2000
    6.8091  -12.5524   19.5654 C   0  0  0  0  0  0  0  0  0  0  0  0
    7.4192  -13.9407   19.7615 C   0  0  0  0  0  0  0  0  0  0  0  0
    8.0047  -14.0723   21.1539 C   0  0  2  0  0  0  0  0  0  0  0  0
    8.8995  -12.9094   21.4029 C   0  0  0  0  0  0  0  0  0  0  0  0
    8.5815  -15.4064   21.4269 C   0  0  2  0  0  0  0  0  0  0  0  0
    7.5407  -16.4043   21.1723 N   0  0  0  0  0  0  0  0  0  0  0  0
    9.1750  -15.5773   22.7664 C   0  0  0  0  0  0  0  0  0  0  0  0
   10.1431  -14.8561   23.1171 O   0  0  0  0  0  0  0  0  0  0  0  0
    8.7308  -16.5150   23.7173 N   0  0  0  0  0  0  0  0  0  0  0  0
    9.2775  -16.7666   25.0037 C   0  0  1  0  0  0  0  0  0  0  0  0
    8.0982  -16.8442   25.9849 C   0  0  0  0  0  0  0  0  0  0  0  0
    7.2175  -15.6528   25.7994 C   0  0  0  0  0  0  0  0  0  0  0  0
    5.9673  -15.5857   25.2300 C   0  0  0  0  0  0  0  0  0  0  0  0
    5.5912  -14.2967   25.3013 N   0  0  0  0  0  0  0  0  0  0  0  0
    6.5326  -13.5532   25.8818 C   0  0  0  0  0  0  0  0  0  0  0  0
    6.6523  -12.2133   26.1934 C   0  0  0  0  0  0  0  0  0  0  0  0
    7.7718  -11.6952   26.8133 C   0  0  0  0  0  0  0  0  0  0  0  0
    8.8260  -12.5190   27.1466 C   0  0  0  0  0  0  0  0  0  0  0  0
    8.7035  -13.8618   26.8332 C   0  0  0  0  0  0  0  0  0  0  0  0
    7.5820  -14.3819   26.2120 C   0  0  0  0  0  0  0  0  0  0  0  0
   10.1807  -17.8899   25.1219 C   0  0  0  0  0  0  0  0  0  0  0  0
    9.7668  -19.0399   24.8435 O   0  0  0  0  0  0  0  0  0  0  0  0
   14.2465  -17.3869   25.5507 O   0  0  0  0  0  0  0  0  0  0  0  0
   13.7609  -18.6494   25.1793 C   0  0  0  0  0  0  0  0  0  0  0  0
   12.4045  -18.9150   25.7768 C   0  0  2  0  0  0  0  0  0  0  0  0
   11.5329  -17.7813   25.5400 N   0  0  0  0  0  0  0  0  0  0  0  0
   12.5792  -19.1770   27.2292 C   0  0  0  0  0  0  0  0  0  0  0  0
   13.3351  -20.1076   27.5969 O   0  0  0  0  0  0  0  0  0  0  0  0
   11.9067  -18.3915   28.1439 O   0  0  0  0  0  0  0  0  0  0  0  0
  2  1  1  0
  3  2  1  0
  3  4  1  6
  5  3  1  0
  5  6  1  1
  7  5  1  0
  8  7  2  0
  9  7  1  0
 10  9  1  0
 11 12  1  0
 10 11  1  1
 12 20  1  0
 12 13  2  0
 13 14  1  0
 15 14  1  0
 15 16  2  0
 17 16  1  0
 18 17  2  0
 19 18  1  0
 19 20  2  0
 20 15  1  0
 21 22  2  0
 21 10  1  0
 25 24  1  1
 24 23  1  0
 25 26  1  0
 26 21  1  0
 27 25  1  0
 28 27  2  0
 29 27  1  0
M  END
$$$$
