IWS.pdb
     RDKit          3D

 29 30  0  0  1  0  0  0  0  0999 V2000
    7.0988  -12.2071   19.5619 C   0  0  0  0  0  0  0  0  0  0  0  0
    7.3120  -13.7042   19.7886 C   0  0  0  0  0  0  0  0  0  0  0  0
    8.3019  -13.9359   20.9134 C   0  0  2  0  0  0  0  0  0  0  0  0
    9.5241  -13.1314   20.6414 C   0  0  0  0  0  0  0  0  0  0  0  0
    8.5201  -15.3659   21.2210 C   0  0  2  0  0  0  0  0  0  0  0  0
    7.2408  -16.0589   21.0575 N   0  0  0  0  0  0  0  0  0  0  0  0
    9.1192  -15.6454   22.5396 C   0  0  0  0  0  0  0  0  0  0  0  0
   10.2254  -15.1321   22.8444 O   0  0  0  0  0  0  0  0  0  0  0  0
    8.5329  -16.4690   23.5189 N   0  0  0  0  0  0  0  0  0  0  0  0
    9.0499  -16.7872   24.8028 C   0  0  1  0  0  0  0  0  0  0  0  0
    7.8573  -16.8227   25.7703 C   0  0  0  0  0  0  0  0  0  0  0  0
    7.1459  -15.5105   25.7312 C   0  0  0  0  0  0  0  0  0  0  0  0
    5.9317  -15.2052   25.1620 C   0  0  0  0  0  0  0  0  0  0  0  0
    5.7259  -13.8970   25.3956 N   0  0  0  0  0  0  0  0  0  0  0  0
    6.7401  -13.3658   26.0776 C   0  0  0  0  0  0  0  0  0  0  0  0
    7.0257  -12.1044   26.5614 C   0  0  0  0  0  0  0  0  0  0  0  0
    8.1858  -11.8234   27.2552 C   0  0  0  0  0  0  0  0  0  0  0  0
    9.1132  -12.8162   27.4902 C   0  0  0  0  0  0  0  0  0  0  0  0
    8.8245  -14.0799   27.0042 C   0  0  0  0  0  0  0  0  0  0  0  0
    7.6622  -14.3624   26.3089 C   0  0  0  0  0  0  0  0  0  0  0  0
    9.8850  -17.9642   24.8981 C   0  0  0  0  0  0  0  0  0  0  0  0
    9.3702  -19.0948   24.7309 O   0  0  0  0  0  0  0  0  0  0  0  0
   13.9751  -17.7599   24.6277 O   0  0  0  0  0  0  0  0  0  0  0  0
   13.3222  -18.9859   24.4315 C   0  0  0  0  0  0  0  0  0  0  0  0
   12.1076  -19.1099   25.3128 C   0  0  2  0  0  0  0  0  0  0  0  0
   11.2771  -17.9302   25.1735 N   0  0  0  0  0  0  0  0  0  0  0  0
   12.5666  -19.2936   26.7143 C   0  0  0  0  0  0  0  0  0  0  0  0
   12.2517  -18.4412   27.5784 O   0  0  0  0  0  0  0  0  0  0  0  0
   13.3298  -20.3979   27.0369 O   0  0  0  0  0  0  0  0  0  0  0  0
  2  1  1  0
  3  2  1  0
  3  4  1  6
  5  3  1  0
  5  6  1  1
  7  5  1  0
  8  7  2  0
  9  7  1  0
 10  9  1  0
 11 12  1  0
 10 11  1  1
 12 20  1  0
 12 13  2  0
 13 14  1  0
 15 14  1  0
 15 16  2  0
 17 16  1  0
 18 17  2  0
 19 18  1  0
 19 20  2  0
 20 15  1  0
 21 22  2  0
 21 10  1  0
 25 24  1  6
 24 23  1  0
 25 26  1  0
 26 21  1  0
 27 25  1  0
 28 27  2  0
 29 27  1  0
M  END
$$$$
