IWS.pdb
     RDKit          3D

 29 30  0  0  1  0  0  0  0  0999 V2000
    8.0839  -11.9090   20.8071 C   0  0  0  0  0  0  0  0  0  0  0  0
    8.0517  -13.1701   21.6713 C   0  0  0  0  0  0  0  0  0  0  0  0
    8.2637  -14.4051   20.8178 C   0  0  2  0  0  0  0  0  0  0  0  0
    7.2548  -14.4033   19.7237 C   0  0  0  0  0  0  0  0  0  0  0  0
    8.3681  -15.6536   21.6036 C   0  0  2  0  0  0  0  0  0  0  0  0
    7.0539  -15.9247   22.1894 N   0  0  0  0  0  0  0  0  0  0  0  0
    9.4283  -15.6692   22.6291 C   0  0  0  0  0  0  0  0  0  0  0  0
   10.6296  -15.5260   22.2876 O   0  0  0  0  0  0  0  0  0  0  0  0
    9.1967  -15.8375   24.0071 N   0  0  0  0  0  0  0  0  0  0  0  0
   10.1659  -15.9921   25.0337 C   0  0  1  0  0  0  0  0  0  0  0  0
    9.5413  -15.4453   26.3261 C   0  0  0  0  0  0  0  0  0  0  0  0
    8.1366  -15.0164   26.0570 C   0  0  0  0  0  0  0  0  0  0  0  0
    7.0490  -15.7887   25.7220 C   0  0  0  0  0  0  0  0  0  0  0  0
    6.0138  -14.9410   25.5879 N   0  0  0  0  0  0  0  0  0  0  0  0
    6.3897  -13.6836   25.8193 C   0  0  0  0  0  0  0  0  0  0  0  0
    5.7426  -12.4638   25.8156 C   0  0  0  0  0  0  0  0  0  0  0  0
    6.3939  -11.2801   26.0999 C   0  0  0  0  0  0  0  0  0  0  0  0
    7.7392  -11.2819   26.4023 C   0  0  0  0  0  0  0  0  0  0  0  0
    8.3855  -12.5061   26.4054 C   0  0  0  0  0  0  0  0  0  0  0  0
    7.7337  -13.6928   26.1207 C   0  0  0  0  0  0  0  0  0  0  0  0
   10.7369  -17.3104   25.2005 C   0  0  0  0  0  0  0  0  0  0  0  0
   10.8090  -17.8051   26.3500 O   0  0  0  0  0  0  0  0  0  0  0  0
   12.6060  -19.1774   21.9959 O   0  0  0  0  0  0  0  0  0  0  0  0
   12.1130  -20.0409   22.9853 C   0  0  0  0  0  0  0  0  0  0  0  0
   11.9706  -19.3372   24.3089 C   0  0  2  0  0  0  0  0  0  0  0  0
   11.2327  -18.1023   24.1318 N   0  0  0  0  0  0  0  0  0  0  0  0
   13.3313  -19.0887   24.8523 C   0  0  0  0  0  0  0  0  0  0  0  0
   13.6922  -17.9102   25.0839 O   0  0  0  0  0  0  0  0  0  0  0  0
   14.1701  -20.1588   25.0912 O   0  0  0  0  0  0  0  0  0  0  0  0
  2  1  1  0
  3  2  1  0
  3  4  1  6
  5  3  1  0
  5  6  1  1
  7  5  1  0
  8  7  2  0
  9  7  1  0
 10  9  1  0
 11 12  1  0
 10 11  1  1
 12 20  1  0
 12 13  2  0
 13 14  1  0
 15 14  1  0
 15 16  2  0
 17 16  1  0
 18 17  2  0
 19 18  1  0
 19 20  2  0
 20 15  1  0
 21 22  2  0
 21 10  1  0
 25 24  1  6
 24 23  1  0
 25 26  1  0
 26 21  1  0
 27 25  1  0
 28 27  2  0
 29 27  1  0
M  END
$$$$
