IWS.pdb
     RDKit          3D

 29 30  0  0  1  0  0  0  0  0999 V2000
    7.8845  -11.9605   20.3915 C   0  0  0  0  0  0  0  0  0  0  0  0
    7.8642  -13.3047   21.1200 C   0  0  0  0  0  0  0  0  0  0  0  0
    8.3346  -14.4148   20.2007 C   0  0  2  0  0  0  0  0  0  0  0  0
    7.5046  -14.3901   18.9656 C   0  0  0  0  0  0  0  0  0  0  0  0
    8.4582  -15.7254   20.8747 C   0  0  2  0  0  0  0  0  0  0  0  0
    7.1088  -16.1867   21.2066 N   0  0  0  0  0  0  0  0  0  0  0  0
    9.3410  -15.7488   22.0561 C   0  0  0  0  0  0  0  0  0  0  0  0
   10.5341  -15.3667   21.9518 O   0  0  0  0  0  0  0  0  0  0  0  0
    8.9430  -16.1793   23.3356 N   0  0  0  0  0  0  0  0  0  0  0  0
    9.7301  -16.2210   24.5170 C   0  0  1  0  0  0  0  0  0  0  0  0
    8.7683  -16.4723   25.6880 C   0  0  0  0  0  0  0  0  0  0  0  0
    7.6271  -15.5126   25.6092 C   0  0  0  0  0  0  0  0  0  0  0  0
    6.3390  -15.7386   25.1833 C   0  0  0  0  0  0  0  0  0  0  0  0
    5.6927  -14.5657   25.3039 N   0  0  0  0  0  0  0  0  0  0  0  0
    6.5006  -13.6189   25.7802 C   0  0  0  0  0  0  0  0  0  0  0  0
    6.3492  -12.2805   26.0846 C   0  0  0  0  0  0  0  0  0  0  0  0
    7.3847  -11.5127   26.5788 C   0  0  0  0  0  0  0  0  0  0  0  0
    8.6274  -12.0724   26.7873 C   0  0  0  0  0  0  0  0  0  0  0  0
    8.7765  -13.4143   26.4814 C   0  0  0  0  0  0  0  0  0  0  0  0
    7.7394  -14.1846   25.9862 C   0  0  0  0  0  0  0  0  0  0  0  0
   10.8618  -17.1216   24.5172 C   0  0  0  0  0  0  0  0  0  0  0  0
   10.6594  -18.3586   24.5143 O   0  0  0  0  0  0  0  0  0  0  0  0
   14.7636  -15.6555   24.3276 O   0  0  0  0  0  0  0  0  0  0  0  0
   14.5090  -16.9250   23.7879 C   0  0  0  0  0  0  0  0  0  0  0  0
   13.3516  -17.5952   24.4798 C   0  0  2  0  0  0  0  0  0  0  0  0
   12.2159  -16.6955   24.5204 N   0  0  0  0  0  0  0  0  0  0  0  0
   13.7891  -17.9862   25.8451 C   0  0  0  0  0  0  0  0  0  0  0  0
   13.1463  -17.5678   26.8373 O   0  0  0  0  0  0  0  0  0  0  0  0
   14.8933  -18.8014   25.9941 O   0  0  0  0  0  0  0  0  0  0  0  0
  2  1  1  0
  3  2  1  0
  3  4  1  6
  5  3  1  0
  5  6  1  1
  7  5  1  0
  8  7  2  0
  9  7  1  0
 10  9  1  0
 11 12  1  0
 10 11  1  1
 12 20  1  0
 12 13  2  0
 13 14  1  0
 15 14  1  0
 15 16  2  0
 17 16  1  0
 18 17  2  0
 19 18  1  0
 19 20  2  0
 20 15  1  0
 21 22  2  0
 21 10  1  0
 25 24  1  1
 24 23  1  0
 25 26  1  0
 26 21  1  0
 27 25  1  0
 28 27  2  0
 29 27  1  0
M  END
$$$$
