IWS.pdb
     RDKit          3D

 29 30  0  0  1  0  0  0  0  0999 V2000
    6.5589  -12.2613   19.4273 C   0  0  0  0  0  0  0  0  0  0  0  0
    6.9299  -13.7137   19.7290 C   0  0  0  0  0  0  0  0  0  0  0  0
    7.8705  -13.7866   20.9159 C   0  0  2  0  0  0  0  0  0  0  0  0
    8.9750  -12.8116   20.7051 C   0  0  0  0  0  0  0  0  0  0  0  0
    8.2779  -15.1658   21.2610 C   0  0  2  0  0  0  0  0  0  0  0  0
    7.0609  -15.9541   21.4643 N   0  0  0  0  0  0  0  0  0  0  0  0
    9.1954  -15.2860   22.4097 C   0  0  0  0  0  0  0  0  0  0  0  0
   10.3150  -14.7154   22.3771 O   0  0  0  0  0  0  0  0  0  0  0  0
    8.9099  -16.0132   23.5804 N   0  0  0  0  0  0  0  0  0  0  0  0
    9.7351  -16.1649   24.7264 C   0  0  1  0  0  0  0  0  0  0  0  0
    8.8088  -16.5008   25.9047 C   0  0  0  0  0  0  0  0  0  0  0  0
    7.6166  -15.6023   25.8721 C   0  0  0  0  0  0  0  0  0  0  0  0
    6.3239  -15.8987   25.5076 C   0  0  0  0  0  0  0  0  0  0  0  0
    5.6234  -14.7598   25.6500 N   0  0  0  0  0  0  0  0  0  0  0  0
    6.4017  -13.7681   26.0821 C   0  0  0  0  0  0  0  0  0  0  0  0
    6.1947  -12.4367   26.3841 C   0  0  0  0  0  0  0  0  0  0  0  0
    7.2101  -11.6116   26.8248 C   0  0  0  0  0  0  0  0  0  0  0  0
    8.4886  -12.1043   26.9796 C   0  0  0  0  0  0  0  0  0  0  0  0
    8.6934  -13.4394   26.6762 C   0  0  0  0  0  0  0  0  0  0  0  0
    7.6765  -14.2669   26.2346 C   0  0  0  0  0  0  0  0  0  0  0  0
   10.8512  -17.0775   24.6121 C   0  0  0  0  0  0  0  0  0  0  0  0
   10.6723  -18.2956   24.8476 O   0  0  0  0  0  0  0  0  0  0  0  0
   14.7322  -15.7309   23.7097 O   0  0  0  0  0  0  0  0  0  0  0  0
   14.3247  -16.9709   23.1959 C   0  0  0  0  0  0  0  0  0  0  0  0
   13.2685  -17.6053   24.0616 C   0  0  2  0  0  0  0  0  0  0  0  0
   12.1645  -16.6839   24.2442 N   0  0  0  0  0  0  0  0  0  0  0  0
   13.8916  -17.9767   25.3586 C   0  0  0  0  0  0  0  0  0  0  0  0
   14.9067  -18.7130   25.3616 O   0  0  0  0  0  0  0  0  0  0  0  0
   13.3412  -17.5042   26.5333 O   0  0  0  0  0  0  0  0  0  0  0  0
  2  1  1  0
  3  2  1  0
  3  4  1  6
  5  3  1  0
  5  6  1  1
  7  5  1  0
  8  7  2  0
  9  7  1  0
 10  9  1  0
 11 12  1  0
 10 11  1  1
 12 20  1  0
 12 13  2  0
 13 14  1  0
 15 14  1  0
 15 16  2  0
 17 16  1  0
 18 17  2  0
 19 18  1  0
 19 20  2  0
 20 15  1  0
 21 22  2  0
 21 10  1  0
 25 24  1  6
 24 23  1  0
 25 26  1  0
 26 21  1  0
 27 25  1  0
 28 27  2  0
 29 27  1  0
M  END
$$$$
