IWS.pdb
     RDKit          3D

 29 30  0  0  1  0  0  0  0  0999 V2000
    7.7465  -19.4899   16.6785 C   0  0  0  0  0  0  0  0  0  0  0  0
    7.6963  -17.9897   16.9698 C   0  0  0  0  0  0  0  0  0  0  0  0
    8.2459  -17.6979   18.3524 C   0  0  2  0  0  0  0  0  0  0  0  0
    7.6557  -18.6709   19.3114 C   0  0  0  0  0  0  0  0  0  0  0  0
    8.1543  -16.2720   18.7340 C   0  0  2  0  0  0  0  0  0  0  0  0
    8.8505  -15.4894   17.7109 N   0  0  0  0  0  0  0  0  0  0  0  0
    8.6437  -15.9461   20.0868 C   0  0  0  0  0  0  0  0  0  0  0  0
    9.8795  -15.9269   20.3160 O   0  0  0  0  0  0  0  0  0  0  0  0
    7.8108  -15.6444   21.1806 N   0  0  0  0  0  0  0  0  0  0  0  0
    8.2014  -15.4137   22.5264 C   0  0  1  0  0  0  0  0  0  0  0  0
    6.9754  -14.8476   23.2584 C   0  0  0  0  0  0  0  0  0  0  0  0
    7.3275  -14.5794   24.6845 C   0  0  0  0  0  0  0  0  0  0  0  0
    7.8953  -15.4278   25.6061 C   0  0  0  0  0  0  0  0  0  0  0  0
    8.0153  -14.7204   26.7434 N   0  0  0  0  0  0  0  0  0  0  0  0
    7.5560  -13.4791   26.5875 C   0  0  0  0  0  0  0  0  0  0  0  0
    7.4476  -12.3767   27.4119 C   0  0  0  0  0  0  0  0  0  0  0  0
    6.9157  -11.1786   26.9787 C   0  0  0  0  0  0  0  0  0  0  0  0
    6.4675  -11.0453   25.6816 C   0  0  0  0  0  0  0  0  0  0  0  0
    6.5774  -12.1520   24.8572 C   0  0  0  0  0  0  0  0  0  0  0  0
    7.1103  -13.3530   25.2904 C   0  0  0  0  0  0  0  0  0  0  0  0
    8.8126  -16.5205   23.2286 C   0  0  0  0  0  0  0  0  0  0  0  0
    8.1568  -17.5754   23.3971 O   0  0  0  0  0  0  0  0  0  0  0  0
   12.7853  -16.7071   23.3170 O   0  0  0  0  0  0  0  0  0  0  0  0
   12.0896  -17.9024   23.5521 C   0  0  0  0  0  0  0  0  0  0  0  0
   10.8084  -17.6549   24.3033 C   0  0  2  0  0  0  0  0  0  0  0  0
   10.1317  -16.4975   23.7526 N   0  0  0  0  0  0  0  0  0  0  0  0
   11.1407  -17.4628   25.7390 C   0  0  0  0  0  0  0  0  0  0  0  0
   10.7949  -16.4016   26.3108 O   0  0  0  0  0  0  0  0  0  0  0  0
   11.8226  -18.4554   26.4142 O   0  0  0  0  0  0  0  0  0  0  0  0
  2  1  1  0
  3  2  1  0
  3  4  1  1
  5  3  1  0
  5  6  1  6
  7  5  1  0
  8  7  2  0
  9  7  1  0
 10  9  1  0
 11 12  1  0
 10 11  1  1
 12 20  1  0
 12 13  2  0
 13 14  1  0
 15 14  1  0
 15 16  2  0
 17 16  1  0
 18 17  2  0
 19 18  1  0
 19 20  2  0
 20 15  1  0
 21 22  2  0
 21 10  1  0
 25 24  1  6
 24 23  1  0
 25 26  1  0
 26 21  1  0
 27 25  1  0
 28 27  2  0
 29 27  1  0
M  END
$$$$
