IWS.pdb
     RDKit          3D

 29 30  0  0  1  0  0  0  0  0999 V2000
   11.4245  -18.6111   17.4098 C   0  0  0  0  0  0  0  0  0  0  0  0
   10.2274  -17.8628   17.9972 C   0  0  0  0  0  0  0  0  0  0  0  0
   10.5406  -17.3752   19.3983 C   0  0  2  0  0  0  0  0  0  0  0  0
   11.1655  -18.4912   20.1591 C   0  0  0  0  0  0  0  0  0  0  0  0
    9.4013  -16.6986   20.0551 C   0  0  2  0  0  0  0  0  0  0  0  0
    8.9699  -15.6027   19.1851 N   0  0  0  0  0  0  0  0  0  0  0  0
    9.6521  -16.2276   21.4302 C   0  0  0  0  0  0  0  0  0  0  0  0
   10.4652  -15.2900   21.6306 O   0  0  0  0  0  0  0  0  0  0  0  0
    9.0341  -16.7610   22.5767 N   0  0  0  0  0  0  0  0  0  0  0  0
    9.2969  -16.4308   23.9328 C   0  0  1  0  0  0  0  0  0  0  0  0
    7.9370  -16.3143   24.6376 C   0  0  0  0  0  0  0  0  0  0  0  0
    7.3730  -14.9509   24.4079 C   0  0  0  0  0  0  0  0  0  0  0  0
    6.6890  -14.4744   23.3139 C   0  0  0  0  0  0  0  0  0  0  0  0
    6.3900  -13.1923   23.5875 N   0  0  0  0  0  0  0  0  0  0  0  0
    6.8468  -12.8384   24.7884 C   0  0  0  0  0  0  0  0  0  0  0  0
    6.8136  -11.6756   25.5324 C   0  0  0  0  0  0  0  0  0  0  0  0
    7.3839  -11.5832   26.7863 C   0  0  0  0  0  0  0  0  0  0  0  0
    8.0171  -12.6736   27.3442 C   0  0  0  0  0  0  0  0  0  0  0  0
    8.0489  -13.8381   26.5963 C   0  0  0  0  0  0  0  0  0  0  0  0
    7.4777  -13.9316   25.3398 C   0  0  0  0  0  0  0  0  0  0  0  0
   10.2266  -17.2802   24.6441 C   0  0  0  0  0  0  0  0  0  0  0  0
   10.0012  -18.5113   24.7128 O   0  0  0  0  0  0  0  0  0  0  0  0
   13.5539  -15.6681   26.5866 O   0  0  0  0  0  0  0  0  0  0  0  0
   13.6648  -16.9864   26.1201 C   0  0  0  0  0  0  0  0  0  0  0  0
   12.3177  -17.6527   26.0273 C   0  0  2  0  0  0  0  0  0  0  0  0
   11.4025  -16.8090   25.2845 N   0  0  0  0  0  0  0  0  0  0  0  0
   11.8290  -17.9078   27.4074 C   0  0  0  0  0  0  0  0  0  0  0  0
   10.7133  -17.4533   27.7556 O   0  0  0  0  0  0  0  0  0  0  0  0
   12.6120  -18.6394   28.2778 O   0  0  0  0  0  0  0  0  0  0  0  0
  2  1  1  0
  3  2  1  0
  3  4  1  1
  5  3  1  0
  5  6  1  6
  7  5  1  0
  8  7  2  0
  9  7  1  0
 10  9  1  0
 11 12  1  0
 10 11  1  1
 12 20  1  0
 12 13  2  0
 13 14  1  0
 15 14  1  0
 15 16  2  0
 17 16  1  0
 18 17  2  0
 19 18  1  0
 19 20  2  0
 20 15  1  0
 21 22  2  0
 21 10  1  0
 25 24  1  1
 24 23  1  0
 25 26  1  0
 26 21  1  0
 27 25  1  0
 28 27  2  0
 29 27  1  0
M  END
$$$$
