IWS.pdb
     RDKit          3D

 29 30  0  0  1  0  0  0  0  0999 V2000
    7.2449  -12.1209   17.6281 C   0  0  0  0  0  0  0  0  0  0  0  0
    7.6483  -13.5555   17.9705 C   0  0  0  0  0  0  0  0  0  0  0  0
    8.1056  -13.6494   19.4130 C   0  0  2  0  0  0  0  0  0  0  0  0
    9.0924  -12.5649   19.6681 C   0  0  0  0  0  0  0  0  0  0  0  0
    8.5194  -15.0119   19.8125 C   0  0  2  0  0  0  0  0  0  0  0  0
    7.4036  -15.9180   19.5337 N   0  0  0  0  0  0  0  0  0  0  0  0
    8.9889  -15.1482   21.2042 C   0  0  0  0  0  0  0  0  0  0  0  0
   10.1403  -14.7521   21.5164 O   0  0  0  0  0  0  0  0  0  0  0  0
    8.2265  -15.7054   22.2478 N   0  0  0  0  0  0  0  0  0  0  0  0
    8.5721  -15.7857   23.6229 C   0  0  1  0  0  0  0  0  0  0  0  0
    7.2567  -15.7964   24.4161 C   0  0  0  0  0  0  0  0  0  0  0  0
    7.4964  -15.2484   25.7842 C   0  0  0  0  0  0  0  0  0  0  0  0
    7.9556  -15.8997   26.9052 C   0  0  0  0  0  0  0  0  0  0  0  0
    8.0033  -14.9771   27.8822 N   0  0  0  0  0  0  0  0  0  0  0  0
    7.6008  -13.7867   27.4386 C   0  0  0  0  0  0  0  0  0  0  0  0
    7.4606  -12.5376   28.0103 C   0  0  0  0  0  0  0  0  0  0  0  0
    7.0078  -11.4448   27.2984 C   0  0  0  0  0  0  0  0  0  0  0  0
    6.6751  -11.5720   25.9663 C   0  0  0  0  0  0  0  0  0  0  0  0
    6.8167  -12.8253   25.3956 C   0  0  0  0  0  0  0  0  0  0  0  0
    7.2704  -13.9208   26.1082 C   0  0  0  0  0  0  0  0  0  0  0  0
    9.4697  -16.8516   24.0103 C   0  0  0  0  0  0  0  0  0  0  0  0
    9.1738  -18.0354   23.7233 O   0  0  0  0  0  0  0  0  0  0  0  0
   13.4409  -16.1809   24.9421 O   0  0  0  0  0  0  0  0  0  0  0  0
   12.9685  -17.4380   24.5367 C   0  0  0  0  0  0  0  0  0  0  0  0
   11.5951  -17.7143   25.0887 C   0  0  2  0  0  0  0  0  0  0  0  0
   10.6892  -16.6488   24.7079 N   0  0  0  0  0  0  0  0  0  0  0  0
   11.7038  -17.8385   26.5656 C   0  0  0  0  0  0  0  0  0  0  0  0
   11.0818  -17.0304   27.2954 O   0  0  0  0  0  0  0  0  0  0  0  0
   12.4866  -18.8400   27.1045 O   0  0  0  0  0  0  0  0  0  0  0  0
  2  1  1  0
  3  2  1  0
  3  4  1  6
  5  3  1  0
  5  6  1  1
  7  5  1  0
  8  7  2  0
  9  7  1  0
 10  9  1  0
 11 12  1  0
 10 11  1  1
 12 20  1  0
 12 13  2  0
 13 14  1  0
 15 14  1  0
 15 16  2  0
 17 16  1  0
 18 17  2  0
 19 18  1  0
 19 20  2  0
 20 15  1  0
 21 22  2  0
 21 10  1  0
 25 24  1  6
 24 23  1  0
 25 26  1  0
 26 21  1  0
 27 25  1  0
 28 27  2  0
 29 27  1  0
M  END
$$$$
