IWS.pdb
     RDKit          3D

 29 30  0  0  1  0  0  0  0  0999 V2000
    6.3715  -12.6978   19.1434 C   0  0  0  0  0  0  0  0  0  0  0  0
    6.8737  -14.1005   19.4874 C   0  0  0  0  0  0  0  0  0  0  0  0
    7.8370  -14.0483   20.6570 C   0  0  2  0  0  0  0  0  0  0  0  0
    8.8809  -13.0285   20.3652 C   0  0  0  0  0  0  0  0  0  0  0  0
    8.3275  -15.3790   21.0763 C   0  0  2  0  0  0  0  0  0  0  0  0
    7.1609  -16.2307   21.3156 N   0  0  0  0  0  0  0  0  0  0  0  0
    9.2419  -15.3807   22.2337 C   0  0  0  0  0  0  0  0  0  0  0  0
   10.3319  -14.7578   22.1694 O   0  0  0  0  0  0  0  0  0  0  0  0
    8.9848  -16.0463   23.4469 N   0  0  0  0  0  0  0  0  0  0  0  0
    9.8262  -16.1171   24.5889 C   0  0  1  0  0  0  0  0  0  0  0  0
    8.9233  -16.4254   25.7927 C   0  0  0  0  0  0  0  0  0  0  0  0
    7.6956  -15.5784   25.7235 C   0  0  0  0  0  0  0  0  0  0  0  0
    6.4340  -15.9228   25.2977 C   0  0  0  0  0  0  0  0  0  0  0  0
    5.6789  -14.8179   25.4290 N   0  0  0  0  0  0  0  0  0  0  0  0
    6.3939  -13.8023   25.9120 C   0  0  0  0  0  0  0  0  0  0  0  0
    6.1162  -12.4870   26.2278 C   0  0  0  0  0  0  0  0  0  0  0  0
    7.0748  -11.6279   26.7268 C   0  0  0  0  0  0  0  0  0  0  0  0
    8.3657  -12.0682   26.9289 C   0  0  0  0  0  0  0  0  0  0  0  0
    8.6415  -13.3872   26.6116 C   0  0  0  0  0  0  0  0  0  0  0  0
    7.6815  -14.2489   26.1115 C   0  0  0  0  0  0  0  0  0  0  0  0
   10.9697  -16.9987   24.5048 C   0  0  0  0  0  0  0  0  0  0  0  0
   10.7873  -18.2388   24.4993 O   0  0  0  0  0  0  0  0  0  0  0  0
   14.9192  -15.5291   24.1064 O   0  0  0  0  0  0  0  0  0  0  0  0
   14.5415  -16.7380   23.5034 C   0  0  0  0  0  0  0  0  0  0  0  0
   13.4581  -17.4296   24.2878 C   0  0  2  0  0  0  0  0  0  0  0  0
   12.3142  -16.5502   24.4262 N   0  0  0  0  0  0  0  0  0  0  0  0
   14.0154  -17.8148   25.6105 C   0  0  0  0  0  0  0  0  0  0  0  0
   13.4173  -17.4593   26.6539 O   0  0  0  0  0  0  0  0  0  0  0  0
   15.1791  -18.5556   25.6645 O   0  0  0  0  0  0  0  0  0  0  0  0
  2  1  1  0
  3  2  1  0
  3  4  1  6
  5  3  1  0
  5  6  1  1
  7  5  1  0
  8  7  2  0
  9  7  1  0
 10  9  1  0
 11 12  1  0
 10 11  1  1
 12 20  1  0
 12 13  2  0
 13 14  1  0
 15 14  1  0
 15 16  2  0
 17 16  1  0
 18 17  2  0
 19 18  1  0
 19 20  2  0
 20 15  1  0
 21 22  2  0
 21 10  1  0
 25 24  1  6
 24 23  1  0
 25 26  1  0
 26 21  1  0
 27 25  1  0
 28 27  2  0
 29 27  1  0
M  END
$$$$
