RPT.pdb
     RDKit          3D

 26 26  0  0  1  0  0  0  0  0999 V2000
    8.3723  -21.2838   23.3103 N   0  0  0  0  0  0  0  0  0  0  0  0
    7.5314  -20.3683   22.5865 C   0  0  0  0  0  0  0  0  0  0  0  0
    7.5597  -20.4145   21.3154 N   0  0  0  0  0  0  0  0  0  0  0  0
    6.6864  -19.4320   23.2260 N   0  0  0  0  0  0  0  0  0  0  0  0
    5.8185  -18.6092   22.4553 C   0  0  0  0  0  0  0  0  0  0  0  0
    6.4517  -17.3049   22.0248 C   0  0  0  0  0  0  0  0  0  0  0  0
    7.1959  -16.6481   23.1570 C   0  0  0  0  0  0  0  0  0  0  0  0
    7.8868  -15.3703   22.7161 C   0  0  2  0  0  0  0  0  0  0  0  0
    8.6771  -15.5285   21.5568 N   0  0  0  0  0  0  0  0  0  0  0  0
    8.5488  -14.6890   23.8253 C   0  0  0  0  0  0  0  0  0  0  0  0
    9.7638  -15.0455   24.0438 O   0  0  0  0  0  0  0  0  0  0  0  0
    6.9975  -19.8245   20.6722 N   0  0  0  0  0  0  0  0  0  0  0  0
    8.0165  -13.6797   24.6917 C   0  0  0  0  0  0  0  0  0  0  0  0
    6.9387  -12.8157   24.3318 C   0  0  0  0  0  0  0  0  0  0  0  0
    6.2598  -12.5051   25.6751 C   0  0  0  0  0  0  0  0  0  0  0  0
    7.4547  -12.4298   26.5903 C   0  0  2  0  0  0  0  0  0  0  0  0
    8.4639  -13.3784   26.0211 C   0  0  0  0  0  0  0  0  0  0  0  0
    8.5242  -14.5467   26.9133 O   0  0  0  0  0  0  0  0  0  0  0  0
    7.5242  -15.2556   27.1219 C   0  0  0  0  0  0  0  0  0  0  0  0
   10.3545  -17.6196   26.5933 C   0  0  2  0  0  0  0  0  0  0  0  0
   10.8911  -16.9458   27.8139 O   0  0  0  0  0  0  0  0  0  0  0  0
   12.0847  -16.2841   27.5251 C   0  0  2  0  0  0  0  0  0  0  0  0
    9.9193  -15.9843   28.4611 N   0  0  0  0  0  0  0  0  0  0  0  0
    9.7517  -14.8628   27.5431 C   0  0  0  0  0  0  0  0  0  0  0  0
   10.5110  -15.4827   29.7051 O   0  0  0  0  0  0  0  0  0  0  0  0
   10.7320  -16.3450   30.7838 O   0  0  0  0  0  0  0  0  0  0  0  0
  2  4  1  0
  2  1  1  0
  3  2  2  0
  4  5  1  0
  6  5  1  0
  6  7  1  0
  7  8  1  0
  8  9  1  6
  8 10  1  0
 10 12  1  0
 11 10  2  0
 12 16  1  0
 12 13  1  0
 13 14  1  0
 14 15  1  0
 16 15  1  0
 17 23  1  0
 16 17  1  1
 18 17  2  0
 20 19  1  1
 20 22  1  0
 21 20  1  0
 22 24  1  0
 22 23  1  1
 24 25  1  0
 26 24  2  0
M  END
$$$$
