RPT.pdb
     RDKit          3D

 26 26  0  0  1  0  0  0  0  0999 V2000
    8.5595  -20.0834   25.9713 N   0  0  0  0  0  0  0  0  0  0  0  0
    7.3198  -19.4193   26.2735 C   0  0  0  0  0  0  0  0  0  0  0  0
    6.7337  -19.7227   27.3611 N   0  0  0  0  0  0  0  0  0  0  0  0
    6.7365  -18.4556   25.4188 N   0  0  0  0  0  0  0  0  0  0  0  0
    7.4235  -18.0288   24.2482 C   0  0  0  0  0  0  0  0  0  0  0  0
    6.6808  -16.9665   23.4689 C   0  0  0  0  0  0  0  0  0  0  0  0
    7.4300  -16.5629   22.2267 C   0  0  0  0  0  0  0  0  0  0  0  0
    7.8065  -15.0924   22.2440 C   0  0  2  0  0  0  0  0  0  0  0  0
    8.5621  -14.6912   21.1207 N   0  0  0  0  0  0  0  0  0  0  0  0
    8.3510  -14.6765   23.5337 C   0  0  0  0  0  0  0  0  0  0  0  0
    9.4823  -15.1988   23.8477 O   0  0  0  0  0  0  0  0  0  0  0  0
    5.9280  -19.2188   27.7794 N   0  0  0  0  0  0  0  0  0  0  0  0
    7.7859  -13.7648   24.4835 C   0  0  0  0  0  0  0  0  0  0  0  0
    6.6333  -12.9639   24.2228 C   0  0  0  0  0  0  0  0  0  0  0  0
    5.9939  -12.7878   25.6090 C   0  0  0  0  0  0  0  0  0  0  0  0
    7.2196  -12.6788   26.4791 C   0  0  2  0  0  0  0  0  0  0  0  0
    8.2688  -13.5124   25.8106 C   0  0  0  0  0  0  0  0  0  0  0  0
    8.4531  -14.7250   26.6230 O   0  0  0  0  0  0  0  0  0  0  0  0
    7.5309  -15.5430   26.7857 C   0  0  0  0  0  0  0  0  0  0  0  0
   10.9823  -17.4181   26.1974 C   0  0  2  0  0  0  0  0  0  0  0  0
   11.2047  -16.7968   27.5376 O   0  0  0  0  0  0  0  0  0  0  0  0
   12.2804  -15.9096   27.4953 C   0  0  2  0  0  0  0  0  0  0  0  0
    9.9876  -16.0953   28.0982 N   0  0  0  0  0  0  0  0  0  0  0  0
    9.7113  -14.9571   27.2283 C   0  0  0  0  0  0  0  0  0  0  0  0
   10.3096  -15.5906   29.4364 O   0  0  0  0  0  0  0  0  0  0  0  0
   10.5594  -16.4779   30.4882 O   0  0  0  0  0  0  0  0  0  0  0  0
  2  4  1  0
  2  1  1  0
  3  2  2  0
  4  5  1  0
  6  5  1  0
  6  7  1  0
  7  8  1  0
  8  9  1  6
  8 10  1  0
 10 12  1  0
 11 10  2  0
 12 16  1  0
 12 13  1  0
 13 14  1  0
 14 15  1  0
 16 15  1  0
 17 23  1  0
 16 17  1  1
 18 17  2  0
 20 19  1  1
 20 22  1  0
 21 20  1  0
 22 24  1  0
 22 23  1  1
 24 25  1  0
 26 24  2  0
M  END
$$$$
