RPT.pdb
     RDKit          3D

 26 26  0  0  1  0  0  0  0  0999 V2000
    4.6263  -22.0291   16.4952 N   0  0  0  0  0  0  0  0  0  0  0  0
    5.8504  -21.2747   16.5357 C   0  0  0  0  0  0  0  0  0  0  0  0
    6.8127  -21.6648   15.8005 N   0  0  0  0  0  0  0  0  0  0  0  0
    6.0217  -20.1319   17.3507 N   0  0  0  0  0  0  0  0  0  0  0  0
    6.2392  -18.8570   16.7577 C   0  0  0  0  0  0  0  0  0  0  0  0
    7.7023  -18.5008   16.6175 C   0  0  0  0  0  0  0  0  0  0  0  0
    8.2464  -17.8806   17.8771 C   0  0  0  0  0  0  0  0  0  0  0  0
    8.9834  -16.5832   17.5980 C   0  0  2  0  0  0  0  0  0  0  0  0
    9.9952  -16.7089   16.6212 N   0  0  0  0  0  0  0  0  0  0  0  0
    9.3921  -15.9048   18.8251 C   0  0  0  0  0  0  0  0  0  0  0  0
   10.5023  -16.3065   19.3324 O   0  0  0  0  0  0  0  0  0  0  0  0
    7.7332  -21.1947   15.7026 N   0  0  0  0  0  0  0  0  0  0  0  0
    8.7153  -14.8548   19.5266 C   0  0  0  0  0  0  0  0  0  0  0  0
    7.6167  -14.1213   18.9852 C   0  0  0  0  0  0  0  0  0  0  0  0
    6.7999  -13.7252   20.2252 C   0  0  0  0  0  0  0  0  0  0  0  0
    7.8995  -13.4596   21.2209 C   0  0  2  0  0  0  0  0  0  0  0  0
    9.0194  -14.3805   20.8459 C   0  0  0  0  0  0  0  0  0  0  0  0
    9.0802  -15.4396   21.8653 O   0  0  0  0  0  0  0  0  0  0  0  0
    8.1626  -16.2689   21.9944 C   0  0  0  0  0  0  0  0  0  0  0  0
   11.8395  -17.9162   22.2078 C   0  0  2  0  0  0  0  0  0  0  0  0
   11.7409  -17.1686   23.4974 O   0  0  0  0  0  0  0  0  0  0  0  0
   12.7383  -16.1968   23.5793 C   0  0  2  0  0  0  0  0  0  0  0  0
   10.3894  -16.5328   23.7360 N   0  0  0  0  0  0  0  0  0  0  0  0
   10.2119  -15.5083   22.7126 C   0  0  0  0  0  0  0  0  0  0  0  0
   10.4007  -15.8813   25.0493 O   0  0  0  0  0  0  0  0  0  0  0  0
   10.4657  -16.6445   26.2194 O   0  0  0  0  0  0  0  0  0  0  0  0
  2  4  1  0
  2  1  1  0
  3  2  2  0
  4  5  1  0
  6  5  1  0
  6  7  1  0
  7  8  1  0
  8  9  1  6
  8 10  1  0
 10 12  1  0
 11 10  2  0
 12 16  1  0
 12 13  1  0
 13 14  1  0
 14 15  1  0
 16 15  1  0
 17 23  1  0
 16 17  1  1
 18 17  2  0
 20 19  1  1
 20 22  1  0
 21 20  1  0
 22 24  1  0
 22 23  1  1
 24 25  1  0
 26 24  2  0
M  END
$$$$
