RPT.pdb
     RDKit          3D

 26 26  0  0  1  0  0  0  0  0999 V2000
    7.3318  -13.4121   18.3944 N   0  0  0  0  0  0  0  0  0  0  0  0
    8.1544  -14.3158   17.6356 C   0  0  0  0  0  0  0  0  0  0  0  0
    8.6382  -13.8971   16.5359 N   0  0  0  0  0  0  0  0  0  0  0  0
    8.4414  -15.6338   18.0602 N   0  0  0  0  0  0  0  0  0  0  0  0
    7.9300  -16.1134   19.2982 C   0  0  0  0  0  0  0  0  0  0  0  0
    8.4659  -15.3670   20.4996 C   0  0  0  0  0  0  0  0  0  0  0  0
    7.3873  -15.1036   21.5166 C   0  0  0  0  0  0  0  0  0  0  0  0
    7.5474  -13.7449   22.1744 C   0  0  2  0  0  0  0  0  0  0  0  0
    8.1708  -12.7874   21.3448 N   0  0  0  0  0  0  0  0  0  0  0  0
    8.0995  -13.8453   23.5227 C   0  0  0  0  0  0  0  0  0  0  0  0
    9.0690  -14.6774   23.6599 O   0  0  0  0  0  0  0  0  0  0  0  0
    9.1570  -14.4692   15.8421 N   0  0  0  0  0  0  0  0  0  0  0  0
    7.6987  -13.1358   24.7011 C   0  0  0  0  0  0  0  0  0  0  0  0
    6.6500  -12.1676   24.7238 C   0  0  0  0  0  0  0  0  0  0  0  0
    6.0986  -12.2647   26.1549 C   0  0  0  0  0  0  0  0  0  0  0  0
    7.3640  -12.5155   26.9340 C   0  0  1  0  0  0  0  0  0  0  0  0
    8.2664  -13.2749   26.0113 C   0  0  0  0  0  0  0  0  0  0  0  0
    8.3260  -14.6629   26.4953 O   0  0  0  0  0  0  0  0  0  0  0  0
    7.3516  -15.4285   26.3912 C   0  0  0  0  0  0  0  0  0  0  0  0
   12.0376  -16.1123   26.4112 C   0  0  2  0  0  0  0  0  0  0  0  0
   10.8538  -17.0201   26.4917 O   0  0  0  0  0  0  0  0  0  0  0  0
   11.2452  -18.3057   26.8658 C   0  0  1  0  0  0  0  0  0  0  0  0
    9.7658  -16.5285   27.4202 N   0  0  0  0  0  0  0  0  0  0  0  0
    9.5228  -15.1282   27.0908 C   0  0  0  0  0  0  0  0  0  0  0  0
   10.2548  -16.6036   28.8002 O   0  0  0  0  0  0  0  0  0  0  0  0
   10.5310  -15.4366   29.5197 O   0  0  0  0  0  0  0  0  0  0  0  0
  2  4  1  0
  2  1  1  0
  3  2  2  0
  4  5  1  0
  6  5  1  0
  6  7  1  0
  7  8  1  0
  8  9  1  6
  8 10  1  0
 10 12  1  0
 11 10  2  0
 12 16  1  0
 12 13  1  0
 13 14  1  0
 14 15  1  0
 16 15  1  0
 17 23  1  0
 16 17  1  1
 18 17  2  0
 20 19  1  6
 20 22  1  0
 21 20  1  0
 22 24  1  0
 22 23  1  6
 24 25  1  0
 26 24  2  0
M  END
$$$$
