RPT.pdb
     RDKit          3D

 26 26  0  0  1  0  0  0  0  0999 V2000
    8.3280  -21.5603   17.9542 N   0  0  0  0  0  0  0  0  0  0  0  0
    7.4675  -20.9164   18.9102 C   0  0  0  0  0  0  0  0  0  0  0  0
    7.3886  -21.4238   20.0743 N   0  0  0  0  0  0  0  0  0  0  0  0
    6.7164  -19.7568   18.6089 N   0  0  0  0  0  0  0  0  0  0  0  0
    6.7357  -19.2142   17.2938 C   0  0  0  0  0  0  0  0  0  0  0  0
    7.8871  -18.2638   17.0524 C   0  0  0  0  0  0  0  0  0  0  0  0
    7.4036  -16.8685   16.7583 C   0  0  0  0  0  0  0  0  0  0  0  0
    8.5498  -15.8765   16.6755 C   0  0  2  0  0  0  0  0  0  0  0  0
    9.5498  -16.2471   15.7501 N   0  0  0  0  0  0  0  0  0  0  0  0
    9.0432  -15.4909   17.9949 C   0  0  0  0  0  0  0  0  0  0  0  0
   10.0161  -16.1980   18.4469 O   0  0  0  0  0  0  0  0  0  0  0  0
    6.8454  -21.0385   20.8707 N   0  0  0  0  0  0  0  0  0  0  0  0
    8.5818  -14.4298   18.8398 C   0  0  0  0  0  0  0  0  0  0  0  0
    7.5208  -13.5421   18.4877 C   0  0  0  0  0  0  0  0  0  0  0  0
    6.9082  -13.1548   19.8428 C   0  0  0  0  0  0  0  0  0  0  0  0
    8.1411  -13.0870   20.7068 C   0  0  2  0  0  0  0  0  0  0  0  0
    9.0930  -14.0932   20.1373 C   0  0  0  0  0  0  0  0  0  0  0  0
    9.1489  -15.2270   21.0731 O   0  0  0  0  0  0  0  0  0  0  0  0
    8.1314  -15.8813   21.3608 C   0  0  0  0  0  0  0  0  0  0  0  0
   11.7167  -18.0613   20.6974 C   0  0  2  0  0  0  0  0  0  0  0  0
   11.8392  -17.4341   22.0477 O   0  0  0  0  0  0  0  0  0  0  0  0
   12.9122  -16.5433   22.0801 C   0  0  2  0  0  0  0  0  0  0  0  0
   10.5822  -16.7349   22.5156 N   0  0  0  0  0  0  0  0  0  0  0  0
   10.3926  -15.5734   21.6533 C   0  0  0  0  0  0  0  0  0  0  0  0
   10.7878  -16.2658   23.8892 O   0  0  0  0  0  0  0  0  0  0  0  0
   10.8065  -17.1730   24.9535 O   0  0  0  0  0  0  0  0  0  0  0  0
  2  4  1  0
  2  1  1  0
  3  2  2  0
  4  5  1  0
  6  5  1  0
  6  7  1  0
  7  8  1  0
  8  9  1  6
  8 10  1  0
 10 12  1  0
 11 10  2  0
 12 16  1  0
 12 13  1  0
 13 14  1  0
 14 15  1  0
 16 15  1  0
 17 23  1  0
 16 17  1  1
 18 17  2  0
 20 19  1  1
 20 22  1  0
 21 20  1  0
 22 24  1  0
 22 23  1  1
 24 25  1  0
 26 24  2  0
M  END
$$$$
