RPT.pdb
     RDKit          3D

 26 26  0  0  1  0  0  0  0  0999 V2000
    6.3851  -19.8904   17.8736 N   0  0  0  0  0  0  0  0  0  0  0  0
    6.9202  -19.6685   16.5570 C   0  0  0  0  0  0  0  0  0  0  0  0
    6.1298  -19.2320   15.6607 N   0  0  0  0  0  0  0  0  0  0  0  0
    8.2730  -19.9140   16.2262 N   0  0  0  0  0  0  0  0  0  0  0  0
    9.2036  -18.8389   16.1777 C   0  0  0  0  0  0  0  0  0  0  0  0
    8.6871  -17.6300   15.4298 C   0  0  0  0  0  0  0  0  0  0  0  0
    8.2188  -16.5524   16.3714 C   0  0  0  0  0  0  0  0  0  0  0  0
    9.1954  -15.3920   16.4362 C   0  0  2  0  0  0  0  0  0  0  0  0
   10.2680  -15.5068   15.5251 N   0  0  0  0  0  0  0  0  0  0  0  0
    9.5830  -15.0718   17.8075 C   0  0  0  0  0  0  0  0  0  0  0  0
   10.6756  -15.6140   18.2114 O   0  0  0  0  0  0  0  0  0  0  0  0
    6.3648  -19.0874   14.6598 N   0  0  0  0  0  0  0  0  0  0  0  0
    8.9025  -14.2340   18.7496 C   0  0  0  0  0  0  0  0  0  0  0  0
    7.7379  -13.4713   18.4337 C   0  0  0  0  0  0  0  0  0  0  0  0
    6.9834  -13.3925   19.7702 C   0  0  0  0  0  0  0  0  0  0  0  0
    8.1301  -13.2747   20.7410 C   0  0  2  0  0  0  0  0  0  0  0  0
    9.2667  -14.0279   20.1218 C   0  0  0  0  0  0  0  0  0  0  0  0
    9.4429  -15.2707   20.8892 O   0  0  0  0  0  0  0  0  0  0  0  0
    8.6312  -16.2085   20.8000 C   0  0  0  0  0  0  0  0  0  0  0  0
   12.6009  -17.2886   20.7781 C   0  0  2  0  0  0  0  0  0  0  0  0
   12.3282  -16.9370   22.2043 O   0  0  0  0  0  0  0  0  0  0  0  0
   13.1402  -15.8790   22.6132 C   0  0  2  0  0  0  0  0  0  0  0  0
   10.8798  -16.6070   22.4886 N   0  0  0  0  0  0  0  0  0  0  0  0
   10.5638  -15.3924   21.7447 C   0  0  0  0  0  0  0  0  0  0  0  0
   10.7328  -16.3273   23.9201 O   0  0  0  0  0  0  0  0  0  0  0  0
   10.3958  -15.0437   24.3614 O   0  0  0  0  0  0  0  0  0  0  0  0
  2  4  1  0
  2  1  1  0
  3  2  2  0
  4  5  1  0
  6  5  1  0
  6  7  1  0
  7  8  1  0
  8  9  1  6
  8 10  1  0
 10 12  1  0
 11 10  2  0
 12 16  1  0
 12 13  1  0
 13 14  1  0
 14 15  1  0
 16 15  1  0
 17 23  1  0
 16 17  1  1
 18 17  2  0
 20 19  1  1
 20 22  1  0
 21 20  1  0
 22 24  1  0
 22 23  1  1
 24 25  1  0
 26 24  2  0
M  END
$$$$
