RPT.pdb
     RDKit          3D

 26 26  0  0  1  0  0  0  0  0999 V2000
   10.0510  -19.6094   15.1229 N   0  0  0  0  0  0  0  0  0  0  0  0
    9.3284  -20.4176   16.0683 C   0  0  0  0  0  0  0  0  0  0  0  0
    9.7927  -21.5702   16.3411 N   0  0  0  0  0  0  0  0  0  0  0  0
    8.1378  -19.9849   16.6968 N   0  0  0  0  0  0  0  0  0  0  0  0
    7.5991  -18.7017   16.4015 C   0  0  0  0  0  0  0  0  0  0  0  0
    8.5990  -17.5784   16.5618 C   0  0  0  0  0  0  0  0  0  0  0  0
    7.9914  -16.2417   16.2282 C   0  0  0  0  0  0  0  0  0  0  0  0
    8.9972  -15.1124   16.3611 C   0  0  2  0  0  0  0  0  0  0  0  0
   10.0740  -15.2073   15.4527 N   0  0  0  0  0  0  0  0  0  0  0  0
    9.3813  -14.8750   17.7500 C   0  0  0  0  0  0  0  0  0  0  0  0
   10.3947  -15.5482   18.1634 O   0  0  0  0  0  0  0  0  0  0  0  0
    9.3964  -22.2388   17.0294 N   0  0  0  0  0  0  0  0  0  0  0  0
    8.7745  -13.9910   18.7001 C   0  0  0  0  0  0  0  0  0  0  0  0
    7.6944  -13.1120   18.3859 C   0  0  0  0  0  0  0  0  0  0  0  0
    6.9345  -12.9828   19.7153 C   0  0  0  0  0  0  0  0  0  0  0  0
    8.0748  -12.9954   20.7006 C   0  0  2  0  0  0  0  0  0  0  0  0
    9.1397  -13.8458   20.0798 C   0  0  0  0  0  0  0  0  0  0  0  0
    9.1833  -15.1132   20.8257 O   0  0  0  0  0  0  0  0  0  0  0  0
    8.2424  -15.9250   20.7805 C   0  0  0  0  0  0  0  0  0  0  0  0
   12.0590  -17.5408   20.4951 C   0  0  2  0  0  0  0  0  0  0  0  0
   11.9075  -17.1672   21.9336 O   0  0  0  0  0  0  0  0  0  0  0  0
   12.8554  -16.2097   22.2948 C   0  0  2  0  0  0  0  0  0  0  0  0
   10.5238  -16.6769   22.2976 N   0  0  0  0  0  0  0  0  0  0  0  0
   10.3252  -15.4062   21.6089 C   0  0  0  0  0  0  0  0  0  0  0  0
   10.4748  -16.4354   23.7427 O   0  0  0  0  0  0  0  0  0  0  0  0
   10.5181  -17.5050   24.6428 O   0  0  0  0  0  0  0  0  0  0  0  0
  2  4  1  0
  2  1  1  0
  3  2  2  0
  4  5  1  0
  6  5  1  0
  6  7  1  0
  7  8  1  0
  8  9  1  6
  8 10  1  0
 10 12  1  0
 11 10  2  0
 12 16  1  0
 12 13  1  0
 13 14  1  0
 14 15  1  0
 16 15  1  0
 17 23  1  0
 16 17  1  1
 18 17  2  0
 20 19  1  1
 20 22  1  0
 21 20  1  0
 22 24  1  0
 22 23  1  1
 24 25  1  0
 26 24  2  0
M  END
$$$$
