RPT.pdb
     RDKit          3D

 26 26  0  0  1  0  0  0  0  0999 V2000
    7.7337  -13.4271   15.7149 N   0  0  0  0  0  0  0  0  0  0  0  0
    7.4710  -13.5048   17.1270 C   0  0  0  0  0  0  0  0  0  0  0  0
    7.8885  -12.5538   17.8618 N   0  0  0  0  0  0  0  0  0  0  0  0
    6.7757  -14.5836   17.7207 N   0  0  0  0  0  0  0  0  0  0  0  0
    6.6679  -14.6721   19.1366 C   0  0  0  0  0  0  0  0  0  0  0  0
    7.9676  -14.3916   19.8572 C   0  0  0  0  0  0  0  0  0  0  0  0
    7.9371  -14.8970   21.2753 C   0  0  0  0  0  0  0  0  0  0  0  0
    9.2577  -14.6674   21.9878 C   0  0  2  0  0  0  0  0  0  0  0  0
   10.3566  -15.2829   21.3497 N   0  0  0  0  0  0  0  0  0  0  0  0
    9.1610  -14.9147   23.4239 C   0  0  0  0  0  0  0  0  0  0  0  0
    9.9499  -15.8203   23.8807 O   0  0  0  0  0  0  0  0  0  0  0  0
    7.7830  -12.4897   18.8927 N   0  0  0  0  0  0  0  0  0  0  0  0
    8.3041  -14.2771   24.3788 C   0  0  0  0  0  0  0  0  0  0  0  0
    7.4307  -13.1941   24.0593 C   0  0  0  0  0  0  0  0  0  0  0  0
    6.2710  -13.3589   25.0540 C   0  0  0  0  0  0  0  0  0  0  0  0
    7.0084  -13.8362   26.2786 C   0  0  1  0  0  0  0  0  0  0  0  0
    8.1856  -14.6091   25.7694 C   0  0  0  0  0  0  0  0  0  0  0  0
    7.9229  -16.0338   26.0260 O   0  0  0  0  0  0  0  0  0  0  0  0
    6.8232  -16.5489   25.7586 C   0  0  0  0  0  0  0  0  0  0  0  0
    9.1722  -19.1110   24.6471 C   0  0  2  0  0  0  0  0  0  0  0  0
    9.6509  -19.0500   26.0609 O   0  0  0  0  0  0  0  0  0  0  0  0
   10.9611  -18.5742   26.1158 C   0  0  2  0  0  0  0  0  0  0  0  0
    8.7703  -18.2238   26.9717 N   0  0  0  0  0  0  0  0  0  0  0  0
    8.9505  -16.8274   26.5895 C   0  0  0  0  0  0  0  0  0  0  0  0
    9.2325  -18.3915   28.3528 O   0  0  0  0  0  0  0  0  0  0  0  0
    9.0739  -19.6155   29.0105 O   0  0  0  0  0  0  0  0  0  0  0  0
  2  4  1  0
  2  1  1  0
  3  2  2  0
  4  5  1  0
  6  5  1  0
  6  7  1  0
  7  8  1  0
  8  9  1  6
  8 10  1  0
 10 12  1  0
 11 10  2  0
 12 16  1  0
 12 13  1  0
 13 14  1  0
 14 15  1  0
 16 15  1  0
 17 23  1  0
 16 17  1  6
 18 17  2  0
 20 19  1  6
 20 22  1  0
 21 20  1  0
 22 24  1  0
 22 23  1  1
 24 25  1  0
 26 24  2  0
M  END
$$$$
