RPT.pdb
     RDKit          3D

 26 26  0  0  1  0  0  0  0  0999 V2000
    8.6270  -19.1709   15.8567 N   0  0  0  0  0  0  0  0  0  0  0  0
    7.9839  -19.5477   14.6264 C   0  0  0  0  0  0  0  0  0  0  0  0
    7.7388  -20.7819   14.4384 N   0  0  0  0  0  0  0  0  0  0  0  0
    7.6189  -18.6108   13.6321 N   0  0  0  0  0  0  0  0  0  0  0  0
    7.8429  -17.2215   13.8423 C   0  0  0  0  0  0  0  0  0  0  0  0
    7.1890  -16.6903   15.0983 C   0  0  0  0  0  0  0  0  0  0  0  0
    8.2012  -16.4180   16.1792 C   0  0  0  0  0  0  0  0  0  0  0  0
    8.8312  -15.0445   16.0335 C   0  0  2  0  0  0  0  0  0  0  0  0
    9.6398  -14.9149   14.8832 N   0  0  0  0  0  0  0  0  0  0  0  0
    9.4472  -14.5845   17.2752 C   0  0  0  0  0  0  0  0  0  0  0  0
   10.7036  -14.8283   17.3895 O   0  0  0  0  0  0  0  0  0  0  0  0
    7.2494  -21.1871   13.6173 N   0  0  0  0  0  0  0  0  0  0  0  0
    8.8299  -13.8995   18.3717 C   0  0  0  0  0  0  0  0  0  0  0  0
    7.5068  -13.3654   18.3273 C   0  0  0  0  0  0  0  0  0  0  0  0
    7.0356  -13.4441   19.7878 C   0  0  0  0  0  0  0  0  0  0  0  0
    8.3134  -13.1238   20.5197 C   0  0  2  0  0  0  0  0  0  0  0  0
    9.4194  -13.6437   19.6543 C   0  0  0  0  0  0  0  0  0  0  0  0
    9.9693  -14.8397   20.3114 O   0  0  0  0  0  0  0  0  0  0  0  0
    9.3207  -15.8985   20.3790 C   0  0  0  0  0  0  0  0  0  0  0  0
   13.7711  -15.6469   19.6742 C   0  0  2  0  0  0  0  0  0  0  0  0
   13.4405  -15.7313   21.1286 O   0  0  0  0  0  0  0  0  0  0  0  0
   13.8972  -14.5986   21.8027 C   0  0  2  0  0  0  0  0  0  0  0  0
   11.9688  -15.9343   21.4124 N   0  0  0  0  0  0  0  0  0  0  0  0
   11.2657  -14.7742   20.8757 C   0  0  0  0  0  0  0  0  0  0  0  0
   11.7695  -15.9683   22.8644 O   0  0  0  0  0  0  0  0  0  0  0  0
   12.3645  -16.9692   23.6391 O   0  0  0  0  0  0  0  0  0  0  0  0
  2  4  1  0
  2  1  1  0
  3  2  2  0
  4  5  1  0
  6  5  1  0
  6  7  1  0
  7  8  1  0
  8  9  1  6
  8 10  1  0
 10 12  1  0
 11 10  2  0
 12 16  1  0
 12 13  1  0
 13 14  1  0
 14 15  1  0
 16 15  1  0
 17 23  1  0
 16 17  1  1
 18 17  2  0
 20 19  1  1
 20 22  1  0
 21 20  1  0
 22 24  1  0
 22 23  1  1
 24 25  1  0
 26 24  2  0
M  END
$$$$
