RPT.pdb
     RDKit          3D

 26 26  0  0  1  0  0  0  0  0999 V2000
    5.5511  -20.8313   21.5019 N   0  0  0  0  0  0  0  0  0  0  0  0
    5.8610  -20.6379   22.8932 C   0  0  0  0  0  0  0  0  0  0  0  0
    5.6549  -21.6097   23.6880 N   0  0  0  0  0  0  0  0  0  0  0  0
    6.3787  -19.4249   23.4035 N   0  0  0  0  0  0  0  0  0  0  0  0
    6.6469  -18.3371   22.5266 C   0  0  0  0  0  0  0  0  0  0  0  0
    7.1189  -17.0907   23.2417 C   0  0  0  0  0  0  0  0  0  0  0  0
    6.5495  -15.8436   22.6191 C   0  0  0  0  0  0  0  0  0  0  0  0
    7.5836  -14.7369   22.5184 C   0  0  2  0  0  0  0  0  0  0  0  0
    8.5275  -14.9398   21.4880 N   0  0  0  0  0  0  0  0  0  0  0  0
    8.1542  -14.3937   23.8183 C   0  0  0  0  0  0  0  0  0  0  0  0
    9.2968  -14.9226   24.0747 O   0  0  0  0  0  0  0  0  0  0  0  0
    5.8864  -21.6281   24.7000 N   0  0  0  0  0  0  0  0  0  0  0  0
    7.6032  -13.5464   24.8338 C   0  0  0  0  0  0  0  0  0  0  0  0
    6.4285  -12.7557   24.6533 C   0  0  0  0  0  0  0  0  0  0  0  0
    5.8307  -12.6680   26.0662 C   0  0  0  0  0  0  0  0  0  0  0  0
    7.0814  -12.5821   26.9026 C   0  0  2  0  0  0  0  0  0  0  0  0
    8.1236  -13.3570   26.1571 C   0  0  0  0  0  0  0  0  0  0  0  0
    8.3559  -14.6081   26.8955 O   0  0  0  0  0  0  0  0  0  0  0  0
    7.4184  -15.3686   27.1941 C   0  0  0  0  0  0  0  0  0  0  0  0
   10.9766  -17.3084   26.0876 C   0  0  2  0  0  0  0  0  0  0  0  0
   11.2250  -16.7577   27.4540 O   0  0  0  0  0  0  0  0  0  0  0  0
   12.2851  -15.8513   27.4330 C   0  0  2  0  0  0  0  0  0  0  0  0
   10.0125  -16.1090   28.0837 N   0  0  0  0  0  0  0  0  0  0  0  0
    9.6787  -14.9453   27.2697 C   0  0  0  0  0  0  0  0  0  0  0  0
   10.3699  -15.6487   29.4289 O   0  0  0  0  0  0  0  0  0  0  0  0
   10.6655  -16.5699   30.4389 O   0  0  0  0  0  0  0  0  0  0  0  0
  2  4  1  0
  2  1  1  0
  3  2  2  0
  4  5  1  0
  6  5  1  0
  6  7  1  0
  7  8  1  0
  8  9  1  6
  8 10  1  0
 10 12  1  0
 11 10  2  0
 12 16  1  0
 12 13  1  0
 13 14  1  0
 14 15  1  0
 16 15  1  0
 17 23  1  0
 16 17  1  1
 18 17  2  0
 20 19  1  1
 20 22  1  0
 21 20  1  0
 22 24  1  0
 22 23  1  1
 24 25  1  0
 26 24  2  0
M  END
$$$$
