RPT.pdb
     RDKit          3D

 26 26  0  0  1  0  0  0  0  0999 V2000
    8.8024  -20.9108   21.1032 N   0  0  0  0  0  0  0  0  0  0  0  0
    9.3075  -19.5653   21.0438 C   0  0  0  0  0  0  0  0  0  0  0  0
   10.5391  -19.3814   21.3049 N   0  0  0  0  0  0  0  0  0  0  0  0
    8.4979  -18.4549   20.7107 N   0  0  0  0  0  0  0  0  0  0  0  0
    8.0268  -17.5819   21.7306 C   0  0  0  0  0  0  0  0  0  0  0  0
    7.2466  -16.4008   21.1981 C   0  0  0  0  0  0  0  0  0  0  0  0
    6.7676  -15.5046   22.3092 C   0  0  0  0  0  0  0  0  0  0  0  0
    7.5782  -14.2239   22.3944 C   0  0  2  0  0  0  0  0  0  0  0  0
    8.4134  -14.0104   21.2761 N   0  0  0  0  0  0  0  0  0  0  0  0
    8.2324  -14.0692   23.6909 C   0  0  0  0  0  0  0  0  0  0  0  0
    9.3748  -14.6466   23.8033 O   0  0  0  0  0  0  0  0  0  0  0  0
   11.0178  -18.4622   21.3656 N   0  0  0  0  0  0  0  0  0  0  0  0
    7.7631  -13.3581   24.8428 C   0  0  0  0  0  0  0  0  0  0  0  0
    6.6169  -12.5072   24.8349 C   0  0  0  0  0  0  0  0  0  0  0  0
    6.0853  -12.6029   26.2735 C   0  0  0  0  0  0  0  0  0  0  0  0
    7.3735  -12.6845   27.0512 C   0  0  2  0  0  0  0  0  0  0  0  0
    8.3480  -13.3811   26.1525 C   0  0  0  0  0  0  0  0  0  0  0  0
    8.5578  -14.7335   26.6924 O   0  0  0  0  0  0  0  0  0  0  0  0
    7.6286  -15.5572   26.7575 C   0  0  0  0  0  0  0  0  0  0  0  0
   10.9727  -17.3220   25.5259 C   0  0  2  0  0  0  0  0  0  0  0  0
   11.3181  -16.9688   26.9358 O   0  0  0  0  0  0  0  0  0  0  0  0
   12.3948  -16.0826   26.9705 C   0  0  2  0  0  0  0  0  0  0  0  0
   10.1620  -16.3971   27.7257 N   0  0  0  0  0  0  0  0  0  0  0  0
    9.8491  -15.0958   27.1450 C   0  0  0  0  0  0  0  0  0  0  0  0
   10.5929  -16.1960   29.1125 O   0  0  0  0  0  0  0  0  0  0  0  0
   10.8989  -17.2915   29.9264 O   0  0  0  0  0  0  0  0  0  0  0  0
  2  4  1  0
  2  1  1  0
  3  2  2  0
  4  5  1  0
  6  5  1  0
  6  7  1  0
  7  8  1  0
  8  9  1  6
  8 10  1  0
 10 12  1  0
 11 10  2  0
 12 16  1  0
 12 13  1  0
 13 14  1  0
 14 15  1  0
 16 15  1  0
 17 23  1  0
 16 17  1  1
 18 17  2  0
 20 19  1  1
 20 22  1  0
 21 20  1  0
 22 24  1  0
 22 23  1  1
 24 25  1  0
 26 24  2  0
M  END
$$$$
