RPT.pdb
     RDKit          3D

 26 26  0  0  1  0  0  0  0  0999 V2000
    9.5958  -19.9188   14.4000 N   0  0  0  0  0  0  0  0  0  0  0  0
    8.9611  -21.0026   15.1011 C   0  0  0  0  0  0  0  0  0  0  0  0
    8.8477  -22.1158   14.4958 N   0  0  0  0  0  0  0  0  0  0  0  0
    8.4653  -20.8786   16.4197 N   0  0  0  0  0  0  0  0  0  0  0  0
    8.5879  -19.6443   17.1165 C   0  0  0  0  0  0  0  0  0  0  0  0
    7.5954  -18.5969   16.6634 C   0  0  0  0  0  0  0  0  0  0  0  0
    7.5413  -17.4331   17.6172 C   0  0  0  0  0  0  0  0  0  0  0  0
    8.7069  -16.4813   17.4175 C   0  0  2  0  0  0  0  0  0  0  0  0
    9.7294  -17.0070   16.5979 N   0  0  0  0  0  0  0  0  0  0  0  0
    9.1644  -15.8963   18.6751 C   0  0  0  0  0  0  0  0  0  0  0  0
   10.1069  -16.5366   19.2691 O   0  0  0  0  0  0  0  0  0  0  0  0
    8.3743  -22.9634   14.8637 N   0  0  0  0  0  0  0  0  0  0  0  0
    8.6977  -14.7064   19.3222 C   0  0  0  0  0  0  0  0  0  0  0  0
    7.7533  -13.8076   18.7407 C   0  0  0  0  0  0  0  0  0  0  0  0
    7.0291  -13.2075   19.9559 C   0  0  0  0  0  0  0  0  0  0  0  0
    8.1624  -13.1045   20.9440 C   0  0  2  0  0  0  0  0  0  0  0  0
    9.0894  -14.2348   20.6192 C   0  0  0  0  0  0  0  0  0  0  0  0
    8.9552  -15.2369   21.6880 O   0  0  0  0  0  0  0  0  0  0  0  0
    7.8892  -15.8500   21.8719 C   0  0  0  0  0  0  0  0  0  0  0  0
   11.5306  -18.0600   22.2843 C   0  0  2  0  0  0  0  0  0  0  0  0
   11.3664  -17.2406   23.5227 O   0  0  0  0  0  0  0  0  0  0  0  0
   12.4272  -16.3459   23.6640 C   0  0  2  0  0  0  0  0  0  0  0  0
   10.0547  -16.4907   23.5926 N   0  0  0  0  0  0  0  0  0  0  0  0
   10.0693  -15.5023   22.5197 C   0  0  0  0  0  0  0  0  0  0  0  0
    9.9841  -15.7841   24.8752 O   0  0  0  0  0  0  0  0  0  0  0  0
   10.0259  -14.3868   24.9187 O   0  0  0  0  0  0  0  0  0  0  0  0
  2  4  1  0
  2  1  1  0
  3  2  2  0
  4  5  1  0
  6  5  1  0
  6  7  1  0
  7  8  1  0
  8  9  1  1
  8 10  1  0
 10 12  1  0
 11 10  2  0
 12 16  1  0
 12 13  1  0
 13 14  1  0
 14 15  1  0
 16 15  1  0
 17 23  1  0
 16 17  1  1
 18 17  2  0
 20 19  1  1
 20 22  1  0
 21 20  1  0
 22 24  1  0
 22 23  1  1
 24 25  1  0
 26 24  2  0
M  END
$$$$
