DQT.pdb
     RDKit          3D

 25 24  0  0  1  0  0  0  0  0999 V2000
   19.0638  -11.2679  -18.7262 N   0  0  0  0  0  0  0  0  0  0  0  0
   18.4127  -10.3505  -17.8417 C   0  0  1  0  0  0  0  0  0  0  0  0
   17.1945  -11.0481  -17.2675 C   0  0  0  0  0  0  0  0  0  0  0  0
   16.2918  -11.3709  -18.4081 C   0  0  0  0  0  0  0  0  0  0  0  0
   15.3581  -12.1861  -18.2542 O   0  0  0  0  0  0  0  0  0  0  0  0
   19.3104   -9.8783  -16.7475 C   0  0  0  0  0  0  0  0  0  0  0  0
   18.9343   -9.9801  -15.5667 O   0  0  0  0  0  0  0  0  0  0  0  0
   16.4511  -10.7860  -19.6694 O   0  0  0  0  0  0  0  0  0  0  0  0
   25.4020  -11.0128  -16.5693 N   0  0  0  0  0  0  0  0  0  0  0  0
   25.2139  -10.1823  -15.4344 C   0  0  0  0  0  0  0  0  0  0  0  0
   26.1391  -10.0846  -14.6046 O   0  0  0  0  0  0  0  0  0  0  0  0
   23.9625   -9.4543  -15.2402 C   0  0  0  0  0  0  0  0  0  0  0  0
   22.9050   -9.6879  -16.2658 C   0  0  0  0  0  0  0  0  0  0  0  0
   21.5908   -9.0444  -16.0086 C   0  0  2  0  0  0  0  0  0  0  0  0
   20.5887   -9.3118  -16.9992 N   0  0  0  0  0  0  0  0  0  0  0  0
   21.7970   -7.5702  -15.9680 C   0  0  0  0  0  0  0  0  0  0  0  0
   22.2333   -6.9940  -17.0113 O   0  0  0  0  0  0  0  0  0  0  0  0
   19.7952   -4.8917  -16.2062 C   0  0  0  0  0  0  0  0  0  0  0  0
   20.4539   -4.5850  -14.8742 C   0  0  1  0  0  0  0  0  0  0  0  0
   19.6536   -5.0296  -13.8160 O   0  0  0  0  0  0  0  0  0  0  0  0
   21.7565   -5.3570  -14.8237 C   0  0  2  0  0  0  0  0  0  0  0  0
   21.5269   -6.7864  -14.8154 N   0  0  0  0  0  0  0  0  0  0  0  0
   22.4721   -4.9771  -13.5940 C   0  0  0  0  0  0  0  0  0  0  0  0
   22.8827   -3.8154  -13.4259 O   0  0  0  0  0  0  0  0  0  0  0  0
   22.7093   -5.9007  -12.5885 O   0  0  0  0  0  0  0  0  0  0  0  0
  2  1  1  6
  3  4  1  0
  3  2  1  0
  4  8  1  0
  5  4  2  0
  6  2  1  0
  6  7  2  0
  9 10  1  0
 10 12  1  0
 11 10  2  0
 12 13  1  0
 14 13  1  6
 15 14  1  0
 15  6  1  0
 16 17  2  0
 16 14  1  0
 19 18  1  6
 19 21  1  0
 20 19  1  0
 21 23  1  0
 21 22  1  1
 22 16  1  0
 23 25  1  0
 24 23  2  0
M  END
$$$$
