DQT.pdb
     RDKit          3D

 25 24  0  0  1  0  0  0  0  0999 V2000
   15.2057  -11.3999  -16.1811 N   0  0  0  0  0  0  0  0  0  0  0  0
   15.3968  -10.1215  -15.5671 C   0  0  1  0  0  0  0  0  0  0  0  0
   15.4323  -10.3311  -14.0653 C   0  0  0  0  0  0  0  0  0  0  0  0
   14.0346  -10.5985  -13.6236 C   0  0  0  0  0  0  0  0  0  0  0  0
   13.5046  -11.7039  -13.8632 O   0  0  0  0  0  0  0  0  0  0  0  0
   16.6436   -9.4461  -16.0314 C   0  0  0  0  0  0  0  0  0  0  0  0
   17.5763  -10.1349  -16.4807 O   0  0  0  0  0  0  0  0  0  0  0  0
   13.2770   -9.6424  -12.9378 O   0  0  0  0  0  0  0  0  0  0  0  0
   19.4232   -6.8603  -19.4818 N   0  0  0  0  0  0  0  0  0  0  0  0
   18.0417   -6.9180  -19.8001 C   0  0  0  0  0  0  0  0  0  0  0  0
   17.7073   -7.2341  -20.9588 O   0  0  0  0  0  0  0  0  0  0  0  0
   17.0291   -6.6145  -18.7919 C   0  0  0  0  0  0  0  0  0  0  0  0
   17.5429   -6.2065  -17.4524 C   0  0  0  0  0  0  0  0  0  0  0  0
   17.9201   -7.3106  -16.5325 C   0  0  2  0  0  0  0  0  0  0  0  0
   16.8125   -8.0365  -15.9819 N   0  0  0  0  0  0  0  0  0  0  0  0
   18.6812   -6.7253  -15.3942 C   0  0  0  0  0  0  0  0  0  0  0  0
   18.0347   -6.1194  -14.4854 O   0  0  0  0  0  0  0  0  0  0  0  0
   21.4782   -8.5490  -13.3047 C   0  0  0  0  0  0  0  0  0  0  0  0
   21.9850   -7.1983  -13.7747 C   0  0  1  0  0  0  0  0  0  0  0  0
   22.7336   -7.3355  -14.9489 O   0  0  0  0  0  0  0  0  0  0  0  0
   20.7743   -6.3462  -14.0962 C   0  0  2  0  0  0  0  0  0  0  0  0
   20.0938   -6.8169  -15.2843 N   0  0  0  0  0  0  0  0  0  0  0  0
   21.2278   -4.9627  -14.3173 C   0  0  0  0  0  0  0  0  0  0  0  0
   21.7355   -4.3010  -13.3949 O   0  0  0  0  0  0  0  0  0  0  0  0
   21.1028   -4.3571  -15.5574 O   0  0  0  0  0  0  0  0  0  0  0  0
  2  1  1  6
  3  4  1  0
  3  2  1  0
  4  8  1  0
  5  4  2  0
  6  2  1  0
  6  7  2  0
  9 10  1  0
 10 12  1  0
 11 10  2  0
 12 13  1  0
 14 13  1  6
 15 14  1  0
 15  6  1  0
 16 17  2  0
 16 14  1  0
 19 18  1  6
 19 21  1  0
 20 19  1  0
 21 23  1  0
 21 22  1  6
 22 16  1  0
 23 25  1  0
 24 23  2  0
M  END
$$$$
