DQT.pdb
     RDKit          3D

 25 24  0  0  1  0  0  0  0  0999 V2000
   14.2581  -10.8735  -13.3083 N   0  0  0  0  0  0  0  0  0  0  0  0
   15.6241  -10.5537  -13.0258 C   0  0  1  0  0  0  0  0  0  0  0  0
   16.4474  -10.9278  -14.2434 C   0  0  0  0  0  0  0  0  0  0  0  0
   16.4018  -12.4118  -14.3684 C   0  0  0  0  0  0  0  0  0  0  0  0
   17.0428  -13.1259  -13.5689 O   0  0  0  0  0  0  0  0  0  0  0  0
   15.8145   -9.1132  -12.6869 C   0  0  0  0  0  0  0  0  0  0  0  0
   15.1517   -8.2537  -13.2936 O   0  0  0  0  0  0  0  0  0  0  0  0
   15.6550  -13.0502  -15.3651 O   0  0  0  0  0  0  0  0  0  0  0  0
   15.1694   -6.1540   -7.5137 N   0  0  0  0  0  0  0  0  0  0  0  0
   16.0055   -5.2323   -8.1953 C   0  0  0  0  0  0  0  0  0  0  0  0
   16.1934   -4.1081   -7.6902 O   0  0  0  0  0  0  0  0  0  0  0  0
   16.6357   -5.5912   -9.4634 C   0  0  0  0  0  0  0  0  0  0  0  0
   16.4050   -6.9871   -9.9353 C   0  0  0  0  0  0  0  0  0  0  0  0
   16.9319   -7.3169  -11.2849 C   0  0  2  0  0  0  0  0  0  0  0  0
   16.7293   -8.6772  -11.6912 N   0  0  0  0  0  0  0  0  0  0  0  0
   18.3995   -7.0647  -11.2833 C   0  0  0  0  0  0  0  0  0  0  0  0
   19.0889   -7.5256  -10.3225 O   0  0  0  0  0  0  0  0  0  0  0  0
   21.0197   -8.5428  -12.8857 C   0  0  0  0  0  0  0  0  0  0  0  0
   21.1129   -7.1134  -13.3858 C   0  0  1  0  0  0  0  0  0  0  0  0
   20.3690   -6.9539  -14.5603 O   0  0  0  0  0  0  0  0  0  0  0  0
   20.4994   -6.2210  -12.3263 C   0  0  2  0  0  0  0  0  0  0  0  0
   19.0561   -6.3332  -12.3078 N   0  0  0  0  0  0  0  0  0  0  0  0
   20.8703   -4.8273  -12.6239 C   0  0  0  0  0  0  0  0  0  0  0  0
   20.0042   -3.9824  -12.9112 O   0  0  0  0  0  0  0  0  0  0  0  0
   22.1931   -4.4155  -12.5930 O   0  0  0  0  0  0  0  0  0  0  0  0
  2  1  1  6
  3  4  1  0
  3  2  1  0
  4  8  1  0
  5  4  2  0
  6  2  1  0
  6  7  2  0
  9 10  1  0
 10 12  1  0
 11 10  2  0
 12 13  1  0
 14 13  1  1
 15 14  1  0
 15  6  1  0
 16 17  2  0
 16 14  1  0
 19 18  1  1
 19 21  1  0
 20 19  1  0
 21 23  1  0
 21 22  1  6
 22 16  1  0
 23 25  1  0
 24 23  2  0
M  END
$$$$
