DQT.pdb
     RDKit          3D

 25 24  0  0  1  0  0  0  0  0999 V2000
   15.3605  -11.9556  -15.6644 N   0  0  0  0  0  0  0  0  0  0  0  0
   16.6963  -11.5843  -15.3102 C   0  0  1  0  0  0  0  0  0  0  0  0
   17.6110  -12.7333  -15.6891 C   0  0  0  0  0  0  0  0  0  0  0  0
   17.2026  -13.9106  -14.8722 C   0  0  0  0  0  0  0  0  0  0  0  0
   16.6138  -13.7415  -13.7837 O   0  0  0  0  0  0  0  0  0  0  0  0
   17.1342  -10.3239  -15.9780 C   0  0  0  0  0  0  0  0  0  0  0  0
   16.6961  -10.0521  -17.1095 O   0  0  0  0  0  0  0  0  0  0  0  0
   17.4573  -15.2238  -15.2834 O   0  0  0  0  0  0  0  0  0  0  0  0
   15.3460   -5.1175  -16.2032 N   0  0  0  0  0  0  0  0  0  0  0  0
   16.1997   -5.1262  -15.0699 C   0  0  0  0  0  0  0  0  0  0  0  0
   16.0673   -4.2293  -14.2142 O   0  0  0  0  0  0  0  0  0  0  0  0
   17.2137   -6.1649  -14.9060 C   0  0  0  0  0  0  0  0  0  0  0  0
   17.3245   -7.1509  -16.0196 C   0  0  0  0  0  0  0  0  0  0  0  0
   18.4269   -8.1409  -15.9093 C   0  0  2  0  0  0  0  0  0  0  0  0
   18.0389   -9.4122  -15.3709 N   0  0  0  0  0  0  0  0  0  0  0  0
   19.4701   -7.5743  -15.0103 C   0  0  0  0  0  0  0  0  0  0  0  0
   19.2884   -7.6464  -13.7563 O   0  0  0  0  0  0  0  0  0  0  0  0
   23.1756   -6.1894  -16.5590 C   0  0  0  0  0  0  0  0  0  0  0  0
   23.0953   -7.0778  -15.3316 C   0  0  1  0  0  0  0  0  0  0  0  0
   24.1411   -6.7905  -14.4474 O   0  0  0  0  0  0  0  0  0  0  0  0
   21.7933   -6.7595  -14.6255 C   0  0  2  0  0  0  0  0  0  0  0  0
   20.6540   -6.9595  -15.4962 N   0  0  0  0  0  0  0  0  0  0  0  0
   21.8312   -5.3509  -14.1980 C   0  0  0  0  0  0  0  0  0  0  0  0
   21.0662   -4.5091  -14.7008 O   0  0  0  0  0  0  0  0  0  0  0  0
   22.7187   -4.9211  -13.2243 O   0  0  0  0  0  0  0  0  0  0  0  0
  2  1  1  6
  3  4  1  0
  3  2  1  0
  4  8  1  0
  5  4  2  0
  6  2  1  0
  6  7  2  0
  9 10  1  0
 10 12  1  0
 11 10  2  0
 12 13  1  0
 14 13  1  1
 15 14  1  0
 15  6  1  0
 16 17  2  0
 16 14  1  0
 19 18  1  6
 19 21  1  0
 20 19  1  0
 21 23  1  0
 21 22  1  6
 22 16  1  0
 23 25  1  0
 24 23  2  0
M  END
$$$$
