DQT.pdb
     RDKit          3D

 25 24  0  0  1  0  0  0  0  0999 V2000
   16.4156  -11.1926  -13.0172 N   0  0  0  0  0  0  0  0  0  0  0  0
   16.5781  -10.4472  -14.2280 C   0  0  1  0  0  0  0  0  0  0  0  0
   15.2854  -10.5551  -15.0139 C   0  0  0  0  0  0  0  0  0  0  0  0
   15.1158  -11.9867  -15.3906 C   0  0  0  0  0  0  0  0  0  0  0  0
   14.3302  -12.7132  -14.7462 O   0  0  0  0  0  0  0  0  0  0  0  0
   16.9202   -9.0169  -13.9759 C   0  0  0  0  0  0  0  0  0  0  0  0
   17.0699   -8.2488  -14.9422 O   0  0  0  0  0  0  0  0  0  0  0  0
   15.8149  -12.5613  -16.4581 O   0  0  0  0  0  0  0  0  0  0  0  0
   15.2660   -5.8540   -8.7737 N   0  0  0  0  0  0  0  0  0  0  0  0
   15.4538   -7.2408   -9.0076 C   0  0  0  0  0  0  0  0  0  0  0  0
   14.9713   -8.0551   -8.1962 O   0  0  0  0  0  0  0  0  0  0  0  0
   16.1964   -7.7079  -10.1756 C   0  0  0  0  0  0  0  0  0  0  0  0
   16.7271   -6.6467  -11.0794 C   0  0  0  0  0  0  0  0  0  0  0  0
   17.3411   -7.1154  -12.3486 C   0  0  2  0  0  0  0  0  0  0  0  0
   17.0838   -8.4899  -12.6669 N   0  0  0  0  0  0  0  0  0  0  0  0
   18.8169   -6.9510  -12.2375 C   0  0  0  0  0  0  0  0  0  0  0  0
   19.4152   -7.5180  -11.2723 O   0  0  0  0  0  0  0  0  0  0  0  0
   21.3721   -8.3325  -14.2169 C   0  0  0  0  0  0  0  0  0  0  0  0
   21.6349   -6.8420  -14.3233 C   0  0  1  0  0  0  0  0  0  0  0  0
   21.0028   -6.3107  -15.4530 O   0  0  0  0  0  0  0  0  0  0  0  0
   21.0252   -6.1854  -13.1017 C   0  0  2  0  0  0  0  0  0  0  0  0
   19.5787   -6.1896  -13.1626 N   0  0  0  0  0  0  0  0  0  0  0  0
   21.5004   -4.7930  -13.0391 C   0  0  0  0  0  0  0  0  0  0  0  0
   22.7122   -4.5350  -12.9324 O   0  0  0  0  0  0  0  0  0  0  0  0
   20.6135   -3.7298  -13.0971 O   0  0  0  0  0  0  0  0  0  0  0  0
  2  1  1  1
  3  4  1  0
  3  2  1  0
  4  8  1  0
  5  4  2  0
  6  2  1  0
  6  7  2  0
  9 10  1  0
 10 12  1  0
 11 10  2  0
 12 13  1  0
 14 13  1  1
 15 14  1  0
 15  6  1  0
 16 17  2  0
 16 14  1  0
 19 18  1  1
 19 21  1  0
 20 19  1  0
 21 23  1  0
 21 22  1  6
 22 16  1  0
 23 25  1  0
 24 23  2  0
M  END
$$$$
