DQT.pdb
     RDKit          3D

 25 24  0  0  1  0  0  0  0  0999 V2000
   19.7806  -10.7291  -16.0110 N   0  0  0  0  0  0  0  0  0  0  0  0
   18.5160  -10.0625  -16.0765 C   0  0  1  0  0  0  0  0  0  0  0  0
   17.5736  -10.7644  -15.1176 C   0  0  0  0  0  0  0  0  0  0  0  0
   17.4570  -12.1795  -15.5694 C   0  0  0  0  0  0  0  0  0  0  0  0
   17.0916  -12.4343  -16.7364 O   0  0  0  0  0  0  0  0  0  0  0  0
   18.6178   -8.6117  -15.7431 C   0  0  0  0  0  0  0  0  0  0  0  0
   17.5817   -7.9263  -15.6908 O   0  0  0  0  0  0  0  0  0  0  0  0
   17.7462  -13.2554  -14.7226 O   0  0  0  0  0  0  0  0  0  0  0  0
   22.3711   -6.2780  -11.4553 N   0  0  0  0  0  0  0  0  0  0  0  0
   21.0719   -6.8442  -11.3866 C   0  0  0  0  0  0  0  0  0  0  0  0
   20.6395   -7.2166  -10.2782 O   0  0  0  0  0  0  0  0  0  0  0  0
   20.2549   -6.9883  -12.5889 C   0  0  0  0  0  0  0  0  0  0  0  0
   20.8302   -6.4190  -13.8417 C   0  0  0  0  0  0  0  0  0  0  0  0
   20.0250   -6.6077  -15.0760 C   0  0  2  0  0  0  0  0  0  0  0  0
   19.8596   -7.9736  -15.4805 N   0  0  0  0  0  0  0  0  0  0  0  0
   20.7081   -5.8916  -16.1886 C   0  0  0  0  0  0  0  0  0  0  0  0
   21.7840   -6.3820  -16.6499 O   0  0  0  0  0  0  0  0  0  0  0  0
   19.1492   -4.3747  -19.4923 C   0  0  0  0  0  0  0  0  0  0  0  0
   19.9538   -3.3143  -18.7641 C   0  0  1  0  0  0  0  0  0  0  0  0
   19.1158   -2.5133  -17.9803 O   0  0  0  0  0  0  0  0  0  0  0  0
   20.9107   -4.0304  -17.8331 C   0  0  2  0  0  0  0  0  0  0  0  0
   20.2076   -4.6882  -16.7519 N   0  0  0  0  0  0  0  0  0  0  0  0
   21.8388   -3.0358  -17.2692 C   0  0  0  0  0  0  0  0  0  0  0  0
   21.8288   -2.7680  -16.0548 O   0  0  0  0  0  0  0  0  0  0  0  0
   22.7498   -2.3692  -18.0729 O   0  0  0  0  0  0  0  0  0  0  0  0
  2  1  1  1
  3  4  1  0
  3  2  1  0
  4  8  1  0
  5  4  2  0
  6  2  1  0
  6  7  2  0
  9 10  1  0
 10 12  1  0
 11 10  2  0
 12 13  1  0
 14 13  1  1
 15 14  1  0
 15  6  1  0
 16 17  2  0
 16 14  1  0
 19 18  1  1
 19 21  1  0
 20 19  1  0
 21 23  1  0
 21 22  1  1
 22 16  1  0
 23 25  1  0
 24 23  2  0
M  END
$$$$
