DQT.pdb
     RDKit          3D

 25 24  0  0  1  0  0  0  0  0999 V2000
   16.6271  -11.8498  -10.8570 N   0  0  0  0  0  0  0  0  0  0  0  0
   16.0560  -10.5949  -11.2404 C   0  0  1  0  0  0  0  0  0  0  0  0
   14.5475  -10.7531  -11.2356 C   0  0  0  0  0  0  0  0  0  0  0  0
   14.2221  -11.9105  -12.1157 C   0  0  0  0  0  0  0  0  0  0  0  0
   14.8188  -12.0551  -13.2035 O   0  0  0  0  0  0  0  0  0  0  0  0
   16.4688   -9.4806  -10.3381 C   0  0  0  0  0  0  0  0  0  0  0  0
   16.7011   -9.7228   -9.1409 O   0  0  0  0  0  0  0  0  0  0  0  0
   13.2560  -12.8606  -11.7659 O   0  0  0  0  0  0  0  0  0  0  0  0
   20.1201   -7.2522  -12.6385 N   0  0  0  0  0  0  0  0  0  0  0  0
   20.5311   -7.3528  -11.2842 C   0  0  0  0  0  0  0  0  0  0  0  0
   21.6615   -7.8155  -11.0348 O   0  0  0  0  0  0  0  0  0  0  0  0
   19.6495   -6.9228  -10.2017 C   0  0  0  0  0  0  0  0  0  0  0  0
   18.3209   -6.3859  -10.6156 C   0  0  0  0  0  0  0  0  0  0  0  0
   17.1327   -7.0515  -10.0219 C   0  0  2  0  0  0  0  0  0  0  0  0
   16.6094   -8.1420  -10.7925 N   0  0  0  0  0  0  0  0  0  0  0  0
   16.0506   -6.0369   -9.8909 C   0  0  0  0  0  0  0  0  0  0  0  0
   15.4904   -5.6138  -10.9482 O   0  0  0  0  0  0  0  0  0  0  0  0
   12.8971   -3.4071   -7.1788 C   0  0  0  0  0  0  0  0  0  0  0  0
   13.8892   -4.5549   -7.2038 C   0  0  1  0  0  0  0  0  0  0  0  0
   13.2279   -5.7796   -7.0595 O   0  0  0  0  0  0  0  0  0  0  0  0
   14.5567   -4.5482   -8.5638 C   0  0  2  0  0  0  0  0  0  0  0  0
   15.6220   -5.5257   -8.6376 N   0  0  0  0  0  0  0  0  0  0  0  0
   15.1171   -3.2066   -8.7975 C   0  0  0  0  0  0  0  0  0  0  0  0
   16.3131   -2.9627   -8.5595 O   0  0  0  0  0  0  0  0  0  0  0  0
   14.3305   -2.1770   -9.2890 O   0  0  0  0  0  0  0  0  0  0  0  0
  2  1  1  1
  3  4  1  0
  3  2  1  0
  4  8  1  0
  5  4  2  0
  6  2  1  0
  6  7  2  0
  9 10  1  0
 10 12  1  0
 11 10  2  0
 12 13  1  0
 14 13  1  6
 15 14  1  0
 15  6  1  0
 16 17  2  0
 16 14  1  0
 19 18  1  6
 19 21  1  0
 20 19  1  0
 21 23  1  0
 21 22  1  1
 22 16  1  0
 23 25  1  0
 24 23  2  0
M  END
$$$$
