DQT.pdb
     RDKit          3D

 25 24  0  0  1  0  0  0  0  0999 V2000
   17.6938  -11.1971  -16.6590 N   0  0  0  0  0  0  0  0  0  0  0  0
   17.7727   -9.8997  -17.2578 C   0  0  1  0  0  0  0  0  0  0  0  0
   16.4809   -9.6617  -18.0161 C   0  0  0  0  0  0  0  0  0  0  0  0
   16.4678  -10.6015  -19.1722 C   0  0  0  0  0  0  0  0  0  0  0  0
   17.3556  -10.5270  -20.0477 O   0  0  0  0  0  0  0  0  0  0  0  0
   17.9969   -8.8201  -16.2527 C   0  0  0  0  0  0  0  0  0  0  0  0
   17.4579   -8.9086  -15.1357 O   0  0  0  0  0  0  0  0  0  0  0  0
   15.4817  -11.5835  -19.3195 O   0  0  0  0  0  0  0  0  0  0  0  0
   23.2520   -6.3211  -14.3605 N   0  0  0  0  0  0  0  0  0  0  0  0
   22.3056   -5.3989  -13.8438 C   0  0  0  0  0  0  0  0  0  0  0  0
   22.6925   -4.5373  -13.0301 O   0  0  0  0  0  0  0  0  0  0  0  0
   20.9053   -5.4552  -14.2559 C   0  0  0  0  0  0  0  0  0  0  0  0
   20.5424   -6.5626  -15.1868 C   0  0  0  0  0  0  0  0  0  0  0  0
   19.1129   -6.6409  -15.5844 C   0  0  2  0  0  0  0  0  0  0  0  0
   18.8075   -7.6843  -16.5196 N   0  0  0  0  0  0  0  0  0  0  0  0
   18.7374   -5.3474  -16.2195 C   0  0  0  0  0  0  0  0  0  0  0  0
   19.3225   -5.0119  -17.2946 O   0  0  0  0  0  0  0  0  0  0  0  0
   15.3388   -3.8492  -17.3480 C   0  0  0  0  0  0  0  0  0  0  0  0
   15.9681   -2.9317  -16.3164 C   0  0  1  0  0  0  0  0  0  0  0  0
   15.4740   -3.2165  -15.0385 O   0  0  0  0  0  0  0  0  0  0  0  0
   17.4570   -3.2115  -16.3084 C   0  0  2  0  0  0  0  0  0  0  0  0
   17.7561   -4.4781  -15.6742 N   0  0  0  0  0  0  0  0  0  0  0  0
   18.1268   -2.1309  -15.5653 C   0  0  0  0  0  0  0  0  0  0  0  0
   18.6636   -2.3488  -14.4648 O   0  0  0  0  0  0  0  0  0  0  0  0
   18.1794   -0.8408  -16.0685 O   0  0  0  0  0  0  0  0  0  0  0  0
  2  1  1  1
  3  4  1  0
  3  2  1  0
  4  8  1  0
  5  4  2  0
  6  2  1  0
  6  7  2  0
  9 10  1  0
 10 12  1  0
 11 10  2  0
 12 13  1  0
 14 13  1  6
 15 14  1  0
 15  6  1  0
 16 17  2  0
 16 14  1  0
 19 18  1  6
 19 21  1  0
 20 19  1  0
 21 23  1  0
 21 22  1  1
 22 16  1  0
 23 25  1  0
 24 23  2  0
M  END
$$$$
