DQT.pdb
     RDKit          3D

 25 24  0  0  1  0  0  0  0  0999 V2000
   16.0013  -11.2918  -16.8003 N   0  0  0  0  0  0  0  0  0  0  0  0
   16.8080  -10.8251  -15.7144 C   0  0  1  0  0  0  0  0  0  0  0  0
   17.9261  -11.8283  -15.5051 C   0  0  0  0  0  0  0  0  0  0  0  0
   17.2967  -13.1065  -15.0689 C   0  0  0  0  0  0  0  0  0  0  0  0
   16.4083  -13.0973  -14.1909 O   0  0  0  0  0  0  0  0  0  0  0  0
   17.3654   -9.4634  -15.9619 C   0  0  0  0  0  0  0  0  0  0  0  0
   17.7502   -9.1632  -17.1055 O   0  0  0  0  0  0  0  0  0  0  0  0
   17.6680  -14.3408  -15.6140 O   0  0  0  0  0  0  0  0  0  0  0  0
   14.7666   -4.3545  -13.9017 N   0  0  0  0  0  0  0  0  0  0  0  0
   14.5112   -5.2442  -14.9770 C   0  0  0  0  0  0  0  0  0  0  0  0
   13.3836   -5.2319  -15.5087 O   0  0  0  0  0  0  0  0  0  0  0  0
   15.5471   -6.1568  -15.4542 C   0  0  0  0  0  0  0  0  0  0  0  0
   16.8408   -6.1213  -14.7127 C   0  0  0  0  0  0  0  0  0  0  0  0
   17.8612   -7.1176  -15.1296 C   0  0  2  0  0  0  0  0  0  0  0  0
   17.4765   -8.4857  -14.9372 N   0  0  0  0  0  0  0  0  0  0  0  0
   19.0931   -6.8825  -14.3268 C   0  0  0  0  0  0  0  0  0  0  0  0
   19.0942   -7.2357  -13.1077 O   0  0  0  0  0  0  0  0  0  0  0  0
   22.4852   -8.3186  -14.5322 C   0  0  0  0  0  0  0  0  0  0  0  0
   22.6463   -6.8224  -14.7262 C   0  0  1  0  0  0  0  0  0  0  0  0
   22.6185   -6.4972  -16.0869 O   0  0  0  0  0  0  0  0  0  0  0  0
   21.4603   -6.1490  -14.0664 C   0  0  2  0  0  0  0  0  0  0  0  0
   20.2611   -6.2821  -14.8665 N   0  0  0  0  0  0  0  0  0  0  0  0
   21.7728   -4.7195  -13.9014 C   0  0  0  0  0  0  0  0  0  0  0  0
   21.1424   -3.8504  -14.5289 O   0  0  0  0  0  0  0  0  0  0  0  0
   22.7769   -4.2998  -13.0435 O   0  0  0  0  0  0  0  0  0  0  0  0
  2  1  1  6
  3  4  1  0
  3  2  1  0
  4  8  1  0
  5  4  2  0
  6  2  1  0
  6  7  2  0
  9 10  1  0
 10 12  1  0
 11 10  2  0
 12 13  1  0
 14 13  1  1
 15 14  1  0
 15  6  1  0
 16 17  2  0
 16 14  1  0
 19 18  1  6
 19 21  1  0
 20 19  1  0
 21 23  1  0
 21 22  1  6
 22 16  1  0
 23 25  1  0
 24 23  2  0
M  END
$$$$
