DQT.pdb
     RDKit          3D

 25 24  0  0  1  0  0  0  0  0999 V2000
   18.8842  -13.4574  -16.7672 N   0  0  0  0  0  0  0  0  0  0  0  0
   19.9661  -12.5259  -16.6684 C   0  0  1  0  0  0  0  0  0  0  0  0
   20.9148  -12.7959  -17.8205 C   0  0  0  0  0  0  0  0  0  0  0  0
   21.4440  -14.1773  -17.6425 C   0  0  0  0  0  0  0  0  0  0  0  0
   21.8748  -14.5422  -16.5283 O   0  0  0  0  0  0  0  0  0  0  0  0
   19.5023  -11.1080  -16.6928 C   0  0  0  0  0  0  0  0  0  0  0  0
   18.6999  -10.7464  -17.5711 O   0  0  0  0  0  0  0  0  0  0  0  0
   21.4784  -15.1003  -18.6938 O   0  0  0  0  0  0  0  0  0  0  0  0
   16.2442   -6.7615  -15.3110 N   0  0  0  0  0  0  0  0  0  0  0  0
   16.0085   -8.1594  -15.3708 C   0  0  0  0  0  0  0  0  0  0  0  0
   14.8682   -8.5614  -15.6746 O   0  0  0  0  0  0  0  0  0  0  0  0
   17.0790   -9.1108  -15.0834 C   0  0  0  0  0  0  0  0  0  0  0  0
   18.4019   -8.5187  -14.7313 C   0  0  0  0  0  0  0  0  0  0  0  0
   19.5098   -8.7779  -15.6868 C   0  0  2  0  0  0  0  0  0  0  0  0
   19.9422  -10.1440  -15.7465 N   0  0  0  0  0  0  0  0  0  0  0  0
   20.6805   -7.9562  -15.2725 C   0  0  0  0  0  0  0  0  0  0  0  0
   21.4170   -8.3875  -14.3331 O   0  0  0  0  0  0  0  0  0  0  0  0
   23.8050   -4.2266  -16.0161 C   0  0  0  0  0  0  0  0  0  0  0  0
   22.4981   -4.8601  -16.4552 C   0  0  1  0  0  0  0  0  0  0  0  0
   22.6248   -5.4124  -17.7346 O   0  0  0  0  0  0  0  0  0  0  0  0
   22.1957   -5.9902  -15.4926 C   0  0  2  0  0  0  0  0  0  0  0  0
   21.0051   -6.7158  -15.8824 N   0  0  0  0  0  0  0  0  0  0  0  0
   21.9915   -5.4145  -14.1527 C   0  0  0  0  0  0  0  0  0  0  0  0
   20.9413   -4.8120  -13.8686 O   0  0  0  0  0  0  0  0  0  0  0  0
   22.9615   -5.5261  -13.1693 O   0  0  0  0  0  0  0  0  0  0  0  0
  2  1  1  6
  3  4  1  0
  3  2  1  0
  4  8  1  0
  5  4  2  0
  6  2  1  0
  6  7  2  0
  9 10  1  0
 10 12  1  0
 11 10  2  0
 12 13  1  0
 14 13  1  1
 15 14  1  0
 15  6  1  0
 16 17  2  0
 16 14  1  0
 19 18  1  1
 19 21  1  0
 20 19  1  0
 21 23  1  0
 21 22  1  6
 22 16  1  0
 23 25  1  0
 24 23  2  0
M  END
$$$$
