DQT.pdb
     RDKit          3D

 25 24  0  0  1  0  0  0  0  0999 V2000
   13.6011  -10.2620  -10.3457 N   0  0  0  0  0  0  0  0  0  0  0  0
   15.0157  -10.0453  -10.3451 C   0  0  1  0  0  0  0  0  0  0  0  0
   15.6320  -11.0158  -11.3344 C   0  0  0  0  0  0  0  0  0  0  0  0
   15.3829  -12.3909  -10.8176 C   0  0  0  0  0  0  0  0  0  0  0  0
   14.9960  -13.2894  -11.5943 O   0  0  0  0  0  0  0  0  0  0  0  0
   15.3778   -8.6406  -10.6943 C   0  0  0  0  0  0  0  0  0  0  0  0
   14.9109   -8.1321  -11.7285 O   0  0  0  0  0  0  0  0  0  0  0  0
   15.5685  -12.7228   -9.4708 O   0  0  0  0  0  0  0  0  0  0  0  0
   15.0096   -3.6676   -7.2013 N   0  0  0  0  0  0  0  0  0  0  0  0
   15.8253   -3.1852   -8.2574 C   0  0  0  0  0  0  0  0  0  0  0  0
   16.0383   -1.9594   -8.3368 O   0  0  0  0  0  0  0  0  0  0  0  0
   16.4059   -4.1044   -9.2329 C   0  0  0  0  0  0  0  0  0  0  0  0
   16.0811   -5.5478   -9.0442 C   0  0  0  0  0  0  0  0  0  0  0  0
   16.5548   -6.4696  -10.1089 C   0  0  2  0  0  0  0  0  0  0  0  0
   16.2413   -7.8515   -9.8881 N   0  0  0  0  0  0  0  0  0  0  0  0
   18.0370   -6.3555  -10.1945 C   0  0  0  0  0  0  0  0  0  0  0  0
   18.7128   -6.4729   -9.1266 O   0  0  0  0  0  0  0  0  0  0  0  0
   20.7355   -8.3526  -11.3560 C   0  0  0  0  0  0  0  0  0  0  0  0
   20.8213   -7.1025  -12.2115 C   0  0  1  0  0  0  0  0  0  0  0  0
   20.1105   -7.2735  -13.4047 O   0  0  0  0  0  0  0  0  0  0  0  0
   20.1625   -5.9780  -11.4390 C   0  0  2  0  0  0  0  0  0  0  0  0
   18.7221   -6.1220  -11.4159 N   0  0  0  0  0  0  0  0  0  0  0  0
   20.5086   -4.7039  -12.0913 C   0  0  0  0  0  0  0  0  0  0  0  0
   19.6441   -4.0312  -12.6801 O   0  0  0  0  0  0  0  0  0  0  0  0
   21.8057   -4.2164  -12.0689 O   0  0  0  0  0  0  0  0  0  0  0  0
  2  1  1  6
  3  4  1  0
  3  2  1  0
  4  8  1  0
  5  4  2  0
  6  2  1  0
  6  7  2  0
  9 10  1  0
 10 12  1  0
 11 10  2  0
 12 13  1  0
 14 13  1  1
 15 14  1  0
 15  6  1  0
 16 17  2  0
 16 14  1  0
 19 18  1  1
 19 21  1  0
 20 19  1  0
 21 23  1  0
 21 22  1  6
 22 16  1  0
 23 25  1  0
 24 23  2  0
M  END
$$$$
