QTQ.pdb
     RDKit          3D

 26 25  0  0  1  0  0  0  0  0999 V2000
   21.2895  -21.0268   -9.0908 N   0  0  0  0  0  0  0  0  0  0  0  0
   20.7030  -21.7692  -10.1495 C   0  0  0  0  0  0  0  0  0  0  0  0
   19.7106  -22.5000   -9.9889 O   0  0  0  0  0  0  0  0  0  0  0  0
   21.3381  -21.6377  -11.5015 C   0  0  0  0  0  0  0  0  0  0  0  0
   22.4637  -20.6680  -11.3829 C   0  0  0  0  0  0  0  0  0  0  0  0
   23.8407  -21.2660  -11.5715 C   0  0  2  0  0  0  0  0  0  0  0  0
   24.2718  -21.6138  -10.1981 N   0  0  0  0  0  0  0  0  0  0  0  0
   24.8392  -20.3072  -12.0907 C   0  0  0  0  0  0  0  0  0  0  0  0
   25.3217  -19.4502  -11.3083 O   0  0  0  0  0  0  0  0  0  0  0  0
   28.0368  -20.9367  -13.8032 C   0  0  0  0  0  0  0  0  0  0  0  0
   27.2576  -20.0700  -14.7686 C   0  0  1  0  0  0  0  0  0  0  0  0
   26.6508  -20.7956  -15.7630 O   0  0  0  0  0  0  0  0  0  0  0  0
   26.2563  -19.2756  -13.9181 C   0  0  2  0  0  0  0  0  0  0  0  0
   25.3161  -20.2641  -13.4203 N   0  0  0  0  0  0  0  0  0  0  0  0
   25.5913  -18.3086  -14.8265 C   0  0  0  0  0  0  0  0  0  0  0  0
   24.4969  -18.5833  -15.4076 O   0  0  0  0  0  0  0  0  0  0  0  0
   27.2533  -12.2887  -15.6479 N   0  0  0  0  0  0  0  0  0  0  0  0
   27.8302  -13.1483  -16.5880 C   0  0  0  0  0  0  0  0  0  0  0  0
   28.8163  -12.7955  -17.2593 O   0  0  0  0  0  0  0  0  0  0  0  0
   27.2487  -14.5146  -16.7870 C   0  0  0  0  0  0  0  0  0  0  0  0
   26.1224  -14.7424  -15.8138 C   0  0  0  0  0  0  0  0  0  0  0  0
   25.5223  -16.0971  -16.0197 C   0  0  2  0  0  0  0  0  0  0  0  0
   26.1575  -17.0526  -15.0710 N   0  0  0  0  0  0  0  0  0  0  0  0
   25.6673  -16.6445  -17.3798 C   0  0  0  0  0  0  0  0  0  0  0  0
   26.5458  -17.4511  -17.7063 O   0  0  0  0  0  0  0  0  0  0  0  0
   24.7745  -16.2456  -18.3746 O   0  0  0  0  0  0  0  0  0  0  0  0
  1  2  1  0
  2  3  2  0
  2  4  1  0
  4  5  1  0
  5  6  1  0
  6  8  1  0
  6  7  1  1
  8 14  1  0
  9  8  2  0
 11 10  1  1
 11 12  1  0
 13 11  1  0
 13 14  1  6
 15 16  2  0
 15 13  1  0
 17 18  1  0
 18 19  2  0
 20 18  1  0
 20 21  1  0
 22 21  1  6
 22 23  1  0
 23 15  1  0
 24 22  1  0
 25 24  2  0
 26 24  1  0
M  END
$$$$
