QTQ.pdb
     RDKit          3D

 26 25  0  0  1  0  0  0  0  0999 V2000
   16.7609  -15.1204  -14.9958 N   0  0  0  0  0  0  0  0  0  0  0  0
   16.3143  -15.8590  -16.1232 C   0  0  0  0  0  0  0  0  0  0  0  0
   15.2637  -16.5231  -16.1185 O   0  0  0  0  0  0  0  0  0  0  0  0
   17.1754  -15.8090  -17.3498 C   0  0  0  0  0  0  0  0  0  0  0  0
   18.3360  -14.9215  -17.0549 C   0  0  0  0  0  0  0  0  0  0  0  0
   19.2918  -14.7196  -18.2104 C   0  0  2  0  0  0  0  0  0  0  0  0
   20.1226  -15.9454  -18.2069 N   0  0  0  0  0  0  0  0  0  0  0  0
   20.2219  -13.5860  -18.0212 C   0  0  0  0  0  0  0  0  0  0  0  0
   21.2004  -13.7269  -17.2453 O   0  0  0  0  0  0  0  0  0  0  0  0
   19.6690  -10.1010  -20.1201 C   0  0  0  0  0  0  0  0  0  0  0  0
   21.0946  -10.5200  -19.8331 C   0  0  1  0  0  0  0  0  0  0  0  0
   21.9724   -9.4652  -19.8522 O   0  0  0  0  0  0  0  0  0  0  0  0
   21.0640  -11.2422  -18.4787 C   0  0  2  0  0  0  0  0  0  0  0  0
   20.1117  -12.3252  -18.6498 N   0  0  0  0  0  0  0  0  0  0  0  0
   20.5862  -10.2577  -17.4761 C   0  0  0  0  0  0  0  0  0  0  0  0
   19.4931  -10.4185  -16.8517 O   0  0  0  0  0  0  0  0  0  0  0  0
   18.6954   -9.4567  -13.5643 N   0  0  0  0  0  0  0  0  0  0  0  0
   19.5830   -8.5832  -12.9282 C   0  0  0  0  0  0  0  0  0  0  0  0
   19.2601   -7.9887  -11.8842 O   0  0  0  0  0  0  0  0  0  0  0  0
   20.9432   -8.3625  -13.5162 C   0  0  0  0  0  0  0  0  0  0  0  0
   21.1005   -9.1777  -14.7725 C   0  0  0  0  0  0  0  0  0  0  0  0
   21.0477   -8.2930  -15.9774 C   0  0  2  0  0  0  0  0  0  0  0  0
   21.3353   -9.1118  -17.1872 N   0  0  0  0  0  0  0  0  0  0  0  0
   21.9892   -7.1599  -15.9623 C   0  0  0  0  0  0  0  0  0  0  0  0
   21.8282   -6.1412  -15.2803 O   0  0  0  0  0  0  0  0  0  0  0  0
   23.1361   -7.2153  -16.7545 O   0  0  0  0  0  0  0  0  0  0  0  0
  1  2  1  0
  2  3  2  0
  2  4  1  0
  4  5  1  0
  5  6  1  0
  6  8  1  0
  6  7  1  1
  8 14  1  0
  9  8  2  0
 11 10  1  1
 11 12  1  0
 13 11  1  0
 13 14  1  6
 15 16  2  0
 15 13  1  0
 17 18  1  0
 18 19  2  0
 20 18  1  0
 20 21  1  0
 22 21  1  1
 22 23  1  0
 23 15  1  0
 24 22  1  0
 25 24  2  0
 26 24  1  0
M  END
$$$$
