QTQ.pdb
     RDKit          3D

 26 25  0  0  1  0  0  0  0  0999 V2000
   21.6595  -19.8274  -16.0629 N   0  0  0  0  0  0  0  0  0  0  0  0
   21.1570  -19.7787  -14.7358 C   0  0  0  0  0  0  0  0  0  0  0  0
   20.7638  -20.7893  -14.1284 O   0  0  0  0  0  0  0  0  0  0  0  0
   21.1162  -18.4327  -14.0763 C   0  0  0  0  0  0  0  0  0  0  0  0
   21.7142  -17.4457  -15.0196 C   0  0  0  0  0  0  0  0  0  0  0  0
   20.7313  -16.4659  -15.6224 C   0  0  2  0  0  0  0  0  0  0  0  0
   19.8231  -17.3170  -16.4248 N   0  0  0  0  0  0  0  0  0  0  0  0
   21.3482  -15.5100  -16.5666 C   0  0  0  0  0  0  0  0  0  0  0  0
   21.4018  -15.8103  -17.7857 O   0  0  0  0  0  0  0  0  0  0  0  0
   20.5762  -13.9289  -18.6748 C   0  0  0  0  0  0  0  0  0  0  0  0
   21.1360  -12.7599  -17.8936 C   0  0  1  0  0  0  0  0  0  0  0  0
   20.2216  -12.2118  -17.0293 O   0  0  0  0  0  0  0  0  0  0  0  0
   22.3890  -13.2841  -17.1780 C   0  0  2  0  0  0  0  0  0  0  0  0
   21.8965  -14.2553  -16.2172 N   0  0  0  0  0  0  0  0  0  0  0  0
   23.0146  -12.1226  -16.4980 C   0  0  0  0  0  0  0  0  0  0  0  0
   22.6109  -11.7158  -15.3657 O   0  0  0  0  0  0  0  0  0  0  0  0
   28.7829  -10.0216  -17.5355 N   0  0  0  0  0  0  0  0  0  0  0  0
   28.4724   -9.6111  -16.2352 C   0  0  0  0  0  0  0  0  0  0  0  0
   29.3516   -9.1654  -15.4762 O   0  0  0  0  0  0  0  0  0  0  0  0
   27.0577   -9.7112  -15.7523 C   0  0  0  0  0  0  0  0  0  0  0  0
   26.1723  -10.2309  -16.8539 C   0  0  0  0  0  0  0  0  0  0  0  0
   24.7533  -10.3104  -16.3876 C   0  0  2  0  0  0  0  0  0  0  0  0
   24.0789  -11.4355  -17.0920 N   0  0  0  0  0  0  0  0  0  0  0  0
   23.9538   -9.0928  -16.6085 C   0  0  0  0  0  0  0  0  0  0  0  0
   23.9780   -8.1092  -15.8596 O   0  0  0  0  0  0  0  0  0  0  0  0
   23.1134   -9.0206  -17.7195 O   0  0  0  0  0  0  0  0  0  0  0  0
  1  2  1  0
  2  3  2  0
  2  4  1  0
  4  5  1  0
  5  6  1  0
  6  8  1  0
  6  7  1  6
  8 14  1  0
  9  8  2  0
 11 10  1  1
 11 12  1  0
 13 11  1  0
 13 14  1  1
 15 16  2  0
 15 13  1  0
 17 18  1  0
 18 19  2  0
 20 18  1  0
 20 21  1  0
 22 21  1  6
 22 23  1  0
 23 15  1  0
 24 22  1  0
 25 24  2  0
 26 24  1  0
M  END
$$$$
