QTQ.pdb
     RDKit          3D

 26 25  0  0  1  0  0  0  0  0999 V2000
   18.5406  -15.1337  -14.8057 N   0  0  0  0  0  0  0  0  0  0  0  0
   18.0726  -16.3394  -15.3916 C   0  0  0  0  0  0  0  0  0  0  0  0
   18.3921  -17.4622  -14.9652 O   0  0  0  0  0  0  0  0  0  0  0  0
   17.1569  -16.2077  -16.5717 C   0  0  0  0  0  0  0  0  0  0  0  0
   16.9841  -14.7543  -16.8534 C   0  0  0  0  0  0  0  0  0  0  0  0
   16.0355  -14.0341  -15.9202 C   0  0  2  0  0  0  0  0  0  0  0  0
   14.7024  -14.5678  -16.2821 N   0  0  0  0  0  0  0  0  0  0  0  0
   15.9743  -12.5742  -16.1453 C   0  0  0  0  0  0  0  0  0  0  0  0
   15.1889  -12.1272  -17.0185 O   0  0  0  0  0  0  0  0  0  0  0  0
   14.1721  -10.5792  -15.7814 C   0  0  0  0  0  0  0  0  0  0  0  0
   15.2140   -9.8578  -14.9542 C   0  0  1  0  0  0  0  0  0  0  0  0
   15.1689  -10.2008  -13.6262 O   0  0  0  0  0  0  0  0  0  0  0  0
   16.5691  -10.1734  -15.6030 C   0  0  2  0  0  0  0  0  0  0  0  0
   16.7359  -11.6079  -15.4501 N   0  0  0  0  0  0  0  0  0  0  0  0
   17.5979   -9.4265  -14.8372 C   0  0  0  0  0  0  0  0  0  0  0  0
   18.5663  -10.0178  -14.2686 O   0  0  0  0  0  0  0  0  0  0  0  0
   21.8428   -8.0924  -17.1236 N   0  0  0  0  0  0  0  0  0  0  0  0
   22.1153   -7.1288  -16.1474 C   0  0  0  0  0  0  0  0  0  0  0  0
   23.2304   -6.5814  -16.0804 O   0  0  0  0  0  0  0  0  0  0  0  0
   21.0452   -6.7527  -15.1688 C   0  0  0  0  0  0  0  0  0  0  0  0
   19.8136   -7.5862  -15.4056 C   0  0  0  0  0  0  0  0  0  0  0  0
   18.7459   -7.2292  -14.4207 C   0  0  2  0  0  0  0  0  0  0  0  0
   17.5293   -8.0340  -14.7188 N   0  0  0  0  0  0  0  0  0  0  0  0
   18.3576   -5.8081  -14.4078 C   0  0  0  0  0  0  0  0  0  0  0  0
   17.3814   -5.3565  -15.0175 O   0  0  0  0  0  0  0  0  0  0  0  0
   19.1191   -4.8994  -13.6727 O   0  0  0  0  0  0  0  0  0  0  0  0
  1  2  1  0
  2  3  2  0
  2  4  1  0
  4  5  1  0
  5  6  1  0
  6  8  1  0
  6  7  1  6
  8 14  1  0
  9  8  2  0
 11 10  1  6
 11 12  1  0
 13 11  1  0
 13 14  1  1
 15 16  2  0
 15 13  1  0
 17 18  1  0
 18 19  2  0
 20 18  1  0
 20 21  1  0
 22 21  1  6
 22 23  1  0
 23 15  1  0
 24 22  1  0
 25 24  2  0
 26 24  1  0
M  END
$$$$
