QTQ.pdb
     RDKit          3D

 26 25  0  0  1  0  0  0  0  0999 V2000
   14.3294  -12.2897  -12.4574 N   0  0  0  0  0  0  0  0  0  0  0  0
   14.0459  -13.0559  -11.2961 C   0  0  0  0  0  0  0  0  0  0  0  0
   13.8841  -14.2878  -11.3265 O   0  0  0  0  0  0  0  0  0  0  0  0
   13.9461  -12.3087   -9.9998 C   0  0  0  0  0  0  0  0  0  0  0  0
   14.1718  -10.8641  -10.2889 C   0  0  0  0  0  0  0  0  0  0  0  0
   14.0146   -9.9450   -9.0972 C   0  0  2  0  0  0  0  0  0  0  0  0
   12.5846  -10.0710   -8.7335 N   0  0  0  0  0  0  0  0  0  0  0  0
   14.2395   -8.5183   -9.4132 C   0  0  0  0  0  0  0  0  0  0  0  0
   13.2907   -7.7074   -9.2665 O   0  0  0  0  0  0  0  0  0  0  0  0
   14.0451   -6.0477   -8.3436 C   0  0  0  0  0  0  0  0  0  0  0  0
   15.5106   -5.9096   -8.6952 C   0  0  1  0  0  0  0  0  0  0  0  0
   16.3379   -6.4655   -7.7518 O   0  0  0  0  0  0  0  0  0  0  0  0
   15.6798   -6.5460  -10.0819 C   0  0  2  0  0  0  0  0  0  0  0  0
   15.4552   -7.9659   -9.8757 N   0  0  0  0  0  0  0  0  0  0  0  0
   17.0747   -6.2778  -10.5119 C   0  0  0  0  0  0  0  0  0  0  0  0
   18.0631   -6.8648   -9.9740 O   0  0  0  0  0  0  0  0  0  0  0  0
   18.2162   -9.5883  -13.3040 N   0  0  0  0  0  0  0  0  0  0  0  0
   18.3770   -8.8904  -14.5051 C   0  0  0  0  0  0  0  0  0  0  0  0
   18.9177   -9.4247  -15.4899 O   0  0  0  0  0  0  0  0  0  0  0  0
   17.8892   -7.4773  -14.6037 C   0  0  0  0  0  0  0  0  0  0  0  0
   17.3073   -7.0395  -13.2856 C   0  0  0  0  0  0  0  0  0  0  0  0
   17.9843   -5.7952  -12.8052 C   0  0  2  0  0  0  0  0  0  0  0  0
   17.3434   -5.3604  -11.5336 N   0  0  0  0  0  0  0  0  0  0  0  0
   17.9452   -4.6604  -13.7439 C   0  0  0  0  0  0  0  0  0  0  0  0
   16.9524   -3.9435  -13.9150 O   0  0  0  0  0  0  0  0  0  0  0  0
   19.0810   -4.3565  -14.4946 O   0  0  0  0  0  0  0  0  0  0  0  0
  1  2  1  0
  2  3  2  0
  2  4  1  0
  4  5  1  0
  5  6  1  0
  6  8  1  0
  6  7  1  6
  8 14  1  0
  9  8  2  0
 11 10  1  1
 11 12  1  0
 13 11  1  0
 13 14  1  1
 15 16  2  0
 15 13  1  0
 17 18  1  0
 18 19  2  0
 20 18  1  0
 20 21  1  0
 22 21  1  6
 22 23  1  0
 23 15  1  0
 24 22  1  0
 25 24  2  0
 26 24  1  0
M  END
$$$$
