QTQ.pdb
     RDKit          3D

 26 25  0  0  1  0  0  0  0  0999 V2000
   18.2202  -19.5651  -16.5749 N   0  0  0  0  0  0  0  0  0  0  0  0
   19.5091  -18.9842  -16.7063 C   0  0  0  0  0  0  0  0  0  0  0  0
   19.7740  -18.1226  -17.5620 O   0  0  0  0  0  0  0  0  0  0  0  0
   20.5655  -19.4580  -15.7535 C   0  0  0  0  0  0  0  0  0  0  0  0
   21.2419  -18.2554  -15.1896 C   0  0  0  0  0  0  0  0  0  0  0  0
   22.3182  -17.6596  -16.0706 C   0  0  2  0  0  0  0  0  0  0  0  0
   23.3366  -18.7304  -16.1664 N   0  0  0  0  0  0  0  0  0  0  0  0
   22.9977  -16.4914  -15.4712 C   0  0  0  0  0  0  0  0  0  0  0  0
   22.9828  -16.3557  -14.2219 O   0  0  0  0  0  0  0  0  0  0  0  0
   26.4964  -13.2240  -15.4424 C   0  0  0  0  0  0  0  0  0  0  0  0
   25.8090  -14.4547  -15.9930 C   0  0  1  0  0  0  0  0  0  0  0  0
   26.3931  -15.6228  -15.5714 O   0  0  0  0  0  0  0  0  0  0  0  0
   24.3355  -14.3440  -15.5768 C   0  0  2  0  0  0  0  0  0  0  0  0
   23.6828  -15.4867  -16.1911 N   0  0  0  0  0  0  0  0  0  0  0  0
   23.8247  -13.0672  -16.1349 C   0  0  0  0  0  0  0  0  0  0  0  0
   23.3104  -13.0040  -17.2935 O   0  0  0  0  0  0  0  0  0  0  0  0
   21.2058   -8.6508  -12.8031 N   0  0  0  0  0  0  0  0  0  0  0  0
   21.2323   -8.0125  -14.0470 C   0  0  0  0  0  0  0  0  0  0  0  0
   20.6808   -6.9100  -14.2140 O   0  0  0  0  0  0  0  0  0  0  0  0
   21.9368   -8.6699  -15.1942 C   0  0  0  0  0  0  0  0  0  0  0  0
   22.5537   -9.9681  -14.7449 C   0  0  0  0  0  0  0  0  0  0  0  0
   23.2614  -10.6301  -15.8844 C   0  0  2  0  0  0  0  0  0  0  0  0
   23.8961  -11.8837  -15.3920 N   0  0  0  0  0  0  0  0  0  0  0  0
   24.3062   -9.8157  -16.5290 C   0  0  0  0  0  0  0  0  0  0  0  0
   25.5063   -9.8817  -16.2387 O   0  0  0  0  0  0  0  0  0  0  0  0
   23.9465   -8.9102  -17.5274 O   0  0  0  0  0  0  0  0  0  0  0  0
  1  2  1  0
  2  3  2  0
  2  4  1  0
  4  5  1  0
  5  6  1  0
  6  8  1  0
  6  7  1  1
  8 14  1  0
  9  8  2  0
 11 10  1  1
 11 12  1  0
 13 11  1  0
 13 14  1  6
 15 16  2  0
 15 13  1  0
 17 18  1  0
 18 19  2  0
 20 18  1  0
 20 21  1  0
 22 21  1  1
 22 23  1  0
 23 15  1  0
 24 22  1  0
 25 24  2  0
 26 24  1  0
M  END
$$$$
