QTQ.pdb
     RDKit          3D

 26 25  0  0  1  0  0  0  0  0999 V2000
   16.3011  -14.6593  -14.9793 N   0  0  0  0  0  0  0  0  0  0  0  0
   16.4537  -16.0555  -14.7712 C   0  0  0  0  0  0  0  0  0  0  0  0
   15.5216  -16.7842  -14.3905 O   0  0  0  0  0  0  0  0  0  0  0  0
   17.8118  -16.6347  -15.0332 C   0  0  0  0  0  0  0  0  0  0  0  0
   18.7174  -15.5149  -15.4174 C   0  0  0  0  0  0  0  0  0  0  0  0
   18.7147  -15.1719  -16.8911 C   0  0  2  0  0  0  0  0  0  0  0  0
   19.3700  -16.3354  -17.5312 N   0  0  0  0  0  0  0  0  0  0  0  0
   19.5395  -13.9922  -17.2282 C   0  0  0  0  0  0  0  0  0  0  0  0
   20.4904  -14.1281  -18.0385 O   0  0  0  0  0  0  0  0  0  0  0  0
   20.0526  -12.5558  -19.4276 C   0  0  0  0  0  0  0  0  0  0  0  0
   19.5090  -11.3630  -18.6713 C   0  0  1  0  0  0  0  0  0  0  0  0
   18.1423  -11.2632  -18.7479 O   0  0  0  0  0  0  0  0  0  0  0  0
   20.0138  -11.5048  -17.2285 C   0  0  2  0  0  0  0  0  0  0  0  0
   19.3525  -12.6900  -16.7119 N   0  0  0  0  0  0  0  0  0  0  0  0
   19.5827  -10.2861  -16.4993 C   0  0  0  0  0  0  0  0  0  0  0  0
   18.4267  -10.1908  -15.9843 O   0  0  0  0  0  0  0  0  0  0  0  0
   23.3960   -5.5971  -14.7373 N   0  0  0  0  0  0  0  0  0  0  0  0
   22.1653   -5.1404  -14.2550 C   0  0  0  0  0  0  0  0  0  0  0  0
   22.0738   -4.0518  -13.6598 O   0  0  0  0  0  0  0  0  0  0  0  0
   20.9403   -5.9780  -14.4602 C   0  0  0  0  0  0  0  0  0  0  0  0
   21.2991   -7.2473  -15.1867 C   0  0  0  0  0  0  0  0  0  0  0  0
   20.0634   -8.0146  -15.5358 C   0  0  2  0  0  0  0  0  0  0  0  0
   20.4476   -9.1954  -16.3571 N   0  0  0  0  0  0  0  0  0  0  0  0
   19.0460   -7.2544  -16.2826 C   0  0  0  0  0  0  0  0  0  0  0  0
   19.0601   -7.1092  -17.5104 O   0  0  0  0  0  0  0  0  0  0  0  0
   17.9960   -6.6544  -15.5873 O   0  0  0  0  0  0  0  0  0  0  0  0
  1  2  1  0
  2  3  2  0
  2  4  1  0
  4  5  1  0
  5  6  1  0
  6  8  1  0
  6  7  1  6
  8 14  1  0
  9  8  2  0
 11 10  1  6
 11 12  1  0
 13 11  1  0
 13 14  1  1
 15 16  2  0
 15 13  1  0
 17 18  1  0
 18 19  2  0
 20 18  1  0
 20 21  1  0
 22 21  1  6
 22 23  1  0
 23 15  1  0
 24 22  1  0
 25 24  2  0
 26 24  1  0
M  END
$$$$
