QTQ.pdb
     RDKit          3D

 26 25  0  0  1  0  0  0  0  0999 V2000
   16.6578  -16.0513  -14.4707 N   0  0  0  0  0  0  0  0  0  0  0  0
   16.1573  -16.0182  -15.7990 C   0  0  0  0  0  0  0  0  0  0  0  0
   15.6130  -16.9975  -16.3369 O   0  0  0  0  0  0  0  0  0  0  0  0
   16.3123  -14.7289  -16.5489 C   0  0  0  0  0  0  0  0  0  0  0  0
   17.0568  -13.7801  -15.6732 C   0  0  0  0  0  0  0  0  0  0  0  0
   17.2373  -12.3922  -16.2482 C   0  0  2  0  0  0  0  0  0  0  0  0
   17.4238  -12.6264  -17.6985 N   0  0  0  0  0  0  0  0  0  0  0  0
   18.4600  -11.7078  -15.7766 C   0  0  0  0  0  0  0  0  0  0  0  0
   18.6528  -11.5934  -14.5401 O   0  0  0  0  0  0  0  0  0  0  0  0
   23.0147  -10.1719  -16.5883 C   0  0  0  0  0  0  0  0  0  0  0  0
   21.7775  -10.9106  -17.0509 C   0  0  1  0  0  0  0  0  0  0  0  0
   21.9477  -12.2723  -17.0698 O   0  0  0  0  0  0  0  0  0  0  0  0
   20.6409  -10.4675  -16.1189 C   0  0  2  0  0  0  0  0  0  0  0  0
   19.4604  -11.1568  -16.6090 N   0  0  0  0  0  0  0  0  0  0  0  0
   20.5082   -8.9970  -16.2702 C   0  0  0  0  0  0  0  0  0  0  0  0
   19.9874   -8.4771  -17.3043 O   0  0  0  0  0  0  0  0  0  0  0  0
   16.6123   -5.8234  -15.6255 N   0  0  0  0  0  0  0  0  0  0  0  0
   17.4759   -4.7236  -15.6200 C   0  0  0  0  0  0  0  0  0  0  0  0
   17.0352   -3.5618  -15.6805 O   0  0  0  0  0  0  0  0  0  0  0  0
   18.9544   -4.9520  -15.5399 C   0  0  0  0  0  0  0  0  0  0  0  0
   19.2477   -6.4288  -15.5178 C   0  0  0  0  0  0  0  0  0  0  0  0
   20.7153   -6.6658  -15.3525 C   0  0  2  0  0  0  0  0  0  0  0  0
   20.9580   -8.1322  -15.2664 N   0  0  0  0  0  0  0  0  0  0  0  0
   21.3203   -6.0356  -14.1663 C   0  0  0  0  0  0  0  0  0  0  0  0
   21.6053   -6.6495  -13.1315 O   0  0  0  0  0  0  0  0  0  0  0  0
   21.5975   -4.6685  -14.1866 O   0  0  0  0  0  0  0  0  0  0  0  0
  1  2  1  0
  2  3  2  0
  2  4  1  0
  4  5  1  0
  5  6  1  0
  6  8  1  0
  6  7  1  6
  8 14  1  0
  9  8  2  0
 11 10  1  1
 11 12  1  0
 13 11  1  0
 13 14  1  6
 15 16  2  0
 15 13  1  0
 17 18  1  0
 18 19  2  0
 20 18  1  0
 20 21  1  0
 22 21  1  1
 22 23  1  0
 23 15  1  0
 24 22  1  0
 25 24  2  0
 26 24  1  0
M  END
$$$$
