QTQ.pdb
     RDKit          3D

 26 25  0  0  1  0  0  0  0  0999 V2000
   16.3355  -12.7247  -14.6944 N   0  0  0  0  0  0  0  0  0  0  0  0
   17.0602  -13.5014  -15.6365 C   0  0  0  0  0  0  0  0  0  0  0  0
   16.8187  -14.7026  -15.8451 O   0  0  0  0  0  0  0  0  0  0  0  0
   18.1538  -12.8048  -16.3897 C   0  0  0  0  0  0  0  0  0  0  0  0
   18.2377  -11.4066  -15.8805 C   0  0  0  0  0  0  0  0  0  0  0  0
   19.2218  -10.5210  -16.6131 C   0  0  2  0  0  0  0  0  0  0  0  0
   20.5321  -11.1693  -16.3772 N   0  0  0  0  0  0  0  0  0  0  0  0
   19.3255   -9.1569  -16.0525 C   0  0  0  0  0  0  0  0  0  0  0  0
   18.2983   -8.4335  -16.0224 O   0  0  0  0  0  0  0  0  0  0  0  0
   22.3425   -8.4047  -13.7321 C   0  0  0  0  0  0  0  0  0  0  0  0
   21.1699   -7.4668  -13.5435 C   0  0  1  0  0  0  0  0  0  0  0  0
   21.5234   -6.2908  -12.9307 O   0  0  0  0  0  0  0  0  0  0  0  0
   20.5658   -7.2511  -14.9383 C   0  0  2  0  0  0  0  0  0  0  0  0
   20.5033   -8.5752  -15.5315 N   0  0  0  0  0  0  0  0  0  0  0  0
   21.5014   -6.3710  -15.6817 C   0  0  0  0  0  0  0  0  0  0  0  0
   22.5140   -6.8359  -16.2893 O   0  0  0  0  0  0  0  0  0  0  0  0
   22.1057   -5.2595  -20.6187 N   0  0  0  0  0  0  0  0  0  0  0  0
   20.9656   -4.6018  -20.1463 C   0  0  0  0  0  0  0  0  0  0  0  0
   20.0068   -4.3585  -20.9007 O   0  0  0  0  0  0  0  0  0  0  0  0
   20.9016   -4.1852  -18.7087 C   0  0  0  0  0  0  0  0  0  0  0  0
   22.1385   -4.6446  -17.9830 C   0  0  0  0  0  0  0  0  0  0  0  0
   22.1482   -4.1155  -16.5839 C   0  0  2  0  0  0  0  0  0  0  0  0
   21.2918   -4.9886  -15.7347 N   0  0  0  0  0  0  0  0  0  0  0  0
   21.6700   -2.7298  -16.4366 C   0  0  0  0  0  0  0  0  0  0  0  0
   20.6291   -2.4209  -15.8451 O   0  0  0  0  0  0  0  0  0  0  0  0
   22.4169   -1.6882  -16.9872 O   0  0  0  0  0  0  0  0  0  0  0  0
  1  2  1  0
  2  3  2  0
  2  4  1  0
  4  5  1  0
  5  6  1  0
  6  8  1  0
  6  7  1  1
  8 14  1  0
  9  8  2  0
 11 10  1  6
 11 12  1  0
 13 11  1  0
 13 14  1  6
 15 16  2  0
 15 13  1  0
 17 18  1  0
 18 19  2  0
 20 18  1  0
 20 21  1  0
 22 21  1  6
 22 23  1  0
 23 15  1  0
 24 22  1  0
 25 24  2  0
 26 24  1  0
M  END
$$$$
