QTQ.pdb
     RDKit          3D

 26 25  0  0  1  0  0  0  0  0999 V2000
   26.4067  -21.3234  -12.3601 N   0  0  0  0  0  0  0  0  0  0  0  0
   25.6716  -21.8333  -11.2575 C   0  0  0  0  0  0  0  0  0  0  0  0
   26.0066  -22.8606  -10.6435 O   0  0  0  0  0  0  0  0  0  0  0  0
   24.4467  -21.0704  -10.8496 C   0  0  0  0  0  0  0  0  0  0  0  0
   24.4077  -19.8123  -11.6477 C   0  0  0  0  0  0  0  0  0  0  0  0
   23.5967  -19.8929  -12.9226 C   0  0  2  0  0  0  0  0  0  0  0  0
   23.9381  -21.2212  -13.4813 N   0  0  0  0  0  0  0  0  0  0  0  0
   23.9923  -18.8984  -13.9426 C   0  0  0  0  0  0  0  0  0  0  0  0
   23.7408  -17.6845  -13.7361 O   0  0  0  0  0  0  0  0  0  0  0  0
   27.2479  -18.0248  -15.0956 C   0  0  0  0  0  0  0  0  0  0  0  0
   26.5445  -18.4435  -16.3685 C   0  0  1  0  0  0  0  0  0  0  0  0
   26.8153  -19.7414  -16.7228 O   0  0  0  0  0  0  0  0  0  0  0  0
   25.0484  -18.1924  -16.1330 C   0  0  2  0  0  0  0  0  0  0  0  0
   24.6461  -19.1928  -15.1603 N   0  0  0  0  0  0  0  0  0  0  0  0
   24.3663  -18.4012  -17.4345 C   0  0  0  0  0  0  0  0  0  0  0  0
   24.2536  -19.5550  -17.9510 O   0  0  0  0  0  0  0  0  0  0  0  0
   18.8474  -19.9425  -17.5589 N   0  0  0  0  0  0  0  0  0  0  0  0
   19.2315  -18.6425  -17.2152 C   0  0  0  0  0  0  0  0  0  0  0  0
   18.8705  -18.1300  -16.1407 O   0  0  0  0  0  0  0  0  0  0  0  0
   20.0912  -17.8579  -18.1585 C   0  0  0  0  0  0  0  0  0  0  0  0
   21.4919  -17.7549  -17.6153 C   0  0  0  0  0  0  0  0  0  0  0  0
   22.4480  -17.3903  -18.7064 C   0  0  2  0  0  0  0  0  0  0  0  0
   23.8220  -17.3205  -18.1371 N   0  0  0  0  0  0  0  0  0  0  0  0
   22.1700  -16.1090  -19.3784 C   0  0  0  0  0  0  0  0  0  0  0  0
   22.6836  -15.0338  -19.0483 O   0  0  0  0  0  0  0  0  0  0  0  0
   21.2796  -16.0808  -20.4519 O   0  0  0  0  0  0  0  0  0  0  0  0
  1  2  1  0
  2  3  2  0
  2  4  1  0
  4  5  1  0
  5  6  1  0
  6  8  1  0
  6  7  1  6
  8 14  1  0
  9  8  2  0
 11 10  1  1
 11 12  1  0
 13 11  1  0
 13 14  1  1
 15 16  2  0
 15 13  1  0
 17 18  1  0
 18 19  2  0
 20 18  1  0
 20 21  1  0
 22 21  1  1
 22 23  1  0
 23 15  1  0
 24 22  1  0
 25 24  2  0
 26 24  1  0
M  END
$$$$
