QTQ.pdb
     RDKit          3D

 26 25  0  0  1  0  0  0  0  0999 V2000
   15.0111  -26.8310   -0.5779 N   0  0  0  0  0  0  0  0  0  0  0  0
   15.7159  -28.0589   -0.4700 C   0  0  0  0  0  0  0  0  0  0  0  0
   15.4416  -28.9186    0.3846 O   0  0  0  0  0  0  0  0  0  0  0  0
   16.8301  -28.2880   -1.4470 C   0  0  0  0  0  0  0  0  0  0  0  0
   16.9015  -27.0987   -2.3426 C   0  0  0  0  0  0  0  0  0  0  0  0
   17.9969  -27.1526   -3.3851 C   0  0  2  0  0  0  0  0  0  0  0  0
   19.2476  -27.0997   -2.5941 N   0  0  0  0  0  0  0  0  0  0  0  0
   18.0219  -25.9777   -4.2822 C   0  0  0  0  0  0  0  0  0  0  0  0
   18.6715  -24.9605   -3.9320 O   0  0  0  0  0  0  0  0  0  0  0  0
   19.0433  -25.2750   -7.7999 C   0  0  0  0  0  0  0  0  0  0  0  0
   17.5473  -25.0537   -7.7437 C   0  0  1  0  0  0  0  0  0  0  0  0
   16.8325  -26.1454   -8.1688 O   0  0  0  0  0  0  0  0  0  0  0  0
   17.2267  -24.6621   -6.2943 C   0  0  2  0  0  0  0  0  0  0  0  0
   17.3674  -25.8898   -5.5316 N   0  0  0  0  0  0  0  0  0  0  0  0
   15.8246  -24.1758   -6.2794 C   0  0  0  0  0  0  0  0  0  0  0  0
   15.0287  -24.4640   -5.3337 O   0  0  0  0  0  0  0  0  0  0  0  0
   12.9097  -21.7108   -3.5433 N   0  0  0  0  0  0  0  0  0  0  0  0
   12.1587  -21.0894   -4.5460 C   0  0  0  0  0  0  0  0  0  0  0  0
   11.0717  -20.5425   -4.2872 O   0  0  0  0  0  0  0  0  0  0  0  0
   12.6745  -21.0842   -5.9525 C   0  0  0  0  0  0  0  0  0  0  0  0
   13.9786  -21.8336   -6.0263 C   0  0  0  0  0  0  0  0  0  0  0  0
   13.9965  -22.7311   -7.2228 C   0  0  2  0  0  0  0  0  0  0  0  0
   15.3345  -23.3771   -7.3184 N   0  0  0  0  0  0  0  0  0  0  0  0
   13.7217  -22.0649   -8.5078 C   0  0  0  0  0  0  0  0  0  0  0  0
   14.5712  -21.4412   -9.1544 O   0  0  0  0  0  0  0  0  0  0  0  0
   12.4368  -22.1268   -9.0474 O   0  0  0  0  0  0  0  0  0  0  0  0
  1  2  1  0
  2  3  2  0
  2  4  1  0
  4  5  1  0
  5  6  1  0
  6  8  1  0
  6  7  1  1
  8 14  1  0
  9  8  2  0
 11 10  1  1
 11 12  1  0
 13 11  1  0
 13 14  1  1
 15 16  2  0
 15 13  1  0
 17 18  1  0
 18 19  2  0
 20 18  1  0
 20 21  1  0
 22 21  1  1
 22 23  1  0
 23 15  1  0
 24 22  1  0
 25 24  2  0
 26 24  1  0
M  END
$$$$
