QTQ.pdb
     RDKit          3D

 26 25  0  0  1  0  0  0  0  0999 V2000
   16.6277  -15.0856  -14.0171 N   0  0  0  0  0  0  0  0  0  0  0  0
   15.4249  -14.6962  -14.6634 C   0  0  0  0  0  0  0  0  0  0  0  0
   14.5316  -15.5059  -14.9654 O   0  0  0  0  0  0  0  0  0  0  0  0
   15.2659  -13.2385  -14.9766 C   0  0  0  0  0  0  0  0  0  0  0  0
   16.4406  -12.5199  -14.4062 C   0  0  0  0  0  0  0  0  0  0  0  0
   17.1215  -11.5595  -15.3568 C   0  0  2  0  0  0  0  0  0  0  0  0
   18.2930  -12.3169  -15.8535 N   0  0  0  0  0  0  0  0  0  0  0  0
   17.6573  -10.3499  -14.6969 C   0  0  0  0  0  0  0  0  0  0  0  0
   18.6986  -10.4494  -14.0005 O   0  0  0  0  0  0  0  0  0  0  0  0
   18.5492   -5.6818  -14.5008 C   0  0  0  0  0  0  0  0  0  0  0  0
   18.1304   -6.9630  -15.1888 C   0  0  1  0  0  0  0  0  0  0  0  0
   19.1422   -7.5254  -15.9260 O   0  0  0  0  0  0  0  0  0  0  0  0
   17.6140   -7.8938  -14.0825 C   0  0  2  0  0  0  0  0  0  0  0  0
   17.0938   -9.0566  -14.7798 N   0  0  0  0  0  0  0  0  0  0  0  0
   16.5344   -7.1628  -13.3734 C   0  0  0  0  0  0  0  0  0  0  0  0
   15.4030   -6.9581  -13.9109 O   0  0  0  0  0  0  0  0  0  0  0  0
   15.1443   -7.6678   -7.5609 N   0  0  0  0  0  0  0  0  0  0  0  0
   14.3137   -8.1451   -8.5796 C   0  0  0  0  0  0  0  0  0  0  0  0
   13.4724   -9.0342   -8.3575 O   0  0  0  0  0  0  0  0  0  0  0  0
   14.4420   -7.5743   -9.9589 C   0  0  0  0  0  0  0  0  0  0  0  0
   15.5187   -6.5218   -9.9833 C   0  0  0  0  0  0  0  0  0  0  0  0
   15.6534   -5.9466  -11.3575 C   0  0  2  0  0  0  0  0  0  0  0  0
   16.7348   -6.6731  -12.0781 N   0  0  0  0  0  0  0  0  0  0  0  0
   15.9646   -4.5073  -11.4047 C   0  0  0  0  0  0  0  0  0  0  0  0
   17.0983   -4.0551  -11.6021 O   0  0  0  0  0  0  0  0  0  0  0  0
   14.9383   -3.5809  -11.2189 O   0  0  0  0  0  0  0  0  0  0  0  0
  1  2  1  0
  2  3  2  0
  2  4  1  0
  4  5  1  0
  5  6  1  0
  6  8  1  0
  6  7  1  1
  8 14  1  0
  9  8  2  0
 11 10  1  1
 11 12  1  0
 13 11  1  0
 13 14  1  6
 15 16  2  0
 15 13  1  0
 17 18  1  0
 18 19  2  0
 20 18  1  0
 20 21  1  0
 22 21  1  1
 22 23  1  0
 23 15  1  0
 24 22  1  0
 25 24  2  0
 26 24  1  0
M  END
$$$$
