STD.pdb
     RDKit          3D

 22 21  0  0  1  0  0  0  0  0999 V2000
   16.0659  -11.1133  -18.0037 O   0  0  0  0  0  0  0  0  0  0  0  0
   17.0026  -10.4532  -17.1829 C   0  0  0  0  0  0  0  0  0  0  0  0
   18.1664  -11.3996  -16.9718 C   0  0  2  0  0  0  0  0  0  0  0  0
   17.7079  -12.4576  -16.0745 N   0  0  0  0  0  0  0  0  0  0  0  0
   19.2797  -10.6580  -16.3193 C   0  0  0  0  0  0  0  0  0  0  0  0
   19.3976  -10.6956  -15.0575 O   0  0  0  0  0  0  0  0  0  0  0  0
   23.7359   -8.8347  -16.1206 C   0  0  0  0  0  0  0  0  0  0  0  0
   22.6523   -9.5634  -16.8603 C   0  0  1  0  0  0  0  0  0  0  0  0
   22.8724  -10.9343  -16.7587 O   0  0  0  0  0  0  0  0  0  0  0  0
   21.2691   -9.2101  -16.3372 C   0  0  2  0  0  0  0  0  0  0  0  0
   20.2335   -9.8988  -17.0380 N   0  0  0  0  0  0  0  0  0  0  0  0
   21.1097   -7.7437  -16.3428 C   0  0  0  0  0  0  0  0  0  0  0  0
   20.9642   -7.1695  -17.4471 O   0  0  0  0  0  0  0  0  0  0  0  0
   21.1105   -6.9447  -15.1767 N   0  0  0  0  0  0  0  0  0  0  0  0
   20.9792   -5.4628  -15.2507 C   0  0  1  0  0  0  0  0  0  0  0  0
   19.5926   -5.0700  -14.8377 C   0  0  0  0  0  0  0  0  0  0  0  0
   19.4112   -3.6157  -14.7875 C   0  0  0  0  0  0  0  0  0  0  0  0
   19.3256   -2.9374  -13.7411 O   0  0  0  0  0  0  0  0  0  0  0  0
   22.0216   -4.8977  -14.3614 C   0  0  0  0  0  0  0  0  0  0  0  0
   22.5165   -3.6370  -14.4535 O   0  0  0  0  0  0  0  0  0  0  0  0
   19.3179   -2.8533  -15.9747 O   0  0  0  0  0  0  0  0  0  0  0  0
   22.4943   -5.6342  -13.4447 O   0  0  0  0  0  0  0  0  0  0  0  0
  2  1  1  0
  3  2  1  0
  3  4  1  1
  5 11  1  0
  5  3  1  0
  6  5  2  0
  8  7  1  1
  8 10  1  0
  8  9  1  0
 10 11  1  6
 12 10  1  0
 12 14  1  0
 13 12  2  0
 15 14  1  0
 15 16  1  1
 16 17  1  0
 17 18  2  0
 19 20  1  0
 19 15  1  0
 21 17  1  0
 22 19  2  0
M  END
$$$$
