STD.pdb
     RDKit          3D

 22 21  0  0  1  0  0  0  0  0999 V2000
   13.9686  -12.9415  -10.2469 O   0  0  0  0  0  0  0  0  0  0  0  0
   14.3282  -11.6982  -10.8051 C   0  0  0  0  0  0  0  0  0  0  0  0
   13.9131  -10.6231   -9.8219 C   0  0  2  0  0  0  0  0  0  0  0  0
   12.4533  -10.5634   -9.8352 N   0  0  0  0  0  0  0  0  0  0  0  0
   14.4568   -9.3150  -10.2785 C   0  0  0  0  0  0  0  0  0  0  0  0
   13.8623   -8.6819  -11.2021 O   0  0  0  0  0  0  0  0  0  0  0  0
   14.8380   -6.0298   -8.6411 C   0  0  0  0  0  0  0  0  0  0  0  0
   16.1889   -6.4092   -9.1732 C   0  0  1  0  0  0  0  0  0  0  0  0
   16.9880   -6.8464   -8.1203 O   0  0  0  0  0  0  0  0  0  0  0  0
   16.0972   -7.4813  -10.2474 C   0  0  2  0  0  0  0  0  0  0  0  0
   15.6207   -8.7244   -9.7318 N   0  0  0  0  0  0  0  0  0  0  0  0
   17.3972   -7.5888  -10.9360 C   0  0  0  0  0  0  0  0  0  0  0  0
   18.0960   -8.6070  -10.7233 O   0  0  0  0  0  0  0  0  0  0  0  0
   17.9042   -6.6120  -11.8232 N   0  0  0  0  0  0  0  0  0  0  0  0
   19.1721   -6.8285  -12.5743 C   0  0  1  0  0  0  0  0  0  0  0  0
   19.0445   -8.0671  -13.4094 C   0  0  0  0  0  0  0  0  0  0  0  0
   20.2003   -8.2749  -14.2878 C   0  0  0  0  0  0  0  0  0  0  0  0
   20.1388   -8.6206  -15.4874 O   0  0  0  0  0  0  0  0  0  0  0  0
   19.3980   -5.6111  -13.3890 C   0  0  0  0  0  0  0  0  0  0  0  0
   20.6180   -5.1325  -13.7425 O   0  0  0  0  0  0  0  0  0  0  0  0
   21.5184   -8.0883  -13.8112 O   0  0  0  0  0  0  0  0  0  0  0  0
   18.3876   -4.9601  -13.7908 O   0  0  0  0  0  0  0  0  0  0  0  0
  2  1  1  0
  3  2  1  0
  3  4  1  6
  5 11  1  0
  5  3  1  0
  6  5  2  0
  8  7  1  1
  8 10  1  0
  8  9  1  0
 10 11  1  1
 12 10  1  0
 12 14  1  0
 13 12  2  0
 15 14  1  0
 15 16  1  6
 16 17  1  0
 17 18  2  0
 19 20  1  0
 19 15  1  0
 21 17  1  0
 22 19  2  0
M  END
$$$$
