STD.pdb
     RDKit          3D

 22 21  0  0  1  0  0  0  0  0999 V2000
   20.3178  -14.4658  -15.7012 O   0  0  0  0  0  0  0  0  0  0  0  0
   20.5431  -13.1782  -16.2286 C   0  0  0  0  0  0  0  0  0  0  0  0
   19.2556  -12.3946  -16.0762 C   0  0  2  0  0  0  0  0  0  0  0  0
   18.3138  -12.9107  -17.0668 N   0  0  0  0  0  0  0  0  0  0  0  0
   19.5264  -10.9598  -16.3649 C   0  0  0  0  0  0  0  0  0  0  0  0
   19.7900  -10.6027  -17.5525 O   0  0  0  0  0  0  0  0  0  0  0  0
   17.3970   -8.1954  -16.6635 C   0  0  0  0  0  0  0  0  0  0  0  0
   18.4095   -7.7778  -15.6375 C   0  0  1  0  0  0  0  0  0  0  0  0
   17.8557   -7.9144  -14.3675 O   0  0  0  0  0  0  0  0  0  0  0  0
   19.6936   -8.5849  -15.7435 C   0  0  2  0  0  0  0  0  0  0  0  0
   19.5063   -9.9508  -15.3730 N   0  0  0  0  0  0  0  0  0  0  0  0
   20.7559   -7.9069  -14.9769 C   0  0  0  0  0  0  0  0  0  0  0  0
   21.1050   -8.4067  -13.8820 O   0  0  0  0  0  0  0  0  0  0  0  0
   21.4059   -6.7260  -15.4022 N   0  0  0  0  0  0  0  0  0  0  0  0
   22.5306   -6.1354  -14.6244 C   0  0  1  0  0  0  0  0  0  0  0  0
   23.3916   -5.3222  -15.5437 C   0  0  0  0  0  0  0  0  0  0  0  0
   22.6120   -4.3997  -16.3754 C   0  0  0  0  0  0  0  0  0  0  0  0
   21.3639   -4.3434  -16.4107 O   0  0  0  0  0  0  0  0  0  0  0  0
   21.9217   -5.3229  -13.5446 C   0  0  0  0  0  0  0  0  0  0  0  0
   20.5959   -5.0543  -13.4327 O   0  0  0  0  0  0  0  0  0  0  0  0
   23.2527   -3.4724  -17.2292 O   0  0  0  0  0  0  0  0  0  0  0  0
   22.6828   -4.8371  -12.6552 O   0  0  0  0  0  0  0  0  0  0  0  0
  2  1  1  0
  3  2  1  0
  3  4  1  6
  5 11  1  0
  5  3  1  0
  6  5  2  0
  8  7  1  6
  8 10  1  0
  8  9  1  0
 10 11  1  1
 12 10  1  0
 12 14  1  0
 13 12  2  0
 15 14  1  0
 15 16  1  6
 16 17  1  0
 17 18  2  0
 19 20  1  0
 19 15  1  0
 21 17  1  0
 22 19  2  0
M  END
$$$$
