STD.pdb
     RDKit          3D

 22 21  0  0  1  0  0  0  0  0999 V2000
   23.6339  -14.0987  -15.5677 O   0  0  0  0  0  0  0  0  0  0  0  0
   23.1160  -12.8817  -16.0549 C   0  0  0  0  0  0  0  0  0  0  0  0
   21.6346  -13.0847  -16.2981 C   0  0  2  0  0  0  0  0  0  0  0  0
   21.5013  -13.9330  -17.4801 N   0  0  0  0  0  0  0  0  0  0  0  0
   21.0051  -11.7646  -16.5742 C   0  0  0  0  0  0  0  0  0  0  0  0
   21.1260  -11.2457  -17.7247 O   0  0  0  0  0  0  0  0  0  0  0  0
   17.6856  -10.5929  -17.0979 C   0  0  0  0  0  0  0  0  0  0  0  0
   18.2195   -9.7462  -15.9798 C   0  0  1  0  0  0  0  0  0  0  0  0
   17.6983  -10.2027  -14.7723 O   0  0  0  0  0  0  0  0  0  0  0  0
   19.7393   -9.7536  -15.9358 C   0  0  2  0  0  0  0  0  0  0  0  0
   20.2649  -11.0403  -15.6100 N   0  0  0  0  0  0  0  0  0  0  0  0
   20.2024   -8.6824  -15.0335 C   0  0  0  0  0  0  0  0  0  0  0  0
   20.6432   -9.0087  -13.9067 O   0  0  0  0  0  0  0  0  0  0  0  0
   20.1799   -7.3079  -15.3625 N   0  0  0  0  0  0  0  0  0  0  0  0
   20.5792   -6.2665  -14.3753 C   0  0  1  0  0  0  0  0  0  0  0  0
   21.9188   -5.7127  -14.7582 C   0  0  0  0  0  0  0  0  0  0  0  0
   22.3198   -4.5792  -13.9187 C   0  0  0  0  0  0  0  0  0  0  0  0
   22.6494   -3.4509  -14.3436 O   0  0  0  0  0  0  0  0  0  0  0  0
   19.5120   -5.2380  -14.3854 C   0  0  0  0  0  0  0  0  0  0  0  0
   19.2343   -4.4014  -13.3532 O   0  0  0  0  0  0  0  0  0  0  0  0
   22.3604   -4.6962  -12.5101 O   0  0  0  0  0  0  0  0  0  0  0  0
   18.7992   -5.1210  -15.4268 O   0  0  0  0  0  0  0  0  0  0  0  0
  2  1  1  0
  3  2  1  0
  3  4  1  6
  5 11  1  0
  5  3  1  0
  6  5  2  0
  8  7  1  6
  8 10  1  0
  8  9  1  0
 10 11  1  1
 12 10  1  0
 12 14  1  0
 13 12  2  0
 15 14  1  0
 15 16  1  6
 16 17  1  0
 17 18  2  0
 19 20  1  0
 19 15  1  0
 21 17  1  0
 22 19  2  0
M  END
$$$$
