STD.pdb
     RDKit          3D

 22 21  0  0  1  0  0  0  0  0999 V2000
   17.5437  -11.6196  -18.8890 O   0  0  0  0  0  0  0  0  0  0  0  0
   17.9495  -10.6925  -17.9079 C   0  0  0  0  0  0  0  0  0  0  0  0
   18.8756  -11.4185  -16.9540 C   0  0  2  0  0  0  0  0  0  0  0  0
   18.0708  -12.4010  -16.2317 N   0  0  0  0  0  0  0  0  0  0  0  0
   19.4330  -10.4386  -15.9823 C   0  0  0  0  0  0  0  0  0  0  0  0
   18.9051  -10.3306  -14.8346 O   0  0  0  0  0  0  0  0  0  0  0  0
   22.5745  -10.2515  -14.1150 C   0  0  0  0  0  0  0  0  0  0  0  0
   22.4474   -8.9636  -14.8748 C   0  0  1  0  0  0  0  0  0  0  0  0
   23.2697   -9.0126  -15.9971 O   0  0  0  0  0  0  0  0  0  0  0  0
   21.0103   -8.6837  -15.2845 C   0  0  2  0  0  0  0  0  0  0  0  0
   20.5393   -9.6041  -16.2689 N   0  0  0  0  0  0  0  0  0  0  0  0
   20.8899   -7.2714  -15.6931 C   0  0  0  0  0  0  0  0  0  0  0  0
   21.0303   -6.9937  -16.9070 O   0  0  0  0  0  0  0  0  0  0  0  0
   20.6252   -6.2100  -14.7979 N   0  0  0  0  0  0  0  0  0  0  0  0
   20.5256   -4.8013  -15.2715 C   0  0  1  0  0  0  0  0  0  0  0  0
   19.4804   -4.0850  -14.4700 C   0  0  0  0  0  0  0  0  0  0  0  0
   19.3399   -2.6779  -14.8584 C   0  0  0  0  0  0  0  0  0  0  0  0
   18.8976   -2.2757  -15.9561 O   0  0  0  0  0  0  0  0  0  0  0  0
   21.8730   -4.2034  -15.1170 C   0  0  0  0  0  0  0  0  0  0  0  0
   22.3963   -3.2544  -15.9343 O   0  0  0  0  0  0  0  0  0  0  0  0
   19.7127   -1.6391  -13.9745 O   0  0  0  0  0  0  0  0  0  0  0  0
   22.5999   -4.5983  -14.1569 O   0  0  0  0  0  0  0  0  0  0  0  0
  2  1  1  0
  3  2  1  0
  3  4  1  1
  5 11  1  0
  5  3  1  0
  6  5  2  0
  8  7  1  6
  8 10  1  0
  8  9  1  0
 10 11  1  6
 12 10  1  0
 12 14  1  0
 13 12  2  0
 15 14  1  0
 15 16  1  1
 16 17  1  0
 17 18  2  0
 19 20  1  0
 19 15  1  0
 21 17  1  0
 22 19  2  0
M  END
$$$$
