STD.pdb
     RDKit          3D

 22 21  0  0  1  0  0  0  0  0999 V2000
   26.3737  -20.6883   -7.9931 O   0  0  0  0  0  0  0  0  0  0  0  0
   25.8627  -20.1974   -9.2116 C   0  0  0  0  0  0  0  0  0  0  0  0
   25.9550  -21.3185  -10.2261 C   0  0  2  0  0  0  0  0  0  0  0  0
   27.3696  -21.6513  -10.3774 N   0  0  0  0  0  0  0  0  0  0  0  0
   25.4278  -20.8339  -11.5309 C   0  0  0  0  0  0  0  0  0  0  0  0
   26.1609  -20.1076  -12.2675 O   0  0  0  0  0  0  0  0  0  0  0  0
   24.9261  -22.4431  -14.5700 C   0  0  0  0  0  0  0  0  0  0  0  0
   23.6016  -21.7874  -14.3091 C   0  0  1  0  0  0  0  0  0  0  0  0
   22.6932  -22.7495  -13.8761 O   0  0  0  0  0  0  0  0  0  0  0  0
   23.7123  -20.6673  -13.2869 C   0  0  2  0  0  0  0  0  0  0  0  0
   24.1315  -21.1420  -12.0075 N   0  0  0  0  0  0  0  0  0  0  0  0
   22.4420  -19.9185  -13.2502 C   0  0  0  0  0  0  0  0  0  0  0  0
   21.7645  -19.9559  -12.1966 O   0  0  0  0  0  0  0  0  0  0  0  0
   21.9410  -19.1595  -14.3322 N   0  0  0  0  0  0  0  0  0  0  0  0
   20.6429  -18.4353  -14.2376 C   0  0  1  0  0  0  0  0  0  0  0  0
   20.5476  -17.4464  -15.3604 C   0  0  0  0  0  0  0  0  0  0  0  0
   19.2782  -16.7121  -15.3573 C   0  0  0  0  0  0  0  0  0  0  0  0
   18.6272  -16.4060  -14.3351 O   0  0  0  0  0  0  0  0  0  0  0  0
   19.5765  -19.4633  -14.2901 C   0  0  0  0  0  0  0  0  0  0  0  0
   18.4824  -19.4845  -13.4869 O   0  0  0  0  0  0  0  0  0  0  0  0
   18.6831  -16.2838  -16.5663 O   0  0  0  0  0  0  0  0  0  0  0  0
   19.6816  -20.3963  -15.1414 O   0  0  0  0  0  0  0  0  0  0  0  0
  2  1  1  0
  3  2  1  0
  3  4  1  6
  5 11  1  0
  5  3  1  0
  6  5  2  0
  8  7  1  1
  8 10  1  0
  8  9  1  0
 10 11  1  1
 12 10  1  0
 12 14  1  0
 13 12  2  0
 15 14  1  0
 15 16  1  6
 16 17  1  0
 17 18  2  0
 19 20  1  0
 19 15  1  0
 21 17  1  0
 22 19  2  0
M  END
$$$$
