STD.pdb
     RDKit          3D

 22 21  0  0  1  0  0  0  0  0999 V2000
11795.6533-3576.1589-5715.0366 O   0  0  0  0  0  0  0  0  0  0  0  0
11795.9766-3577.0979-5716.0366 C   0  0  0  0  0  0  0  0  0  0  0  0
11797.3164-3576.6970-5716.6196 C   0  0  2  0  0  0  0  0  0  0  0  0
11798.3291-3576.9441-5715.5938 N   0  0  0  0  0  0  0  0  0  0  0  0
11797.2891-3575.2405-5716.9316 C   0  0  0  0  0  0  0  0  0  0  0  0
11797.8525-3574.4226-5716.1426 O   0  0  0  0  0  0  0  0  0  0  0  0
11799.1396-3575.5500-5718.1953 C   0  0  0  0  0  0  0  0  0  0  0  0
11798.8535-3574.3918-5719.1084 C   0  0  1  0  0  0  0  0  0  0  0  0
11799.1572-3574.7561-5720.4185 O   0  0  0  0  0  0  0  0  0  0  0  0
11797.4082-3573.9285-5719.0112 C   0  0  2  0  0  0  0  0  0  0  0  0
11796.6543-3574.7048-5718.0786 N   0  0  0  0  0  0  0  0  0  0  0  0
11796.8164-3573.8958-5720.3618 C   0  0  0  0  0  0  0  0  0  0  0  0
11797.0703-3572.9070-5721.0913 O   0  0  0  0  0  0  0  0  0  0  0  0
11795.9844-3574.9094-5720.8843 N   0  0  0  0  0  0  0  0  0  0  0  0
11796.2295-3575.5002-5722.2310 C   0  0  1  0  0  0  0  0  0  0  0  0
11796.0166-3576.9822-5722.1621 C   0  0  0  0  0  0  0  0  0  0  0  0
11797.1514-3577.7405-5722.6973 C   0  0  0  0  0  0  0  0  0  0  0  0
11797.2129-3578.2175-5723.8491 O   0  0  0  0  0  0  0  0  0  0  0  0
11795.3008-3574.8289-5723.1646 C   0  0  0  0  0  0  0  0  0  0  0  0
11794.2402-3574.0603-5722.7891 O   0  0  0  0  0  0  0  0  0  0  0  0
11798.2949-3577.9885-5721.9092 O   0  0  0  0  0  0  0  0  0  0  0  0
11795.4834-3574.9768-5724.4082 O   0  0  0  0  0  0  0  0  0  0  0  0
  2  1  1  0
  3  2  1  0
  3  4  1  1
  5 11  1  0
  5  3  1  0
  6  5  2  0
  8  7  1  1
  8 10  1  0
  8  9  1  0
 10 11  1  1
 12 10  1  0
 12 14  1  0
 13 12  2  0
 15 14  1  0
 15 16  1  1
 16 17  1  0
 17 18  2  0
 19 20  1  0
 19 15  1  0
 21 17  1  0
 22 19  2  0
M  END
$$$$
