STD.pdb
     RDKit          3D

 22 21  0  0  1  0  0  0  0  0999 V2000
   25.1409  -19.4453  -18.3030 O   0  0  0  0  0  0  0  0  0  0  0  0
   23.9015  -20.1102  -18.2108 C   0  0  0  0  0  0  0  0  0  0  0  0
   24.1465  -21.5713  -18.5272 C   0  0  2  0  0  0  0  0  0  0  0  0
   24.3703  -21.6715  -19.9676 N   0  0  0  0  0  0  0  0  0  0  0  0
   22.9320  -22.3534  -18.1688 C   0  0  0  0  0  0  0  0  0  0  0  0
   21.9441  -22.3683  -18.9634 O   0  0  0  0  0  0  0  0  0  0  0  0
   22.5649  -26.0206  -17.3373 C   0  0  0  0  0  0  0  0  0  0  0  0
   21.8599  -25.2395  -16.2673 C   0  0  1  0  0  0  0  0  0  0  0  0
   22.6193  -25.2744  -15.1010 O   0  0  0  0  0  0  0  0  0  0  0  0
   21.6034  -23.8011  -16.6878 C   0  0  2  0  0  0  0  0  0  0  0  0
   22.8123  -23.0962  -16.9704 N   0  0  0  0  0  0  0  0  0  0  0  0
   20.7615  -23.1425  -15.6713 C   0  0  0  0  0  0  0  0  0  0  0  0
   21.2816  -22.2506  -14.9611 O   0  0  0  0  0  0  0  0  0  0  0  0
   19.4012  -23.4559  -15.4488 N   0  0  0  0  0  0  0  0  0  0  0  0
   18.5910  -22.7228  -14.4365 C   0  0  1  0  0  0  0  0  0  0  0  0
   17.4547  -22.0278  -15.1247 C   0  0  0  0  0  0  0  0  0  0  0  0
   16.5533  -21.3557  -14.1833 C   0  0  0  0  0  0  0  0  0  0  0  0
   16.1225  -21.8531  -13.1206 O   0  0  0  0  0  0  0  0  0  0  0  0
   18.1315  -23.7281  -13.4491 C   0  0  0  0  0  0  0  0  0  0  0  0
   18.3577  -25.0633  -13.5421 O   0  0  0  0  0  0  0  0  0  0  0  0
   16.0936  -20.0413  -14.4294 O   0  0  0  0  0  0  0  0  0  0  0  0
   17.4783  -23.3256  -12.4403 O   0  0  0  0  0  0  0  0  0  0  0  0
  2  1  1  0
  3  2  1  0
  3  4  1  6
  5 11  1  0
  5  3  1  0
  6  5  2  0
  8  7  1  6
  8 10  1  0
  8  9  1  0
 10 11  1  1
 12 10  1  0
 12 14  1  0
 13 12  2  0
 15 14  1  0
 15 16  1  6
 16 17  1  0
 17 18  2  0
 19 20  1  0
 19 15  1  0
 21 17  1  0
 22 19  2  0
M  END
$$$$
