STD.pdb
     RDKit          3D

 22 21  0  0  1  0  0  0  0  0999 V2000
   13.0708   -1.6816   -9.7225 O   0  0  0  0  0  0  0  0  0  0  0  0
   14.1920   -2.5260   -9.8519 C   0  0  0  0  0  0  0  0  0  0  0  0
   14.0668   -3.6095   -8.8007 C   0  0  2  0  0  0  0  0  0  0  0  0
   14.3954   -3.0039   -7.5123 N   0  0  0  0  0  0  0  0  0  0  0  0
   15.0515   -4.6856   -9.0967 C   0  0  0  0  0  0  0  0  0  0  0  0
   16.2569   -4.5447   -8.7299 O   0  0  0  0  0  0  0  0  0  0  0  0
   15.3655   -7.9101   -7.7168 C   0  0  0  0  0  0  0  0  0  0  0  0
   15.4054   -8.1569   -9.1966 C   0  0  1  0  0  0  0  0  0  0  0  0
   14.1882   -8.6972   -9.6024 O   0  0  0  0  0  0  0  0  0  0  0  0
   15.7067   -6.8877   -9.9776 C   0  0  2  0  0  0  0  0  0  0  0  0
   14.7153   -5.8804   -9.7763 N   0  0  0  0  0  0  0  0  0  0  0  0
   15.9178   -7.2312  -11.3964 C   0  0  0  0  0  0  0  0  0  0  0  0
   15.1899   -6.6773  -12.2530 O   0  0  0  0  0  0  0  0  0  0  0  0
   16.8929   -8.1484  -11.8504 N   0  0  0  0  0  0  0  0  0  0  0  0
   17.0410   -8.4718  -13.2968 C   0  0  1  0  0  0  0  0  0  0  0  0
   17.3342   -7.2124  -14.0556 C   0  0  0  0  0  0  0  0  0  0  0  0
   17.6038   -7.4609  -15.4754 C   0  0  0  0  0  0  0  0  0  0  0  0
   17.6025   -8.5852  -16.0215 O   0  0  0  0  0  0  0  0  0  0  0  0
   18.1330   -9.4686  -13.4010 C   0  0  0  0  0  0  0  0  0  0  0  0
   19.4111   -9.2610  -12.9939 O   0  0  0  0  0  0  0  0  0  0  0  0
   17.8955   -6.3949  -16.3575 O   0  0  0  0  0  0  0  0  0  0  0  0
   17.8680  -10.6007  -13.9054 O   0  0  0  0  0  0  0  0  0  0  0  0
  2  1  1  0
  3  2  1  0
  3  4  1  1
  5 11  1  0
  5  3  1  0
  6  5  2  0
  8  7  1  1
  8 10  1  0
  8  9  1  0
 10 11  1  6
 12 10  1  0
 12 14  1  0
 13 12  2  0
 15 14  1  0
 15 16  1  6
 16 17  1  0
 17 18  2  0
 19 20  1  0
 19 15  1  0
 21 17  1  0
 22 19  2  0
M  END
$$$$
