STD.pdb
     RDKit          3D

 22 21  0  0  1  0  0  0  0  0999 V2000
   22.9257  -12.9512  -17.6810 O   0  0  0  0  0  0  0  0  0  0  0  0
   21.7507  -12.2659  -18.0504 C   0  0  0  0  0  0  0  0  0  0  0  0
   20.5912  -12.9455  -17.3517 C   0  0  2  0  0  0  0  0  0  0  0  0
   20.1486  -14.0409  -18.2112 N   0  0  0  0  0  0  0  0  0  0  0  0
   19.4792  -11.9680  -17.1993 C   0  0  0  0  0  0  0  0  0  0  0  0
   18.7938  -11.6414  -18.2146 O   0  0  0  0  0  0  0  0  0  0  0  0
   16.2930  -12.1924  -15.4804 C   0  0  0  0  0  0  0  0  0  0  0  0
   16.9376  -10.9353  -14.9742 C   0  0  1  0  0  0  0  0  0  0  0  0
   17.4395  -11.1624  -13.6956 O   0  0  0  0  0  0  0  0  0  0  0  0
   18.0441  -10.4511  -15.8977 C   0  0  2  0  0  0  0  0  0  0  0  0
   19.1345  -11.3703  -15.9638 N   0  0  0  0  0  0  0  0  0  0  0  0
   18.4455   -9.0888  -15.4993 C   0  0  0  0  0  0  0  0  0  0  0  0
   19.6397   -8.8968  -15.1719 O   0  0  0  0  0  0  0  0  0  0  0  0
   17.5641   -7.9842  -15.4644 N   0  0  0  0  0  0  0  0  0  0  0  0
   18.0341   -6.6281  -15.0661 C   0  0  1  0  0  0  0  0  0  0  0  0
   19.1113   -6.1834  -16.0092 C   0  0  0  0  0  0  0  0  0  0  0  0
   19.4604   -4.7694  -15.8382 C   0  0  0  0  0  0  0  0  0  0  0  0
   19.9595   -4.2718  -14.8059 O   0  0  0  0  0  0  0  0  0  0  0  0
   16.8476   -5.7402  -15.0950 C   0  0  0  0  0  0  0  0  0  0  0  0
   16.7495   -4.5586  -14.4343 O   0  0  0  0  0  0  0  0  0  0  0  0
   19.2450   -3.8364  -16.8786 O   0  0  0  0  0  0  0  0  0  0  0  0
   15.8446   -6.0987  -15.7819 O   0  0  0  0  0  0  0  0  0  0  0  0
  2  1  1  0
  3  2  1  0
  3  4  1  6
  5 11  1  0
  5  3  1  0
  6  5  2  0
  8  7  1  6
  8 10  1  0
  8  9  1  0
 10 11  1  1
 12 10  1  0
 12 14  1  0
 13 12  2  0
 15 14  1  0
 15 16  1  6
 16 17  1  0
 17 18  2  0
 19 20  1  0
 19 15  1  0
 21 17  1  0
 22 19  2  0
M  END
$$$$
