STD.pdb
     RDKit          3D

 22 21  0  0  1  0  0  0  0  0999 V2000
   19.0971  -15.9117  -17.0341 O   0  0  0  0  0  0  0  0  0  0  0  0
   19.5895  -14.6529  -17.4338 C   0  0  0  0  0  0  0  0  0  0  0  0
   19.5614  -13.7488  -16.2186 C   0  0  2  0  0  0  0  0  0  0  0  0
   18.1596  -13.5526  -15.8563 N   0  0  0  0  0  0  0  0  0  0  0  0
   20.1578  -12.4341  -16.5809 C   0  0  0  0  0  0  0  0  0  0  0  0
   21.3670  -12.3819  -16.9585 O   0  0  0  0  0  0  0  0  0  0  0  0
   19.3818  -10.1708  -19.3753 C   0  0  0  0  0  0  0  0  0  0  0  0
   19.3013   -9.3573  -18.1167 C   0  0  1  0  0  0  0  0  0  0  0  0
   17.9640   -9.1787  -17.7732 O   0  0  0  0  0  0  0  0  0  0  0  0
   20.0592  -10.0065  -16.9697 C   0  0  2  0  0  0  0  0  0  0  0  0
   19.4411  -11.2152  -16.5281 N   0  0  0  0  0  0  0  0  0  0  0  0
   20.2506   -9.0156  -15.8939 C   0  0  0  0  0  0  0  0  0  0  0  0
   19.5971   -9.1603  -14.8345 O   0  0  0  0  0  0  0  0  0  0  0  0
   21.1277   -7.9109  -15.9844 N   0  0  0  0  0  0  0  0  0  0  0  0
   21.2275   -6.9067  -14.8889 C   0  0  1  0  0  0  0  0  0  0  0  0
   22.4921   -6.1189  -15.0565 C   0  0  0  0  0  0  0  0  0  0  0  0
   22.6310   -5.0578  -14.0539 C   0  0  0  0  0  0  0  0  0  0  0  0
   22.6585   -5.2363  -12.8171 O   0  0  0  0  0  0  0  0  0  0  0  0
   20.0129   -6.0615  -14.9733 C   0  0  0  0  0  0  0  0  0  0  0  0
   19.3596   -5.5373  -13.9052 O   0  0  0  0  0  0  0  0  0  0  0  0
   22.7486   -3.7029  -14.4409 O   0  0  0  0  0  0  0  0  0  0  0  0
   19.5389   -5.8023  -16.1198 O   0  0  0  0  0  0  0  0  0  0  0  0
  2  1  1  0
  3  2  1  0
  3  4  1  6
  5 11  1  0
  5  3  1  0
  6  5  2  0
  8  7  1  6
  8 10  1  0
  8  9  1  0
 10 11  1  1
 12 10  1  0
 12 14  1  0
 13 12  2  0
 15 14  1  0
 15 16  1  6
 16 17  1  0
 17 18  2  0
 19 20  1  0
 19 15  1  0
 21 17  1  0
 22 19  2  0
M  END
$$$$
