STD.pdb
     RDKit          3D

 22 21  0  0  1  0  0  0  0  0999 V2000
   13.4496  -12.3059   -9.4274 O   0  0  0  0  0  0  0  0  0  0  0  0
   13.9336  -11.1395  -10.0537 C   0  0  0  0  0  0  0  0  0  0  0  0
   13.6632   -9.9781   -9.1195 C   0  0  2  0  0  0  0  0  0  0  0  0
   12.2136   -9.8113   -9.0432 N   0  0  0  0  0  0  0  0  0  0  0  0
   14.2643   -8.7446   -9.6958 C   0  0  0  0  0  0  0  0  0  0  0  0
   13.6246   -8.0923  -10.5749 O   0  0  0  0  0  0  0  0  0  0  0  0
   14.8520   -5.5112   -8.3001 C   0  0  0  0  0  0  0  0  0  0  0  0
   16.1756   -5.9254   -8.8735 C   0  0  1  0  0  0  0  0  0  0  0  0
   17.0168   -6.3245   -7.8385 O   0  0  0  0  0  0  0  0  0  0  0  0
   16.0291   -7.0416   -9.8954 C   0  0  2  0  0  0  0  0  0  0  0  0
   15.5323   -8.2466   -9.3129 N   0  0  0  0  0  0  0  0  0  0  0  0
   17.3086   -7.2159  -10.6084 C   0  0  0  0  0  0  0  0  0  0  0  0
   18.0312   -8.1907  -10.2954 O   0  0  0  0  0  0  0  0  0  0  0  0
   17.7704   -6.3495  -11.6253 N   0  0  0  0  0  0  0  0  0  0  0  0
   19.0092   -6.6482  -12.3966 C   0  0  1  0  0  0  0  0  0  0  0  0
   18.8778   -7.9979  -13.0360 C   0  0  0  0  0  0  0  0  0  0  0  0
   19.9794   -8.2933  -13.9579 C   0  0  0  0  0  0  0  0  0  0  0  0
   19.8495   -8.7889  -15.0980 O   0  0  0  0  0  0  0  0  0  0  0  0
   19.1663   -5.5589  -13.3893 C   0  0  0  0  0  0  0  0  0  0  0  0
   20.3574   -5.0831  -13.8335 O   0  0  0  0  0  0  0  0  0  0  0  0
   21.3201   -8.0232  -13.5989 O   0  0  0  0  0  0  0  0  0  0  0  0
   18.1208   -5.0236  -13.8656 O   0  0  0  0  0  0  0  0  0  0  0  0
  2  1  1  0
  3  2  1  0
  3  4  1  6
  5 11  1  0
  5  3  1  0
  6  5  2  0
  8  7  1  1
  8 10  1  0
  8  9  1  0
 10 11  1  1
 12 10  1  0
 12 14  1  0
 13 12  2  0
 15 14  1  0
 15 16  1  6
 16 17  1  0
 17 18  2  0
 19 20  1  0
 19 15  1  0
 21 17  1  0
 22 19  2  0
M  END
$$$$
