STD.pdb
     RDKit          3D

 22 21  0  0  1  0  0  0  0  0999 V2000
   16.9116  -12.0997  -18.2702 O   0  0  0  0  0  0  0  0  0  0  0  0
   17.4903  -11.2655  -17.2925 C   0  0  0  0  0  0  0  0  0  0  0  0
   18.7219  -11.9725  -16.7652 C   0  0  2  0  0  0  0  0  0  0  0  0
   18.2628  -13.1149  -15.9785 N   0  0  0  0  0  0  0  0  0  0  0  0
   19.4707  -11.0413  -15.8779 C   0  0  0  0  0  0  0  0  0  0  0  0
   19.0977  -10.8921  -14.6753 O   0  0  0  0  0  0  0  0  0  0  0  0
   23.0691  -11.0679  -14.7650 C   0  0  0  0  0  0  0  0  0  0  0  0
   22.7664   -9.7125  -15.3337 C   0  0  1  0  0  0  0  0  0  0  0  0
   23.3216   -9.6170  -16.6068 O   0  0  0  0  0  0  0  0  0  0  0  0
   21.2719   -9.4383  -15.3872 C   0  0  2  0  0  0  0  0  0  0  0  0
   20.5966  -10.2982  -16.3052 N   0  0  0  0  0  0  0  0  0  0  0  0
   21.0522   -8.0041  -15.6529 C   0  0  0  0  0  0  0  0  0  0  0  0
   20.7042   -7.6639  -16.8077 O   0  0  0  0  0  0  0  0  0  0  0  0
   21.2100   -6.9880  -14.6831 N   0  0  0  0  0  0  0  0  0  0  0  0
   21.0154   -5.5513  -15.0249 C   0  0  1  0  0  0  0  0  0  0  0  0
   19.6506   -5.1195  -14.5794 C   0  0  0  0  0  0  0  0  0  0  0  0
   19.3956   -3.6997  -14.8434 C   0  0  0  0  0  0  0  0  0  0  0  0
   19.1810   -2.8330  -13.9687 O   0  0  0  0  0  0  0  0  0  0  0  0
   22.1006   -4.8016  -14.3489 C   0  0  0  0  0  0  0  0  0  0  0  0
   22.5823   -3.6005  -14.7585 O   0  0  0  0  0  0  0  0  0  0  0  0
   19.3759   -3.1982  -16.1653 O   0  0  0  0  0  0  0  0  0  0  0  0
   22.6262   -5.3075  -13.3125 O   0  0  0  0  0  0  0  0  0  0  0  0
  2  1  1  0
  3  2  1  0
  3  4  1  1
  5 11  1  0
  5  3  1  0
  6  5  2  0
  8  7  1  6
  8 10  1  0
  8  9  1  0
 10 11  1  6
 12 10  1  0
 12 14  1  0
 13 12  2  0
 15 14  1  0
 15 16  1  1
 16 17  1  0
 17 18  2  0
 19 20  1  0
 19 15  1  0
 21 17  1  0
 22 19  2  0
M  END
$$$$
