STD.pdb
     RDKit          3D

 22 21  0  0  1  0  0  0  0  0999 V2000
   17.3314  -14.1786  -14.4239 O   0  0  0  0  0  0  0  0  0  0  0  0
   18.0881  -13.0261  -14.7171 C   0  0  0  0  0  0  0  0  0  0  0  0
   18.1141  -12.8723  -16.2239 C   0  0  2  0  0  0  0  0  0  0  0  0
   18.8929  -13.9862  -16.7601 N   0  0  0  0  0  0  0  0  0  0  0  0
   18.7947  -11.5941  -16.5673 C   0  0  0  0  0  0  0  0  0  0  0  0
   19.9811  -11.6207  -17.0137 O   0  0  0  0  0  0  0  0  0  0  0  0
   17.6841   -9.2106  -19.1694 C   0  0  0  0  0  0  0  0  0  0  0  0
   17.9499   -8.4095  -17.9285 C   0  0  1  0  0  0  0  0  0  0  0  0
   16.7369   -8.0704  -17.3354 O   0  0  0  0  0  0  0  0  0  0  0  0
   18.8282   -9.1624  -16.9419 C   0  0  2  0  0  0  0  0  0  0  0  0
   18.1840  -10.3258  -16.4226 N   0  0  0  0  0  0  0  0  0  0  0  0
   19.2918   -8.2300  -15.8973 C   0  0  0  0  0  0  0  0  0  0  0  0
   18.8271   -8.3601  -14.7408 O   0  0  0  0  0  0  0  0  0  0  0  0
   20.2301   -7.1967  -16.1208 N   0  0  0  0  0  0  0  0  0  0  0  0
   20.6798   -6.3039  -15.0166 C   0  0  1  0  0  0  0  0  0  0  0  0
   22.0677   -5.8187  -15.3097 C   0  0  0  0  0  0  0  0  0  0  0  0
   22.5233   -4.8052  -14.3528 C   0  0  0  0  0  0  0  0  0  0  0  0
   22.7166   -5.0026  -13.1338 O   0  0  0  0  0  0  0  0  0  0  0  0
   19.6946   -5.1996  -14.9332 C   0  0  0  0  0  0  0  0  0  0  0  0
   19.4175   -4.4937  -13.8074 O   0  0  0  0  0  0  0  0  0  0  0  0
   22.7851   -3.4791  -14.7679 O   0  0  0  0  0  0  0  0  0  0  0  0
   19.0572   -4.8817  -15.9815 O   0  0  0  0  0  0  0  0  0  0  0  0
  2  1  1  0
  3  2  1  0
  3  4  1  6
  5 11  1  0
  5  3  1  0
  6  5  2  0
  8  7  1  6
  8 10  1  0
  8  9  1  0
 10 11  1  1
 12 10  1  0
 12 14  1  0
 13 12  2  0
 15 14  1  0
 15 16  1  6
 16 17  1  0
 17 18  2  0
 19 20  1  0
 19 15  1  0
 21 17  1  0
 22 19  2  0
M  END
$$$$
