NRC.pdb
     RDKit          3D

 26 25  0  0  1  0  0  0  0  0999 V2000
   14.8146  -16.1829   20.8508 N   0  0  0  0  0  0  0  0  0  0  0  0
   13.4404  -15.9576   20.5724 C   0  0  0  0  0  0  0  0  0  0  0  0
   13.1163  -15.6836   19.3732 O   0  0  0  0  0  0  0  0  0  0  0  0
   12.4125  -16.0364   21.6350 C   0  0  0  0  0  0  0  0  0  0  0  0
   12.0432  -17.4417   22.0005 C   0  0  2  0  0  0  0  0  0  0  0  0
   11.0757  -17.9012   20.9988 N   0  0  0  0  0  0  0  0  0  0  0  0
   11.3287  -17.3873   23.3202 C   0  0  0  0  0  0  0  0  0  0  0  0
   10.1508  -16.9594   23.3451 O   0  0  0  0  0  0  0  0  0  0  0  0
   11.0524  -19.9342   31.1951 N   0  0  0  0  0  0  0  0  0  0  0  0
   10.1469  -20.8693   30.6363 C   0  0  0  0  0  0  0  0  0  0  0  0
    9.1920  -21.4128   31.3163 N   0  0  0  0  0  0  0  0  0  0  0  0
   10.2894  -21.2235   29.2811 N   0  0  0  0  0  0  0  0  0  0  0  0
   11.4178  -20.7136   28.5200 C   0  0  0  0  0  0  0  0  0  0  0  0
   11.1281  -19.4363   27.8570 C   0  0  0  0  0  0  0  0  0  0  0  0
   11.3937  -19.1768   26.4526 C   0  0  0  0  0  0  0  0  0  0  0  0
   11.2155  -17.8709   25.8176 C   0  0  2  0  0  0  0  0  0  0  0  0
   11.9334  -17.7996   24.5303 N   0  0  0  0  0  0  0  0  0  0  0  0
   11.4299  -16.6358   26.5742 C   0  0  0  0  0  0  0  0  0  0  0  0
   12.4896  -16.2056   26.9986 O   0  0  0  0  0  0  0  0  0  0  0  0
    8.5546  -22.0586   30.8093 N   0  0  0  0  0  0  0  0  0  0  0  0
   10.2897  -15.7724   26.8928 C   0  0  2  0  0  0  0  0  0  0  0  0
   10.3797  -14.6650   27.7878 C   0  0  0  0  0  0  0  0  0  0  0  0
    9.1972  -13.7236   27.6852 S   0  0  0  0  0  0  0  0  0  0  0  0
    9.1898  -13.1107   25.9549 C   0  0  0  0  0  0  0  0  0  0  0  0
   10.4591  -15.1633   29.1706 O   0  0  0  0  0  0  0  0  0  0  0  0
   10.2915  -16.3666   29.4145 O   0  0  0  0  0  0  0  0  0  0  0  0
  2  1  1  0
  2  3  2  0
  4  5  1  0
  4  2  1  0
  5  7  1  0
  5  6  1  6
  7  8  2  0
  9 10  1  0
 10 11  2  0
 12 13  1  0
 12 10  1  0
 13 14  1  0
 15 14  1  0
 16 18  1  0
 16 15  1  1
 17  7  1  0
 17 16  1  0
 18 19  2  0
 20 21  1  0
 20 18  1  0
 22 23  1  0
 21 22  1  6
 24 21  1  0
 24 26  1  0
 25 24  2  0
M  END
$$$$
