NRC.pdb
     RDKit          3D

 26 25  0  0  1  0  0  0  0  0999 V2000
   15.8160  -25.5273   32.3751 N   0  0  0  0  0  0  0  0  0  0  0  0
   15.3007  -24.3816   33.0371 C   0  0  0  0  0  0  0  0  0  0  0  0
   15.2172  -23.3007   32.3717 O   0  0  0  0  0  0  0  0  0  0  0  0
   14.8728  -24.4333   34.4536 C   0  0  0  0  0  0  0  0  0  0  0  0
   14.9902  -25.7984   35.0596 C   0  0  2  0  0  0  0  0  0  0  0  0
   13.9240  -26.6169   34.4731 N   0  0  0  0  0  0  0  0  0  0  0  0
   14.6952  -25.6635   36.5258 C   0  0  0  0  0  0  0  0  0  0  0  0
   13.4999  -25.5557   36.8877 O   0  0  0  0  0  0  0  0  0  0  0  0
   16.4355  -30.8340   43.0719 N   0  0  0  0  0  0  0  0  0  0  0  0
   15.8193  -29.7446   43.7353 C   0  0  0  0  0  0  0  0  0  0  0  0
   15.4977  -29.7770   44.9864 N   0  0  0  0  0  0  0  0  0  0  0  0
   15.5448  -28.5735   43.0036 N   0  0  0  0  0  0  0  0  0  0  0  0
   15.7328  -28.5662   41.5623 C   0  0  0  0  0  0  0  0  0  0  0  0
   15.4594  -27.2566   40.9581 C   0  0  0  0  0  0  0  0  0  0  0  0
   15.7339  -26.9352   39.5682 C   0  0  0  0  0  0  0  0  0  0  0  0
   15.4432  -25.6369   38.9596 C   0  0  2  0  0  0  0  0  0  0  0  0
   15.7119  -25.6541   37.5087 N   0  0  0  0  0  0  0  0  0  0  0  0
   15.9665  -24.4017   39.5464 C   0  0  0  0  0  0  0  0  0  0  0  0
   17.0521  -23.8871   39.3349 O   0  0  0  0  0  0  0  0  0  0  0  0
   15.0565  -28.9251   45.3865 N   0  0  0  0  0  0  0  0  0  0  0  0
   15.1495  -23.6489   40.5016 C   0  0  2  0  0  0  0  0  0  0  0  0
   15.6100  -22.4682   41.1570 C   0  0  0  0  0  0  0  0  0  0  0  0
   14.5055  -21.4626   41.4097 S   0  0  0  0  0  0  0  0  0  0  0  0
   15.3315  -19.9626   42.0713 C   0  0  0  0  0  0  0  0  0  0  0  0
   16.2114  -22.8334   42.4498 O   0  0  0  0  0  0  0  0  0  0  0  0
   15.6448  -23.6412   43.1996 O   0  0  0  0  0  0  0  0  0  0  0  0
  2  1  1  0
  2  3  2  0
  4  5  1  0
  4  2  1  0
  5  7  1  0
  5  6  1  6
  7  8  2  0
  9 10  1  0
 10 11  2  0
 12 13  1  0
 12 10  1  0
 13 14  1  0
 15 14  1  0
 16 18  1  0
 16 15  1  1
 17  7  1  0
 17 16  1  0
 18 19  2  0
 20 21  1  0
 20 18  1  0
 22 23  1  0
 21 22  1  1
 24 21  1  0
 24 26  1  0
 25 24  2  0
M  END
$$$$
