NRC.pdb
     RDKit          3D

 26 25  0  0  1  0  0  0  0  0999 V2000
    8.4676  -12.0206   17.9601 N   0  0  0  0  0  0  0  0  0  0  0  0
    9.1169  -12.8486   18.9137 C   0  0  0  0  0  0  0  0  0  0  0  0
   10.3307  -13.1616   18.6972 O   0  0  0  0  0  0  0  0  0  0  0  0
    8.4135  -13.3363   20.1217 C   0  0  0  0  0  0  0  0  0  0  0  0
    8.1657  -14.8139   20.1083 C   0  0  2  0  0  0  0  0  0  0  0  0
    7.0802  -15.0541   19.1519 N   0  0  0  0  0  0  0  0  0  0  0  0
    7.6555  -15.1939   21.4685 C   0  0  0  0  0  0  0  0  0  0  0  0
    6.4660  -14.9242   21.7577 O   0  0  0  0  0  0  0  0  0  0  0  0
    6.9693  -21.6900   27.1471 N   0  0  0  0  0  0  0  0  0  0  0  0
    6.5492  -21.5382   25.8028 C   0  0  0  0  0  0  0  0  0  0  0  0
    5.6569  -22.2972   25.2573 N   0  0  0  0  0  0  0  0  0  0  0  0
    7.1256  -20.5166   25.0243 N   0  0  0  0  0  0  0  0  0  0  0  0
    8.1792  -19.6901   25.5897 C   0  0  0  0  0  0  0  0  0  0  0  0
    7.9809  -18.2584   25.3328 C   0  0  0  0  0  0  0  0  0  0  0  0
    8.1569  -17.6395   24.0305 C   0  0  0  0  0  0  0  0  0  0  0  0
    7.9918  -16.2075   23.7800 C   0  0  2  0  0  0  0  0  0  0  0  0
    8.4641  -15.8426   22.4305 N   0  0  0  0  0  0  0  0  0  0  0  0
    8.4599  -15.2191   24.7536 C   0  0  0  0  0  0  0  0  0  0  0  0
    9.6159  -14.9206   25.0037 O   0  0  0  0  0  0  0  0  0  0  0  0
    5.4848  -22.1736   24.2397 N   0  0  0  0  0  0  0  0  0  0  0  0
    7.4867  -14.4683   25.5511 C   0  0  2  0  0  0  0  0  0  0  0  0
    7.8635  -13.4779   26.5064 C   0  0  0  0  0  0  0  0  0  0  0  0
    6.6872  -12.6730   27.0198 S   0  0  0  0  0  0  0  0  0  0  0  0
    5.8742  -11.9653   25.5339 C   0  0  0  0  0  0  0  0  0  0  0  0
    8.5154  -14.1319   27.6526 O   0  0  0  0  0  0  0  0  0  0  0  0
    8.9890  -13.4542   28.5757 O   0  0  0  0  0  0  0  0  0  0  0  0
  2  1  1  0
  2  3  2  0
  4  5  1  0
  4  2  1  0
  5  7  1  0
  5  6  1  6
  7  8  2  0
  9 10  1  0
 10 11  2  0
 12 13  1  0
 12 10  1  0
 13 14  1  0
 15 14  1  0
 16 18  1  0
 16 15  1  1
 17  7  1  0
 17 16  1  0
 18 19  2  0
 20 21  1  0
 20 18  1  0
 22 23  1  0
 21 22  1  6
 24 21  1  0
 24 26  1  0
 25 24  2  0
M  END
$$$$
