NRC.pdb
     RDKit          3D

 26 25  0  0  1  0  0  0  0  0999 V2000
    8.4587  -12.7240   16.3641 N   0  0  0  0  0  0  0  0  0  0  0  0
    7.9595  -13.9624   16.8476 C   0  0  0  0  0  0  0  0  0  0  0  0
    7.8974  -14.9354   16.0305 O   0  0  0  0  0  0  0  0  0  0  0  0
    7.5233  -14.1253   18.2530 C   0  0  0  0  0  0  0  0  0  0  0  0
    8.6626  -14.2019   19.2230 C   0  0  2  0  0  0  0  0  0  0  0  0
    9.4263  -15.4080   18.8873 N   0  0  0  0  0  0  0  0  0  0  0  0
    8.0738  -14.4110   20.5885 C   0  0  0  0  0  0  0  0  0  0  0  0
    7.2802  -13.5500   21.0356 O   0  0  0  0  0  0  0  0  0  0  0  0
   11.3047  -18.1149   25.3074 N   0  0  0  0  0  0  0  0  0  0  0  0
   11.7695  -19.0079   24.3107 C   0  0  0  0  0  0  0  0  0  0  0  0
   13.0243  -19.2400   24.1076 N   0  0  0  0  0  0  0  0  0  0  0  0
   10.8264  -19.6740   23.5051 N   0  0  0  0  0  0  0  0  0  0  0  0
    9.4352  -19.2539   23.5306 C   0  0  0  0  0  0  0  0  0  0  0  0
    9.2652  -17.8255   23.2380 C   0  0  0  0  0  0  0  0  0  0  0  0
    7.9727  -17.1710   23.1321 C   0  0  0  0  0  0  0  0  0  0  0  0
    7.7960  -15.7789   22.7182 C   0  0  2  0  0  0  0  0  0  0  0  0
    8.3803  -15.5391   21.3845 N   0  0  0  0  0  0  0  0  0  0  0  0
    8.1488  -14.6801   23.6193 C   0  0  0  0  0  0  0  0  0  0  0  0
    9.2686  -14.3365   23.9600 O   0  0  0  0  0  0  0  0  0  0  0  0
   13.2676  -19.9182   23.3585 N   0  0  0  0  0  0  0  0  0  0  0  0
    7.0898  -13.8608   24.2144 C   0  0  2  0  0  0  0  0  0  0  0  0
    7.2843  -13.0710   25.3866 C   0  0  0  0  0  0  0  0  0  0  0  0
    6.0718  -12.2369   25.7460 S   0  0  0  0  0  0  0  0  0  0  0  0
    6.5480  -11.2700   27.2320 C   0  0  0  0  0  0  0  0  0  0  0  0
    7.5942  -13.9550   26.5219 O   0  0  0  0  0  0  0  0  0  0  0  0
    6.9527  -15.0008   26.6962 O   0  0  0  0  0  0  0  0  0  0  0  0
  2  1  1  0
  2  3  2  0
  4  5  1  0
  4  2  1  0
  5  7  1  0
  5  6  1  6
  7  8  2  0
  9 10  1  0
 10 11  2  0
 12 13  1  0
 12 10  1  0
 13 14  1  0
 15 14  1  0
 16 18  1  0
 16 15  1  1
 17  7  1  0
 17 16  1  0
 18 19  2  0
 20 21  1  0
 20 18  1  0
 22 23  1  0
 21 22  1  1
 24 21  1  0
 24 26  1  0
 25 24  2  0
M  END
$$$$
