NRC.pdb
     RDKit          3D

 26 25  0  0  1  0  0  0  0  0999 V2000
    9.3200  -13.9575   16.8136 N   0  0  0  0  0  0  0  0  0  0  0  0
    7.9243  -14.1350   17.0064 C   0  0  0  0  0  0  0  0  0  0  0  0
    7.2082  -14.3582   15.9790 O   0  0  0  0  0  0  0  0  0  0  0  0
    7.3140  -14.0642   18.3534 C   0  0  0  0  0  0  0  0  0  0  0  0
    8.2859  -13.6766   19.4257 C   0  0  2  0  0  0  0  0  0  0  0  0
    9.5556  -14.3380   19.1079 N   0  0  0  0  0  0  0  0  0  0  0  0
    7.7866  -14.2630   20.7148 C   0  0  0  0  0  0  0  0  0  0  0  0
    6.6282  -13.9719   21.0951 O   0  0  0  0  0  0  0  0  0  0  0  0
   10.7961  -19.3984   19.8442 N   0  0  0  0  0  0  0  0  0  0  0  0
   11.7968  -19.5617   20.8334 C   0  0  0  0  0  0  0  0  0  0  0  0
   13.0196  -19.8679   20.5496 N   0  0  0  0  0  0  0  0  0  0  0  0
   11.4481  -19.3823   22.1856 N   0  0  0  0  0  0  0  0  0  0  0  0
   10.0657  -19.1075   22.5408 C   0  0  0  0  0  0  0  0  0  0  0  0
    9.7333  -17.6791   22.4765 C   0  0  0  0  0  0  0  0  0  0  0  0
    8.4492  -17.1299   22.8760 C   0  0  0  0  0  0  0  0  0  0  0  0
    8.1065  -15.7105   22.7852 C   0  0  2  0  0  0  0  0  0  0  0  0
    8.5718  -15.1283   21.5116 N   0  0  0  0  0  0  0  0  0  0  0  0
    8.4082  -14.7961   23.8882 C   0  0  0  0  0  0  0  0  0  0  0  0
    9.5089  -14.5122   24.3306 O   0  0  0  0  0  0  0  0  0  0  0  0
   13.6688  -20.0219   21.3466 N   0  0  0  0  0  0  0  0  0  0  0  0
    7.3149  -14.1116   24.5834 C   0  0  2  0  0  0  0  0  0  0  0  0
    7.5187  -13.2864   25.7294 C   0  0  0  0  0  0  0  0  0  0  0  0
    6.3006  -12.4601   26.0877 S   0  0  0  0  0  0  0  0  0  0  0  0
    6.7773  -11.4719   27.5593 C   0  0  0  0  0  0  0  0  0  0  0  0
    7.8621  -14.1335   26.8830 O   0  0  0  0  0  0  0  0  0  0  0  0
    7.4317  -15.2930   26.9603 O   0  0  0  0  0  0  0  0  0  0  0  0
  2  1  1  0
  2  3  2  0
  4  5  1  0
  4  2  1  0
  5  7  1  0
  5  6  1  6
  7  8  2  0
  9 10  1  0
 10 11  2  0
 12 13  1  0
 12 10  1  0
 13 14  1  0
 15 14  1  0
 16 18  1  0
 16 15  1  1
 17  7  1  0
 17 16  1  0
 18 19  2  0
 20 21  1  0
 20 18  1  0
 22 23  1  0
 21 22  1  1
 24 21  1  0
 24 26  1  0
 25 24  2  0
M  END
$$$$
