NRC.pdb
     RDKit          3D

 26 25  0  0  1  0  0  0  0  0999 V2000
    7.2906  -12.9804   16.2712 N   0  0  0  0  0  0  0  0  0  0  0  0
    7.7847  -14.2405   15.8415 C   0  0  0  0  0  0  0  0  0  0  0  0
    7.3711  -14.6894   14.7255 O   0  0  0  0  0  0  0  0  0  0  0  0
    8.7484  -15.0131   16.6579 C   0  0  0  0  0  0  0  0  0  0  0  0
    8.9368  -14.4584   18.0368 C   0  0  2  0  0  0  0  0  0  0  0  0
    9.4791  -13.1049   17.8802 N   0  0  0  0  0  0  0  0  0  0  0  0
    9.9914  -15.2873   18.7118 C   0  0  0  0  0  0  0  0  0  0  0  0
    9.7588  -16.5025   18.9130 O   0  0  0  0  0  0  0  0  0  0  0  0
   17.6390  -15.2284   15.9864 N   0  0  0  0  0  0  0  0  0  0  0  0
   16.9400  -14.1754   16.6263 C   0  0  0  0  0  0  0  0  0  0  0  0
   17.3983  -12.9691   16.6936 N   0  0  0  0  0  0  0  0  0  0  0  0
   15.6910  -14.4509   17.2147 N   0  0  0  0  0  0  0  0  0  0  0  0
   15.1415  -15.7943   17.1385 C   0  0  0  0  0  0  0  0  0  0  0  0
   13.8409  -15.9174   17.8080 C   0  0  0  0  0  0  0  0  0  0  0  0
   13.5667  -15.4070   19.1401 C   0  0  0  0  0  0  0  0  0  0  0  0
   12.2739  -15.5378   19.8125 C   0  0  2  0  0  0  0  0  0  0  0  0
   11.2320  -14.7496   19.1265 N   0  0  0  0  0  0  0  0  0  0  0  0
   12.1620  -15.3540   21.2608 C   0  0  0  0  0  0  0  0  0  0  0  0
   12.1356  -14.2976   21.8701 O   0  0  0  0  0  0  0  0  0  0  0  0
   16.8545  -12.2842   17.2552 N   0  0  0  0  0  0  0  0  0  0  0  0
   12.0676  -16.5253   22.1361 C   0  0  1  0  0  0  0  0  0  0  0  0
   11.4864  -16.4775   23.4382 C   0  0  0  0  0  0  0  0  0  0  0  0
   10.0332  -16.0497   23.4223 S   0  0  0  0  0  0  0  0  0  0  0  0
    9.5146  -15.9614   25.1809 C   0  0  0  0  0  0  0  0  0  0  0  0
   11.5724  -17.8099   24.0577 O   0  0  0  0  0  0  0  0  0  0  0  0
   11.4623  -17.9395   25.2851 O   0  0  0  0  0  0  0  0  0  0  0  0
  2  1  1  0
  2  3  2  0
  4  5  1  0
  4  2  1  0
  5  7  1  0
  5  6  1  6
  7  8  2  0
  9 10  1  0
 10 11  2  0
 12 13  1  0
 12 10  1  0
 13 14  1  0
 15 14  1  0
 16 18  1  0
 16 15  1  6
 17  7  1  0
 17 16  1  0
 18 19  2  0
 20 21  1  0
 20 18  1  0
 22 23  1  0
 21 22  1  1
 24 21  1  0
 24 26  1  0
 25 24  2  0
M  END
$$$$
