NRC.pdb
     RDKit          3D

 26 25  0  0  1  0  0  0  0  0999 V2000
   15.4635  -13.9959   16.5850 N   0  0  0  0  0  0  0  0  0  0  0  0
   14.1716  -14.5125   16.8690 C   0  0  0  0  0  0  0  0  0  0  0  0
   13.6203  -15.2459   15.9878 O   0  0  0  0  0  0  0  0  0  0  0  0
   13.4814  -14.2131   18.1441 C   0  0  0  0  0  0  0  0  0  0  0  0
   13.3293  -15.4103   19.0320 C   0  0  2  0  0  0  0  0  0  0  0  0
   12.5690  -16.4085   18.2730 N   0  0  0  0  0  0  0  0  0  0  0  0
   12.4814  -14.9957   20.2000 C   0  0  0  0  0  0  0  0  0  0  0  0
   12.9979  -14.2787   21.0890 O   0  0  0  0  0  0  0  0  0  0  0  0
    8.7297  -12.4830   17.2274 N   0  0  0  0  0  0  0  0  0  0  0  0
    7.8737  -13.6109   17.2719 C   0  0  0  0  0  0  0  0  0  0  0  0
    7.7708  -14.4516   16.2960 N   0  0  0  0  0  0  0  0  0  0  0  0
    7.1008  -13.8294   18.4282 N   0  0  0  0  0  0  0  0  0  0  0  0
    7.3718  -13.0581   19.6299 C   0  0  0  0  0  0  0  0  0  0  0  0
    8.6742  -13.3741   20.2289 C   0  0  0  0  0  0  0  0  0  0  0  0
    8.9387  -14.5774   20.9986 C   0  0  0  0  0  0  0  0  0  0  0  0
   10.2693  -14.9726   21.4609 C   0  0  2  0  0  0  0  0  0  0  0  0
   11.1276  -15.3826   20.3328 N   0  0  0  0  0  0  0  0  0  0  0  0
   10.4263  -15.9139   22.5714 C   0  0  0  0  0  0  0  0  0  0  0  0
    9.6110  -16.7306   22.9666 O   0  0  0  0  0  0  0  0  0  0  0  0
    7.1438  -15.2687   16.4360 N   0  0  0  0  0  0  0  0  0  0  0  0
   11.6755  -15.9315   23.3370 C   0  0  2  0  0  0  0  0  0  0  0  0
   11.9129  -16.8340   24.4162 C   0  0  0  0  0  0  0  0  0  0  0  0
   11.6307  -18.2775   24.0535 S   0  0  0  0  0  0  0  0  0  0  0  0
   11.4137  -19.1641   25.6461 C   0  0  0  0  0  0  0  0  0  0  0  0
   13.3187  -16.7267   24.8389 O   0  0  0  0  0  0  0  0  0  0  0  0
   14.1651  -16.2297   24.0825 O   0  0  0  0  0  0  0  0  0  0  0  0
  2  1  1  0
  2  3  2  0
  4  5  1  0
  4  2  1  0
  5  7  1  0
  5  6  1  6
  7  8  2  0
  9 10  1  0
 10 11  2  0
 12 13  1  0
 12 10  1  0
 13 14  1  0
 15 14  1  0
 16 18  1  0
 16 15  1  6
 17  7  1  0
 17 16  1  0
 18 19  2  0
 20 21  1  0
 20 18  1  0
 22 23  1  0
 21 22  1  1
 24 21  1  0
 24 26  1  0
 25 24  2  0
M  END
$$$$
