NRC.pdb
     RDKit          3D

 26 25  0  0  1  0  0  0  0  0999 V2000
   15.6984  -15.6043   17.2420 N   0  0  0  0  0  0  0  0  0  0  0  0
   15.2942  -14.3097   17.6629 C   0  0  0  0  0  0  0  0  0  0  0  0
   15.9495  -13.3124   17.2224 O   0  0  0  0  0  0  0  0  0  0  0  0
   14.1506  -14.1171   18.5832 C   0  0  0  0  0  0  0  0  0  0  0  0
   13.5446  -15.4038   19.0543 C   0  0  2  0  0  0  0  0  0  0  0  0
   12.7694  -15.9443   17.9329 N   0  0  0  0  0  0  0  0  0  0  0  0
   12.5727  -15.0662   20.1481 C   0  0  0  0  0  0  0  0  0  0  0  0
   13.0107  -14.5275   21.1917 O   0  0  0  0  0  0  0  0  0  0  0  0
    8.3536  -13.0511   16.4416 N   0  0  0  0  0  0  0  0  0  0  0  0
    7.7313  -14.2926   16.7212 C   0  0  0  0  0  0  0  0  0  0  0  0
    7.7363  -15.2821   15.8901 N   0  0  0  0  0  0  0  0  0  0  0  0
    7.0790  -14.4600   17.9576 N   0  0  0  0  0  0  0  0  0  0  0  0
    7.2876  -13.4877   19.0176 C   0  0  0  0  0  0  0  0  0  0  0  0
    8.5755  -13.6569   19.7015 C   0  0  0  0  0  0  0  0  0  0  0  0
    8.8863  -14.7772   20.5724 C   0  0  0  0  0  0  0  0  0  0  0  0
   10.2183  -15.0400   21.1176 C   0  0  2  0  0  0  0  0  0  0  0  0
   11.1876  -15.3322   20.0440 N   0  0  0  0  0  0  0  0  0  0  0  0
   10.4017  -15.9838   22.2219 C   0  0  0  0  0  0  0  0  0  0  0  0
   10.7031  -17.1631   22.1417 O   0  0  0  0  0  0  0  0  0  0  0  0
    7.3367  -16.1829   16.2205 N   0  0  0  0  0  0  0  0  0  0  0  0
   10.2184  -15.5297   23.6029 C   0  0  2  0  0  0  0  0  0  0  0  0
   10.2219  -16.4175   24.7198 C   0  0  0  0  0  0  0  0  0  0  0  0
   10.0455  -15.7032   26.0441 S   0  0  0  0  0  0  0  0  0  0  0  0
    8.5393  -14.6698   25.8623 C   0  0  0  0  0  0  0  0  0  0  0  0
    9.1302  -17.3930   24.5683 O   0  0  0  0  0  0  0  0  0  0  0  0
    9.0538  -18.3717   25.3246 O   0  0  0  0  0  0  0  0  0  0  0  0
  2  1  1  0
  2  3  2  0
  4  5  1  0
  4  2  1  0
  5  7  1  0
  5  6  1  6
  7  8  2  0
  9 10  1  0
 10 11  2  0
 12 13  1  0
 12 10  1  0
 13 14  1  0
 15 14  1  0
 16 18  1  0
 16 15  1  6
 17  7  1  0
 17 16  1  0
 18 19  2  0
 20 21  1  0
 20 18  1  0
 22 23  1  0
 21 22  1  6
 24 21  1  0
 24 26  1  0
 25 24  2  0
M  END
$$$$
