NRC.pdb
     RDKit          3D

 26 25  0  0  1  0  0  0  0  0999 V2000
   13.8684  -18.4560   21.9198 N   0  0  0  0  0  0  0  0  0  0  0  0
   13.4169  -17.3740   21.1186 C   0  0  0  0  0  0  0  0  0  0  0  0
   14.2286  -16.8877   20.2684 O   0  0  0  0  0  0  0  0  0  0  0  0
   12.0499  -16.8234   21.2608 C   0  0  0  0  0  0  0  0  0  0  0  0
   10.9895  -17.7114   20.6850 C   0  0  2  0  0  0  0  0  0  0  0  0
   11.1101  -17.6264   19.2259 N   0  0  0  0  0  0  0  0  0  0  0  0
    9.6604  -17.1211   21.0590 C   0  0  0  0  0  0  0  0  0  0  0  0
    8.6532  -17.4407   20.3848 O   0  0  0  0  0  0  0  0  0  0  0  0
    7.6149  -21.6065   26.3259 N   0  0  0  0  0  0  0  0  0  0  0  0
    6.8278  -20.6383   26.9965 C   0  0  0  0  0  0  0  0  0  0  0  0
    6.4474  -20.7723   28.2241 N   0  0  0  0  0  0  0  0  0  0  0  0
    6.4422  -19.4777   26.2990 N   0  0  0  0  0  0  0  0  0  0  0  0
    6.7493  -19.3546   24.8837 C   0  0  0  0  0  0  0  0  0  0  0  0
    7.0636  -17.9769   24.4859 C   0  0  0  0  0  0  0  0  0  0  0  0
    8.0981  -17.6292   23.5272 C   0  0  0  0  0  0  0  0  0  0  0  0
    8.3648  -16.2632   23.0762 C   0  0  2  0  0  0  0  0  0  0  0  0
    9.5042  -16.2220   22.1394 N   0  0  0  0  0  0  0  0  0  0  0  0
    8.4742  -15.1655   24.0390 C   0  0  0  0  0  0  0  0  0  0  0  0
    8.0249  -14.0371   23.9250 O   0  0  0  0  0  0  0  0  0  0  0  0
    5.8141  -20.0432   28.6083 N   0  0  0  0  0  0  0  0  0  0  0  0
    9.1894  -15.3750   25.3005 C   0  0  2  0  0  0  0  0  0  0  0  0
    9.3258  -14.3604   26.2943 C   0  0  0  0  0  0  0  0  0  0  0  0
    8.0020  -13.7416   26.6938 S   0  0  0  0  0  0  0  0  0  0  0  0
    8.4106  -12.3942   27.8715 C   0  0  0  0  0  0  0  0  0  0  0  0
    9.9508  -14.9378   27.4954 O   0  0  0  0  0  0  0  0  0  0  0  0
   10.0543  -16.1664   27.6198 O   0  0  0  0  0  0  0  0  0  0  0  0
  2  1  1  0
  2  3  2  0
  4  5  1  0
  4  2  1  0
  5  7  1  0
  5  6  1  6
  7  8  2  0
  9 10  1  0
 10 11  2  0
 12 13  1  0
 12 10  1  0
 13 14  1  0
 15 14  1  0
 16 18  1  0
 16 15  1  1
 17  7  1  0
 17 16  1  0
 18 19  2  0
 20 21  1  0
 20 18  1  0
 22 23  1  0
 21 22  1  6
 24 21  1  0
 24 26  1  0
 25 24  2  0
M  END
$$$$
