NRC.pdb
     RDKit          3D

 26 25  0  0  1  0  0  0  0  0999 V2000
    8.7558  -13.4378   15.8702 N   0  0  0  0  0  0  0  0  0  0  0  0
    7.5112  -14.0557   16.1631 C   0  0  0  0  0  0  0  0  0  0  0  0
    6.8775  -14.5961   15.2015 O   0  0  0  0  0  0  0  0  0  0  0  0
    6.9613  -14.0752   17.5376 C   0  0  0  0  0  0  0  0  0  0  0  0
    7.8736  -13.4537   18.5506 C   0  0  2  0  0  0  0  0  0  0  0  0
    9.2153  -13.4341   17.9590 N   0  0  0  0  0  0  0  0  0  0  0  0
    7.9206  -14.3757   19.7350 C   0  0  0  0  0  0  0  0  0  0  0  0
    6.8648  -14.5732   20.3811 O   0  0  0  0  0  0  0  0  0  0  0  0
   12.0239  -19.8446   19.3819 N   0  0  0  0  0  0  0  0  0  0  0  0
   12.9869  -19.1917   20.1899 C   0  0  0  0  0  0  0  0  0  0  0  0
   14.2050  -18.9933   19.8067 N   0  0  0  0  0  0  0  0  0  0  0  0
   12.6041  -18.7368   21.4661 N   0  0  0  0  0  0  0  0  0  0  0  0
   11.3047  -19.1080   22.0013 C   0  0  0  0  0  0  0  0  0  0  0  0
   10.4216  -17.9536   22.2071 C   0  0  0  0  0  0  0  0  0  0  0  0
   10.1224  -16.9721   21.1788 C   0  0  0  0  0  0  0  0  0  0  0  0
    9.2050  -15.8482   21.3677 C   0  0  2  0  0  0  0  0  0  0  0  0
    9.1070  -15.0266   20.1459 N   0  0  0  0  0  0  0  0  0  0  0  0
    9.3170  -14.9803   22.5415 C   0  0  0  0  0  0  0  0  0  0  0  0
    9.7508  -13.8408   22.5773 O   0  0  0  0  0  0  0  0  0  0  0  0
   14.8595  -18.5769   20.4984 N   0  0  0  0  0  0  0  0  0  0  0  0
    8.8787  -15.4702   23.8511 C   0  0  1  0  0  0  0  0  0  0  0  0
    8.3950  -14.6092   24.8808 C   0  0  0  0  0  0  0  0  0  0  0  0
    7.2074  -13.7754   24.4456 S   0  0  0  0  0  0  0  0  0  0  0  0
    6.7530  -12.7491   25.8981 C   0  0  0  0  0  0  0  0  0  0  0  0
    7.9942  -15.4190   26.0427 O   0  0  0  0  0  0  0  0  0  0  0  0
    7.7671  -16.6305   25.9148 O   0  0  0  0  0  0  0  0  0  0  0  0
  2  1  1  0
  2  3  2  0
  4  5  1  0
  4  2  1  0
  5  7  1  0
  5  6  1  6
  7  8  2  0
  9 10  1  0
 10 11  2  0
 12 13  1  0
 12 10  1  0
 13 14  1  0
 15 14  1  0
 16 18  1  0
 16 15  1  6
 17  7  1  0
 17 16  1  0
 18 19  2  0
 20 21  1  0
 20 18  1  0
 22 23  1  0
 21 22  1  1
 24 21  1  0
 24 26  1  0
 25 24  2  0
M  END
$$$$
