EQL.pdb
     RDKit          3D

 27 26  0  0  1  0  0  0  0  0999 V2000
    5.2530  -19.1580   20.1596 N   0  0  0  0  0  0  0  0  0  0  0  0
    6.6203  -19.1416   20.7583 C   0  0  1  0  0  0  0  0  0  0  0  0
    7.4134  -18.1335   19.9603 C   0  0  0  0  0  0  0  0  0  0  0  0
    8.3737  -18.6904   18.9754 C   0  0  0  0  0  0  0  0  0  0  0  0
    9.7593  -18.2267   19.1679 C   0  0  0  0  0  0  0  0  0  0  0  0
   10.3681  -18.2346   20.2616 O   0  0  0  0  0  0  0  0  0  0  0  0
    6.4543  -18.6016   22.1518 C   0  0  0  0  0  0  0  0  0  0  0  0
    5.5096  -17.7788   22.3286 O   0  0  0  0  0  0  0  0  0  0  0  0
   10.4513  -17.7383   18.0344 O   0  0  0  0  0  0  0  0  0  0  0  0
    7.9572  -20.0143   28.7298 N   0  0  0  0  0  0  0  0  0  0  0  0
    7.0872  -20.5918   27.7574 C   0  0  0  0  0  0  0  0  0  0  0  0
    6.8180  -21.7893   27.8753 O   0  0  0  0  0  0  0  0  0  0  0  0
    6.5346  -19.7429   26.6446 C   0  0  0  0  0  0  0  0  0  0  0  0
    7.5923  -19.3093   25.6969 C   0  0  0  0  0  0  0  0  0  0  0  0
    7.1469  -18.3954   24.5871 C   0  0  2  0  0  0  0  0  0  0  0  0
    7.2394  -18.9235   23.2608 N   0  0  0  0  0  0  0  0  0  0  0  0
    7.6759  -17.0484   24.7950 C   0  0  0  0  0  0  0  0  0  0  0  0
    8.8116  -16.8139   24.2714 O   0  0  0  0  0  0  0  0  0  0  0  0
    5.8366  -11.7632   27.5370 C   0  0  0  0  0  0  0  0  0  0  0  0
    6.8818  -12.4381   26.6883 C   0  0  2  0  0  0  0  0  0  0  0  0
    7.4624  -11.5630   25.6104 C   0  0  0  0  0  0  0  0  0  0  0  0
    6.5542  -13.8111   26.2653 C   0  0  0  0  0  0  0  0  0  0  0  0
    7.6098  -14.7195   25.8096 C   0  0  2  0  0  0  0  0  0  0  0  0
    7.0007  -16.0310   25.5285 N   0  0  0  0  0  0  0  0  0  0  0  0
    8.8034  -14.9079   26.6081 C   0  0  0  0  0  0  0  0  0  0  0  0
    9.9784  -14.2157   26.2556 O   0  0  0  0  0  0  0  0  0  0  0  0
    8.9523  -15.6343   27.6210 O   0  0  0  0  0  0  0  0  0  0  0  0
  2  1  1  6
  3  2  1  0
  3  4  1  0
  5  6  2  0
  5  4  1  0
  7  8  2  0
  7  2  1  0
  9  5  1  0
 10 11  1  0
 11 12  2  0
 11 13  1  0
 13 14  1  0
 15 14  1  1
 15 16  1  0
 16  7  1  0
 17 18  2  0
 17 15  1  0
 20 22  1  0
 20 19  1  6
 21 20  1  0
 23 24  1  0
 23 22  1  1
 24 17  1  0
 25 23  1  0
 26 25  1  0
 27 25  2  0
M  END
$$$$
