EQL.pdb
     RDKit          3D

 27 26  0  0  1  0  0  0  0  0999 V2000
    4.7857  -19.4735   20.0178 N   0  0  0  0  0  0  0  0  0  0  0  0
    6.1921  -19.3822   20.5094 C   0  0  1  0  0  0  0  0  0  0  0  0
    6.8827  -18.3793   19.6152 C   0  0  0  0  0  0  0  0  0  0  0  0
    7.2374  -18.8536   18.2546 C   0  0  0  0  0  0  0  0  0  0  0  0
    7.9953  -17.8702   17.4606 C   0  0  0  0  0  0  0  0  0  0  0  0
    9.1252  -18.0751   16.9623 O   0  0  0  0  0  0  0  0  0  0  0  0
    6.1093  -18.7917   21.8899 C   0  0  0  0  0  0  0  0  0  0  0  0
    5.2949  -17.8363   22.0463 O   0  0  0  0  0  0  0  0  0  0  0  0
    7.4025  -16.6035   17.2454 O   0  0  0  0  0  0  0  0  0  0  0  0
    8.0585  -21.3101   27.4304 N   0  0  0  0  0  0  0  0  0  0  0  0
    7.7325  -19.9779   27.8245 C   0  0  0  0  0  0  0  0  0  0  0  0
    7.8551  -19.6921   29.0177 O   0  0  0  0  0  0  0  0  0  0  0  0
    7.2625  -18.9838   26.7973 C   0  0  0  0  0  0  0  0  0  0  0  0
    7.1340  -19.5939   25.4497 C   0  0  0  0  0  0  0  0  0  0  0  0
    6.8147  -18.6451   24.3258 C   0  0  2  0  0  0  0  0  0  0  0  0
    6.8415  -19.1989   23.0071 N   0  0  0  0  0  0  0  0  0  0  0  0
    7.5142  -17.3758   24.5183 C   0  0  0  0  0  0  0  0  0  0  0  0
    8.7105  -17.3332   24.0871 O   0  0  0  0  0  0  0  0  0  0  0  0
    8.0446  -12.2774   26.7305 C   0  0  0  0  0  0  0  0  0  0  0  0
    7.0998  -12.4846   25.5761 C   0  0  2  0  0  0  0  0  0  0  0  0
    6.0023  -11.4590   25.4837 C   0  0  0  0  0  0  0  0  0  0  0  0
    6.6689  -13.8773   25.3616 C   0  0  0  0  0  0  0  0  0  0  0  0
    7.6570  -14.9565   25.2826 C   0  0  2  0  0  0  0  0  0  0  0  0
    6.9359  -16.2333   25.1423 N   0  0  0  0  0  0  0  0  0  0  0  0
    8.6724  -15.0907   26.3066 C   0  0  0  0  0  0  0  0  0  0  0  0
    8.3860  -15.8489   27.4585 O   0  0  0  0  0  0  0  0  0  0  0  0
    9.8305  -14.6065   26.3187 O   0  0  0  0  0  0  0  0  0  0  0  0
  2  1  1  6
  3  2  1  0
  3  4  1  0
  5  6  2  0
  5  4  1  0
  7  8  2  0
  7  2  1  0
  9  5  1  0
 10 11  1  0
 11 12  2  0
 11 13  1  0
 13 14  1  0
 15 14  1  1
 15 16  1  0
 16  7  1  0
 17 18  2  0
 17 15  1  0
 20 22  1  0
 20 19  1  1
 21 20  1  0
 23 24  1  0
 23 22  1  1
 24 17  1  0
 25 23  1  0
 26 25  1  0
 27 25  2  0
M  END
$$$$
