EQL.pdb
     RDKit          3D

 27 26  0  0  1  0  0  0  0  0999 V2000
    5.1678  -18.1729   19.9177 N   0  0  0  0  0  0  0  0  0  0  0  0
    6.5389  -18.4168   20.4552 C   0  0  1  0  0  0  0  0  0  0  0  0
    7.4685  -17.5536   19.6349 C   0  0  0  0  0  0  0  0  0  0  0  0
    7.3595  -16.0894   19.8501 C   0  0  0  0  0  0  0  0  0  0  0  0
    8.2386  -15.2926   18.9759 C   0  0  0  0  0  0  0  0  0  0  0  0
    9.0621  -15.7729   18.1646 O   0  0  0  0  0  0  0  0  0  0  0  0
    6.5320  -17.8834   21.8611 C   0  0  0  0  0  0  0  0  0  0  0  0
    5.8967  -16.8061   22.0521 O   0  0  0  0  0  0  0  0  0  0  0  0
    8.1442  -13.8832   19.0592 O   0  0  0  0  0  0  0  0  0  0  0  0
    7.5698  -21.1866   27.1801 N   0  0  0  0  0  0  0  0  0  0  0  0
    6.6907  -21.4350   26.0839 C   0  0  0  0  0  0  0  0  0  0  0  0
    6.1748  -22.5526   26.0110 O   0  0  0  0  0  0  0  0  0  0  0  0
    6.4230  -20.3517   25.0746 C   0  0  0  0  0  0  0  0  0  0  0  0
    7.1837  -19.1119   25.3731 C   0  0  0  0  0  0  0  0  0  0  0  0
    7.1133  -18.0295   24.3296 C   0  0  2  0  0  0  0  0  0  0  0  0
    7.1557  -18.4641   22.9673 N   0  0  0  0  0  0  0  0  0  0  0  0
    7.9913  -16.9177   24.6909 C   0  0  0  0  0  0  0  0  0  0  0  0
    8.2816  -16.1140   23.7482 O   0  0  0  0  0  0  0  0  0  0  0  0
    5.8583  -12.7925   27.1783 C   0  0  0  0  0  0  0  0  0  0  0  0
    7.2721  -13.2866   27.0192 C   0  0  2  0  0  0  0  0  0  0  0  0
    8.2090  -12.2886   26.3938 C   0  0  0  0  0  0  0  0  0  0  0  0
    7.4009  -14.6637   26.5108 C   0  0  0  0  0  0  0  0  0  0  0  0
    8.6876  -15.3618   26.5756 C   0  0  2  0  0  0  0  0  0  0  0  0
    8.5128  -16.7063   25.9995 N   0  0  0  0  0  0  0  0  0  0  0  0
    9.3955  -15.4692   27.8346 C   0  0  0  0  0  0  0  0  0  0  0  0
   10.5076  -14.6368   28.0671 O   0  0  0  0  0  0  0  0  0  0  0  0
    9.1504  -16.2341   28.7993 O   0  0  0  0  0  0  0  0  0  0  0  0
  2  1  1  6
  3  2  1  0
  3  4  1  0
  5  6  2  0
  5  4  1  0
  7  8  2  0
  7  2  1  0
  9  5  1  0
 10 11  1  0
 11 12  2  0
 11 13  1  0
 13 14  1  0
 15 14  1  1
 15 16  1  0
 16  7  1  0
 17 18  2  0
 17 15  1  0
 20 22  1  0
 20 19  1  6
 21 20  1  0
 23 24  1  0
 23 22  1  1
 24 17  1  0
 25 23  1  0
 26 25  1  0
 27 25  2  0
M  END
$$$$
