EQL.pdb
     RDKit          3D

 27 26  0  0  1  0  0  0  0  0999 V2000
   15.8008  -19.0555   17.1681 N   0  0  0  0  0  0  0  0  0  0  0  0
   16.4054  -19.6043   18.4177 C   0  0  1  0  0  0  0  0  0  0  0  0
   17.7973  -20.0572   18.0441 C   0  0  0  0  0  0  0  0  0  0  0  0
   18.7181  -19.0011   17.5553 C   0  0  0  0  0  0  0  0  0  0  0  0
   20.0347  -19.5095   17.1313 C   0  0  0  0  0  0  0  0  0  0  0  0
   21.0394  -19.5927   17.8734 O   0  0  0  0  0  0  0  0  0  0  0  0
   16.5348  -18.4393   19.3596 C   0  0  0  0  0  0  0  0  0  0  0  0
   17.1358  -17.4188   18.9146 O   0  0  0  0  0  0  0  0  0  0  0  0
   20.1728  -19.9350   15.7888 O   0  0  0  0  0  0  0  0  0  0  0  0
   12.1194  -17.4841   21.7036 N   0  0  0  0  0  0  0  0  0  0  0  0
   12.7584  -18.4402   22.5485 C   0  0  0  0  0  0  0  0  0  0  0  0
   12.0949  -19.4159   22.9062 O   0  0  0  0  0  0  0  0  0  0  0  0
   14.1895  -18.2363   22.9663 C   0  0  0  0  0  0  0  0  0  0  0  0
   14.7871  -17.0312   22.3377 C   0  0  0  0  0  0  0  0  0  0  0  0
   16.0531  -17.2564   21.5554 C   0  0  2  0  0  0  0  0  0  0  0  0
   16.0548  -18.3797   20.6696 N   0  0  0  0  0  0  0  0  0  0  0  0
   17.2201  -17.1033   22.4226 C   0  0  0  0  0  0  0  0  0  0  0  0
   17.6251  -18.1642   22.9965 O   0  0  0  0  0  0  0  0  0  0  0  0
   21.6568  -12.9323   23.6994 C   0  0  0  0  0  0  0  0  0  0  0  0
   21.1990  -14.3644   23.6126 C   0  0  2  0  0  0  0  0  0  0  0  0
   22.2044  -15.2985   22.9948 C   0  0  0  0  0  0  0  0  0  0  0  0
   19.8117  -14.5517   23.1527 C   0  0  0  0  0  0  0  0  0  0  0  0
   19.0564  -15.7467   23.5386 C   0  0  2  0  0  0  0  0  0  0  0  0
   17.8939  -15.8675   22.6420 N   0  0  0  0  0  0  0  0  0  0  0  0
   18.6236  -15.9238   24.9093 C   0  0  0  0  0  0  0  0  0  0  0  0
   19.4477  -16.6393   25.7997 O   0  0  0  0  0  0  0  0  0  0  0  0
   17.5678  -15.5113   25.4487 O   0  0  0  0  0  0  0  0  0  0  0  0
  2  1  1  6
  3  2  1  0
  3  4  1  0
  5  6  2  0
  5  4  1  0
  7  8  2  0
  7  2  1  0
  9  5  1  0
 10 11  1  0
 11 12  2  0
 11 13  1  0
 13 14  1  0
 15 14  1  1
 15 16  1  0
 16  7  1  0
 17 18  2  0
 17 15  1  0
 20 22  1  0
 20 19  1  6
 21 20  1  0
 23 24  1  0
 23 22  1  1
 24 17  1  0
 25 23  1  0
 26 25  1  0
 27 25  2  0
M  END
$$$$
