EQL.pdb
     RDKit          3D

 27 26  0  0  1  0  0  0  0  0999 V2000
    5.2679  -20.5193   20.8724 N   0  0  0  0  0  0  0  0  0  0  0  0
    6.5700  -19.9851   21.3696 C   0  0  1  0  0  0  0  0  0  0  0  0
    7.0808  -19.0592   20.2908 C   0  0  0  0  0  0  0  0  0  0  0  0
    8.3672  -18.3752   20.5730 C   0  0  0  0  0  0  0  0  0  0  0  0
    8.8104  -17.4734   19.4949 C   0  0  0  0  0  0  0  0  0  0  0  0
    8.1530  -17.2238   18.4592 O   0  0  0  0  0  0  0  0  0  0  0  0
    6.2402  -19.1517   22.5771 C   0  0  0  0  0  0  0  0  0  0  0  0
    5.1778  -18.4674   22.5163 O   0  0  0  0  0  0  0  0  0  0  0  0
   10.0691  -16.8439   19.6417 O   0  0  0  0  0  0  0  0  0  0  0  0
    6.9469  -20.1300   28.7506 N   0  0  0  0  0  0  0  0  0  0  0  0
    8.1413  -20.1299   27.9698 C   0  0  0  0  0  0  0  0  0  0  0  0
    9.1423  -20.6550   28.4624 O   0  0  0  0  0  0  0  0  0  0  0  0
    8.1441  -19.5065   26.6003 C   0  0  0  0  0  0  0  0  0  0  0  0
    6.8125  -18.9611   26.2338 C   0  0  0  0  0  0  0  0  0  0  0  0
    6.7319  -18.2602   24.9043 C   0  0  2  0  0  0  0  0  0  0  0  0
    6.9916  -19.0656   23.7509 N   0  0  0  0  0  0  0  0  0  0  0  0
    7.4133  -16.9683   24.9690 C   0  0  0  0  0  0  0  0  0  0  0  0
    8.6670  -16.9933   24.7536 O   0  0  0  0  0  0  0  0  0  0  0  0
    5.8700  -11.1851   26.7724 C   0  0  0  0  0  0  0  0  0  0  0  0
    6.9356  -12.1000   26.2287 C   0  0  2  0  0  0  0  0  0  0  0  0
    7.7273  -11.5180   25.0888 C   0  0  0  0  0  0  0  0  0  0  0  0
    6.5236  -13.5030   26.0471 C   0  0  0  0  0  0  0  0  0  0  0  0
    7.4948  -14.5123   25.6163 C   0  0  2  0  0  0  0  0  0  0  0  0
    6.7587  -15.7349   25.2512 N   0  0  0  0  0  0  0  0  0  0  0  0
    8.6094  -14.8627   26.4722 C   0  0  0  0  0  0  0  0  0  0  0  0
    9.8757  -14.3053   26.2086 O   0  0  0  0  0  0  0  0  0  0  0  0
    8.6129  -15.6291   27.4664 O   0  0  0  0  0  0  0  0  0  0  0  0
  2  1  1  6
  3  2  1  0
  3  4  1  0
  5  6  2  0
  5  4  1  0
  7  8  2  0
  7  2  1  0
  9  5  1  0
 10 11  1  0
 11 12  2  0
 11 13  1  0
 13 14  1  0
 15 14  1  1
 15 16  1  0
 16  7  1  0
 17 18  2  0
 17 15  1  0
 20 22  1  0
 20 19  1  6
 21 20  1  0
 23 24  1  0
 23 22  1  1
 24 17  1  0
 25 23  1  0
 26 25  1  0
 27 25  2  0
M  END
$$$$
