EQL.pdb
     RDKit          3D

 27 26  0  0  1  0  0  0  0  0999 V2000
    9.5986  -19.2392   21.6981 N   0  0  0  0  0  0  0  0  0  0  0  0
   10.8620  -18.4446   21.6766 C   0  0  1  0  0  0  0  0  0  0  0  0
   11.4267  -18.5958   20.2836 C   0  0  0  0  0  0  0  0  0  0  0  0
   12.7844  -18.0380   20.0657 C   0  0  0  0  0  0  0  0  0  0  0  0
   13.2559  -18.1470   18.6737 C   0  0  0  0  0  0  0  0  0  0  0  0
   14.0015  -17.3166   18.1065 O   0  0  0  0  0  0  0  0  0  0  0  0
   10.4501  -17.0095   21.8559 C   0  0  0  0  0  0  0  0  0  0  0  0
   11.3851  -16.1627   21.9521 O   0  0  0  0  0  0  0  0  0  0  0  0
   12.8363  -19.2719   17.9247 O   0  0  0  0  0  0  0  0  0  0  0  0
    7.7332  -16.9282   19.5997 N   0  0  0  0  0  0  0  0  0  0  0  0
    6.5372  -16.8475   20.3738 C   0  0  0  0  0  0  0  0  0  0  0  0
    5.6909  -17.7284   20.2056 O   0  0  0  0  0  0  0  0  0  0  0  0
    6.3489  -15.7189   21.3509 C   0  0  0  0  0  0  0  0  0  0  0  0
    7.4862  -14.7646   21.3257 C   0  0  0  0  0  0  0  0  0  0  0  0
    8.7083  -15.1769   22.1014 C   0  0  2  0  0  0  0  0  0  0  0  0
    9.1408  -16.5289   21.9237 N   0  0  0  0  0  0  0  0  0  0  0  0
    8.6243  -14.6908   23.4777 C   0  0  0  0  0  0  0  0  0  0  0  0
    8.2436  -13.4846   23.6155 O   0  0  0  0  0  0  0  0  0  0  0  0
    8.3258  -12.0177   26.5163 C   0  0  0  0  0  0  0  0  0  0  0  0
    7.2794  -12.9570   25.9769 C   0  0  2  0  0  0  0  0  0  0  0  0
    5.8631  -12.5194   26.2366 C   0  0  0  0  0  0  0  0  0  0  0  0
    7.5410  -14.3879   26.2123 C   0  0  0  0  0  0  0  0  0  0  0  0
    8.8791  -14.9438   25.9934 C   0  0  2  0  0  0  0  0  0  0  0  0
    8.9380  -15.4789   24.6222 N   0  0  0  0  0  0  0  0  0  0  0  0
    9.4201  -15.9236   26.9127 C   0  0  0  0  0  0  0  0  0  0  0  0
    9.8470  -17.1688   26.4117 O   0  0  0  0  0  0  0  0  0  0  0  0
    9.5731  -15.8206   28.1543 O   0  0  0  0  0  0  0  0  0  0  0  0
  2  1  1  6
  3  2  1  0
  3  4  1  0
  5  6  2  0
  5  4  1  0
  7  8  2  0
  7  2  1  0
  9  5  1  0
 10 11  1  0
 11 12  2  0
 11 13  1  0
 13 14  1  0
 15 14  1  1
 15 16  1  0
 16  7  1  0
 17 18  2  0
 17 15  1  0
 20 22  1  0
 20 19  1  1
 21 20  1  0
 23 24  1  0
 23 22  1  1
 24 17  1  0
 25 23  1  0
 26 25  1  0
 27 25  2  0
M  END
$$$$
