EQL.pdb
     RDKit          3D

 27 26  0  0  1  0  0  0  0  0999 V2000
    5.7316  -16.8133   19.4013 N   0  0  0  0  0  0  0  0  0  0  0  0
    6.9996  -16.4824   20.1160 C   0  0  1  0  0  0  0  0  0  0  0  0
    7.2997  -15.0388   19.7872 C   0  0  0  0  0  0  0  0  0  0  0  0
    7.8648  -14.7801   18.4396 C   0  0  0  0  0  0  0  0  0  0  0  0
    9.3238  -14.9717   18.3596 C   0  0  0  0  0  0  0  0  0  0  0  0
   10.1544  -14.4554   19.1410 O   0  0  0  0  0  0  0  0  0  0  0  0
    6.6805  -16.5664   21.5831 C   0  0  0  0  0  0  0  0  0  0  0  0
    5.6471  -15.9483   21.9713 O   0  0  0  0  0  0  0  0  0  0  0  0
    9.8213  -15.7996   17.3256 O   0  0  0  0  0  0  0  0  0  0  0  0
    8.0469  -21.1052   25.7839 N   0  0  0  0  0  0  0  0  0  0  0  0
    7.5202  -20.0875   26.6343 C   0  0  0  0  0  0  0  0  0  0  0  0
    7.3576  -20.3687   27.8238 O   0  0  0  0  0  0  0  0  0  0  0  0
    7.1890  -18.7328   26.0693 C   0  0  0  0  0  0  0  0  0  0  0  0
    7.4232  -18.6677   24.6045 C   0  0  0  0  0  0  0  0  0  0  0  0
    7.1643  -17.3346   23.9555 C   0  0  2  0  0  0  0  0  0  0  0  0
    7.4129  -17.2600   22.5487 N   0  0  0  0  0  0  0  0  0  0  0  0
    7.7111  -16.2553   24.7762 C   0  0  0  0  0  0  0  0  0  0  0  0
    8.9800  -16.1638   24.7949 O   0  0  0  0  0  0  0  0  0  0  0  0
    5.4102  -11.2131   27.6268 C   0  0  0  0  0  0  0  0  0  0  0  0
    6.6409  -11.9550   27.1759 C   0  0  2  0  0  0  0  0  0  0  0  0
    7.7017  -11.0792   26.5656 C   0  0  0  0  0  0  0  0  0  0  0  0
    6.3842  -13.2145   26.4555 C   0  0  0  0  0  0  0  0  0  0  0  0
    7.4803  -14.1452   26.1734 C   0  0  2  0  0  0  0  0  0  0  0  0
    6.9152  -15.3406   25.5240 N   0  0  0  0  0  0  0  0  0  0  0  0
    8.3780  -14.5560   27.2331 C   0  0  0  0  0  0  0  0  0  0  0  0
    8.1018  -15.7411   27.9424 O   0  0  0  0  0  0  0  0  0  0  0  0
    9.4204  -13.9819   27.6326 O   0  0  0  0  0  0  0  0  0  0  0  0
  2  1  1  6
  3  2  1  0
  3  4  1  0
  5  6  2  0
  5  4  1  0
  7  8  2  0
  7  2  1  0
  9  5  1  0
 10 11  1  0
 11 12  2  0
 11 13  1  0
 13 14  1  0
 15 14  1  1
 15 16  1  0
 16  7  1  0
 17 18  2  0
 17 15  1  0
 20 22  1  0
 20 19  1  6
 21 20  1  0
 23 24  1  0
 23 22  1  1
 24 17  1  0
 25 23  1  0
 26 25  1  0
 27 25  2  0
M  END
$$$$
