EQL.pdb
     RDKit          3D

 27 26  0  0  1  0  0  0  0  0999 V2000
    7.1532  -19.2570   19.2167 N   0  0  0  0  0  0  0  0  0  0  0  0
    8.2637  -18.9699   20.1719 C   0  0  1  0  0  0  0  0  0  0  0  0
    9.1787  -17.9957   19.4679 C   0  0  0  0  0  0  0  0  0  0  0  0
    9.7918  -18.4731   18.2036 C   0  0  0  0  0  0  0  0  0  0  0  0
   10.8573  -17.5939   17.6901 C   0  0  0  0  0  0  0  0  0  0  0  0
   11.6700  -16.9659   18.4059 O   0  0  0  0  0  0  0  0  0  0  0  0
    7.6332  -18.2552   21.3351 C   0  0  0  0  0  0  0  0  0  0  0  0
    6.6061  -17.5617   21.0807 O   0  0  0  0  0  0  0  0  0  0  0  0
   10.9701  -17.4500   16.2870 O   0  0  0  0  0  0  0  0  0  0  0  0
    6.8351  -21.4877   24.6368 N   0  0  0  0  0  0  0  0  0  0  0  0
    5.6279  -20.8473   24.2259 C   0  0  0  0  0  0  0  0  0  0  0  0
    4.6956  -21.5694   23.8656 O   0  0  0  0  0  0  0  0  0  0  0  0
    5.5289  -19.3460   24.2462 C   0  0  0  0  0  0  0  0  0  0  0  0
    6.7757  -18.7122   24.7449 C   0  0  0  0  0  0  0  0  0  0  0  0
    7.4333  -17.7307   23.8125 C   0  0  2  0  0  0  0  0  0  0  0  0
    8.0725  -18.2876   22.6602 N   0  0  0  0  0  0  0  0  0  0  0  0
    8.1965  -16.7416   24.5719 C   0  0  0  0  0  0  0  0  0  0  0  0
    9.4620  -16.8648   24.5245 O   0  0  0  0  0  0  0  0  0  0  0  0
    7.7038  -12.3735   24.4156 C   0  0  0  0  0  0  0  0  0  0  0  0
    6.8425  -12.8677   25.5479 C   0  0  2  0  0  0  0  0  0  0  0  0
    5.8825  -11.8419   26.0876 C   0  0  0  0  0  0  0  0  0  0  0  0
    7.5473  -13.6589   26.5718 C   0  0  0  0  0  0  0  0  0  0  0  0
    8.3983  -14.7867   26.1829 C   0  0  2  0  0  0  0  0  0  0  0  0
    7.6063  -15.6902   25.3306 N   0  0  0  0  0  0  0  0  0  0  0  0
    9.0854  -15.5633   27.1941 C   0  0  0  0  0  0  0  0  0  0  0  0
   10.2155  -15.0122   27.8290 O   0  0  0  0  0  0  0  0  0  0  0  0
    8.8071  -16.7145   27.6101 O   0  0  0  0  0  0  0  0  0  0  0  0
  2  1  1  6
  3  2  1  0
  3  4  1  0
  5  6  2  0
  5  4  1  0
  7  8  2  0
  7  2  1  0
  9  5  1  0
 10 11  1  0
 11 12  2  0
 11 13  1  0
 13 14  1  0
 15 14  1  1
 15 16  1  0
 16  7  1  0
 17 18  2  0
 17 15  1  0
 20 22  1  0
 20 19  1  1
 21 20  1  0
 23 24  1  0
 23 22  1  1
 24 17  1  0
 25 23  1  0
 26 25  1  0
 27 25  2  0
M  END
$$$$
