EQL.pdb
     RDKit          3D

 27 26  0  0  1  0  0  0  0  0999 V2000
    6.9551  -18.7569   21.3890 N   0  0  0  0  0  0  0  0  0  0  0  0
    8.4014  -19.0378   21.1493 C   0  0  1  0  0  0  0  0  0  0  0  0
    8.5121  -19.4498   19.7001 C   0  0  0  0  0  0  0  0  0  0  0  0
    7.4852  -18.8951   18.7836 C   0  0  0  0  0  0  0  0  0  0  0  0
    7.6342  -19.3375   17.3858 C   0  0  0  0  0  0  0  0  0  0  0  0
    7.5781  -18.5820   16.3892 O   0  0  0  0  0  0  0  0  0  0  0  0
    9.1100  -17.7215   21.3118 C   0  0  0  0  0  0  0  0  0  0  0  0
   10.3600  -17.7265   21.1168 O   0  0  0  0  0  0  0  0  0  0  0  0
    7.8575  -20.7154   17.1537 O   0  0  0  0  0  0  0  0  0  0  0  0
    7.9515  -11.8926   19.5909 N   0  0  0  0  0  0  0  0  0  0  0  0
    7.9734  -13.1594   18.9344 C   0  0  0  0  0  0  0  0  0  0  0  0
    7.6184  -13.1941   17.7541 O   0  0  0  0  0  0  0  0  0  0  0  0
    8.4205  -14.3861   19.6824 C   0  0  0  0  0  0  0  0  0  0  0  0
    8.7520  -14.0853   21.0982 C   0  0  0  0  0  0  0  0  0  0  0  0
    9.1689  -15.2609   21.9403 C   0  0  2  0  0  0  0  0  0  0  0  0
    8.5196  -16.5030   21.6536 N   0  0  0  0  0  0  0  0  0  0  0  0
    9.2516  -14.8738   23.3477 C   0  0  0  0  0  0  0  0  0  0  0  0
   10.0367  -13.9074   23.6098 O   0  0  0  0  0  0  0  0  0  0  0  0
    8.4100  -12.0844   26.2039 C   0  0  0  0  0  0  0  0  0  0  0  0
    7.2977  -13.0399   25.8603 C   0  0  2  0  0  0  0  0  0  0  0  0
    5.9179  -12.5092   26.1417 C   0  0  0  0  0  0  0  0  0  0  0  0
    7.5226  -14.4368   26.2718 C   0  0  0  0  0  0  0  0  0  0  0  0
    8.7092  -15.1641   25.8133 C   0  0  2  0  0  0  0  0  0  0  0  0
    8.5203  -15.5072   24.3932 N   0  0  0  0  0  0  0  0  0  0  0  0
    9.1683  -16.3352   26.5312 C   0  0  0  0  0  0  0  0  0  0  0  0
    9.5842  -16.1974   27.8698 O   0  0  0  0  0  0  0  0  0  0  0  0
    9.2536  -17.5164   26.1147 O   0  0  0  0  0  0  0  0  0  0  0  0
  2  1  1  6
  3  2  1  0
  3  4  1  0
  5  6  2  0
  5  4  1  0
  7  8  2  0
  7  2  1  0
  9  5  1  0
 10 11  1  0
 11 12  2  0
 11 13  1  0
 13 14  1  0
 15 14  1  6
 15 16  1  0
 16  7  1  0
 17 18  2  0
 17 15  1  0
 20 22  1  0
 20 19  1  1
 21 20  1  0
 23 24  1  0
 23 22  1  1
 24 17  1  0
 25 23  1  0
 26 25  1  0
 27 25  2  0
M  END
$$$$
