EQL.pdb
     RDKit          3D

 27 26  0  0  1  0  0  0  0  0999 V2000
   12.3454  -17.7382   19.7155 N   0  0  0  0  0  0  0  0  0  0  0  0
   11.2185  -16.7639   19.6206 C   0  0  1  0  0  0  0  0  0  0  0  0
   10.5122  -17.0679   18.3202 C   0  0  0  0  0  0  0  0  0  0  0  0
   11.3225  -17.7513   17.2817 C   0  0  0  0  0  0  0  0  0  0  0  0
   10.5981  -17.9836   16.0194 C   0  0  0  0  0  0  0  0  0  0  0  0
    9.7385  -18.8767   15.8450 O   0  0  0  0  0  0  0  0  0  0  0  0
   10.2821  -17.1048   20.7467 C   0  0  0  0  0  0  0  0  0  0  0  0
    9.0968  -17.4054   20.4226 O   0  0  0  0  0  0  0  0  0  0  0  0
   10.8951  -17.1354   14.9265 O   0  0  0  0  0  0  0  0  0  0  0  0
    9.5200  -20.9419   25.3166 N   0  0  0  0  0  0  0  0  0  0  0  0
   10.8053  -20.5250   24.8581 C   0  0  0  0  0  0  0  0  0  0  0  0
   11.7672  -21.2474   25.1288 O   0  0  0  0  0  0  0  0  0  0  0  0
   10.9461  -19.2483   24.0743 C   0  0  0  0  0  0  0  0  0  0  0  0
    9.6480  -18.5445   23.9180 C   0  0  0  0  0  0  0  0  0  0  0  0
    9.7014  -17.2136   23.2173 C   0  0  2  0  0  0  0  0  0  0  0  0
   10.5985  -17.1219   22.1067 N   0  0  0  0  0  0  0  0  0  0  0  0
    9.7537  -16.1269   24.1940 C   0  0  0  0  0  0  0  0  0  0  0  0
   10.9184  -15.7695   24.5612 O   0  0  0  0  0  0  0  0  0  0  0  0
    5.7438  -12.4930   27.2637 C   0  0  0  0  0  0  0  0  0  0  0  0
    7.1850  -12.7283   26.8949 C   0  0  2  0  0  0  0  0  0  0  0  0
    7.9883  -11.4697   26.7068 C   0  0  0  0  0  0  0  0  0  0  0  0
    7.4087  -13.7672   25.8742 C   0  0  0  0  0  0  0  0  0  0  0  0
    8.6851  -14.4843   25.8118 C   0  0  2  0  0  0  0  0  0  0  0  0
    8.6031  -15.4793   24.7287 N   0  0  0  0  0  0  0  0  0  0  0  0
    9.2259  -15.1133   26.9991 C   0  0  0  0  0  0  0  0  0  0  0  0
   10.2448  -14.4572   27.7168 O   0  0  0  0  0  0  0  0  0  0  0  0
    8.9028  -16.2137   27.5094 O   0  0  0  0  0  0  0  0  0  0  0  0
  2  1  1  1
  3  2  1  0
  3  4  1  0
  5  6  2  0
  5  4  1  0
  7  8  2  0
  7  2  1  0
  9  5  1  0
 10 11  1  0
 11 12  2  0
 11 13  1  0
 13 14  1  0
 15 14  1  1
 15 16  1  0
 16  7  1  0
 17 18  2  0
 17 15  1  0
 20 22  1  0
 20 19  1  6
 21 20  1  0
 23 24  1  0
 23 22  1  1
 24 17  1  0
 25 23  1  0
 26 25  1  0
 27 25  2  0
M  END
$$$$
