EQL.pdb
     RDKit          3D

 27 26  0  0  1  0  0  0  0  0999 V2000
    8.4899  -18.9296   20.3369 N   0  0  0  0  0  0  0  0  0  0  0  0
    9.0324  -17.5704   20.6308 C   0  0  1  0  0  0  0  0  0  0  0  0
    7.8364  -16.7022   20.9439 C   0  0  0  0  0  0  0  0  0  0  0  0
    6.9550  -17.1759   22.0398 C   0  0  0  0  0  0  0  0  0  0  0  0
    5.7719  -16.3255   22.2613 C   0  0  0  0  0  0  0  0  0  0  0  0
    5.4958  -15.3013   21.5967 O   0  0  0  0  0  0  0  0  0  0  0  0
    9.8431  -17.7128   21.8893 C   0  0  0  0  0  0  0  0  0  0  0  0
    9.5345  -18.6732   22.6528 O   0  0  0  0  0  0  0  0  0  0  0  0
    4.8839  -16.6940   23.2995 O   0  0  0  0  0  0  0  0  0  0  0  0
   15.8069  -15.0436   22.7351 N   0  0  0  0  0  0  0  0  0  0  0  0
   14.5241  -14.8664   22.1359 C   0  0  0  0  0  0  0  0  0  0  0  0
   14.4921  -14.5371   20.9481 O   0  0  0  0  0  0  0  0  0  0  0  0
   13.2776  -15.0838   22.9502 C   0  0  0  0  0  0  0  0  0  0  0  0
   13.1170  -16.5034   23.3548 C   0  0  0  0  0  0  0  0  0  0  0  0
   11.7004  -16.9989   23.4684 C   0  0  2  0  0  0  0  0  0  0  0  0
   10.8984  -16.8902   22.2888 N   0  0  0  0  0  0  0  0  0  0  0  0
   11.0978  -16.5330   24.7163 C   0  0  0  0  0  0  0  0  0  0  0  0
   11.8698  -16.5086   25.7274 O   0  0  0  0  0  0  0  0  0  0  0  0
    7.0363  -12.8124   25.0537 C   0  0  0  0  0  0  0  0  0  0  0  0
    7.6889  -13.6142   26.1489 C   0  0  2  0  0  0  0  0  0  0  0  0
    8.8748  -12.9408   26.7853 C   0  0  0  0  0  0  0  0  0  0  0  0
    7.8719  -15.0461   25.8529 C   0  0  0  0  0  0  0  0  0  0  0  0
    9.1530  -15.7029   26.1258 C   0  0  2  0  0  0  0  0  0  0  0  0
    9.7394  -16.1225   24.8412 N   0  0  0  0  0  0  0  0  0  0  0  0
    9.2220  -16.8032   27.0650 C   0  0  0  0  0  0  0  0  0  0  0  0
    9.0596  -18.1192   26.5900 O   0  0  0  0  0  0  0  0  0  0  0  0
    9.4162  -16.7541   28.3043 O   0  0  0  0  0  0  0  0  0  0  0  0
  2  1  1  1
  3  2  1  0
  3  4  1  0
  5  6  2  0
  5  4  1  0
  7  8  2  0
  7  2  1  0
  9  5  1  0
 10 11  1  0
 11 12  2  0
 11 13  1  0
 13 14  1  0
 15 14  1  6
 15 16  1  0
 16  7  1  0
 17 18  2  0
 17 15  1  0
 20 22  1  0
 20 19  1  6
 21 20  1  0
 23 24  1  0
 23 22  1  6
 24 17  1  0
 25 23  1  0
 26 25  1  0
 27 25  2  0
M  END
$$$$
