EQL.pdb
     RDKit          3D

 27 26  0  0  1  0  0  0  0  0999 V2000
    8.8230  -18.2830   20.3914 N   0  0  0  0  0  0  0  0  0  0  0  0
   10.2157  -17.8316   20.6826 C   0  0  1  0  0  0  0  0  0  0  0  0
   10.9599  -17.9004   19.3698 C   0  0  0  0  0  0  0  0  0  0  0  0
   10.1489  -18.2504   18.1773 C   0  0  0  0  0  0  0  0  0  0  0  0
   10.8868  -18.1496   16.9056 C   0  0  0  0  0  0  0  0  0  0  0  0
   11.8756  -18.8528   16.5977 O   0  0  0  0  0  0  0  0  0  0  0  0
   10.1065  -16.3848   21.0777 C   0  0  0  0  0  0  0  0  0  0  0  0
   11.1952  -15.7668   21.2601 O   0  0  0  0  0  0  0  0  0  0  0  0
   10.4452  -17.1894   15.9648 O   0  0  0  0  0  0  0  0  0  0  0  0
    7.4151  -15.1255   18.8926 N   0  0  0  0  0  0  0  0  0  0  0  0
    7.8068  -13.7681   18.6918 C   0  0  0  0  0  0  0  0  0  0  0  0
    8.0166  -13.4025   17.5331 O   0  0  0  0  0  0  0  0  0  0  0  0
    7.9467  -12.8439   19.8709 C   0  0  0  0  0  0  0  0  0  0  0  0
    7.6468  -13.5284   21.1540 C   0  0  0  0  0  0  0  0  0  0  0  0
    8.7719  -14.3307   21.7503 C   0  0  2  0  0  0  0  0  0  0  0  0
    8.9233  -15.6656   21.2586 N   0  0  0  0  0  0  0  0  0  0  0  0
    8.8047  -14.1589   23.2018 C   0  0  0  0  0  0  0  0  0  0  0  0
    9.2037  -13.0236   23.6150 O   0  0  0  0  0  0  0  0  0  0  0  0
    8.1281  -12.1209   26.7607 C   0  0  0  0  0  0  0  0  0  0  0  0
    7.0565  -12.8448   25.9887 C   0  0  2  0  0  0  0  0  0  0  0  0
    5.6644  -12.3260   26.2287 C   0  0  0  0  0  0  0  0  0  0  0  0
    7.1789  -14.3131   25.9738 C   0  0  0  0  0  0  0  0  0  0  0  0
    8.4419  -14.9491   25.5897 C   0  0  2  0  0  0  0  0  0  0  0  0
    8.4244  -15.1676   24.1329 N   0  0  0  0  0  0  0  0  0  0  0  0
    8.8769  -16.1625   26.2500 C   0  0  0  0  0  0  0  0  0  0  0  0
    9.3120  -17.2492   25.4667 O   0  0  0  0  0  0  0  0  0  0  0  0
    8.9265  -16.4002   27.4816 O   0  0  0  0  0  0  0  0  0  0  0  0
  2  1  1  6
  3  2  1  0
  3  4  1  0
  5  6  2  0
  5  4  1  0
  7  8  2  0
  7  2  1  0
  9  5  1  0
 10 11  1  0
 11 12  2  0
 11 13  1  0
 13 14  1  0
 15 14  1  1
 15 16  1  0
 16  7  1  0
 17 18  2  0
 17 15  1  0
 20 22  1  0
 20 19  1  1
 21 20  1  0
 23 24  1  0
 23 22  1  1
 24 17  1  0
 25 23  1  0
 26 25  1  0
 27 25  2  0
M  END
$$$$
