EQL.pdb
     RDKit          3D

 27 26  0  0  1  0  0  0  0  0999 V2000
    9.1267  -19.3448   21.0998 N   0  0  0  0  0  0  0  0  0  0  0  0
   10.4511  -18.7364   21.4225 C   0  0  1  0  0  0  0  0  0  0  0  0
   11.3177  -18.9520   20.2041 C   0  0  0  0  0  0  0  0  0  0  0  0
   11.5127  -20.3616   19.7831 C   0  0  0  0  0  0  0  0  0  0  0  0
   12.3946  -20.5162   18.6125 C   0  0  0  0  0  0  0  0  0  0  0  0
   11.9994  -20.7550   17.4489 O   0  0  0  0  0  0  0  0  0  0  0  0
   10.2044  -17.2594   21.5597 C   0  0  0  0  0  0  0  0  0  0  0  0
   11.2243  -16.5314   21.7339 O   0  0  0  0  0  0  0  0  0  0  0  0
   13.7883  -20.3843   18.8187 O   0  0  0  0  0  0  0  0  0  0  0  0
    7.8507  -13.1780   18.6799 N   0  0  0  0  0  0  0  0  0  0  0  0
    7.8408  -12.5532   19.9628 C   0  0  0  0  0  0  0  0  0  0  0  0
    8.3634  -11.4404   20.0570 O   0  0  0  0  0  0  0  0  0  0  0  0
    7.2061  -13.2521   21.1344 C   0  0  0  0  0  0  0  0  0  0  0  0
    7.4087  -14.7222   21.0826 C   0  0  0  0  0  0  0  0  0  0  0  0
    8.6788  -15.2336   21.7074 C   0  0  2  0  0  0  0  0  0  0  0  0
    8.9629  -16.6219   21.5109 N   0  0  0  0  0  0  0  0  0  0  0  0
    8.8161  -14.7227   23.0704 C   0  0  0  0  0  0  0  0  0  0  0  0
    9.1943  -13.5120   23.1712 O   0  0  0  0  0  0  0  0  0  0  0  0
    8.6170  -11.9786   26.2477 C   0  0  0  0  0  0  0  0  0  0  0  0
    7.4382  -12.7923   25.7823 C   0  0  2  0  0  0  0  0  0  0  0  0
    6.1004  -12.2000   26.1348 C   0  0  0  0  0  0  0  0  0  0  0  0
    7.5530  -14.2446   26.0039 C   0  0  0  0  0  0  0  0  0  0  0  0
    8.7639  -14.9639   25.5996 C   0  0  2  0  0  0  0  0  0  0  0  0
    8.5549  -15.4921   24.2404 N   0  0  0  0  0  0  0  0  0  0  0  0
    9.3046  -16.0109   26.4416 C   0  0  0  0  0  0  0  0  0  0  0  0
    9.7679  -15.6814   27.7302 O   0  0  0  0  0  0  0  0  0  0  0  0
    9.4265  -17.2323   26.1787 O   0  0  0  0  0  0  0  0  0  0  0  0
  2  1  1  6
  3  2  1  0
  3  4  1  0
  5  6  2  0
  5  4  1  0
  7  8  2  0
  7  2  1  0
  9  5  1  0
 10 11  1  0
 11 12  2  0
 11 13  1  0
 13 14  1  0
 15 14  1  1
 15 16  1  0
 16  7  1  0
 17 18  2  0
 17 15  1  0
 20 22  1  0
 20 19  1  1
 21 20  1  0
 23 24  1  0
 23 22  1  1
 24 17  1  0
 25 23  1  0
 26 25  1  0
 27 25  2  0
M  END
$$$$
