FIG.pdb
     RDKit          3D

 24 24  0  0  1  0  0  0  0  0999 V2000
    7.3200  -18.9516   27.1035 N   0  0  0  0  0  0  0  0  0  0  0  0
    7.8113  -17.5756   27.2938 C   0  0  1  0  0  0  0  0  0  0  0  0
    9.1938  -17.5969   27.8495 C   0  0  0  0  0  0  0  0  0  0  0  0
    9.6769  -16.3567   28.4217 C   0  0  0  0  0  0  0  0  0  0  0  0
    9.8019  -16.2218   29.7846 C   0  0  0  0  0  0  0  0  0  0  0  0
   10.2580  -15.0546   30.3755 C   0  0  0  0  0  0  0  0  0  0  0  0
   10.5970  -13.9975   29.5816 C   0  0  0  0  0  0  0  0  0  0  0  0
   10.4879  -14.0899   28.2250 C   0  0  0  0  0  0  0  0  0  0  0  0
   10.0269  -15.2726   27.6499 C   0  0  0  0  0  0  0  0  0  0  0  0
    7.6272  -16.8447   26.0434 C   0  0  0  0  0  0  0  0  0  0  0  0
    7.3906  -17.4548   24.9526 O   0  0  0  0  0  0  0  0  0  0  0  0
    5.8031  -11.6343   26.3212 C   0  0  0  0  0  0  0  0  0  0  0  0
    5.8761  -13.0080   25.7404 C   0  0  0  0  0  0  0  0  0  0  0  0
    7.2031  -13.2592   25.0359 C   0  0  2  0  0  0  0  0  0  0  0  0
    7.2111  -12.4403   23.7774 C   0  0  0  0  0  0  0  0  0  0  0  0
    7.3454  -14.7396   24.6887 C   0  0  2  0  0  0  0  0  0  0  0  0
    7.6907  -15.4152   25.9206 N   0  0  0  0  0  0  0  0  0  0  0  0
    8.3155  -14.9642   23.6155 C   0  0  0  0  0  0  0  0  0  0  0  0
    8.0543  -14.6329   22.4259 O   0  0  0  0  0  0  0  0  0  0  0  0
    9.5968  -15.5582   23.8219 N   0  0  0  0  0  0  0  0  0  0  0  0
   10.5752  -15.7060   22.7886 C   0  0  0  0  0  0  0  0  0  0  0  0
   11.8719  -16.1898   23.2558 C   0  0  0  0  0  0  0  0  0  0  0  0
   12.0030  -16.6164   24.4223 O   0  0  0  0  0  0  0  0  0  0  0  0
   12.9710  -16.1853   22.4233 O   0  0  0  0  0  0  0  0  0  0  0  0
  2 10  1  0
  2  1  1  6
  3  2  1  0
  4  5  2  0
  4  3  1  0
  6  5  1  0
  7  6  2  0
  8  7  1  0
  8  9  2  0
  9  4  1  0
 10 11  2  0
 12 13  1  0
 14 15  1  6
 14 13  1  0
 16 14  1  0
 16 17  1  1
 17 10  1  0
 18 16  1  0
 19 18  2  0
 20 18  1  0
 21 20  1  0
 22 24  1  0
 22 21  1  0
 23 22  2  0
M  END
$$$$
