FIG.pdb
     RDKit          3D

 24 24  0  0  1  0  0  0  0  0999 V2000
    6.2696  -18.0510   25.5424 N   0  0  0  0  0  0  0  0  0  0  0  0
    6.5146  -16.6112   25.3477 C   0  0  1  0  0  0  0  0  0  0  0  0
    7.0901  -16.0168   26.5871 C   0  0  0  0  0  0  0  0  0  0  0  0
    7.2151  -14.5736   26.6110 C   0  0  0  0  0  0  0  0  0  0  0  0
    6.0982  -13.7771   26.5135 C   0  0  0  0  0  0  0  0  0  0  0  0
    6.1704  -12.3937   26.5306 C   0  0  0  0  0  0  0  0  0  0  0  0
    7.3908  -11.7941   26.6483 C   0  0  0  0  0  0  0  0  0  0  0  0
    8.5235  -12.5477   26.7477 C   0  0  0  0  0  0  0  0  0  0  0  0
    8.4299  -13.9380   26.7285 C   0  0  0  0  0  0  0  0  0  0  0  0
    7.2933  -16.4387   24.1249 C   0  0  0  0  0  0  0  0  0  0  0  0
    8.0975  -17.3388   23.7235 O   0  0  0  0  0  0  0  0  0  0  0  0
    7.6163  -12.5949   19.2207 C   0  0  0  0  0  0  0  0  0  0  0  0
    8.0074  -13.8632   19.9049 C   0  0  0  0  0  0  0  0  0  0  0  0
    7.4090  -13.9650   21.3020 C   0  0  2  0  0  0  0  0  0  0  0  0
    7.8623  -12.7628   22.0788 C   0  0  0  0  0  0  0  0  0  0  0  0
    7.8933  -15.2380   21.9930 C   0  0  2  0  0  0  0  0  0  0  0  0
    7.2331  -15.2790   23.2797 N   0  0  0  0  0  0  0  0  0  0  0  0
    9.3530  -15.2917   22.0911 C   0  0  0  0  0  0  0  0  0  0  0  0
   10.0664  -15.4493   21.0617 O   0  0  0  0  0  0  0  0  0  0  0  0
   10.0658  -15.1738   23.3219 N   0  0  0  0  0  0  0  0  0  0  0  0
   11.4914  -15.0864   23.4044 C   0  0  0  0  0  0  0  0  0  0  0  0
   12.1764  -16.3742   23.3260 C   0  0  0  0  0  0  0  0  0  0  0  0
   12.5258  -16.9672   24.3682 O   0  0  0  0  0  0  0  0  0  0  0  0
   12.4495  -16.9577   22.1070 O   0  0  0  0  0  0  0  0  0  0  0  0
  2 10  1  0
  2  1  1  1
  3  2  1  0
  4  5  2  0
  4  3  1  0
  6  5  1  0
  7  6  2  0
  8  7  1  0
  8  9  2  0
  9  4  1  0
 10 11  2  0
 12 13  1  0
 14 15  1  1
 14 13  1  0
 16 14  1  0
 16 17  1  1
 17 10  1  0
 18 16  1  0
 19 18  2  0
 20 18  1  0
 21 20  1  0
 22 24  1  0
 22 21  1  0
 23 22  2  0
M  END
$$$$
