FIG.pdb
     RDKit          3D

 24 24  0  0  1  0  0  0  0  0999 V2000
    6.8729  -16.7227   22.7904 N   0  0  0  0  0  0  0  0  0  0  0  0
    8.3277  -16.6509   22.5687 C   0  0  1  0  0  0  0  0  0  0  0  0
    8.6129  -16.2099   21.1742 C   0  0  0  0  0  0  0  0  0  0  0  0
    8.0723  -14.9240   20.7824 C   0  0  0  0  0  0  0  0  0  0  0  0
    8.2991  -14.4300   19.5192 C   0  0  0  0  0  0  0  0  0  0  0  0
    7.8032  -13.2056   19.1018 C   0  0  0  0  0  0  0  0  0  0  0  0
    7.0624  -12.4584   19.9710 C   0  0  0  0  0  0  0  0  0  0  0  0
    6.8142  -12.9120   21.2334 C   0  0  0  0  0  0  0  0  0  0  0  0
    7.3219  -14.1463   21.6341 C   0  0  0  0  0  0  0  0  0  0  0  0
    8.9162  -15.8464   23.6355 C   0  0  0  0  0  0  0  0  0  0  0  0
   10.1446  -15.5169   23.6107 O   0  0  0  0  0  0  0  0  0  0  0  0
    5.9511  -11.9947   26.0740 C   0  0  0  0  0  0  0  0  0  0  0  0
    7.1361  -12.6971   25.4977 C   0  0  0  0  0  0  0  0  0  0  0  0
    7.6995  -13.7416   26.4525 C   0  0  2  0  0  0  0  0  0  0  0  0
    8.2357  -13.0169   27.6532 C   0  0  0  0  0  0  0  0  0  0  0  0
    8.8246  -14.5231   25.7771 C   0  0  2  0  0  0  0  0  0  0  0  0
    8.1959  -15.3611   24.7793 N   0  0  0  0  0  0  0  0  0  0  0  0
    9.6288  -15.2769   26.7406 C   0  0  0  0  0  0  0  0  0  0  0  0
   10.4008  -14.6844   27.5445 O   0  0  0  0  0  0  0  0  0  0  0  0
    9.6054  -16.7001   26.8453 N   0  0  0  0  0  0  0  0  0  0  0  0
   10.3665  -17.4343   27.8088 C   0  0  0  0  0  0  0  0  0  0  0  0
   10.0783  -18.8661   27.8354 C   0  0  0  0  0  0  0  0  0  0  0  0
    9.3287  -19.3746   26.9755 O   0  0  0  0  0  0  0  0  0  0  0  0
   10.6248  -19.6804   28.8046 O   0  0  0  0  0  0  0  0  0  0  0  0
  2 10  1  0
  2  1  1  1
  3  2  1  0
  4  5  2  0
  4  3  1  0
  6  5  1  0
  7  6  2  0
  8  7  1  0
  8  9  2  0
  9  4  1  0
 10 11  2  0
 12 13  1  0
 14 15  1  1
 14 13  1  0
 16 14  1  0
 16 17  1  6
 17 10  1  0
 18 16  1  0
 19 18  2  0
 20 18  1  0
 21 20  1  0
 22 24  1  0
 22 21  1  0
 23 22  2  0
M  END
$$$$
