FIG.pdb
     RDKit          3D

 24 24  0  0  1  0  0  0  0  0999 V2000
    7.0495  -17.7651   22.1223 N   0  0  0  0  0  0  0  0  0  0  0  0
    6.7138  -17.5497   23.5407 C   0  0  1  0  0  0  0  0  0  0  0  0
    6.7044  -18.8498   24.2687 C   0  0  0  0  0  0  0  0  0  0  0  0
    5.8445  -19.8836   23.7292 C   0  0  0  0  0  0  0  0  0  0  0  0
    4.4783  -19.7869   23.8539 C   0  0  0  0  0  0  0  0  0  0  0  0
    3.6182  -20.7515   23.3549 C   0  0  0  0  0  0  0  0  0  0  0  0
    4.1394  -21.8389   22.7158 C   0  0  0  0  0  0  0  0  0  0  0  0
    5.4892  -21.9732   22.5708 C   0  0  0  0  0  0  0  0  0  0  0  0
    6.3377  -20.9919   23.0798 C   0  0  0  0  0  0  0  0  0  0  0  0
    7.5993  -16.5170   24.0709 C   0  0  0  0  0  0  0  0  0  0  0  0
    8.7155  -16.2592   23.5181 O   0  0  0  0  0  0  0  0  0  0  0  0
    5.5072  -12.2471   26.4136 C   0  0  0  0  0  0  0  0  0  0  0  0
    6.5825  -12.9565   25.6585 C   0  0  0  0  0  0  0  0  0  0  0  0
    7.4884  -13.7635   26.5796 C   0  0  2  0  0  0  0  0  0  0  0  0
    8.4317  -12.8029   27.2442 C   0  0  0  0  0  0  0  0  0  0  0  0
    8.2812  -14.7908   25.7742 C   0  0  2  0  0  0  0  0  0  0  0  0
    7.3118  -15.7150   25.2271 N   0  0  0  0  0  0  0  0  0  0  0  0
    9.3134  -15.4462   26.5793 C   0  0  0  0  0  0  0  0  0  0  0  0
   10.3406  -14.8155   26.9543 O   0  0  0  0  0  0  0  0  0  0  0  0
    9.2435  -16.8104   26.9928 N   0  0  0  0  0  0  0  0  0  0  0  0
   10.2194  -17.4323   27.8341 C   0  0  0  0  0  0  0  0  0  0  0  0
   11.3300  -18.0467   27.1109 C   0  0  0  0  0  0  0  0  0  0  0  0
   12.0609  -17.3546   26.3714 O   0  0  0  0  0  0  0  0  0  0  0  0
   11.5923  -19.3951   27.2293 O   0  0  0  0  0  0  0  0  0  0  0  0
  2 10  1  0
  2  1  1  6
  3  2  1  0
  4  5  2  0
  4  3  1  0
  6  5  1  0
  7  6  2  0
  8  7  1  0
  8  9  2  0
  9  4  1  0
 10 11  2  0
 12 13  1  0
 14 15  1  6
 14 13  1  0
 16 14  1  0
 16 17  1  1
 17 10  1  0
 18 16  1  0
 19 18  2  0
 20 18  1  0
 21 20  1  0
 22 24  1  0
 22 21  1  0
 23 22  2  0
M  END
$$$$
