FIG.pdb
     RDKit          3D

 24 24  0  0  1  0  0  0  0  0999 V2000
    5.7484  -17.8878   25.6218 N   0  0  0  0  0  0  0  0  0  0  0  0
    6.3006  -16.5320   25.4554 C   0  0  1  0  0  0  0  0  0  0  0  0
    6.7158  -15.9816   26.7765 C   0  0  0  0  0  0  0  0  0  0  0  0
    7.0306  -14.5680   26.8149 C   0  0  0  0  0  0  0  0  0  0  0  0
    6.0263  -13.6301   26.7604 C   0  0  0  0  0  0  0  0  0  0  0  0
    6.2806  -12.2686   26.7929 C   0  0  0  0  0  0  0  0  0  0  0  0
    7.5722  -11.8367   26.8821 C   0  0  0  0  0  0  0  0  0  0  0  0
    8.5980  -12.7342   26.9385 C   0  0  0  0  0  0  0  0  0  0  0  0
    8.3214  -14.0996   26.9045 C   0  0  0  0  0  0  0  0  0  0  0  0
    7.3296  -16.5784   24.4208 C   0  0  0  0  0  0  0  0  0  0  0  0
    8.0465  -17.6154   24.2510 O   0  0  0  0  0  0  0  0  0  0  0  0
    6.6699  -13.3329   20.1764 C   0  0  0  0  0  0  0  0  0  0  0  0
    6.9881  -14.4958   21.0572 C   0  0  0  0  0  0  0  0  0  0  0  0
    8.4358  -14.4728   21.5308 C   0  0  2  0  0  0  0  0  0  0  0  0
    9.3105  -14.6692   20.3263 C   0  0  0  0  0  0  0  0  0  0  0  0
    8.6813  -15.5968   22.5352 C   0  0  2  0  0  0  0  0  0  0  0  0
    7.6269  -15.4992   23.5210 N   0  0  0  0  0  0  0  0  0  0  0  0
   10.0233  -15.5338   23.1170 C   0  0  0  0  0  0  0  0  0  0  0  0
   10.4036  -14.5167   23.7606 O   0  0  0  0  0  0  0  0  0  0  0  0
   10.9812  -16.5860   23.0065 N   0  0  0  0  0  0  0  0  0  0  0  0
   12.2708  -16.5490   23.6248 C   0  0  0  0  0  0  0  0  0  0  0  0
   13.3439  -16.0906   22.7459 C   0  0  0  0  0  0  0  0  0  0  0  0
   13.1112  -15.8387   21.5449 O   0  0  0  0  0  0  0  0  0  0  0  0
   14.6277  -15.9278   23.2216 O   0  0  0  0  0  0  0  0  0  0  0  0
  2 10  1  0
  2  1  1  1
  3  2  1  0
  4  5  2  0
  4  3  1  0
  6  5  1  0
  7  6  2  0
  8  7  1  0
  8  9  2  0
  9  4  1  0
 10 11  2  0
 12 13  1  0
 14 15  1  6
 14 13  1  0
 16 14  1  0
 16 17  1  1
 17 10  1  0
 18 16  1  0
 19 18  2  0
 20 18  1  0
 21 20  1  0
 22 24  1  0
 22 21  1  0
 23 22  2  0
M  END
$$$$
