FIG.pdb
     RDKit          3D

 24 24  0  0  1  0  0  0  0  0999 V2000
    7.6397  -18.9791   26.9791 N   0  0  0  0  0  0  0  0  0  0  0  0
    8.0196  -17.5731   27.2021 C   0  0  1  0  0  0  0  0  0  0  0  0
    9.4123  -17.4952   27.7264 C   0  0  0  0  0  0  0  0  0  0  0  0
    9.8163  -16.2251   28.2944 C   0  0  0  0  0  0  0  0  0  0  0  0
    9.8939  -16.0664   29.6583 C   0  0  0  0  0  0  0  0  0  0  0  0
   10.2741  -14.8704   30.2451 C   0  0  0  0  0  0  0  0  0  0  0  0
   10.5839  -13.8081   29.4462 C   0  0  0  0  0  0  0  0  0  0  0  0
   10.5198  -13.9235   28.0885 C   0  0  0  0  0  0  0  0  0  0  0  0
   10.1351  -15.1351   27.5175 C   0  0  0  0  0  0  0  0  0  0  0  0
    7.7450  -16.8233   25.9798 C   0  0  0  0  0  0  0  0  0  0  0  0
    7.4926  -17.4188   24.8844 O   0  0  0  0  0  0  0  0  0  0  0  0
    5.9046  -11.7076   26.5042 C   0  0  0  0  0  0  0  0  0  0  0  0
    5.9115  -12.9999   25.7563 C   0  0  0  0  0  0  0  0  0  0  0  0
    7.2290  -13.2291   25.0266 C   0  0  2  0  0  0  0  0  0  0  0  0
    7.2046  -12.4006   23.7747 C   0  0  0  0  0  0  0  0  0  0  0  0
    7.3834  -14.7049   24.6653 C   0  0  2  0  0  0  0  0  0  0  0  0
    7.7306  -15.3899   25.8915 N   0  0  0  0  0  0  0  0  0  0  0  0
    8.3580  -14.9116   23.5926 C   0  0  0  0  0  0  0  0  0  0  0  0
    8.0601  -14.6677   22.3905 O   0  0  0  0  0  0  0  0  0  0  0  0
    9.6840  -15.3912   23.8131 N   0  0  0  0  0  0  0  0  0  0  0  0
   10.6885  -15.4341   22.7953 C   0  0  0  0  0  0  0  0  0  0  0  0
   10.9329  -16.7671   22.2502 C   0  0  0  0  0  0  0  0  0  0  0  0
   10.2621  -17.7433   22.6465 O   0  0  0  0  0  0  0  0  0  0  0  0
   11.9035  -16.9735   21.2929 O   0  0  0  0  0  0  0  0  0  0  0  0
  2 10  1  0
  2  1  1  6
  3  2  1  0
  4  5  2  0
  4  3  1  0
  6  5  1  0
  7  6  2  0
  8  7  1  0
  8  9  2  0
  9  4  1  0
 10 11  2  0
 12 13  1  0
 14 15  1  6
 14 13  1  0
 16 14  1  0
 16 17  1  1
 17 10  1  0
 18 16  1  0
 19 18  2  0
 20 18  1  0
 21 20  1  0
 22 24  1  0
 22 21  1  0
 23 22  2  0
M  END
$$$$
