FIG.pdb
     RDKit          3D

 24 24  0  0  1  0  0  0  0  0999 V2000
    7.3839  -19.1440   26.9772 N   0  0  0  0  0  0  0  0  0  0  0  0
    7.8629  -17.7878   27.2971 C   0  0  1  0  0  0  0  0  0  0  0  0
    9.1498  -17.8614   28.0448 C   0  0  0  0  0  0  0  0  0  0  0  0
    9.6463  -16.6169   28.5959 C   0  0  0  0  0  0  0  0  0  0  0  0
   10.3534  -15.7401   27.8069 C   0  0  0  0  0  0  0  0  0  0  0  0
   10.8479  -14.5401   28.2913 C   0  0  0  0  0  0  0  0  0  0  0  0
   10.6287  -14.2108   29.5975 C   0  0  0  0  0  0  0  0  0  0  0  0
    9.9319  -15.0527   30.4141 C   0  0  0  0  0  0  0  0  0  0  0  0
    9.4427  -16.2552   29.9078 C   0  0  0  0  0  0  0  0  0  0  0  0
    7.8729  -17.0017   26.0669 C   0  0  0  0  0  0  0  0  0  0  0  0
    7.8648  -17.5640   24.9259 O   0  0  0  0  0  0  0  0  0  0  0  0
    5.9823  -11.9703   26.5476 C   0  0  0  0  0  0  0  0  0  0  0  0
    6.1695  -13.3071   25.9093 C   0  0  0  0  0  0  0  0  0  0  0  0
    7.4811  -13.3924   25.1393 C   0  0  2  0  0  0  0  0  0  0  0  0
    7.3282  -12.5736   23.8901 C   0  0  0  0  0  0  0  0  0  0  0  0
    7.7844  -14.8432   24.7709 C   0  0  2  0  0  0  0  0  0  0  0  0
    7.8908  -15.5664   26.0195 N   0  0  0  0  0  0  0  0  0  0  0  0
    8.9780  -14.9616   23.9316 C   0  0  0  0  0  0  0  0  0  0  0  0
   10.1066  -14.5845   24.3528 O   0  0  0  0  0  0  0  0  0  0  0  0
    8.9621  -15.4972   22.6087 N   0  0  0  0  0  0  0  0  0  0  0  0
   10.0965  -15.4841   21.7371 C   0  0  0  0  0  0  0  0  0  0  0  0
   11.0740  -16.5348   22.0096 C   0  0  0  0  0  0  0  0  0  0  0  0
   11.5780  -16.6477   23.1468 O   0  0  0  0  0  0  0  0  0  0  0  0
   11.4578  -17.4180   21.0228 O   0  0  0  0  0  0  0  0  0  0  0  0
  2 10  1  0
  2  1  1  6
  3  2  1  0
  4  5  2  0
  4  3  1  0
  6  5  1  0
  7  6  2  0
  8  7  1  0
  8  9  2  0
  9  4  1  0
 10 11  2  0
 12 13  1  0
 14 15  1  6
 14 13  1  0
 16 14  1  0
 16 17  1  1
 17 10  1  0
 18 16  1  0
 19 18  2  0
 20 18  1  0
 21 20  1  0
 22 24  1  0
 22 21  1  0
 23 22  2  0
M  END
$$$$
