FIG.pdb
     RDKit          3D

 24 24  0  0  1  0  0  0  0  0999 V2000
    5.5774  -17.9057   25.2169 N   0  0  0  0  0  0  0  0  0  0  0  0
    6.1762  -16.5615   25.1445 C   0  0  1  0  0  0  0  0  0  0  0  0
    6.5485  -16.0917   26.5088 C   0  0  0  0  0  0  0  0  0  0  0  0
    6.8232  -14.6762   26.6497 C   0  0  0  0  0  0  0  0  0  0  0  0
    8.1102  -14.2338   26.8473 C   0  0  0  0  0  0  0  0  0  0  0  0
    8.4192  -12.8907   26.9884 C   0  0  0  0  0  0  0  0  0  0  0  0
    7.4144  -11.9689   26.9302 C   0  0  0  0  0  0  0  0  0  0  0  0
    6.1238  -12.3658   26.7356 C   0  0  0  0  0  0  0  0  0  0  0  0
    5.8336  -13.7216   26.5959 C   0  0  0  0  0  0  0  0  0  0  0  0
    7.2484  -16.5885   24.1540 C   0  0  0  0  0  0  0  0  0  0  0  0
    7.9430  -17.6371   23.9637 O   0  0  0  0  0  0  0  0  0  0  0  0
    6.8050  -13.1037   20.1207 C   0  0  0  0  0  0  0  0  0  0  0  0
    7.1082  -14.3760   20.8412 C   0  0  0  0  0  0  0  0  0  0  0  0
    8.5214  -14.3862   21.4096 C   0  0  2  0  0  0  0  0  0  0  0  0
    9.4735  -14.5232   20.2567 C   0  0  0  0  0  0  0  0  0  0  0  0
    8.6978  -15.5633   22.3666 C   0  0  2  0  0  0  0  0  0  0  0  0
    7.6152  -15.4764   23.3225 N   0  0  0  0  0  0  0  0  0  0  0  0
   10.0212  -15.5725   22.9924 C   0  0  0  0  0  0  0  0  0  0  0  0
   10.3636  -14.6630   23.7979 O   0  0  0  0  0  0  0  0  0  0  0  0
   11.0018  -16.5807   22.7493 N   0  0  0  0  0  0  0  0  0  0  0  0
   12.2929  -16.5925   23.3654 C   0  0  0  0  0  0  0  0  0  0  0  0
   13.3631  -16.0619   22.5246 C   0  0  0  0  0  0  0  0  0  0  0  0
   13.2212  -16.0037   21.2850 O   0  0  0  0  0  0  0  0  0  0  0  0
   14.5447  -15.6172   23.0790 O   0  0  0  0  0  0  0  0  0  0  0  0
  2 10  1  0
  2  1  1  1
  3  2  1  0
  4  5  2  0
  4  3  1  0
  6  5  1  0
  7  6  2  0
  8  7  1  0
  8  9  2  0
  9  4  1  0
 10 11  2  0
 12 13  1  0
 14 15  1  6
 14 13  1  0
 16 14  1  0
 16 17  1  1
 17 10  1  0
 18 16  1  0
 19 18  2  0
 20 18  1  0
 21 20  1  0
 22 24  1  0
 22 21  1  0
 23 22  2  0
M  END
$$$$
