FIG.pdb
     RDKit          3D

 24 24  0  0  1  0  0  0  0  0999 V2000
    6.1763  -18.1760   25.2628 N   0  0  0  0  0  0  0  0  0  0  0  0
    6.4723  -16.7393   25.1241 C   0  0  1  0  0  0  0  0  0  0  0  0
    6.8161  -16.1559   26.4516 C   0  0  0  0  0  0  0  0  0  0  0  0
    6.8264  -14.7096   26.5361 C   0  0  0  0  0  0  0  0  0  0  0  0
    8.0094  -14.0321   26.7172 C   0  0  0  0  0  0  0  0  0  0  0  0
    8.0667  -12.6506   26.8049 C   0  0  0  0  0  0  0  0  0  0  0  0
    6.9110  -11.9310   26.7087 C   0  0  0  0  0  0  0  0  0  0  0  0
    5.7163  -12.5644   26.5287 C   0  0  0  0  0  0  0  0  0  0  0  0
    5.6797  -13.9548   26.4430 C   0  0  0  0  0  0  0  0  0  0  0  0
    7.4662  -16.5746   24.0675 C   0  0  0  0  0  0  0  0  0  0  0  0
    8.1398  -17.5640   23.6368 O   0  0  0  0  0  0  0  0  0  0  0  0
    6.3003  -12.7152   20.4357 C   0  0  0  0  0  0  0  0  0  0  0  0
    6.7518  -14.0213   21.0014 C   0  0  0  0  0  0  0  0  0  0  0  0
    8.1799  -13.9516   21.5268 C   0  0  2  0  0  0  0  0  0  0  0  0
    9.0848  -13.7165   20.3519 C   0  0  0  0  0  0  0  0  0  0  0  0
    8.5555  -15.2636   22.2124 C   0  0  2  0  0  0  0  0  0  0  0  0
    7.7738  -15.3258   23.4282 N   0  0  0  0  0  0  0  0  0  0  0  0
    9.9967  -15.3714   22.4465 C   0  0  0  0  0  0  0  0  0  0  0  0
   10.8078  -15.4255   21.4809 O   0  0  0  0  0  0  0  0  0  0  0  0
   10.5830  -15.4223   23.7467 N   0  0  0  0  0  0  0  0  0  0  0  0
   11.9949  -15.4496   23.9765 C   0  0  0  0  0  0  0  0  0  0  0  0
   12.6130  -16.7546   23.7555 C   0  0  0  0  0  0  0  0  0  0  0  0
   11.9300  -17.7133   23.3379 O   0  0  0  0  0  0  0  0  0  0  0  0
   13.9550  -16.9532   24.0019 O   0  0  0  0  0  0  0  0  0  0  0  0
  2 10  1  0
  2  1  1  1
  3  2  1  0
  4  5  2  0
  4  3  1  0
  6  5  1  0
  7  6  2  0
  8  7  1  0
  8  9  2  0
  9  4  1  0
 10 11  2  0
 12 13  1  0
 14 15  1  6
 14 13  1  0
 16 14  1  0
 16 17  1  1
 17 10  1  0
 18 16  1  0
 19 18  2  0
 20 18  1  0
 21 20  1  0
 22 24  1  0
 22 21  1  0
 23 22  2  0
M  END
$$$$
