FIG.pdb
     RDKit          3D

 24 24  0  0  1  0  0  0  0  0999 V2000
    6.7860  -16.1905   26.1091 N   0  0  0  0  0  0  0  0  0  0  0  0
    7.3411  -15.1456   25.2311 C   0  0  1  0  0  0  0  0  0  0  0  0
    8.0922  -14.1432   26.0383 C   0  0  0  0  0  0  0  0  0  0  0  0
    7.2958  -13.1946   26.7900 C   0  0  0  0  0  0  0  0  0  0  0  0
    6.2463  -12.5385   26.1904 C   0  0  0  0  0  0  0  0  0  0  0  0
    5.4591  -11.6229   26.8697 C   0  0  0  0  0  0  0  0  0  0  0  0
    5.7299  -11.3587   28.1810 C   0  0  0  0  0  0  0  0  0  0  0  0
    6.7619  -11.9881   28.8133 C   0  0  0  0  0  0  0  0  0  0  0  0
    7.5422  -12.9058   28.1125 C   0  0  0  0  0  0  0  0  0  0  0  0
    8.0818  -15.7959   24.1541 C   0  0  0  0  0  0  0  0  0  0  0  0
    8.4615  -17.0059   24.2530 O   0  0  0  0  0  0  0  0  0  0  0  0
    7.3376  -13.8734   19.4462 C   0  0  0  0  0  0  0  0  0  0  0  0
    7.6867  -15.0437   20.3055 C   0  0  0  0  0  0  0  0  0  0  0  0
    9.1698  -15.0742   20.6518 C   0  0  2  0  0  0  0  0  0  0  0  0
    9.8726  -15.8436   19.5709 C   0  0  0  0  0  0  0  0  0  0  0  0
    9.3842  -15.7631   21.9979 C   0  0  2  0  0  0  0  0  0  0  0  0
    8.4436  -15.1610   22.9177 N   0  0  0  0  0  0  0  0  0  0  0  0
   10.7735  -15.6709   22.4502 C   0  0  0  0  0  0  0  0  0  0  0  0
   11.3219  -14.5490   22.6347 O   0  0  0  0  0  0  0  0  0  0  0  0
   11.5954  -16.8082   22.7110 N   0  0  0  0  0  0  0  0  0  0  0  0
   12.9468  -16.7178   23.1718 C   0  0  0  0  0  0  0  0  0  0  0  0
   13.9242  -17.3519   22.2905 C   0  0  0  0  0  0  0  0  0  0  0  0
   15.1371  -17.3490   22.5883 O   0  0  0  0  0  0  0  0  0  0  0  0
   13.5297  -17.9628   21.1191 O   0  0  0  0  0  0  0  0  0  0  0  0
  2 10  1  0
  2  1  1  1
  3  2  1  0
  4  5  2  0
  4  3  1  0
  6  5  1  0
  7  6  2  0
  8  7  1  0
  8  9  2  0
  9  4  1  0
 10 11  2  0
 12 13  1  0
 14 15  1  6
 14 13  1  0
 16 14  1  0
 16 17  1  1
 17 10  1  0
 18 16  1  0
 19 18  2  0
 20 18  1  0
 21 20  1  0
 22 24  1  0
 22 21  1  0
 23 22  2  0
M  END
$$$$
