FIG.pdb
     RDKit          3D

 24 24  0  0  1  0  0  0  0  0999 V2000
    8.9325  -18.3931   16.7483 N   0  0  0  0  0  0  0  0  0  0  0  0
    8.1157  -18.2597   17.9673 C   0  0  1  0  0  0  0  0  0  0  0  0
    7.8422  -19.6033   18.5509 C   0  0  0  0  0  0  0  0  0  0  0  0
    7.1170  -20.5347   17.7109 C   0  0  0  0  0  0  0  0  0  0  0  0
    7.7895  -21.5087   17.0108 C   0  0  0  0  0  0  0  0  0  0  0  0
    7.1377  -22.4193   16.1950 C   0  0  0  0  0  0  0  0  0  0  0  0
    5.7796  -22.3522   16.0782 C   0  0  0  0  0  0  0  0  0  0  0  0
    5.0745  -21.4011   16.7559 C   0  0  0  0  0  0  0  0  0  0  0  0
    5.7487  -20.4942   17.5714 C   0  0  0  0  0  0  0  0  0  0  0  0
    8.7596  -17.2899   18.8484 C   0  0  0  0  0  0  0  0  0  0  0  0
   10.0263  -17.1839   18.8973 O   0  0  0  0  0  0  0  0  0  0  0  0
    6.4398  -12.5456   19.7358 C   0  0  0  0  0  0  0  0  0  0  0  0
    7.4818  -13.5995   19.5536 C   0  0  0  0  0  0  0  0  0  0  0  0
    7.8034  -14.3147   20.8595 C   0  0  2  0  0  0  0  0  0  0  0  0
    8.4582  -13.3191   21.7730 C   0  0  0  0  0  0  0  0  0  0  0  0
    8.7543  -15.4820   20.6027 C   0  0  2  0  0  0  0  0  0  0  0  0
    8.0560  -16.3884   19.7173 N   0  0  0  0  0  0  0  0  0  0  0  0
    9.1981  -16.1161   21.8453 C   0  0  0  0  0  0  0  0  0  0  0  0
    8.3944  -16.7801   22.5571 O   0  0  0  0  0  0  0  0  0  0  0  0
   10.5355  -16.0371   22.3374 N   0  0  0  0  0  0  0  0  0  0  0  0
   10.9749  -16.6779   23.5387 C   0  0  0  0  0  0  0  0  0  0  0  0
   12.3835  -16.4559   23.8557 C   0  0  0  0  0  0  0  0  0  0  0  0
   13.1481  -15.9479   23.0088 O   0  0  0  0  0  0  0  0  0  0  0  0
   12.8945  -16.8008   25.0890 O   0  0  0  0  0  0  0  0  0  0  0  0
  2 10  1  0
  2  1  1  6
  3  2  1  0
  4  5  2  0
  4  3  1  0
  6  5  1  0
  7  6  2  0
  8  7  1  0
  8  9  2  0
  9  4  1  0
 10 11  2  0
 12 13  1  0
 14 15  1  1
 14 13  1  0
 16 14  1  0
 16 17  1  6
 17 10  1  0
 18 16  1  0
 19 18  2  0
 20 18  1  0
 21 20  1  0
 22 24  1  0
 22 21  1  0
 23 22  2  0
M  END
$$$$
