VNH.pdb
     RDKit          3D

 26 26  0  0  1  0  0  0  0  0999 V2000
   14.5882  -13.8649  -16.7135 C   0  0  0  0  0  0  0  0  0  0  0  0
   15.5939  -12.9310  -17.3579 C   0  0  1  0  0  0  0  0  0  0  0  0
   14.9093  -11.6157  -17.6544 C   0  0  0  0  0  0  0  0  0  0  0  0
   16.7731  -12.6633  -16.4898 C   0  0  2  0  0  0  0  0  0  0  0  0
   16.3323  -12.3876  -15.1530 N   0  0  0  0  0  0  0  0  0  0  0  0
   17.7033  -11.6564  -17.0318 C   0  0  0  0  0  0  0  0  0  0  0  0
   18.3256  -11.9442  -18.0849 O   0  0  0  0  0  0  0  0  0  0  0  0
   16.0815   -7.0825  -17.4740 N   0  0  0  0  0  0  0  0  0  0  0  0
   17.3093   -7.6917  -17.8553 C   0  0  0  0  0  0  0  0  0  0  0  0
   17.5145   -7.9354  -19.0482 O   0  0  0  0  0  0  0  0  0  0  0  0
   18.2941   -8.0114  -16.8173 C   0  0  0  0  0  0  0  0  0  0  0  0
   18.8755   -9.3992  -16.9394 C   0  0  2  0  0  0  0  0  0  0  0  0
   17.9462  -10.3955  -16.4565 N   0  0  0  0  0  0  0  0  0  0  0  0
   20.1828   -9.4760  -16.2543 C   0  0  0  0  0  0  0  0  0  0  0  0
   20.2263   -9.5302  -15.0056 O   0  0  0  0  0  0  0  0  0  0  0  0
   21.4078   -9.4910  -16.9642 N   0  0  0  0  0  0  0  0  0  0  0  0
   22.7045   -9.6493  -16.2755 C   0  0  1  0  0  0  0  0  0  0  0  0
   23.6805  -10.2963  -17.2042 C   0  0  0  0  0  0  0  0  0  0  0  0
   24.9941  -10.4177  -16.5589 C   0  0  0  0  0  0  0  0  0  0  0  0
   25.2071  -10.8989  -15.2819 C   0  0  0  0  0  0  0  0  0  0  0  0
   26.5135  -10.8813  -14.9898 N   0  0  0  0  0  0  0  0  0  0  0  0
   27.1181  -10.3866  -16.0903 C   0  0  0  0  0  0  0  0  0  0  0  0
   26.2064  -10.1086  -17.0312 N   0  0  0  0  0  0  0  0  0  0  0  0
   23.1596   -8.2730  -15.9571 C   0  0  0  0  0  0  0  0  0  0  0  0
   23.5669   -7.8903  -14.6716 O   0  0  0  0  0  0  0  0  0  0  0  0
   23.1889   -7.3936  -16.8690 O   0  0  0  0  0  0  0  0  0  0  0  0
  2  1  1  1
  3  2  1  0
  4  2  1  0
  4  6  1  0
  4  5  1  1
  6 13  1  0
  6  7  2  0
  9 10  2  0
  9  8  1  0
 11  9  1  0
 12 11  1  1
 13 12  1  0
 14 12  1  0
 14 15  2  0
 16 14  1  0
 17 16  1  0
 17 18  1  6
 19 18  1  0
 19 23  1  0
 20 21  1  0
 20 19  2  0
 21 22  1  0
 22 23  2  0
 24 17  1  0
 25 24  1  0
 26 24  2  0
M  END
$$$$
