VNH.pdb
     RDKit          3D

 26 26  0  0  1  0  0  0  0  0999 V2000
   28.5542  -21.1249  -12.9783 C   0  0  0  0  0  0  0  0  0  0  0  0
   27.7859  -20.3588  -14.0374 C   0  0  1  0  0  0  0  0  0  0  0  0
   28.1964  -20.8745  -15.3984 C   0  0  0  0  0  0  0  0  0  0  0  0
   26.3108  -20.5074  -13.9024 C   0  0  2  0  0  0  0  0  0  0  0  0
   25.6645  -19.9437  -15.0522 N   0  0  0  0  0  0  0  0  0  0  0  0
   25.7724  -20.0250  -12.6179 C   0  0  0  0  0  0  0  0  0  0  0  0
   24.9288  -19.0941  -12.6517 O   0  0  0  0  0  0  0  0  0  0  0  0
   22.6649  -21.6739   -8.3426 N   0  0  0  0  0  0  0  0  0  0  0  0
   23.1554  -20.5539   -9.0699 C   0  0  0  0  0  0  0  0  0  0  0  0
   22.8845  -19.4156   -8.6757 O   0  0  0  0  0  0  0  0  0  0  0  0
   23.9688  -20.7875  -10.2671 C   0  0  0  0  0  0  0  0  0  0  0  0
   25.4052  -20.3470  -10.1201 C   0  0  2  0  0  0  0  0  0  0  0  0
   26.1333  -20.5303  -11.3553 N   0  0  0  0  0  0  0  0  0  0  0  0
   26.0474  -21.0421   -8.9848 C   0  0  0  0  0  0  0  0  0  0  0  0
   25.4173  -21.9243   -8.3612 O   0  0  0  0  0  0  0  0  0  0  0  0
   27.3674  -20.7460   -8.5668 N   0  0  0  0  0  0  0  0  0  0  0  0
   27.7082  -20.5534   -7.1429 C   0  0  1  0  0  0  0  0  0  0  0  0
   27.9833  -19.1059   -6.8930 C   0  0  0  0  0  0  0  0  0  0  0  0
   28.3635  -18.8945   -5.4903 C   0  0  0  0  0  0  0  0  0  0  0  0
   29.4892  -19.4205   -4.8874 C   0  0  0  0  0  0  0  0  0  0  0  0
   29.5494  -19.0435   -3.6043 N   0  0  0  0  0  0  0  0  0  0  0  0
   28.4554  -18.2783   -3.4061 C   0  0  0  0  0  0  0  0  0  0  0  0
   27.7444  -18.1893   -4.5375 N   0  0  0  0  0  0  0  0  0  0  0  0
   26.5027  -20.9681   -6.3829 C   0  0  0  0  0  0  0  0  0  0  0  0
   26.5754  -21.7240   -5.2047 O   0  0  0  0  0  0  0  0  0  0  0  0
   25.3524  -20.6362   -6.7982 O   0  0  0  0  0  0  0  0  0  0  0  0
  2  1  1  1
  3  2  1  0
  4  2  1  0
  4  6  1  0
  4  5  1  6
  6 13  1  0
  6  7  2  0
  9 10  2  0
  9  8  1  0
 11  9  1  0
 12 11  1  6
 13 12  1  0
 14 12  1  0
 14 15  2  0
 16 14  1  0
 17 16  1  0
 17 18  1  6
 19 18  1  0
 19 23  1  0
 20 21  1  0
 20 19  2  0
 21 22  1  0
 22 23  2  0
 24 17  1  0
 25 24  1  0
 26 24  2  0
M  END
$$$$
