VNH.pdb
     RDKit          3D

 26 26  0  0  1  0  0  0  0  0999 V2000
   21.9308  -14.9831  -15.1234 C   0  0  0  0  0  0  0  0  0  0  0  0
   21.2522  -15.8046  -16.2020 C   0  0  1  0  0  0  0  0  0  0  0  0
   21.0405  -17.2073  -15.6781 C   0  0  0  0  0  0  0  0  0  0  0  0
   19.9321  -15.2489  -16.6074 C   0  0  2  0  0  0  0  0  0  0  0  0
   19.2991  -16.1425  -17.5338 N   0  0  0  0  0  0  0  0  0  0  0  0
   19.9839  -13.8495  -17.0676 C   0  0  0  0  0  0  0  0  0  0  0  0
   20.4339  -13.6308  -18.2203 O   0  0  0  0  0  0  0  0  0  0  0  0
   19.4172   -8.7691  -17.6832 N   0  0  0  0  0  0  0  0  0  0  0  0
   18.1847   -9.4385  -17.4445 C   0  0  0  0  0  0  0  0  0  0  0  0
   17.1252   -8.8488  -17.6775 O   0  0  0  0  0  0  0  0  0  0  0  0
   18.2120  -10.8105  -16.9284 C   0  0  0  0  0  0  0  0  0  0  0  0
   19.6053  -11.3557  -16.7277 C   0  0  2  0  0  0  0  0  0  0  0  0
   19.5662  -12.7392  -16.3108 N   0  0  0  0  0  0  0  0  0  0  0  0
   20.3626  -10.5087  -15.7825 C   0  0  0  0  0  0  0  0  0  0  0  0
   20.1285  -10.5856  -14.5564 O   0  0  0  0  0  0  0  0  0  0  0  0
   21.3581   -9.5990  -16.2142 N   0  0  0  0  0  0  0  0  0  0  0  0
   22.1100   -8.7581  -15.2611 C   0  0  1  0  0  0  0  0  0  0  0  0
   23.5253   -8.6323  -15.7244 C   0  0  0  0  0  0  0  0  0  0  0  0
   24.2841   -9.8409  -15.3777 C   0  0  0  0  0  0  0  0  0  0  0  0
   23.7742  -10.9262  -14.6923 C   0  0  0  0  0  0  0  0  0  0  0  0
   24.7179  -11.8625  -14.5348 N   0  0  0  0  0  0  0  0  0  0  0  0
   25.8220  -11.3584  -15.1248 C   0  0  0  0  0  0  0  0  0  0  0  0
   25.5614  -10.1458  -15.6302 N   0  0  0  0  0  0  0  0  0  0  0  0
   21.4552   -7.4267  -15.2985 C   0  0  0  0  0  0  0  0  0  0  0  0
   21.7536   -6.4119  -14.3788 O   0  0  0  0  0  0  0  0  0  0  0  0
   20.5890   -7.1767  -16.1891 O   0  0  0  0  0  0  0  0  0  0  0  0
  2  1  1  1
  3  2  1  0
  4  2  1  0
  4  6  1  0
  4  5  1  6
  6 13  1  0
  6  7  2  0
  9 10  2  0
  9  8  1  0
 11  9  1  0
 12 11  1  1
 13 12  1  0
 14 12  1  0
 14 15  2  0
 16 14  1  0
 17 16  1  0
 17 18  1  6
 19 18  1  0
 19 23  1  0
 20 21  1  0
 20 19  2  0
 21 22  1  0
 22 23  2  0
 24 17  1  0
 25 24  1  0
 26 24  2  0
M  END
$$$$
