VNH.pdb
     RDKit          3D

 26 26  0  0  1  0  0  0  0  0999 V2000
   19.3129  -12.1177    5.3765 C   0  0  0  0  0  0  0  0  0  0  0  0
   20.5627  -11.5223    5.9950 C   0  0  1  0  0  0  0  0  0  0  0  0
   20.9768  -10.3177    5.1801 C   0  0  0  0  0  0  0  0  0  0  0  0
   20.3605  -11.0905    7.4051 C   0  0  2  0  0  0  0  0  0  0  0  0
   21.5825  -10.5428    7.9192 N   0  0  0  0  0  0  0  0  0  0  0  0
   19.7573  -12.1208    8.2696 C   0  0  0  0  0  0  0  0  0  0  0  0
   20.5299  -12.9415    8.8251 O   0  0  0  0  0  0  0  0  0  0  0  0
   16.4293  -14.7419   11.2604 N   0  0  0  0  0  0  0  0  0  0  0  0
   15.6363  -13.8130   10.5309 C   0  0  0  0  0  0  0  0  0  0  0  0
   14.4343  -13.7114   10.7944 O   0  0  0  0  0  0  0  0  0  0  0  0
   16.2730  -13.0039    9.4872 C   0  0  0  0  0  0  0  0  0  0  0  0
   17.7496  -13.2740    9.3264 C   0  0  2  0  0  0  0  0  0  0  0  0
   18.3789  -12.2535    8.5190 N   0  0  0  0  0  0  0  0  0  0  0  0
   17.9728  -14.6310    8.7852 C   0  0  0  0  0  0  0  0  0  0  0  0
   17.8146  -14.8450    7.5632 O   0  0  0  0  0  0  0  0  0  0  0  0
   18.3645  -15.7164    9.6056 N   0  0  0  0  0  0  0  0  0  0  0  0
   18.7738  -17.0154    9.0349 C   0  0  1  0  0  0  0  0  0  0  0  0
   20.2046  -16.9387    8.6101 C   0  0  0  0  0  0  0  0  0  0  0  0
   20.6786  -18.2592    8.1759 C   0  0  0  0  0  0  0  0  0  0  0  0
   19.9592  -19.1399    7.3921 C   0  0  0  0  0  0  0  0  0  0  0  0
   20.6680  -20.2544    7.1737 N   0  0  0  0  0  0  0  0  0  0  0  0
   21.8353  -20.0676    7.8248 C   0  0  0  0  0  0  0  0  0  0  0  0
   21.8413  -18.8708    8.4258 N   0  0  0  0  0  0  0  0  0  0  0  0
   18.6354  -17.9990   10.1377 C   0  0  0  0  0  0  0  0  0  0  0  0
   18.3440  -19.3514    9.9118 O   0  0  0  0  0  0  0  0  0  0  0  0
   18.7826  -17.6222   11.3386 O   0  0  0  0  0  0  0  0  0  0  0  0
  2  1  1  6
  3  2  1  0
  4  2  1  0
  4  6  1  0
  4  5  1  1
  6 13  1  0
  6  7  2  0
  9 10  2  0
  9  8  1  0
 11  9  1  0
 12 11  1  6
 13 12  1  0
 14 12  1  0
 14 15  2  0
 16 14  1  0
 17 16  1  0
 17 18  1  1
 19 18  1  0
 19 23  1  0
 20 21  1  0
 20 19  2  0
 21 22  1  0
 22 23  2  0
 24 17  1  0
 25 24  1  0
 26 24  2  0
M  END
$$$$
