VNH.pdb
     RDKit          3D

 26 26  0  0  1  0  0  0  0  0999 V2000
   18.3731  -15.8695  -18.8132 C   0  0  0  0  0  0  0  0  0  0  0  0
   18.5734  -14.7704  -17.7882 C   0  0  1  0  0  0  0  0  0  0  0  0
   19.5102  -15.2772  -16.7147 C   0  0  0  0  0  0  0  0  0  0  0  0
   19.1549  -13.5319  -18.3747 C   0  0  2  0  0  0  0  0  0  0  0  0
   20.2595  -13.8753  -19.2228 N   0  0  0  0  0  0  0  0  0  0  0  0
   19.4648  -12.4850  -17.3844 C   0  0  0  0  0  0  0  0  0  0  0  0
   18.5136  -12.0266  -16.7031 O   0  0  0  0  0  0  0  0  0  0  0  0
   21.9225   -9.3291  -14.0885 N   0  0  0  0  0  0  0  0  0  0  0  0
   22.8969  -10.2296  -14.6020 C   0  0  0  0  0  0  0  0  0  0  0  0
   24.0303  -10.2324  -14.1123 O   0  0  0  0  0  0  0  0  0  0  0  0
   22.5232  -11.1279  -15.6987 C   0  0  0  0  0  0  0  0  0  0  0  0
   21.0949  -10.9624  -16.1587 C   0  0  2  0  0  0  0  0  0  0  0  0
   20.7484  -11.9605  -17.1452 N   0  0  0  0  0  0  0  0  0  0  0  0
   20.8642   -9.5878  -16.6501 C   0  0  0  0  0  0  0  0  0  0  0  0
   21.2844   -9.2543  -17.7798 O   0  0  0  0  0  0  0  0  0  0  0  0
   20.1762   -8.6168  -15.8827 N   0  0  0  0  0  0  0  0  0  0  0  0
   19.8996   -7.2640  -16.4062 C   0  0  1  0  0  0  0  0  0  0  0  0
   18.4409   -6.9701  -16.2673 C   0  0  0  0  0  0  0  0  0  0  0  0
   17.6911   -7.5781  -17.3740 C   0  0  0  0  0  0  0  0  0  0  0  0
   18.1234   -7.6379  -18.6844 C   0  0  0  0  0  0  0  0  0  0  0  0
   17.2122   -8.2538  -19.4476 N   0  0  0  0  0  0  0  0  0  0  0  0
   16.2064   -8.5797  -18.6087 C   0  0  0  0  0  0  0  0  0  0  0  0
   16.4940   -8.1742  -17.3651 N   0  0  0  0  0  0  0  0  0  0  0  0
   20.6770   -6.3357  -15.5480 C   0  0  0  0  0  0  0  0  0  0  0  0
   20.6762   -4.9475  -15.7423 O   0  0  0  0  0  0  0  0  0  0  0  0
   21.3759   -6.7954  -14.5961 O   0  0  0  0  0  0  0  0  0  0  0  0
  2  1  1  6
  3  2  1  0
  4  2  1  0
  4  6  1  0
  4  5  1  1
  6 13  1  0
  6  7  2  0
  9 10  2  0
  9  8  1  0
 11  9  1  0
 12 11  1  6
 13 12  1  0
 14 12  1  0
 14 15  2  0
 16 14  1  0
 17 16  1  0
 17 18  1  1
 19 18  1  0
 19 23  1  0
 20 21  1  0
 20 19  2  0
 21 22  1  0
 22 23  2  0
 24 17  1  0
 25 24  1  0
 26 24  2  0
M  END
$$$$
