VNH.pdb
     RDKit          3D

 26 26  0  0  1  0  0  0  0  0999 V2000
   18.1773  -15.2003  -18.0130 C   0  0  0  0  0  0  0  0  0  0  0  0
   18.6811  -14.1220  -17.0737 C   0  0  1  0  0  0  0  0  0  0  0  0
   19.6757  -14.7416  -16.1178 C   0  0  0  0  0  0  0  0  0  0  0  0
   19.3498  -12.9998  -17.7874 C   0  0  2  0  0  0  0  0  0  0  0  0
   20.3066  -13.5251  -18.7180 N   0  0  0  0  0  0  0  0  0  0  0  0
   19.8922  -11.9581  -16.8967 C   0  0  0  0  0  0  0  0  0  0  0  0
   19.2429  -11.6842  -15.8563 O   0  0  0  0  0  0  0  0  0  0  0  0
   22.6138  -12.1768  -14.7686 N   0  0  0  0  0  0  0  0  0  0  0  0
   23.5682  -11.3180  -15.3815 C   0  0  0  0  0  0  0  0  0  0  0  0
   24.7711  -11.5271  -15.1970 O   0  0  0  0  0  0  0  0  0  0  0  0
   23.0920  -10.2097  -16.2146 C   0  0  0  0  0  0  0  0  0  0  0  0
   21.5887  -10.1452  -16.3373 C   0  0  2  0  0  0  0  0  0  0  0  0
   21.0847  -11.2470  -17.1255 N   0  0  0  0  0  0  0  0  0  0  0  0
   21.1679   -8.8347  -16.8757 C   0  0  0  0  0  0  0  0  0  0  0  0
   21.3697   -8.5654  -18.0802 O   0  0  0  0  0  0  0  0  0  0  0  0
   20.5357   -7.8556  -16.0717 N   0  0  0  0  0  0  0  0  0  0  0  0
   19.9881   -6.6109  -16.6475 C   0  0  1  0  0  0  0  0  0  0  0  0
   18.5160   -6.5568  -16.3955 C   0  0  0  0  0  0  0  0  0  0  0  0
   17.8117   -7.4847  -17.2897 C   0  0  0  0  0  0  0  0  0  0  0  0
   17.3321   -8.7268  -16.9229 C   0  0  0  0  0  0  0  0  0  0  0  0
   16.7412   -9.3241  -17.9652 N   0  0  0  0  0  0  0  0  0  0  0  0
   16.8531   -8.4498  -18.9872 C   0  0  0  0  0  0  0  0  0  0  0  0
   17.4952   -7.3467  -18.5817 N   0  0  0  0  0  0  0  0  0  0  0  0
   20.6574   -5.5043  -15.9193 C   0  0  0  0  0  0  0  0  0  0  0  0
   20.5292   -4.1618  -16.3017 O   0  0  0  0  0  0  0  0  0  0  0  0
   21.3780   -5.7614  -14.9091 O   0  0  0  0  0  0  0  0  0  0  0  0
  2  1  1  6
  3  2  1  0
  4  2  1  0
  4  6  1  0
  4  5  1  1
  6 13  1  0
  6  7  2  0
  9 10  2  0
  9  8  1  0
 11  9  1  0
 12 11  1  6
 13 12  1  0
 14 12  1  0
 14 15  2  0
 16 14  1  0
 17 16  1  0
 17 18  1  1
 19 18  1  0
 19 23  1  0
 20 21  1  0
 20 19  2  0
 21 22  1  0
 22 23  2  0
 24 17  1  0
 25 24  1  0
 26 24  2  0
M  END
$$$$
