VNH.pdb
     RDKit          3D

 26 26  0  0  1  0  0  0  0  0999 V2000
   26.0968  -13.5502  -15.6450 C   0  0  0  0  0  0  0  0  0  0  0  0
   25.0232  -12.5473  -16.0200 C   0  0  1  0  0  0  0  0  0  0  0  0
   25.3225  -12.0154  -17.4035 C   0  0  0  0  0  0  0  0  0  0  0  0
   23.6571  -13.1385  -16.0278 C   0  0  2  0  0  0  0  0  0  0  0  0
   23.6580  -14.3387  -16.8132 N   0  0  0  0  0  0  0  0  0  0  0  0
   22.5916  -12.1872  -16.3916 C   0  0  0  0  0  0  0  0  0  0  0  0
   22.2182  -12.1605  -17.5912 O   0  0  0  0  0  0  0  0  0  0  0  0
   18.8344   -8.6710  -16.4643 N   0  0  0  0  0  0  0  0  0  0  0  0
   18.5628   -9.7143  -15.5359 C   0  0  0  0  0  0  0  0  0  0  0  0
   17.4202   -9.8339  -15.0833 O   0  0  0  0  0  0  0  0  0  0  0  0
   19.6506  -10.6162  -15.1455 C   0  0  0  0  0  0  0  0  0  0  0  0
   20.9633  -10.3143  -15.8271 C   0  0  2  0  0  0  0  0  0  0  0  0
   21.9610  -11.3059  -15.4942 N   0  0  0  0  0  0  0  0  0  0  0  0
   21.4105   -8.9426  -15.5071 C   0  0  0  0  0  0  0  0  0  0  0  0
   21.9126   -8.6992  -14.3878 O   0  0  0  0  0  0  0  0  0  0  0  0
   21.2923   -7.8750  -16.4297 N   0  0  0  0  0  0  0  0  0  0  0  0
   21.8455   -6.5357  -16.1453 C   0  0  1  0  0  0  0  0  0  0  0  0
   21.8088   -5.7120  -17.3918 C   0  0  0  0  0  0  0  0  0  0  0  0
   22.4772   -4.4232  -17.1705 C   0  0  0  0  0  0  0  0  0  0  0  0
   22.5374   -3.7603  -15.9604 C   0  0  0  0  0  0  0  0  0  0  0  0
   23.2161   -2.6138  -16.0910 N   0  0  0  0  0  0  0  0  0  0  0  0
   23.5808   -2.5615  -17.3893 C   0  0  0  0  0  0  0  0  0  0  0  0
   23.1374   -3.6469  -18.0365 N   0  0  0  0  0  0  0  0  0  0  0  0
   20.9447   -5.9378  -15.1285 C   0  0  0  0  0  0  0  0  0  0  0  0
   21.4227   -5.3341  -13.9572 O   0  0  0  0  0  0  0  0  0  0  0  0
   19.6904   -5.9635  -15.3067 O   0  0  0  0  0  0  0  0  0  0  0  0
  2  1  1  6
  3  2  1  0
  4  2  1  0
  4  6  1  0
  4  5  1  6
  6 13  1  0
  6  7  2  0
  9 10  2  0
  9  8  1  0
 11  9  1  0
 12 11  1  1
 13 12  1  0
 14 12  1  0
 14 15  2  0
 16 14  1  0
 17 16  1  0
 17 18  1  6
 19 18  1  0
 19 23  1  0
 20 21  1  0
 20 19  2  0
 21 22  1  0
 22 23  2  0
 24 17  1  0
 25 24  1  0
 26 24  2  0
M  END
$$$$
