VNH.pdb
     RDKit          3D

 26 26  0  0  1  0  0  0  0  0999 V2000
   17.4854  -12.1713  -12.8946 C   0  0  0  0  0  0  0  0  0  0  0  0
   16.8849  -10.8216  -12.5533 C   0  0  1  0  0  0  0  0  0  0  0  0
   16.1647  -10.2920  -13.7730 C   0  0  0  0  0  0  0  0  0  0  0  0
   15.9153  -10.8886  -11.4257 C   0  0  2  0  0  0  0  0  0  0  0  0
   14.9729  -11.9431  -11.6653 N   0  0  0  0  0  0  0  0  0  0  0  0
   15.2926   -9.5956  -11.0897 C   0  0  0  0  0  0  0  0  0  0  0  0
   14.2735   -9.2524  -11.7400 O   0  0  0  0  0  0  0  0  0  0  0  0
   13.3631   -8.5488   -8.1477 N   0  0  0  0  0  0  0  0  0  0  0  0
   14.3311   -7.7184   -7.5173 C   0  0  0  0  0  0  0  0  0  0  0  0
   14.2859   -7.5652   -6.2929 O   0  0  0  0  0  0  0  0  0  0  0  0
   15.3539   -7.0696   -8.3433 C   0  0  0  0  0  0  0  0  0  0  0  0
   15.2421   -7.3941   -9.8134 C   0  0  2  0  0  0  0  0  0  0  0  0
   15.7552   -8.7161  -10.0935 N   0  0  0  0  0  0  0  0  0  0  0  0
   15.9059   -6.3535  -10.6263 C   0  0  0  0  0  0  0  0  0  0  0  0
   17.1244   -6.1233  -10.4641 O   0  0  0  0  0  0  0  0  0  0  0  0
   15.2086   -5.5939  -11.5967 N   0  0  0  0  0  0  0  0  0  0  0  0
   15.8790   -4.5488  -12.3960 C   0  0  1  0  0  0  0  0  0  0  0  0
   15.1122   -4.3262  -13.6593 C   0  0  0  0  0  0  0  0  0  0  0  0
   15.7311   -3.2535  -14.4486 C   0  0  0  0  0  0  0  0  0  0  0  0
   16.8406   -3.4049  -15.2571 C   0  0  0  0  0  0  0  0  0  0  0  0
   17.1553   -2.2408  -15.8385 N   0  0  0  0  0  0  0  0  0  0  0  0
   16.2373   -1.3589  -15.3901 C   0  0  0  0  0  0  0  0  0  0  0  0
   15.3833   -1.9667  -14.5564 N   0  0  0  0  0  0  0  0  0  0  0  0
   15.8350   -3.3195  -11.5655 C   0  0  0  0  0  0  0  0  0  0  0  0
   16.8003   -2.3076  -11.6620 O   0  0  0  0  0  0  0  0  0  0  0  0
   14.8962   -3.1583  -10.7297 O   0  0  0  0  0  0  0  0  0  0  0  0
  2  1  1  6
  3  2  1  0
  4  2  1  0
  4  6  1  0
  4  5  1  6
  6 13  1  0
  6  7  2  0
  9 10  2  0
  9  8  1  0
 11  9  1  0
 12 11  1  1
 13 12  1  0
 14 12  1  0
 14 15  2  0
 16 14  1  0
 17 16  1  0
 17 18  1  6
 19 18  1  0
 19 23  1  0
 20 21  1  0
 20 19  2  0
 21 22  1  0
 22 23  2  0
 24 17  1  0
 25 24  1  0
 26 24  2  0
M  END
$$$$
