VNH.pdb
     RDKit          3D

 26 26  0  0  1  0  0  0  0  0999 V2000
   26.6842  -34.6048   -8.5028 C   0  0  0  0  0  0  0  0  0  0  0  0
   26.4270  -33.7929   -7.2484 C   0  0  1  0  0  0  0  0  0  0  0  0
   27.5780  -32.8319   -7.0518 C   0  0  0  0  0  0  0  0  0  0  0  0
   25.1641  -33.0079   -7.3166 C   0  0  2  0  0  0  0  0  0  0  0  0
   25.1639  -32.2012   -8.5027 N   0  0  0  0  0  0  0  0  0  0  0  0
   24.8532  -32.2597   -6.0852 C   0  0  0  0  0  0  0  0  0  0  0  0
   25.1023  -31.0281   -6.0723 O   0  0  0  0  0  0  0  0  0  0  0  0
   21.6907  -30.2888   -2.0606 N   0  0  0  0  0  0  0  0  0  0  0  0
   22.0930  -31.6521   -2.1212 C   0  0  0  0  0  0  0  0  0  0  0  0
   22.1065  -32.3216   -1.0838 O   0  0  0  0  0  0  0  0  0  0  0  0
   22.4795  -32.2199   -3.4164 C   0  0  0  0  0  0  0  0  0  0  0  0
   23.9572  -32.1172   -3.7072 C   0  0  2  0  0  0  0  0  0  0  0  0
   24.2974  -32.8232   -4.9218 N   0  0  0  0  0  0  0  0  0  0  0  0
   24.7475  -32.5850   -2.5492 C   0  0  0  0  0  0  0  0  0  0  0  0
   24.6820  -33.7832   -2.1970 O   0  0  0  0  0  0  0  0  0  0  0  0
   25.5893  -31.7191   -1.8099 N   0  0  0  0  0  0  0  0  0  0  0  0
   26.3171  -32.1785   -0.6100 C   0  0  1  0  0  0  0  0  0  0  0  0
   25.3330  -32.6118    0.4280 C   0  0  0  0  0  0  0  0  0  0  0  0
   26.0255  -32.9407    1.6806 C   0  0  0  0  0  0  0  0  0  0  0  0
   27.1513  -32.2967    2.1554 C   0  0  0  0  0  0  0  0  0  0  0  0
   27.5377  -32.8324    3.3198 N   0  0  0  0  0  0  0  0  0  0  0  0
   26.6483  -33.8156    3.5724 C   0  0  0  0  0  0  0  0  0  0  0  0
   25.7415  -33.8803    2.5889 N   0  0  0  0  0  0  0  0  0  0  0  0
   27.1200  -33.3462   -1.0510 C   0  0  0  0  0  0  0  0  0  0  0  0
   27.6135  -34.3053   -0.1557 O   0  0  0  0  0  0  0  0  0  0  0  0
   27.3811  -33.5014   -2.2812 O   0  0  0  0  0  0  0  0  0  0  0  0
  2  1  1  6
  3  2  1  0
  4  2  1  0
  4  6  1  0
  4  5  1  6
  6 13  1  0
  6  7  2  0
  9 10  2  0
  9  8  1  0
 11  9  1  0
 12 11  1  1
 13 12  1  0
 14 12  1  0
 14 15  2  0
 16 14  1  0
 17 16  1  0
 17 18  1  1
 19 18  1  0
 19 23  1  0
 20 21  1  0
 20 19  2  0
 21 22  1  0
 22 23  2  0
 24 17  1  0
 25 24  1  0
 26 24  2  0
M  END
$$$$
