VNH.pdb
     RDKit          3D

 26 26  0  0  1  0  0  0  0  0999 V2000
   18.4884  -12.1311  -18.3778 C   0  0  0  0  0  0  0  0  0  0  0  0
   18.5419  -13.1260  -17.2349 C   0  0  1  0  0  0  0  0  0  0  0  0
   18.1302  -14.4838  -17.7580 C   0  0  0  0  0  0  0  0  0  0  0  0
   19.8988  -13.2441  -16.6343 C   0  0  2  0  0  0  0  0  0  0  0  0
   19.8922  -14.2697  -15.6316 N   0  0  0  0  0  0  0  0  0  0  0  0
   20.4676  -11.9639  -16.1758 C   0  0  0  0  0  0  0  0  0  0  0  0
   19.8596  -11.3487  -15.2642 O   0  0  0  0  0  0  0  0  0  0  0  0
   23.4778   -7.7021  -15.7952 N   0  0  0  0  0  0  0  0  0  0  0  0
   24.2777   -8.7225  -16.3809 C   0  0  0  0  0  0  0  0  0  0  0  0
   25.4753   -8.5036  -16.5871 O   0  0  0  0  0  0  0  0  0  0  0  0
   23.6532  -10.0044  -16.7217 C   0  0  0  0  0  0  0  0  0  0  0  0
   22.2153  -10.1163  -16.2758 C   0  0  2  0  0  0  0  0  0  0  0  0
   21.6423  -11.3791  -16.6838 N   0  0  0  0  0  0  0  0  0  0  0  0
   21.4299   -8.9631  -16.7630 C   0  0  0  0  0  0  0  0  0  0  0  0
   21.3264   -8.7581  -17.9923 O   0  0  0  0  0  0  0  0  0  0  0  0
   20.7792   -8.0660  -15.8817 N   0  0  0  0  0  0  0  0  0  0  0  0
   19.9671   -6.9376  -16.3795 C   0  0  1  0  0  0  0  0  0  0  0  0
   18.7547   -6.7850  -15.5190 C   0  0  0  0  0  0  0  0  0  0  0  0
   17.9404   -5.6540  -15.9821 C   0  0  0  0  0  0  0  0  0  0  0  0
   17.5388   -5.4500  -17.2877 C   0  0  0  0  0  0  0  0  0  0  0  0
   16.8099   -4.3310  -17.3811 N   0  0  0  0  0  0  0  0  0  0  0  0
   16.7568   -3.8346  -16.1272 C   0  0  0  0  0  0  0  0  0  0  0  0
   17.4350   -4.6284  -15.2884 N   0  0  0  0  0  0  0  0  0  0  0  0
   20.8264   -5.7351  -16.2441 C   0  0  0  0  0  0  0  0  0  0  0  0
   21.6423   -5.5115  -15.1264 O   0  0  0  0  0  0  0  0  0  0  0  0
   20.8380   -4.8636  -17.1639 O   0  0  0  0  0  0  0  0  0  0  0  0
  2  1  1  6
  3  2  1  0
  4  2  1  0
  4  6  1  0
  4  5  1  1
  6 13  1  0
  6  7  2  0
  9 10  2  0
  9  8  1  0
 11  9  1  0
 12 11  1  6
 13 12  1  0
 14 12  1  0
 14 15  2  0
 16 14  1  0
 17 16  1  0
 17 18  1  1
 19 18  1  0
 19 23  1  0
 20 21  1  0
 20 19  2  0
 21 22  1  0
 22 23  2  0
 24 17  1  0
 25 24  1  0
 26 24  2  0
M  END
$$$$
