VNH.pdb
     RDKit          3D

 26 26  0  0  1  0  0  0  0  0999 V2000
   36.6068   -8.3310  -13.5609 C   0  0  0  0  0  0  0  0  0  0  0  0
   37.7027   -8.2146  -12.5196 C   0  0  1  0  0  0  0  0  0  0  0  0
   38.8338   -9.1417  -12.9042 C   0  0  0  0  0  0  0  0  0  0  0  0
   38.2448   -6.8331  -12.4028 C   0  0  2  0  0  0  0  0  0  0  0  0
   38.8382   -6.4435  -13.6491 N   0  0  0  0  0  0  0  0  0  0  0  0
   39.1193   -6.6265  -11.2343 C   0  0  0  0  0  0  0  0  0  0  0  0
   40.3598   -6.7231  -11.4097 O   0  0  0  0  0  0  0  0  0  0  0  0
   41.0515   -5.3688   -6.6109 N   0  0  0  0  0  0  0  0  0  0  0  0
   39.8338   -4.6540   -6.7853 C   0  0  0  0  0  0  0  0  0  0  0  0
   39.5217   -3.7883   -5.9620 O   0  0  0  0  0  0  0  0  0  0  0  0
   38.9866   -4.9686   -7.9397 C   0  0  0  0  0  0  0  0  0  0  0  0
   39.4937   -6.1248   -8.7673 C   0  0  2  0  0  0  0  0  0  0  0  0
   38.6672   -6.3286   -9.9355 N   0  0  0  0  0  0  0  0  0  0  0  0
   39.6038   -7.3452   -7.9411 C   0  0  0  0  0  0  0  0  0  0  0  0
   38.5774   -7.8394   -7.4250 O   0  0  0  0  0  0  0  0  0  0  0  0
   40.8429   -7.9887   -7.7056 N   0  0  0  0  0  0  0  0  0  0  0  0
   40.9282   -9.2705   -6.9774 C   0  0  1  0  0  0  0  0  0  0  0  0
   41.8435  -10.1954   -7.7125 C   0  0  0  0  0  0  0  0  0  0  0  0
   41.2257  -10.6283   -8.9726 C   0  0  0  0  0  0  0  0  0  0  0  0
   41.8103  -10.5192  -10.2192 C   0  0  0  0  0  0  0  0  0  0  0  0
   40.9912  -11.0028  -11.1612 N   0  0  0  0  0  0  0  0  0  0  0  0
   39.8903  -11.4155  -10.4987 C   0  0  0  0  0  0  0  0  0  0  0  0
   40.0313  -11.1906   -9.1859 N   0  0  0  0  0  0  0  0  0  0  0  0
   41.5135   -8.9411   -5.6539 C   0  0  0  0  0  0  0  0  0  0  0  0
   41.2920   -9.7256   -4.5135 O   0  0  0  0  0  0  0  0  0  0  0  0
   42.2454   -7.9144   -5.5279 O   0  0  0  0  0  0  0  0  0  0  0  0
  2  1  1  6
  3  2  1  0
  4  2  1  0
  4  6  1  0
  4  5  1  6
  6 13  1  0
  6  7  2  0
  9 10  2  0
  9  8  1  0
 11  9  1  0
 12 11  1  1
 13 12  1  0
 14 12  1  0
 14 15  2  0
 16 14  1  0
 17 16  1  0
 17 18  1  6
 19 18  1  0
 19 23  1  0
 20 21  1  0
 20 19  2  0
 21 22  1  0
 22 23  2  0
 24 17  1  0
 25 24  1  0
 26 24  2  0
M  END
$$$$
