VNH.pdb
     RDKit          3D

 26 26  0  0  1  0  0  0  0  0999 V2000
   25.1298  -14.3927  -16.8013 C   0  0  0  0  0  0  0  0  0  0  0  0
   23.9938  -13.4010  -16.9592 C   0  0  1  0  0  0  0  0  0  0  0  0
   22.9097  -13.7472  -15.9634 C   0  0  0  0  0  0  0  0  0  0  0  0
   24.4180  -11.9937  -16.7237 C   0  0  2  0  0  0  0  0  0  0  0  0
   25.1648  -11.9157  -15.5016 N   0  0  0  0  0  0  0  0  0  0  0  0
   23.3233  -11.0111  -16.8187 C   0  0  0  0  0  0  0  0  0  0  0  0
   22.7944  -10.8344  -17.9448 O   0  0  0  0  0  0  0  0  0  0  0  0
   18.5790   -8.6949  -16.5957 N   0  0  0  0  0  0  0  0  0  0  0  0
   19.3120   -8.9807  -15.4104 C   0  0  0  0  0  0  0  0  0  0  0  0
   18.9923   -8.4225  -14.3564 O   0  0  0  0  0  0  0  0  0  0  0  0
   20.4261   -9.9313  -15.4782 C   0  0  0  0  0  0  0  0  0  0  0  0
   21.7542   -9.2879  -15.7961 C   0  0  2  0  0  0  0  0  0  0  0  0
   22.8263  -10.2558  -15.7406 N   0  0  0  0  0  0  0  0  0  0  0  0
   21.9975   -8.1333  -14.9061 C   0  0  0  0  0  0  0  0  0  0  0  0
   22.2823   -8.3263  -13.7038 O   0  0  0  0  0  0  0  0  0  0  0  0
   21.9201   -6.7961  -15.3654 N   0  0  0  0  0  0  0  0  0  0  0  0
   22.1124   -5.6486  -14.4561 C   0  0  1  0  0  0  0  0  0  0  0  0
   23.5034   -5.1244  -14.6106 C   0  0  0  0  0  0  0  0  0  0  0  0
   23.7901   -4.8496  -16.0245 C   0  0  0  0  0  0  0  0  0  0  0  0
   22.8874   -5.0004  -17.0590 C   0  0  0  0  0  0  0  0  0  0  0  0
   23.4560   -4.6693  -18.2249 N   0  0  0  0  0  0  0  0  0  0  0  0
   24.7197   -4.3103  -17.9158 C   0  0  0  0  0  0  0  0  0  0  0  0
   24.9197   -4.4186  -16.5959 N   0  0  0  0  0  0  0  0  0  0  0  0
   21.1413   -4.6180  -14.9009 C   0  0  0  0  0  0  0  0  0  0  0  0
   20.9457   -3.4153  -14.2081 O   0  0  0  0  0  0  0  0  0  0  0  0
   20.4515   -4.8132  -15.9458 O   0  0  0  0  0  0  0  0  0  0  0  0
  2  1  1  1
  3  2  1  0
  4  2  1  0
  4  6  1  0
  4  5  1  1
  6 13  1  0
  6  7  2  0
  9 10  2  0
  9  8  1  0
 11  9  1  0
 12 11  1  1
 13 12  1  0
 14 12  1  0
 14 15  2  0
 16 14  1  0
 17 16  1  0
 17 18  1  6
 19 18  1  0
 19 23  1  0
 20 21  1  0
 20 19  2  0
 21 22  1  0
 22 23  2  0
 24 17  1  0
 25 24  1  0
 26 24  2  0
M  END
$$$$
