DSD.pdb
     RDKit          3D

 23 22  0  0  1  0  0  0  0  0999 V2000
    7.9187  -18.2438   16.8569 N   0  0  0  0  0  0  0  0  0  0  0  0
    9.2224  -17.6735   16.9348 C   0  0  1  0  0  0  0  0  0  0  0  0
    9.4578  -16.9021   15.6345 C   0  0  0  0  0  0  0  0  0  0  0  0
    9.1331  -17.8304   14.5099 C   0  0  0  0  0  0  0  0  0  0  0  0
   10.0066  -18.5196   13.9400 O   0  0  0  0  0  0  0  0  0  0  0  0
    9.4539  -16.8278   18.1223 C   0  0  0  0  0  0  0  0  0  0  0  0
   10.5859  -16.2879   18.2219 O   0  0  0  0  0  0  0  0  0  0  0  0
    7.8275  -17.9706   14.0416 O   0  0  0  0  0  0  0  0  0  0  0  0
    6.9204  -16.4872   21.4413 O   0  0  0  0  0  0  0  0  0  0  0  0
    7.6028  -15.3653   20.9820 C   0  0  0  0  0  0  0  0  0  0  0  0
    8.8983  -15.8054   20.2845 C   0  0  2  0  0  0  0  0  0  0  0  0
    8.5041  -16.5859   19.1420 N   0  0  0  0  0  0  0  0  0  0  0  0
    9.6402  -16.6116   21.2912 C   0  0  0  0  0  0  0  0  0  0  0  0
    9.7394  -17.8526   21.1123 O   0  0  0  0  0  0  0  0  0  0  0  0
   10.2472  -16.0722   22.4466 N   0  0  0  0  0  0  0  0  0  0  0  0
   11.4177  -16.6330   23.0440 C   0  0  1  0  0  0  0  0  0  0  0  0
   12.6975  -15.9722   22.6464 C   0  0  0  0  0  0  0  0  0  0  0  0
   13.8928  -16.6014   23.2150 C   0  0  0  0  0  0  0  0  0  0  0  0
   13.8134  -17.6312   23.9259 O   0  0  0  0  0  0  0  0  0  0  0  0
   11.3558  -16.6509   24.5278 C   0  0  0  0  0  0  0  0  0  0  0  0
   10.6864  -15.7571   25.0974 O   0  0  0  0  0  0  0  0  0  0  0  0
   15.1360  -16.0541   22.9664 O   0  0  0  0  0  0  0  0  0  0  0  0
   12.0046  -17.6092   25.2863 O   0  0  0  0  0  0  0  0  0  0  0  0
  2  3  1  0
  2  1  1  6
  4  3  1  0
  4  8  1  0
  5  4  2  0
  6  2  1  0
  7  6  2  0
  9 10  1  0
 11 10  1  1
 11 12  1  0
 12  6  1  0
 13 11  1  0
 13 15  1  0
 14 13  2  0
 16 15  1  0
 16 17  1  1
 16 20  1  0
 18 22  1  0
 18 17  1  0
 19 18  2  0
 20 21  2  0
 20 23  1  0
M  END
$$$$
