DSD.pdb
     RDKit          3D

 23 22  0  0  1  0  0  0  0  0999 V2000
    9.3085  -17.8916   15.9195 N   0  0  0  0  0  0  0  0  0  0  0  0
    9.4390  -18.5666   17.1680 C   0  0  1  0  0  0  0  0  0  0  0  0
   10.4505  -19.6971   16.9682 C   0  0  0  0  0  0  0  0  0  0  0  0
    9.9184  -20.5736   15.8816 C   0  0  0  0  0  0  0  0  0  0  0  0
   10.5230  -20.7368   14.7997 O   0  0  0  0  0  0  0  0  0  0  0  0
    9.8077  -17.6965   18.3020 C   0  0  0  0  0  0  0  0  0  0  0  0
   11.0247  -17.6637   18.6192 O   0  0  0  0  0  0  0  0  0  0  0  0
    8.7113  -21.2554   16.0281 O   0  0  0  0  0  0  0  0  0  0  0  0
    7.2935  -16.2150   21.2643 O   0  0  0  0  0  0  0  0  0  0  0  0
    8.2074  -15.3325   20.6977 C   0  0  0  0  0  0  0  0  0  0  0  0
    9.4018  -16.1215   20.1415 C   0  0  2  0  0  0  0  0  0  0  0  0
    8.8997  -16.9079   19.0464 N   0  0  0  0  0  0  0  0  0  0  0  0
    9.8838  -16.9646   21.2687 C   0  0  0  0  0  0  0  0  0  0  0  0
   10.0349  -18.1981   21.0746 O   0  0  0  0  0  0  0  0  0  0  0  0
   10.1862  -16.4687   22.5559 N   0  0  0  0  0  0  0  0  0  0  0  0
   11.3801  -16.8128   23.2612 C   0  0  1  0  0  0  0  0  0  0  0  0
   12.6445  -16.3763   22.5954 C   0  0  0  0  0  0  0  0  0  0  0  0
   13.8589  -16.7295   23.3361 C   0  0  0  0  0  0  0  0  0  0  0  0
   13.8006  -17.2737   24.4643 O   0  0  0  0  0  0  0  0  0  0  0  0
   11.3966  -16.2965   24.6537 C   0  0  0  0  0  0  0  0  0  0  0  0
   12.3845  -16.5787   25.3719 O   0  0  0  0  0  0  0  0  0  0  0  0
   15.0965  -16.4603   22.7861 O   0  0  0  0  0  0  0  0  0  0  0  0
   10.3705  -15.5262   25.1718 O   0  0  0  0  0  0  0  0  0  0  0  0
  2  3  1  0
  2  1  1  6
  4  3  1  0
  4  8  1  0
  5  4  2  0
  6  2  1  0
  7  6  2  0
  9 10  1  0
 11 10  1  1
 11 12  1  0
 12  6  1  0
 13 11  1  0
 13 15  1  0
 14 13  2  0
 16 15  1  0
 16 17  1  6
 16 20  1  0
 18 22  1  0
 18 17  1  0
 19 18  2  0
 20 21  2  0
 20 23  1  0
M  END
$$$$
