DSD.pdb
     RDKit          3D

 23 22  0  0  1  0  0  0  0  0999 V2000
    9.2995  -18.8780   17.9090 N   0  0  0  0  0  0  0  0  0  0  0  0
   10.4045  -18.0201   17.6365 C   0  0  1  0  0  0  0  0  0  0  0  0
   10.1039  -17.2983   16.3214 C   0  0  0  0  0  0  0  0  0  0  0  0
   10.3241  -18.2841   15.2207 C   0  0  0  0  0  0  0  0  0  0  0  0
    9.6500  -19.3320   15.1185 O   0  0  0  0  0  0  0  0  0  0  0  0
   10.7283  -17.0714   18.7200 C   0  0  0  0  0  0  0  0  0  0  0  0
   11.8056  -16.4310   18.6096 O   0  0  0  0  0  0  0  0  0  0  0  0
   11.3015  -18.0765   14.2484 O   0  0  0  0  0  0  0  0  0  0  0  0
    8.3901  -16.4667   22.0494 O   0  0  0  0  0  0  0  0  0  0  0  0
    9.1741  -15.4038   21.6124 C   0  0  0  0  0  0  0  0  0  0  0  0
   10.4094  -15.9476   20.8798 C   0  0  2  0  0  0  0  0  0  0  0  0
    9.9223  -16.8357   19.8580 N   0  0  0  0  0  0  0  0  0  0  0  0
   11.2066  -16.6599   21.9147 C   0  0  0  0  0  0  0  0  0  0  0  0
   11.1182  -17.9125   21.9845 O   0  0  0  0  0  0  0  0  0  0  0  0
   12.0649  -16.0179   22.8341 N   0  0  0  0  0  0  0  0  0  0  0  0
   12.7643  -16.7181   23.8647 C   0  0  1  0  0  0  0  0  0  0  0  0
   14.0664  -16.1029   24.2626 C   0  0  0  0  0  0  0  0  0  0  0  0
   15.0875  -16.1411   23.2119 C   0  0  0  0  0  0  0  0  0  0  0  0
   14.8791  -16.7203   22.1195 O   0  0  0  0  0  0  0  0  0  0  0  0
   11.9506  -16.8980   25.0941 C   0  0  0  0  0  0  0  0  0  0  0  0
   10.8744  -16.2614   25.1832 O   0  0  0  0  0  0  0  0  0  0  0  0
   16.3069  -15.5284   23.4226 O   0  0  0  0  0  0  0  0  0  0  0  0
   12.3397  -17.7337   26.1260 O   0  0  0  0  0  0  0  0  0  0  0  0
  2  3  1  0
  2  1  1  1
  4  3  1  0
  4  8  1  0
  5  4  2  0
  6  2  1  0
  7  6  2  0
  9 10  1  0
 11 10  1  1
 11 12  1  0
 12  6  1  0
 13 11  1  0
 13 15  1  0
 14 13  2  0
 16 15  1  0
 16 17  1  1
 16 20  1  0
 18 22  1  0
 18 17  1  0
 19 18  2  0
 20 21  2  0
 20 23  1  0
M  END
$$$$
