DSD.pdb
     RDKit          3D

 23 22  0  0  1  0  0  0  0  0999 V2000
   11.1575  -16.5316   18.2441 N   0  0  0  0  0  0  0  0  0  0  0  0
   10.9455  -17.5157   19.2529 C   0  0  1  0  0  0  0  0  0  0  0  0
   11.6683  -18.7874   18.8043 C   0  0  0  0  0  0  0  0  0  0  0  0
   11.1539  -19.1263   17.4432 C   0  0  0  0  0  0  0  0  0  0  0  0
    9.9356  -19.0981   17.1641 O   0  0  0  0  0  0  0  0  0  0  0  0
   11.3547  -17.1034   20.6100 C   0  0  0  0  0  0  0  0  0  0  0  0
   12.5890  -17.0991   20.8531 O   0  0  0  0  0  0  0  0  0  0  0  0
   12.0192  -19.4926   16.4133 O   0  0  0  0  0  0  0  0  0  0  0  0
    8.7024  -15.9563   23.4102 O   0  0  0  0  0  0  0  0  0  0  0  0
    9.9632  -15.3865   23.5548 C   0  0  0  0  0  0  0  0  0  0  0  0
   11.0136  -16.2988   22.9046 C   0  0  2  0  0  0  0  0  0  0  0  0
   10.4671  -16.7182   21.6416 N   0  0  0  0  0  0  0  0  0  0  0  0
   11.1947  -17.4354   23.8477 C   0  0  0  0  0  0  0  0  0  0  0  0
   10.5011  -18.4712   23.6804 O   0  0  0  0  0  0  0  0  0  0  0  0
   12.1022  -17.4300   24.9297 N   0  0  0  0  0  0  0  0  0  0  0  0
   12.2700  -18.5433   25.8093 C   0  0  1  0  0  0  0  0  0  0  0  0
   13.6304  -18.6575   26.4168 C   0  0  0  0  0  0  0  0  0  0  0  0
   14.6914  -18.9473   25.4482 C   0  0  0  0  0  0  0  0  0  0  0  0
   14.4289  -19.2023   24.2489 O   0  0  0  0  0  0  0  0  0  0  0  0
   11.2754  -18.5620   26.9122 C   0  0  0  0  0  0  0  0  0  0  0  0
   10.5177  -17.5710   27.0351 O   0  0  0  0  0  0  0  0  0  0  0  0
   16.0100  -18.9411   25.8580 O   0  0  0  0  0  0  0  0  0  0  0  0
   11.1632  -19.6236   27.7926 O   0  0  0  0  0  0  0  0  0  0  0  0
  2  3  1  0
  2  1  1  6
  4  3  1  0
  4  8  1  0
  5  4  2  0
  6  2  1  0
  7  6  2  0
  9 10  1  0
 11 10  1  1
 11 12  1  0
 12  6  1  0
 13 11  1  0
 13 15  1  0
 14 13  2  0
 16 15  1  0
 16 17  1  1
 16 20  1  0
 18 22  1  0
 18 17  1  0
 19 18  2  0
 20 21  2  0
 20 23  1  0
M  END
$$$$
