DSD.pdb
     RDKit          3D

 23 22  0  0  1  0  0  0  0  0999 V2000
    8.1676  -13.3055   16.0725 N   0  0  0  0  0  0  0  0  0  0  0  0
    8.0998  -14.4862   16.8678 C   0  0  1  0  0  0  0  0  0  0  0  0
    9.0084  -15.5275   16.2112 C   0  0  0  0  0  0  0  0  0  0  0  0
    8.4874  -15.7540   14.8295 C   0  0  0  0  0  0  0  0  0  0  0  0
    7.5344  -16.5281   14.5942 O   0  0  0  0  0  0  0  0  0  0  0  0
    8.4340  -14.2885   18.2920 C   0  0  0  0  0  0  0  0  0  0  0  0
    9.4651  -13.6131   18.5439 O   0  0  0  0  0  0  0  0  0  0  0  0
    9.0471  -15.1050   13.7299 O   0  0  0  0  0  0  0  0  0  0  0  0
    6.1514  -15.4087   21.6691 O   0  0  0  0  0  0  0  0  0  0  0  0
    7.0002  -14.3081   21.6090 C   0  0  0  0  0  0  0  0  0  0  0  0
    8.2017  -14.6382   20.7112 C   0  0  2  0  0  0  0  0  0  0  0  0
    7.6854  -14.7989   19.3780 N   0  0  0  0  0  0  0  0  0  0  0  0
    8.7706  -15.9017   21.2533 C   0  0  0  0  0  0  0  0  0  0  0  0
    8.7924  -16.9175   20.5119 O   0  0  0  0  0  0  0  0  0  0  0  0
    9.2932  -16.0395   22.5579 N   0  0  0  0  0  0  0  0  0  0  0  0
   10.5499  -16.6623   22.8304 C   0  0  1  0  0  0  0  0  0  0  0  0
   11.7128  -16.0590   22.1119 C   0  0  0  0  0  0  0  0  0  0  0  0
   12.9916  -16.7180   22.3923 C   0  0  0  0  0  0  0  0  0  0  0  0
   13.0796  -17.6397   23.2378 O   0  0  0  0  0  0  0  0  0  0  0  0
   10.8759  -16.6937   24.2791 C   0  0  0  0  0  0  0  0  0  0  0  0
   10.2682  -15.8987   25.0341 O   0  0  0  0  0  0  0  0  0  0  0  0
   14.1272  -16.3205   21.7148 O   0  0  0  0  0  0  0  0  0  0  0  0
   11.8148  -17.5604   24.8100 O   0  0  0  0  0  0  0  0  0  0  0  0
  2  3  1  0
  2  1  1  6
  4  3  1  0
  4  8  1  0
  5  4  2  0
  6  2  1  0
  7  6  2  0
  9 10  1  0
 11 10  1  1
 11 12  1  0
 12  6  1  0
 13 11  1  0
 13 15  1  0
 14 13  2  0
 16 15  1  0
 16 17  1  6
 16 20  1  0
 18 22  1  0
 18 17  1  0
 19 18  2  0
 20 21  2  0
 20 23  1  0
M  END
$$$$
