DSD.pdb
     RDKit          3D

 23 22  0  0  1  0  0  0  0  0999 V2000
   10.6947  -16.3142   19.2695 N   0  0  0  0  0  0  0  0  0  0  0  0
    9.6358  -16.4001   20.2195 C   0  0  1  0  0  0  0  0  0  0  0  0
    9.1109  -17.8368   20.1840 C   0  0  0  0  0  0  0  0  0  0  0  0
    8.3490  -17.9931   18.9085 C   0  0  0  0  0  0  0  0  0  0  0  0
    8.6388  -17.3520   17.8751 O   0  0  0  0  0  0  0  0  0  0  0  0
   10.0020  -15.9848   21.5879 C   0  0  0  0  0  0  0  0  0  0  0  0
   11.2302  -15.9348   21.8556 O   0  0  0  0  0  0  0  0  0  0  0  0
    7.2696  -18.8703   18.8134 O   0  0  0  0  0  0  0  0  0  0  0  0
    7.2945  -15.5093   24.6141 O   0  0  0  0  0  0  0  0  0  0  0  0
    8.4242  -14.7016   24.6953 C   0  0  0  0  0  0  0  0  0  0  0  0
    9.5783  -15.3588   23.9241 C   0  0  2  0  0  0  0  0  0  0  0  0
    9.0801  -15.6440   22.6049 N   0  0  0  0  0  0  0  0  0  0  0  0
    9.9125  -16.5951   24.6816 C   0  0  0  0  0  0  0  0  0  0  0  0
    9.3825  -17.6790   24.3266 O   0  0  0  0  0  0  0  0  0  0  0  0
   10.7939  -16.6344   25.7842 N   0  0  0  0  0  0  0  0  0  0  0  0
   11.0863  -17.8338   26.5036 C   0  0  1  0  0  0  0  0  0  0  0  0
   12.4781  -18.3458   26.3214 C   0  0  0  0  0  0  0  0  0  0  0  0
   12.7444  -19.6055   27.0217 C   0  0  0  0  0  0  0  0  0  0  0  0
   13.9145  -19.9725   27.2833 O   0  0  0  0  0  0  0  0  0  0  0  0
   10.8345  -17.7074   27.9619 C   0  0  0  0  0  0  0  0  0  0  0  0
   10.5946  -16.5649   28.4186 O   0  0  0  0  0  0  0  0  0  0  0  0
   11.6893  -20.4098   27.4044 O   0  0  0  0  0  0  0  0  0  0  0  0
   10.8568  -18.7959   28.8160 O   0  0  0  0  0  0  0  0  0  0  0  0
  2  3  1  0
  2  1  1  6
  4  3  1  0
  4  8  1  0
  5  4  2  0
  6  2  1  0
  7  6  2  0
  9 10  1  0
 11 10  1  1
 11 12  1  0
 12  6  1  0
 13 11  1  0
 13 15  1  0
 14 13  2  0
 16 15  1  0
 16 17  1  1
 16 20  1  0
 18 22  1  0
 18 17  1  0
 19 18  2  0
 20 21  2  0
 20 23  1  0
M  END
$$$$
