DSD.pdb
     RDKit          3D

 23 22  0  0  1  0  0  0  0  0999 V2000
   14.8233  -14.4049   16.1184 N   0  0  0  0  0  0  0  0  0  0  0  0
   13.8206  -15.2291   16.7069 C   0  0  1  0  0  0  0  0  0  0  0  0
   14.3181  -16.6739   16.6281 C   0  0  0  0  0  0  0  0  0  0  0  0
   14.2975  -17.0658   15.1866 C   0  0  0  0  0  0  0  0  0  0  0  0
   15.3056  -16.9679   14.4539 O   0  0  0  0  0  0  0  0  0  0  0  0
   13.4463  -14.8536   18.0846 C   0  0  0  0  0  0  0  0  0  0  0  0
   14.3818  -14.5113   18.8529 O   0  0  0  0  0  0  0  0  0  0  0  0
   13.1406  -17.5637   14.5888 O   0  0  0  0  0  0  0  0  0  0  0  0
    9.7108  -15.3126   19.6132 O   0  0  0  0  0  0  0  0  0  0  0  0
   10.3991  -14.2089   20.1066 C   0  0  0  0  0  0  0  0  0  0  0  0
   11.9098  -14.4393   19.9545 C   0  0  2  0  0  0  0  0  0  0  0  0
   12.1267  -14.8521   18.5934 N   0  0  0  0  0  0  0  0  0  0  0  0
   12.2514  -15.5089   20.9308 C   0  0  0  0  0  0  0  0  0  0  0  0
   12.2855  -16.7003   20.5293 O   0  0  0  0  0  0  0  0  0  0  0  0
   12.5428  -15.2746   22.2926 N   0  0  0  0  0  0  0  0  0  0  0  0
   12.9102  -16.3158   23.1995 C   0  0  1  0  0  0  0  0  0  0  0  0
   14.2261  -16.1150   23.8782 C   0  0  0  0  0  0  0  0  0  0  0  0
   15.3256  -15.8002   22.9616 C   0  0  0  0  0  0  0  0  0  0  0  0
   15.4410  -16.3809   21.8563 O   0  0  0  0  0  0  0  0  0  0  0  0
   11.8873  -16.5533   24.2498 C   0  0  0  0  0  0  0  0  0  0  0  0
   12.0641  -17.5156   25.0334 O   0  0  0  0  0  0  0  0  0  0  0  0
   16.2576  -14.8451   23.3163 O   0  0  0  0  0  0  0  0  0  0  0  0
   10.7642  -15.7565   24.3858 O   0  0  0  0  0  0  0  0  0  0  0  0
  2  3  1  0
  2  1  1  1
  4  3  1  0
  4  8  1  0
  5  4  2  0
  6  2  1  0
  7  6  2  0
  9 10  1  0
 11 10  1  6
 11 12  1  0
 12  6  1  0
 13 11  1  0
 13 15  1  0
 14 13  2  0
 16 15  1  0
 16 17  1  1
 16 20  1  0
 18 22  1  0
 18 17  1  0
 19 18  2  0
 20 21  2  0
 20 23  1  0
M  END
$$$$
