DSD.pdb
     RDKit          3D

 23 22  0  0  1  0  0  0  0  0999 V2000
    9.1460  -18.2034   18.8317 N   0  0  0  0  0  0  0  0  0  0  0  0
   10.3649  -17.5313   18.5256 C   0  0  1  0  0  0  0  0  0  0  0  0
   10.1129  -16.6816   17.2784 C   0  0  0  0  0  0  0  0  0  0  0  0
    9.7825  -17.6232   16.1666 C   0  0  0  0  0  0  0  0  0  0  0  0
   10.5836  -18.4985   15.7731 O   0  0  0  0  0  0  0  0  0  0  0  0
   10.9189  -16.7274   19.6328 C   0  0  0  0  0  0  0  0  0  0  0  0
   11.9675  -16.0759   19.3908 O   0  0  0  0  0  0  0  0  0  0  0  0
    8.5528  -17.5667   15.5121 O   0  0  0  0  0  0  0  0  0  0  0  0
    9.2899  -16.4928   23.4243 O   0  0  0  0  0  0  0  0  0  0  0  0
    9.9772  -15.3914   22.9245 C   0  0  0  0  0  0  0  0  0  0  0  0
   11.0457  -15.8652   21.9283 C   0  0  2  0  0  0  0  0  0  0  0  0
   10.3597  -16.6401   20.9290 N   0  0  0  0  0  0  0  0  0  0  0  0
   11.9986  -16.6853   22.7241 C   0  0  0  0  0  0  0  0  0  0  0  0
   11.7812  -17.9190   22.8364 O   0  0  0  0  0  0  0  0  0  0  0  0
   13.1429  -16.1669   23.3691 N   0  0  0  0  0  0  0  0  0  0  0  0
   14.0421  -16.9776   24.1278 C   0  0  1  0  0  0  0  0  0  0  0  0
   15.4406  -16.4564   24.2002 C   0  0  0  0  0  0  0  0  0  0  0  0
   15.9809  -16.0230   22.9086 C   0  0  0  0  0  0  0  0  0  0  0  0
   15.8630  -16.7312   21.8806 O   0  0  0  0  0  0  0  0  0  0  0  0
   13.5721  -17.2156   25.5165 C   0  0  0  0  0  0  0  0  0  0  0  0
   14.2273  -18.0125   26.2287 O   0  0  0  0  0  0  0  0  0  0  0  0
   16.6345  -14.8103   22.8145 O   0  0  0  0  0  0  0  0  0  0  0  0
   12.4512  -16.5938   26.0376 O   0  0  0  0  0  0  0  0  0  0  0  0
  2  3  1  0
  2  1  1  1
  4  3  1  0
  4  8  1  0
  5  4  2  0
  6  2  1  0
  7  6  2  0
  9 10  1  0
 11 10  1  1
 11 12  1  0
 12  6  1  0
 13 11  1  0
 13 15  1  0
 14 13  2  0
 16 15  1  0
 16 17  1  1
 16 20  1  0
 18 22  1  0
 18 17  1  0
 19 18  2  0
 20 21  2  0
 20 23  1  0
M  END
$$$$
