DSD.pdb
     RDKit          3D

 23 22  0  0  1  0  0  0  0  0999 V2000
   13.1798  -20.7866   18.5049 N   0  0  0  0  0  0  0  0  0  0  0  0
   13.7183  -19.4831   18.7098 C   0  0  1  0  0  0  0  0  0  0  0  0
   13.5507  -18.7124   17.3988 C   0  0  0  0  0  0  0  0  0  0  0  0
   14.2864  -19.4749   16.3456 C   0  0  0  0  0  0  0  0  0  0  0  0
   15.5340  -19.5512   16.3256 O   0  0  0  0  0  0  0  0  0  0  0  0
   13.1387  -18.7508   19.8530 C   0  0  0  0  0  0  0  0  0  0  0  0
   13.6373  -17.6266   20.1178 O   0  0  0  0  0  0  0  0  0  0  0  0
   13.6065  -20.1424   15.3278 O   0  0  0  0  0  0  0  0  0  0  0  0
    9.5890  -19.6025   21.6403 O   0  0  0  0  0  0  0  0  0  0  0  0
   10.1376  -18.3269   21.7251 C   0  0  0  0  0  0  0  0  0  0  0  0
   11.6682  -18.4327   21.7935 C   0  0  2  0  0  0  0  0  0  0  0  0
   12.0759  -19.2195   20.6601 N   0  0  0  0  0  0  0  0  0  0  0  0
   11.9649  -19.1073   23.0861 C   0  0  0  0  0  0  0  0  0  0  0  0
   12.3063  -20.3176   23.0677 O   0  0  0  0  0  0  0  0  0  0  0  0
   11.8882  -18.4740   24.3460 N   0  0  0  0  0  0  0  0  0  0  0  0
   12.0916  -19.1673   25.5786 C   0  0  1  0  0  0  0  0  0  0  0  0
   11.0985  -20.2486   25.8562 C   0  0  0  0  0  0  0  0  0  0  0  0
   11.2696  -20.8917   27.1621 C   0  0  0  0  0  0  0  0  0  0  0  0
   12.1054  -21.8106   27.3330 O   0  0  0  0  0  0  0  0  0  0  0  0
   13.4503  -19.7566   25.6913 C   0  0  0  0  0  0  0  0  0  0  0  0
   14.0688  -19.6016   26.7707 O   0  0  0  0  0  0  0  0  0  0  0  0
   10.4975  -20.4819   28.2310 O   0  0  0  0  0  0  0  0  0  0  0  0
   14.0427  -20.4595   24.6571 O   0  0  0  0  0  0  0  0  0  0  0  0
  2  3  1  0
  2  1  1  6
  4  3  1  0
  4  8  1  0
  5  4  2  0
  6  2  1  0
  7  6  2  0
  9 10  1  0
 11 10  1  6
 11 12  1  0
 12  6  1  0
 13 11  1  0
 13 15  1  0
 14 13  2  0
 16 15  1  0
 16 17  1  6
 16 20  1  0
 18 22  1  0
 18 17  1  0
 19 18  2  0
 20 21  2  0
 20 23  1  0
M  END
$$$$
