DSD.pdb
     RDKit          3D

 23 22  0  0  1  0  0  0  0  0999 V2000
    3.9699  -19.7407   21.8957 N   0  0  0  0  0  0  0  0  0  0  0  0
    5.0627  -20.5066   22.3959 C   0  0  1  0  0  0  0  0  0  0  0  0
    5.5628  -21.3857   21.2478 C   0  0  0  0  0  0  0  0  0  0  0  0
    4.5571  -21.2830   20.1478 C   0  0  0  0  0  0  0  0  0  0  0  0
    3.3393  -21.4944   20.3350 O   0  0  0  0  0  0  0  0  0  0  0  0
    6.1535  -19.7079   22.9887 C   0  0  0  0  0  0  0  0  0  0  0  0
    7.3127  -20.1918   22.9194 O   0  0  0  0  0  0  0  0  0  0  0  0
    4.9367  -20.9432   18.8501 O   0  0  0  0  0  0  0  0  0  0  0  0
    7.8428  -15.6867   25.0133 O   0  0  0  0  0  0  0  0  0  0  0  0
    6.7509  -16.3637   24.4798 C   0  0  0  0  0  0  0  0  0  0  0  0
    7.1294  -17.8322   24.2369 C   0  0  2  0  0  0  0  0  0  0  0  0
    5.9876  -18.4534   23.6204 N   0  0  0  0  0  0  0  0  0  0  0  0
    7.4228  -18.3971   25.5818 C   0  0  0  0  0  0  0  0  0  0  0  0
    6.4623  -18.6183   26.3631 O   0  0  0  0  0  0  0  0  0  0  0  0
    8.7206  -18.7049   26.0457 N   0  0  0  0  0  0  0  0  0  0  0  0
    8.9781  -19.2108   27.3569 C   0  0  1  0  0  0  0  0  0  0  0  0
    9.1747  -20.6903   27.4261 C   0  0  0  0  0  0  0  0  0  0  0  0
    9.4254  -21.1939   28.7795 C   0  0  0  0  0  0  0  0  0  0  0  0
    9.3873  -20.4343   29.7764 O   0  0  0  0  0  0  0  0  0  0  0  0
   10.1481  -18.5648   28.0048 C   0  0  0  0  0  0  0  0  0  0  0  0
   10.9521  -17.9399   27.2737 O   0  0  0  0  0  0  0  0  0  0  0  0
    9.7101  -22.5318   28.9681 O   0  0  0  0  0  0  0  0  0  0  0  0
   10.3722  -18.6319   29.3686 O   0  0  0  0  0  0  0  0  0  0  0  0
  2  3  1  0
  2  1  1  6
  4  3  1  0
  4  8  1  0
  5  4  2  0
  6  2  1  0
  7  6  2  0
  9 10  1  0
 11 10  1  1
 11 12  1  0
 12  6  1  0
 13 11  1  0
 13 15  1  0
 14 13  2  0
 16 15  1  0
 16 17  1  6
 16 20  1  0
 18 22  1  0
 18 17  1  0
 19 18  2  0
 20 21  2  0
 20 23  1  0
M  END
$$$$
