DSD.pdb
     RDKit          3D

 23 22  0  0  1  0  0  0  0  0999 V2000
    8.5317  -16.5402   16.9748 N   0  0  0  0  0  0  0  0  0  0  0  0
    8.9839  -17.2905   18.0989 C   0  0  1  0  0  0  0  0  0  0  0  0
   10.1433  -18.1673   17.6216 C   0  0  0  0  0  0  0  0  0  0  0  0
    9.5953  -19.0902   16.5824 C   0  0  0  0  0  0  0  0  0  0  0  0
    8.4214  -19.0002   16.1621 O   0  0  0  0  0  0  0  0  0  0  0  0
    9.3602  -16.4760   19.2711 C   0  0  0  0  0  0  0  0  0  0  0  0
   10.5907  -16.3208   19.4820 O   0  0  0  0  0  0  0  0  0  0  0  0
   10.3774  -20.1033   16.0296 O   0  0  0  0  0  0  0  0  0  0  0  0
    6.7327  -15.3434   22.1111 O   0  0  0  0  0  0  0  0  0  0  0  0
    7.7549  -14.4183   21.9257 C   0  0  0  0  0  0  0  0  0  0  0  0
    8.9596  -15.1122   21.2732 C   0  0  2  0  0  0  0  0  0  0  0  0
    8.4456  -15.8664   20.1611 N   0  0  0  0  0  0  0  0  0  0  0  0
    9.5381  -15.9859   22.3296 C   0  0  0  0  0  0  0  0  0  0  0  0
    9.3084  -17.2215   22.2798 O   0  0  0  0  0  0  0  0  0  0  0  0
   10.3362  -15.5169   23.3960 N   0  0  0  0  0  0  0  0  0  0  0  0
   10.9115  -16.3829   24.3761 C   0  0  1  0  0  0  0  0  0  0  0  0
   12.3261  -16.0634   24.7359 C   0  0  0  0  0  0  0  0  0  0  0  0
   13.3146  -16.6067   23.8001 C   0  0  0  0  0  0  0  0  0  0  0  0
   13.0652  -17.6168   23.1003 O   0  0  0  0  0  0  0  0  0  0  0  0
   10.1224  -16.4360   25.6332 C   0  0  0  0  0  0  0  0  0  0  0  0
    9.2118  -15.5889   25.7899 O   0  0  0  0  0  0  0  0  0  0  0  0
   14.5485  -15.9983   23.6814 O   0  0  0  0  0  0  0  0  0  0  0  0
   10.3594  -17.3775   26.6191 O   0  0  0  0  0  0  0  0  0  0  0  0
  2  3  1  0
  2  1  1  6
  4  3  1  0
  4  8  1  0
  5  4  2  0
  6  2  1  0
  7  6  2  0
  9 10  1  0
 11 10  1  1
 11 12  1  0
 12  6  1  0
 13 11  1  0
 13 15  1  0
 14 13  2  0
 16 15  1  0
 16 17  1  1
 16 20  1  0
 18 22  1  0
 18 17  1  0
 19 18  2  0
 20 21  2  0
 20 23  1  0
M  END
$$$$
