DSD.pdb
     RDKit          3D

 23 22  0  0  1  0  0  0  0  0999 V2000
    8.2210  -16.6698   15.8095 N   0  0  0  0  0  0  0  0  0  0  0  0
    7.8478  -17.1174   17.1100 C   0  0  1  0  0  0  0  0  0  0  0  0
    8.3272  -18.5639   17.2462 C   0  0  0  0  0  0  0  0  0  0  0  0
    7.6000  -19.3650   16.2160 C   0  0  0  0  0  0  0  0  0  0  0  0
    6.3625  -19.2836   16.0584 O   0  0  0  0  0  0  0  0  0  0  0  0
    8.3386  -16.2717   18.2159 C   0  0  0  0  0  0  0  0  0  0  0  0
    9.5455  -15.9199   18.1680 O   0  0  0  0  0  0  0  0  0  0  0  0
    8.2768  -20.2479   15.3758 O   0  0  0  0  0  0  0  0  0  0  0  0
    6.2691  -15.6632   21.6601 O   0  0  0  0  0  0  0  0  0  0  0  0
    7.0718  -14.5904   21.2861 C   0  0  0  0  0  0  0  0  0  0  0  0
    8.1931  -15.0890   20.3628 C   0  0  2  0  0  0  0  0  0  0  0  0
    7.5565  -15.8357   19.3107 N   0  0  0  0  0  0  0  0  0  0  0  0
    9.0630  -15.9433   21.2157 C   0  0  0  0  0  0  0  0  0  0  0  0
    8.8553  -17.1836   21.2333 O   0  0  0  0  0  0  0  0  0  0  0  0
   10.1175  -15.4507   22.0155 N   0  0  0  0  0  0  0  0  0  0  0  0
   10.9617  -16.2977   22.7972 C   0  0  1  0  0  0  0  0  0  0  0  0
   12.3205  -15.7403   23.0722 C   0  0  0  0  0  0  0  0  0  0  0  0
   13.2555  -16.7107   23.6485 C   0  0  0  0  0  0  0  0  0  0  0  0
   13.1872  -17.9305   23.3663 O   0  0  0  0  0  0  0  0  0  0  0  0
   10.3530  -16.6769   24.0979 C   0  0  0  0  0  0  0  0  0  0  0  0
   10.9122  -17.5778   24.7664 O   0  0  0  0  0  0  0  0  0  0  0  0
   14.2348  -16.2795   24.5214 O   0  0  0  0  0  0  0  0  0  0  0  0
    9.2061  -16.0745   24.5843 O   0  0  0  0  0  0  0  0  0  0  0  0
  2  3  1  0
  2  1  1  6
  4  3  1  0
  4  8  1  0
  5  4  2  0
  6  2  1  0
  7  6  2  0
  9 10  1  0
 11 10  1  1
 11 12  1  0
 12  6  1  0
 13 11  1  0
 13 15  1  0
 14 13  2  0
 16 15  1  0
 16 17  1  1
 16 20  1  0
 18 22  1  0
 18 17  1  0
 19 18  2  0
 20 21  2  0
 20 23  1  0
M  END
$$$$
