FGF.pdb
     RDKit          3D

 27 28  0  0  1  0  0  0  0  0999 V2000
    6.9131  -17.7336   19.3205 N   0  0  0  0  0  0  0  0  0  0  0  0
    7.3747  -16.6371   20.1425 C   0  0  1  0  0  0  0  0  0  0  0  0
    6.4287  -15.4550   20.0606 C   0  0  0  0  0  0  0  0  0  0  0  0
    7.0500  -14.3383   20.8405 C   0  0  0  0  0  0  0  0  0  0  0  0
    7.8474  -13.3852   20.2417 C   0  0  0  0  0  0  0  0  0  0  0  0
    8.4011  -12.3719   20.9968 C   0  0  0  0  0  0  0  0  0  0  0  0
    8.1698  -12.2932   22.3545 C   0  0  0  0  0  0  0  0  0  0  0  0
    7.3655  -13.2500   22.9734 C   0  0  0  0  0  0  0  0  0  0  0  0
    6.8241  -14.2515   22.1996 C   0  0  0  0  0  0  0  0  0  0  0  0
    7.5235  -17.1279   21.5274 C   0  0  0  0  0  0  0  0  0  0  0  0
    6.5206  -17.5877   22.1184 O   0  0  0  0  0  0  0  0  0  0  0  0
    8.7553  -17.1109   22.2443 N   0  0  0  0  0  0  0  0  0  0  0  0
    8.9371  -17.6821   23.5381 C   0  0  0  0  0  0  0  0  0  0  0  0
    9.5573  -16.7024   24.5004 C   0  0  0  0  0  0  0  0  0  0  0  0
   10.2091  -15.7039   24.0999 O   0  0  0  0  0  0  0  0  0  0  0  0
    9.4222  -16.8807   25.9017 N   0  0  0  0  0  0  0  0  0  0  0  0
    9.9867  -15.9643   26.8864 C   0  0  1  0  0  0  0  0  0  0  0  0
    8.9300  -15.3094   27.6981 C   0  0  0  0  0  0  0  0  0  0  0  0
    8.3342  -14.1707   26.9744 C   0  0  0  0  0  0  0  0  0  0  0  0
    7.0639  -14.2000   26.4068 C   0  0  0  0  0  0  0  0  0  0  0  0
    6.5631  -13.0985   25.7500 C   0  0  0  0  0  0  0  0  0  0  0  0
    7.2988  -11.9303   25.6306 C   0  0  0  0  0  0  0  0  0  0  0  0
    8.5569  -11.8984   26.1913 C   0  0  0  0  0  0  0  0  0  0  0  0
    9.0646  -12.9838   26.8451 C   0  0  0  0  0  0  0  0  0  0  0  0
   10.9172  -16.7145   27.7418 C   0  0  0  0  0  0  0  0  0  0  0  0
   11.7494  -15.9892   28.6188 O   0  0  0  0  0  0  0  0  0  0  0  0
   10.9940  -17.9813   27.7157 O   0  0  0  0  0  0  0  0  0  0  0  0
  2  1  1  6
  2 10  1  0
  3  2  1  0
  4  9  1  0
  4  3  1  0
  5  4  2  0
  6  7  2  0
  6  5  1  0
  7  8  1  0
  8  9  2  0
 10 12  1  0
 10 11  2  0
 12 13  1  0
 14 15  2  0
 14 13  1  0
 16 14  1  0
 17 25  1  0
 17 16  1  0
 17 18  1  1
 19 18  1  0
 20 19  2  0
 21 20  1  0
 22 21  2  0
 23 22  1  0
 23 24  2  0
 24 19  1  0
 25 26  1  0
 27 25  2  0
M  END
$$$$
