FGF.pdb
     RDKit          3D

 27 28  0  0  1  0  0  0  0  0999 V2000
    6.4732  -16.7534   25.2286 N   0  0  0  0  0  0  0  0  0  0  0  0
    6.3273  -16.9671   23.8059 C   0  0  1  0  0  0  0  0  0  0  0  0
    5.8876  -15.6974   23.1034 C   0  0  0  0  0  0  0  0  0  0  0  0
    6.3786  -14.5463   23.9252 C   0  0  0  0  0  0  0  0  0  0  0  0
    7.4887  -13.8119   23.5631 C   0  0  0  0  0  0  0  0  0  0  0  0
    7.9083  -12.7582   24.3486 C   0  0  0  0  0  0  0  0  0  0  0  0
    7.2309  -12.4214   25.5022 C   0  0  0  0  0  0  0  0  0  0  0  0
    6.1067  -13.1552   25.8807 C   0  0  0  0  0  0  0  0  0  0  0  0
    5.7071  -14.2021   25.0812 C   0  0  0  0  0  0  0  0  0  0  0  0
    7.6119  -17.4706   23.2795 C   0  0  0  0  0  0  0  0  0  0  0  0
    8.3364  -16.6999   22.6102 O   0  0  0  0  0  0  0  0  0  0  0  0
    8.0862  -18.7984   23.4884 N   0  0  0  0  0  0  0  0  0  0  0  0
    9.2944  -19.1188   24.1744 C   0  0  0  0  0  0  0  0  0  0  0  0
   10.3337  -18.0400   24.0115 C   0  0  0  0  0  0  0  0  0  0  0  0
   10.8698  -17.8003   22.8992 O   0  0  0  0  0  0  0  0  0  0  0  0
   10.7417  -17.2551   25.1211 N   0  0  0  0  0  0  0  0  0  0  0  0
   11.6552  -16.1230   25.0119 C   0  0  1  0  0  0  0  0  0  0  0  0
   11.1197  -14.9161   25.6909 C   0  0  0  0  0  0  0  0  0  0  0  0
   10.9495  -15.1523   27.1368 C   0  0  0  0  0  0  0  0  0  0  0  0
    9.9387  -15.9443   27.6730 C   0  0  0  0  0  0  0  0  0  0  0  0
    9.8398  -16.1304   29.0335 C   0  0  0  0  0  0  0  0  0  0  0  0
   10.7350  -15.5409   29.9118 C   0  0  0  0  0  0  0  0  0  0  0  0
   11.7368  -14.7559   29.3839 C   0  0  0  0  0  0  0  0  0  0  0  0
   11.8454  -14.5639   28.0368 C   0  0  0  0  0  0  0  0  0  0  0  0
   12.9526  -16.5142   25.5814 C   0  0  0  0  0  0  0  0  0  0  0  0
   13.0348  -17.7394   26.2741 O   0  0  0  0  0  0  0  0  0  0  0  0
   13.9899  -15.7910   25.4702 O   0  0  0  0  0  0  0  0  0  0  0  0
  2  1  1  1
  2 10  1  0
  3  2  1  0
  4  9  1  0
  4  3  1  0
  5  4  2  0
  6  7  2  0
  6  5  1  0
  7  8  1  0
  8  9  2  0
 10 12  1  0
 10 11  2  0
 12 13  1  0
 14 15  2  0
 14 13  1  0
 16 14  1  0
 17 25  1  0
 17 16  1  0
 17 18  1  1
 19 18  1  0
 20 19  2  0
 21 20  1  0
 22 21  2  0
 23 22  1  0
 23 24  2  0
 24 19  1  0
 25 26  1  0
 27 25  2  0
M  END
$$$$
