FGF.pdb
     RDKit          3D

 27 28  0  0  1  0  0  0  0  0999 V2000
    8.0988  -15.8791   22.2476 N   0  0  0  0  0  0  0  0  0  0  0  0
    7.8058  -16.8979   21.2641 C   0  0  1  0  0  0  0  0  0  0  0  0
    7.4317  -16.2806   19.9307 C   0  0  0  0  0  0  0  0  0  0  0  0
    7.6108  -14.8003   20.0644 C   0  0  0  0  0  0  0  0  0  0  0  0
    6.6404  -13.9952   20.6239 C   0  0  0  0  0  0  0  0  0  0  0  0
    6.8451  -12.6348   20.7287 C   0  0  0  0  0  0  0  0  0  0  0  0
    8.0150  -12.0583   20.2795 C   0  0  0  0  0  0  0  0  0  0  0  0
    9.0050  -12.8600   19.7116 C   0  0  0  0  0  0  0  0  0  0  0  0
    8.7783  -14.2145   19.6177 C   0  0  0  0  0  0  0  0  0  0  0  0
    8.9825  -17.7829   21.1500 C   0  0  0  0  0  0  0  0  0  0  0  0
    8.8037  -19.0090   20.9727 O   0  0  0  0  0  0  0  0  0  0  0  0
   10.3290  -17.3224   21.2301 N   0  0  0  0  0  0  0  0  0  0  0  0
   11.4268  -18.1268   21.6556 C   0  0  0  0  0  0  0  0  0  0  0  0
   11.7980  -17.8536   23.0902 C   0  0  0  0  0  0  0  0  0  0  0  0
   12.9974  -17.7554   23.4561 O   0  0  0  0  0  0  0  0  0  0  0  0
   10.7935  -17.6975   24.0802 N   0  0  0  0  0  0  0  0  0  0  0  0
   10.9464  -16.8426   25.2523 C   0  0  1  0  0  0  0  0  0  0  0  0
    9.6367  -16.5187   25.8721 C   0  0  0  0  0  0  0  0  0  0  0  0
    9.8033  -15.6063   27.0188 C   0  0  0  0  0  0  0  0  0  0  0  0
   10.1357  -16.0346   28.3004 C   0  0  0  0  0  0  0  0  0  0  0  0
   10.2837  -15.1290   29.3268 C   0  0  0  0  0  0  0  0  0  0  0  0
   10.1084  -13.7695   29.1238 C   0  0  0  0  0  0  0  0  0  0  0  0
    9.7789  -13.3425   27.8559 C   0  0  0  0  0  0  0  0  0  0  0  0
    9.6295  -14.2304   26.8300 C   0  0  0  0  0  0  0  0  0  0  0  0
   11.8287  -17.5210   26.2124 C   0  0  0  0  0  0  0  0  0  0  0  0
   11.5994  -18.8862   26.4796 O   0  0  0  0  0  0  0  0  0  0  0  0
   12.7801  -16.9225   26.8021 O   0  0  0  0  0  0  0  0  0  0  0  0
  2  1  1  1
  2 10  1  0
  3  2  1  0
  4  9  1  0
  4  3  1  0
  5  4  2  0
  6  7  2  0
  6  5  1  0
  7  8  1  0
  8  9  2  0
 10 12  1  0
 10 11  2  0
 12 13  1  0
 14 15  2  0
 14 13  1  0
 16 14  1  0
 17 25  1  0
 17 16  1  0
 17 18  1  1
 19 18  1  0
 20 19  2  0
 21 20  1  0
 22 21  2  0
 23 22  1  0
 23 24  2  0
 24 19  1  0
 25 26  1  0
 27 25  2  0
M  END
$$$$
