FGF.pdb
     RDKit          3D

 27 28  0  0  1  0  0  0  0  0999 V2000
    4.8532  -18.4106   22.7524 N   0  0  0  0  0  0  0  0  0  0  0  0
    4.6721  -17.8087   21.4502 C   0  0  1  0  0  0  0  0  0  0  0  0
    3.2578  -17.2894   21.2786 C   0  0  0  0  0  0  0  0  0  0  0  0
    2.3366  -18.4587   21.4380 C   0  0  0  0  0  0  0  0  0  0  0  0
    1.4799  -18.5717   22.5134 C   0  0  0  0  0  0  0  0  0  0  0  0
    0.6466  -19.6658   22.6228 C   0  0  0  0  0  0  0  0  0  0  0  0
    0.6540  -20.6599   21.6663 C   0  0  0  0  0  0  0  0  0  0  0  0
    1.5149  -20.5588   20.5736 C   0  0  0  0  0  0  0  0  0  0  0  0
    2.3370  -19.4583   20.4859 C   0  0  0  0  0  0  0  0  0  0  0  0
    5.6750  -16.7362   21.2927 C   0  0  0  0  0  0  0  0  0  0  0  0
    5.4200  -15.7750   20.5325 O   0  0  0  0  0  0  0  0  0  0  0  0
    6.9336  -16.7261   21.9614 N   0  0  0  0  0  0  0  0  0  0  0  0
    7.8998  -15.6851   21.8346 C   0  0  0  0  0  0  0  0  0  0  0  0
    9.1128  -15.9397   22.6916 C   0  0  0  0  0  0  0  0  0  0  0  0
    9.9919  -16.7768   22.3620 O   0  0  0  0  0  0  0  0  0  0  0  0
    9.2996  -15.2343   23.9086 N   0  0  0  0  0  0  0  0  0  0  0  0
    9.0485  -15.8174   25.2220 C   0  0  1  0  0  0  0  0  0  0  0  0
    7.6586  -15.5654   25.6794 C   0  0  0  0  0  0  0  0  0  0  0  0
    7.5029  -14.1820   26.1665 C   0  0  0  0  0  0  0  0  0  0  0  0
    7.7944  -13.7879   27.4690 C   0  0  0  0  0  0  0  0  0  0  0  0
    7.6340  -12.4771   27.8583 C   0  0  0  0  0  0  0  0  0  0  0  0
    7.1801  -11.5101   26.9756 C   0  0  0  0  0  0  0  0  0  0  0  0
    6.8905  -11.8973   25.6854 C   0  0  0  0  0  0  0  0  0  0  0  0
    7.0455  -13.1938   25.2873 C   0  0  0  0  0  0  0  0  0  0  0  0
    9.3256  -17.2592   25.1527 C   0  0  0  0  0  0  0  0  0  0  0  0
    8.3875  -18.0884   24.5046 O   0  0  0  0  0  0  0  0  0  0  0  0
   10.3718  -17.7754   25.6530 O   0  0  0  0  0  0  0  0  0  0  0  0
  2  1  1  1
  2 10  1  0
  3  2  1  0
  4  9  1  0
  4  3  1  0
  5  4  2  0
  6  7  2  0
  6  5  1  0
  7  8  1  0
  8  9  2  0
 10 12  1  0
 10 11  2  0
 12 13  1  0
 14 15  2  0
 14 13  1  0
 16 14  1  0
 17 25  1  0
 17 16  1  0
 17 18  1  6
 19 18  1  0
 20 19  2  0
 21 20  1  0
 22 21  2  0
 23 22  1  0
 23 24  2  0
 24 19  1  0
 25 26  1  0
 27 25  2  0
M  END
$$$$
