FGF.pdb
     RDKit          3D

 27 28  0  0  1  0  0  0  0  0999 V2000
    7.3670  -16.3498   25.5534 N   0  0  0  0  0  0  0  0  0  0  0  0
    7.4770  -16.2453   24.1154 C   0  0  1  0  0  0  0  0  0  0  0  0
    6.8000  -14.9885   23.6041 C   0  0  0  0  0  0  0  0  0  0  0  0
    6.8721  -13.9718   24.7006 C   0  0  0  0  0  0  0  0  0  0  0  0
    7.6962  -12.8684   24.6199 C   0  0  0  0  0  0  0  0  0  0  0  0
    7.7330  -11.9546   25.6529 C   0  0  0  0  0  0  0  0  0  0  0  0
    6.9524  -12.1255   26.7775 C   0  0  0  0  0  0  0  0  0  0  0  0
    6.1144  -13.2364   26.8728 C   0  0  0  0  0  0  0  0  0  0  0  0
    6.0947  -14.1345   25.8297 C   0  0  0  0  0  0  0  0  0  0  0  0
    8.9091  -16.2836   23.7569 C   0  0  0  0  0  0  0  0  0  0  0  0
    9.6050  -15.2579   23.9310 O   0  0  0  0  0  0  0  0  0  0  0  0
    9.5587  -17.4318   23.2173 N   0  0  0  0  0  0  0  0  0  0  0  0
   10.9296  -17.4670   22.8266 C   0  0  0  0  0  0  0  0  0  0  0  0
   11.8483  -17.5707   24.0165 C   0  0  0  0  0  0  0  0  0  0  0  0
   13.0707  -17.8375   23.8873 O   0  0  0  0  0  0  0  0  0  0  0  0
   11.3546  -17.3679   25.3313 N   0  0  0  0  0  0  0  0  0  0  0  0
   12.1252  -17.6658   26.5337 C   0  0  1  0  0  0  0  0  0  0  0  0
   12.6441  -16.4313   27.1748 C   0  0  0  0  0  0  0  0  0  0  0  0
   11.5442  -15.5155   27.5306 C   0  0  0  0  0  0  0  0  0  0  0  0
   10.9766  -15.4517   28.7996 C   0  0  0  0  0  0  0  0  0  0  0  0
    9.9558  -14.5678   29.0683 C   0  0  0  0  0  0  0  0  0  0  0  0
    9.4599  -13.7166   28.0938 C   0  0  0  0  0  0  0  0  0  0  0  0
   10.0197  -13.7776   26.8364 C   0  0  0  0  0  0  0  0  0  0  0  0
   11.0323  -14.6495   26.5575 C   0  0  0  0  0  0  0  0  0  0  0  0
   11.2694  -18.4196   27.4610 C   0  0  0  0  0  0  0  0  0  0  0  0
   11.8575  -18.9569   28.6243 O   0  0  0  0  0  0  0  0  0  0  0  0
   10.0309  -18.6000   27.2493 O   0  0  0  0  0  0  0  0  0  0  0  0
  2  1  1  1
  2 10  1  0
  3  2  1  0
  4  9  1  0
  4  3  1  0
  5  4  2  0
  6  7  2  0
  6  5  1  0
  7  8  1  0
  8  9  2  0
 10 12  1  0
 10 11  2  0
 12 13  1  0
 14 15  2  0
 14 13  1  0
 16 14  1  0
 17 25  1  0
 17 16  1  0
 17 18  1  1
 19 18  1  0
 20 19  2  0
 21 20  1  0
 22 21  2  0
 23 22  1  0
 23 24  2  0
 24 19  1  0
 25 26  1  0
 27 25  2  0
M  END
$$$$
