FGF.pdb
     RDKit          3D

 27 28  0  0  1  0  0  0  0  0999 V2000
    6.4475  -17.0303   22.1516 N   0  0  0  0  0  0  0  0  0  0  0  0
    7.2204  -17.1779   20.9384 C   0  0  1  0  0  0  0  0  0  0  0  0
    6.7324  -16.2308   19.8594 C   0  0  0  0  0  0  0  0  0  0  0  0
    7.1584  -14.8519   20.2577 C   0  0  0  0  0  0  0  0  0  0  0  0
    8.2380  -14.2238   19.6723 C   0  0  0  0  0  0  0  0  0  0  0  0
    8.5976  -12.9520   20.0683 C   0  0  0  0  0  0  0  0  0  0  0  0
    7.8899  -12.2895   21.0497 C   0  0  0  0  0  0  0  0  0  0  0  0
    6.7960  -12.9123   21.6505 C   0  0  0  0  0  0  0  0  0  0  0  0
    6.4561  -14.1811   21.2389 C   0  0  0  0  0  0  0  0  0  0  0  0
    8.6428  -16.9532   21.2657 C   0  0  0  0  0  0  0  0  0  0  0  0
    9.5116  -17.2146   20.4035 O   0  0  0  0  0  0  0  0  0  0  0  0
    9.0956  -16.4499   22.5199 N   0  0  0  0  0  0  0  0  0  0  0  0
   10.4631  -16.4144   22.9223 C   0  0  0  0  0  0  0  0  0  0  0  0
   10.6196  -15.8965   24.3287 C   0  0  0  0  0  0  0  0  0  0  0  0
   11.4577  -15.0035   24.6155 O   0  0  0  0  0  0  0  0  0  0  0  0
    9.8168  -16.4076   25.3812 N   0  0  0  0  0  0  0  0  0  0  0  0
   10.0148  -16.0602   26.7841 C   0  0  1  0  0  0  0  0  0  0  0  0
    8.7369  -15.6964   27.4467 C   0  0  0  0  0  0  0  0  0  0  0  0
    8.0729  -14.5827   26.7437 C   0  0  0  0  0  0  0  0  0  0  0  0
    7.0495  -14.7592   25.8173 C   0  0  0  0  0  0  0  0  0  0  0  0
    6.4660  -13.6751   25.2010 C   0  0  0  0  0  0  0  0  0  0  0  0
    6.8726  -12.3796   25.4776 C   0  0  0  0  0  0  0  0  0  0  0  0
    7.8857  -12.2017   26.3941 C   0  0  0  0  0  0  0  0  0  0  0  0
    8.4722  -13.2684   27.0120 C   0  0  0  0  0  0  0  0  0  0  0  0
   10.6521  -17.1987   27.4610 C   0  0  0  0  0  0  0  0  0  0  0  0
   10.8068  -18.4011   26.7413 O   0  0  0  0  0  0  0  0  0  0  0  0
   11.0629  -17.1336   28.6603 O   0  0  0  0  0  0  0  0  0  0  0  0
  2  1  1  1
  2 10  1  0
  3  2  1  0
  4  9  1  0
  4  3  1  0
  5  4  2  0
  6  7  2  0
  6  5  1  0
  7  8  1  0
  8  9  2  0
 10 12  1  0
 10 11  2  0
 12 13  1  0
 14 15  2  0
 14 13  1  0
 16 14  1  0
 17 25  1  0
 17 16  1  0
 17 18  1  1
 19 18  1  0
 20 19  2  0
 21 20  1  0
 22 21  2  0
 23 22  1  0
 23 24  2  0
 24 19  1  0
 25 26  1  0
 27 25  2  0
M  END
$$$$
