FGF.pdb
     RDKit          3D

 27 28  0  0  1  0  0  0  0  0999 V2000
    9.4916  -16.0325   21.2074 N   0  0  0  0  0  0  0  0  0  0  0  0
    8.6656  -15.3613   22.1863 C   0  0  1  0  0  0  0  0  0  0  0  0
    7.2576  -15.1519   21.6640 C   0  0  0  0  0  0  0  0  0  0  0  0
    7.3631  -14.2858   20.4474 C   0  0  0  0  0  0  0  0  0  0  0  0
    7.1165  -14.7732   19.1807 C   0  0  0  0  0  0  0  0  0  0  0  0
    7.2248  -13.9413   18.0854 C   0  0  0  0  0  0  0  0  0  0  0  0
    7.5789  -12.6164   18.2349 C   0  0  0  0  0  0  0  0  0  0  0  0
    7.8312  -12.1098   19.5097 C   0  0  0  0  0  0  0  0  0  0  0  0
    7.7169  -12.9587   20.5873 C   0  0  0  0  0  0  0  0  0  0  0  0
    8.6786  -16.1602   23.4283 C   0  0  0  0  0  0  0  0  0  0  0  0
    7.9372  -15.8177   24.3769 O   0  0  0  0  0  0  0  0  0  0  0  0
    9.4940  -17.3136   23.6182 N   0  0  0  0  0  0  0  0  0  0  0  0
    9.6072  -18.0205   24.8513 C   0  0  0  0  0  0  0  0  0  0  0  0
   10.2328  -17.1718   25.9278 C   0  0  0  0  0  0  0  0  0  0  0  0
   11.2987  -16.5335   25.7312 O   0  0  0  0  0  0  0  0  0  0  0  0
    9.6303  -17.0674   27.2082 N   0  0  0  0  0  0  0  0  0  0  0  0
   10.2626  -16.4018   28.3419 C   0  0  1  0  0  0  0  0  0  0  0  0
    9.3232  -15.4851   29.0359 C   0  0  0  0  0  0  0  0  0  0  0  0
    8.7843  -14.4744   28.1067 C   0  0  0  0  0  0  0  0  0  0  0  0
    9.3948  -13.2470   27.8670 C   0  0  0  0  0  0  0  0  0  0  0  0
    8.8430  -12.3498   26.9804 C   0  0  0  0  0  0  0  0  0  0  0  0
    7.6694  -12.6330   26.3000 C   0  0  0  0  0  0  0  0  0  0  0  0
    7.0625  -13.8473   26.5355 C   0  0  0  0  0  0  0  0  0  0  0  0
    7.5999  -14.7453   27.4120 C   0  0  0  0  0  0  0  0  0  0  0  0
   10.7701  -17.4294   29.2622 C   0  0  0  0  0  0  0  0  0  0  0  0
   11.6634  -17.0325   30.2782 O   0  0  0  0  0  0  0  0  0  0  0  0
   10.4328  -18.6498   29.1716 O   0  0  0  0  0  0  0  0  0  0  0  0
  2  1  1  6
  2 10  1  0
  3  2  1  0
  4  9  1  0
  4  3  1  0
  5  4  2  0
  6  7  2  0
  6  5  1  0
  7  8  1  0
  8  9  2  0
 10 12  1  0
 10 11  2  0
 12 13  1  0
 14 15  2  0
 14 13  1  0
 16 14  1  0
 17 25  1  0
 17 16  1  0
 17 18  1  1
 19 18  1  0
 20 19  2  0
 21 20  1  0
 22 21  2  0
 23 22  1  0
 23 24  2  0
 24 19  1  0
 25 26  1  0
 27 25  2  0
M  END
$$$$
