FGF.pdb
     RDKit          3D

 27 28  0  0  1  0  0  0  0  0999 V2000
    7.1559  -16.6044   22.5785 N   0  0  0  0  0  0  0  0  0  0  0  0
    8.5579  -16.6571   22.2282 C   0  0  1  0  0  0  0  0  0  0  0  0
    9.1953  -15.2839   22.3119 C   0  0  0  0  0  0  0  0  0  0  0  0
    8.4860  -14.4078   21.3266 C   0  0  0  0  0  0  0  0  0  0  0  0
    8.6578  -14.5522   19.9655 C   0  0  0  0  0  0  0  0  0  0  0  0
    7.9850  -13.7239   19.0910 C   0  0  0  0  0  0  0  0  0  0  0  0
    7.1342  -12.7432   19.5574 C   0  0  0  0  0  0  0  0  0  0  0  0
    6.9508  -12.5858   20.9310 C   0  0  0  0  0  0  0  0  0  0  0  0
    7.6327  -13.4238   21.7841 C   0  0  0  0  0  0  0  0  0  0  0  0
    9.2219  -17.6273   23.1218 C   0  0  0  0  0  0  0  0  0  0  0  0
   10.4167  -17.9313   22.9054 O   0  0  0  0  0  0  0  0  0  0  0  0
    8.5788  -18.2489   24.2316 N   0  0  0  0  0  0  0  0  0  0  0  0
    9.1675  -19.2762   25.0262 C   0  0  0  0  0  0  0  0  0  0  0  0
   10.1556  -18.7196   26.0184 C   0  0  0  0  0  0  0  0  0  0  0  0
   10.9610  -19.4616   26.6373 O   0  0  0  0  0  0  0  0  0  0  0  0
   10.2060  -17.3269   26.2855 N   0  0  0  0  0  0  0  0  0  0  0  0
   11.2592  -16.6978   27.0749 C   0  0  1  0  0  0  0  0  0  0  0  0
   11.3933  -15.2528   26.7614 C   0  0  0  0  0  0  0  0  0  0  0  0
   10.1348  -14.5324   27.0304 C   0  0  0  0  0  0  0  0  0  0  0  0
    9.9096  -13.7802   28.1793 C   0  0  0  0  0  0  0  0  0  0  0  0
    8.7132  -13.1250   28.3661 C   0  0  0  0  0  0  0  0  0  0  0  0
    7.6977  -13.1899   27.4254 C   0  0  0  0  0  0  0  0  0  0  0  0
    7.9176  -13.9341   26.2870 C   0  0  0  0  0  0  0  0  0  0  0  0
    9.0995  -14.5881   26.0901 C   0  0  0  0  0  0  0  0  0  0  0  0
   10.9586  -16.9008   28.4993 C   0  0  0  0  0  0  0  0  0  0  0  0
    9.7235  -17.4870   28.8434 O   0  0  0  0  0  0  0  0  0  0  0  0
   11.7678  -16.5683   29.4191 O   0  0  0  0  0  0  0  0  0  0  0  0
  2  1  1  1
  2 10  1  0
  3  2  1  0
  4  9  1  0
  4  3  1  0
  5  4  2  0
  6  7  2  0
  6  5  1  0
  7  8  1  0
  8  9  2  0
 10 12  1  0
 10 11  2  0
 12 13  1  0
 14 15  2  0
 14 13  1  0
 16 14  1  0
 17 25  1  0
 17 16  1  0
 17 18  1  1
 19 18  1  0
 20 19  2  0
 21 20  1  0
 22 21  2  0
 23 22  1  0
 23 24  2  0
 24 19  1  0
 25 26  1  0
 27 25  2  0
M  END
$$$$
