FGF.pdb
     RDKit          3D

 27 28  0  0  1  0  0  0  0  0999 V2000
    9.5242  -16.0100   21.1982 N   0  0  0  0  0  0  0  0  0  0  0  0
    8.5605  -15.5240   22.1605 C   0  0  1  0  0  0  0  0  0  0  0  0
    7.1985  -15.3318   21.5226 C   0  0  0  0  0  0  0  0  0  0  0  0
    7.3750  -14.3720   20.3872 C   0  0  0  0  0  0  0  0  0  0  0  0
    7.2495  -14.7669   19.0715 C   0  0  0  0  0  0  0  0  0  0  0  0
    7.4200  -13.8505   18.0543 C   0  0  0  0  0  0  0  0  0  0  0  0
    7.7168  -12.5322   18.3314 C   0  0  0  0  0  0  0  0  0  0  0  0
    7.8467  -12.1187   19.6571 C   0  0  0  0  0  0  0  0  0  0  0  0
    7.6722  -13.0508   20.6549 C   0  0  0  0  0  0  0  0  0  0  0  0
    8.5108  -16.4773   23.2873 C   0  0  0  0  0  0  0  0  0  0  0  0
    7.6847  -16.2850   24.2078 O   0  0  0  0  0  0  0  0  0  0  0  0
    9.3566  -17.6195   23.3947 N   0  0  0  0  0  0  0  0  0  0  0  0
    9.4365  -18.4514   24.5500 C   0  0  0  0  0  0  0  0  0  0  0  0
   10.3203  -17.8507   25.6124 C   0  0  0  0  0  0  0  0  0  0  0  0
   11.4515  -18.3305   25.8810 O   0  0  0  0  0  0  0  0  0  0  0  0
    9.8965  -16.7138   26.3481 N   0  0  0  0  0  0  0  0  0  0  0  0
   10.7597  -15.9879   27.2733 C   0  0  1  0  0  0  0  0  0  0  0  0
   10.7646  -14.5299   26.9927 C   0  0  0  0  0  0  0  0  0  0  0  0
    9.4001  -13.9732   27.0536 C   0  0  0  0  0  0  0  0  0  0  0  0
    8.9830  -13.0640   28.0211 C   0  0  0  0  0  0  0  0  0  0  0  0
    7.6955  -12.5765   28.0173 C   0  0  0  0  0  0  0  0  0  0  0  0
    6.7752  -12.9696   27.0588 C   0  0  0  0  0  0  0  0  0  0  0  0
    7.1852  -13.8699   26.0998 C   0  0  0  0  0  0  0  0  0  0  0  0
    8.4591  -14.3604   26.0927 C   0  0  0  0  0  0  0  0  0  0  0  0
   10.3046  -16.2575   28.6447 C   0  0  0  0  0  0  0  0  0  0  0  0
    9.1670  -17.0713   28.8221 O   0  0  0  0  0  0  0  0  0  0  0  0
   10.8974  -15.7856   29.6631 O   0  0  0  0  0  0  0  0  0  0  0  0
  2  1  1  6
  2 10  1  0
  3  2  1  0
  4  9  1  0
  4  3  1  0
  5  4  2  0
  6  7  2  0
  6  5  1  0
  7  8  1  0
  8  9  2  0
 10 12  1  0
 10 11  2  0
 12 13  1  0
 14 15  2  0
 14 13  1  0
 16 14  1  0
 17 25  1  0
 17 16  1  0
 17 18  1  6
 19 18  1  0
 20 19  2  0
 21 20  1  0
 22 21  2  0
 23 22  1  0
 23 24  2  0
 24 19  1  0
 25 26  1  0
 27 25  2  0
M  END
$$$$
