SQF.pdb
     RDKit          3D

 27 27  0  0  1  0  0  0  0  0999 V2000
    3.8788  -17.4411   19.9193 O   0  0  0  0  0  0  0  0  0  0  0  0
    4.6170  -18.6211   19.9994 C   0  0  0  0  0  0  0  0  0  0  0  0
    4.0854  -19.4407   21.1605 C   0  0  2  0  0  0  0  0  0  0  0  0
    2.6366  -19.4243   21.2022 N   0  0  0  0  0  0  0  0  0  0  0  0
    4.5992  -18.9116   22.4322 C   0  0  0  0  0  0  0  0  0  0  0  0
    3.8463  -18.1932   23.1763 O   0  0  0  0  0  0  0  0  0  0  0  0
    6.9513  -21.3395   27.8552 N   0  0  0  0  0  0  0  0  0  0  0  0
    7.7581  -20.3106   27.3244 C   0  0  0  0  0  0  0  0  0  0  0  0
    8.9813  -20.3007   27.5679 O   0  0  0  0  0  0  0  0  0  0  0  0
    7.2203  -19.1956   26.4605 C   0  0  0  0  0  0  0  0  0  0  0  0
    6.7774  -19.7262   25.1275 C   0  0  0  0  0  0  0  0  0  0  0  0
    6.3460  -18.6330   24.2320 C   0  0  2  0  0  0  0  0  0  0  0  0
    5.8906  -19.1259   22.9334 N   0  0  0  0  0  0  0  0  0  0  0  0
    7.4131  -17.6500   23.9618 C   0  0  0  0  0  0  0  0  0  0  0  0
    7.9233  -17.4132   22.8342 O   0  0  0  0  0  0  0  0  0  0  0  0
    7.9769  -16.8479   25.0301 N   0  0  0  0  0  0  0  0  0  0  0  0
    9.0171  -15.8914   24.8043 C   0  0  1  0  0  0  0  0  0  0  0  0
    8.4285  -14.6240   24.1871 C   0  0  0  0  0  0  0  0  0  0  0  0
    7.6653  -13.8309   25.1745 C   0  0  0  0  0  0  0  0  0  0  0  0
    8.1715  -12.6404   25.6466 C   0  0  0  0  0  0  0  0  0  0  0  0
    7.4503  -11.9006   26.5732 C   0  0  0  0  0  0  0  0  0  0  0  0
    6.2410  -12.3461   27.0199 C   0  0  0  0  0  0  0  0  0  0  0  0
    5.7399  -13.5380   26.5437 C   0  0  0  0  0  0  0  0  0  0  0  0
    6.4363  -14.2839   25.6283 C   0  0  0  0  0  0  0  0  0  0  0  0
    9.7521  -15.5675   26.0690 C   0  0  0  0  0  0  0  0  0  0  0  0
   10.8937  -14.7809   26.0593 O   0  0  0  0  0  0  0  0  0  0  0  0
    9.3609  -15.9966   27.1835 O   0  0  0  0  0  0  0  0  0  0  0  0
  2  1  1  0
  3  2  1  0
  3  4  1  1
  5 13  1  0
  5  3  1  0
  6  5  2  0
  7  8  1  0
  8 10  1  0
  9  8  2  0
 10 11  1  0
 12 11  1  1
 12 14  1  0
 12 13  1  0
 14 16  1  0
 15 14  2  0
 16 17  1  0
 17 25  1  0
 17 18  1  1
 19 24  2  0
 19 18  1  0
 20 19  1  0
 21 22  1  0
 21 20  2  0
 22 23  2  0
 23 24  1  0
 25 26  1  0
 27 25  2  0
M  END
$$$$
