SQF.pdb
     RDKit          3D

 27 27  0  0  1  0  0  0  0  0999 V2000
    8.3279  -14.7998   16.7881 O   0  0  0  0  0  0  0  0  0  0  0  0
    8.1086  -15.2014   18.1051 C   0  0  0  0  0  0  0  0  0  0  0  0
    8.4284  -16.6807   18.2144 C   0  0  2  0  0  0  0  0  0  0  0  0
    7.4045  -17.4926   17.5868 N   0  0  0  0  0  0  0  0  0  0  0  0
    8.5402  -17.0726   19.6268 C   0  0  0  0  0  0  0  0  0  0  0  0
    7.4838  -17.2568   20.3246 O   0  0  0  0  0  0  0  0  0  0  0  0
   13.2643  -20.0183   22.7636 N   0  0  0  0  0  0  0  0  0  0  0  0
   12.3487  -19.6232   23.7621 C   0  0  0  0  0  0  0  0  0  0  0  0
   12.5440  -19.9651   24.9456 O   0  0  0  0  0  0  0  0  0  0  0  0
   11.1195  -18.7935   23.4803 C   0  0  0  0  0  0  0  0  0  0  0  0
   11.0539  -18.4220   22.0269 C   0  0  0  0  0  0  0  0  0  0  0  0
    9.8141  -17.6798   21.7189 C   0  0  2  0  0  0  0  0  0  0  0  0
    9.7438  -17.2738   20.3163 N   0  0  0  0  0  0  0  0  0  0  0  0
    9.6581  -16.4527   22.5236 C   0  0  0  0  0  0  0  0  0  0  0  0
   10.3071  -15.3843   22.3648 O   0  0  0  0  0  0  0  0  0  0  0  0
    8.6979  -16.3886   23.6083 N   0  0  0  0  0  0  0  0  0  0  0  0
    8.6435  -15.2876   24.5208 C   0  0  1  0  0  0  0  0  0  0  0  0
    7.3499  -14.5035   24.3078 C   0  0  0  0  0  0  0  0  0  0  0  0
    7.2109  -13.3926   25.2737 C   0  0  0  0  0  0  0  0  0  0  0  0
    6.3390  -13.5018   26.3340 C   0  0  0  0  0  0  0  0  0  0  0  0
    6.2131  -12.4556   27.2371 C   0  0  0  0  0  0  0  0  0  0  0  0
    6.9490  -11.3179   27.0808 C   0  0  0  0  0  0  0  0  0  0  0  0
    7.8197  -11.2147   26.0179 C   0  0  0  0  0  0  0  0  0  0  0  0
    7.9589  -12.2364   25.1146 C   0  0  0  0  0  0  0  0  0  0  0  0
    8.7527  -15.7446   25.9434 C   0  0  0  0  0  0  0  0  0  0  0  0
    8.2206  -16.9569   26.3551 O   0  0  0  0  0  0  0  0  0  0  0  0
    9.3299  -15.0463   26.8143 O   0  0  0  0  0  0  0  0  0  0  0  0
  2  1  1  0
  3  2  1  0
  3  4  1  1
  5 13  1  0
  5  3  1  0
  6  5  2  0
  7  8  1  0
  8 10  1  0
  9  8  2  0
 10 11  1  0
 12 11  1  6
 12 14  1  0
 12 13  1  0
 14 16  1  0
 15 14  2  0
 16 17  1  0
 17 25  1  0
 17 18  1  1
 19 24  2  0
 19 18  1  0
 20 19  1  0
 21 22  1  0
 21 20  2  0
 22 23  2  0
 23 24  1  0
 25 26  1  0
 27 25  2  0
M  END
$$$$
