SQF.pdb
     RDKit          3D

 27 27  0  0  1  0  0  0  0  0999 V2000
    8.4672  -12.0923   19.4464 O   0  0  0  0  0  0  0  0  0  0  0  0
    8.3735  -12.8295   20.6261 C   0  0  0  0  0  0  0  0  0  0  0  0
    7.9534  -14.2446   20.2746 C   0  0  2  0  0  0  0  0  0  0  0  0
    6.5509  -14.3075   19.9137 N   0  0  0  0  0  0  0  0  0  0  0  0
    8.1867  -15.1414   21.4158 C   0  0  0  0  0  0  0  0  0  0  0  0
    7.2326  -15.4065   22.2259 O   0  0  0  0  0  0  0  0  0  0  0  0
   10.1674  -20.3772   21.6201 N   0  0  0  0  0  0  0  0  0  0  0  0
   10.4710  -20.1512   22.9796 C   0  0  0  0  0  0  0  0  0  0  0  0
   10.5431  -21.1194   23.7627 O   0  0  0  0  0  0  0  0  0  0  0  0
   10.7195  -18.7793   23.5581 C   0  0  0  0  0  0  0  0  0  0  0  0
   10.6310  -17.7300   22.4877 C   0  0  0  0  0  0  0  0  0  0  0  0
    9.5683  -16.7480   22.7864 C   0  0  2  0  0  0  0  0  0  0  0  0
    9.4060  -15.7632   21.7184 N   0  0  0  0  0  0  0  0  0  0  0  0
    9.8125  -15.9896   24.0286 C   0  0  0  0  0  0  0  0  0  0  0  0
   10.6187  -15.0293   24.1549 O   0  0  0  0  0  0  0  0  0  0  0  0
    9.1054  -16.3139   25.2523 N   0  0  0  0  0  0  0  0  0  0  0  0
    9.4070  -15.6857   26.5022 C   0  0  1  0  0  0  0  0  0  0  0  0
    8.1119  -15.2655   27.1949 C   0  0  0  0  0  0  0  0  0  0  0  0
    7.4865  -14.0981   26.5374 C   0  0  0  0  0  0  0  0  0  0  0  0
    7.9400  -12.8260   26.8069 C   0  0  0  0  0  0  0  0  0  0  0  0
    7.3488  -11.7345   26.1865 C   0  0  0  0  0  0  0  0  0  0  0  0
    6.3195  -11.9140   25.3098 C   0  0  0  0  0  0  0  0  0  0  0  0
    5.8703  -13.1893   25.0442 C   0  0  0  0  0  0  0  0  0  0  0  0
    6.4404  -14.2809   25.6463 C   0  0  0  0  0  0  0  0  0  0  0  0
   10.2106  -16.5848   27.3914 C   0  0  0  0  0  0  0  0  0  0  0  0
   10.6956  -16.1455   28.6136 O   0  0  0  0  0  0  0  0  0  0  0  0
   10.4739  -17.7685   27.0618 O   0  0  0  0  0  0  0  0  0  0  0  0
  2  1  1  0
  3  2  1  0
  3  4  1  1
  5 13  1  0
  5  3  1  0
  6  5  2  0
  7  8  1  0
  8 10  1  0
  9  8  2  0
 10 11  1  0
 12 11  1  6
 12 14  1  0
 12 13  1  0
 14 16  1  0
 15 14  2  0
 16 17  1  0
 17 25  1  0
 17 18  1  1
 19 24  2  0
 19 18  1  0
 20 19  1  0
 21 22  1  0
 21 20  2  0
 22 23  2  0
 23 24  1  0
 25 26  1  0
 27 25  2  0
M  END
$$$$
