SQF.pdb
     RDKit          3D

 27 27  0  0  1  0  0  0  0  0999 V2000
    5.5534  -17.3742   22.5445 O   0  0  0  0  0  0  0  0  0  0  0  0
    5.5619  -16.4882   21.4680 C   0  0  0  0  0  0  0  0  0  0  0  0
    6.6772  -16.8940   20.5224 C   0  0  2  0  0  0  0  0  0  0  0  0
    6.4821  -18.2390   20.0182 N   0  0  0  0  0  0  0  0  0  0  0  0
    7.9741  -16.8330   21.2117 C   0  0  0  0  0  0  0  0  0  0  0  0
    8.4344  -17.8713   21.8008 O   0  0  0  0  0  0  0  0  0  0  0  0
   13.6982  -16.2698   21.1589 N   0  0  0  0  0  0  0  0  0  0  0  0
   12.5191  -16.3825   20.3917 C   0  0  0  0  0  0  0  0  0  0  0  0
   12.2204  -17.4805   19.8810 O   0  0  0  0  0  0  0  0  0  0  0  0
   11.5754  -15.2304   20.1453 C   0  0  0  0  0  0  0  0  0  0  0  0
   11.0225  -14.7130   21.4419 C   0  0  0  0  0  0  0  0  0  0  0  0
   10.0554  -15.6632   22.0292 C   0  0  2  0  0  0  0  0  0  0  0  0
    8.7940  -15.6989   21.2914 N   0  0  0  0  0  0  0  0  0  0  0  0
    9.7174  -15.3533   23.4319 C   0  0  0  0  0  0  0  0  0  0  0  0
    9.5733  -14.1977   23.9133 O   0  0  0  0  0  0  0  0  0  0  0  0
    9.5175  -16.4118   24.4027 N   0  0  0  0  0  0  0  0  0  0  0  0
    9.2723  -16.1465   25.7874 C   0  0  1  0  0  0  0  0  0  0  0  0
    7.7822  -15.8932   26.0089 C   0  0  0  0  0  0  0  0  0  0  0  0
    7.4746  -14.4500   26.1037 C   0  0  0  0  0  0  0  0  0  0  0  0
    6.4297  -13.9159   25.3830 C   0  0  0  0  0  0  0  0  0  0  0  0
    6.1460  -12.5606   25.4763 C   0  0  0  0  0  0  0  0  0  0  0  0
    6.8970  -11.7529   26.2788 C   0  0  0  0  0  0  0  0  0  0  0  0
    7.9411  -12.2933   26.9973 C   0  0  0  0  0  0  0  0  0  0  0  0
    8.2380  -13.6294   26.9193 C   0  0  0  0  0  0  0  0  0  0  0  0
    9.7493  -17.2696   26.6567 C   0  0  0  0  0  0  0  0  0  0  0  0
   10.3843  -18.3788   26.1195 O   0  0  0  0  0  0  0  0  0  0  0  0
    9.5912  -17.2470   27.9032 O   0  0  0  0  0  0  0  0  0  0  0  0
  2  1  1  0
  3  2  1  0
  3  4  1  1
  5 13  1  0
  5  3  1  0
  6  5  2  0
  7  8  1  0
  8 10  1  0
  9  8  2  0
 10 11  1  0
 12 11  1  6
 12 14  1  0
 12 13  1  0
 14 16  1  0
 15 14  2  0
 16 17  1  0
 17 25  1  0
 17 18  1  6
 19 24  2  0
 19 18  1  0
 20 19  1  0
 21 22  1  0
 21 20  2  0
 22 23  2  0
 23 24  1  0
 25 26  1  0
 27 25  2  0
M  END
$$$$
