SQF.pdb
     RDKit          3D

 27 27  0  0  1  0  0  0  0  0999 V2000
   12.5608  -17.4140   23.5158 O   0  0  0  0  0  0  0  0  0  0  0  0
   12.4119  -18.3758   22.5175 C   0  0  0  0  0  0  0  0  0  0  0  0
   12.0445  -17.6714   21.2247 C   0  0  2  0  0  0  0  0  0  0  0  0
   13.0603  -16.7134   20.8352 N   0  0  0  0  0  0  0  0  0  0  0  0
   10.7647  -16.9646   21.3780 C   0  0  0  0  0  0  0  0  0  0  0  0
   10.7366  -15.6855   21.3753 O   0  0  0  0  0  0  0  0  0  0  0  0
    4.7123  -19.2312   21.2033 N   0  0  0  0  0  0  0  0  0  0  0  0
    4.6064  -17.8507   21.4764 C   0  0  0  0  0  0  0  0  0  0  0  0
    3.4782  -17.3307   21.5877 O   0  0  0  0  0  0  0  0  0  0  0  0
    5.8011  -16.9437   21.6460 C   0  0  0  0  0  0  0  0  0  0  0  0
    7.0783  -17.7268   21.5444 C   0  0  0  0  0  0  0  0  0  0  0  0
    8.2581  -16.8430   21.6438 C   0  0  2  0  0  0  0  0  0  0  0  0
    9.5154  -17.5807   21.5340 N   0  0  0  0  0  0  0  0  0  0  0  0
    8.3158  -16.0940   22.9140 C   0  0  0  0  0  0  0  0  0  0  0  0
    8.0627  -14.8675   23.0541 O   0  0  0  0  0  0  0  0  0  0  0  0
    8.6869  -16.7516   24.1520 N   0  0  0  0  0  0  0  0  0  0  0  0
    8.5707  -16.1104   25.4261 C   0  0  1  0  0  0  0  0  0  0  0  0
    7.1403  -15.6125   25.6253 C   0  0  0  0  0  0  0  0  0  0  0  0
    7.0986  -14.1787   25.9842 C   0  0  0  0  0  0  0  0  0  0  0  0
    5.8914  -13.5222   26.0749 C   0  0  0  0  0  0  0  0  0  0  0  0
    5.8590  -12.1764   26.4122 C   0  0  0  0  0  0  0  0  0  0  0  0
    7.0175  -11.4987   26.6549 C   0  0  0  0  0  0  0  0  0  0  0  0
    8.2221  -12.1610   26.5625 C   0  0  0  0  0  0  0  0  0  0  0  0
    8.2761  -13.4901   26.2308 C   0  0  0  0  0  0  0  0  0  0  0  0
    8.9684  -17.0267   26.5427 C   0  0  0  0  0  0  0  0  0  0  0  0
    9.3583  -16.5325   27.7780 O   0  0  0  0  0  0  0  0  0  0  0  0
    8.9630  -18.2752   26.4002 O   0  0  0  0  0  0  0  0  0  0  0  0
  2  1  1  0
  3  2  1  0
  3  4  1  1
  5 13  1  0
  5  3  1  0
  6  5  2  0
  7  8  1  0
  8 10  1  0
  9  8  2  0
 10 11  1  0
 12 11  1  1
 12 14  1  0
 12 13  1  0
 14 16  1  0
 15 14  2  0
 16 17  1  0
 17 25  1  0
 17 18  1  1
 19 24  2  0
 19 18  1  0
 20 19  1  0
 21 22  1  0
 21 20  2  0
 22 23  2  0
 23 24  1  0
 25 26  1  0
 27 25  2  0
M  END
$$$$
