SQF.pdb
     RDKit          3D

 27 27  0  0  1  0  0  0  0  0999 V2000
    9.8569  -13.2049   20.5388 O   0  0  0  0  0  0  0  0  0  0  0  0
    9.4619  -14.2578   19.7145 C   0  0  0  0  0  0  0  0  0  0  0  0
    7.9482  -14.3559   19.7550 C   0  0  2  0  0  0  0  0  0  0  0  0
    7.3294  -13.0474   19.6768 N   0  0  0  0  0  0  0  0  0  0  0  0
    7.5152  -15.0080   20.9994 C   0  0  0  0  0  0  0  0  0  0  0  0
    6.9548  -14.3194   21.9204 O   0  0  0  0  0  0  0  0  0  0  0  0
    3.3273  -18.5748   21.4400 N   0  0  0  0  0  0  0  0  0  0  0  0
    4.5563  -18.9937   21.9927 C   0  0  0  0  0  0  0  0  0  0  0  0
    4.5679  -19.5767   23.0953 O   0  0  0  0  0  0  0  0  0  0  0  0
    5.8883  -18.7751   21.3168 C   0  0  0  0  0  0  0  0  0  0  0  0
    6.9507  -18.4624   22.3307 C   0  0  0  0  0  0  0  0  0  0  0  0
    7.1239  -17.0041   22.4931 C   0  0  2  0  0  0  0  0  0  0  0  0
    7.6620  -16.3714   21.2901 N   0  0  0  0  0  0  0  0  0  0  0  0
    8.0312  -16.6480   23.6012 C   0  0  0  0  0  0  0  0  0  0  0  0
    9.2638  -16.4100   23.4919 O   0  0  0  0  0  0  0  0  0  0  0  0
    7.5416  -16.5420   24.9620 N   0  0  0  0  0  0  0  0  0  0  0  0
    8.3698  -16.1032   26.0433 C   0  0  1  0  0  0  0  0  0  0  0  0
    7.5139  -15.4074   27.1002 C   0  0  0  0  0  0  0  0  0  0  0  0
    7.1684  -14.0239   26.7091 C   0  0  0  0  0  0  0  0  0  0  0  0
    8.1625  -13.1245   26.3939 C   0  0  0  0  0  0  0  0  0  0  0  0
    7.8317  -11.8275   26.0276 C   0  0  0  0  0  0  0  0  0  0  0  0
    6.5256  -11.4373   25.9777 C   0  0  0  0  0  0  0  0  0  0  0  0
    5.5356  -12.3418   26.2941 C   0  0  0  0  0  0  0  0  0  0  0  0
    5.8410  -13.6276   26.6584 C   0  0  0  0  0  0  0  0  0  0  0  0
    9.1324  -17.2410   26.6505 C   0  0  0  0  0  0  0  0  0  0  0  0
   10.1643  -17.0202   27.5496 O   0  0  0  0  0  0  0  0  0  0  0  0
    8.8645  -18.4356   26.3671 O   0  0  0  0  0  0  0  0  0  0  0  0
  2  1  1  0
  3  2  1  0
  3  4  1  1
  5 13  1  0
  5  3  1  0
  6  5  2  0
  7  8  1  0
  8 10  1  0
  9  8  2  0
 10 11  1  0
 12 11  1  6
 12 14  1  0
 12 13  1  0
 14 16  1  0
 15 14  2  0
 16 17  1  0
 17 25  1  0
 17 18  1  1
 19 24  2  0
 19 18  1  0
 20 19  1  0
 21 22  1  0
 21 20  2  0
 22 23  2  0
 23 24  1  0
 25 26  1  0
 27 25  2  0
M  END
$$$$
