SQF.pdb
     RDKit          3D

 27 27  0  0  1  0  0  0  0  0999 V2000
    6.6187  -19.1980   23.7226 O   0  0  0  0  0  0  0  0  0  0  0  0
    5.6613  -18.3327   23.1950 C   0  0  0  0  0  0  0  0  0  0  0  0
    6.0206  -18.0451   21.7490 C   0  0  2  0  0  0  0  0  0  0  0  0
    6.3686  -19.2591   21.0373 N   0  0  0  0  0  0  0  0  0  0  0  0
    7.1597  -17.1182   21.6840 C   0  0  0  0  0  0  0  0  0  0  0  0
    8.3368  -17.5666   21.4604 O   0  0  0  0  0  0  0  0  0  0  0  0
    6.4933  -13.3646   18.9315 N   0  0  0  0  0  0  0  0  0  0  0  0
    7.8937  -13.2617   19.0714 C   0  0  0  0  0  0  0  0  0  0  0  0
    8.6292  -13.5135   18.0960 O   0  0  0  0  0  0  0  0  0  0  0  0
    8.5723  -12.8566   20.3575 C   0  0  0  0  0  0  0  0  0  0  0  0
    7.8492  -13.4319   21.5410 C   0  0  0  0  0  0  0  0  0  0  0  0
    8.2376  -14.8381   21.7746 C   0  0  2  0  0  0  0  0  0  0  0  0
    7.0807  -15.7286   21.8502 N   0  0  0  0  0  0  0  0  0  0  0  0
    9.0013  -15.0288   23.0229 C   0  0  0  0  0  0  0  0  0  0  0  0
   10.1740  -14.6191   23.2347 O   0  0  0  0  0  0  0  0  0  0  0  0
    8.4253  -15.7371   24.1494 N   0  0  0  0  0  0  0  0  0  0  0  0
    9.1601  -15.9962   25.3497 C   0  0  1  0  0  0  0  0  0  0  0  0
    9.4842  -14.6787   26.0517 C   0  0  0  0  0  0  0  0  0  0  0  0
    8.2747  -13.8570   26.2716 C   0  0  0  0  0  0  0  0  0  0  0  0
    8.1787  -12.6023   25.7124 C   0  0  0  0  0  0  0  0  0  0  0  0
    7.0409  -11.8360   25.9226 C   0  0  0  0  0  0  0  0  0  0  0  0
    6.0152  -12.3189   26.6810 C   0  0  0  0  0  0  0  0  0  0  0  0
    6.1173  -13.5750   27.2379 C   0  0  0  0  0  0  0  0  0  0  0  0
    7.2324  -14.3480   27.0425 C   0  0  0  0  0  0  0  0  0  0  0  0
    8.4096  -16.9107   26.2690 C   0  0  0  0  0  0  0  0  0  0  0  0
    8.9726  -17.3675   27.4507 O   0  0  0  0  0  0  0  0  0  0  0  0
    7.2437  -17.2964   26.0025 O   0  0  0  0  0  0  0  0  0  0  0  0
  2  1  1  0
  3  2  1  0
  3  4  1  1
  5 13  1  0
  5  3  1  0
  6  5  2  0
  7  8  1  0
  8 10  1  0
  9  8  2  0
 10 11  1  0
 12 11  1  1
 12 14  1  0
 12 13  1  0
 14 16  1  0
 15 14  2  0
 16 17  1  0
 17 25  1  0
 17 18  1  1
 19 24  2  0
 19 18  1  0
 20 19  1  0
 21 22  1  0
 21 20  2  0
 22 23  2  0
 23 24  1  0
 25 26  1  0
 27 25  2  0
M  END
$$$$
