SQF.pdb
     RDKit          3D

 27 27  0  0  1  0  0  0  0  0999 V2000
    8.7462  -12.1235   20.8413 O   0  0  0  0  0  0  0  0  0  0  0  0
    8.9154  -12.8637   19.6719 C   0  0  0  0  0  0  0  0  0  0  0  0
    7.7773  -13.8619   19.5681 C   0  0  2  0  0  0  0  0  0  0  0  0
    6.4905  -13.1963   19.5204 N   0  0  0  0  0  0  0  0  0  0  0  0
    7.7941  -14.7724   20.7221 C   0  0  0  0  0  0  0  0  0  0  0  0
    6.8418  -14.7400   21.5758 O   0  0  0  0  0  0  0  0  0  0  0  0
   10.8970  -20.3506   21.1012 N   0  0  0  0  0  0  0  0  0  0  0  0
   10.0005  -20.3292   22.1908 C   0  0  0  0  0  0  0  0  0  0  0  0
    9.8701  -21.3470   22.8999 O   0  0  0  0  0  0  0  0  0  0  0  0
    9.1705  -19.1235   22.5597 C   0  0  0  0  0  0  0  0  0  0  0  0
    9.3717  -18.0181   21.5637 C   0  0  0  0  0  0  0  0  0  0  0  0
    8.6474  -16.7951   21.9668 C   0  0  2  0  0  0  0  0  0  0  0  0
    8.7953  -15.7154   20.9925 N   0  0  0  0  0  0  0  0  0  0  0  0
    9.0955  -16.2577   23.2661 C   0  0  0  0  0  0  0  0  0  0  0  0
   10.0353  -15.4353   23.4346 O   0  0  0  0  0  0  0  0  0  0  0  0
    8.4523  -16.6598   24.5019 N   0  0  0  0  0  0  0  0  0  0  0  0
    8.8102  -16.1016   25.7700 C   0  0  1  0  0  0  0  0  0  0  0  0
    7.5481  -15.7145   26.5388 C   0  0  0  0  0  0  0  0  0  0  0  0
    7.1113  -14.3367   26.2272 C   0  0  0  0  0  0  0  0  0  0  0  0
    5.8736  -14.1126   25.6666 C   0  0  0  0  0  0  0  0  0  0  0  0
    5.4694  -12.8170   25.3765 C   0  0  0  0  0  0  0  0  0  0  0  0
    6.2921  -11.7623   25.6436 C   0  0  0  0  0  0  0  0  0  0  0  0
    7.5293  -11.9931   26.2045 C   0  0  0  0  0  0  0  0  0  0  0  0
    7.9476  -13.2650   26.4988 C   0  0  0  0  0  0  0  0  0  0  0  0
    9.6450  -17.0507   26.5744 C   0  0  0  0  0  0  0  0  0  0  0  0
   10.3604  -16.6224   27.6819 O   0  0  0  0  0  0  0  0  0  0  0  0
    9.7269  -18.2683   26.2745 O   0  0  0  0  0  0  0  0  0  0  0  0
  2  1  1  0
  3  2  1  0
  3  4  1  1
  5 13  1  0
  5  3  1  0
  6  5  2  0
  7  8  1  0
  8 10  1  0
  9  8  2  0
 10 11  1  0
 12 11  1  6
 12 14  1  0
 12 13  1  0
 14 16  1  0
 15 14  2  0
 16 17  1  0
 17 25  1  0
 17 18  1  1
 19 24  2  0
 19 18  1  0
 20 19  1  0
 21 22  1  0
 21 20  2  0
 22 23  2  0
 23 24  1  0
 25 26  1  0
 27 25  2  0
M  END
$$$$
