SQF.pdb
     RDKit          3D

 27 27  0  0  1  0  0  0  0  0999 V2000
    7.3651  -19.4864   23.8911 O   0  0  0  0  0  0  0  0  0  0  0  0
    6.1583  -19.1458   23.2817 C   0  0  0  0  0  0  0  0  0  0  0  0
    6.4165  -18.9132   21.8046 C   0  0  2  0  0  0  0  0  0  0  0  0
    7.1157  -20.0327   21.2054 N   0  0  0  0  0  0  0  0  0  0  0  0
    7.2230  -17.6987   21.6157 C   0  0  0  0  0  0  0  0  0  0  0  0
    8.4679  -17.7950   21.3370 O   0  0  0  0  0  0  0  0  0  0  0  0
    7.6741  -13.1048   18.0833 N   0  0  0  0  0  0  0  0  0  0  0  0
    8.3549  -13.0921   19.3194 C   0  0  0  0  0  0  0  0  0  0  0  0
    9.5915  -13.2532   19.3420 O   0  0  0  0  0  0  0  0  0  0  0  0
    7.6636  -12.8911   20.6462 C   0  0  0  0  0  0  0  0  0  0  0  0
    6.7803  -14.0628   20.9651 C   0  0  0  0  0  0  0  0  0  0  0  0
    7.5669  -15.2022   21.4807 C   0  0  2  0  0  0  0  0  0  0  0  0
    6.7417  -16.3859   21.7149 N   0  0  0  0  0  0  0  0  0  0  0  0
    8.2522  -14.9048   22.7533 C   0  0  0  0  0  0  0  0  0  0  0  0
    8.6697  -13.7718   23.1138 O   0  0  0  0  0  0  0  0  0  0  0  0
    8.5055  -15.9495   23.7265 N   0  0  0  0  0  0  0  0  0  0  0  0
    8.5190  -15.6988   25.1353 C   0  0  1  0  0  0  0  0  0  0  0  0
    7.1491  -15.1923   25.5830 C   0  0  0  0  0  0  0  0  0  0  0  0
    7.1959  -13.7788   26.0144 C   0  0  0  0  0  0  0  0  0  0  0  0
    8.3966  -13.1990   26.3586 C   0  0  0  0  0  0  0  0  0  0  0  0
    8.4338  -11.8719   26.7627 C   0  0  0  0  0  0  0  0  0  0  0  0
    7.2864  -11.1368   26.8212 C   0  0  0  0  0  0  0  0  0  0  0  0
    6.0881  -11.7226   26.4756 C   0  0  0  0  0  0  0  0  0  0  0  0
    6.0295  -13.0320   26.0738 C   0  0  0  0  0  0  0  0  0  0  0  0
    8.9056  -16.9220   25.9093 C   0  0  0  0  0  0  0  0  0  0  0  0
    9.6877  -16.8367   27.0509 O   0  0  0  0  0  0  0  0  0  0  0  0
    8.5355  -18.0685   25.5520 O   0  0  0  0  0  0  0  0  0  0  0  0
  2  1  1  0
  3  2  1  0
  3  4  1  1
  5 13  1  0
  5  3  1  0
  6  5  2  0
  7  8  1  0
  8 10  1  0
  9  8  2  0
 10 11  1  0
 12 11  1  1
 12 14  1  0
 12 13  1  0
 14 16  1  0
 15 14  2  0
 16 17  1  0
 17 25  1  0
 17 18  1  1
 19 24  2  0
 19 18  1  0
 20 19  1  0
 21 22  1  0
 21 20  2  0
 22 23  2  0
 23 24  1  0
 25 26  1  0
 27 25  2  0
M  END
$$$$
