SQF.pdb
     RDKit          3D

 27 27  0  0  1  0  0  0  0  0999 V2000
   10.3406  -13.8225   19.4750 O   0  0  0  0  0  0  0  0  0  0  0  0
    9.6050  -14.4762   18.4873 C   0  0  0  0  0  0  0  0  0  0  0  0
    8.1320  -14.2004   18.7257 C   0  0  2  0  0  0  0  0  0  0  0  0
    7.8300  -12.7880   18.6026 N   0  0  0  0  0  0  0  0  0  0  0  0
    7.7427  -14.6499   20.0701 C   0  0  0  0  0  0  0  0  0  0  0  0
    7.6460  -13.8030   21.0241 O   0  0  0  0  0  0  0  0  0  0  0  0
    5.9494  -20.5025   22.1668 N   0  0  0  0  0  0  0  0  0  0  0  0
    5.9241  -19.6555   23.2952 C   0  0  0  0  0  0  0  0  0  0  0  0
    5.6102  -20.1231   24.4081 O   0  0  0  0  0  0  0  0  0  0  0  0
    6.2611  -18.1852   23.2377 C   0  0  0  0  0  0  0  0  0  0  0  0
    6.5768  -17.7697   21.8297 C   0  0  0  0  0  0  0  0  0  0  0  0
    7.0935  -16.3864   21.7823 C   0  0  2  0  0  0  0  0  0  0  0  0
    7.4539  -15.9743   20.4269 N   0  0  0  0  0  0  0  0  0  0  0  0
    8.2926  -16.1865   22.6189 C   0  0  0  0  0  0  0  0  0  0  0  0
    9.4788  -16.4299   22.2701 O   0  0  0  0  0  0  0  0  0  0  0  0
    8.1829  -15.6699   23.9693 N   0  0  0  0  0  0  0  0  0  0  0  0
    9.3195  -15.5074   24.8234 C   0  0  1  0  0  0  0  0  0  0  0  0
    9.5721  -14.0211   25.0701 C   0  0  0  0  0  0  0  0  0  0  0  0
    8.4015  -13.3549   25.6803 C   0  0  0  0  0  0  0  0  0  0  0  0
    8.3931  -13.0658   27.0267 C   0  0  0  0  0  0  0  0  0  0  0  0
    7.2914  -12.4404   27.5934 C   0  0  0  0  0  0  0  0  0  0  0  0
    6.2150  -12.1097   26.8237 C   0  0  0  0  0  0  0  0  0  0  0  0
    6.2295  -12.4017   25.4773 C   0  0  0  0  0  0  0  0  0  0  0  0
    7.3077  -13.0190   24.8979 C   0  0  0  0  0  0  0  0  0  0  0  0
    9.1414  -16.2328   26.1222 C   0  0  0  0  0  0  0  0  0  0  0  0
    7.9960  -16.9674   26.3876 O   0  0  0  0  0  0  0  0  0  0  0  0
   10.0230  -16.2016   27.0172 O   0  0  0  0  0  0  0  0  0  0  0  0
  2  1  1  0
  3  2  1  0
  3  4  1  1
  5 13  1  0
  5  3  1  0
  6  5  2  0
  7  8  1  0
  8 10  1  0
  9  8  2  0
 10 11  1  0
 12 11  1  6
 12 14  1  0
 12 13  1  0
 14 16  1  0
 15 14  2  0
 16 17  1  0
 17 25  1  0
 17 18  1  1
 19 24  2  0
 19 18  1  0
 20 19  1  0
 21 22  1  0
 21 20  2  0
 22 23  2  0
 23 24  1  0
 25 26  1  0
 27 25  2  0
M  END
$$$$
