SQF.pdb
     RDKit          3D

 27 27  0  0  1  0  0  0  0  0999 V2000
    9.1997  -13.8536   20.5744 O   0  0  0  0  0  0  0  0  0  0  0  0
    8.6385  -14.9828   19.9797 C   0  0  0  0  0  0  0  0  0  0  0  0
    7.1752  -15.0550   20.3749 C   0  0  2  0  0  0  0  0  0  0  0  0
    6.5184  -13.7728   20.2146 N   0  0  0  0  0  0  0  0  0  0  0  0
    7.0487  -15.4768   21.7774 C   0  0  0  0  0  0  0  0  0  0  0  0
    6.6793  -14.6351   22.6672 O   0  0  0  0  0  0  0  0  0  0  0  0
    6.9579  -21.4370   24.2683 N   0  0  0  0  0  0  0  0  0  0  0  0
    6.5992  -20.5576   25.3120 C   0  0  0  0  0  0  0  0  0  0  0  0
    6.2319  -21.0231   26.4094 O   0  0  0  0  0  0  0  0  0  0  0  0
    6.6334  -19.0543   25.1799 C   0  0  0  0  0  0  0  0  0  0  0  0
    6.9722  -18.6546   23.7727 C   0  0  0  0  0  0  0  0  0  0  0  0
    7.0411  -17.1852   23.6348 C   0  0  2  0  0  0  0  0  0  0  0  0
    7.3043  -16.7683   22.2586 N   0  0  0  0  0  0  0  0  0  0  0  0
    8.0917  -16.5732   24.4713 C   0  0  0  0  0  0  0  0  0  0  0  0
    9.2900  -16.3912   24.1265 O   0  0  0  0  0  0  0  0  0  0  0  0
    7.8026  -16.1159   25.8166 N   0  0  0  0  0  0  0  0  0  0  0  0
    8.8200  -15.6260   26.6956 C   0  0  1  0  0  0  0  0  0  0  0  0
    8.2170  -14.6188   27.6732 C   0  0  0  0  0  0  0  0  0  0  0  0
    7.6655  -13.4357   26.9786 C   0  0  0  0  0  0  0  0  0  0  0  0
    6.3170  -13.3559   26.7109 C   0  0  0  0  0  0  0  0  0  0  0  0
    5.8055  -12.2428   26.0587 C   0  0  0  0  0  0  0  0  0  0  0  0
    6.6317  -11.2256   25.6804 C   0  0  0  0  0  0  0  0  0  0  0  0
    7.9800  -11.3114   25.9511 C   0  0  0  0  0  0  0  0  0  0  0  0
    8.5054  -12.4020   26.5943 C   0  0  0  0  0  0  0  0  0  0  0  0
    9.4913  -16.7411   27.4375 C   0  0  0  0  0  0  0  0  0  0  0  0
   10.5697  -16.5040   28.2760 O   0  0  0  0  0  0  0  0  0  0  0  0
    9.1017  -17.9307   27.3268 O   0  0  0  0  0  0  0  0  0  0  0  0
  2  1  1  0
  3  2  1  0
  3  4  1  1
  5 13  1  0
  5  3  1  0
  6  5  2  0
  7  8  1  0
  8 10  1  0
  9  8  2  0
 10 11  1  0
 12 11  1  6
 12 14  1  0
 12 13  1  0
 14 16  1  0
 15 14  2  0
 16 17  1  0
 17 25  1  0
 17 18  1  1
 19 24  2  0
 19 18  1  0
 20 19  1  0
 21 22  1  0
 21 20  2  0
 22 23  2  0
 23 24  1  0
 25 26  1  0
 27 25  2  0
M  END
$$$$
