SQF.pdb
     RDKit          3D

 27 27  0  0  1  0  0  0  0  0999 V2000
    8.0501  -14.6279   18.0230 O   0  0  0  0  0  0  0  0  0  0  0  0
    9.2856  -15.2443   17.8297 C   0  0  0  0  0  0  0  0  0  0  0  0
    9.0777  -16.7474   17.8395 C   0  0  2  0  0  0  0  0  0  0  0  0
    8.1028  -17.1546   16.8470 N   0  0  0  0  0  0  0  0  0  0  0  0
    8.6137  -17.1867   19.1634 C   0  0  0  0  0  0  0  0  0  0  0  0
    7.3655  -17.3722   19.3741 O   0  0  0  0  0  0  0  0  0  0  0  0
   11.2724  -21.3126   22.8990 N   0  0  0  0  0  0  0  0  0  0  0  0
   11.9050  -20.0849   22.6092 C   0  0  0  0  0  0  0  0  0  0  0  0
   13.1383  -19.9777   22.7611 O   0  0  0  0  0  0  0  0  0  0  0  0
   11.1647  -18.8655   22.1155 C   0  0  0  0  0  0  0  0  0  0  0  0
    9.6980  -19.1566   21.9788 C   0  0  0  0  0  0  0  0  0  0  0  0
    8.9522  -17.9583   21.5422 C   0  0  2  0  0  0  0  0  0  0  0  0
    9.4405  -17.4339   20.2680 N   0  0  0  0  0  0  0  0  0  0  0  0
    9.0209  -16.8477   22.5116 C   0  0  0  0  0  0  0  0  0  0  0  0
    9.8277  -15.8810   22.4631 O   0  0  0  0  0  0  0  0  0  0  0  0
    8.1183  -16.7896   23.6450 N   0  0  0  0  0  0  0  0  0  0  0  0
    8.1532  -15.7242   24.5997 C   0  0  1  0  0  0  0  0  0  0  0  0
    7.0098  -14.7485   24.3270 C   0  0  0  0  0  0  0  0  0  0  0  0
    6.9676  -13.6542   25.3205 C   0  0  0  0  0  0  0  0  0  0  0  0
    6.1263  -13.7377   26.4076 C   0  0  0  0  0  0  0  0  0  0  0  0
    6.0913  -12.7073   27.3365 C   0  0  0  0  0  0  0  0  0  0  0  0
    6.8865  -11.6103   27.1792 C   0  0  0  0  0  0  0  0  0  0  0  0
    7.7261  -11.5326   26.0895 C   0  0  0  0  0  0  0  0  0  0  0  0
    7.7758  -12.5394   25.1604 C   0  0  0  0  0  0  0  0  0  0  0  0
    8.0800  -16.2400   26.0045 C   0  0  0  0  0  0  0  0  0  0  0  0
    8.9175  -15.7540   26.9966 O   0  0  0  0  0  0  0  0  0  0  0  0
    7.2575  -17.1312   26.3340 O   0  0  0  0  0  0  0  0  0  0  0  0
  2  1  1  0
  3  2  1  0
  3  4  1  6
  5 13  1  0
  5  3  1  0
  6  5  2  0
  7  8  1  0
  8 10  1  0
  9  8  2  0
 10 11  1  0
 12 11  1  1
 12 14  1  0
 12 13  1  0
 14 16  1  0
 15 14  2  0
 16 17  1  0
 17 25  1  0
 17 18  1  6
 19 24  2  0
 19 18  1  0
 20 19  1  0
 21 22  1  0
 21 20  2  0
 22 23  2  0
 23 24  1  0
 25 26  1  0
 27 25  2  0
M  END
$$$$
