SQF.pdb
     RDKit          3D

 27 27  0  0  1  0  0  0  0  0999 V2000
   10.0359  -13.6630   19.9439 O   0  0  0  0  0  0  0  0  0  0  0  0
    9.2645  -14.6348   19.3080 C   0  0  0  0  0  0  0  0  0  0  0  0
    7.8009  -14.3305   19.5684 C   0  0  2  0  0  0  0  0  0  0  0  0
    7.5389  -12.9055   19.5227 N   0  0  0  0  0  0  0  0  0  0  0  0
    7.4039  -14.8402   20.8890 C   0  0  0  0  0  0  0  0  0  0  0  0
    6.7615  -14.0860   21.6985 O   0  0  0  0  0  0  0  0  0  0  0  0
    5.1864  -20.6912   22.4753 N   0  0  0  0  0  0  0  0  0  0  0  0
    5.8246  -20.1085   23.5910 C   0  0  0  0  0  0  0  0  0  0  0  0
    6.1918  -20.8334   24.5373 O   0  0  0  0  0  0  0  0  0  0  0  0
    6.0968  -18.6288   23.7129 C   0  0  0  0  0  0  0  0  0  0  0  0
    6.7286  -18.1020   22.4568 C   0  0  0  0  0  0  0  0  0  0  0  0
    7.0815  -16.6737   22.5927 C   0  0  2  0  0  0  0  0  0  0  0  0
    7.6715  -16.1288   21.3712 N   0  0  0  0  0  0  0  0  0  0  0  0
    8.0449  -16.4157   23.6803 C   0  0  0  0  0  0  0  0  0  0  0  0
    9.2996  -16.4112   23.5627 O   0  0  0  0  0  0  0  0  0  0  0  0
    7.5909  -16.1351   25.0285 N   0  0  0  0  0  0  0  0  0  0  0  0
    8.4954  -15.8321   26.0953 C   0  0  1  0  0  0  0  0  0  0  0  0
    7.7545  -15.0889   27.2054 C   0  0  0  0  0  0  0  0  0  0  0  0
    7.2615  -13.7698   26.7545 C   0  0  0  0  0  0  0  0  0  0  0  0
    5.9150  -13.4837   26.7927 C   0  0  0  0  0  0  0  0  0  0  0  0
    5.4585  -12.2438   26.3681 C   0  0  0  0  0  0  0  0  0  0  0  0
    6.3369  -11.3051   25.9123 C   0  0  0  0  0  0  0  0  0  0  0  0
    7.6829  -11.5975   25.8765 C   0  0  0  0  0  0  0  0  0  0  0  0
    8.1544  -12.8160   26.2913 C   0  0  0  0  0  0  0  0  0  0  0  0
    9.1459  -17.0693   26.6346 C   0  0  0  0  0  0  0  0  0  0  0  0
   10.1751  -16.9986   27.5608 O   0  0  0  0  0  0  0  0  0  0  0  0
    8.7826  -18.2148   26.2674 O   0  0  0  0  0  0  0  0  0  0  0  0
  2  1  1  0
  3  2  1  0
  3  4  1  1
  5 13  1  0
  5  3  1  0
  6  5  2  0
  7  8  1  0
  8 10  1  0
  9  8  2  0
 10 11  1  0
 12 11  1  6
 12 14  1  0
 12 13  1  0
 14 16  1  0
 15 14  2  0
 16 17  1  0
 17 25  1  0
 17 18  1  1
 19 24  2  0
 19 18  1  0
 20 19  1  0
 21 22  1  0
 21 20  2  0
 22 23  2  0
 23 24  1  0
 25 26  1  0
 27 25  2  0
M  END
$$$$
