SKM.pdb
     RDKit          3D

 24 23  0  0  1  0  0  0  0  0999 V2000
   29.2408  -27.3199  -15.5926 O   0  0  0  0  0  0  0  0  0  0  0  0
   29.3993  -26.4211  -16.6403 C   0  0  0  0  0  0  0  0  0  0  0  0
   28.6005  -26.9304  -17.8201 C   0  0  2  0  0  0  0  0  0  0  0  0
   27.2244  -27.1501  -17.5042 N   0  0  0  0  0  0  0  0  0  0  0  0
   29.2181  -28.1681  -18.2963 C   0  0  0  0  0  0  0  0  0  0  0  0
   28.5495  -29.2310  -18.3358 O   0  0  0  0  0  0  0  0  0  0  0  0
   30.5945  -28.2323  -18.7353 N   0  0  0  0  0  0  0  0  0  0  0  0
   31.1917  -29.4604  -19.1805 C   0  0  1  0  0  0  0  0  0  0  0  0
   32.4316  -29.3510  -19.9819 C   0  0  0  0  0  0  0  0  0  0  0  0
   32.9719  -30.6083  -20.5850 C   0  0  0  0  0  0  0  0  0  0  0  0
   34.2418  -30.4783  -21.3525 C   0  0  0  0  0  0  0  0  0  0  0  0
   34.5549  -31.8579  -21.9363 C   0  0  0  0  0  0  0  0  0  0  0  0
   35.8323  -31.8295  -22.5989 N   0  0  0  0  0  0  0  0  0  0  0  0
   31.4787  -30.3543  -17.9908 C   0  0  0  0  0  0  0  0  0  0  0  0
   31.6667  -29.8867  -16.8519 O   0  0  0  0  0  0  0  0  0  0  0  0
   27.2530  -33.6874  -13.5294 C   0  0  0  0  0  0  0  0  0  0  0  0
   27.8668  -32.5607  -14.8018 S   0  0  0  0  0  0  0  0  0  0  0  0
   29.4807  -33.2095  -15.3822 C   0  0  0  0  0  0  0  0  0  0  0  0
   29.9712  -32.3054  -16.4630 C   0  0  0  0  0  0  0  0  0  0  0  0
   31.2785  -32.7044  -17.0592 C   0  0  2  0  0  0  0  0  0  0  0  0
   31.5385  -31.7606  -18.1579 N   0  0  0  0  0  0  0  0  0  0  0  0
   31.3773  -34.0893  -17.5112 C   0  0  0  0  0  0  0  0  0  0  0  0
   31.9533  -35.0675  -16.7231 O   0  0  0  0  0  0  0  0  0  0  0  0
   30.9436  -34.4588  -18.6421 O   0  0  0  0  0  0  0  0  0  0  0  0
  2  1  1  0
  3  2  1  0
  3  4  1  1
  5  6  2  0
  5  3  1  0
  7  5  1  0
  8  7  1  0
  8  9  1  1
 10 11  1  0
 10  9  1  0
 11 12  1  0
 12 13  1  0
 14  8  1  0
 14 21  1  0
 15 14  2  0
 17 16  1  0
 18 17  1  0
 20 19  1  6
 19 18  1  0
 20 21  1  0
 20 22  1  0
 22 23  1  0
 24 22  2  0
M  END
$$$$
