SKM.pdb
     RDKit          3D

 24 23  0  0  1  0  0  0  0  0999 V2000
   18.3488  -21.5946   -9.3445 O   0  0  0  0  0  0  0  0  0  0  0  0
   19.3628  -22.4376   -8.9067 C   0  0  0  0  0  0  0  0  0  0  0  0
   19.1430  -23.7987   -9.5301 C   0  0  2  0  0  0  0  0  0  0  0  0
   18.5552  -23.7242  -10.8304 N   0  0  0  0  0  0  0  0  0  0  0  0
   18.2979  -24.5868   -8.6330 C   0  0  0  0  0  0  0  0  0  0  0  0
   17.0840  -24.2949   -8.4931 O   0  0  0  0  0  0  0  0  0  0  0  0
   18.8015  -25.7136   -7.8795 N   0  0  0  0  0  0  0  0  0  0  0  0
   17.9452  -26.5134   -7.0486 C   0  0  1  0  0  0  0  0  0  0  0  0
   18.2587  -27.9574   -6.9565 C   0  0  0  0  0  0  0  0  0  0  0  0
   17.2790  -28.8274   -6.2358 C   0  0  0  0  0  0  0  0  0  0  0  0
   17.6245  -30.2735   -6.1444 C   0  0  0  0  0  0  0  0  0  0  0  0
   16.4560  -30.9692   -5.4424 C   0  0  0  0  0  0  0  0  0  0  0  0
   16.7460  -32.3700   -5.2831 N   0  0  0  0  0  0  0  0  0  0  0  0
   17.9178  -25.9481   -5.6427 C   0  0  0  0  0  0  0  0  0  0  0  0
   18.9535  -25.5480   -5.0785 O   0  0  0  0  0  0  0  0  0  0  0  0
   13.3926  -22.5356   -4.1015 C   0  0  0  0  0  0  0  0  0  0  0  0
   13.7368  -22.7161   -2.3367 S   0  0  0  0  0  0  0  0  0  0  0  0
   15.1666  -23.8515   -2.1662 C   0  0  0  0  0  0  0  0  0  0  0  0
   15.4466  -24.4338   -3.5111 C   0  0  0  0  0  0  0  0  0  0  0  0
   16.6044  -25.3727   -3.5511 C   0  0  2  0  0  0  0  0  0  0  0  0
   16.6922  -25.8640   -4.9355 N   0  0  0  0  0  0  0  0  0  0  0  0
   16.5644  -26.4759   -2.5953 C   0  0  0  0  0  0  0  0  0  0  0  0
   16.0246  -27.7032   -2.9302 O   0  0  0  0  0  0  0  0  0  0  0  0
   17.0189  -26.3615   -1.4189 O   0  0  0  0  0  0  0  0  0  0  0  0
  2  1  1  0
  3  2  1  0
  3  4  1  6
  5  6  2  0
  5  3  1  0
  7  5  1  0
  8  7  1  0
  8  9  1  1
 10 11  1  0
 10  9  1  0
 11 12  1  0
 12 13  1  0
 14  8  1  0
 14 21  1  0
 15 14  2  0
 17 16  1  0
 18 17  1  0
 20 19  1  6
 19 18  1  0
 20 21  1  0
 20 22  1  0
 22 23  1  0
 24 22  2  0
M  END
$$$$
