SKM.pdb
     RDKit          3D

 24 23  0  0  1  0  0  0  0  0999 V2000
   25.1846  -15.3954  -15.0435 O   0  0  0  0  0  0  0  0  0  0  0  0
   24.8240  -14.0939  -15.3702 C   0  0  0  0  0  0  0  0  0  0  0  0
   23.6374  -14.1571  -16.3069 C   0  0  2  0  0  0  0  0  0  0  0  0
   23.9521  -14.7684  -17.5595 N   0  0  0  0  0  0  0  0  0  0  0  0
   23.1393  -12.7973  -16.5140 C   0  0  0  0  0  0  0  0  0  0  0  0
   23.5760  -12.1050  -17.4671 O   0  0  0  0  0  0  0  0  0  0  0  0
   22.1445  -12.1936  -15.6555 N   0  0  0  0  0  0  0  0  0  0  0  0
   21.7019  -10.8401  -15.8433 C   0  0  1  0  0  0  0  0  0  0  0  0
   20.5499  -10.3922  -15.0284 C   0  0  0  0  0  0  0  0  0  0  0  0
   19.9729   -9.0475  -15.3367 C   0  0  0  0  0  0  0  0  0  0  0  0
   18.6755   -8.7212  -14.6817 C   0  0  0  0  0  0  0  0  0  0  0  0
   18.1687   -7.4234  -15.3149 C   0  0  0  0  0  0  0  0  0  0  0  0
   16.8710   -7.0958  -14.7852 N   0  0  0  0  0  0  0  0  0  0  0  0
   22.8515   -9.8837  -15.5971 C   0  0  0  0  0  0  0  0  0  0  0  0
   23.6483  -10.0480  -14.6542 O   0  0  0  0  0  0  0  0  0  0  0  0
   29.5605   -8.9108  -17.4522 C   0  0  0  0  0  0  0  0  0  0  0  0
   27.9349   -9.6725  -17.2454 S   0  0  0  0  0  0  0  0  0  0  0  0
   26.7388   -8.3313  -16.8808 C   0  0  0  0  0  0  0  0  0  0  0  0
   25.3857   -8.9492  -16.7645 C   0  0  0  0  0  0  0  0  0  0  0  0
   24.2871   -7.9845  -16.4708 C   0  0  2  0  0  0  0  0  0  0  0  0
   23.0416   -8.7681  -16.4508 N   0  0  0  0  0  0  0  0  0  0  0  0
   24.1835   -6.8415  -17.3736 C   0  0  0  0  0  0  0  0  0  0  0  0
   24.8584   -5.6613  -17.1259 O   0  0  0  0  0  0  0  0  0  0  0  0
   23.4727   -6.8758  -18.4210 O   0  0  0  0  0  0  0  0  0  0  0  0
  2  1  1  0
  3  2  1  0
  3  4  1  6
  5  6  2  0
  5  3  1  0
  7  5  1  0
  8  7  1  0
  8  9  1  1
 10 11  1  0
 10  9  1  0
 11 12  1  0
 12 13  1  0
 14  8  1  0
 14 21  1  0
 15 14  2  0
 17 16  1  0
 18 17  1  0
 20 19  1  6
 19 18  1  0
 20 21  1  0
 20 22  1  0
 22 23  1  0
 24 22  2  0
M  END
$$$$
