SKM.pdb
     RDKit          3D

 24 23  0  0  1  0  0  0  0  0999 V2000
   11.9637  -10.8470  -12.8812 O   0  0  0  0  0  0  0  0  0  0  0  0
   12.8747   -9.9832  -13.4768 C   0  0  0  0  0  0  0  0  0  0  0  0
   14.2099  -10.6908  -13.5550 C   0  0  2  0  0  0  0  0  0  0  0  0
   14.1633  -12.0210  -13.0351 N   0  0  0  0  0  0  0  0  0  0  0  0
   15.1983   -9.8938  -12.8284 C   0  0  0  0  0  0  0  0  0  0  0  0
   15.2244   -9.9149  -11.5726 O   0  0  0  0  0  0  0  0  0  0  0  0
   16.1720   -9.0613  -13.4993 N   0  0  0  0  0  0  0  0  0  0  0  0
   17.1388   -8.2882  -12.7708 C   0  0  1  0  0  0  0  0  0  0  0  0
   18.2843   -7.7508  -13.5394 C   0  0  0  0  0  0  0  0  0  0  0  0
   19.3086   -6.9649  -12.7848 C   0  0  0  0  0  0  0  0  0  0  0  0
   20.3638   -6.3025  -13.6012 C   0  0  0  0  0  0  0  0  0  0  0  0
   21.3778   -5.7057  -12.6224 C   0  0  0  0  0  0  0  0  0  0  0  0
   22.4693   -5.1138  -13.3504 N   0  0  0  0  0  0  0  0  0  0  0  0
   16.4533   -7.1284  -12.0768 C   0  0  0  0  0  0  0  0  0  0  0  0
   15.6890   -6.3592  -12.6893 O   0  0  0  0  0  0  0  0  0  0  0  0
   13.2547   -4.1799   -5.9863 C   0  0  0  0  0  0  0  0  0  0  0  0
   13.7895   -5.5665   -7.0142 S   0  0  0  0  0  0  0  0  0  0  0  0
   15.4992   -5.2118   -7.5741 C   0  0  0  0  0  0  0  0  0  0  0  0
   15.8880   -6.2745   -8.5466 C   0  0  0  0  0  0  0  0  0  0  0  0
   16.0176   -5.8070   -9.9566 C   0  0  2  0  0  0  0  0  0  0  0  0
   16.6746   -6.8966  -10.6960 N   0  0  0  0  0  0  0  0  0  0  0  0
   16.7143   -4.5379  -10.1464 C   0  0  0  0  0  0  0  0  0  0  0  0
   16.0838   -3.3276   -9.9287 O   0  0  0  0  0  0  0  0  0  0  0  0
   17.9234   -4.4851  -10.5193 O   0  0  0  0  0  0  0  0  0  0  0  0
  2  1  1  0
  3  2  1  0
  3  4  1  1
  5  6  2  0
  5  3  1  0
  7  5  1  0
  8  7  1  0
  8  9  1  6
 10 11  1  0
 10  9  1  0
 11 12  1  0
 12 13  1  0
 14  8  1  0
 14 21  1  0
 15 14  2  0
 17 16  1  0
 18 17  1  0
 20 19  1  1
 19 18  1  0
 20 21  1  0
 20 22  1  0
 22 23  1  0
 24 22  2  0
M  END
$$$$
