SKM.pdb
     RDKit          3D

 24 23  0  0  1  0  0  0  0  0999 V2000
   26.2650  -14.9344  -15.3448 O   0  0  0  0  0  0  0  0  0  0  0  0
   26.8517  -16.1756  -15.1307 C   0  0  0  0  0  0  0  0  0  0  0  0
   26.9967  -16.8632  -16.4707 C   0  0  2  0  0  0  0  0  0  0  0  0
   26.2253  -16.2402  -17.4996 N   0  0  0  0  0  0  0  0  0  0  0  0
   26.6037  -18.2638  -16.3162 C   0  0  0  0  0  0  0  0  0  0  0  0
   25.4033  -18.6016  -16.4687 O   0  0  0  0  0  0  0  0  0  0  0  0
   27.5507  -19.3063  -15.9883 N   0  0  0  0  0  0  0  0  0  0  0  0
   27.1458  -20.6749  -15.8267 C   0  0  1  0  0  0  0  0  0  0  0  0
   28.1654  -21.7126  -16.1011 C   0  0  0  0  0  0  0  0  0  0  0  0
   27.7313  -23.1409  -16.0139 C   0  0  0  0  0  0  0  0  0  0  0  0
   28.7532  -24.1634  -16.3730 C   0  0  0  0  0  0  0  0  0  0  0  0
   28.0843  -25.5327  -16.2334 C   0  0  0  0  0  0  0  0  0  0  0  0
   28.9958  -26.5662  -16.6489 N   0  0  0  0  0  0  0  0  0  0  0  0
   26.6192  -20.8935  -14.4226 C   0  0  0  0  0  0  0  0  0  0  0  0
   27.3736  -20.8802  -13.4318 O   0  0  0  0  0  0  0  0  0  0  0  0
   25.3341  -21.5743   -8.7444 C   0  0  0  0  0  0  0  0  0  0  0  0
   25.8299  -20.0565   -9.5904 S   0  0  0  0  0  0  0  0  0  0  0  0
   24.5354  -19.6667  -10.8292 C   0  0  0  0  0  0  0  0  0  0  0  0
   25.1193  -19.8954  -12.1831 C   0  0  0  0  0  0  0  0  0  0  0  0
   24.6259  -21.1226  -12.8717 C   0  0  2  0  0  0  0  0  0  0  0  0
   25.2361  -21.1205  -14.2108 N   0  0  0  0  0  0  0  0  0  0  0  0
   23.1753  -21.2723  -12.9469 C   0  0  0  0  0  0  0  0  0  0  0  0
   22.4037  -20.4463  -13.7420 O   0  0  0  0  0  0  0  0  0  0  0  0
   22.5573  -22.1606  -12.2893 O   0  0  0  0  0  0  0  0  0  0  0  0
  2  1  1  0
  3  2  1  0
  3  4  1  6
  5  6  2  0
  5  3  1  0
  7  5  1  0
  8  7  1  0
  8  9  1  1
 10 11  1  0
 10  9  1  0
 11 12  1  0
 12 13  1  0
 14  8  1  0
 14 21  1  0
 15 14  2  0
 17 16  1  0
 18 17  1  0
 20 19  1  6
 19 18  1  0
 20 21  1  0
 20 22  1  0
 22 23  1  0
 24 22  2  0
M  END
$$$$
