SKM.pdb
     RDKit          3D

 24 23  0  0  1  0  0  0  0  0999 V2000
   27.7026  -12.2578  -15.5315 O   0  0  0  0  0  0  0  0  0  0  0  0
   26.7961  -11.2617  -15.8730 C   0  0  0  0  0  0  0  0  0  0  0  0
   25.7035  -11.8891  -16.7109 C   0  0  2  0  0  0  0  0  0  0  0  0
   26.1730  -12.3480  -17.9801 N   0  0  0  0  0  0  0  0  0  0  0  0
   24.6347  -10.9060  -16.8877 C   0  0  0  0  0  0  0  0  0  0  0  0
   24.6723  -10.1014  -17.8519 O   0  0  0  0  0  0  0  0  0  0  0  0
   23.5082  -10.8104  -15.9861 N   0  0  0  0  0  0  0  0  0  0  0  0
   22.4434   -9.8704  -16.2003 C   0  0  1  0  0  0  0  0  0  0  0  0
   21.0788  -10.3067  -15.8270 C   0  0  0  0  0  0  0  0  0  0  0  0
   19.9696   -9.3203  -16.0086 C   0  0  0  0  0  0  0  0  0  0  0  0
   18.6150   -9.7653  -15.5775 C   0  0  0  0  0  0  0  0  0  0  0  0
   17.6431   -8.6328  -15.9170 C   0  0  0  0  0  0  0  0  0  0  0  0
   16.3507   -8.9113  -15.3478 N   0  0  0  0  0  0  0  0  0  0  0  0
   22.7412   -8.5789  -15.4654 C   0  0  0  0  0  0  0  0  0  0  0  0
   23.1214   -8.5742  -14.2794 O   0  0  0  0  0  0  0  0  0  0  0  0
   22.2555   -2.8650  -18.6202 C   0  0  0  0  0  0  0  0  0  0  0  0
   23.6692   -2.6149  -17.5227 S   0  0  0  0  0  0  0  0  0  0  0  0
   23.4215   -3.6809  -16.0514 C   0  0  0  0  0  0  0  0  0  0  0  0
   23.1428   -5.0646  -16.5351 C   0  0  0  0  0  0  0  0  0  0  0  0
   22.8195   -6.0442  -15.4584 C   0  0  2  0  0  0  0  0  0  0  0  0
   22.5894   -7.3347  -16.1273 N   0  0  0  0  0  0  0  0  0  0  0  0
   21.7031   -5.6888  -14.5869 C   0  0  0  0  0  0  0  0  0  0  0  0
   21.8980   -4.9876  -13.4121 O   0  0  0  0  0  0  0  0  0  0  0  0
   20.5086   -6.0058  -14.8632 O   0  0  0  0  0  0  0  0  0  0  0  0
  2  1  1  0
  3  2  1  0
  3  4  1  6
  5  6  2  0
  5  3  1  0
  7  5  1  0
  8  7  1  0
  8  9  1  1
 10 11  1  0
 10  9  1  0
 11 12  1  0
 12 13  1  0
 14  8  1  0
 14 21  1  0
 15 14  2  0
 17 16  1  0
 18 17  1  0
 20 19  1  6
 19 18  1  0
 20 21  1  0
 20 22  1  0
 22 23  1  0
 24 22  2  0
M  END
$$$$
