SKM.pdb
     RDKit          3D

 24 23  0  0  1  0  0  0  0  0999 V2000
   26.8173  -20.0702  -17.0400 O   0  0  0  0  0  0  0  0  0  0  0  0
   28.0742  -20.2547  -16.4771 C   0  0  0  0  0  0  0  0  0  0  0  0
   27.9368  -21.2374  -15.3349 C   0  0  2  0  0  0  0  0  0  0  0  0
   27.2853  -22.4490  -15.7216 N   0  0  0  0  0  0  0  0  0  0  0  0
   27.2008  -20.5863  -14.2511 C   0  0  0  0  0  0  0  0  0  0  0  0
   27.5990  -19.4874  -13.7908 O   0  0  0  0  0  0  0  0  0  0  0  0
   26.0075  -21.1580  -13.6676 N   0  0  0  0  0  0  0  0  0  0  0  0
   25.2755  -20.4876  -12.6294 C   0  0  1  0  0  0  0  0  0  0  0  0
   23.8043  -20.4223  -12.7813 C   0  0  0  0  0  0  0  0  0  0  0  0
   23.2692  -19.6905  -13.9705 C   0  0  0  0  0  0  0  0  0  0  0  0
   21.7869  -19.6623  -14.1149 C   0  0  0  0  0  0  0  0  0  0  0  0
   21.4794  -18.9488  -15.4335 C   0  0  0  0  0  0  0  0  0  0  0  0
   20.0577  -18.9275  -15.6572 N   0  0  0  0  0  0  0  0  0  0  0  0
   25.5814  -21.1258  -11.2893 C   0  0  0  0  0  0  0  0  0  0  0  0
   25.4813  -22.3544  -11.1121 O   0  0  0  0  0  0  0  0  0  0  0  0
   28.5780  -19.4019   -4.1991 C   0  0  0  0  0  0  0  0  0  0  0  0
   28.3377  -18.9905   -5.9422 S   0  0  0  0  0  0  0  0  0  0  0  0
   27.1559  -20.2071   -6.6389 C   0  0  0  0  0  0  0  0  0  0  0  0
   27.0316  -19.9335   -8.1004 C   0  0  0  0  0  0  0  0  0  0  0  0
   26.0862  -20.8335   -8.8213 C   0  0  2  0  0  0  0  0  0  0  0  0
   25.9937  -20.3209  -10.1977 N   0  0  0  0  0  0  0  0  0  0  0  0
   24.7647  -20.9849   -8.2188 C   0  0  0  0  0  0  0  0  0  0  0  0
   24.5543  -21.8209   -7.1388 O   0  0  0  0  0  0  0  0  0  0  0  0
   23.7526  -20.3617   -8.6555 O   0  0  0  0  0  0  0  0  0  0  0  0
  2  1  1  0
  3  2  1  0
  3  4  1  6
  5  6  2  0
  5  3  1  0
  7  5  1  0
  8  7  1  0
  8  9  1  6
 10 11  1  0
 10  9  1  0
 11 12  1  0
 12 13  1  0
 14  8  1  0
 14 21  1  0
 15 14  2  0
 17 16  1  0
 18 17  1  0
 20 19  1  1
 19 18  1  0
 20 21  1  0
 20 22  1  0
 22 23  1  0
 24 22  2  0
M  END
$$$$
