SKM.pdb
     RDKit          3D

 24 23  0  0  1  0  0  0  0  0999 V2000
   17.3233  -11.3369  -13.9216 O   0  0  0  0  0  0  0  0  0  0  0  0
   16.9441  -11.8716  -12.6965 C   0  0  0  0  0  0  0  0  0  0  0  0
   15.5250  -11.4307  -12.4114 C   0  0  2  0  0  0  0  0  0  0  0  0
   14.6386  -11.6747  -13.5052 N   0  0  0  0  0  0  0  0  0  0  0  0
   15.5421  -10.0066  -12.0770 C   0  0  0  0  0  0  0  0  0  0  0  0
   15.1525   -9.1576  -12.9171 O   0  0  0  0  0  0  0  0  0  0  0  0
   15.9964   -9.5134  -10.7957 N   0  0  0  0  0  0  0  0  0  0  0  0
   15.9622   -8.1158  -10.4660 C   0  0  1  0  0  0  0  0  0  0  0  0
   15.5514   -7.7619   -9.0884 C   0  0  0  0  0  0  0  0  0  0  0  0
   15.3555   -6.3113   -8.7823 C   0  0  0  0  0  0  0  0  0  0  0  0
   14.7559   -5.9927   -7.4565 C   0  0  0  0  0  0  0  0  0  0  0  0
   14.4681   -4.4897   -7.4452 C   0  0  0  0  0  0  0  0  0  0  0  0
   13.8235   -4.1250   -6.2110 N   0  0  0  0  0  0  0  0  0  0  0  0
   17.3185   -7.4920  -10.7266 C   0  0  0  0  0  0  0  0  0  0  0  0
   18.3619   -7.9700  -10.2429 O   0  0  0  0  0  0  0  0  0  0  0  0
   23.3926   -7.6866  -13.9811 C   0  0  0  0  0  0  0  0  0  0  0  0
   21.6947   -8.1155  -13.5358 S   0  0  0  0  0  0  0  0  0  0  0  0
   20.8396   -6.5644  -13.0609 C   0  0  0  0  0  0  0  0  0  0  0  0
   19.5130   -6.9348  -12.4871 C   0  0  0  0  0  0  0  0  0  0  0  0
   18.7158   -5.7833  -11.9752 C   0  0  2  0  0  0  0  0  0  0  0  0
   17.4232   -6.3351  -11.5390 N   0  0  0  0  0  0  0  0  0  0  0  0
   18.5347   -4.6702  -12.9027 C   0  0  0  0  0  0  0  0  0  0  0  0
   17.3086   -4.4041  -13.4818 O   0  0  0  0  0  0  0  0  0  0  0  0
   19.4880   -3.8996  -13.2207 O   0  0  0  0  0  0  0  0  0  0  0  0
  2  1  1  0
  3  2  1  0
  3  4  1  6
  5  6  2  0
  5  3  1  0
  7  5  1  0
  8  7  1  0
  8  9  1  1
 10 11  1  0
 10  9  1  0
 11 12  1  0
 12 13  1  0
 14  8  1  0
 14 21  1  0
 15 14  2  0
 17 16  1  0
 18 17  1  0
 20 19  1  6
 19 18  1  0
 20 21  1  0
 20 22  1  0
 22 23  1  0
 24 22  2  0
M  END
$$$$
