SKM.pdb
     RDKit          3D

 24 23  0  0  1  0  0  0  0  0999 V2000
   27.5589  -15.9616  -15.0682 O   0  0  0  0  0  0  0  0  0  0  0  0
   26.4539  -16.7574  -15.3446 C   0  0  0  0  0  0  0  0  0  0  0  0
   26.9422  -18.0190  -16.0223 C   0  0  2  0  0  0  0  0  0  0  0  0
   27.4335  -17.7838  -17.3433 N   0  0  0  0  0  0  0  0  0  0  0  0
   25.8423  -18.9831  -16.0515 C   0  0  0  0  0  0  0  0  0  0  0  0
   24.9778  -18.9248  -16.9612 O   0  0  0  0  0  0  0  0  0  0  0  0
   25.6956  -20.0267  -15.0613 N   0  0  0  0  0  0  0  0  0  0  0  0
   24.5707  -20.9198  -15.0622 C   0  0  1  0  0  0  0  0  0  0  0  0
   24.7836  -22.2668  -14.4860 C   0  0  0  0  0  0  0  0  0  0  0  0
   23.6390  -23.2273  -14.5457 C   0  0  0  0  0  0  0  0  0  0  0  0
   23.8744  -24.5711  -13.9477 C   0  0  0  0  0  0  0  0  0  0  0  0
   22.5787  -25.3682  -14.1146 C   0  0  0  0  0  0  0  0  0  0  0  0
   22.7520  -26.6974  -13.5901 N   0  0  0  0  0  0  0  0  0  0  0  0
   23.4036  -20.2785  -14.3387 C   0  0  0  0  0  0  0  0  0  0  0  0
   23.5175  -19.8307  -13.1822 O   0  0  0  0  0  0  0  0  0  0  0  0
   20.5829  -14.8669  -17.1225 C   0  0  0  0  0  0  0  0  0  0  0  0
   19.8678  -16.5068  -16.8682 S   0  0  0  0  0  0  0  0  0  0  0  0
   20.8544  -17.3440  -15.5689 C   0  0  0  0  0  0  0  0  0  0  0  0
   20.3156  -18.7264  -15.4100 C   0  0  0  0  0  0  0  0  0  0  0  0
   20.9800  -19.5319  -14.3455 C   0  0  2  0  0  0  0  0  0  0  0  0
   22.1423  -20.1762  -14.9776 N   0  0  0  0  0  0  0  0  0  0  0  0
   20.1350  -20.5079  -13.6631 C   0  0  0  0  0  0  0  0  0  0  0  0
   19.4547  -20.1892  -12.5032 O   0  0  0  0  0  0  0  0  0  0  0  0
   19.9868  -21.6879  -14.0980 O   0  0  0  0  0  0  0  0  0  0  0  0
  2  1  1  0
  3  2  1  0
  3  4  1  6
  5  6  2  0
  5  3  1  0
  7  5  1  0
  8  7  1  0
  8  9  1  1
 10 11  1  0
 10  9  1  0
 11 12  1  0
 12 13  1  0
 14  8  1  0
 14 21  1  0
 15 14  2  0
 17 16  1  0
 18 17  1  0
 20 19  1  6
 19 18  1  0
 20 21  1  0
 20 22  1  0
 22 23  1  0
 24 22  2  0
M  END
$$$$
