SKM.pdb
     RDKit          3D

 24 23  0  0  1  0  0  0  0  0999 V2000
   12.4480  -10.1855   -9.3553 O   0  0  0  0  0  0  0  0  0  0  0  0
   13.4555  -10.0314  -10.2996 C   0  0  0  0  0  0  0  0  0  0  0  0
   14.3604   -8.9087   -9.8410 C   0  0  2  0  0  0  0  0  0  0  0  0
   13.6701   -7.6665   -9.6920 N   0  0  0  0  0  0  0  0  0  0  0  0
   15.4526   -8.7726  -10.8047 C   0  0  0  0  0  0  0  0  0  0  0  0
   16.2073   -9.7483  -11.0431 O   0  0  0  0  0  0  0  0  0  0  0  0
   15.7147   -7.5407  -11.5151 N   0  0  0  0  0  0  0  0  0  0  0  0
   16.7506   -7.4423  -12.5052 C   0  0  1  0  0  0  0  0  0  0  0  0
   16.4181   -6.7199  -13.7539 C   0  0  0  0  0  0  0  0  0  0  0  0
   15.7700   -7.5053  -14.8490 C   0  0  0  0  0  0  0  0  0  0  0  0
   15.5198   -6.7763  -16.1237 C   0  0  0  0  0  0  0  0  0  0  0  0
   14.8838   -7.7754  -17.0930 C   0  0  0  0  0  0  0  0  0  0  0  0
   13.5897   -8.1735  -16.6046 N   0  0  0  0  0  0  0  0  0  0  0  0
   17.9803   -6.7944  -11.9010 C   0  0  0  0  0  0  0  0  0  0  0  0
   17.8918   -5.8579  -11.0848 O   0  0  0  0  0  0  0  0  0  0  0  0
   24.7223   -8.4766   -8.7514 C   0  0  0  0  0  0  0  0  0  0  0  0
   23.1787   -8.9415   -9.5678 S   0  0  0  0  0  0  0  0  0  0  0  0
   22.4848   -7.4296  -10.3393 C   0  0  0  0  0  0  0  0  0  0  0  0
   21.1668   -7.7898  -10.9386 C   0  0  0  0  0  0  0  0  0  0  0  0
   20.5051   -6.6850  -11.6904 C   0  0  2  0  0  0  0  0  0  0  0  0
   19.2727   -7.2518  -12.2611 N   0  0  0  0  0  0  0  0  0  0  0  0
   21.3173   -6.0347  -12.7150 C   0  0  0  0  0  0  0  0  0  0  0  0
   22.2534   -5.0711  -12.3914 O   0  0  0  0  0  0  0  0  0  0  0  0
   21.2026   -6.3199  -13.9435 O   0  0  0  0  0  0  0  0  0  0  0  0
  2  1  1  0
  3  2  1  0
  3  4  1  6
  5  6  2  0
  5  3  1  0
  7  5  1  0
  8  7  1  0
  8  9  1  6
 10 11  1  0
 10  9  1  0
 11 12  1  0
 12 13  1  0
 14  8  1  0
 14 21  1  0
 15 14  2  0
 17 16  1  0
 18 17  1  0
 20 19  1  6
 19 18  1  0
 20 21  1  0
 20 22  1  0
 22 23  1  0
 24 22  2  0
M  END
$$$$
