SKM.pdb
     RDKit          3D

 24 23  0  0  1  0  0  0  0  0999 V2000
   15.1418  -11.9722  -12.8499 O   0  0  0  0  0  0  0  0  0  0  0  0
   16.3188  -11.5578  -13.4613 C   0  0  0  0  0  0  0  0  0  0  0  0
   16.3063  -12.0571  -14.8895 C   0  0  2  0  0  0  0  0  0  0  0  0
   16.3163  -13.4833  -14.9781 N   0  0  0  0  0  0  0  0  0  0  0  0
   17.4637  -11.4950  -15.5856 C   0  0  0  0  0  0  0  0  0  0  0  0
   18.5244  -12.1611  -15.6834 O   0  0  0  0  0  0  0  0  0  0  0  0
   17.4489  -10.1778  -16.1821 N   0  0  0  0  0  0  0  0  0  0  0  0
   18.5601   -9.6775  -16.9424 C   0  0  1  0  0  0  0  0  0  0  0  0
   18.2573   -8.6853  -17.9987 C   0  0  0  0  0  0  0  0  0  0  0  0
   17.5125   -9.1695  -19.2016 C   0  0  0  0  0  0  0  0  0  0  0  0
   17.1683   -8.1404  -20.2220 C   0  0  0  0  0  0  0  0  0  0  0  0
   16.3619   -8.8461  -21.3146 C   0  0  0  0  0  0  0  0  0  0  0  0
   15.9868   -7.9003  -22.3327 N   0  0  0  0  0  0  0  0  0  0  0  0
   19.5904   -9.0718  -16.0105 C   0  0  0  0  0  0  0  0  0  0  0  0
   19.2577   -8.4119  -15.0081 O   0  0  0  0  0  0  0  0  0  0  0  0
   25.5704  -11.7898  -14.3898 C   0  0  0  0  0  0  0  0  0  0  0  0
   25.8160  -10.2551  -15.3116 S   0  0  0  0  0  0  0  0  0  0  0  0
   24.4466   -9.1192  -14.8679 C   0  0  0  0  0  0  0  0  0  0  0  0
   23.2585   -9.4989  -15.6869 C   0  0  0  0  0  0  0  0  0  0  0  0
   22.0225   -8.7219  -15.3833 C   0  0  2  0  0  0  0  0  0  0  0  0
   20.9727   -9.2499  -16.2691 N   0  0  0  0  0  0  0  0  0  0  0  0
   22.1370   -7.2707  -15.4980 C   0  0  0  0  0  0  0  0  0  0  0  0
   22.3977   -6.4770  -14.3972 O   0  0  0  0  0  0  0  0  0  0  0  0
   22.0022   -6.6723  -16.6058 O   0  0  0  0  0  0  0  0  0  0  0  0
  2  1  1  0
  3  2  1  0
  3  4  1  1
  5  6  2  0
  5  3  1  0
  7  5  1  0
  8  7  1  0
  8  9  1  6
 10 11  1  0
 10  9  1  0
 11 12  1  0
 12 13  1  0
 14  8  1  0
 14 21  1  0
 15 14  2  0
 17 16  1  0
 18 17  1  0
 20 19  1  6
 19 18  1  0
 20 21  1  0
 20 22  1  0
 22 23  1  0
 24 22  2  0
M  END
$$$$
