SKM.pdb
     RDKit          3D

 24 23  0  0  1  0  0  0  0  0999 V2000
   15.2953  -11.4642  -14.0634 O   0  0  0  0  0  0  0  0  0  0  0  0
   16.3143  -10.5812  -14.3990 C   0  0  0  0  0  0  0  0  0  0  0  0
   15.8544   -9.7636  -15.5861 C   0  0  2  0  0  0  0  0  0  0  0  0
   15.8352  -10.5142  -16.8019 N   0  0  0  0  0  0  0  0  0  0  0  0
   16.7357   -8.6033  -15.7172 C   0  0  0  0  0  0  0  0  0  0  0  0
   17.8280   -8.7079  -16.3290 O   0  0  0  0  0  0  0  0  0  0  0  0
   16.4052   -7.3086  -15.1643 N   0  0  0  0  0  0  0  0  0  0  0  0
   17.2857   -6.1814  -15.2950 C   0  0  1  0  0  0  0  0  0  0  0  0
   16.7034   -4.8433  -15.0456 C   0  0  0  0  0  0  0  0  0  0  0  0
   15.8331   -4.2637  -16.1147 C   0  0  0  0  0  0  0  0  0  0  0  0
   14.4023   -4.0536  -15.7578 C   0  0  0  0  0  0  0  0  0  0  0  0
   13.7192   -3.4478  -16.9861 C   0  0  0  0  0  0  0  0  0  0  0  0
   12.3229   -3.2316  -16.7115 N   0  0  0  0  0  0  0  0  0  0  0  0
   18.4803   -6.3521  -14.3781 C   0  0  0  0  0  0  0  0  0  0  0  0
   18.3461   -6.6732  -13.1823 O   0  0  0  0  0  0  0  0  0  0  0  0
   22.1901  -10.7727  -13.5844 C   0  0  0  0  0  0  0  0  0  0  0  0
   23.3738   -9.6510  -14.3629 S   0  0  0  0  0  0  0  0  0  0  0  0
   22.9223   -7.9432  -13.8708 C   0  0  0  0  0  0  0  0  0  0  0  0
   21.6282   -7.6072  -14.5331 C   0  0  0  0  0  0  0  0  0  0  0  0
   20.9952   -6.3455  -14.0524 C   0  0  2  0  0  0  0  0  0  0  0  0
   19.7916   -6.1458  -14.8753 N   0  0  0  0  0  0  0  0  0  0  0  0
   21.8486   -5.1607  -14.0595 C   0  0  0  0  0  0  0  0  0  0  0  0
   21.9211   -4.3287  -15.1605 O   0  0  0  0  0  0  0  0  0  0  0  0
   22.5611   -4.8407  -13.0627 O   0  0  0  0  0  0  0  0  0  0  0  0
  2  1  1  0
  3  2  1  0
  3  4  1  6
  5  6  2  0
  5  3  1  0
  7  5  1  0
  8  7  1  0
  8  9  1  1
 10 11  1  0
 10  9  1  0
 11 12  1  0
 12 13  1  0
 14  8  1  0
 14 21  1  0
 15 14  2  0
 17 16  1  0
 18 17  1  0
 20 19  1  6
 19 18  1  0
 20 21  1  0
 20 22  1  0
 22 23  1  0
 24 22  2  0
M  END
$$$$
