SKM.pdb
     RDKit          3D

 24 23  0  0  1  0  0  0  0  0999 V2000
   15.3456  -12.3865  -17.1430 O   0  0  0  0  0  0  0  0  0  0  0  0
   15.8011  -11.0997  -16.8831 C   0  0  0  0  0  0  0  0  0  0  0  0
   17.1601  -11.2069  -16.2267 C   0  0  2  0  0  0  0  0  0  0  0  0
   17.1294  -11.9508  -15.0071 N   0  0  0  0  0  0  0  0  0  0  0  0
   17.6652   -9.8550  -15.9867 C   0  0  0  0  0  0  0  0  0  0  0  0
   18.5662   -9.3796  -16.7217 O   0  0  0  0  0  0  0  0  0  0  0  0
   17.1674   -9.0165  -14.9189 N   0  0  0  0  0  0  0  0  0  0  0  0
   17.5788   -7.6478  -14.7754 C   0  0  1  0  0  0  0  0  0  0  0  0
   16.6599   -6.7444  -14.0465 C   0  0  0  0  0  0  0  0  0  0  0  0
   15.3625   -6.4057  -14.7085 C   0  0  0  0  0  0  0  0  0  0  0  0
   14.4650   -5.4788  -13.9641 C   0  0  0  0  0  0  0  0  0  0  0  0
   13.2217   -5.2673  -14.8311 C   0  0  0  0  0  0  0  0  0  0  0  0
   12.2599   -4.4677  -14.1189 N   0  0  0  0  0  0  0  0  0  0  0  0
   18.9334   -7.5856  -14.0987 C   0  0  0  0  0  0  0  0  0  0  0  0
   19.1515   -8.1643  -13.0176 O   0  0  0  0  0  0  0  0  0  0  0  0
   25.8046   -9.9289  -14.1473 C   0  0  0  0  0  0  0  0  0  0  0  0
   24.1223   -9.7417  -14.7800 S   0  0  0  0  0  0  0  0  0  0  0  0
   23.4546   -8.1681  -14.1165 C   0  0  0  0  0  0  0  0  0  0  0  0
   22.0455   -8.0377  -14.5895 C   0  0  0  0  0  0  0  0  0  0  0  0
   21.3464   -6.8061  -14.1225 C   0  0  2  0  0  0  0  0  0  0  0  0
   19.9919   -6.8557  -14.6954 N   0  0  0  0  0  0  0  0  0  0  0  0
   22.0090   -5.5415  -14.4288 C   0  0  0  0  0  0  0  0  0  0  0  0
   22.9914   -5.0226  -13.6069 O   0  0  0  0  0  0  0  0  0  0  0  0
   21.7160   -4.8618  -15.4563 O   0  0  0  0  0  0  0  0  0  0  0  0
  2  1  1  0
  3  2  1  0
  3  4  1  1
  5  6  2  0
  5  3  1  0
  7  5  1  0
  8  7  1  0
  8  9  1  1
 10 11  1  0
 10  9  1  0
 11 12  1  0
 12 13  1  0
 14  8  1  0
 14 21  1  0
 15 14  2  0
 17 16  1  0
 18 17  1  0
 20 19  1  6
 19 18  1  0
 20 21  1  0
 20 22  1  0
 22 23  1  0
 24 22  2  0
M  END
$$$$
