SKM.pdb
     RDKit          3D

 24 23  0  0  1  0  0  0  0  0999 V2000
   28.7018  -12.6595  -16.5716 O   0  0  0  0  0  0  0  0  0  0  0  0
   29.1185  -13.0331  -17.8434 C   0  0  0  0  0  0  0  0  0  0  0  0
   29.2253  -11.7825  -18.6882 C   0  0  2  0  0  0  0  0  0  0  0  0
   30.0074  -10.7600  -18.0681 N   0  0  0  0  0  0  0  0  0  0  0  0
   27.8740  -11.2942  -18.9637 C   0  0  0  0  0  0  0  0  0  0  0  0
   27.5169  -10.1627  -18.5510 O   0  0  0  0  0  0  0  0  0  0  0  0
   26.9033  -12.0676  -19.7058 N   0  0  0  0  0  0  0  0  0  0  0  0
   25.6019  -11.5483  -20.0218 C   0  0  1  0  0  0  0  0  0  0  0  0
   24.8546  -12.2259  -21.1054 C   0  0  0  0  0  0  0  0  0  0  0  0
   23.5601  -11.6121  -21.5338 C   0  0  0  0  0  0  0  0  0  0  0  0
   22.8430  -12.2954  -22.6463 C   0  0  0  0  0  0  0  0  0  0  0  0
   21.6423  -11.4188  -23.0097 C   0  0  0  0  0  0  0  0  0  0  0  0
   20.9601  -11.9731  -24.1495 N   0  0  0  0  0  0  0  0  0  0  0  0
   24.7324  -11.5481  -18.7805 C   0  0  0  0  0  0  0  0  0  0  0  0
   24.6819  -12.5310  -18.0174 O   0  0  0  0  0  0  0  0  0  0  0  0
   23.6025   -9.2184  -11.9833 C   0  0  0  0  0  0  0  0  0  0  0  0
   24.4770   -9.4129  -13.5526 S   0  0  0  0  0  0  0  0  0  0  0  0
   23.2341   -9.8540  -14.8265 C   0  0  0  0  0  0  0  0  0  0  0  0
   23.9541  -10.0296  -16.1215 C   0  0  0  0  0  0  0  0  0  0  0  0
   23.0739  -10.3509  -17.2815 C   0  0  2  0  0  0  0  0  0  0  0  0
   23.9496  -10.4099  -18.4627 N   0  0  0  0  0  0  0  0  0  0  0  0
   21.9476   -9.4470  -17.4973 C   0  0  0  0  0  0  0  0  0  0  0  0
   20.7699   -9.5771  -16.7862 O   0  0  0  0  0  0  0  0  0  0  0  0
   21.9949   -8.5058  -18.3432 O   0  0  0  0  0  0  0  0  0  0  0  0
  2  1  1  0
  3  2  1  0
  3  4  1  1
  5  6  2  0
  5  3  1  0
  7  5  1  0
  8  7  1  0
  8  9  1  6
 10 11  1  0
 10  9  1  0
 11 12  1  0
 12 13  1  0
 14  8  1  0
 14 21  1  0
 15 14  2  0
 17 16  1  0
 18 17  1  0
 20 19  1  1
 19 18  1  0
 20 21  1  0
 20 22  1  0
 22 23  1  0
 24 22  2  0
M  END
$$$$
