FSK.pdb
     RDKit          3D

 27 27  0  0  1  0  0  0  0  0999 V2000
   28.3116  -19.6651  -15.7917 N   0  0  0  0  0  0  0  0  0  0  0  0
   27.3349  -19.2102  -14.8515 C   0  0  1  0  0  0  0  0  0  0  0  0
   26.3216  -18.3188  -15.5061 C   0  0  0  0  0  0  0  0  0  0  0  0
   26.9785  -17.0294  -15.8320 C   0  0  0  0  0  0  0  0  0  0  0  0
   27.3576  -16.7421  -17.1225 C   0  0  0  0  0  0  0  0  0  0  0  0
   27.9722  -15.5329  -17.4192 C   0  0  0  0  0  0  0  0  0  0  0  0
   28.2154  -14.5990  -16.4366 C   0  0  0  0  0  0  0  0  0  0  0  0
   27.8396  -14.8787  -15.1450 C   0  0  0  0  0  0  0  0  0  0  0  0
   27.2299  -16.0834  -14.8635 C   0  0  0  0  0  0  0  0  0  0  0  0
   26.7069  -20.3109  -14.0735 C   0  0  0  0  0  0  0  0  0  0  0  0
   26.3814  -21.3465  -14.6773 O   0  0  0  0  0  0  0  0  0  0  0  0
   25.6442  -19.6399  -10.0646 O   0  0  0  0  0  0  0  0  0  0  0  0
   25.6839  -20.9639  -10.4679 C   0  0  0  0  0  0  0  0  0  0  0  0
   25.5864  -21.1126  -11.9622 C   0  0  2  0  0  0  0  0  0  0  0  0
   26.4591  -20.2441  -12.6807 N   0  0  0  0  0  0  0  0  0  0  0  0
   24.2007  -20.9269  -12.4560 C   0  0  0  0  0  0  0  0  0  0  0  0
   23.8628  -19.8447  -12.9799 O   0  0  0  0  0  0  0  0  0  0  0  0
   23.2089  -21.9330  -12.3665 N   0  0  0  0  0  0  0  0  0  0  0  0
   21.8346  -21.7005  -12.8576 C   0  0  1  0  0  0  0  0  0  0  0  0
   21.3814  -22.8345  -13.7080 C   0  0  0  0  0  0  0  0  0  0  0  0
   20.0144  -22.6126  -14.2350 C   0  0  0  0  0  0  0  0  0  0  0  0
   19.5089  -23.7431  -15.0987 C   0  0  0  0  0  0  0  0  0  0  0  0
   18.1035  -23.4114  -15.5700 C   0  0  0  0  0  0  0  0  0  0  0  0
   17.5971  -24.4283  -16.4705 N   0  0  0  0  0  0  0  0  0  0  0  0
   20.9775  -21.3963  -11.7156 C   0  0  0  0  0  0  0  0  0  0  0  0
   20.0372  -20.5564  -11.8205 O   0  0  0  0  0  0  0  0  0  0  0  0
   21.1456  -22.0022  -10.4807 O   0  0  0  0  0  0  0  0  0  0  0  0
  2  1  1  6
  2  3  1  0
  4  3  1  0
  4  9  2  0
  5  4  1  0
  6  5  2  0
  6  7  1  0
  7  8  2  0
  8  9  1  0
 10  2  1  0
 11 10  2  0
 12 13  1  0
 14 13  1  1
 14 15  1  0
 15 10  1  0
 16 14  1  0
 16 18  1  0
 17 16  2  0
 19 18  1  0
 19 25  1  0
 19 20  1  1
 21 20  1  0
 22 21  1  0
 23 22  1  0
 24 23  1  0
 25 27  1  0
 26 25  2  0
M  END
$$$$
