FSK.pdb
     RDKit          3D

 27 27  0  0  1  0  0  0  0  0999 V2000
   28.5360  -21.1947   -8.7719 N   0  0  0  0  0  0  0  0  0  0  0  0
   27.2671  -20.5354   -8.7544 C   0  0  1  0  0  0  0  0  0  0  0  0
   27.3044  -19.3034   -7.8997 C   0  0  0  0  0  0  0  0  0  0  0  0
   27.7536  -19.6937   -6.5410 C   0  0  0  0  0  0  0  0  0  0  0  0
   29.0328  -19.4163   -6.1188 C   0  0  0  0  0  0  0  0  0  0  0  0
   29.4455  -19.7852   -4.8454 C   0  0  0  0  0  0  0  0  0  0  0  0
   28.5911  -20.4328   -3.9809 C   0  0  0  0  0  0  0  0  0  0  0  0
   27.3116  -20.7135   -4.3954 C   0  0  0  0  0  0  0  0  0  0  0  0
   26.9141  -20.3416   -5.6627 C   0  0  0  0  0  0  0  0  0  0  0  0
   26.7207  -20.2706  -10.1118 C   0  0  0  0  0  0  0  0  0  0  0  0
   27.2911  -19.4249  -10.8206 O   0  0  0  0  0  0  0  0  0  0  0  0
   26.5424  -22.2014  -13.1348 O   0  0  0  0  0  0  0  0  0  0  0  0
   26.0788  -20.8998  -13.0443 C   0  0  0  0  0  0  0  0  0  0  0  0
   25.0587  -20.7279  -11.9515 C   0  0  2  0  0  0  0  0  0  0  0  0
   25.5849  -20.9296  -10.6420 N   0  0  0  0  0  0  0  0  0  0  0  0
   23.8784  -21.6050  -12.1415 C   0  0  0  0  0  0  0  0  0  0  0  0
   23.8974  -22.7801  -11.7189 O   0  0  0  0  0  0  0  0  0  0  0  0
   22.6966  -21.1771  -12.7927 N   0  0  0  0  0  0  0  0  0  0  0  0
   21.5182  -22.0622  -12.9022 C   0  0  1  0  0  0  0  0  0  0  0  0
   20.2927  -21.3678  -12.4220 C   0  0  0  0  0  0  0  0  0  0  0  0
   19.1015  -22.2461  -12.4925 C   0  0  0  0  0  0  0  0  0  0  0  0
   17.8388  -21.5939  -11.9825 C   0  0  0  0  0  0  0  0  0  0  0  0
   16.7126  -22.6127  -12.0125 C   0  0  0  0  0  0  0  0  0  0  0  0
   15.5017  -22.0754  -11.4235 N   0  0  0  0  0  0  0  0  0  0  0  0
   21.4485  -22.5777  -14.2663 C   0  0  0  0  0  0  0  0  0  0  0  0
   21.8242  -21.8680  -15.2440 O   0  0  0  0  0  0  0  0  0  0  0  0
   20.9775  -23.8486  -14.5551 O   0  0  0  0  0  0  0  0  0  0  0  0
  2  1  1  6
  2  3  1  0
  4  3  1  0
  4  9  2  0
  5  4  1  0
  6  5  2  0
  6  7  1  0
  7  8  2  0
  8  9  1  0
 10  2  1  0
 11 10  2  0
 12 13  1  0
 14 13  1  6
 14 15  1  0
 15 10  1  0
 16 14  1  0
 16 18  1  0
 17 16  2  0
 19 18  1  0
 19 25  1  0
 19 20  1  6
 21 20  1  0
 22 21  1  0
 23 22  1  0
 24 23  1  0
 25 27  1  0
 26 25  2  0
M  END
$$$$
