FSK.pdb
     RDKit          3D

 27 27  0  0  1  0  0  0  0  0999 V2000
   27.4870  -17.8740  -17.5818 N   0  0  0  0  0  0  0  0  0  0  0  0
   27.6070  -17.7332  -16.1638 C   0  0  1  0  0  0  0  0  0  0  0  0
   26.7323  -16.6285  -15.6496 C   0  0  0  0  0  0  0  0  0  0  0  0
   27.2207  -15.3473  -16.2154 C   0  0  0  0  0  0  0  0  0  0  0  0
   28.4983  -14.9084  -15.9572 C   0  0  0  0  0  0  0  0  0  0  0  0
   28.9476  -13.7078  -16.4905 C   0  0  0  0  0  0  0  0  0  0  0  0
   28.1317  -12.9331  -17.2848 C   0  0  0  0  0  0  0  0  0  0  0  0
   26.8540  -13.3647  -17.5474 C   0  0  0  0  0  0  0  0  0  0  0  0
   26.4200  -14.5592  -17.0115 C   0  0  0  0  0  0  0  0  0  0  0  0
   27.4077  -19.0082  -15.4251 C   0  0  0  0  0  0  0  0  0  0  0  0
   26.4764  -19.7517  -15.7757 O   0  0  0  0  0  0  0  0  0  0  0  0
   29.5346  -19.8879  -11.7920 O   0  0  0  0  0  0  0  0  0  0  0  0
   29.0916  -20.9181  -12.6043 C   0  0  0  0  0  0  0  0  0  0  0  0
   27.9290  -20.5094  -13.4679 C   0  0  2  0  0  0  0  0  0  0  0  0
   28.2215  -19.4225  -14.3426 N   0  0  0  0  0  0  0  0  0  0  0  0
   26.7241  -20.1799  -12.6691 C   0  0  0  0  0  0  0  0  0  0  0  0
   26.4498  -18.9888  -12.4125 O   0  0  0  0  0  0  0  0  0  0  0  0
   25.8402  -21.1641  -12.1651 N   0  0  0  0  0  0  0  0  0  0  0  0
   24.6764  -20.7951  -11.3324 C   0  0  1  0  0  0  0  0  0  0  0  0
   23.4179  -21.3263  -11.9229 C   0  0  0  0  0  0  0  0  0  0  0  0
   22.2378  -20.9897  -11.0926 C   0  0  0  0  0  0  0  0  0  0  0  0
   20.9300  -21.4612  -11.6819 C   0  0  0  0  0  0  0  0  0  0  0  0
   19.7930  -21.0030  -10.7850 C   0  0  0  0  0  0  0  0  0  0  0  0
   18.5040  -21.3429  -11.3549 N   0  0  0  0  0  0  0  0  0  0  0  0
   24.9404  -21.2041   -9.9562 C   0  0  0  0  0  0  0  0  0  0  0  0
   25.5370  -22.2922   -9.7098 O   0  0  0  0  0  0  0  0  0  0  0  0
   24.5597  -20.4346   -8.8683 O   0  0  0  0  0  0  0  0  0  0  0  0
  2  1  1  6
  2  3  1  0
  4  3  1  0
  4  9  2  0
  5  4  1  0
  6  5  2  0
  6  7  1  0
  7  8  2  0
  8  9  1  0
 10  2  1  0
 11 10  2  0
 12 13  1  0
 14 13  1  1
 14 15  1  0
 15 10  1  0
 16 14  1  0
 16 18  1  0
 17 16  2  0
 19 18  1  0
 19 25  1  0
 19 20  1  6
 21 20  1  0
 22 21  1  0
 23 22  1  0
 24 23  1  0
 25 27  1  0
 26 25  2  0
M  END
$$$$
