FSK.pdb
     RDKit          3D

 27 27  0  0  1  0  0  0  0  0999 V2000
   22.4083   -6.7701  -15.2038 N   0  0  0  0  0  0  0  0  0  0  0  0
   21.8261   -7.9982  -15.6486 C   0  0  1  0  0  0  0  0  0  0  0  0
   22.0374   -9.0957  -14.6483 C   0  0  0  0  0  0  0  0  0  0  0  0
   23.4183   -9.6125  -14.8102 C   0  0  0  0  0  0  0  0  0  0  0  0
   24.4768   -8.9910  -14.1899 C   0  0  0  0  0  0  0  0  0  0  0  0
   25.7665   -9.4810  -14.3467 C   0  0  0  0  0  0  0  0  0  0  0  0
   26.0155  -10.5925  -15.1209 C   0  0  0  0  0  0  0  0  0  0  0  0
   24.9632  -11.2189  -15.7439 C   0  0  0  0  0  0  0  0  0  0  0  0
   23.6871  -10.7221  -15.5800 C   0  0  0  0  0  0  0  0  0  0  0  0
   20.4017   -7.8635  -16.0539 C   0  0  0  0  0  0  0  0  0  0  0  0
   19.6344   -7.2351  -15.3061 O   0  0  0  0  0  0  0  0  0  0  0  0
   18.9637   -9.4443  -19.7402 O   0  0  0  0  0  0  0  0  0  0  0  0
   18.4458   -8.2628  -19.2372 C   0  0  0  0  0  0  0  0  0  0  0  0
   18.5530   -8.1806  -17.7384 C   0  0  2  0  0  0  0  0  0  0  0  0
   19.8707   -8.4125  -17.2465 N   0  0  0  0  0  0  0  0  0  0  0  0
   17.6106   -9.0999  -17.0564 C   0  0  0  0  0  0  0  0  0  0  0  0
   18.0265  -10.1687  -16.5619 O   0  0  0  0  0  0  0  0  0  0  0  0
   16.2268   -8.8302  -16.9287 N   0  0  0  0  0  0  0  0  0  0  0  0
   15.3216   -9.7760  -16.2430 C   0  0  1  0  0  0  0  0  0  0  0  0
   13.9569   -9.1970  -16.1130 C   0  0  0  0  0  0  0  0  0  0  0  0
   13.0049  -10.1647  -15.5192 C   0  0  0  0  0  0  0  0  0  0  0  0
   12.9369  -10.0983  -14.0122 C   0  0  0  0  0  0  0  0  0  0  0  0
   11.8305  -11.0200  -13.5289 C   0  0  0  0  0  0  0  0  0  0  0  0
   11.7275  -11.0045  -12.0829 N   0  0  0  0  0  0  0  0  0  0  0  0
   15.3897  -11.0640  -16.9266 C   0  0  0  0  0  0  0  0  0  0  0  0
   15.5671  -11.1216  -18.1780 O   0  0  0  0  0  0  0  0  0  0  0  0
   15.2676  -12.2685  -16.2521 O   0  0  0  0  0  0  0  0  0  0  0  0
  2  1  1  1
  2  3  1  0
  4  3  1  0
  4  9  2  0
  5  4  1  0
  6  5  2  0
  6  7  1  0
  7  8  2  0
  8  9  1  0
 10  2  1  0
 11 10  2  0
 12 13  1  0
 14 13  1  6
 14 15  1  0
 15 10  1  0
 16 14  1  0
 16 18  1  0
 17 16  2  0
 19 18  1  0
 19 25  1  0
 19 20  1  6
 21 20  1  0
 22 21  1  0
 23 22  1  0
 24 23  1  0
 25 27  1  0
 26 25  2  0
M  END
$$$$
