FSK.pdb
     RDKit          3D

 27 27  0  0  1  0  0  0  0  0999 V2000
   25.7893  -12.1835  -16.1116 N   0  0  0  0  0  0  0  0  0  0  0  0
   25.5061  -10.7859  -16.2187 C   0  0  1  0  0  0  0  0  0  0  0  0
   25.9719  -10.2342  -17.5334 C   0  0  0  0  0  0  0  0  0  0  0  0
   27.4462  -10.3816  -17.6031 C   0  0  0  0  0  0  0  0  0  0  0  0
   28.0187  -11.3224  -18.4269 C   0  0  0  0  0  0  0  0  0  0  0  0
   29.3996  -11.4541  -18.4862 C   0  0  0  0  0  0  0  0  0  0  0  0
   30.2235  -10.6524  -17.7276 C   0  0  0  0  0  0  0  0  0  0  0  0
   29.6591   -9.7102  -16.9021 C   0  0  0  0  0  0  0  0  0  0  0  0
   28.2860   -9.5896  -16.8525 C   0  0  0  0  0  0  0  0  0  0  0  0
   24.0872  -10.4474  -15.9296 C   0  0  0  0  0  0  0  0  0  0  0  0
   23.1997  -11.1631  -16.4226 O   0  0  0  0  0  0  0  0  0  0  0  0
   20.7143   -8.3743  -13.2137 O   0  0  0  0  0  0  0  0  0  0  0  0
   22.0487   -8.6712  -13.4335 C   0  0  0  0  0  0  0  0  0  0  0  0
   22.3421   -8.9606  -14.8808 C   0  0  2  0  0  0  0  0  0  0  0  0
   23.6911   -9.3530  -15.1227 N   0  0  0  0  0  0  0  0  0  0  0  0
   22.0028   -7.8177  -15.7623 C   0  0  0  0  0  0  0  0  0  0  0  0
   22.8605   -6.9457  -16.0146 O   0  0  0  0  0  0  0  0  0  0  0  0
   20.7268   -7.6513  -16.3523 N   0  0  0  0  0  0  0  0  0  0  0  0
   20.3935   -6.4388  -17.1288 C   0  0  1  0  0  0  0  0  0  0  0  0
   19.4175   -6.7565  -18.2064 C   0  0  0  0  0  0  0  0  0  0  0  0
   19.1379   -5.5768  -19.0581 C   0  0  0  0  0  0  0  0  0  0  0  0
   18.1066   -5.8363  -20.1301 C   0  0  0  0  0  0  0  0  0  0  0  0
   17.9067   -4.5656  -20.9379 C   0  0  0  0  0  0  0  0  0  0  0  0
   16.9248   -4.7584  -21.9868 N   0  0  0  0  0  0  0  0  0  0  0  0
   19.9781   -5.3914  -16.2006 C   0  0  0  0  0  0  0  0  0  0  0  0
   20.2104   -4.1742  -16.4557 O   0  0  0  0  0  0  0  0  0  0  0  0
   19.3182   -5.6712  -15.0145 O   0  0  0  0  0  0  0  0  0  0  0  0
  2  1  1  6
  2  3  1  0
  4  3  1  0
  4  9  2  0
  5  4  1  0
  6  5  2  0
  6  7  1  0
  7  8  2  0
  8  9  1  0
 10  2  1  0
 11 10  2  0
 12 13  1  0
 14 13  1  1
 14 15  1  0
 15 10  1  0
 16 14  1  0
 16 18  1  0
 17 16  2  0
 19 18  1  0
 19 25  1  0
 19 20  1  6
 21 20  1  0
 22 21  1  0
 23 22  1  0
 24 23  1  0
 25 27  1  0
 26 25  2  0
M  END
$$$$
