FSK.pdb
     RDKit          3D

 27 27  0  0  1  0  0  0  0  0999 V2000
   22.6057  -10.1059  -16.6334 N   0  0  0  0  0  0  0  0  0  0  0  0
   22.2733   -9.2558  -15.5326 C   0  0  1  0  0  0  0  0  0  0  0  0
   23.3160   -8.1974  -15.3267 C   0  0  0  0  0  0  0  0  0  0  0  0
   24.6502   -8.8435  -15.3767 C   0  0  0  0  0  0  0  0  0  0  0  0
   25.5406   -8.5371  -16.3791 C   0  0  0  0  0  0  0  0  0  0  0  0
   26.7876   -9.1466  -16.4188 C   0  0  0  0  0  0  0  0  0  0  0  0
   27.1605  -10.0655  -15.4631 C   0  0  0  0  0  0  0  0  0  0  0  0
   26.2765  -10.3769  -14.4584 C   0  0  0  0  0  0  0  0  0  0  0  0
   25.0411   -9.7644  -14.4304 C   0  0  0  0  0  0  0  0  0  0  0  0
   20.8993   -8.6932  -15.6151 C   0  0  0  0  0  0  0  0  0  0  0  0
   20.4293   -8.4516  -16.7393 O   0  0  0  0  0  0  0  0  0  0  0  0
   18.6949   -7.6322  -12.1316 O   0  0  0  0  0  0  0  0  0  0  0  0
   18.0032   -8.0410  -13.2592 C   0  0  0  0  0  0  0  0  0  0  0  0
   18.7940   -7.8379  -14.5234 C   0  0  2  0  0  0  0  0  0  0  0  0
   20.0958   -8.4173  -14.4821 N   0  0  0  0  0  0  0  0  0  0  0  0
   18.9105   -6.4058  -14.8892 C   0  0  0  0  0  0  0  0  0  0  0  0
   19.9077   -5.7466  -14.5274 O   0  0  0  0  0  0  0  0  0  0  0  0
   17.9300   -5.7211  -15.6466 N   0  0  0  0  0  0  0  0  0  0  0  0
   18.0047   -4.2600  -15.8553 C   0  0  1  0  0  0  0  0  0  0  0  0
   17.4700   -3.8922  -17.1945 C   0  0  0  0  0  0  0  0  0  0  0  0
   18.3203   -4.4187  -18.2879 C   0  0  0  0  0  0  0  0  0  0  0  0
   17.7684   -4.1470  -19.6668 C   0  0  0  0  0  0  0  0  0  0  0  0
   16.7070   -5.1859  -19.9851 C   0  0  0  0  0  0  0  0  0  0  0  0
   16.2239   -5.0446  -21.3447 N   0  0  0  0  0  0  0  0  0  0  0  0
   17.3644   -3.5950  -14.7244 C   0  0  0  0  0  0  0  0  0  0  0  0
   17.3667   -2.3333  -14.6323 O   0  0  0  0  0  0  0  0  0  0  0  0
   16.7308   -4.2989  -13.7126 O   0  0  0  0  0  0  0  0  0  0  0  0
  2  1  1  6
  2  3  1  0
  4  3  1  0
  4  9  2  0
  5  4  1  0
  6  5  2  0
  6  7  1  0
  7  8  2  0
  8  9  1  0
 10  2  1  0
 11 10  2  0
 12 13  1  0
 14 13  1  1
 14 15  1  0
 15 10  1  0
 16 14  1  0
 16 18  1  0
 17 16  2  0
 19 18  1  0
 19 25  1  0
 19 20  1  6
 21 20  1  0
 22 21  1  0
 23 22  1  0
 24 23  1  0
 25 27  1  0
 26 25  2  0
M  END
$$$$
