FSK.pdb
     RDKit          3D

 27 27  0  0  1  0  0  0  0  0999 V2000
   23.9632  -15.3784  -18.9907 N   0  0  0  0  0  0  0  0  0  0  0  0
   24.0285  -13.9568  -19.1311 C   0  0  1  0  0  0  0  0  0  0  0  0
   23.6694  -13.5293  -20.5232 C   0  0  0  0  0  0  0  0  0  0  0  0
   24.6693  -14.1016  -21.4576 C   0  0  0  0  0  0  0  0  0  0  0  0
   25.9177  -13.5379  -21.5803 C   0  0  0  0  0  0  0  0  0  0  0  0
   26.8478  -14.0796  -22.4574 C   0  0  0  0  0  0  0  0  0  0  0  0
   26.5455  -15.1859  -23.2200 C   0  0  0  0  0  0  0  0  0  0  0  0
   25.3004  -15.7548  -23.1031 C   0  0  0  0  0  0  0  0  0  0  0  0
   24.3857  -15.2070  -22.2282 C   0  0  0  0  0  0  0  0  0  0  0  0
   23.2548  -13.2251  -18.0933 C   0  0  0  0  0  0  0  0  0  0  0  0
   22.1018  -13.6106  -17.8384 O   0  0  0  0  0  0  0  0  0  0  0  0
   25.0267  -10.3741  -15.4623 O   0  0  0  0  0  0  0  0  0  0  0  0
   23.8811  -11.0878  -15.1530 C   0  0  0  0  0  0  0  0  0  0  0  0
   23.0508  -11.3968  -16.3694 C   0  0  2  0  0  0  0  0  0  0  0  0
   23.7599  -12.1117  -17.3785 N   0  0  0  0  0  0  0  0  0  0  0  0
   22.4529  -10.1782  -16.9660 C   0  0  0  0  0  0  0  0  0  0  0  0
   23.0486   -9.5728  -17.8817 O   0  0  0  0  0  0  0  0  0  0  0  0
   21.2105   -9.6444  -16.5471 N   0  0  0  0  0  0  0  0  0  0  0  0
   20.6958   -8.3747  -17.1012 C   0  0  1  0  0  0  0  0  0  0  0  0
   19.2253   -8.2702  -16.8976 C   0  0  0  0  0  0  0  0  0  0  0  0
   18.6841   -7.0054  -17.4481 C   0  0  0  0  0  0  0  0  0  0  0  0
   17.1809   -6.8995  -17.3532 C   0  0  0  0  0  0  0  0  0  0  0  0
   16.7416   -5.5794  -17.9627 C   0  0  0  0  0  0  0  0  0  0  0  0
   15.3045   -5.5389  -18.1496 N   0  0  0  0  0  0  0  0  0  0  0  0
   21.4811   -7.2743  -16.5503 C   0  0  0  0  0  0  0  0  0  0  0  0
   21.9391   -7.3351  -15.3725 O   0  0  0  0  0  0  0  0  0  0  0  0
   21.7619   -6.1279  -17.2766 O   0  0  0  0  0  0  0  0  0  0  0  0
  2  1  1  6
  2  3  1  0
  4  3  1  0
  4  9  2  0
  5  4  1  0
  6  5  2  0
  6  7  1  0
  7  8  2  0
  8  9  1  0
 10  2  1  0
 11 10  2  0
 12 13  1  0
 14 13  1  1
 14 15  1  0
 15 10  1  0
 16 14  1  0
 16 18  1  0
 17 16  2  0
 19 18  1  0
 19 25  1  0
 19 20  1  1
 21 20  1  0
 22 21  1  0
 23 22  1  0
 24 23  1  0
 25 27  1  0
 26 25  2  0
M  END
$$$$
