FSK.pdb
     RDKit          3D

 27 27  0  0  1  0  0  0  0  0999 V2000
   27.7744  -20.3383  -11.4246 N   0  0  0  0  0  0  0  0  0  0  0  0
   26.6520  -21.1915  -11.1853 C   0  0  1  0  0  0  0  0  0  0  0  0
   26.0745  -20.9628   -9.8200 C   0  0  0  0  0  0  0  0  0  0  0  0
   27.1942  -20.8685   -8.8517 C   0  0  0  0  0  0  0  0  0  0  0  0
   27.2006  -19.8956   -7.8796 C   0  0  0  0  0  0  0  0  0  0  0  0
   28.2526  -19.8141   -6.9771 C   0  0  0  0  0  0  0  0  0  0  0  0
   29.3071  -20.6982   -7.0326 C   0  0  0  0  0  0  0  0  0  0  0  0
   29.3080  -21.6730   -8.0009 C   0  0  0  0  0  0  0  0  0  0  0  0
   28.2570  -21.7432   -8.8913 C   0  0  0  0  0  0  0  0  0  0  0  0
   25.6229  -21.1276  -12.2568 C   0  0  0  0  0  0  0  0  0  0  0  0
   25.2863  -20.0105  -12.6831 O   0  0  0  0  0  0  0  0  0  0  0  0
   23.4785  -24.5711  -13.7362 O   0  0  0  0  0  0  0  0  0  0  0  0
   23.9307  -23.5814  -14.5925 C   0  0  0  0  0  0  0  0  0  0  0  0
   24.0811  -22.2513  -13.9049 C   0  0  2  0  0  0  0  0  0  0  0  0
   25.0046  -22.2709  -12.8190 N   0  0  0  0  0  0  0  0  0  0  0  0
   22.7833  -21.7145  -13.4298 C   0  0  0  0  0  0  0  0  0  0  0  0
   22.4242  -21.9000  -12.2481 O   0  0  0  0  0  0  0  0  0  0  0  0
   21.9011  -20.9826  -14.2604 N   0  0  0  0  0  0  0  0  0  0  0  0
   20.5898  -20.5164  -13.7632 C   0  0  1  0  0  0  0  0  0  0  0  0
   20.2492  -19.1890  -14.3436 C   0  0  0  0  0  0  0  0  0  0  0  0
   18.9208  -18.7161  -13.8885 C   0  0  0  0  0  0  0  0  0  0  0  0
   18.5692  -17.3338  -14.3840 C   0  0  0  0  0  0  0  0  0  0  0  0
   17.2066  -16.9467  -13.8356 C   0  0  0  0  0  0  0  0  0  0  0  0
   16.7795  -15.6599  -14.3487 N   0  0  0  0  0  0  0  0  0  0  0  0
   19.6042  -21.5685  -13.9928 C   0  0  0  0  0  0  0  0  0  0  0  0
   18.5702  -21.6530  -13.2687 O   0  0  0  0  0  0  0  0  0  0  0  0
   19.7468  -22.5109  -14.9989 O   0  0  0  0  0  0  0  0  0  0  0  0
  2  1  1  6
  2  3  1  0
  4  3  1  0
  4  9  2  0
  5  4  1  0
  6  5  2  0
  6  7  1  0
  7  8  2  0
  8  9  1  0
 10  2  1  0
 11 10  2  0
 12 13  1  0
 14 13  1  1
 14 15  1  0
 15 10  1  0
 16 14  1  0
 16 18  1  0
 17 16  2  0
 19 18  1  0
 19 25  1  0
 19 20  1  6
 21 20  1  0
 22 21  1  0
 23 22  1  0
 24 23  1  0
 25 27  1  0
 26 25  2  0
M  END
$$$$
