FSK.pdb
     RDKit          3D

 27 27  0  0  1  0  0  0  0  0999 V2000
   16.0600  -16.2312    5.2146 N   0  0  0  0  0  0  0  0  0  0  0  0
   17.2446  -15.7176    5.8293 C   0  0  1  0  0  0  0  0  0  0  0  0
   17.0379  -14.3178    6.3270 C   0  0  0  0  0  0  0  0  0  0  0  0
   18.3688  -13.6932    6.5237 C   0  0  0  0  0  0  0  0  0  0  0  0
   18.9464  -12.9444    5.5251 C   0  0  0  0  0  0  0  0  0  0  0  0
   20.1927  -12.3632    5.7172 C   0  0  0  0  0  0  0  0  0  0  0  0
   20.8756  -12.5209    6.9028 C   0  0  0  0  0  0  0  0  0  0  0  0
   20.3051  -13.2675    7.9052 C   0  0  0  0  0  0  0  0  0  0  0  0
   19.0667  -13.8395    7.7017 C   0  0  0  0  0  0  0  0  0  0  0  0
   17.8051  -16.6162    6.8732 C   0  0  0  0  0  0  0  0  0  0  0  0
   17.0630  -16.9707    7.8041 O   0  0  0  0  0  0  0  0  0  0  0  0
   21.8153  -18.1878    6.7176 O   0  0  0  0  0  0  0  0  0  0  0  0
   20.7628  -18.8785    7.2943 C   0  0  0  0  0  0  0  0  0  0  0  0
   19.7049  -17.9598    7.8433 C   0  0  2  0  0  0  0  0  0  0  0  0
   19.1393  -17.0908    6.8650 N   0  0  0  0  0  0  0  0  0  0  0  0
   20.1993  -17.1517    8.9838 C   0  0  0  0  0  0  0  0  0  0  0  0
   20.8839  -16.1282    8.7753 O   0  0  0  0  0  0  0  0  0  0  0  0
   19.9336  -17.4809   10.3347 N   0  0  0  0  0  0  0  0  0  0  0  0
   20.4866  -16.6750   11.4432 C   0  0  1  0  0  0  0  0  0  0  0  0
   19.3948  -16.0116   12.2064 C   0  0  0  0  0  0  0  0  0  0  0  0
   19.1970  -14.6086   11.7730 C   0  0  0  0  0  0  0  0  0  0  0  0
   18.0634  -13.9102   12.4852 C   0  0  0  0  0  0  0  0  0  0  0  0
   17.8944  -12.5205   11.8959 C   0  0  0  0  0  0  0  0  0  0  0  0
   16.8635  -11.7760   12.5921 N   0  0  0  0  0  0  0  0  0  0  0  0
   21.3758  -17.5202   12.2345 C   0  0  0  0  0  0  0  0  0  0  0  0
   21.6542  -17.2206   13.4317 O   0  0  0  0  0  0  0  0  0  0  0  0
   21.9490  -18.6744   11.7248 O   0  0  0  0  0  0  0  0  0  0  0  0
  2  1  1  1
  2  3  1  0
  4  3  1  0
  4  9  2  0
  5  4  1  0
  6  5  2  0
  6  7  1  0
  7  8  2  0
  8  9  1  0
 10  2  1  0
 11 10  2  0
 12 13  1  0
 14 13  1  6
 14 15  1  0
 15 10  1  0
 16 14  1  0
 16 18  1  0
 17 16  2  0
 19 18  1  0
 19 25  1  0
 19 20  1  1
 21 20  1  0
 22 21  1  0
 23 22  1  0
 24 23  1  0
 25 27  1  0
 26 25  2  0
M  END
$$$$
