YAC.pdb
     RDKit          3D

 24 24  0  0  1  0  0  0  0  0999 V2000
   23.8206  -21.3218   -7.5219 O   0  0  0  0  0  0  0  0  0  0  0  0
   24.5368  -20.9673   -8.6632 C   0  0  0  0  0  0  0  0  0  0  0  0
   25.9208  -20.9129   -8.6762 C   0  0  0  0  0  0  0  0  0  0  0  0
   26.5674  -20.5546   -9.8396 C   0  0  0  0  0  0  0  0  0  0  0  0
   25.9096  -20.2432  -11.0062 C   0  0  0  0  0  0  0  0  0  0  0  0
   26.6316  -19.8573  -12.2568 C   0  0  0  0  0  0  0  0  0  0  0  0
   26.0714  -20.6845  -13.3827 C   0  0  2  0  0  0  0  0  0  0  0  0
   26.5376  -22.0558  -13.3071 N   0  0  0  0  0  0  0  0  0  0  0  0
   26.3373  -20.1289  -14.7109 C   0  0  0  0  0  0  0  0  0  0  0  0
   27.5171  -19.7885  -15.0241 O   0  0  0  0  0  0  0  0  0  0  0  0
   24.5332  -20.2993  -10.9861 C   0  0  0  0  0  0  0  0  0  0  0  0
   23.8687  -20.6560   -9.8307 C   0  0  0  0  0  0  0  0  0  0  0  0
   26.6995  -20.2065  -17.7415 C   0  0  0  0  0  0  0  0  0  0  0  0
   25.6127  -19.4385  -17.0271 C   0  0  2  0  0  0  0  0  0  0  0  0
   25.3350  -19.9334  -15.7174 N   0  0  0  0  0  0  0  0  0  0  0  0
   24.3775  -19.3420  -17.8706 C   0  0  0  0  0  0  0  0  0  0  0  0
   24.4398  -18.9413  -19.0620 O   0  0  0  0  0  0  0  0  0  0  0  0
   23.0989  -19.6942  -17.3686 N   0  0  0  0  0  0  0  0  0  0  0  0
   21.8936  -19.6652  -18.1548 C   0  0  1  0  0  0  0  0  0  0  0  0
   21.1319  -20.9698  -18.0914 C   0  0  0  0  0  0  0  0  0  0  0  0
   22.3389  -22.2960  -18.4329 S   0  0  0  0  0  0  0  0  0  0  0  0
   21.0087  -18.5741  -17.6803 C   0  0  0  0  0  0  0  0  0  0  0  0
   19.7648  -18.3387  -18.2479 O   0  0  0  0  0  0  0  0  0  0  0  0
   21.3947  -17.8407  -16.7374 O   0  0  0  0  0  0  0  0  0  0  0  0
  1  2  1  0
  2 12  2  0
  3  4  2  0
  3  2  1  0
  4  5  1  0
  5  6  1  0
  5 11  2  0
  6  7  1  0
  7  9  1  0
  7  8  1  6
  9 10  2  0
  9 15  1  0
 12 11  1  0
 14 16  1  0
 14 13  1  6
 15 14  1  0
 16 17  2  0
 18 16  1  0
 18 19  1  0
 19 20  1  1
 20 21  1  0
 22 23  1  0
 22 19  1  0
 24 22  2  0
M  END
$$$$
