YAC.pdb
     RDKit          3D

 24 24  0  0  1  0  0  0  0  0999 V2000
   11.4725  -26.0927  -11.1689 O   0  0  0  0  0  0  0  0  0  0  0  0
   12.3308  -26.2257  -10.0795 C   0  0  0  0  0  0  0  0  0  0  0  0
   13.6179  -26.7199  -10.2127 C   0  0  0  0  0  0  0  0  0  0  0  0
   14.4153  -26.8256   -9.0934 C   0  0  0  0  0  0  0  0  0  0  0  0
   14.0022  -26.4640   -7.8326 C   0  0  0  0  0  0  0  0  0  0  0  0
   14.8845  -26.5871   -6.6324 C   0  0  0  0  0  0  0  0  0  0  0  0
   15.3775  -25.2084   -6.2832 C   0  0  2  0  0  0  0  0  0  0  0  0
   16.3335  -24.7304   -7.2635 N   0  0  0  0  0  0  0  0  0  0  0  0
   15.9377  -25.1072   -4.9344 C   0  0  0  0  0  0  0  0  0  0  0  0
   17.1391  -25.4526   -4.7262 O   0  0  0  0  0  0  0  0  0  0  0  0
   12.7210  -25.9734   -7.7075 C   0  0  0  0  0  0  0  0  0  0  0  0
   11.9083  -25.8603   -8.8168 C   0  0  0  0  0  0  0  0  0  0  0  0
   15.0412  -23.6252   -1.5598 C   0  0  0  0  0  0  0  0  0  0  0  0
   15.7407  -24.6079   -2.4689 C   0  0  2  0  0  0  0  0  0  0  0  0
   15.2100  -24.6326   -3.7937 N   0  0  0  0  0  0  0  0  0  0  0  0
   15.7889  -25.9729   -1.8517 C   0  0  0  0  0  0  0  0  0  0  0  0
   14.9327  -26.8458   -2.1494 O   0  0  0  0  0  0  0  0  0  0  0  0
   16.7904  -26.3362   -0.9157 N   0  0  0  0  0  0  0  0  0  0  0  0
   16.9026  -27.6463   -0.3305 C   0  0  1  0  0  0  0  0  0  0  0  0
   18.3339  -28.0150   -0.0116 C   0  0  0  0  0  0  0  0  0  0  0  0
   18.9183  -29.0714   -1.3809 S   0  0  0  0  0  0  0  0  0  0  0  0
   16.1053  -27.7105    0.9180 C   0  0  0  0  0  0  0  0  0  0  0  0
   15.4998  -28.8843    1.3426 O   0  0  0  0  0  0  0  0  0  0  0  0
   15.9733  -26.6733    1.6127 O   0  0  0  0  0  0  0  0  0  0  0  0
  1  2  1  0
  2 12  2  0
  3  4  2  0
  3  2  1  0
  4  5  1  0
  5  6  1  0
  5 11  2  0
  6  7  1  0
  7  9  1  0
  7  8  1  6
  9 10  2  0
  9 15  1  0
 12 11  1  0
 14 16  1  0
 14 13  1  1
 15 14  1  0
 16 17  2  0
 18 16  1  0
 18 19  1  0
 19 20  1  1
 20 21  1  0
 22 23  1  0
 22 19  1  0
 24 22  2  0
M  END
$$$$
