YAC.pdb
     RDKit          3D

 24 24  0  0  1  0  0  0  0  0999 V2000
   28.5350  -20.2748   -3.5209 O   0  0  0  0  0  0  0  0  0  0  0  0
   28.0659  -20.1268   -4.8244 C   0  0  0  0  0  0  0  0  0  0  0  0
   26.8425  -20.6353   -5.2285 C   0  0  0  0  0  0  0  0  0  0  0  0
   26.4381  -20.4535   -6.5336 C   0  0  0  0  0  0  0  0  0  0  0  0
   27.1892  -19.7868   -7.4729 C   0  0  0  0  0  0  0  0  0  0  0  0
   26.7306  -19.6012   -8.8834 C   0  0  0  0  0  0  0  0  0  0  0  0
   26.7163  -20.9547   -9.5420 C   0  0  2  0  0  0  0  0  0  0  0  0
   28.0573  -21.4949   -9.6575 N   0  0  0  0  0  0  0  0  0  0  0  0
   26.0477  -20.9691  -10.8444 C   0  0  0  0  0  0  0  0  0  0  0  0
   26.7355  -20.8703  -11.9041 O   0  0  0  0  0  0  0  0  0  0  0  0
   28.4048  -19.2837   -7.0642 C   0  0  0  0  0  0  0  0  0  0  0  0
   28.8261  -19.4560   -5.7617 C   0  0  0  0  0  0  0  0  0  0  0  0
   22.4985  -21.3378  -12.2161 C   0  0  0  0  0  0  0  0  0  0  0  0
   23.9862  -21.0888  -12.2944 C   0  0  2  0  0  0  0  0  0  0  0  0
   24.6298  -21.0901  -11.0204 N   0  0  0  0  0  0  0  0  0  0  0  0
   24.2842  -19.8471  -13.0791 C   0  0  0  0  0  0  0  0  0  0  0  0
   23.9636  -18.7129  -12.6379 O   0  0  0  0  0  0  0  0  0  0  0  0
   24.9331  -19.8956  -14.3390 N   0  0  0  0  0  0  0  0  0  0  0  0
   25.3211  -18.7280  -15.0859 C   0  0  1  0  0  0  0  0  0  0  0  0
   26.7271  -18.8334  -15.6320 C   0  0  0  0  0  0  0  0  0  0  0  0
   27.8559  -18.5812  -14.2196 S   0  0  0  0  0  0  0  0  0  0  0  0
   24.3857  -18.5197  -16.2174 C   0  0  0  0  0  0  0  0  0  0  0  0
   24.1790  -17.2676  -16.7778 O   0  0  0  0  0  0  0  0  0  0  0  0
   23.7615  -19.5042  -16.6832 O   0  0  0  0  0  0  0  0  0  0  0  0
  1  2  1  0
  2 12  2  0
  3  4  2  0
  3  2  1  0
  4  5  1  0
  5  6  1  0
  5 11  2  0
  6  7  1  0
  7  9  1  0
  7  8  1  6
  9 10  2  0
  9 15  1  0
 12 11  1  0
 14 16  1  0
 14 13  1  1
 15 14  1  0
 16 17  2  0
 18 16  1  0
 18 19  1  0
 19 20  1  6
 20 21  1  0
 22 23  1  0
 22 19  1  0
 24 22  2  0
M  END
$$$$
