YAC.pdb
     RDKit          3D

 24 24  0  0  1  0  0  0  0  0999 V2000
    9.0191   -9.5965   -6.5930 O   0  0  0  0  0  0  0  0  0  0  0  0
   10.0146   -9.5663   -7.5673 C   0  0  0  0  0  0  0  0  0  0  0  0
   10.7677  -10.6846   -7.8848 C   0  0  0  0  0  0  0  0  0  0  0  0
   11.7375  -10.5860   -8.8594 C   0  0  0  0  0  0  0  0  0  0  0  0
   12.0057   -9.4250   -9.5457 C   0  0  0  0  0  0  0  0  0  0  0  0
   13.0625   -9.3410  -10.5994 C   0  0  0  0  0  0  0  0  0  0  0  0
   12.4199   -9.6717  -11.9198 C   0  0  2  0  0  0  0  0  0  0  0  0
   12.2974  -11.1058  -12.0979 N   0  0  0  0  0  0  0  0  0  0  0  0
   13.0966   -9.0716  -13.0710 C   0  0  0  0  0  0  0  0  0  0  0  0
   14.1844   -9.5694  -13.4892 O   0  0  0  0  0  0  0  0  0  0  0  0
   11.2529   -8.3168   -9.2248 C   0  0  0  0  0  0  0  0  0  0  0  0
   10.2777   -8.3966   -8.2519 C   0  0  0  0  0  0  0  0  0  0  0  0
   12.3202   -6.5783  -15.8174 C   0  0  0  0  0  0  0  0  0  0  0  0
   13.2494   -7.3813  -14.9381 C   0  0  2  0  0  0  0  0  0  0  0  0
   12.6093   -7.9279  -13.7855 N   0  0  0  0  0  0  0  0  0  0  0  0
   14.4741   -6.5920  -14.5860 C   0  0  0  0  0  0  0  0  0  0  0  0
   14.5734   -6.0196  -13.4697 O   0  0  0  0  0  0  0  0  0  0  0  0
   15.5621   -6.4575  -15.4854 N   0  0  0  0  0  0  0  0  0  0  0  0
   16.7643   -5.7254  -15.1848 C   0  0  1  0  0  0  0  0  0  0  0  0
   17.9632   -6.2486  -15.9432 C   0  0  0  0  0  0  0  0  0  0  0  0
   19.3818   -5.2062  -15.4601 S   0  0  0  0  0  0  0  0  0  0  0  0
   16.5785   -4.2927  -15.5186 C   0  0  0  0  0  0  0  0  0  0  0  0
   17.0064   -3.2804  -14.6719 O   0  0  0  0  0  0  0  0  0  0  0  0
   16.0177   -3.9846  -16.5986 O   0  0  0  0  0  0  0  0  0  0  0  0
  1  2  1  0
  2 12  2  0
  3  4  2  0
  3  2  1  0
  4  5  1  0
  5  6  1  0
  5 11  2  0
  6  7  1  0
  7  9  1  0
  7  8  1  6
  9 10  2  0
  9 15  1  0
 12 11  1  0
 14 16  1  0
 14 13  1  1
 15 14  1  0
 16 17  2  0
 18 16  1  0
 18 19  1  0
 19 20  1  6
 20 21  1  0
 22 23  1  0
 22 19  1  0
 24 22  2  0
M  END
$$$$
