YAC.pdb
     RDKit          3D

 24 24  0  0  1  0  0  0  0  0999 V2000
   11.5221  -11.7616  -17.7249 O   0  0  0  0  0  0  0  0  0  0  0  0
   12.7321  -11.2470  -17.2639 C   0  0  0  0  0  0  0  0  0  0  0  0
   13.5370  -10.4410  -18.0520 C   0  0  0  0  0  0  0  0  0  0  0  0
   14.7223   -9.9649  -17.5339 C   0  0  0  0  0  0  0  0  0  0  0  0
   15.1598  -10.2472  -16.2613 C   0  0  0  0  0  0  0  0  0  0  0  0
   16.4493   -9.7197  -15.7199 C   0  0  0  0  0  0  0  0  0  0  0  0
   17.5634  -10.5467  -16.3037 C   0  0  2  0  0  0  0  0  0  0  0  0
   17.5405  -11.8993  -15.7809 N   0  0  0  0  0  0  0  0  0  0  0  0
   18.8909   -9.9551  -16.1274 C   0  0  0  0  0  0  0  0  0  0  0  0
   19.4040   -9.8980  -14.9700 O   0  0  0  0  0  0  0  0  0  0  0  0
   14.3543  -11.0494  -15.4830 C   0  0  0  0  0  0  0  0  0  0  0  0
   13.1643  -11.5352  -15.9847 C   0  0  0  0  0  0  0  0  0  0  0  0
   21.7405   -8.6197  -18.2719 C   0  0  0  0  0  0  0  0  0  0  0  0
   20.9333   -8.7598  -17.0029 C   0  0  2  0  0  0  0  0  0  0  0  0
   19.6816   -9.4179  -17.1961 N   0  0  0  0  0  0  0  0  0  0  0  0
   20.7786   -7.4377  -16.3140 C   0  0  0  0  0  0  0  0  0  0  0  0
   19.8096   -6.6806  -16.5815 O   0  0  0  0  0  0  0  0  0  0  0  0
   21.7071   -6.9874  -15.3413 N   0  0  0  0  0  0  0  0  0  0  0  0
   21.6192   -5.7121  -14.6799 C   0  0  1  0  0  0  0  0  0  0  0  0
   22.5759   -5.5996  -13.5144 C   0  0  0  0  0  0  0  0  0  0  0  0
   22.2799   -3.9676  -12.7518 S   0  0  0  0  0  0  0  0  0  0  0  0
   21.9127   -4.6236  -15.6430 C   0  0  0  0  0  0  0  0  0  0  0  0
   21.1513   -3.4650  -15.6956 O   0  0  0  0  0  0  0  0  0  0  0  0
   22.8782   -4.7523  -16.4350 O   0  0  0  0  0  0  0  0  0  0  0  0
  1  2  1  0
  2 12  2  0
  3  4  2  0
  3  2  1  0
  4  5  1  0
  5  6  1  0
  5 11  2  0
  6  7  1  0
  7  9  1  0
  7  8  1  1
  9 10  2  0
  9 15  1  0
 12 11  1  0
 14 16  1  0
 14 13  1  6
 15 14  1  0
 16 17  2  0
 18 16  1  0
 18 19  1  0
 19 20  1  1
 20 21  1  0
 22 23  1  0
 22 19  1  0
 24 22  2  0
M  END
$$$$
