YAC.pdb
     RDKit          3D

 24 24  0  0  1  0  0  0  0  0999 V2000
   30.3345  -21.7215   -9.7184 O   0  0  0  0  0  0  0  0  0  0  0  0
   29.4705  -21.1317  -10.6386 C   0  0  0  0  0  0  0  0  0  0  0  0
   28.0938  -21.1886  -10.4968 C   0  0  0  0  0  0  0  0  0  0  0  0
   27.2960  -20.5835  -11.4441 C   0  0  0  0  0  0  0  0  0  0  0  0
   27.7937  -19.9164  -12.5386 C   0  0  0  0  0  0  0  0  0  0  0  0
   26.9094  -19.2671  -13.5538 C   0  0  0  0  0  0  0  0  0  0  0  0
   26.4246  -20.3400  -14.4917 C   0  0  2  0  0  0  0  0  0  0  0  0
   27.5111  -20.8587  -15.3002 N   0  0  0  0  0  0  0  0  0  0  0  0
   25.3118  -19.9180  -15.3446 C   0  0  0  0  0  0  0  0  0  0  0  0
   25.4812  -18.9789  -16.1784 O   0  0  0  0  0  0  0  0  0  0  0  0
   29.1637  -19.8637  -12.6734 C   0  0  0  0  0  0  0  0  0  0  0  0
   29.9783  -20.4636  -11.7350 C   0  0  0  0  0  0  0  0  0  0  0  0
   22.0184  -21.0062  -16.6659 C   0  0  0  0  0  0  0  0  0  0  0  0
   22.8732  -19.9597  -15.9909 C   0  0  2  0  0  0  0  0  0  0  0  0
   24.0033  -20.5031  -15.3092 N   0  0  0  0  0  0  0  0  0  0  0  0
   22.0462  -19.0781  -15.1047 C   0  0  0  0  0  0  0  0  0  0  0  0
   22.5072  -18.6414  -14.0182 O   0  0  0  0  0  0  0  0  0  0  0  0
   20.7227  -18.7019  -15.4480 N   0  0  0  0  0  0  0  0  0  0  0  0
   19.9599  -17.7128  -14.7330 C   0  0  1  0  0  0  0  0  0  0  0  0
   20.6094  -16.3477  -14.7672 C   0  0  0  0  0  0  0  0  0  0  0  0
   19.5345  -15.2339  -13.7995 S   0  0  0  0  0  0  0  0  0  0  0  0
   18.6003  -17.6073  -15.3150 C   0  0  0  0  0  0  0  0  0  0  0  0
   17.4649  -17.5406  -14.5205 O   0  0  0  0  0  0  0  0  0  0  0  0
   18.4706  -17.5773  -16.5633 O   0  0  0  0  0  0  0  0  0  0  0  0
  1  2  1  0
  2 12  2  0
  3  4  2  0
  3  2  1  0
  4  5  1  0
  5  6  1  0
  5 11  2  0
  6  7  1  0
  7  9  1  0
  7  8  1  6
  9 10  2  0
  9 15  1  0
 12 11  1  0
 14 16  1  0
 14 13  1  1
 15 14  1  0
 16 17  2  0
 18 16  1  0
 18 19  1  0
 19 20  1  6
 20 21  1  0
 22 23  1  0
 22 19  1  0
 24 22  2  0
M  END
$$$$
