YAC.pdb
     RDKit          3D

 24 24  0  0  1  0  0  0  0  0999 V2000
   24.3765  -19.6536   -8.3158 O   0  0  0  0  0  0  0  0  0  0  0  0
   24.6207  -20.2873   -9.5323 C   0  0  0  0  0  0  0  0  0  0  0  0
   23.6006  -20.8237  -10.3006 C   0  0  0  0  0  0  0  0  0  0  0  0
   23.9116  -21.4376  -11.4948 C   0  0  0  0  0  0  0  0  0  0  0  0
   25.1947  -21.5509  -11.9762 C   0  0  0  0  0  0  0  0  0  0  0  0
   25.5089  -22.2210  -13.2748 C   0  0  0  0  0  0  0  0  0  0  0  0
   25.6866  -21.1461  -14.3135 C   0  0  2  0  0  0  0  0  0  0  0  0
   24.4434  -20.4384  -14.5524 N   0  0  0  0  0  0  0  0  0  0  0  0
   26.2458  -21.6333  -15.5758 C   0  0  0  0  0  0  0  0  0  0  0  0
   25.4871  -22.1884  -16.4256 O   0  0  0  0  0  0  0  0  0  0  0  0
   26.2043  -21.0153  -11.2070 C   0  0  0  0  0  0  0  0  0  0  0  0
   25.9120  -20.3970  -10.0086 C   0  0  0  0  0  0  0  0  0  0  0  0
   29.3478  -21.3000  -17.6776 C   0  0  0  0  0  0  0  0  0  0  0  0
   28.1821  -22.0879  -17.1284 C   0  0  2  0  0  0  0  0  0  0  0  0
   27.6293  -21.5282  -15.9375 N   0  0  0  0  0  0  0  0  0  0  0  0
   28.5395  -23.5341  -16.9626 C   0  0  0  0  0  0  0  0  0  0  0  0
   29.0762  -23.9482  -15.9023 O   0  0  0  0  0  0  0  0  0  0  0  0
   28.2911  -24.4881  -17.9819 N   0  0  0  0  0  0  0  0  0  0  0  0
   28.4083  -25.9102  -17.7939 C   0  0  1  0  0  0  0  0  0  0  0  0
   27.4308  -26.4391  -16.7687 C   0  0  0  0  0  0  0  0  0  0  0  0
   28.0302  -28.0929  -16.2806 S   0  0  0  0  0  0  0  0  0  0  0  0
   28.1734  -26.6096  -19.0801 C   0  0  0  0  0  0  0  0  0  0  0  0
   28.7593  -27.8338  -19.3676 O   0  0  0  0  0  0  0  0  0  0  0  0
   27.4225  -26.0799  -19.9354 O   0  0  0  0  0  0  0  0  0  0  0  0
  1  2  1  0
  2 12  2  0
  3  4  2  0
  3  2  1  0
  4  5  1  0
  5  6  1  0
  5 11  2  0
  6  7  1  0
  7  9  1  0
  7  8  1  6
  9 10  2  0
  9 15  1  0
 12 11  1  0
 14 16  1  0
 14 13  1  1
 15 14  1  0
 16 17  2  0
 18 16  1  0
 18 19  1  0
 19 20  1  1
 20 21  1  0
 22 23  1  0
 22 19  1  0
 24 22  2  0
M  END
$$$$
