YAC.pdb
     RDKit          3D

 24 24  0  0  1  0  0  0  0  0999 V2000
   27.7713  -19.9685  -21.8758 O   0  0  0  0  0  0  0  0  0  0  0  0
   27.6454  -19.1623  -20.7464 C   0  0  0  0  0  0  0  0  0  0  0  0
   28.5455  -18.1488  -20.4616 C   0  0  0  0  0  0  0  0  0  0  0  0
   28.3625  -17.3880  -19.3269 C   0  0  0  0  0  0  0  0  0  0  0  0
   27.3230  -17.5786  -18.4472 C   0  0  0  0  0  0  0  0  0  0  0  0
   27.1438  -16.7409  -17.2222 C   0  0  0  0  0  0  0  0  0  0  0  0
   26.8836  -17.6697  -16.0666 C   0  0  2  0  0  0  0  0  0  0  0  0
   27.2926  -19.0249  -16.3817 N   0  0  0  0  0  0  0  0  0  0  0  0
   25.4967  -17.6525  -15.5977 C   0  0  0  0  0  0  0  0  0  0  0  0
   24.7693  -16.6404  -15.8266 O   0  0  0  0  0  0  0  0  0  0  0  0
   26.4315  -18.5883  -18.7366 C   0  0  0  0  0  0  0  0  0  0  0  0
   26.5987  -19.3602  -19.8680 C   0  0  0  0  0  0  0  0  0  0  0  0
   22.9054  -19.0569  -16.3035 C   0  0  0  0  0  0  0  0  0  0  0  0
   23.4759  -18.9959  -14.9063 C   0  0  2  0  0  0  0  0  0  0  0  0
   24.8771  -18.7257  -14.8765 N   0  0  0  0  0  0  0  0  0  0  0  0
   23.1182  -20.2234  -14.1241 C   0  0  0  0  0  0  0  0  0  0  0  0
   21.9207  -20.5965  -14.0215 O   0  0  0  0  0  0  0  0  0  0  0  0
   24.1028  -21.0092  -13.4728 N   0  0  0  0  0  0  0  0  0  0  0  0
   24.0827  -21.3146  -12.0665 C   0  0  1  0  0  0  0  0  0  0  0  0
   25.1870  -20.6134  -11.3081 C   0  0  0  0  0  0  0  0  0  0  0  0
   24.9270  -20.9898   -9.5408 S   0  0  0  0  0  0  0  0  0  0  0  0
   22.7787  -20.9174  -11.4831 C   0  0  0  0  0  0  0  0  0  0  0  0
   21.9737  -21.8196  -10.8029 O   0  0  0  0  0  0  0  0  0  0  0  0
   22.3899  -19.7303  -11.6073 O   0  0  0  0  0  0  0  0  0  0  0  0
  1  2  1  0
  2 12  2  0
  3  4  2  0
  3  2  1  0
  4  5  1  0
  5  6  1  0
  5 11  2  0
  6  7  1  0
  7  9  1  0
  7  8  1  6
  9 10  2  0
  9 15  1  0
 12 11  1  0
 14 16  1  0
 14 13  1  6
 15 14  1  0
 16 17  2  0
 18 16  1  0
 18 19  1  0
 19 20  1  1
 20 21  1  0
 22 23  1  0
 22 19  1  0
 24 22  2  0
M  END
$$$$
