YAC.pdb
     RDKit          3D

 24 24  0  0  1  0  0  0  0  0999 V2000
   17.1726  -18.3373  -18.0823 O   0  0  0  0  0  0  0  0  0  0  0  0
   17.7265  -17.0806  -17.8477 C   0  0  0  0  0  0  0  0  0  0  0  0
   17.6244  -16.0483  -18.7656 C   0  0  0  0  0  0  0  0  0  0  0  0
   18.1956  -14.8290  -18.4705 C   0  0  0  0  0  0  0  0  0  0  0  0
   18.8714  -14.5728  -17.3007 C   0  0  0  0  0  0  0  0  0  0  0  0
   19.4831  -13.2422  -17.0016 C   0  0  0  0  0  0  0  0  0  0  0  0
   20.6313  -13.0417  -17.9540 C   0  0  2  0  0  0  0  0  0  0  0  0
   21.6806  -14.0155  -17.7214 N   0  0  0  0  0  0  0  0  0  0  0  0
   21.1823  -11.6853  -17.9353 C   0  0  0  0  0  0  0  0  0  0  0  0
   21.9958  -11.3509  -17.0231 O   0  0  0  0  0  0  0  0  0  0  0  0
   18.9691  -15.6040  -16.3924 C   0  0  0  0  0  0  0  0  0  0  0  0
   18.4036  -16.8315  -16.6704 C   0  0  0  0  0  0  0  0  0  0  0  0
   21.0305   -8.5236  -20.0763 C   0  0  0  0  0  0  0  0  0  0  0  0
   21.3982   -9.3504  -18.8669 C   0  0  2  0  0  0  0  0  0  0  0  0
   20.8630  -10.6732  -18.8995 N   0  0  0  0  0  0  0  0  0  0  0  0
   21.0549   -8.6308  -17.5977 C   0  0  0  0  0  0  0  0  0  0  0  0
   19.9176   -8.7547  -17.0735 O   0  0  0  0  0  0  0  0  0  0  0  0
   21.9865   -7.7883  -16.9395 N   0  0  0  0  0  0  0  0  0  0  0  0
   21.7026   -7.0784  -15.7200 C   0  0  1  0  0  0  0  0  0  0  0  0
   22.6777   -7.4167  -14.6151 C   0  0  0  0  0  0  0  0  0  0  0  0
   22.1926   -6.4171  -13.1667 S   0  0  0  0  0  0  0  0  0  0  0  0
   21.7497   -5.6168  -15.9651 C   0  0  0  0  0  0  0  0  0  0  0  0
   20.9116   -4.7337  -15.3000 O   0  0  0  0  0  0  0  0  0  0  0  0
   22.5716   -5.1632  -16.7986 O   0  0  0  0  0  0  0  0  0  0  0  0
  1  2  1  0
  2 12  2  0
  3  4  2  0
  3  2  1  0
  4  5  1  0
  5  6  1  0
  5 11  2  0
  6  7  1  0
  7  9  1  0
  7  8  1  1
  9 10  2  0
  9 15  1  0
 12 11  1  0
 14 16  1  0
 14 13  1  6
 15 14  1  0
 16 17  2  0
 18 16  1  0
 18 19  1  0
 19 20  1  1
 20 21  1  0
 22 23  1  0
 22 19  1  0
 24 22  2  0
M  END
$$$$
