YAC.pdb
     RDKit          3D

 24 24  0  0  1  0  0  0  0  0999 V2000
   18.8731  -20.1981  -14.7108 O   0  0  0  0  0  0  0  0  0  0  0  0
   20.0474  -19.5347  -15.0603 C   0  0  0  0  0  0  0  0  0  0  0  0
   21.1307  -19.4539  -14.2009 C   0  0  0  0  0  0  0  0  0  0  0  0
   22.2627  -18.7820  -14.6096 C   0  0  0  0  0  0  0  0  0  0  0  0
   22.3822  -18.1778  -15.8390 C   0  0  0  0  0  0  0  0  0  0  0  0
   23.6201  -17.4543  -16.2614 C   0  0  0  0  0  0  0  0  0  0  0  0
   24.3873  -18.3611  -17.1859 C   0  0  2  0  0  0  0  0  0  0  0  0
   24.8719  -19.5348  -16.4851 N   0  0  0  0  0  0  0  0  0  0  0  0
   25.4878  -17.6950  -17.8851 C   0  0  0  0  0  0  0  0  0  0  0  0
   26.5139  -17.3305  -17.2369 O   0  0  0  0  0  0  0  0  0  0  0  0
   21.3009  -18.2621  -16.6886 C   0  0  0  0  0  0  0  0  0  0  0  0
   20.1592  -18.9305  -16.2968 C   0  0  0  0  0  0  0  0  0  0  0  0
   27.1594  -17.4923  -21.0964 C   0  0  0  0  0  0  0  0  0  0  0  0
   26.5494  -16.7154  -19.9538 C   0  0  2  0  0  0  0  0  0  0  0  0
   25.4958  -17.4138  -19.2911 N   0  0  0  0  0  0  0  0  0  0  0  0
   26.1314  -15.3456  -20.3961 C   0  0  0  0  0  0  0  0  0  0  0  0
   26.9448  -14.5781  -20.9733 O   0  0  0  0  0  0  0  0  0  0  0  0
   24.8158  -14.8601  -20.1857 N   0  0  0  0  0  0  0  0  0  0  0  0
   24.3699  -13.5528  -20.5906 C   0  0  1  0  0  0  0  0  0  0  0  0
   22.8743  -13.4942  -20.8049 C   0  0  0  0  0  0  0  0  0  0  0  0
   22.4688  -14.7996  -22.0148 S   0  0  0  0  0  0  0  0  0  0  0  0
   24.7427  -12.5522  -19.5618 C   0  0  0  0  0  0  0  0  0  0  0  0
   24.5568  -11.1917  -19.7599 O   0  0  0  0  0  0  0  0  0  0  0  0
   25.2412  -12.9458  -18.4790 O   0  0  0  0  0  0  0  0  0  0  0  0
  1  2  1  0
  2 12  2  0
  3  4  2  0
  3  2  1  0
  4  5  1  0
  5  6  1  0
  5 11  2  0
  6  7  1  0
  7  9  1  0
  7  8  1  1
  9 10  2  0
  9 15  1  0
 12 11  1  0
 14 16  1  0
 14 13  1  6
 15 14  1  0
 16 17  2  0
 18 16  1  0
 18 19  1  0
 19 20  1  1
 20 21  1  0
 22 23  1  0
 22 19  1  0
 24 22  2  0
M  END
$$$$
