YAC.pdb
     RDKit          3D

 24 24  0  0  1  0  0  0  0  0999 V2000
   16.6200  -21.8245  -10.1333 O   0  0  0  0  0  0  0  0  0  0  0  0
   17.7894  -21.6027  -10.8575 C   0  0  0  0  0  0  0  0  0  0  0  0
   18.0756  -20.3771  -11.4359 C   0  0  0  0  0  0  0  0  0  0  0  0
   19.2511  -20.2253  -12.1396 C   0  0  0  0  0  0  0  0  0  0  0  0
   20.1708  -21.2342  -12.3039 C   0  0  0  0  0  0  0  0  0  0  0  0
   21.4398  -21.0469  -13.0712 C   0  0  0  0  0  0  0  0  0  0  0  0
   21.1200  -21.2143  -14.5326 C   0  0  2  0  0  0  0  0  0  0  0  0
   20.6901  -22.5686  -14.8227 N   0  0  0  0  0  0  0  0  0  0  0  0
   22.2150  -20.8259  -15.4235 C   0  0  0  0  0  0  0  0  0  0  0  0
   23.0781  -21.6868  -15.7695 O   0  0  0  0  0  0  0  0  0  0  0  0
   19.8797  -22.4505  -11.7260 C   0  0  0  0  0  0  0  0  0  0  0  0
   18.7078  -22.6211  -11.0179 C   0  0  0  0  0  0  0  0  0  0  0  0
   23.3598  -17.7184  -17.3331 C   0  0  0  0  0  0  0  0  0  0  0  0
   23.4573  -19.1393  -16.8302 C   0  0  2  0  0  0  0  0  0  0  0  0
   22.3930  -19.5050  -15.9522 N   0  0  0  0  0  0  0  0  0  0  0  0
   24.8046  -19.4076  -16.2308 C   0  0  0  0  0  0  0  0  0  0  0  0
   24.9861  -19.3231  -14.9883 O   0  0  0  0  0  0  0  0  0  0  0  0
   25.9212  -19.7643  -17.0288 N   0  0  0  0  0  0  0  0  0  0  0  0
   27.1438  -20.3082  -16.4986 C   0  0  1  0  0  0  0  0  0  0  0  0
   26.9319  -21.6350  -15.8050 C   0  0  0  0  0  0  0  0  0  0  0  0
   28.5840  -22.2370  -15.3143 S   0  0  0  0  0  0  0  0  0  0  0  0
   28.1281  -20.4947  -17.5918 C   0  0  0  0  0  0  0  0  0  0  0  0
   27.7357  -20.7701  -18.8937 O   0  0  0  0  0  0  0  0  0  0  0  0
   29.3530  -20.4011  -17.3336 O   0  0  0  0  0  0  0  0  0  0  0  0
  1  2  1  0
  2 12  2  0
  3  4  2  0
  3  2  1  0
  4  5  1  0
  5  6  1  0
  5 11  2  0
  6  7  1  0
  7  9  1  0
  7  8  1  1
  9 10  2  0
  9 15  1  0
 12 11  1  0
 14 16  1  0
 14 13  1  1
 15 14  1  0
 16 17  2  0
 18 16  1  0
 18 19  1  0
 19 20  1  6
 20 21  1  0
 22 23  1  0
 22 19  1  0
 24 22  2  0
M  END
$$$$
