YAC.pdb
     RDKit          3D

 24 24  0  0  1  0  0  0  0  0999 V2000
   22.4468  -22.0983   -7.1443 O   0  0  0  0  0  0  0  0  0  0  0  0
   23.2077  -21.5457   -8.1723 C   0  0  0  0  0  0  0  0  0  0  0  0
   24.5032  -21.0989   -7.9707 C   0  0  0  0  0  0  0  0  0  0  0  0
   25.2008  -20.5624   -9.0316 C   0  0  0  0  0  0  0  0  0  0  0  0
   24.6785  -20.4426  -10.2980 C   0  0  0  0  0  0  0  0  0  0  0  0
   25.4536  -19.8574  -11.4342 C   0  0  0  0  0  0  0  0  0  0  0  0
   25.8454  -20.9857  -12.3503 C   0  0  2  0  0  0  0  0  0  0  0  0
   26.8417  -21.8397  -11.7327 N   0  0  0  0  0  0  0  0  0  0  0  0
   26.3017  -20.5426  -13.6690 C   0  0  0  0  0  0  0  0  0  0  0  0
   27.4673  -20.0634  -13.8015 O   0  0  0  0  0  0  0  0  0  0  0  0
   23.3896  -20.8889  -10.4913 C   0  0  0  0  0  0  0  0  0  0  0  0
   22.6759  -21.4290   -9.4411 C   0  0  0  0  0  0  0  0  0  0  0  0
   25.4169  -20.9411  -17.2930 C   0  0  0  0  0  0  0  0  0  0  0  0
   25.9429  -20.1302  -16.1323 C   0  0  2  0  0  0  0  0  0  0  0  0
   25.5072  -20.6104  -14.8608 N   0  0  0  0  0  0  0  0  0  0  0  0
   25.6516  -18.6717  -16.3180 C   0  0  0  0  0  0  0  0  0  0  0  0
   24.5260  -18.1956  -16.0177 O   0  0  0  0  0  0  0  0  0  0  0  0
   26.6209  -17.7747  -16.8343 N   0  0  0  0  0  0  0  0  0  0  0  0
   26.4072  -16.3583  -16.9750 C   0  0  1  0  0  0  0  0  0  0  0  0
   27.5872  -15.5460  -16.4913 C   0  0  0  0  0  0  0  0  0  0  0  0
   27.1552  -14.9394  -14.8246 S   0  0  0  0  0  0  0  0  0  0  0  0
   26.1521  -16.0260  -18.3974 C   0  0  0  0  0  0  0  0  0  0  0  0
   25.3201  -14.9798  -18.7688 O   0  0  0  0  0  0  0  0  0  0  0  0
   26.7042  -16.7104  -19.2933 O   0  0  0  0  0  0  0  0  0  0  0  0
  1  2  1  0
  2 12  2  0
  3  4  2  0
  3  2  1  0
  4  5  1  0
  5  6  1  0
  5 11  2  0
  6  7  1  0
  7  9  1  0
  7  8  1  1
  9 10  2  0
  9 15  1  0
 12 11  1  0
 14 16  1  0
 14 13  1  6
 15 14  1  0
 16 17  2  0
 18 16  1  0
 18 19  1  0
 19 20  1  6
 20 21  1  0
 22 23  1  0
 22 19  1  0
 24 22  2  0
M  END
$$$$
