YCI.pdb
     RDKit          3D

 27 27  0  0  1  0  0  0  0  0999 V2000
   15.3288  -21.6463   20.2006 O   0  0  0  0  0  0  0  0  0  0  0  0
   14.5107  -20.5325   20.3333 C   0  0  0  0  0  0  0  0  0  0  0  0
   14.6621  -19.4153   19.5377 C   0  0  0  0  0  0  0  0  0  0  0  0
   13.8261  -18.3264   19.7020 C   0  0  0  0  0  0  0  0  0  0  0  0
   12.8194  -18.3006   20.6488 C   0  0  0  0  0  0  0  0  0  0  0  0
   11.9192  -17.1344   20.8293 C   0  0  0  0  0  0  0  0  0  0  0  0
   10.5164  -17.5518   20.4540 C   0  0  2  0  0  0  0  0  0  0  0  0
   10.2420  -17.0107   19.1365 N   0  0  0  0  0  0  0  0  0  0  0  0
    9.5055  -17.0524   21.3984 C   0  0  0  0  0  0  0  0  0  0  0  0
    9.1049  -15.8512   21.3480 O   0  0  0  0  0  0  0  0  0  0  0  0
   12.6717  -19.4218   21.4433 C   0  0  0  0  0  0  0  0  0  0  0  0
   13.5021  -20.5189   21.2891 C   0  0  0  0  0  0  0  0  0  0  0  0
    8.9156  -17.8582   22.4141 N   0  0  0  0  0  0  0  0  0  0  0  0
    7.8731  -17.3693   23.2955 C   0  0  1  0  0  0  0  0  0  0  0  0
    7.2645  -18.5797   23.9760 C   0  0  0  0  0  0  0  0  0  0  0  0
    6.1140  -18.0774   25.2923 S   0  0  0  0  0  0  0  0  0  0  0  0
    8.4291  -16.5048   24.3720 C   0  0  0  0  0  0  0  0  0  0  0  0
    9.5791  -16.7781   24.7998 O   0  0  0  0  0  0  0  0  0  0  0  0
    5.4159  -11.9478   26.0101 C   0  0  0  0  0  0  0  0  0  0  0  0
    6.5837  -12.7547   25.5253 C   0  0  0  0  0  0  0  0  0  0  0  0
    7.2756  -13.6080   26.5095 C   0  0  2  0  0  0  0  0  0  0  0  0
    7.8326  -12.7381   27.6408 C   0  0  0  0  0  0  0  0  0  0  0  0
    8.2633  -14.5997   26.0365 C   0  0  2  0  0  0  0  0  0  0  0  0
    7.7437  -15.4138   24.9270 N   0  0  0  0  0  0  0  0  0  0  0  0
    8.6929  -15.5200   27.0967 C   0  0  0  0  0  0  0  0  0  0  0  0
    9.8832  -15.3953   27.8085 O   0  0  0  0  0  0  0  0  0  0  0  0
    7.9735  -16.4998   27.4157 O   0  0  0  0  0  0  0  0  0  0  0  0
  1  2  1  0
  2 12  2  0
  3  4  2  0
  3  2  1  0
  4  5  1  0
  5  6  1  0
  5 11  2  0
  6  7  1  0
  7  8  1  6
  7  9  1  0
  9 13  1  0
  9 10  2  0
 12 11  1  0
 13 14  1  0
 14 17  1  0
 14 15  1  1
 16 15  1  0
 17 18  2  0
 19 20  1  0
 20 21  1  0
 21 23  1  0
 21 22  1  1
 23 25  1  0
 24 17  1  0
 23 24  1  6
 25 26  1  0
 27 25  2  0
M  END
$$$$
