YCI.pdb
     RDKit          3D

 27 27  0  0  1  0  0  0  0  0999 V2000
    8.8842  -14.1477   14.8769 O   0  0  0  0  0  0  0  0  0  0  0  0
    8.4520  -14.1755   16.1959 C   0  0  0  0  0  0  0  0  0  0  0  0
    7.3839  -13.4182   16.6313 C   0  0  0  0  0  0  0  0  0  0  0  0
    6.9849  -13.4745   17.9539 C   0  0  0  0  0  0  0  0  0  0  0  0
    7.6198  -14.2732   18.8865 C   0  0  0  0  0  0  0  0  0  0  0  0
    7.1956  -14.3374   20.3073 C   0  0  0  0  0  0  0  0  0  0  0  0
    8.1034  -15.3028   21.0332 C   0  0  2  0  0  0  0  0  0  0  0  0
    8.1037  -16.5440   20.2826 N   0  0  0  0  0  0  0  0  0  0  0  0
    7.6582  -15.5733   22.4086 C   0  0  0  0  0  0  0  0  0  0  0  0
    7.3128  -14.6279   23.1786 O   0  0  0  0  0  0  0  0  0  0  0  0
    8.6890  -15.0298   18.4458 C   0  0  0  0  0  0  0  0  0  0  0  0
    9.0987  -14.9825   17.1240 C   0  0  0  0  0  0  0  0  0  0  0  0
    7.5831  -16.8822   22.9653 N   0  0  0  0  0  0  0  0  0  0  0  0
    7.2708  -17.1237   24.3606 C   0  0  1  0  0  0  0  0  0  0  0  0
    7.2909  -18.6256   24.5657 C   0  0  0  0  0  0  0  0  0  0  0  0
    7.1154  -19.0453   26.3269 S   0  0  0  0  0  0  0  0  0  0  0  0
    8.3105  -16.5527   25.2597 C   0  0  0  0  0  0  0  0  0  0  0  0
    9.5104  -16.6604   24.9010 O   0  0  0  0  0  0  0  0  0  0  0  0
    6.7515  -11.9553   27.6539 C   0  0  0  0  0  0  0  0  0  0  0  0
    7.5570  -13.0183   26.9676 C   0  0  0  0  0  0  0  0  0  0  0  0
    8.3863  -13.8958   27.8148 C   0  0  2  0  0  0  0  0  0  0  0  0
    9.4084  -13.0512   28.5821 C   0  0  0  0  0  0  0  0  0  0  0  0
    8.9992  -15.1020   27.2215 C   0  0  2  0  0  0  0  0  0  0  0  0
    8.0233  -15.9083   26.4723 N   0  0  0  0  0  0  0  0  0  0  0  0
    9.6156  -15.9762   28.2272 C   0  0  0  0  0  0  0  0  0  0  0  0
    9.0738  -17.1866   28.6520 O   0  0  0  0  0  0  0  0  0  0  0  0
   10.7021  -15.6515   28.7691 O   0  0  0  0  0  0  0  0  0  0  0  0
  1  2  1  0
  2 12  2  0
  3  4  2  0
  3  2  1  0
  4  5  1  0
  5  6  1  0
  5 11  2  0
  6  7  1  0
  7  8  1  6
  7  9  1  0
  9 13  1  0
  9 10  2  0
 12 11  1  0
 13 14  1  0
 14 17  1  0
 14 15  1  6
 16 15  1  0
 17 18  2  0
 19 20  1  0
 20 21  1  0
 21 23  1  0
 21 22  1  6
 23 25  1  0
 24 17  1  0
 23 24  1  1
 25 26  1  0
 27 25  2  0
M  END
$$$$
