YCI.pdb
     RDKit          3D

 27 27  0  0  1  0  0  0  0  0999 V2000
   15.0068  -20.1243   17.6169 O   0  0  0  0  0  0  0  0  0  0  0  0
   13.9327  -19.4687   18.2032 C   0  0  0  0  0  0  0  0  0  0  0  0
   13.5865  -19.6689   19.5238 C   0  0  0  0  0  0  0  0  0  0  0  0
   12.5092  -18.9961   20.0699 C   0  0  0  0  0  0  0  0  0  0  0  0
   11.7411  -18.1092   19.3391 C   0  0  0  0  0  0  0  0  0  0  0  0
   10.5836  -17.3843   19.9202 C   0  0  0  0  0  0  0  0  0  0  0  0
    9.4813  -18.3823   20.1884 C   0  0  2  0  0  0  0  0  0  0  0  0
    8.8879  -18.7252   18.9100 N   0  0  0  0  0  0  0  0  0  0  0  0
    8.4368  -17.8474   21.0748 C   0  0  0  0  0  0  0  0  0  0  0  0
    7.2126  -17.9173   20.7543 O   0  0  0  0  0  0  0  0  0  0  0  0
   12.0916  -17.9119   18.0168 C   0  0  0  0  0  0  0  0  0  0  0  0
   13.1682  -18.5794   17.4578 C   0  0  0  0  0  0  0  0  0  0  0  0
    8.7130  -17.2268   22.3267 N   0  0  0  0  0  0  0  0  0  0  0  0
    7.7219  -17.1088   23.3786 C   0  0  1  0  0  0  0  0  0  0  0  0
    7.3522  -18.5176   23.7992 C   0  0  0  0  0  0  0  0  0  0  0  0
    6.3482  -18.5026   25.3159 S   0  0  0  0  0  0  0  0  0  0  0  0
    8.2801  -16.4331   24.5816 C   0  0  0  0  0  0  0  0  0  0  0  0
    9.4107  -16.8067   24.9846 O   0  0  0  0  0  0  0  0  0  0  0  0
    5.5721  -11.7027   26.0059 C   0  0  0  0  0  0  0  0  0  0  0  0
    6.7352  -12.5450   25.5726 C   0  0  0  0  0  0  0  0  0  0  0  0
    7.4006  -13.3659   26.6017 C   0  0  2  0  0  0  0  0  0  0  0  0
    8.0656  -12.4520   27.6359 C   0  0  0  0  0  0  0  0  0  0  0  0
    8.2921  -14.4665   26.1814 C   0  0  2  0  0  0  0  0  0  0  0  0
    7.6172  -15.4132   25.2803 N   0  0  0  0  0  0  0  0  0  0  0  0
    8.8165  -15.2347   27.3174 C   0  0  0  0  0  0  0  0  0  0  0  0
    8.3353  -16.4810   27.7101 O   0  0  0  0  0  0  0  0  0  0  0  0
    9.7593  -14.7771   28.0111 O   0  0  0  0  0  0  0  0  0  0  0  0
  1  2  1  0
  2 12  2  0
  3  4  2  0
  3  2  1  0
  4  5  1  0
  5  6  1  0
  5 11  2  0
  6  7  1  0
  7  8  1  6
  7  9  1  0
  9 13  1  0
  9 10  2  0
 12 11  1  0
 13 14  1  0
 14 17  1  0
 14 15  1  1
 16 15  1  0
 17 18  2  0
 19 20  1  0
 20 21  1  0
 21 23  1  0
 21 22  1  6
 23 25  1  0
 24 17  1  0
 23 24  1  6
 25 26  1  0
 27 25  2  0
M  END
$$$$
