YCI.pdb
     RDKit          3D

 27 27  0  0  1  0  0  0  0  0999 V2000
    7.8860  -11.9202   16.9812 O   0  0  0  0  0  0  0  0  0  0  0  0
    7.8283  -12.6818   18.1405 C   0  0  0  0  0  0  0  0  0  0  0  0
    8.9080  -12.8009   18.9915 C   0  0  0  0  0  0  0  0  0  0  0  0
    8.8093  -13.5694   20.1365 C   0  0  0  0  0  0  0  0  0  0  0  0
    7.6519  -14.2424   20.4804 C   0  0  0  0  0  0  0  0  0  0  0  0
    7.5406  -15.0687   21.7083 C   0  0  0  0  0  0  0  0  0  0  0  0
    8.3060  -16.3531   21.4903 C   0  0  2  0  0  0  0  0  0  0  0  0
    7.5636  -17.1404   20.5244 N   0  0  0  0  0  0  0  0  0  0  0  0
    8.4648  -17.1341   22.7263 C   0  0  0  0  0  0  0  0  0  0  0  0
    7.4692  -17.6953   23.2740 O   0  0  0  0  0  0  0  0  0  0  0  0
    6.5733  -14.1202   19.6251 C   0  0  0  0  0  0  0  0  0  0  0  0
    6.6589  -13.3537   18.4752 C   0  0  0  0  0  0  0  0  0  0  0  0
    9.7150  -17.3148   23.3844 N   0  0  0  0  0  0  0  0  0  0  0  0
    9.8249  -17.8703   24.7194 C   0  0  1  0  0  0  0  0  0  0  0  0
   10.7221  -19.0883   24.6200 C   0  0  0  0  0  0  0  0  0  0  0  0
   11.8404  -18.9591   23.1913 S   0  0  0  0  0  0  0  0  0  0  0  0
   10.4902  -16.9210   25.6529 C   0  0  0  0  0  0  0  0  0  0  0  0
   11.4005  -16.1903   25.1862 O   0  0  0  0  0  0  0  0  0  0  0  0
    8.0329  -13.0426   27.7232 C   0  0  0  0  0  0  0  0  0  0  0  0
    9.0845  -14.0133   27.2737 C   0  0  0  0  0  0  0  0  0  0  0  0
    9.8079  -14.7633   28.3176 C   0  0  2  0  0  0  0  0  0  0  0  0
   10.4204  -13.7825   29.3225 C   0  0  0  0  0  0  0  0  0  0  0  0
   10.7647  -15.8156   27.9179 C   0  0  2  0  0  0  0  0  0  0  0  0
   10.1574  -16.8013   27.0104 N   0  0  0  0  0  0  0  0  0  0  0  0
   11.3106  -16.5494   29.0663 C   0  0  0  0  0  0  0  0  0  0  0  0
   12.4685  -16.1871   29.7499 O   0  0  0  0  0  0  0  0  0  0  0  0
   10.7309  -17.5789   29.4947 O   0  0  0  0  0  0  0  0  0  0  0  0
  1  2  1  0
  2 12  2  0
  3  4  2  0
  3  2  1  0
  4  5  1  0
  5  6  1  0
  5 11  2  0
  6  7  1  0
  7  8  1  6
  7  9  1  0
  9 13  1  0
  9 10  2  0
 12 11  1  0
 13 14  1  0
 14 17  1  0
 14 15  1  6
 16 15  1  0
 17 18  2  0
 19 20  1  0
 20 21  1  0
 21 23  1  0
 21 22  1  6
 23 25  1  0
 24 17  1  0
 23 24  1  6
 25 26  1  0
 27 25  2  0
M  END
$$$$
