YCI.pdb
     RDKit          3D

 27 27  0  0  1  0  0  0  0  0999 V2000
    9.2064  -13.0371   16.4857 O   0  0  0  0  0  0  0  0  0  0  0  0
    8.6328  -13.4806   17.6696 C   0  0  0  0  0  0  0  0  0  0  0  0
    9.3593  -14.1645   18.6227 C   0  0  0  0  0  0  0  0  0  0  0  0
    8.7502  -14.5893   19.7889 C   0  0  0  0  0  0  0  0  0  0  0  0
    7.4138  -14.3567   20.0546 C   0  0  0  0  0  0  0  0  0  0  0  0
    6.7549  -14.8103   21.3047 C   0  0  0  0  0  0  0  0  0  0  0  0
    6.7751  -16.3209   21.3338 C   0  0  2  0  0  0  0  0  0  0  0  0
    5.7439  -16.7849   20.4254 N   0  0  0  0  0  0  0  0  0  0  0  0
    6.5139  -16.8647   22.6751 C   0  0  0  0  0  0  0  0  0  0  0  0
    5.4366  -16.5980   23.2871 O   0  0  0  0  0  0  0  0  0  0  0  0
    6.6902  -13.6713   19.0971 C   0  0  0  0  0  0  0  0  0  0  0  0
    7.2881  -13.2405   17.9250 C   0  0  0  0  0  0  0  0  0  0  0  0
    7.4262  -17.7095   23.3700 N   0  0  0  0  0  0  0  0  0  0  0  0
    7.4617  -17.8026   24.8167 C   0  0  1  0  0  0  0  0  0  0  0  0
    8.0876  -19.1401   25.1594 C   0  0  0  0  0  0  0  0  0  0  0  0
    8.3557  -19.2940   26.9519 S   0  0  0  0  0  0  0  0  0  0  0  0
    8.3356  -16.7540   25.4101 C   0  0  0  0  0  0  0  0  0  0  0  0
    9.3986  -16.4719   24.8013 O   0  0  0  0  0  0  0  0  0  0  0  0
    6.2621  -12.1646   27.0493 C   0  0  0  0  0  0  0  0  0  0  0  0
    7.2762  -13.1538   26.5562 C   0  0  0  0  0  0  0  0  0  0  0  0
    8.1159  -13.8264   27.5652 C   0  0  2  0  0  0  0  0  0  0  0  0
    8.9841  -12.7889   28.2840 C   0  0  0  0  0  0  0  0  0  0  0  0
    8.8907  -15.0230   27.1773 C   0  0  2  0  0  0  0  0  0  0  0  0
    8.0372  -16.0727   26.5995 N   0  0  0  0  0  0  0  0  0  0  0  0
    9.6180  -15.6163   28.3062 C   0  0  0  0  0  0  0  0  0  0  0  0
    9.2506  -16.8003   28.9405 O   0  0  0  0  0  0  0  0  0  0  0  0
   10.6436  -15.0537   28.7658 O   0  0  0  0  0  0  0  0  0  0  0  0
  1  2  1  0
  2 12  2  0
  3  4  2  0
  3  2  1  0
  4  5  1  0
  5  6  1  0
  5 11  2  0
  6  7  1  0
  7  8  1  6
  7  9  1  0
  9 13  1  0
  9 10  2  0
 12 11  1  0
 13 14  1  0
 14 17  1  0
 14 15  1  6
 16 15  1  0
 17 18  2  0
 19 20  1  0
 20 21  1  0
 21 23  1  0
 21 22  1  6
 23 25  1  0
 24 17  1  0
 23 24  1  1
 25 26  1  0
 27 25  2  0
M  END
$$$$
