YCI.pdb
     RDKit          3D

 27 27  0  0  1  0  0  0  0  0999 V2000
   10.1681  -12.6810   17.8460 O   0  0  0  0  0  0  0  0  0  0  0  0
    9.1749  -13.2913   18.5999 C   0  0  0  0  0  0  0  0  0  0  0  0
    8.0130  -12.6334   18.9480 C   0  0  0  0  0  0  0  0  0  0  0  0
    7.0481  -13.2773   19.7003 C   0  0  0  0  0  0  0  0  0  0  0  0
    7.1935  -14.5822   20.1326 C   0  0  0  0  0  0  0  0  0  0  0  0
    6.1609  -15.2781   20.9403 C   0  0  0  0  0  0  0  0  0  0  0  0
    6.5223  -16.7432   21.0169 C   0  0  2  0  0  0  0  0  0  0  0  0
    5.6923  -17.4442   20.0558 N   0  0  0  0  0  0  0  0  0  0  0  0
    6.2953  -17.3131   22.3536 C   0  0  0  0  0  0  0  0  0  0  0  0
    5.1441  -17.7099   22.7050 O   0  0  0  0  0  0  0  0  0  0  0  0
    8.3588  -15.2370   19.7816 C   0  0  0  0  0  0  0  0  0  0  0  0
    9.3329  -14.6037   19.0285 C   0  0  0  0  0  0  0  0  0  0  0  0
    7.3232  -17.4588   23.3287 N   0  0  0  0  0  0  0  0  0  0  0  0
    7.0626  -17.4161   24.7546 C   0  0  1  0  0  0  0  0  0  0  0  0
    7.0052  -18.8519   25.2378 C   0  0  0  0  0  0  0  0  0  0  0  0
    8.5045  -19.2856   26.1720 S   0  0  0  0  0  0  0  0  0  0  0  0
    8.1744  -16.7577   25.4934 C   0  0  0  0  0  0  0  0  0  0  0  0
    9.3459  -16.9732   25.0916 O   0  0  0  0  0  0  0  0  0  0  0  0
    7.0815  -11.8851   26.4198 C   0  0  0  0  0  0  0  0  0  0  0  0
    8.1641  -12.9007   26.2045 C   0  0  0  0  0  0  0  0  0  0  0  0
    8.6050  -13.6827   27.3748 C   0  0  2  0  0  0  0  0  0  0  0  0
    9.6199  -12.8682   28.1831 C   0  0  0  0  0  0  0  0  0  0  0  0
    9.0430  -15.0808   27.1849 C   0  0  2  0  0  0  0  0  0  0  0  0
    7.9841  -15.9191   26.6018 N   0  0  0  0  0  0  0  0  0  0  0  0
    9.4692  -15.7152   28.4384 C   0  0  0  0  0  0  0  0  0  0  0  0
    8.7592  -16.7210   29.0892 O   0  0  0  0  0  0  0  0  0  0  0  0
   10.5362  -15.3588   28.9986 O   0  0  0  0  0  0  0  0  0  0  0  0
  1  2  1  0
  2 12  2  0
  3  4  2  0
  3  2  1  0
  4  5  1  0
  5  6  1  0
  5 11  2  0
  6  7  1  0
  7  8  1  6
  7  9  1  0
  9 13  1  0
  9 10  2  0
 12 11  1  0
 13 14  1  0
 14 17  1  0
 14 15  1  1
 16 15  1  0
 17 18  2  0
 19 20  1  0
 20 21  1  0
 21 23  1  0
 21 22  1  6
 23 25  1  0
 24 17  1  0
 23 24  1  1
 25 26  1  0
 27 25  2  0
M  END
$$$$
