YCI.pdb
     RDKit          3D

 27 27  0  0  1  0  0  0  0  0999 V2000
    9.2948  -12.9273   16.5188 O   0  0  0  0  0  0  0  0  0  0  0  0
    8.6111  -13.3849   17.6371 C   0  0  0  0  0  0  0  0  0  0  0  0
    7.2330  -13.4414   17.6789 C   0  0  0  0  0  0  0  0  0  0  0  0
    6.5902  -13.9037   18.8123 C   0  0  0  0  0  0  0  0  0  0  0  0
    7.2778  -14.3233   19.9356 C   0  0  0  0  0  0  0  0  0  0  0  0
    6.5929  -14.8205   21.1548 C   0  0  0  0  0  0  0  0  0  0  0  0
    6.6333  -16.3309   21.1427 C   0  0  2  0  0  0  0  0  0  0  0  0
    5.5613  -16.7854   20.2777 N   0  0  0  0  0  0  0  0  0  0  0  0
    6.4502  -16.9128   22.4808 C   0  0  0  0  0  0  0  0  0  0  0  0
    5.3151  -16.9043   23.0445 O   0  0  0  0  0  0  0  0  0  0  0  0
    8.6578  -14.2649   19.8890 C   0  0  0  0  0  0  0  0  0  0  0  0
    9.3139  -13.8039   18.7602 C   0  0  0  0  0  0  0  0  0  0  0  0
    7.5051  -17.5139   23.2255 N   0  0  0  0  0  0  0  0  0  0  0  0
    7.4701  -17.6439   24.6694 C   0  0  1  0  0  0  0  0  0  0  0  0
    8.0432  -19.0065   25.0057 C   0  0  0  0  0  0  0  0  0  0  0  0
    8.3175  -19.1744   26.7960 S   0  0  0  0  0  0  0  0  0  0  0  0
    8.3430  -16.6352   25.3298 C   0  0  0  0  0  0  0  0  0  0  0  0
    9.4884  -16.4528   24.8450 O   0  0  0  0  0  0  0  0  0  0  0  0
    6.0991  -11.9973   26.8802 C   0  0  0  0  0  0  0  0  0  0  0  0
    7.0899  -13.0175   26.4034 C   0  0  0  0  0  0  0  0  0  0  0  0
    7.9666  -13.6378   27.4144 C   0  0  2  0  0  0  0  0  0  0  0  0
    8.8094  -12.5552   28.0960 C   0  0  0  0  0  0  0  0  0  0  0  0
    8.7759  -14.8163   27.0419 C   0  0  2  0  0  0  0  0  0  0  0  0
    7.9575  -15.8868   26.4519 N   0  0  0  0  0  0  0  0  0  0  0  0
    9.4979  -15.3904   28.1841 C   0  0  0  0  0  0  0  0  0  0  0  0
    9.1952  -16.6188   28.7660 O   0  0  0  0  0  0  0  0  0  0  0  0
   10.4574  -14.7682   28.7055 O   0  0  0  0  0  0  0  0  0  0  0  0
  1  2  1  0
  2 12  2  0
  3  4  2  0
  3  2  1  0
  4  5  1  0
  5  6  1  0
  5 11  2  0
  6  7  1  0
  7  8  1  6
  7  9  1  0
  9 13  1  0
  9 10  2  0
 12 11  1  0
 13 14  1  0
 14 17  1  0
 14 15  1  6
 16 15  1  0
 17 18  2  0
 19 20  1  0
 20 21  1  0
 21 23  1  0
 21 22  1  6
 23 25  1  0
 24 17  1  0
 23 24  1  1
 25 26  1  0
 27 25  2  0
M  END
$$$$
