YCI.pdb
     RDKit          3D

 27 27  0  0  1  0  0  0  0  0999 V2000
    8.1605  -13.6645   15.0624 O   0  0  0  0  0  0  0  0  0  0  0  0
    7.7661  -13.9354   16.3656 C   0  0  0  0  0  0  0  0  0  0  0  0
    8.1079  -13.1122   17.4189 C   0  0  0  0  0  0  0  0  0  0  0  0
    7.6949  -13.4176   18.7025 C   0  0  0  0  0  0  0  0  0  0  0  0
    6.9363  -14.5367   18.9908 C   0  0  0  0  0  0  0  0  0  0  0  0
    6.4903  -14.8693   20.3667 C   0  0  0  0  0  0  0  0  0  0  0  0
    7.6947  -15.3109   21.1652 C   0  0  2  0  0  0  0  0  0  0  0  0
    8.2690  -16.4557   20.4843 N   0  0  0  0  0  0  0  0  0  0  0  0
    7.3510  -15.6941   22.5428 C   0  0  0  0  0  0  0  0  0  0  0  0
    6.7376  -14.8913   23.3079 O   0  0  0  0  0  0  0  0  0  0  0  0
    6.5964  -15.3582   17.9326 C   0  0  0  0  0  0  0  0  0  0  0  0
    7.0036  -15.0636   16.6425 C   0  0  0  0  0  0  0  0  0  0  0  0
    7.6721  -16.9618   23.1074 N   0  0  0  0  0  0  0  0  0  0  0  0
    7.5205  -17.2518   24.5201 C   0  0  1  0  0  0  0  0  0  0  0  0
    7.6918  -18.7489   24.6860 C   0  0  0  0  0  0  0  0  0  0  0  0
    7.7939  -19.2022   26.4446 S   0  0  0  0  0  0  0  0  0  0  0  0
    8.5895  -16.6042   25.3283 C   0  0  0  0  0  0  0  0  0  0  0  0
    9.7627  -16.6460   24.8785 O   0  0  0  0  0  0  0  0  0  0  0  0
    6.9550  -12.0688   27.5813 C   0  0  0  0  0  0  0  0  0  0  0  0
    7.8618  -13.0566   26.9089 C   0  0  0  0  0  0  0  0  0  0  0  0
    8.7379  -13.8715   27.7714 C   0  0  2  0  0  0  0  0  0  0  0  0
    9.7754  -12.9693   28.4471 C   0  0  0  0  0  0  0  0  0  0  0  0
    9.3467  -15.1015   27.2246 C   0  0  2  0  0  0  0  0  0  0  0  0
    8.3577  -15.9575   26.5514 N   0  0  0  0  0  0  0  0  0  0  0  0
   10.0051  -15.9133   28.2556 C   0  0  0  0  0  0  0  0  0  0  0  0
   11.3150  -15.7210   28.6872 O   0  0  0  0  0  0  0  0  0  0  0  0
    9.3866  -16.8556   28.8115 O   0  0  0  0  0  0  0  0  0  0  0  0
  1  2  1  0
  2 12  2  0
  3  4  2  0
  3  2  1  0
  4  5  1  0
  5  6  1  0
  5 11  2  0
  6  7  1  0
  7  8  1  6
  7  9  1  0
  9 13  1  0
  9 10  2  0
 12 11  1  0
 13 14  1  0
 14 17  1  0
 14 15  1  6
 16 15  1  0
 17 18  2  0
 19 20  1  0
 20 21  1  0
 21 23  1  0
 21 22  1  6
 23 25  1  0
 24 17  1  0
 23 24  1  1
 25 26  1  0
 27 25  2  0
M  END
$$$$
