YCI.pdb
     RDKit          3D

 27 27  0  0  1  0  0  0  0  0999 V2000
   11.0492  -12.7596   17.8131 O   0  0  0  0  0  0  0  0  0  0  0  0
   10.0357  -13.2638   18.6168 C   0  0  0  0  0  0  0  0  0  0  0  0
   10.2964  -14.0943   19.6874 C   0  0  0  0  0  0  0  0  0  0  0  0
    9.2581  -14.5751   20.4633 C   0  0  0  0  0  0  0  0  0  0  0  0
    7.9364  -14.2567   20.2132 C   0  0  0  0  0  0  0  0  0  0  0  0
    6.8180  -14.7701   21.0428 C   0  0  0  0  0  0  0  0  0  0  0  0
    6.8094  -16.2783   20.9519 C   0  0  2  0  0  0  0  0  0  0  0  0
    5.7665  -16.6492   20.0144 N   0  0  0  0  0  0  0  0  0  0  0  0
    6.5421  -16.9219   22.2469 C   0  0  0  0  0  0  0  0  0  0  0  0
    5.3624  -17.0016   22.7030 O   0  0  0  0  0  0  0  0  0  0  0  0
    7.6802  -13.4246   19.1398 C   0  0  0  0  0  0  0  0  0  0  0  0
    8.7109  -12.9362   18.3549 C   0  0  0  0  0  0  0  0  0  0  0  0
    7.5604  -17.4894   23.0654 N   0  0  0  0  0  0  0  0  0  0  0  0
    7.4630  -17.5463   24.5112 C   0  0  1  0  0  0  0  0  0  0  0  0
    8.0086  -18.8943   24.9394 C   0  0  0  0  0  0  0  0  0  0  0  0
    8.1931  -18.9783   26.7470 S   0  0  0  0  0  0  0  0  0  0  0  0
    8.3163  -16.5119   25.1571 C   0  0  0  0  0  0  0  0  0  0  0  0
    9.4594  -16.3169   24.6717 O   0  0  0  0  0  0  0  0  0  0  0  0
    5.7634  -12.2935   27.3977 C   0  0  0  0  0  0  0  0  0  0  0  0
    6.8791  -12.9816   26.6685 C   0  0  0  0  0  0  0  0  0  0  0  0
    7.9247  -13.6298   27.4822 C   0  0  2  0  0  0  0  0  0  0  0  0
    8.7887  -12.5586   28.1551 C   0  0  0  0  0  0  0  0  0  0  0  0
    8.7427  -14.7043   26.8828 C   0  0  2  0  0  0  0  0  0  0  0  0
    7.9150  -15.7525   26.2663 N   0  0  0  0  0  0  0  0  0  0  0  0
    9.6251  -15.3548   27.8593 C   0  0  0  0  0  0  0  0  0  0  0  0
   10.9249  -14.9411   28.1394 O   0  0  0  0  0  0  0  0  0  0  0  0
    9.2258  -16.3551   28.5071 O   0  0  0  0  0  0  0  0  0  0  0  0
  1  2  1  0
  2 12  2  0
  3  4  2  0
  3  2  1  0
  4  5  1  0
  5  6  1  0
  5 11  2  0
  6  7  1  0
  7  8  1  6
  7  9  1  0
  9 13  1  0
  9 10  2  0
 12 11  1  0
 13 14  1  0
 14 17  1  0
 14 15  1  1
 16 15  1  0
 17 18  2  0
 19 20  1  0
 20 21  1  0
 21 23  1  0
 21 22  1  6
 23 25  1  0
 24 17  1  0
 23 24  1  1
 25 26  1  0
 27 25  2  0
M  END
$$$$
