YCI.pdb
     RDKit          3D

 27 27  0  0  1  0  0  0  0  0999 V2000
    8.1851  -11.6525   16.8532 O   0  0  0  0  0  0  0  0  0  0  0  0
    7.9180  -12.4944   17.9242 C   0  0  0  0  0  0  0  0  0  0  0  0
    6.8048  -13.3092   17.9536 C   0  0  0  0  0  0  0  0  0  0  0  0
    6.5750  -14.1334   19.0396 C   0  0  0  0  0  0  0  0  0  0  0  0
    7.4277  -14.1830   20.1264 C   0  0  0  0  0  0  0  0  0  0  0  0
    7.1858  -15.0659   21.2946 C   0  0  0  0  0  0  0  0  0  0  0  0
    8.0351  -16.3060   21.1397 C   0  0  2  0  0  0  0  0  0  0  0  0
    7.4168  -17.1288   20.1176 N   0  0  0  0  0  0  0  0  0  0  0  0
    8.1362  -17.0820   22.3849 C   0  0  0  0  0  0  0  0  0  0  0  0
    7.1391  -17.7209   22.8364 O   0  0  0  0  0  0  0  0  0  0  0  0
    8.5412  -13.3651   20.0924 C   0  0  0  0  0  0  0  0  0  0  0  0
    8.7830  -12.5351   19.0110 C   0  0  0  0  0  0  0  0  0  0  0  0
    9.3293  -17.1726   23.1576 N   0  0  0  0  0  0  0  0  0  0  0  0
    9.3402  -17.6385   24.5308 C   0  0  1  0  0  0  0  0  0  0  0  0
   10.1304  -18.9322   24.5535 C   0  0  0  0  0  0  0  0  0  0  0  0
   10.4383  -19.5374   22.8660 S   0  0  0  0  0  0  0  0  0  0  0  0
   10.0508  -16.6847   25.4255 C   0  0  0  0  0  0  0  0  0  0  0  0
   11.1479  -16.2203   25.0244 O   0  0  0  0  0  0  0  0  0  0  0  0
    8.0571  -12.2016   26.7653 C   0  0  0  0  0  0  0  0  0  0  0  0
    9.0297  -13.3228   26.5484 C   0  0  0  0  0  0  0  0  0  0  0  0
    9.4718  -14.0781   27.7357 C   0  0  2  0  0  0  0  0  0  0  0  0
   10.1376  -13.1237   28.7321 C   0  0  0  0  0  0  0  0  0  0  0  0
   10.2524  -15.3189   27.5519 C   0  0  2  0  0  0  0  0  0  0  0  0
    9.5646  -16.2821   26.6784 N   0  0  0  0  0  0  0  0  0  0  0  0
   10.5397  -15.9995   28.8206 C   0  0  0  0  0  0  0  0  0  0  0  0
    9.8830  -17.1454   29.2621 O   0  0  0  0  0  0  0  0  0  0  0  0
   11.4261  -15.5543   29.5924 O   0  0  0  0  0  0  0  0  0  0  0  0
  1  2  1  0
  2 12  2  0
  3  4  2  0
  3  2  1  0
  4  5  1  0
  5  6  1  0
  5 11  2  0
  6  7  1  0
  7  8  1  6
  7  9  1  0
  9 13  1  0
  9 10  2  0
 12 11  1  0
 13 14  1  0
 14 17  1  0
 14 15  1  6
 16 15  1  0
 17 18  2  0
 19 20  1  0
 20 21  1  0
 21 23  1  0
 21 22  1  1
 23 25  1  0
 24 17  1  0
 23 24  1  6
 25 26  1  0
 27 25  2  0
M  END
$$$$
