YCI.pdb
     RDKit          3D

 27 27  0  0  1  0  0  0  0  0999 V2000
    5.9154  -10.7635   26.1982 O   0  0  0  0  0  0  0  0  0  0  0  0
    6.0418  -12.1343   26.0183 C   0  0  0  0  0  0  0  0  0  0  0  0
    7.2699  -12.7384   25.8430 C   0  0  0  0  0  0  0  0  0  0  0  0
    7.3526  -14.1073   25.6670 C   0  0  0  0  0  0  0  0  0  0  0  0
    6.2363  -14.9224   25.6575 C   0  0  0  0  0  0  0  0  0  0  0  0
    6.3193  -16.3922   25.4689 C   0  0  0  0  0  0  0  0  0  0  0  0
    6.2799  -16.6863   23.9874 C   0  0  2  0  0  0  0  0  0  0  0  0
    5.3284  -17.7623   23.7851 N   0  0  0  0  0  0  0  0  0  0  0  0
    7.5888  -17.0965   23.4567 C   0  0  0  0  0  0  0  0  0  0  0  0
    7.6721  -17.8776   22.4622 O   0  0  0  0  0  0  0  0  0  0  0  0
    5.0085  -14.3128   25.8334 C   0  0  0  0  0  0  0  0  0  0  0  0
    4.9118  -12.9431   26.0108 C   0  0  0  0  0  0  0  0  0  0  0  0
    8.8288  -16.6595   24.0045 N   0  0  0  0  0  0  0  0  0  0  0  0
   10.1087  -16.9882   23.4073 C   0  0  1  0  0  0  0  0  0  0  0  0
   10.1686  -16.2785   22.0689 C   0  0  0  0  0  0  0  0  0  0  0  0
    9.3182  -14.6723   22.1444 S   0  0  0  0  0  0  0  0  0  0  0  0
   11.2409  -16.4677   24.2212 C   0  0  0  0  0  0  0  0  0  0  0  0
   11.8141  -15.4242   23.8177 O   0  0  0  0  0  0  0  0  0  0  0  0
    9.0982  -14.1973   27.7101 C   0  0  0  0  0  0  0  0  0  0  0  0
   10.1793  -14.7476   26.8278 C   0  0  0  0  0  0  0  0  0  0  0  0
   11.0406  -15.8059   27.3877 C   0  0  2  0  0  0  0  0  0  0  0  0
   11.4860  -15.4114   28.7994 C   0  0  0  0  0  0  0  0  0  0  0  0
   12.1620  -16.3266   26.5790 C   0  0  2  0  0  0  0  0  0  0  0  0
   11.6956  -17.0747   25.4014 N   0  0  0  0  0  0  0  0  0  0  0  0
   13.0470  -17.2135   27.3441 C   0  0  0  0  0  0  0  0  0  0  0  0
   14.1089  -16.7737   28.1303 O   0  0  0  0  0  0  0  0  0  0  0  0
   12.8752  -18.4582   27.3168 O   0  0  0  0  0  0  0  0  0  0  0  0
  1  2  1  0
  2 12  2  0
  3  4  2  0
  3  2  1  0
  4  5  1  0
  5  6  1  0
  5 11  2  0
  6  7  1  0
  7  8  1  1
  7  9  1  0
  9 13  1  0
  9 10  2  0
 12 11  1  0
 13 14  1  0
 14 17  1  0
 14 15  1  6
 16 15  1  0
 17 18  2  0
 19 20  1  0
 20 21  1  0
 21 23  1  0
 21 22  1  1
 23 25  1  0
 24 17  1  0
 23 24  1  6
 25 26  1  0
 27 25  2  0
M  END
$$$$
