KMR.pdb
     RDKit          3D

 29 28  0  0  1  0  0  0  0  0999 V2000
    6.8717  -15.7231   20.0566 N   0  0  0  0  0  0  0  0  0  0  0  0
    7.7819  -14.6648   20.1680 C   0  0  1  0  0  0  0  0  0  0  0  0
    7.2463  -13.3584   19.6766 C   0  0  0  0  0  0  0  0  0  0  0  0
    7.6690  -13.0242   18.2904 C   0  0  0  0  0  0  0  0  0  0  0  0
    7.4896  -14.1486   17.3409 C   0  0  0  0  0  0  0  0  0  0  0  0
    8.1042  -13.7976   15.9626 C   0  0  0  0  0  0  0  0  0  0  0  0
    7.8906  -14.9488   15.1268 N   0  0  0  0  0  0  0  0  0  0  0  0
    8.2978  -14.4353   21.5462 C   0  0  0  0  0  0  0  0  0  0  0  0
    9.3637  -13.7673   21.6372 O   0  0  0  0  0  0  0  0  0  0  0  0
    6.5076  -11.8041   28.3663 C   0  0  0  0  0  0  0  0  0  0  0  0
    6.0841  -12.3509   26.6807 S   0  0  0  0  0  0  0  0  0  0  0  0
    7.4816  -13.4266   26.1416 C   0  0  0  0  0  0  0  0  0  0  0  0
    7.2038  -13.7719   24.7195 C   0  0  0  0  0  0  0  0  0  0  0  0
    8.2678  -14.5844   24.0242 C   0  0  2  0  0  0  0  0  0  0  0  0
    7.6917  -14.9003   22.7070 N   0  0  0  0  0  0  0  0  0  0  0  0
    8.5768  -15.8720   24.6701 C   0  0  0  0  0  0  0  0  0  0  0  0
    7.6460  -16.7419   24.8016 O   0  0  0  0  0  0  0  0  0  0  0  0
   10.5414  -17.6363   20.0687 N   0  0  0  0  0  0  0  0  0  0  0  0
   11.6843  -18.3912   20.4651 C   0  0  0  0  0  0  0  0  0  0  0  0
   11.9705  -19.4929   19.9021 N   0  0  0  0  0  0  0  0  0  0  0  0
   12.5030  -17.8868   21.5072 N   0  0  0  0  0  0  0  0  0  0  0  0
   11.8925  -17.2482   22.6841 C   0  0  0  0  0  0  0  0  0  0  0  0
   11.1169  -18.2963   23.4307 C   0  0  0  0  0  0  0  0  0  0  0  0
   11.2456  -18.1507   24.8888 C   0  0  0  0  0  0  0  0  0  0  0  0
   10.1246  -17.6184   25.6801 C   0  0  2  0  0  0  0  0  0  0  0  0
    9.8326  -16.2636   25.1743 N   0  0  0  0  0  0  0  0  0  0  0  0
   10.2282  -17.5488   27.1248 C   0  0  0  0  0  0  0  0  0  0  0  0
   10.4354  -18.5631   27.8327 O   0  0  0  0  0  0  0  0  0  0  0  0
   10.1005  -16.3375   27.7759 O   0  0  0  0  0  0  0  0  0  0  0  0
  2  1  1  1
  2  3  1  0
  4  5  1  0
  4  3  1  0
  6  7  1  0
  6  5  1  0
  8  2  1  0
  8  9  2  0
 10 11  1  0
 11 12  1  0
 12 13  1  0
 14 13  1  1
 14 15  1  0
 15  8  1  0
 16 14  1  0
 16 26  1  0
 17 16  2  0
 18 19  1  0
 19 21  1  0
 20 19  2  0
 21 22  1  0
 23 22  1  0
 24 23  1  0
 25 24  1  6
 25 26  1  0
 25 27  1  0
 27 28  2  0
 27 29  1  0
M  END
$$$$
