KMR.pdb
     RDKit          3D

 29 28  0  0  1  0  0  0  0  0999 V2000
    8.3888  -15.6659   19.1923 N   0  0  0  0  0  0  0  0  0  0  0  0
    7.5922  -15.8365   20.3312 C   0  0  1  0  0  0  0  0  0  0  0  0
    7.1696  -17.2519   20.5616 C   0  0  0  0  0  0  0  0  0  0  0  0
    8.1255  -18.2550   20.0214 C   0  0  0  0  0  0  0  0  0  0  0  0
    7.5807  -19.6338   20.0171 C   0  0  0  0  0  0  0  0  0  0  0  0
    8.6052  -20.6197   19.4015 C   0  0  0  0  0  0  0  0  0  0  0  0
    7.9741  -21.9123   19.4195 N   0  0  0  0  0  0  0  0  0  0  0  0
    8.2112  -15.3533   21.5968 C   0  0  0  0  0  0  0  0  0  0  0  0
    9.4526  -15.5407   21.7159 O   0  0  0  0  0  0  0  0  0  0  0  0
    5.2772  -12.5845   27.3734 C   0  0  0  0  0  0  0  0  0  0  0  0
    6.4205  -11.5992   26.3527 S   0  0  0  0  0  0  0  0  0  0  0  0
    7.7398  -12.7696   25.8138 C   0  0  0  0  0  0  0  0  0  0  0  0
    7.2753  -13.3371   24.5174 C   0  0  0  0  0  0  0  0  0  0  0  0
    8.2342  -14.2816   23.8361 C   0  0  2  0  0  0  0  0  0  0  0  0
    7.5217  -14.7250   22.6268 N   0  0  0  0  0  0  0  0  0  0  0  0
    8.5524  -15.4954   24.6080 C   0  0  0  0  0  0  0  0  0  0  0  0
    7.9048  -16.5739   24.3677 O   0  0  0  0  0  0  0  0  0  0  0  0
   13.0573  -14.8599   20.3243 N   0  0  0  0  0  0  0  0  0  0  0  0
   12.5530  -15.9918   21.0295 C   0  0  0  0  0  0  0  0  0  0  0  0
   11.5515  -16.6418   20.5968 N   0  0  0  0  0  0  0  0  0  0  0  0
   13.1940  -16.3833   22.2323 N   0  0  0  0  0  0  0  0  0  0  0  0
   12.6154  -17.4494   23.0655 C   0  0  0  0  0  0  0  0  0  0  0  0
   12.1309  -16.8274   24.3446 C   0  0  0  0  0  0  0  0  0  0  0  0
   10.8478  -17.3940   24.7878 C   0  0  0  0  0  0  0  0  0  0  0  0
   10.1847  -16.8687   25.9921 C   0  0  2  0  0  0  0  0  0  0  0  0
    9.5301  -15.6009   25.6168 N   0  0  0  0  0  0  0  0  0  0  0  0
   10.9544  -16.6397   27.1996 C   0  0  0  0  0  0  0  0  0  0  0  0
   11.6401  -17.5403   27.7395 O   0  0  0  0  0  0  0  0  0  0  0  0
   10.9553  -15.3965   27.8011 O   0  0  0  0  0  0  0  0  0  0  0  0
  2  1  1  6
  2  3  1  0
  4  5  1  0
  4  3  1  0
  6  7  1  0
  6  5  1  0
  8  2  1  0
  8  9  2  0
 10 11  1  0
 11 12  1  0
 12 13  1  0
 14 13  1  1
 14 15  1  0
 15  8  1  0
 16 14  1  0
 16 26  1  0
 17 16  2  0
 18 19  1  0
 19 21  1  0
 20 19  2  0
 21 22  1  0
 23 22  1  0
 24 23  1  0
 25 24  1  6
 25 26  1  0
 25 27  1  0
 27 28  2  0
 27 29  1  0
M  END
$$$$
