KMR.pdb
     RDKit          3D

 29 28  0  0  1  0  0  0  0  0999 V2000
    8.7194  -15.9365   20.0079 N   0  0  0  0  0  0  0  0  0  0  0  0
    7.8041  -16.1679   21.0420 C   0  0  1  0  0  0  0  0  0  0  0  0
    7.4405  -17.6082   21.2106 C   0  0  0  0  0  0  0  0  0  0  0  0
    6.9665  -18.2541   19.9577 C   0  0  0  0  0  0  0  0  0  0  0  0
    6.6280  -19.6866   20.1341 C   0  0  0  0  0  0  0  0  0  0  0  0
    6.0251  -20.2659   18.8297 C   0  0  0  0  0  0  0  0  0  0  0  0
    5.6197  -21.6105   19.1413 N   0  0  0  0  0  0  0  0  0  0  0  0
    8.2386  -15.6675   22.3759 C   0  0  0  0  0  0  0  0  0  0  0  0
    9.4686  -15.7700   22.6349 O   0  0  0  0  0  0  0  0  0  0  0  0
    6.8253  -10.2427   25.7927 C   0  0  0  0  0  0  0  0  0  0  0  0
    6.0688  -11.6513   26.6663 S   0  0  0  0  0  0  0  0  0  0  0  0
    7.2430  -13.0571   26.4527 C   0  0  0  0  0  0  0  0  0  0  0  0
    7.0238  -13.5635   25.0692 C   0  0  0  0  0  0  0  0  0  0  0  0
    7.9179  -14.7001   24.6397 C   0  0  2  0  0  0  0  0  0  0  0  0
    7.3929  -15.1092   23.3268 N   0  0  0  0  0  0  0  0  0  0  0  0
    7.8589  -15.8891   25.5077 C   0  0  0  0  0  0  0  0  0  0  0  0
    6.8311  -16.6512   25.4507 O   0  0  0  0  0  0  0  0  0  0  0  0
    6.3971  -19.9973   24.6790 N   0  0  0  0  0  0  0  0  0  0  0  0
    7.1543  -20.6785   23.6812 C   0  0  0  0  0  0  0  0  0  0  0  0
    6.5823  -21.3557   22.7718 N   0  0  0  0  0  0  0  0  0  0  0  0
    8.5687  -20.5861   23.7212 N   0  0  0  0  0  0  0  0  0  0  0  0
    9.2736  -20.5878   25.0129 C   0  0  0  0  0  0  0  0  0  0  0  0
   10.2791  -19.4715   24.9944 C   0  0  0  0  0  0  0  0  0  0  0  0
    9.6527  -18.1549   25.1889 C   0  0  0  0  0  0  0  0  0  0  0  0
    9.3344  -17.6811   26.5454 C   0  0  2  0  0  0  0  0  0  0  0  0
    8.8490  -16.2932   26.4247 N   0  0  0  0  0  0  0  0  0  0  0  0
   10.3497  -17.7163   27.5803 C   0  0  0  0  0  0  0  0  0  0  0  0
   10.4958  -18.7000   28.3443 O   0  0  0  0  0  0  0  0  0  0  0  0
   11.2039  -16.6453   27.7563 O   0  0  0  0  0  0  0  0  0  0  0  0
  2  1  1  6
  2  3  1  0
  4  5  1  0
  4  3  1  0
  6  7  1  0
  6  5  1  0
  8  2  1  0
  8  9  2  0
 10 11  1  0
 11 12  1  0
 12 13  1  0
 14 13  1  1
 14 15  1  0
 15  8  1  0
 16 14  1  0
 16 26  1  0
 17 16  2  0
 18 19  1  0
 19 21  1  0
 20 19  2  0
 21 22  1  0
 23 22  1  0
 24 23  1  0
 25 24  1  6
 25 26  1  0
 25 27  1  0
 27 28  2  0
 27 29  1  0
M  END
$$$$
