KMR.pdb
     RDKit          3D

 29 28  0  0  1  0  0  0  0  0999 V2000
    9.0869  -15.8380   19.6213 N   0  0  0  0  0  0  0  0  0  0  0  0
    8.1391  -16.1214   20.6124 C   0  0  1  0  0  0  0  0  0  0  0  0
    7.8279  -17.5775   20.7463 C   0  0  0  0  0  0  0  0  0  0  0  0
    8.3086  -18.3976   19.6026 C   0  0  0  0  0  0  0  0  0  0  0  0
    7.8181  -19.7961   19.6432 C   0  0  0  0  0  0  0  0  0  0  0  0
    8.3688  -20.5991   18.4380 C   0  0  0  0  0  0  0  0  0  0  0  0
    7.7680  -21.9035   18.5207 N   0  0  0  0  0  0  0  0  0  0  0  0
    8.4962  -15.6239   21.9700 C   0  0  0  0  0  0  0  0  0  0  0  0
    9.6713  -15.8647   22.3595 O   0  0  0  0  0  0  0  0  0  0  0  0
    6.2201  -10.9564   27.8354 C   0  0  0  0  0  0  0  0  0  0  0  0
    5.9059  -11.7152   26.2090 S   0  0  0  0  0  0  0  0  0  0  0  0
    7.2512  -12.9536   25.9703 C   0  0  0  0  0  0  0  0  0  0  0  0
    7.0555  -13.5080   24.6017 C   0  0  0  0  0  0  0  0  0  0  0  0
    8.0755  -14.5266   24.1569 C   0  0  2  0  0  0  0  0  0  0  0  0
    7.6357  -14.9286   22.8109 N   0  0  0  0  0  0  0  0  0  0  0  0
    8.1143  -15.7528   24.9726 C   0  0  0  0  0  0  0  0  0  0  0  0
    7.4152  -16.7633   24.6115 O   0  0  0  0  0  0  0  0  0  0  0  0
   12.2910  -19.7343   21.0673 N   0  0  0  0  0  0  0  0  0  0  0  0
   13.3805  -19.3113   21.8840 C   0  0  0  0  0  0  0  0  0  0  0  0
   14.5697  -19.6805   21.6345 N   0  0  0  0  0  0  0  0  0  0  0  0
   13.1119  -18.4639   22.9889 N   0  0  0  0  0  0  0  0  0  0  0  0
   11.9444  -18.7169   23.8482 C   0  0  0  0  0  0  0  0  0  0  0  0
   11.9688  -17.7179   24.9702 C   0  0  0  0  0  0  0  0  0  0  0  0
   10.7203  -16.9446   25.0541 C   0  0  0  0  0  0  0  0  0  0  0  0
    9.9217  -16.9625   26.2902 C   0  0  2  0  0  0  0  0  0  0  0  0
    8.8675  -15.9402   26.1483 N   0  0  0  0  0  0  0  0  0  0  0  0
   10.5700  -16.7681   27.5727 C   0  0  0  0  0  0  0  0  0  0  0  0
   10.7881  -15.6287   28.0489 O   0  0  0  0  0  0  0  0  0  0  0  0
   10.9729  -17.8557   28.3227 O   0  0  0  0  0  0  0  0  0  0  0  0
  2  1  1  6
  2  3  1  0
  4  5  1  0
  4  3  1  0
  6  7  1  0
  6  5  1  0
  8  2  1  0
  8  9  2  0
 10 11  1  0
 11 12  1  0
 12 13  1  0
 14 13  1  1
 14 15  1  0
 15  8  1  0
 16 14  1  0
 16 26  1  0
 17 16  2  0
 18 19  1  0
 19 21  1  0
 20 19  2  0
 21 22  1  0
 23 22  1  0
 24 23  1  0
 25 24  1  6
 25 26  1  0
 25 27  1  0
 27 28  2  0
 27 29  1  0
M  END
$$$$
