KMR.pdb
     RDKit          3D

 29 28  0  0  1  0  0  0  0  0999 V2000
    7.0581  -15.6583   19.8994 N   0  0  0  0  0  0  0  0  0  0  0  0
    8.0034  -14.6263   19.9459 C   0  0  1  0  0  0  0  0  0  0  0  0
    7.5092  -13.3338   19.3802 C   0  0  0  0  0  0  0  0  0  0  0  0
    8.0690  -13.0170   18.0393 C   0  0  0  0  0  0  0  0  0  0  0  0
    7.5460  -13.8983   16.9679 C   0  0  0  0  0  0  0  0  0  0  0  0
    8.1917  -13.5383   15.6063 C   0  0  0  0  0  0  0  0  0  0  0  0
    7.6546  -14.4711   14.6520 N   0  0  0  0  0  0  0  0  0  0  0  0
    8.5332  -14.3339   21.3068 C   0  0  0  0  0  0  0  0  0  0  0  0
    9.6216  -13.6988   21.3555 O   0  0  0  0  0  0  0  0  0  0  0  0
    7.0855  -11.4954   28.1492 C   0  0  0  0  0  0  0  0  0  0  0  0
    6.6305  -11.9384   26.4415 S   0  0  0  0  0  0  0  0  0  0  0  0
    7.8010  -13.2745   25.9461 C   0  0  0  0  0  0  0  0  0  0  0  0
    7.5087  -13.5608   24.5139 C   0  0  0  0  0  0  0  0  0  0  0  0
    8.5407  -14.3885   23.7888 C   0  0  2  0  0  0  0  0  0  0  0  0
    7.9169  -14.7086   22.4946 N   0  0  0  0  0  0  0  0  0  0  0  0
    8.8596  -15.6742   24.4337 C   0  0  0  0  0  0  0  0  0  0  0  0
    7.9299  -16.5417   24.5865 O   0  0  0  0  0  0  0  0  0  0  0  0
   16.3448  -16.1906   24.8007 N   0  0  0  0  0  0  0  0  0  0  0  0
   15.6631  -16.4265   23.5708 C   0  0  0  0  0  0  0  0  0  0  0  0
   16.1825  -16.0988   22.4592 N   0  0  0  0  0  0  0  0  0  0  0  0
   14.3845  -17.0386   23.6096 N   0  0  0  0  0  0  0  0  0  0  0  0
   14.1255  -18.1518   24.5366 C   0  0  0  0  0  0  0  0  0  0  0  0
   12.9660  -17.7672   25.4113 C   0  0  0  0  0  0  0  0  0  0  0  0
   11.6813  -17.8460   24.6991 C   0  0  0  0  0  0  0  0  0  0  0  0
   10.4379  -17.4342   25.3701 C   0  0  2  0  0  0  0  0  0  0  0  0
   10.1241  -16.0664   24.9152 N   0  0  0  0  0  0  0  0  0  0  0  0
   10.3552  -17.4592   26.8177 C   0  0  0  0  0  0  0  0  0  0  0  0
   10.4124  -18.5255   27.4752 O   0  0  0  0  0  0  0  0  0  0  0  0
   10.2095  -16.2840   27.5285 O   0  0  0  0  0  0  0  0  0  0  0  0
  2  1  1  1
  2  3  1  0
  4  5  1  0
  4  3  1  0
  6  7  1  0
  6  5  1  0
  8  2  1  0
  8  9  2  0
 10 11  1  0
 11 12  1  0
 12 13  1  0
 14 13  1  1
 14 15  1  0
 15  8  1  0
 16 14  1  0
 16 26  1  0
 17 16  2  0
 18 19  1  0
 19 21  1  0
 20 19  2  0
 21 22  1  0
 23 22  1  0
 24 23  1  0
 25 24  1  1
 25 26  1  0
 25 27  1  0
 27 28  2  0
 27 29  1  0
M  END
$$$$
