KMR.pdb
     RDKit          3D

 29 28  0  0  1  0  0  0  0  0999 V2000
    7.5183  -16.1445   20.5394 N   0  0  0  0  0  0  0  0  0  0  0  0
    8.8625  -15.9133   20.8564 C   0  0  1  0  0  0  0  0  0  0  0  0
    9.5649  -15.0242   19.8811 C   0  0  0  0  0  0  0  0  0  0  0  0
    8.6617  -14.0651   19.1911 C   0  0  0  0  0  0  0  0  0  0  0  0
    8.7588  -14.1354   17.7134 C   0  0  0  0  0  0  0  0  0  0  0  0
    7.8181  -13.0932   17.0581 C   0  0  0  0  0  0  0  0  0  0  0  0
    8.0279  -13.2040   15.6392 N   0  0  0  0  0  0  0  0  0  0  0  0
    9.0883  -15.3398   22.2123 C   0  0  0  0  0  0  0  0  0  0  0  0
   10.2913  -15.2069   22.5668 O   0  0  0  0  0  0  0  0  0  0  0  0
    4.5728  -12.6299   26.7906 C   0  0  0  0  0  0  0  0  0  0  0  0
    5.8170  -11.5790   25.9738 S   0  0  0  0  0  0  0  0  0  0  0  0
    7.3554  -12.5934   25.9040 C   0  0  0  0  0  0  0  0  0  0  0  0
    7.2925  -13.3397   24.6165 C   0  0  0  0  0  0  0  0  0  0  0  0
    8.4147  -14.3178   24.3722 C   0  0  2  0  0  0  0  0  0  0  0  0
    8.0803  -14.9524   23.0869 N   0  0  0  0  0  0  0  0  0  0  0  0
    8.5118  -15.4010   25.3659 C   0  0  0  0  0  0  0  0  0  0  0  0
    8.7687  -15.1060   26.5855 O   0  0  0  0  0  0  0  0  0  0  0  0
    7.8299  -23.3419   23.8409 N   0  0  0  0  0  0  0  0  0  0  0  0
    6.7496  -22.4129   23.8946 C   0  0  0  0  0  0  0  0  0  0  0  0
    5.5865  -22.7355   23.4999 N   0  0  0  0  0  0  0  0  0  0  0  0
    6.9975  -21.1116   24.4006 N   0  0  0  0  0  0  0  0  0  0  0  0
    5.9073  -20.1258   24.4721 C   0  0  0  0  0  0  0  0  0  0  0  0
    6.4935  -18.8171   24.9206 C   0  0  0  0  0  0  0  0  0  0  0  0
    7.7358  -18.9974   25.6875 C   0  0  0  0  0  0  0  0  0  0  0  0
    8.5054  -17.8251   26.1338 C   0  0  2  0  0  0  0  0  0  0  0  0
    8.3435  -16.7759   25.1093 N   0  0  0  0  0  0  0  0  0  0  0  0
    9.9197  -17.9572   26.4258 C   0  0  0  0  0  0  0  0  0  0  0  0
   10.8033  -17.8066   25.5487 O   0  0  0  0  0  0  0  0  0  0  0  0
   10.3427  -18.2575   27.7058 O   0  0  0  0  0  0  0  0  0  0  0  0
  2  1  1  6
  2  3  1  0
  4  5  1  0
  4  3  1  0
  6  7  1  0
  6  5  1  0
  8  2  1  0
  8  9  2  0
 10 11  1  0
 11 12  1  0
 12 13  1  0
 14 13  1  1
 14 15  1  0
 15  8  1  0
 16 14  1  0
 16 26  1  0
 17 16  2  0
 18 19  1  0
 19 21  1  0
 20 19  2  0
 21 22  1  0
 23 22  1  0
 24 23  1  0
 25 24  1  6
 25 26  1  0
 25 27  1  0
 27 28  2  0
 27 29  1  0
M  END
$$$$
