KMR.pdb
     RDKit          3D

 29 28  0  0  1  0  0  0  0  0999 V2000
    7.1563  -15.1954   20.3744 N   0  0  0  0  0  0  0  0  0  0  0  0
    8.2992  -14.4295   20.6347 C   0  0  1  0  0  0  0  0  0  0  0  0
    8.3704  -13.1672   19.8368 C   0  0  0  0  0  0  0  0  0  0  0  0
    7.9536  -13.3338   18.4190 C   0  0  0  0  0  0  0  0  0  0  0  0
    8.9784  -14.0089   17.5872 C   0  0  0  0  0  0  0  0  0  0  0  0
    8.5143  -14.0853   16.1110 C   0  0  0  0  0  0  0  0  0  0  0  0
    9.5736  -14.7436   15.3941 N   0  0  0  0  0  0  0  0  0  0  0  0
    8.4794  -14.0538   22.0646 C   0  0  0  0  0  0  0  0  0  0  0  0
    9.5710  -13.4954   22.3599 O   0  0  0  0  0  0  0  0  0  0  0  0
    7.0183  -10.0287   26.7978 C   0  0  0  0  0  0  0  0  0  0  0  0
    5.6919  -11.2292   26.4530 S   0  0  0  0  0  0  0  0  0  0  0  0
    6.5181  -12.8764   26.3844 C   0  0  0  0  0  0  0  0  0  0  0  0
    6.5419  -13.2598   24.9452 C   0  0  0  0  0  0  0  0  0  0  0  0
    7.8285  -13.8753   24.4538 C   0  0  2  0  0  0  0  0  0  0  0  0
    7.5422  -14.2752   23.0664 N   0  0  0  0  0  0  0  0  0  0  0  0
    8.2374  -15.0962   25.1697 C   0  0  0  0  0  0  0  0  0  0  0  0
    7.5845  -15.4553   26.2115 O   0  0  0  0  0  0  0  0  0  0  0  0
    7.7584  -22.4583   26.1507 N   0  0  0  0  0  0  0  0  0  0  0  0
    7.6832  -21.8944   27.4582 C   0  0  0  0  0  0  0  0  0  0  0  0
    7.6110  -22.6335   28.4884 N   0  0  0  0  0  0  0  0  0  0  0  0
    7.6907  -20.4826   27.5902 N   0  0  0  0  0  0  0  0  0  0  0  0
    7.0274  -19.6420   26.5808 C   0  0  0  0  0  0  0  0  0  0  0  0
    7.9958  -19.4183   25.4540 C   0  0  0  0  0  0  0  0  0  0  0  0
    8.1480  -17.9925   25.1258 C   0  0  0  0  0  0  0  0  0  0  0  0
    9.4488  -17.3278   25.3047 C   0  0  2  0  0  0  0  0  0  0  0  0
    9.3065  -15.9429   24.8166 N   0  0  0  0  0  0  0  0  0  0  0  0
   10.6404  -17.8978   24.7061 C   0  0  0  0  0  0  0  0  0  0  0  0
   11.2055  -18.9151   25.1733 O   0  0  0  0  0  0  0  0  0  0  0  0
   11.1974  -17.3251   23.5795 O   0  0  0  0  0  0  0  0  0  0  0  0
  2  1  1  1
  2  3  1  0
  4  5  1  0
  4  3  1  0
  6  7  1  0
  6  5  1  0
  8  2  1  0
  8  9  2  0
 10 11  1  0
 11 12  1  0
 12 13  1  0
 14 13  1  1
 14 15  1  0
 15  8  1  0
 16 14  1  0
 16 26  1  0
 17 16  2  0
 18 19  1  0
 19 21  1  0
 20 19  2  0
 21 22  1  0
 23 22  1  0
 24 23  1  0
 25 24  1  6
 25 26  1  0
 25 27  1  0
 27 28  2  0
 27 29  1  0
M  END
$$$$
