KMR.pdb
     RDKit          3D

 29 28  0  0  1  0  0  0  0  0999 V2000
    7.2671  -16.1467   21.0353 N   0  0  0  0  0  0  0  0  0  0  0  0
    8.4858  -15.4575   21.0126 C   0  0  1  0  0  0  0  0  0  0  0  0
    8.4724  -14.2430   20.1409 C   0  0  0  0  0  0  0  0  0  0  0  0
    7.9187  -14.4900   18.7829 C   0  0  0  0  0  0  0  0  0  0  0  0
    7.9906  -13.3007   17.9007 C   0  0  0  0  0  0  0  0  0  0  0  0
    7.3901  -13.6210   16.5087 C   0  0  0  0  0  0  0  0  0  0  0  0
    7.5632  -12.4323   15.7173 N   0  0  0  0  0  0  0  0  0  0  0  0
    8.9793  -15.0296   22.3512 C   0  0  0  0  0  0  0  0  0  0  0  0
   10.1297  -14.5137   22.3811 O   0  0  0  0  0  0  0  0  0  0  0  0
    5.3837  -12.2656   26.8204 C   0  0  0  0  0  0  0  0  0  0  0  0
    7.1473  -11.8862   27.0762 S   0  0  0  0  0  0  0  0  0  0  0  0
    8.0343  -13.4909   26.8792 C   0  0  0  0  0  0  0  0  0  0  0  0
    7.7458  -13.9474   25.4910 C   0  0  0  0  0  0  0  0  0  0  0  0
    8.8544  -14.7109   24.8101 C   0  0  2  0  0  0  0  0  0  0  0  0
    8.2675  -15.1609   23.5374 N   0  0  0  0  0  0  0  0  0  0  0  0
    9.2940  -15.9221   25.5244 C   0  0  0  0  0  0  0  0  0  0  0  0
    9.8104  -15.8042   26.6906 O   0  0  0  0  0  0  0  0  0  0  0  0
   12.7925  -21.3786   29.4279 N   0  0  0  0  0  0  0  0  0  0  0  0
   13.3478  -21.7772   28.1765 C   0  0  0  0  0  0  0  0  0  0  0  0
   14.5115  -22.2807   28.1056 N   0  0  0  0  0  0  0  0  0  0  0  0
   12.5724  -21.6007   27.0025 N   0  0  0  0  0  0  0  0  0  0  0  0
   11.3996  -20.7119   27.0176 C   0  0  0  0  0  0  0  0  0  0  0  0
   11.8210  -19.3780   26.4693 C   0  0  0  0  0  0  0  0  0  0  0  0
   10.8817  -18.8702   25.4576 C   0  0  0  0  0  0  0  0  0  0  0  0
    9.5340  -18.4319   25.8545 C   0  0  2  0  0  0  0  0  0  0  0  0
    9.2013  -17.2437   25.0457 N   0  0  0  0  0  0  0  0  0  0  0  0
    9.2532  -18.1259   27.2440 C   0  0  0  0  0  0  0  0  0  0  0  0
    9.5499  -17.0229   27.7617 O   0  0  0  0  0  0  0  0  0  0  0  0
    8.6365  -19.0599   28.0532 O   0  0  0  0  0  0  0  0  0  0  0  0
  2  1  1  1
  2  3  1  0
  4  5  1  0
  4  3  1  0
  6  7  1  0
  6  5  1  0
  8  2  1  0
  8  9  2  0
 10 11  1  0
 11 12  1  0
 12 13  1  0
 14 13  1  1
 14 15  1  0
 15  8  1  0
 16 14  1  0
 16 26  1  0
 17 16  2  0
 18 19  1  0
 19 21  1  0
 20 19  2  0
 21 22  1  0
 23 22  1  0
 24 23  1  0
 25 24  1  1
 25 26  1  0
 25 27  1  0
 27 28  2  0
 27 29  1  0
M  END
$$$$
