KMR.pdb
     RDKit          3D

 29 28  0  0  1  0  0  0  0  0999 V2000
    6.9675  -16.1762   20.8973 N   0  0  0  0  0  0  0  0  0  0  0  0
    8.1870  -15.5191   21.1019 C   0  0  1  0  0  0  0  0  0  0  0  0
    8.3063  -14.2291   20.3558 C   0  0  0  0  0  0  0  0  0  0  0  0
    7.7637  -14.2880   18.9724 C   0  0  0  0  0  0  0  0  0  0  0  0
    8.2203  -13.1639   18.1205 C   0  0  0  0  0  0  0  0  0  0  0  0
    7.4937  -13.1905   16.7523 C   0  0  0  0  0  0  0  0  0  0  0  0
    7.9119  -12.0030   16.0563 N   0  0  0  0  0  0  0  0  0  0  0  0
    8.5020  -15.2300   22.5286 C   0  0  0  0  0  0  0  0  0  0  0  0
    9.6351  -14.7254   22.7570 O   0  0  0  0  0  0  0  0  0  0  0  0
    7.0292  -10.2284   26.4367 C   0  0  0  0  0  0  0  0  0  0  0  0
    6.8215  -11.9965   26.8243 S   0  0  0  0  0  0  0  0  0  0  0  0
    7.2017  -12.8961   25.2601 C   0  0  0  0  0  0  0  0  0  0  0  0
    7.0546  -14.3439   25.5775 C   0  0  0  0  0  0  0  0  0  0  0  0
    8.0977  -15.2540   24.9779 C   0  0  2  0  0  0  0  0  0  0  0  0
    7.6455  -15.4759   23.5949 N   0  0  0  0  0  0  0  0  0  0  0  0
    8.1906  -16.5814   25.6104 C   0  0  0  0  0  0  0  0  0  0  0  0
    7.2172  -17.4033   25.4787 O   0  0  0  0  0  0  0  0  0  0  0  0
    9.4816  -23.4630   22.4876 N   0  0  0  0  0  0  0  0  0  0  0  0
    9.6786  -23.9141   23.8258 C   0  0  0  0  0  0  0  0  0  0  0  0
    9.7453  -25.1529   24.0976 N   0  0  0  0  0  0  0  0  0  0  0  0
    9.8001  -22.9484   24.8570 N   0  0  0  0  0  0  0  0  0  0  0  0
    9.4912  -21.5352   24.5868 C   0  0  0  0  0  0  0  0  0  0  0  0
    9.5814  -20.7840   25.8849 C   0  0  0  0  0  0  0  0  0  0  0  0
    9.3541  -19.3412   25.7099 C   0  0  0  0  0  0  0  0  0  0  0  0
    9.3720  -18.4436   26.8761 C   0  0  2  0  0  0  0  0  0  0  0  0
    9.2759  -17.0614   26.3694 N   0  0  0  0  0  0  0  0  0  0  0  0
   10.4728  -18.5042   27.8182 C   0  0  0  0  0  0  0  0  0  0  0  0
   11.4009  -17.6608   27.8214 O   0  0  0  0  0  0  0  0  0  0  0  0
   10.5306  -19.5131   28.7597 O   0  0  0  0  0  0  0  0  0  0  0  0
  2  1  1  1
  2  3  1  0
  4  5  1  0
  4  3  1  0
  6  7  1  0
  6  5  1  0
  8  2  1  0
  8  9  2  0
 10 11  1  0
 11 12  1  0
 12 13  1  0
 14 13  1  1
 14 15  1  0
 15  8  1  0
 16 14  1  0
 16 26  1  0
 17 16  2  0
 18 19  1  0
 19 21  1  0
 20 19  2  0
 21 22  1  0
 23 22  1  0
 24 23  1  0
 25 24  1  6
 25 26  1  0
 25 27  1  0
 27 28  2  0
 27 29  1  0
M  END
$$$$
