KMR.pdb
     RDKit          3D

 29 28  0  0  1  0  0  0  0  0999 V2000
    6.6323  -16.6846   19.1711 N   0  0  0  0  0  0  0  0  0  0  0  0
    6.8768  -17.2385   20.4337 C   0  0  1  0  0  0  0  0  0  0  0  0
    7.5350  -18.5799   20.3835 C   0  0  0  0  0  0  0  0  0  0  0  0
    6.6055  -19.7105   20.6467 C   0  0  0  0  0  0  0  0  0  0  0  0
    7.2585  -21.0371   20.5395 C   0  0  0  0  0  0  0  0  0  0  0  0
    6.2346  -22.1687   20.8074 C   0  0  0  0  0  0  0  0  0  0  0  0
    6.9906  -23.3924   20.8301 N   0  0  0  0  0  0  0  0  0  0  0  0
    7.6961  -16.3828   21.3363 C   0  0  0  0  0  0  0  0  0  0  0  0
    8.8336  -16.0493   20.9057 O   0  0  0  0  0  0  0  0  0  0  0  0
    7.2457  -11.5528   27.4655 C   0  0  0  0  0  0  0  0  0  0  0  0
    6.4629  -12.6894   26.2760 S   0  0  0  0  0  0  0  0  0  0  0  0
    7.8477  -13.4199   25.3016 C   0  0  0  0  0  0  0  0  0  0  0  0
    7.2096  -14.3120   24.2938 C   0  0  0  0  0  0  0  0  0  0  0  0
    8.1567  -15.0433   23.3752 C   0  0  2  0  0  0  0  0  0  0  0  0
    7.2934  -15.9411   22.5908 N   0  0  0  0  0  0  0  0  0  0  0  0
    9.1412  -15.8972   24.0623 C   0  0  0  0  0  0  0  0  0  0  0  0
    8.7825  -17.0573   24.4695 O   0  0  0  0  0  0  0  0  0  0  0  0
   17.0076  -15.7715   24.5224 N   0  0  0  0  0  0  0  0  0  0  0  0
   17.1787  -16.8203   23.5717 C   0  0  0  0  0  0  0  0  0  0  0  0
   18.2245  -17.5408   23.5707 N   0  0  0  0  0  0  0  0  0  0  0  0
   16.1530  -17.0476   22.6194 N   0  0  0  0  0  0  0  0  0  0  0  0
   14.9443  -16.2081   22.6197 C   0  0  0  0  0  0  0  0  0  0  0  0
   13.9416  -16.8385   23.5442 C   0  0  0  0  0  0  0  0  0  0  0  0
   12.6632  -16.1109   23.5583 C   0  0  0  0  0  0  0  0  0  0  0  0
   11.5684  -16.5576   24.4344 C   0  0  2  0  0  0  0  0  0  0  0  0
   10.4840  -15.5631   24.3262 N   0  0  0  0  0  0  0  0  0  0  0  0
   11.8213  -16.7991   25.8418 C   0  0  0  0  0  0  0  0  0  0  0  0
   11.3685  -16.0537   26.7428 O   0  0  0  0  0  0  0  0  0  0  0  0
   12.5831  -17.8809   26.2380 O   0  0  0  0  0  0  0  0  0  0  0  0
  2  1  1  6
  2  3  1  0
  4  5  1  0
  4  3  1  0
  6  7  1  0
  6  5  1  0
  8  2  1  0
  8  9  2  0
 10 11  1  0
 11 12  1  0
 12 13  1  0
 14 13  1  1
 14 15  1  0
 15  8  1  0
 16 14  1  0
 16 26  1  0
 17 16  2  0
 18 19  1  0
 19 21  1  0
 20 19  2  0
 21 22  1  0
 23 22  1  0
 24 23  1  0
 25 24  1  1
 25 26  1  0
 25 27  1  0
 27 28  2  0
 27 29  1  0
M  END
$$$$
