KMR.pdb
     RDKit          3D

 29 28  0  0  1  0  0  0  0  0999 V2000
    7.3498  -13.1082   18.8579 N   0  0  0  0  0  0  0  0  0  0  0  0
    7.4386  -14.1816   19.7526 C   0  0  1  0  0  0  0  0  0  0  0  0
    7.9615  -15.4377   19.1331 C   0  0  0  0  0  0  0  0  0  0  0  0
    6.9055  -16.4440   18.8433 C   0  0  0  0  0  0  0  0  0  0  0  0
    7.4514  -17.7444   18.3862 C   0  0  0  0  0  0  0  0  0  0  0  0
    6.3033  -18.7479   18.1112 C   0  0  0  0  0  0  0  0  0  0  0  0
    6.0719  -18.7088   16.6920 N   0  0  0  0  0  0  0  0  0  0  0  0
    8.2664  -13.9126   20.9612 C   0  0  0  0  0  0  0  0  0  0  0  0
    9.3574  -13.3109   20.7655 O   0  0  0  0  0  0  0  0  0  0  0  0
    5.9802  -12.7126   27.7694 C   0  0  0  0  0  0  0  0  0  0  0  0
    7.0865  -12.0599   26.4772 S   0  0  0  0  0  0  0  0  0  0  0  0
    7.0811  -13.3232   25.1339 C   0  0  0  0  0  0  0  0  0  0  0  0
    8.0872  -12.8615   24.1373 C   0  0  0  0  0  0  0  0  0  0  0  0
    8.8086  -13.9511   23.3835 C   0  0  2  0  0  0  0  0  0  0  0  0
    7.9184  -14.2746   22.2569 N   0  0  0  0  0  0  0  0  0  0  0  0
    9.0002  -15.1991   24.1427 C   0  0  0  0  0  0  0  0  0  0  0  0
    8.0085  -15.9960   24.2913 O   0  0  0  0  0  0  0  0  0  0  0  0
   15.2072  -18.3924   21.1845 N   0  0  0  0  0  0  0  0  0  0  0  0
   14.3930  -19.5490   21.3645 C   0  0  0  0  0  0  0  0  0  0  0  0
   14.6766  -20.6466   20.7921 N   0  0  0  0  0  0  0  0  0  0  0  0
   13.2517  -19.4526   22.2004 N   0  0  0  0  0  0  0  0  0  0  0  0
   12.8994  -18.1679   22.8257 C   0  0  0  0  0  0  0  0  0  0  0  0
   11.6853  -18.3866   23.6835 C   0  0  0  0  0  0  0  0  0  0  0  0
   11.6623  -17.4950   24.8532 C   0  0  0  0  0  0  0  0  0  0  0  0
   10.3845  -16.9585   25.3484 C   0  0  2  0  0  0  0  0  0  0  0  0
   10.2014  -15.6262   24.7419 N   0  0  0  0  0  0  0  0  0  0  0  0
   10.1542  -16.8411   26.7754 C   0  0  0  0  0  0  0  0  0  0  0  0
   10.0896  -15.7314   27.3559 O   0  0  0  0  0  0  0  0  0  0  0  0
    9.9944  -17.9722   27.5517 O   0  0  0  0  0  0  0  0  0  0  0  0
  2  1  1  6
  2  3  1  0
  4  5  1  0
  4  3  1  0
  6  7  1  0
  6  5  1  0
  8  2  1  0
  8  9  2  0
 10 11  1  0
 11 12  1  0
 12 13  1  0
 14 13  1  1
 14 15  1  0
 15  8  1  0
 16 14  1  0
 16 26  1  0
 17 16  2  0
 18 19  1  0
 19 21  1  0
 20 19  2  0
 21 22  1  0
 23 22  1  0
 24 23  1  0
 25 24  1  1
 25 26  1  0
 25 27  1  0
 27 28  2  0
 27 29  1  0
M  END
$$$$
