KMR.pdb
     RDKit          3D

 29 28  0  0  1  0  0  0  0  0999 V2000
    8.9395  -15.5177   19.3609 N   0  0  0  0  0  0  0  0  0  0  0  0
    8.0488  -15.7309   20.4201 C   0  0  1  0  0  0  0  0  0  0  0  0
    7.5029  -17.1216   20.4745 C   0  0  0  0  0  0  0  0  0  0  0  0
    7.1214  -17.6649   19.1437 C   0  0  0  0  0  0  0  0  0  0  0  0
    6.4066  -18.9610   19.2280 C   0  0  0  0  0  0  0  0  0  0  0  0
    5.9088  -19.3977   17.8273 C   0  0  0  0  0  0  0  0  0  0  0  0
    5.1536  -20.6049   18.0318 N   0  0  0  0  0  0  0  0  0  0  0  0
    8.6060  -15.4268   21.7674 C   0  0  0  0  0  0  0  0  0  0  0  0
    9.7827  -15.8246   21.9856 O   0  0  0  0  0  0  0  0  0  0  0  0
    5.4500  -11.8338   26.5167 C   0  0  0  0  0  0  0  0  0  0  0  0
    7.2574  -11.6101   26.5687 S   0  0  0  0  0  0  0  0  0  0  0  0
    7.9742  -13.2706   26.2089 C   0  0  0  0  0  0  0  0  0  0  0  0
    7.6339  -13.5615   24.7883 C   0  0  0  0  0  0  0  0  0  0  0  0
    8.5742  -14.4964   24.0689 C   0  0  2  0  0  0  0  0  0  0  0  0
    7.9258  -14.7490   22.7719 N   0  0  0  0  0  0  0  0  0  0  0  0
    8.7497  -15.8081   24.7163 C   0  0  0  0  0  0  0  0  0  0  0  0
    7.8856  -16.7289   24.5019 O   0  0  0  0  0  0  0  0  0  0  0  0
   14.8147  -19.1297   22.0644 N   0  0  0  0  0  0  0  0  0  0  0  0
   15.0844  -19.2197   23.4616 C   0  0  0  0  0  0  0  0  0  0  0  0
   16.2671  -19.3892   23.8921 N   0  0  0  0  0  0  0  0  0  0  0  0
   14.0009  -19.1156   24.3704 N   0  0  0  0  0  0  0  0  0  0  0  0
   12.6969  -19.7110   24.0377 C   0  0  0  0  0  0  0  0  0  0  0  0
   11.7381  -19.3771   25.1453 C   0  0  0  0  0  0  0  0  0  0  0  0
   11.1259  -18.0510   24.9705 C   0  0  0  0  0  0  0  0  0  0  0  0
   10.1245  -17.5666   25.9342 C   0  0  2  0  0  0  0  0  0  0  0  0
    9.8059  -16.1717   25.5746 N   0  0  0  0  0  0  0  0  0  0  0  0
   10.4072  -17.6136   27.3557 C   0  0  0  0  0  0  0  0  0  0  0  0
   10.5346  -16.5768   28.0495 O   0  0  0  0  0  0  0  0  0  0  0  0
   10.5456  -18.8276   27.9997 O   0  0  0  0  0  0  0  0  0  0  0  0
  2  1  1  6
  2  3  1  0
  4  5  1  0
  4  3  1  0
  6  7  1  0
  6  5  1  0
  8  2  1  0
  8  9  2  0
 10 11  1  0
 11 12  1  0
 12 13  1  0
 14 13  1  1
 14 15  1  0
 15  8  1  0
 16 14  1  0
 16 26  1  0
 17 16  2  0
 18 19  1  0
 19 21  1  0
 20 19  2  0
 21 22  1  0
 23 22  1  0
 24 23  1  0
 25 24  1  6
 25 26  1  0
 25 27  1  0
 27 28  2  0
 27 29  1  0
M  END
$$$$
