HIP.pdb
     RDKit          3D

 26 27  0  0  1  0  0  0  0  0999 V2000
    9.6584  -15.0972   20.5634 N   0  0  0  0  0  0  0  0  0  0  0  0
    9.1249  -15.9788   21.5770 C   0  0  1  0  0  0  0  0  0  0  0  0
    9.8821  -17.2793   21.6608 C   0  0  0  0  0  0  0  0  0  0  0  0
    9.2802  -18.2384   22.6054 C   0  0  0  0  0  0  0  0  0  0  0  0
    8.0400  -18.8084   22.6514 C   0  0  0  0  0  0  0  0  0  0  0  0
    7.9486  -19.6311   23.7098 N   0  0  0  0  0  0  0  0  0  0  0  0
    9.1486  -19.5649   24.3210 C   0  0  0  0  0  0  0  0  0  0  0  0
    9.9583  -18.7259   23.6600 N   0  0  0  0  0  0  0  0  0  0  0  0
    9.2879  -15.3131   22.8905 C   0  0  0  0  0  0  0  0  0  0  0  0
   10.3475  -14.6798   23.1025 O   0  0  0  0  0  0  0  0  0  0  0  0
    5.4473  -12.4469   25.1879 C   0  0  0  0  0  0  0  0  0  0  0  0
    6.7836  -12.9933   24.7298 C   0  0  0  0  0  0  0  0  0  0  0  0
    7.3127  -14.0335   25.6567 C   0  0  2  0  0  0  0  0  0  0  0  0
    7.3039  -13.5412   27.0601 C   0  0  0  0  0  0  0  0  0  0  0  0
    8.6069  -14.6582   25.1726 C   0  0  2  0  0  0  0  0  0  0  0  0
    8.3119  -15.3566   23.9120 N   0  0  0  0  0  0  0  0  0  0  0  0
    9.1079  -15.6315   26.1975 C   0  0  0  0  0  0  0  0  0  0  0  0
    8.4953  -16.7274   26.1729 O   0  0  0  0  0  0  0  0  0  0  0  0
   10.1588  -15.3624   27.0966 N   0  0  0  0  0  0  0  0  0  0  0  0
   11.0390  -14.1659   27.0516 C   0  0  0  0  0  0  0  0  0  0  0  0
   11.0474  -13.7029   28.4679 C   0  0  0  0  0  0  0  0  0  0  0  0
   10.6438  -14.9221   29.2669 C   0  0  0  0  0  0  0  0  0  0  0  0
   10.6922  -16.0628   28.2119 C   0  0  1  0  0  0  0  0  0  0  0  0
   10.0770  -17.2506   28.7237 C   0  0  0  0  0  0  0  0  0  0  0  0
   10.8298  -18.0865   29.5774 O   0  0  0  0  0  0  0  0  0  0  0  0
    8.9355  -17.6282   28.4926 O   0  0  0  0  0  0  0  0  0  0  0  0
  2  1  1  6
  3  2  1  0
  4  5  2  0
  4  3  1  0
  6  5  1  0
  7  8  2  0
  7  6  1  0
  8  4  1  0
  9 16  1  0
  9  2  1  0
 10  9  2  0
 12 11  1  0
 13 15  1  0
 13 12  1  0
 13 14  1  1
 15 16  1  6
 17 15  1  0
 18 17  2  0
 19 17  1  0
 19 20  1  0
 21 20  1  0
 22 23  1  0
 22 21  1  0
 23 24  1  1
 23 19  1  0
 24 25  1  0
 26 24  2  0
M  END
$$$$
