HIP.pdb
     RDKit          3D

 26 27  0  0  1  0  0  0  0  0999 V2000
    9.5881  -15.1501   20.7617 N   0  0  0  0  0  0  0  0  0  0  0  0
    8.6827  -15.7447   21.7188 C   0  0  1  0  0  0  0  0  0  0  0  0
    8.8623  -17.2374   21.8260 C   0  0  0  0  0  0  0  0  0  0  0  0
    8.4170  -17.9609   20.6208 C   0  0  0  0  0  0  0  0  0  0  0  0
    7.3195  -17.8042   19.8232 C   0  0  0  0  0  0  0  0  0  0  0  0
    7.3385  -18.7073   18.8286 N   0  0  0  0  0  0  0  0  0  0  0  0
    8.4625  -19.4275   19.0186 C   0  0  0  0  0  0  0  0  0  0  0  0
    9.1192  -18.9828   20.0990 N   0  0  0  0  0  0  0  0  0  0  0  0
    9.0014  -15.1869   23.0538 C   0  0  0  0  0  0  0  0  0  0  0  0
   10.1898  -14.8711   23.2920 O   0  0  0  0  0  0  0  0  0  0  0  0
    5.3932  -12.1123   25.6686 C   0  0  0  0  0  0  0  0  0  0  0  0
    6.6770  -12.6693   25.0894 C   0  0  0  0  0  0  0  0  0  0  0  0
    7.2792  -13.7166   25.9622 C   0  0  2  0  0  0  0  0  0  0  0  0
    7.4591  -13.2069   27.3478 C   0  0  0  0  0  0  0  0  0  0  0  0
    8.4820  -14.3939   25.3346 C   0  0  2  0  0  0  0  0  0  0  0  0
    8.0357  -14.9940   24.0678 N   0  0  0  0  0  0  0  0  0  0  0  0
    8.9963  -15.4580   26.2575 C   0  0  0  0  0  0  0  0  0  0  0  0
    8.2876  -16.4948   26.2530 O   0  0  0  0  0  0  0  0  0  0  0  0
   10.1549  -15.3267   27.0485 N   0  0  0  0  0  0  0  0  0  0  0  0
   11.1004  -14.1813   26.9986 C   0  0  0  0  0  0  0  0  0  0  0  0
   11.2944  -13.8444   28.4371 C   0  0  0  0  0  0  0  0  0  0  0  0
   10.9030  -15.1042   29.1769 C   0  0  0  0  0  0  0  0  0  0  0  0
   10.7612  -16.1498   28.0353 C   0  0  1  0  0  0  0  0  0  0  0  0
   10.1304  -17.3418   28.5176 C   0  0  0  0  0  0  0  0  0  0  0  0
   10.9398  -18.3555   29.0755 O   0  0  0  0  0  0  0  0  0  0  0  0
    8.9298  -17.5811   28.4966 O   0  0  0  0  0  0  0  0  0  0  0  0
  2  1  1  6
  3  2  1  0
  4  5  2  0
  4  3  1  0
  6  5  1  0
  7  8  2  0
  7  6  1  0
  8  4  1  0
  9 16  1  0
  9  2  1  0
 10  9  2  0
 12 11  1  0
 13 15  1  0
 13 12  1  0
 13 14  1  1
 15 16  1  6
 17 15  1  0
 18 17  2  0
 19 17  1  0
 19 20  1  0
 21 20  1  0
 22 23  1  0
 22 21  1  0
 23 24  1  1
 23 19  1  0
 24 25  1  0
 26 24  2  0
M  END
$$$$
