HIP.pdb
     RDKit          3D

 26 27  0  0  1  0  0  0  0  0999 V2000
   10.3469  -15.5809   20.9062 N   0  0  0  0  0  0  0  0  0  0  0  0
    9.4756  -16.2338   21.8569 C   0  0  1  0  0  0  0  0  0  0  0  0
    9.9019  -17.6504   22.1454 C   0  0  0  0  0  0  0  0  0  0  0  0
    9.6053  -18.5796   21.0396 C   0  0  0  0  0  0  0  0  0  0  0  0
    9.1650  -18.3610   19.7653 C   0  0  0  0  0  0  0  0  0  0  0  0
    9.0376  -19.5291   19.1138 N   0  0  0  0  0  0  0  0  0  0  0  0
    9.4046  -20.4768   20.0000 C   0  0  0  0  0  0  0  0  0  0  0  0
    9.7488  -19.9112   21.1654 N   0  0  0  0  0  0  0  0  0  0  0  0
    9.5691  -15.4981   23.1395 C   0  0  0  0  0  0  0  0  0  0  0  0
   10.6916  -15.0683   23.4916 O   0  0  0  0  0  0  0  0  0  0  0  0
    5.5453  -12.3685   25.1481 C   0  0  0  0  0  0  0  0  0  0  0  0
    6.8983  -12.9154   24.7425 C   0  0  0  0  0  0  0  0  0  0  0  0
    7.3968  -13.9458   25.6970 C   0  0  2  0  0  0  0  0  0  0  0  0
    7.3424  -13.4389   27.0941 C   0  0  0  0  0  0  0  0  0  0  0  0
    8.7059  -14.5753   25.2618 C   0  0  2  0  0  0  0  0  0  0  0  0
    8.4599  -15.2581   23.9822 N   0  0  0  0  0  0  0  0  0  0  0  0
    9.1555  -15.5632   26.2964 C   0  0  0  0  0  0  0  0  0  0  0  0
    8.5149  -16.6425   26.2543 O   0  0  0  0  0  0  0  0  0  0  0  0
   10.1906  -15.3235   27.2218 N   0  0  0  0  0  0  0  0  0  0  0  0
   11.0990  -14.1475   27.2049 C   0  0  0  0  0  0  0  0  0  0  0  0
   11.0843  -13.6927   28.6238 C   0  0  0  0  0  0  0  0  0  0  0  0
   10.6339  -14.9066   29.4056 C   0  0  0  0  0  0  0  0  0  0  0  0
   10.6811  -16.0423   28.3451 C   0  0  1  0  0  0  0  0  0  0  0  0
   10.0267  -17.2183   28.8350 C   0  0  0  0  0  0  0  0  0  0  0  0
   10.6626  -17.9735   29.8446 O   0  0  0  0  0  0  0  0  0  0  0  0
    8.9441  -17.6499   28.4602 O   0  0  0  0  0  0  0  0  0  0  0  0
  2  1  1  6
  3  2  1  0
  4  5  2  0
  4  3  1  0
  6  5  1  0
  7  8  2  0
  7  6  1  0
  8  4  1  0
  9 16  1  0
  9  2  1  0
 10  9  2  0
 12 11  1  0
 13 15  1  0
 13 12  1  0
 13 14  1  1
 15 16  1  6
 17 15  1  0
 18 17  2  0
 19 17  1  0
 19 20  1  0
 21 20  1  0
 22 23  1  0
 22 21  1  0
 23 24  1  1
 23 19  1  0
 24 25  1  0
 26 24  2  0
M  END
$$$$
