HIP.pdb
     RDKit          3D

 26 27  0  0  1  0  0  0  0  0999 V2000
    9.7108  -15.4289   20.7333 N   0  0  0  0  0  0  0  0  0  0  0  0
    9.1892  -16.2808   21.7780 C   0  0  1  0  0  0  0  0  0  0  0  0
   10.0107  -17.5313   21.9606 C   0  0  0  0  0  0  0  0  0  0  0  0
    9.8330  -18.5042   20.8669 C   0  0  0  0  0  0  0  0  0  0  0  0
    9.0516  -19.6196   20.7641 C   0  0  0  0  0  0  0  0  0  0  0  0
    9.2244  -20.1956   19.5626 N   0  0  0  0  0  0  0  0  0  0  0  0
   10.1236  -19.4233   18.9199 C   0  0  0  0  0  0  0  0  0  0  0  0
   10.4959  -18.3998   19.7011 N   0  0  0  0  0  0  0  0  0  0  0  0
    9.2703  -15.5354   23.0557 C   0  0  0  0  0  0  0  0  0  0  0  0
   10.3349  -14.9298   23.3180 O   0  0  0  0  0  0  0  0  0  0  0  0
    5.8877  -11.9541   25.4537 C   0  0  0  0  0  0  0  0  0  0  0  0
    6.6288  -13.0536   24.7216 C   0  0  0  0  0  0  0  0  0  0  0  0
    7.1031  -14.1228   25.6452 C   0  0  2  0  0  0  0  0  0  0  0  0
    6.9897  -13.6830   27.0614 C   0  0  0  0  0  0  0  0  0  0  0  0
    8.4352  -14.7176   25.2317 C   0  0  2  0  0  0  0  0  0  0  0  0
    8.2111  -15.4735   23.9897 N   0  0  0  0  0  0  0  0  0  0  0  0
    8.9323  -15.6326   26.3108 C   0  0  0  0  0  0  0  0  0  0  0  0
    8.2499  -16.6814   26.4166 O   0  0  0  0  0  0  0  0  0  0  0  0
   10.0499  -15.3616   27.1248 N   0  0  0  0  0  0  0  0  0  0  0  0
   11.0382  -14.2771   26.8891 C   0  0  0  0  0  0  0  0  0  0  0  0
   11.1654  -13.6424   28.2312 C   0  0  0  0  0  0  0  0  0  0  0  0
   10.6880  -14.7030   29.1981 C   0  0  0  0  0  0  0  0  0  0  0  0
   10.5706  -15.9666   28.3003 C   0  0  1  0  0  0  0  0  0  0  0  0
    9.8709  -17.0108   28.9870 C   0  0  0  0  0  0  0  0  0  0  0  0
   10.6226  -18.0361   29.6015 O   0  0  0  0  0  0  0  0  0  0  0  0
    8.6560  -17.1108   29.1004 O   0  0  0  0  0  0  0  0  0  0  0  0
  2  1  1  6
  3  2  1  0
  4  5  2  0
  4  3  1  0
  6  5  1  0
  7  8  2  0
  7  6  1  0
  8  4  1  0
  9 16  1  0
  9  2  1  0
 10  9  2  0
 12 11  1  0
 13 15  1  0
 13 12  1  0
 13 14  1  1
 15 16  1  6
 17 15  1  0
 18 17  2  0
 19 17  1  0
 19 20  1  0
 21 20  1  0
 22 23  1  0
 22 21  1  0
 23 24  1  1
 23 19  1  0
 24 25  1  0
 26 24  2  0
M  END
$$$$
