HIP.pdb
     RDKit          3D

 26 27  0  0  1  0  0  0  0  0999 V2000
   12.5122  -17.3051   21.5017 N   0  0  0  0  0  0  0  0  0  0  0  0
   11.1479  -17.5864   21.8873 C   0  0  1  0  0  0  0  0  0  0  0  0
   11.0656  -18.5804   23.0173 C   0  0  0  0  0  0  0  0  0  0  0  0
   11.2265  -19.9767   22.5714 C   0  0  0  0  0  0  0  0  0  0  0  0
   10.9470  -20.5862   21.3816 C   0  0  0  0  0  0  0  0  0  0  0  0
   11.2657  -21.8899   21.4443 N   0  0  0  0  0  0  0  0  0  0  0  0
   11.7471  -22.0827   22.6889 C   0  0  0  0  0  0  0  0  0  0  0  0
   11.7267  -20.9319   23.3757 N   0  0  0  0  0  0  0  0  0  0  0  0
   10.5489  -16.3284   22.3909 C   0  0  0  0  0  0  0  0  0  0  0  0
   11.2487  -15.5965   23.1281 O   0  0  0  0  0  0  0  0  0  0  0  0
    7.5025  -13.0530   19.4800 C   0  0  0  0  0  0  0  0  0  0  0  0
    8.4769  -13.5915   20.5070 C   0  0  0  0  0  0  0  0  0  0  0  0
    7.7938  -14.0120   21.7631 C   0  0  2  0  0  0  0  0  0  0  0  0
    6.9681  -12.9023   22.3097 C   0  0  0  0  0  0  0  0  0  0  0  0
    8.7229  -14.7026   22.7424 C   0  0  2  0  0  0  0  0  0  0  0  0
    9.2330  -15.9144   22.0826 N   0  0  0  0  0  0  0  0  0  0  0  0
    7.9622  -15.0702   23.9812 C   0  0  0  0  0  0  0  0  0  0  0  0
    7.2093  -16.0620   23.8176 O   0  0  0  0  0  0  0  0  0  0  0  0
    8.0737  -14.3887   25.2094 N   0  0  0  0  0  0  0  0  0  0  0  0
    9.0354  -13.2927   25.4962 C   0  0  0  0  0  0  0  0  0  0  0  0
    8.1810  -12.2590   26.1456 C   0  0  0  0  0  0  0  0  0  0  0  0
    6.9794  -13.0251   26.6523 C   0  0  0  0  0  0  0  0  0  0  0  0
    7.4024  -14.5080   26.4560 C   0  0  1  0  0  0  0  0  0  0  0  0
    6.2802  -15.3807   26.6303 C   0  0  0  0  0  0  0  0  0  0  0  0
    6.1771  -16.1160   27.8314 O   0  0  0  0  0  0  0  0  0  0  0  0
    5.3757  -15.5613   25.8251 O   0  0  0  0  0  0  0  0  0  0  0  0
  2  1  1  1
  3  2  1  0
  4  5  2  0
  4  3  1  0
  6  5  1  0
  7  8  2  0
  7  6  1  0
  8  4  1  0
  9 16  1  0
  9  2  1  0
 10  9  2  0
 12 11  1  0
 13 15  1  0
 13 12  1  0
 13 14  1  1
 15 16  1  6
 17 15  1  0
 18 17  2  0
 19 17  1  0
 19 20  1  0
 21 20  1  0
 22 23  1  0
 22 21  1  0
 23 24  1  6
 23 19  1  0
 24 25  1  0
 26 24  2  0
M  END
$$$$
