HIP.pdb
     RDKit          3D

 26 27  0  0  1  0  0  0  0  0999 V2000
    9.5133  -15.6549   20.7064 N   0  0  0  0  0  0  0  0  0  0  0  0
    8.7193  -16.1928   21.7878 C   0  0  1  0  0  0  0  0  0  0  0  0
    9.0909  -17.6156   22.1183 C   0  0  0  0  0  0  0  0  0  0  0  0
    8.6484  -18.5808   21.0951 C   0  0  0  0  0  0  0  0  0  0  0  0
    8.0664  -18.4028   19.8725 C   0  0  0  0  0  0  0  0  0  0  0  0
    7.8405  -19.5926   19.2907 N   0  0  0  0  0  0  0  0  0  0  0  0
    8.2898  -20.5127   20.1679 C   0  0  0  0  0  0  0  0  0  0  0  0
    8.7793  -19.9094   21.2602 N   0  0  0  0  0  0  0  0  0  0  0  0
    9.0026  -15.3925   23.0020 C   0  0  0  0  0  0  0  0  0  0  0  0
   10.1543  -14.9203   23.1409 O   0  0  0  0  0  0  0  0  0  0  0  0
    5.4640  -12.1098   25.4353 C   0  0  0  0  0  0  0  0  0  0  0  0
    6.7351  -12.7287   24.8920 C   0  0  0  0  0  0  0  0  0  0  0  0
    7.3118  -13.7379   25.8249 C   0  0  2  0  0  0  0  0  0  0  0  0
    7.5013  -13.1542   27.1796 C   0  0  0  0  0  0  0  0  0  0  0  0
    8.4998  -14.4771   25.2403 C   0  0  2  0  0  0  0  0  0  0  0  0
    8.0425  -15.1362   24.0073 N   0  0  0  0  0  0  0  0  0  0  0  0
    8.9867  -15.4999   26.2229 C   0  0  0  0  0  0  0  0  0  0  0  0
    8.2518  -16.5168   26.2762 O   0  0  0  0  0  0  0  0  0  0  0  0
   10.1482  -15.3535   27.0068 N   0  0  0  0  0  0  0  0  0  0  0  0
   11.1422  -14.2574   26.8686 C   0  0  0  0  0  0  0  0  0  0  0  0
   11.3474  -13.8120   28.2756 C   0  0  0  0  0  0  0  0  0  0  0  0
   10.9008  -14.9890   29.1140 C   0  0  0  0  0  0  0  0  0  0  0  0
   10.7167  -16.1178   28.0612 C   0  0  1  0  0  0  0  0  0  0  0  0
   10.0343  -17.2382   28.6361 C   0  0  0  0  0  0  0  0  0  0  0  0
    8.6232  -17.2167   28.6844 O   0  0  0  0  0  0  0  0  0  0  0  0
   10.5601  -18.2403   29.1031 O   0  0  0  0  0  0  0  0  0  0  0  0
  2  1  1  6
  3  2  1  0
  4  5  2  0
  4  3  1  0
  6  5  1  0
  7  8  2  0
  7  6  1  0
  8  4  1  0
  9 16  1  0
  9  2  1  0
 10  9  2  0
 12 11  1  0
 13 15  1  0
 13 12  1  0
 13 14  1  1
 15 16  1  6
 17 15  1  0
 18 17  2  0
 19 17  1  0
 19 20  1  0
 21 20  1  0
 22 23  1  0
 22 21  1  0
 23 24  1  1
 23 19  1  0
 24 25  1  0
 26 24  2  0
M  END
$$$$
