HIP.pdb
     RDKit          3D

 26 27  0  0  1  0  0  0  0  0999 V2000
    9.9973  -15.4519   20.7849 N   0  0  0  0  0  0  0  0  0  0  0  0
    9.0033  -15.9546   21.7061 C   0  0  1  0  0  0  0  0  0  0  0  0
    9.1132  -17.4439   21.9103 C   0  0  0  0  0  0  0  0  0  0  0  0
    8.6479  -18.2224   20.7476 C   0  0  0  0  0  0  0  0  0  0  0  0
    7.4054  -18.6622   20.3898 C   0  0  0  0  0  0  0  0  0  0  0  0
    7.4712  -19.3409   19.2321 N   0  0  0  0  0  0  0  0  0  0  0  0
    8.7712  -19.3171   18.8751 C   0  0  0  0  0  0  0  0  0  0  0  0
    9.4882  -18.6434   19.7853 N   0  0  0  0  0  0  0  0  0  0  0  0
    9.2503  -15.3307   23.0269 C   0  0  0  0  0  0  0  0  0  0  0  0
   10.4219  -14.9868   23.3062 O   0  0  0  0  0  0  0  0  0  0  0  0
    5.6164  -12.0630   25.3686 C   0  0  0  0  0  0  0  0  0  0  0  0
    6.9256  -12.6614   24.8976 C   0  0  0  0  0  0  0  0  0  0  0  0
    7.3971  -13.7560   25.7924 C   0  0  2  0  0  0  0  0  0  0  0  0
    7.4742  -13.2871   27.2017 C   0  0  0  0  0  0  0  0  0  0  0  0
    8.6193  -14.4765   25.2569 C   0  0  2  0  0  0  0  0  0  0  0  0
    8.2347  -15.1052   23.9838 N   0  0  0  0  0  0  0  0  0  0  0  0
    9.0547  -15.5227   26.2389 C   0  0  0  0  0  0  0  0  0  0  0  0
    8.3108  -16.5345   26.2390 O   0  0  0  0  0  0  0  0  0  0  0  0
   10.1814  -15.4014   27.0763 N   0  0  0  0  0  0  0  0  0  0  0  0
   11.2110  -14.3344   26.9773 C   0  0  0  0  0  0  0  0  0  0  0  0
   11.3616  -13.8824   28.3891 C   0  0  0  0  0  0  0  0  0  0  0  0
   10.8429  -15.0391   29.2141 C   0  0  0  0  0  0  0  0  0  0  0  0
   10.6775  -16.1718   28.1624 C   0  0  1  0  0  0  0  0  0  0  0  0
    9.9375  -17.2677   28.7125 C   0  0  0  0  0  0  0  0  0  0  0  0
   10.6225  -18.2141   29.5056 O   0  0  0  0  0  0  0  0  0  0  0  0
    8.7403  -17.4762   28.5635 O   0  0  0  0  0  0  0  0  0  0  0  0
  2  1  1  6
  3  2  1  0
  4  5  2  0
  4  3  1  0
  6  5  1  0
  7  8  2  0
  7  6  1  0
  8  4  1  0
  9 16  1  0
  9  2  1  0
 10  9  2  0
 12 11  1  0
 13 15  1  0
 13 12  1  0
 13 14  1  1
 15 16  1  6
 17 15  1  0
 18 17  2  0
 19 17  1  0
 19 20  1  0
 21 20  1  0
 22 23  1  0
 22 21  1  0
 23 24  1  1
 23 19  1  0
 24 25  1  0
 26 24  2  0
M  END
$$$$
