HIP.pdb
     RDKit          3D

 26 27  0  0  1  0  0  0  0  0999 V2000
    9.6849  -15.9186   20.8865 N   0  0  0  0  0  0  0  0  0  0  0  0
    8.8398  -16.4346   21.9395 C   0  0  1  0  0  0  0  0  0  0  0  0
    9.1978  -17.8483   22.3201 C   0  0  0  0  0  0  0  0  0  0  0  0
    8.7738  -18.8419   21.3163 C   0  0  0  0  0  0  0  0  0  0  0  0
    8.2360  -18.6977   20.0692 C   0  0  0  0  0  0  0  0  0  0  0  0
    8.0100  -19.9036   19.5214 N   0  0  0  0  0  0  0  0  0  0  0  0
    8.4146  -20.7992   20.4446 C   0  0  0  0  0  0  0  0  0  0  0  0
    8.8771  -20.1657   21.5314 N   0  0  0  0  0  0  0  0  0  0  0  0
    9.0611  -15.6061   23.1476 C   0  0  0  0  0  0  0  0  0  0  0  0
   10.2002  -15.1165   23.3256 O   0  0  0  0  0  0  0  0  0  0  0  0
    5.2527  -12.4473   25.3321 C   0  0  0  0  0  0  0  0  0  0  0  0
    6.5801  -12.9964   24.8519 C   0  0  0  0  0  0  0  0  0  0  0  0
    7.2000  -13.9172   25.8465 C   0  0  2  0  0  0  0  0  0  0  0  0
    7.3266  -13.2527   27.1710 C   0  0  0  0  0  0  0  0  0  0  0  0
    8.4426  -14.6098   25.3215 C   0  0  2  0  0  0  0  0  0  0  0  0
    8.0558  -15.3416   24.1054 N   0  0  0  0  0  0  0  0  0  0  0  0
    8.9597  -15.5640   26.3562 C   0  0  0  0  0  0  0  0  0  0  0  0
    8.2774  -16.6151   26.4378 O   0  0  0  0  0  0  0  0  0  0  0  0
   10.0943  -15.3243   27.1565 N   0  0  0  0  0  0  0  0  0  0  0  0
   11.0217  -14.1731   27.0045 C   0  0  0  0  0  0  0  0  0  0  0  0
   11.1713  -13.6768   28.4015 C   0  0  0  0  0  0  0  0  0  0  0  0
   10.7810  -14.8553   29.2655 C   0  0  0  0  0  0  0  0  0  0  0  0
   10.6874  -16.0223   28.2428 C   0  0  1  0  0  0  0  0  0  0  0  0
   10.0636  -17.1662   28.8375 C   0  0  0  0  0  0  0  0  0  0  0  0
   10.8501  -18.0249   29.6363 O   0  0  0  0  0  0  0  0  0  0  0  0
    8.8876  -17.4870   28.7231 O   0  0  0  0  0  0  0  0  0  0  0  0
  2  1  1  6
  3  2  1  0
  4  5  2  0
  4  3  1  0
  6  5  1  0
  7  8  2  0
  7  6  1  0
  8  4  1  0
  9 16  1  0
  9  2  1  0
 10  9  2  0
 12 11  1  0
 13 15  1  0
 13 12  1  0
 13 14  1  1
 15 16  1  6
 17 15  1  0
 18 17  2  0
 19 17  1  0
 19 20  1  0
 21 20  1  0
 22 23  1  0
 22 21  1  0
 23 24  1  1
 23 19  1  0
 24 25  1  0
 26 24  2  0
M  END
$$$$
