HIP.pdb
     RDKit          3D

 26 27  0  0  1  0  0  0  0  0999 V2000
    7.5011  -15.6817   21.3048 N   0  0  0  0  0  0  0  0  0  0  0  0
    8.9173  -15.4684   21.5001 C   0  0  1  0  0  0  0  0  0  0  0  0
    9.4831  -14.4601   20.5331 C   0  0  0  0  0  0  0  0  0  0  0  0
    8.7303  -14.3881   19.2672 C   0  0  0  0  0  0  0  0  0  0  0  0
    7.9242  -13.4166   18.7460 C   0  0  0  0  0  0  0  0  0  0  0  0
    7.4513  -13.8018   17.5489 N   0  0  0  0  0  0  0  0  0  0  0  0
    7.9742  -15.0258   17.3328 C   0  0  0  0  0  0  0  0  0  0  0  0
    8.7478  -15.3867   18.3661 N   0  0  0  0  0  0  0  0  0  0  0  0
    9.1094  -14.9029   22.8559 C   0  0  0  0  0  0  0  0  0  0  0  0
   10.1054  -14.1693   23.0525 O   0  0  0  0  0  0  0  0  0  0  0  0
    5.4802  -12.3090   25.5436 C   0  0  0  0  0  0  0  0  0  0  0  0
    6.7879  -12.8465   25.0004 C   0  0  0  0  0  0  0  0  0  0  0  0
    7.3196  -13.9688   25.8245 C   0  0  2  0  0  0  0  0  0  0  0  0
    7.3720  -13.5876   27.2611 C   0  0  0  0  0  0  0  0  0  0  0  0
    8.5789  -14.5854   25.2473 C   0  0  2  0  0  0  0  0  0  0  0  0
    8.2290  -15.1486   23.9341 N   0  0  0  0  0  0  0  0  0  0  0  0
    9.0703  -15.6691   26.1599 C   0  0  0  0  0  0  0  0  0  0  0  0
    8.4049  -16.7298   26.0635 O   0  0  0  0  0  0  0  0  0  0  0  0
   10.1658  -15.5300   27.0349 N   0  0  0  0  0  0  0  0  0  0  0  0
   11.1381  -14.4062   27.0177 C   0  0  0  0  0  0  0  0  0  0  0  0
   11.2260  -14.0175   28.4535 C   0  0  0  0  0  0  0  0  0  0  0  0
   10.7492  -15.2397   29.2062 C   0  0  0  0  0  0  0  0  0  0  0  0
   10.6739  -16.3259   28.0967 C   0  0  1  0  0  0  0  0  0  0  0  0
    9.9802  -17.4855   28.5714 C   0  0  0  0  0  0  0  0  0  0  0  0
   10.7319  -18.5331   29.1471 O   0  0  0  0  0  0  0  0  0  0  0  0
    8.7705  -17.6694   28.5293 O   0  0  0  0  0  0  0  0  0  0  0  0
  2  1  1  6
  3  2  1  0
  4  5  2  0
  4  3  1  0
  6  5  1  0
  7  8  2  0
  7  6  1  0
  8  4  1  0
  9 16  1  0
  9  2  1  0
 10  9  2  0
 12 11  1  0
 13 15  1  0
 13 12  1  0
 13 14  1  1
 15 16  1  6
 17 15  1  0
 18 17  2  0
 19 17  1  0
 19 20  1  0
 21 20  1  0
 22 23  1  0
 22 21  1  0
 23 24  1  1
 23 19  1  0
 24 25  1  0
 26 24  2  0
M  END
$$$$
