HIP.pdb
     RDKit          3D

 26 27  0  0  1  0  0  0  0  0999 V2000
   12.0482  -17.5806   18.6373 N   0  0  0  0  0  0  0  0  0  0  0  0
   10.7006  -17.9461   19.0111 C   0  0  1  0  0  0  0  0  0  0  0  0
   10.6140  -19.3576   19.5327 C   0  0  0  0  0  0  0  0  0  0  0  0
   10.6145  -20.3705   18.4611 C   0  0  0  0  0  0  0  0  0  0  0  0
    9.6753  -20.7019   17.5265 C   0  0  0  0  0  0  0  0  0  0  0  0
   10.1280  -21.7010   16.7507 N   0  0  0  0  0  0  0  0  0  0  0  0
   11.3612  -21.9864   17.2155 C   0  0  0  0  0  0  0  0  0  0  0  0
   11.6621  -21.1871   18.2484 N   0  0  0  0  0  0  0  0  0  0  0  0
   10.2811  -17.0615   20.1230 C   0  0  0  0  0  0  0  0  0  0  0  0
   11.1325  -16.7635   20.9920 O   0  0  0  0  0  0  0  0  0  0  0  0
    7.2308  -12.7478   19.2402 C   0  0  0  0  0  0  0  0  0  0  0  0
    8.2679  -13.7094   19.7824 C   0  0  0  0  0  0  0  0  0  0  0  0
    7.7184  -14.5784   20.8614 C   0  0  2  0  0  0  0  0  0  0  0  0
    7.0402  -13.7600   21.9017 C   0  0  0  0  0  0  0  0  0  0  0  0
    8.7140  -15.6076   21.3604 C   0  0  2  0  0  0  0  0  0  0  0  0
    8.9740  -16.5392   20.2520 N   0  0  0  0  0  0  0  0  0  0  0  0
    8.1302  -16.3445   22.5286 C   0  0  0  0  0  0  0  0  0  0  0  0
    7.0855  -16.9772   22.2363 O   0  0  0  0  0  0  0  0  0  0  0  0
    8.6865  -16.3426   23.8231 N   0  0  0  0  0  0  0  0  0  0  0  0
   10.0270  -15.8083   24.1782 C   0  0  0  0  0  0  0  0  0  0  0  0
    9.7480  -14.9781   25.3836 C   0  0  0  0  0  0  0  0  0  0  0  0
    8.4407  -15.5173   25.9202 C   0  0  0  0  0  0  0  0  0  0  0  0
    8.2265  -16.8099   25.0836 C   0  0  1  0  0  0  0  0  0  0  0  0
    6.8982  -17.3142   25.2644 C   0  0  0  0  0  0  0  0  0  0  0  0
    6.6866  -18.3305   26.2216 O   0  0  0  0  0  0  0  0  0  0  0  0
    5.8991  -16.9467   24.6596 O   0  0  0  0  0  0  0  0  0  0  0  0
  2  1  1  1
  3  2  1  0
  4  5  2  0
  4  3  1  0
  6  5  1  0
  7  8  2  0
  7  6  1  0
  8  4  1  0
  9 16  1  0
  9  2  1  0
 10  9  2  0
 12 11  1  0
 13 15  1  0
 13 12  1  0
 13 14  1  1
 15 16  1  6
 17 15  1  0
 18 17  2  0
 19 17  1  0
 19 20  1  0
 21 20  1  0
 22 23  1  0
 22 21  1  0
 23 24  1  6
 23 19  1  0
 24 25  1  0
 26 24  2  0
M  END
$$$$
