HIP.pdb
     RDKit          3D

 26 27  0  0  1  0  0  0  0  0999 V2000
    9.8985  -15.7036   20.8829 N   0  0  0  0  0  0  0  0  0  0  0  0
    8.9922  -16.2528   21.8660 C   0  0  1  0  0  0  0  0  0  0  0  0
    9.2594  -17.7108   22.1397 C   0  0  0  0  0  0  0  0  0  0  0  0
    8.8579  -18.5906   21.0265 C   0  0  0  0  0  0  0  0  0  0  0  0
    9.4680  -18.8891   19.8417 C   0  0  0  0  0  0  0  0  0  0  0  0
    8.7150  -19.7518   19.1388 N   0  0  0  0  0  0  0  0  0  0  0  0
    7.6287  -19.9856   19.9026 C   0  0  0  0  0  0  0  0  0  0  0  0
    7.7077  -19.2879   21.0442 N   0  0  0  0  0  0  0  0  0  0  0  0
    9.2192  -15.5378   23.1435 C   0  0  0  0  0  0  0  0  0  0  0  0
   10.3746  -15.1208   23.3881 O   0  0  0  0  0  0  0  0  0  0  0  0
    5.4255  -12.3565   25.3221 C   0  0  0  0  0  0  0  0  0  0  0  0
    6.7550  -12.9186   24.8630 C   0  0  0  0  0  0  0  0  0  0  0  0
    7.3182  -13.8959   25.8372 C   0  0  2  0  0  0  0  0  0  0  0  0
    7.4048  -13.2949   27.1948 C   0  0  0  0  0  0  0  0  0  0  0  0
    8.5675  -14.5889   25.3289 C   0  0  2  0  0  0  0  0  0  0  0  0
    8.2016  -15.3036   24.0963 N   0  0  0  0  0  0  0  0  0  0  0  0
    9.0583  -15.5586   26.3620 C   0  0  0  0  0  0  0  0  0  0  0  0
    8.3685  -16.6065   26.4173 O   0  0  0  0  0  0  0  0  0  0  0  0
   10.1781  -15.3354   27.1876 N   0  0  0  0  0  0  0  0  0  0  0  0
   11.1744  -14.2483   27.0037 C   0  0  0  0  0  0  0  0  0  0  0  0
   11.3066  -13.6798   28.3746 C   0  0  0  0  0  0  0  0  0  0  0  0
   10.8214  -14.7820   29.2897 C   0  0  0  0  0  0  0  0  0  0  0  0
   10.6944  -16.0001   28.3324 C   0  0  1  0  0  0  0  0  0  0  0  0
    9.9870  -17.0708   28.9685 C   0  0  0  0  0  0  0  0  0  0  0  0
   10.6829  -17.8885   29.8856 O   0  0  0  0  0  0  0  0  0  0  0  0
    8.8099  -17.3598   28.7960 O   0  0  0  0  0  0  0  0  0  0  0  0
  2  1  1  6
  3  2  1  0
  4  5  2  0
  4  3  1  0
  6  5  1  0
  7  8  2  0
  7  6  1  0
  8  4  1  0
  9 16  1  0
  9  2  1  0
 10  9  2  0
 12 11  1  0
 13 15  1  0
 13 12  1  0
 13 14  1  1
 15 16  1  6
 17 15  1  0
 18 17  2  0
 19 17  1  0
 19 20  1  0
 21 20  1  0
 22 23  1  0
 22 21  1  0
 23 24  1  1
 23 19  1  0
 24 25  1  0
 26 24  2  0
M  END
$$$$
