QMY.pdb
     RDKit          3D

 30 30  0  0  1  0  0  0  0  0999 V2000
   10.2684  -17.9514   16.4386 N   0  0  0  0  0  0  0  0  0  0  0  0
    8.8400  -17.9233   16.2694 C   0  0  0  0  0  0  0  0  0  0  0  0
    8.2700  -18.5197   15.3436 O   0  0  0  0  0  0  0  0  0  0  0  0
    8.0724  -17.1455   17.2558 C   0  0  0  0  0  0  0  0  0  0  0  0
    9.0261  -16.5520   18.2570 C   0  0  0  0  0  0  0  0  0  0  0  0
    8.8124  -17.0782   19.6565 C   0  0  2  0  0  0  0  0  0  0  0  0
    7.4645  -17.5741   19.7729 N   0  0  0  0  0  0  0  0  0  0  0  0
    9.1343  -16.0520   20.6556 C   0  0  0  0  0  0  0  0  0  0  0  0
   10.1906  -15.3755   20.6253 O   0  0  0  0  0  0  0  0  0  0  0  0
    7.1484  -12.9234   26.4960 C   0  0  0  0  0  0  0  0  0  0  0  0
    6.4247  -12.2900   24.9513 S   0  0  0  0  0  0  0  0  0  0  0  0
    7.4289  -12.9449   23.5786 C   0  0  0  0  0  0  0  0  0  0  0  0
    7.3857  -14.4326   23.5184 C   0  0  0  0  0  0  0  0  0  0  0  0
    8.6284  -14.9474   22.8371 C   0  0  2  0  0  0  0  0  0  0  0  0
    8.2327  -15.7806   21.7256 N   0  0  0  0  0  0  0  0  0  0  0  0
    9.3846  -15.7640   23.8188 C   0  0  0  0  0  0  0  0  0  0  0  0
    8.8236  -16.7347   24.4257 O   0  0  0  0  0  0  0  0  0  0  0  0
   11.2738  -15.9945   31.7729 O   0  0  0  0  0  0  0  0  0  0  0  0
   10.9873  -15.7971   30.4124 C   0  0  0  0  0  0  0  0  0  0  0  0
   10.5249  -16.8396   29.6345 C   0  0  0  0  0  0  0  0  0  0  0  0
   10.2556  -16.6026   28.3017 C   0  0  0  0  0  0  0  0  0  0  0  0
   10.4539  -15.3240   27.7695 C   0  0  0  0  0  0  0  0  0  0  0  0
   10.1548  -15.1250   26.3561 C   0  0  0  0  0  0  0  0  0  0  0  0
   11.2415  -15.6135   25.4299 C   0  0  2  0  0  0  0  0  0  0  0  0
   10.7478  -15.4587   24.0832 N   0  0  0  0  0  0  0  0  0  0  0  0
   11.6488  -16.9931   25.6939 C   0  0  0  0  0  0  0  0  0  0  0  0
   10.8093  -18.0541   25.4578 O   0  0  0  0  0  0  0  0  0  0  0  0
   10.9143  -14.2799   28.5374 C   0  0  0  0  0  0  0  0  0  0  0  0
   11.1785  -14.5340   29.8673 C   0  0  0  0  0  0  0  0  0  0  0  0
   12.7979  -17.2142   26.1490 O   0  0  0  0  0  0  0  0  0  0  0  0
  2  4  1  0
  2  1  1  0
  3  2  2  0
  5  6  1  0
  5  4  1  0
  6  7  1  6
  8 15  1  0
  8  6  1  0
  9  8  2  0
 10 11  1  0
 11 12  1  0
 12 13  1  0
 14 15  1  0
 14 13  1  1
 16 14  1  0
 17 16  2  0
 18 19  1  0
 19 20  2  0
 19 29  1  0
 20 21  1  0
 21 22  2  0
 22 23  1  0
 24 23  1  1
 24 25  1  0
 25 16  1  0
 26 27  1  0
 26 24  1  0
 28 22  1  0
 29 28  2  0
 30 26  2  0
M  END
$$$$
