QMY.pdb
     RDKit          3D

 30 30  0  0  1  0  0  0  0  0999 V2000
   10.1902  -18.5343   17.4035 N   0  0  0  0  0  0  0  0  0  0  0  0
    8.8288  -18.1146   17.6040 C   0  0  0  0  0  0  0  0  0  0  0  0
    8.1081  -17.7328   16.6699 O   0  0  0  0  0  0  0  0  0  0  0  0
    8.3199  -18.1580   18.9848 C   0  0  0  0  0  0  0  0  0  0  0  0
    9.0994  -17.1806   19.8222 C   0  0  0  0  0  0  0  0  0  0  0  0
    8.8458  -17.3410   21.3024 C   0  0  2  0  0  0  0  0  0  0  0  0
    7.5083  -17.8393   21.5002 N   0  0  0  0  0  0  0  0  0  0  0  0
    9.1008  -16.0836   22.0157 C   0  0  0  0  0  0  0  0  0  0  0  0
   10.1947  -15.4722   21.9543 O   0  0  0  0  0  0  0  0  0  0  0  0
    5.3945  -10.6080   25.7967 C   0  0  0  0  0  0  0  0  0  0  0  0
    5.8951  -12.3103   26.1996 S   0  0  0  0  0  0  0  0  0  0  0  0
    7.3347  -12.7092   25.1555 C   0  0  0  0  0  0  0  0  0  0  0  0
    7.0643  -13.8627   24.2527 C   0  0  0  0  0  0  0  0  0  0  0  0
    8.3489  -14.3050   23.5987 C   0  0  2  0  0  0  0  0  0  0  0  0
    8.0858  -15.4966   22.8261 N   0  0  0  0  0  0  0  0  0  0  0  0
    9.3247  -14.6202   24.6716 C   0  0  0  0  0  0  0  0  0  0  0  0
    9.5944  -13.7639   25.5767 O   0  0  0  0  0  0  0  0  0  0  0  0
   12.6228  -17.5744   31.7524 O   0  0  0  0  0  0  0  0  0  0  0  0
   11.9621  -17.1834   30.5765 C   0  0  0  0  0  0  0  0  0  0  0  0
   11.9708  -15.8633   30.1730 C   0  0  0  0  0  0  0  0  0  0  0  0
   11.3090  -15.5216   29.0109 C   0  0  0  0  0  0  0  0  0  0  0  0
   10.6487  -16.5089   28.2715 C   0  0  0  0  0  0  0  0  0  0  0  0
    9.9643  -16.0969   27.0514 C   0  0  0  0  0  0  0  0  0  0  0  0
   10.8097  -16.2234   25.8077 C   0  0  2  0  0  0  0  0  0  0  0  0
    9.9634  -15.8903   24.6879 N   0  0  0  0  0  0  0  0  0  0  0  0
   11.4087  -17.5481   25.6487 C   0  0  0  0  0  0  0  0  0  0  0  0
   10.9663  -18.4336   24.6966 O   0  0  0  0  0  0  0  0  0  0  0  0
   10.6351  -17.8263   28.6664 C   0  0  0  0  0  0  0  0  0  0  0  0
   11.3014  -18.1504   29.8300 C   0  0  0  0  0  0  0  0  0  0  0  0
   12.3538  -17.8856   26.4031 O   0  0  0  0  0  0  0  0  0  0  0  0
  2  4  1  0
  2  1  1  0
  3  2  2  0
  5  6  1  0
  5  4  1  0
  6  7  1  6
  8 15  1  0
  8  6  1  0
  9  8  2  0
 10 11  1  0
 11 12  1  0
 12 13  1  0
 14 15  1  0
 14 13  1  1
 16 14  1  0
 17 16  2  0
 18 19  1  0
 19 20  2  0
 19 29  1  0
 20 21  1  0
 21 22  2  0
 22 23  1  0
 24 23  1  1
 24 25  1  0
 25 16  1  0
 26 27  1  0
 26 24  1  0
 28 22  1  0
 29 28  2  0
 30 26  2  0
M  END
$$$$
