QMY.pdb
     RDKit          3D

 30 30  0  0  1  0  0  0  0  0999 V2000
    9.6936  -15.9313   15.3091 N   0  0  0  0  0  0  0  0  0  0  0  0
    8.2661  -16.0135   15.4674 C   0  0  0  0  0  0  0  0  0  0  0  0
    7.4801  -15.7463   14.5462 O   0  0  0  0  0  0  0  0  0  0  0  0
    7.7703  -16.4342   16.7882 C   0  0  0  0  0  0  0  0  0  0  0  0
    8.9365  -16.5495   17.7321 C   0  0  0  0  0  0  0  0  0  0  0  0
    8.5352  -17.0284   19.1072 C   0  0  2  0  0  0  0  0  0  0  0  0
    7.1017  -16.9536   19.2325 N   0  0  0  0  0  0  0  0  0  0  0  0
    9.2423  -16.2752   20.1500 C   0  0  0  0  0  0  0  0  0  0  0  0
   10.4896  -16.1415   20.1704 O   0  0  0  0  0  0  0  0  0  0  0  0
    6.5696  -12.6358   24.9804 C   0  0  0  0  0  0  0  0  0  0  0  0
    6.0578  -12.5403   23.2369 S   0  0  0  0  0  0  0  0  0  0  0  0
    7.2588  -13.5118   22.2697 C   0  0  0  0  0  0  0  0  0  0  0  0
    8.1854  -14.2817   23.1457 C   0  0  0  0  0  0  0  0  0  0  0  0
    9.2032  -15.0009   22.2970 C   0  0  2  0  0  0  0  0  0  0  0  0
    8.5159  -15.6516   21.2060 N   0  0  0  0  0  0  0  0  0  0  0  0
    9.8637  -16.0258   23.1430 C   0  0  0  0  0  0  0  0  0  0  0  0
   11.1181  -16.2341   23.0511 O   0  0  0  0  0  0  0  0  0  0  0  0
   11.3743  -15.6042   31.3395 O   0  0  0  0  0  0  0  0  0  0  0  0
   11.0220  -15.6156   29.9802 C   0  0  0  0  0  0  0  0  0  0  0  0
   11.5093  -16.5945   29.1376 C   0  0  0  0  0  0  0  0  0  0  0  0
   11.1383  -16.5691   27.8084 C   0  0  0  0  0  0  0  0  0  0  0  0
   10.2844  -15.5626   27.3446 C   0  0  0  0  0  0  0  0  0  0  0  0
    9.9221  -15.5796   25.9321 C   0  0  0  0  0  0  0  0  0  0  0  0
    9.5850  -16.9538   25.4074 C   0  0  2  0  0  0  0  0  0  0  0  0
    9.0878  -16.7812   24.0642 N   0  0  0  0  0  0  0  0  0  0  0  0
    8.6243  -17.6722   26.2440 C   0  0  0  0  0  0  0  0  0  0  0  0
    7.2794  -17.3968   26.2025 O   0  0  0  0  0  0  0  0  0  0  0  0
    9.7944  -14.5836   28.1772 C   0  0  0  0  0  0  0  0  0  0  0  0
   10.1752  -14.6239   29.5025 C   0  0  0  0  0  0  0  0  0  0  0  0
    9.0401  -18.5657   27.0220 O   0  0  0  0  0  0  0  0  0  0  0  0
  2  4  1  0
  2  1  1  0
  3  2  2  0
  5  6  1  0
  5  4  1  0
  6  7  1  1
  8 15  1  0
  8  6  1  0
  9  8  2  0
 10 11  1  0
 11 12  1  0
 12 13  1  0
 14 15  1  0
 14 13  1  1
 16 14  1  0
 17 16  2  0
 18 19  1  0
 19 20  2  0
 19 29  1  0
 20 21  1  0
 21 22  2  0
 22 23  1  0
 24 23  1  1
 24 25  1  0
 25 16  1  0
 26 27  1  0
 26 24  1  0
 28 22  1  0
 29 28  2  0
 30 26  2  0
M  END
$$$$
