QMY.pdb
     RDKit          3D

 30 30  0  0  1  0  0  0  0  0999 V2000
    8.2811  -12.4639   17.8633 N   0  0  0  0  0  0  0  0  0  0  0  0
    7.4462  -13.4245   17.1925 C   0  0  0  0  0  0  0  0  0  0  0  0
    6.4061  -13.1002   16.6003 O   0  0  0  0  0  0  0  0  0  0  0  0
    7.8848  -14.8290   17.2394 C   0  0  0  0  0  0  0  0  0  0  0  0
    9.1396  -14.9201   18.0650 C   0  0  0  0  0  0  0  0  0  0  0  0
    9.0744  -16.0020   19.1168 C   0  0  2  0  0  0  0  0  0  0  0  0
    7.7306  -16.5184   19.1790 N   0  0  0  0  0  0  0  0  0  0  0  0
    9.5577  -15.5034   20.4102 C   0  0  0  0  0  0  0  0  0  0  0  0
   10.7728  -15.3149   20.6596 O   0  0  0  0  0  0  0  0  0  0  0  0
    6.4752  -12.8386   25.8687 C   0  0  0  0  0  0  0  0  0  0  0  0
    6.1765  -12.4413   24.1183 S   0  0  0  0  0  0  0  0  0  0  0  0
    7.5670  -13.1334   23.1647 C   0  0  0  0  0  0  0  0  0  0  0  0
    7.9437  -14.4942   23.6389 C   0  0  0  0  0  0  0  0  0  0  0  0
    9.0933  -15.0167   22.8148 C   0  0  2  0  0  0  0  0  0  0  0  0
    8.6374  -15.2077   21.4576 N   0  0  0  0  0  0  0  0  0  0  0  0
    9.5078  -16.3237   23.3827 C   0  0  0  0  0  0  0  0  0  0  0  0
   10.5873  -16.8846   23.0018 O   0  0  0  0  0  0  0  0  0  0  0  0
   11.5867  -15.8858   31.4363 O   0  0  0  0  0  0  0  0  0  0  0  0
   11.1277  -15.8829   30.1091 C   0  0  0  0  0  0  0  0  0  0  0  0
   11.3853  -16.9527   29.2755 C   0  0  0  0  0  0  0  0  0  0  0  0
   10.9161  -16.9095   27.9782 C   0  0  0  0  0  0  0  0  0  0  0  0
   10.1958  -15.7943   27.5367 C   0  0  0  0  0  0  0  0  0  0  0  0
    9.7218  -15.7970   26.1576 C   0  0  0  0  0  0  0  0  0  0  0  0
    9.2241  -17.1421   25.6883 C   0  0  2  0  0  0  0  0  0  0  0  0
    8.6911  -16.9541   24.3610 N   0  0  0  0  0  0  0  0  0  0  0  0
    8.2309  -17.7351   26.5833 C   0  0  0  0  0  0  0  0  0  0  0  0
    8.5569  -18.7353   27.4662 O   0  0  0  0  0  0  0  0  0  0  0  0
    9.9347  -14.7243   28.3606 C   0  0  0  0  0  0  0  0  0  0  0  0
   10.4109  -14.7839   29.6539 C   0  0  0  0  0  0  0  0  0  0  0  0
    7.0471  -17.3185   26.5437 O   0  0  0  0  0  0  0  0  0  0  0  0
  2  4  1  0
  2  1  1  0
  3  2  2  0
  5  6  1  0
  5  4  1  0
  6  7  1  1
  8 15  1  0
  8  6  1  0
  9  8  2  0
 10 11  1  0
 11 12  1  0
 12 13  1  0
 14 15  1  0
 14 13  1  1
 16 14  1  0
 17 16  2  0
 18 19  1  0
 19 20  2  0
 19 29  1  0
 20 21  1  0
 21 22  2  0
 22 23  1  0
 24 23  1  1
 24 25  1  0
 25 16  1  0
 26 27  1  0
 26 24  1  0
 28 22  1  0
 29 28  2  0
 30 26  2  0
M  END
$$$$
