QMY.pdb
     RDKit          3D

 30 30  0  0  1  0  0  0  0  0999 V2000
    8.3088  -16.9037   15.7570 N   0  0  0  0  0  0  0  0  0  0  0  0
    8.8143  -16.8459   17.1027 C   0  0  0  0  0  0  0  0  0  0  0  0
    9.2184  -17.8528   17.7032 O   0  0  0  0  0  0  0  0  0  0  0  0
    8.8321  -15.5220   17.7462 C   0  0  0  0  0  0  0  0  0  0  0  0
    7.4899  -15.2694   18.3779 C   0  0  0  0  0  0  0  0  0  0  0  0
    7.3934  -13.9111   19.0311 C   0  0  2  0  0  0  0  0  0  0  0  0
    7.8913  -12.9130   18.1188 N   0  0  0  0  0  0  0  0  0  0  0  0
    8.0871  -13.9027   20.3248 C   0  0  0  0  0  0  0  0  0  0  0  0
    9.3022  -13.6153   20.4474 O   0  0  0  0  0  0  0  0  0  0  0  0
    7.4478  -12.2936   27.8372 C   0  0  0  0  0  0  0  0  0  0  0  0
    6.4875  -12.6932   26.3442 S   0  0  0  0  0  0  0  0  0  0  0  0
    7.6554  -13.3652   25.1170 C   0  0  0  0  0  0  0  0  0  0  0  0
    6.9928  -13.6417   23.8119 C   0  0  0  0  0  0  0  0  0  0  0  0
    8.0202  -14.1095   22.8123 C   0  0  2  0  0  0  0  0  0  0  0  0
    7.3845  -14.2301   21.5209 N   0  0  0  0  0  0  0  0  0  0  0  0
    8.5084  -15.4421   23.2462 C   0  0  0  0  0  0  0  0  0  0  0  0
    7.6882  -16.3882   23.4860 O   0  0  0  0  0  0  0  0  0  0  0  0
   10.9761  -16.2545   31.0181 O   0  0  0  0  0  0  0  0  0  0  0  0
   10.6882  -15.9564   29.6763 C   0  0  0  0  0  0  0  0  0  0  0  0
    9.8072  -16.7390   28.9574 C   0  0  0  0  0  0  0  0  0  0  0  0
    9.5521  -16.4110   27.6412 C   0  0  0  0  0  0  0  0  0  0  0  0
   10.1843  -15.3033   27.0662 C   0  0  0  0  0  0  0  0  0  0  0  0
    9.8814  -14.9986   25.6726 C   0  0  0  0  0  0  0  0  0  0  0  0
   10.4126  -16.0204   24.6974 C   0  0  2  0  0  0  0  0  0  0  0  0
    9.9050  -15.6631   23.3952 N   0  0  0  0  0  0  0  0  0  0  0  0
   10.0577  -17.3947   25.0500 C   0  0  0  0  0  0  0  0  0  0  0  0
   11.0132  -18.3391   25.3357 O   0  0  0  0  0  0  0  0  0  0  0  0
   11.0634  -14.5183   27.7753 C   0  0  0  0  0  0  0  0  0  0  0  0
   11.3069  -14.8602   29.0894 C   0  0  0  0  0  0  0  0  0  0  0  0
    8.8460  -17.7208   25.0929 O   0  0  0  0  0  0  0  0  0  0  0  0
  2  4  1  0
  2  1  1  0
  3  2  2  0
  5  6  1  0
  5  4  1  0
  6  7  1  6
  8 15  1  0
  8  6  1  0
  9  8  2  0
 10 11  1  0
 11 12  1  0
 12 13  1  0
 14 15  1  0
 14 13  1  1
 16 14  1  0
 17 16  2  0
 18 19  1  0
 19 20  2  0
 19 29  1  0
 20 21  1  0
 21 22  2  0
 22 23  1  0
 24 23  1  1
 24 25  1  0
 25 16  1  0
 26 27  1  0
 26 24  1  0
 28 22  1  0
 29 28  2  0
 30 26  2  0
M  END
$$$$
