QMY.pdb
     RDKit          3D

 30 30  0  0  1  0  0  0  0  0999 V2000
   12.3425  -17.2033   16.8125 N   0  0  0  0  0  0  0  0  0  0  0  0
   11.0558  -17.3880   16.1957 C   0  0  0  0  0  0  0  0  0  0  0  0
   10.9225  -17.5400   14.9723 O   0  0  0  0  0  0  0  0  0  0  0  0
    9.8873  -17.3889   17.0911 C   0  0  0  0  0  0  0  0  0  0  0  0
   10.3649  -17.3035   18.5155 C   0  0  0  0  0  0  0  0  0  0  0  0
    9.2332  -17.2872   19.5155 C   0  0  2  0  0  0  0  0  0  0  0  0
    7.9974  -17.0195   18.8243 N   0  0  0  0  0  0  0  0  0  0  0  0
    9.5044  -16.3317   20.5964 C   0  0  0  0  0  0  0  0  0  0  0  0
   10.5733  -15.6801   20.6809 O   0  0  0  0  0  0  0  0  0  0  0  0
    6.6258  -11.7502   26.2199 C   0  0  0  0  0  0  0  0  0  0  0  0
    6.1792  -13.0345   25.0107 S   0  0  0  0  0  0  0  0  0  0  0  0
    7.7323  -13.6550   24.2866 C   0  0  0  0  0  0  0  0  0  0  0  0
    7.4837  -14.6508   23.2071 C   0  0  0  0  0  0  0  0  0  0  0  0
    8.7990  -15.1856   22.6996 C   0  0  2  0  0  0  0  0  0  0  0  0
    8.5356  -16.1044   21.6167 N   0  0  0  0  0  0  0  0  0  0  0  0
    9.4580  -15.9134   23.8125 C   0  0  0  0  0  0  0  0  0  0  0  0
    9.1297  -17.1139   24.0883 O   0  0  0  0  0  0  0  0  0  0  0  0
   11.3104  -16.5763   32.1294 O   0  0  0  0  0  0  0  0  0  0  0  0
   11.2357  -16.1093   30.8072 C   0  0  0  0  0  0  0  0  0  0  0  0
   10.8146  -14.8219   30.5408 C   0  0  0  0  0  0  0  0  0  0  0  0
   10.7557  -14.4029   29.2270 C   0  0  0  0  0  0  0  0  0  0  0  0
   11.1200  -15.2811   28.2007 C   0  0  0  0  0  0  0  0  0  0  0  0
   11.0405  -14.7905   26.8296 C   0  0  0  0  0  0  0  0  0  0  0  0
   10.9145  -15.8852   25.7985 C   0  0  2  0  0  0  0  0  0  0  0  0
   10.4651  -15.2631   24.5769 N   0  0  0  0  0  0  0  0  0  0  0  0
   10.0178  -16.9652   26.2088 C   0  0  0  0  0  0  0  0  0  0  0  0
   10.4736  -18.2427   26.4246 O   0  0  0  0  0  0  0  0  0  0  0  0
   11.5407  -16.5652   28.4573 C   0  0  0  0  0  0  0  0  0  0  0  0
   11.5936  -16.9677   29.7757 C   0  0  0  0  0  0  0  0  0  0  0  0
    8.7972  -16.7181   26.3684 O   0  0  0  0  0  0  0  0  0  0  0  0
  2  4  1  0
  2  1  1  0
  3  2  2  0
  5  6  1  0
  5  4  1  0
  6  7  1  6
  8 15  1  0
  8  6  1  0
  9  8  2  0
 10 11  1  0
 11 12  1  0
 12 13  1  0
 14 15  1  0
 14 13  1  1
 16 14  1  0
 17 16  2  0
 18 19  1  0
 19 20  2  0
 19 29  1  0
 20 21  1  0
 21 22  2  0
 22 23  1  0
 24 23  1  1
 24 25  1  0
 25 16  1  0
 26 27  1  0
 26 24  1  0
 28 22  1  0
 29 28  2  0
 30 26  2  0
M  END
$$$$
