QMY.pdb
     RDKit          3D

 30 30  0  0  1  0  0  0  0  0999 V2000
    6.7533  -12.9979   17.2817 N   0  0  0  0  0  0  0  0  0  0  0  0
    8.1023  -13.4506   17.4939 C   0  0  0  0  0  0  0  0  0  0  0  0
    9.0509  -12.6647   17.6362 O   0  0  0  0  0  0  0  0  0  0  0  0
    8.3123  -14.9071   17.5355 C   0  0  0  0  0  0  0  0  0  0  0  0
    9.4688  -15.2066   18.4503 C   0  0  0  0  0  0  0  0  0  0  0  0
    9.0973  -16.1321   19.5846 C   0  0  2  0  0  0  0  0  0  0  0  0
    7.7130  -16.5091   19.4511 N   0  0  0  0  0  0  0  0  0  0  0  0
    9.4017  -15.5170   20.8822 C   0  0  0  0  0  0  0  0  0  0  0  0
   10.5614  -15.1833   21.2256 O   0  0  0  0  0  0  0  0  0  0  0  0
    5.9557  -11.3752   25.6497 C   0  0  0  0  0  0  0  0  0  0  0  0
    6.6173  -13.0676   25.7460 S   0  0  0  0  0  0  0  0  0  0  0  0
    6.8361  -13.6579   24.0357 C   0  0  0  0  0  0  0  0  0  0  0  0
    7.3582  -15.0522   23.9912 C   0  0  0  0  0  0  0  0  0  0  0  0
    8.6568  -15.0817   23.2254 C   0  0  2  0  0  0  0  0  0  0  0  0
    8.3609  -15.2704   21.8243 N   0  0  0  0  0  0  0  0  0  0  0  0
    9.4540  -16.2321   23.7188 C   0  0  0  0  0  0  0  0  0  0  0  0
   10.5965  -16.4937   23.2173 O   0  0  0  0  0  0  0  0  0  0  0  0
   12.1565  -15.3180   31.5839 O   0  0  0  0  0  0  0  0  0  0  0  0
   11.5901  -15.4022   30.3016 C   0  0  0  0  0  0  0  0  0  0  0  0
   10.7711  -14.3964   29.8293 C   0  0  0  0  0  0  0  0  0  0  0  0
   10.2349  -14.5186   28.5633 C   0  0  0  0  0  0  0  0  0  0  0  0
   10.5282  -15.6474   27.7906 C   0  0  0  0  0  0  0  0  0  0  0  0
    9.9372  -15.7293   26.4599 C   0  0  0  0  0  0  0  0  0  0  0  0
    9.6743  -17.1414   25.9972 C   0  0  2  0  0  0  0  0  0  0  0  0
    8.9363  -17.0488   24.7611 N   0  0  0  0  0  0  0  0  0  0  0  0
    8.9611  -17.9499   26.9854 C   0  0  0  0  0  0  0  0  0  0  0  0
    9.6053  -18.8868   27.7559 O   0  0  0  0  0  0  0  0  0  0  0  0
   11.3432  -16.6540   28.2535 C   0  0  0  0  0  0  0  0  0  0  0  0
   11.8706  -16.5159   29.5207 C   0  0  0  0  0  0  0  0  0  0  0  0
    7.7255  -17.7834   27.1339 O   0  0  0  0  0  0  0  0  0  0  0  0
  2  4  1  0
  2  1  1  0
  3  2  2  0
  5  6  1  0
  5  4  1  0
  6  7  1  1
  8 15  1  0
  8  6  1  0
  9  8  2  0
 10 11  1  0
 11 12  1  0
 12 13  1  0
 14 15  1  0
 14 13  1  1
 16 14  1  0
 17 16  2  0
 18 19  1  0
 19 20  2  0
 19 29  1  0
 20 21  1  0
 21 22  2  0
 22 23  1  0
 24 23  1  1
 24 25  1  0
 25 16  1  0
 26 27  1  0
 26 24  1  0
 28 22  1  0
 29 28  2  0
 30 26  2  0
M  END
$$$$
