QMY.pdb
     RDKit          3D

 30 30  0  0  1  0  0  0  0  0999 V2000
   11.2005  -18.5390   18.6639 N   0  0  0  0  0  0  0  0  0  0  0  0
   10.0764  -18.0495   17.9113 C   0  0  0  0  0  0  0  0  0  0  0  0
    9.8098  -18.4627   16.7729 O   0  0  0  0  0  0  0  0  0  0  0  0
    9.2437  -17.0225   18.5588 C   0  0  0  0  0  0  0  0  0  0  0  0
    9.7591  -16.7851   19.9525 C   0  0  0  0  0  0  0  0  0  0  0  0
    8.6613  -16.7600   20.9894 C   0  0  2  0  0  0  0  0  0  0  0  0
    7.4866  -16.1523   20.4174 N   0  0  0  0  0  0  0  0  0  0  0  0
    9.1146  -16.0906   22.2146 C   0  0  0  0  0  0  0  0  0  0  0  0
   10.2143  -16.3413   22.7641 O   0  0  0  0  0  0  0  0  0  0  0  0
    5.7220  -11.5450   26.4683 C   0  0  0  0  0  0  0  0  0  0  0  0
    7.3799  -11.0691   25.8891 S   0  0  0  0  0  0  0  0  0  0  0  0
    8.3050  -12.6090   25.5816 C   0  0  0  0  0  0  0  0  0  0  0  0
    7.8179  -13.3168   24.3648 C   0  0  0  0  0  0  0  0  0  0  0  0
    8.6623  -14.5419   24.1203 C   0  0  2  0  0  0  0  0  0  0  0  0
    8.2981  -15.1042   22.8407 N   0  0  0  0  0  0  0  0  0  0  0  0
    8.3651  -15.5248   25.1918 C   0  0  0  0  0  0  0  0  0  0  0  0
    7.2111  -16.0592   25.2814 O   0  0  0  0  0  0  0  0  0  0  0  0
    8.1052  -22.7905   29.3319 O   0  0  0  0  0  0  0  0  0  0  0  0
    8.2802  -21.6317   28.5582 C   0  0  0  0  0  0  0  0  0  0  0  0
    9.4905  -21.3729   27.9466 C   0  0  0  0  0  0  0  0  0  0  0  0
    9.6201  -20.2226   27.1950 C   0  0  0  0  0  0  0  0  0  0  0  0
    8.5343  -19.3494   27.0683 C   0  0  0  0  0  0  0  0  0  0  0  0
    8.7221  -18.1478   26.2636 C   0  0  0  0  0  0  0  0  0  0  0  0
    9.1163  -16.9331   27.0676 C   0  0  2  0  0  0  0  0  0  0  0  0
    9.3790  -15.8721   26.1260 N   0  0  0  0  0  0  0  0  0  0  0  0
   10.2648  -17.1669   27.9424 C   0  0  0  0  0  0  0  0  0  0  0  0
   11.5550  -16.9857   27.5080 O   0  0  0  0  0  0  0  0  0  0  0  0
    7.3252  -19.5997   27.6743 C   0  0  0  0  0  0  0  0  0  0  0  0
    7.2128  -20.7537   28.4216 C   0  0  0  0  0  0  0  0  0  0  0  0
   10.0662  -17.5439   29.1234 O   0  0  0  0  0  0  0  0  0  0  0  0
  2  4  1  0
  2  1  1  0
  3  2  2  0
  5  6  1  0
  5  4  1  0
  6  7  1  6
  8 15  1  0
  8  6  1  0
  9  8  2  0
 10 11  1  0
 11 12  1  0
 12 13  1  0
 14 15  1  0
 14 13  1  1
 16 14  1  0
 17 16  2  0
 18 19  1  0
 19 20  2  0
 19 29  1  0
 20 21  1  0
 21 22  2  0
 22 23  1  0
 24 23  1  6
 24 25  1  0
 25 16  1  0
 26 27  1  0
 26 24  1  0
 28 22  1  0
 29 28  2  0
 30 26  2  0
M  END
$$$$
