QMY.pdb
     RDKit          3D

 30 30  0  0  1  0  0  0  0  0999 V2000
    7.1490  -12.9786   16.3846 N   0  0  0  0  0  0  0  0  0  0  0  0
    7.9451  -14.1663   16.5440 C   0  0  0  0  0  0  0  0  0  0  0  0
    7.8688  -15.1257   15.7621 O   0  0  0  0  0  0  0  0  0  0  0  0
    8.8673  -14.1952   17.6911 C   0  0  0  0  0  0  0  0  0  0  0  0
    8.0646  -14.3079   18.9588 C   0  0  0  0  0  0  0  0  0  0  0  0
    8.5620  -15.4008   19.8749 C   0  0  2  0  0  0  0  0  0  0  0  0
    7.5703  -16.4438   19.9460 N   0  0  0  0  0  0  0  0  0  0  0  0
    8.9186  -14.8576   21.1912 C   0  0  0  0  0  0  0  0  0  0  0  0
    9.9112  -14.1132   21.3778 O   0  0  0  0  0  0  0  0  0  0  0  0
    7.1758  -12.1793   26.7743 C   0  0  0  0  0  0  0  0  0  0  0  0
    5.9019  -12.2063   25.4754 S   0  0  0  0  0  0  0  0  0  0  0  0
    6.6212  -13.0587   24.0340 C   0  0  0  0  0  0  0  0  0  0  0  0
    7.1802  -14.3907   24.3977 C   0  0  0  0  0  0  0  0  0  0  0  0
    8.4590  -14.6278   23.6347 C   0  0  2  0  0  0  0  0  0  0  0  0
    8.1273  -15.1658   22.3359 N   0  0  0  0  0  0  0  0  0  0  0  0
    9.2644  -15.6214   24.3874 C   0  0  0  0  0  0  0  0  0  0  0  0
    9.0928  -16.8711   24.2024 O   0  0  0  0  0  0  0  0  0  0  0  0
   12.5009  -18.2787   32.0134 O   0  0  0  0  0  0  0  0  0  0  0  0
   12.2049  -17.5338   30.8603 C   0  0  0  0  0  0  0  0  0  0  0  0
   12.8682  -17.7822   29.6754 C   0  0  0  0  0  0  0  0  0  0  0  0
   12.5468  -17.0271   28.5657 C   0  0  0  0  0  0  0  0  0  0  0  0
   11.5653  -16.0347   28.6611 C   0  0  0  0  0  0  0  0  0  0  0  0
   11.2622  -15.2645   27.4604 C   0  0  0  0  0  0  0  0  0  0  0  0
   10.7007  -16.0938   26.3316 C   0  0  2  0  0  0  0  0  0  0  0  0
   10.2361  -15.1727   25.3232 N   0  0  0  0  0  0  0  0  0  0  0  0
    9.6360  -17.0022   26.7561 C   0  0  0  0  0  0  0  0  0  0  0  0
    9.8651  -18.3405   26.9627 O   0  0  0  0  0  0  0  0  0  0  0  0
   10.8997  -15.7808   29.8376 C   0  0  0  0  0  0  0  0  0  0  0  0
   11.2331  -16.5445   30.9369 C   0  0  0  0  0  0  0  0  0  0  0  0
    8.4802  -16.5463   26.9369 O   0  0  0  0  0  0  0  0  0  0  0  0
  2  4  1  0
  2  1  1  0
  3  2  2  0
  5  6  1  0
  5  4  1  0
  6  7  1  1
  8 15  1  0
  8  6  1  0
  9  8  2  0
 10 11  1  0
 11 12  1  0
 12 13  1  0
 14 15  1  0
 14 13  1  1
 16 14  1  0
 17 16  2  0
 18 19  1  0
 19 20  2  0
 19 29  1  0
 20 21  1  0
 21 22  2  0
 22 23  1  0
 24 23  1  1
 24 25  1  0
 25 16  1  0
 26 27  1  0
 26 24  1  0
 28 22  1  0
 29 28  2  0
 30 26  2  0
M  END
$$$$
