QMY.pdb
     RDKit          3D

 30 30  0  0  1  0  0  0  0  0999 V2000
    8.1278  -12.1191   18.8250 N   0  0  0  0  0  0  0  0  0  0  0  0
    8.0861  -13.2960   17.9986 C   0  0  0  0  0  0  0  0  0  0  0  0
    7.7966  -13.2504   16.7937 O   0  0  0  0  0  0  0  0  0  0  0  0
    8.4064  -14.5752   18.6530 C   0  0  0  0  0  0  0  0  0  0  0  0
    8.7137  -14.3170   20.1032 C   0  0  0  0  0  0  0  0  0  0  0  0
    8.7559  -15.5805   20.9296 C   0  0  2  0  0  0  0  0  0  0  0  0
    7.5069  -16.2833   20.7801 N   0  0  0  0  0  0  0  0  0  0  0  0
    9.0806  -15.2791   22.3291 C   0  0  0  0  0  0  0  0  0  0  0  0
   10.1506  -14.7251   22.6789 O   0  0  0  0  0  0  0  0  0  0  0  0
    6.5723  -10.6293   26.3227 C   0  0  0  0  0  0  0  0  0  0  0  0
    6.4543  -12.4175   26.6377 S   0  0  0  0  0  0  0  0  0  0  0  0
    7.2725  -13.2641   25.2465 C   0  0  0  0  0  0  0  0  0  0  0  0
    7.2591  -14.7445   25.4110 C   0  0  0  0  0  0  0  0  0  0  0  0
    8.4786  -15.3377   24.7517 C   0  0  2  0  0  0  0  0  0  0  0  0
    8.1657  -15.6149   23.3691 N   0  0  0  0  0  0  0  0  0  0  0  0
    8.8031  -16.6082   25.4466 C   0  0  0  0  0  0  0  0  0  0  0  0
    7.9779  -17.5800   25.4429 O   0  0  0  0  0  0  0  0  0  0  0  0
   15.2352  -15.9713   23.4019 O   0  0  0  0  0  0  0  0  0  0  0  0
   14.2327  -16.6826   24.0810 C   0  0  0  0  0  0  0  0  0  0  0  0
   14.3392  -16.9236   25.4360 C   0  0  0  0  0  0  0  0  0  0  0  0
   13.3315  -17.6266   26.0649 C   0  0  0  0  0  0  0  0  0  0  0  0
   12.2326  -18.0770   25.3253 C   0  0  0  0  0  0  0  0  0  0  0  0
   11.1948  -18.8150   26.0360 C   0  0  0  0  0  0  0  0  0  0  0  0
   10.2974  -17.9426   26.8792 C   0  0  2  0  0  0  0  0  0  0  0  0
   10.0470  -16.7404   26.1222 N   0  0  0  0  0  0  0  0  0  0  0  0
   10.8584  -17.6379   28.1950 C   0  0  0  0  0  0  0  0  0  0  0  0
   11.0861  -16.3467   28.6040 O   0  0  0  0  0  0  0  0  0  0  0  0
   12.1187  -17.8412   23.9751 C   0  0  0  0  0  0  0  0  0  0  0  0
   13.1346  -17.1372   23.3624 C   0  0  0  0  0  0  0  0  0  0  0  0
   11.1399  -18.5825   28.9727 O   0  0  0  0  0  0  0  0  0  0  0  0
  2  4  1  0
  2  1  1  0
  3  2  2  0
  5  6  1  0
  5  4  1  0
  6  7  1  1
  8 15  1  0
  8  6  1  0
  9  8  2  0
 10 11  1  0
 11 12  1  0
 12 13  1  0
 14 15  1  0
 14 13  1  1
 16 14  1  0
 17 16  2  0
 18 19  1  0
 19 20  2  0
 19 29  1  0
 20 21  1  0
 21 22  2  0
 22 23  1  0
 24 23  1  6
 24 25  1  0
 25 16  1  0
 26 27  1  0
 26 24  1  0
 28 22  1  0
 29 28  2  0
 30 26  2  0
M  END
$$$$
