QMY.pdb
     RDKit          3D

 30 30  0  0  1  0  0  0  0  0999 V2000
    7.6874  -12.6099   17.5755 N   0  0  0  0  0  0  0  0  0  0  0  0
    7.5898  -13.7656   16.7242 C   0  0  0  0  0  0  0  0  0  0  0  0
    6.8723  -13.7857   15.7130 O   0  0  0  0  0  0  0  0  0  0  0  0
    8.3892  -14.9402   17.1095 C   0  0  0  0  0  0  0  0  0  0  0  0
    9.0913  -14.6470   18.4077 C   0  0  0  0  0  0  0  0  0  0  0  0
    9.1205  -15.8335   19.3417 C   0  0  2  0  0  0  0  0  0  0  0  0
    7.9487  -16.6409   19.1148 N   0  0  0  0  0  0  0  0  0  0  0  0
    9.2552  -15.3973   20.7369 C   0  0  0  0  0  0  0  0  0  0  0  0
   10.1988  -14.6751   21.1396 O   0  0  0  0  0  0  0  0  0  0  0  0
    7.2686  -12.9728   27.1301 C   0  0  0  0  0  0  0  0  0  0  0  0
    7.4146  -13.3747   25.3614 S   0  0  0  0  0  0  0  0  0  0  0  0
    7.1785  -15.1744   25.1974 C   0  0  0  0  0  0  0  0  0  0  0  0
    7.0821  -15.5949   23.7717 C   0  0  0  0  0  0  0  0  0  0  0  0
    8.4017  -15.3538   23.0830 C   0  0  2  0  0  0  0  0  0  0  0  0
    8.2914  -15.7903   21.7106 N   0  0  0  0  0  0  0  0  0  0  0  0
    9.4348  -16.1639   23.7750 C   0  0  0  0  0  0  0  0  0  0  0  0
    9.4999  -17.4244   23.5956 O   0  0  0  0  0  0  0  0  0  0  0  0
   10.0379  -15.3279   31.5293 O   0  0  0  0  0  0  0  0  0  0  0  0
   10.5375  -15.3318   30.2168 C   0  0  0  0  0  0  0  0  0  0  0  0
   10.4748  -14.1929   29.4392 C   0  0  0  0  0  0  0  0  0  0  0  0
   10.9773  -14.2396   28.1546 C   0  0  0  0  0  0  0  0  0  0  0  0
   11.5349  -15.4275   27.6694 C   0  0  0  0  0  0  0  0  0  0  0  0
   12.0520  -15.4254   26.3059 C   0  0  0  0  0  0  0  0  0  0  0  0
   11.3030  -16.3424   25.3701 C   0  0  2  0  0  0  0  0  0  0  0  0
   10.3596  -15.5257   24.6461 N   0  0  0  0  0  0  0  0  0  0  0  0
   10.6355  -17.4482   26.0561 C   0  0  0  0  0  0  0  0  0  0  0  0
   11.2984  -18.6076   26.3765 O   0  0  0  0  0  0  0  0  0  0  0  0
   11.6012  -16.5666   28.4374 C   0  0  0  0  0  0  0  0  0  0  0  0
   11.0945  -16.5025   29.7189 C   0  0  0  0  0  0  0  0  0  0  0  0
    9.4228  -17.3349   26.3608 O   0  0  0  0  0  0  0  0  0  0  0  0
  2  4  1  0
  2  1  1  0
  3  2  2  0
  5  6  1  0
  5  4  1  0
  6  7  1  1
  8 15  1  0
  8  6  1  0
  9  8  2  0
 10 11  1  0
 11 12  1  0
 12 13  1  0
 14 15  1  0
 14 13  1  1
 16 14  1  0
 17 16  2  0
 18 19  1  0
 19 20  2  0
 19 29  1  0
 20 21  1  0
 21 22  2  0
 22 23  1  0
 24 23  1  1
 24 25  1  0
 25 16  1  0
 26 27  1  0
 26 24  1  0
 28 22  1  0
 29 28  2  0
 30 26  2  0
M  END
$$$$
