QMY.pdb
     RDKit          3D

 30 30  0  0  1  0  0  0  0  0999 V2000
    6.5116  -17.4996   16.5787 N   0  0  0  0  0  0  0  0  0  0  0  0
    6.9899  -18.6585   17.2844 C   0  0  0  0  0  0  0  0  0  0  0  0
    6.3708  -19.7329   17.2917 O   0  0  0  0  0  0  0  0  0  0  0  0
    8.2637  -18.5130   18.0080 C   0  0  0  0  0  0  0  0  0  0  0  0
    8.1691  -17.3250   18.9267 C   0  0  0  0  0  0  0  0  0  0  0  0
    8.4608  -17.6711   20.3676 C   0  0  2  0  0  0  0  0  0  0  0  0
    7.3209  -18.3507   20.9291 N   0  0  0  0  0  0  0  0  0  0  0  0
    8.8453  -16.4739   21.1252 C   0  0  0  0  0  0  0  0  0  0  0  0
    9.8450  -15.7733   20.8357 O   0  0  0  0  0  0  0  0  0  0  0  0
    6.0146  -11.4863   26.1292 C   0  0  0  0  0  0  0  0  0  0  0  0
    6.6266  -13.1936   26.2750 S   0  0  0  0  0  0  0  0  0  0  0  0
    7.7857  -13.4692   24.8958 C   0  0  0  0  0  0  0  0  0  0  0  0
    7.4555  -14.7036   24.1302 C   0  0  0  0  0  0  0  0  0  0  0  0
    8.4424  -14.8790   23.0037 C   0  0  2  0  0  0  0  0  0  0  0  0
    8.0745  -16.0537   22.2480 N   0  0  0  0  0  0  0  0  0  0  0  0
    9.7870  -15.0787   23.5990 C   0  0  0  0  0  0  0  0  0  0  0  0
   10.7216  -14.2371   23.3903 O   0  0  0  0  0  0  0  0  0  0  0  0
   10.5226  -16.3675   31.2303 O   0  0  0  0  0  0  0  0  0  0  0  0
   10.8055  -16.1064   29.8798 C   0  0  0  0  0  0  0  0  0  0  0  0
   11.1410  -17.1346   29.0220 C   0  0  0  0  0  0  0  0  0  0  0  0
   11.4116  -16.8345   27.7023 C   0  0  0  0  0  0  0  0  0  0  0  0
   11.3416  -15.5080   27.2630 C   0  0  0  0  0  0  0  0  0  0  0  0
   11.6364  -15.2431   25.8596 C   0  0  0  0  0  0  0  0  0  0  0  0
   11.3572  -16.4130   24.9482 C   0  0  2  0  0  0  0  0  0  0  0  0
   10.0328  -16.2205   24.4097 N   0  0  0  0  0  0  0  0  0  0  0  0
   11.4786  -17.7081   25.6168 C   0  0  0  0  0  0  0  0  0  0  0  0
   10.4028  -18.5481   25.7697 O   0  0  0  0  0  0  0  0  0  0  0  0
   11.0081  -14.4777   28.1109 C   0  0  0  0  0  0  0  0  0  0  0  0
   10.7408  -14.7952   29.4265 C   0  0  0  0  0  0  0  0  0  0  0  0
   12.5972  -18.0623   26.0636 O   0  0  0  0  0  0  0  0  0  0  0  0
  2  4  1  0
  2  1  1  0
  3  2  2  0
  5  6  1  0
  5  4  1  0
  6  7  1  1
  8 15  1  0
  8  6  1  0
  9  8  2  0
 10 11  1  0
 11 12  1  0
 12 13  1  0
 14 15  1  0
 14 13  1  1
 16 14  1  0
 17 16  2  0
 18 19  1  0
 19 20  2  0
 19 29  1  0
 20 21  1  0
 21 22  2  0
 22 23  1  0
 24 23  1  1
 24 25  1  0
 25 16  1  0
 26 27  1  0
 26 24  1  0
 28 22  1  0
 29 28  2  0
 30 26  2  0
M  END
$$$$
