THQ.pdb
     RDKit          3D

 27 27  0  0  1  0  0  0  0  0999 V2000
   11.0641  -20.1968   16.8676 C   0  0  0  0  0  0  0  0  0  0  0  0
   11.1209  -19.4545   18.1863 C   0  0  1  0  0  0  0  0  0  0  0  0
   12.1925  -19.8982   18.9317 O   0  0  0  0  0  0  0  0  0  0  0  0
   11.2647  -17.9701   17.9937 C   0  0  2  0  0  0  0  0  0  0  0  0
   12.5270  -17.7162   17.3498 N   0  0  0  0  0  0  0  0  0  0  0  0
   11.1342  -17.3046   19.2941 C   0  0  0  0  0  0  0  0  0  0  0  0
   12.1825  -17.1767   19.9894 O   0  0  0  0  0  0  0  0  0  0  0  0
    9.9138  -16.7983   19.8184 N   0  0  0  0  0  0  0  0  0  0  0  0
    9.8567  -16.2928   21.1511 C   0  0  1  0  0  0  0  0  0  0  0  0
    8.6221  -15.4690   21.4236 C   0  0  0  0  0  0  0  0  0  0  0  0
    8.5926  -14.2150   20.6573 C   0  0  0  0  0  0  0  0  0  0  0  0
    9.6146  -13.8298   19.8103 C   0  0  0  0  0  0  0  0  0  0  0  0
    9.2898  -12.6533   19.2677 N   0  0  0  0  0  0  0  0  0  0  0  0
    8.0869  -12.2679   19.7405 C   0  0  0  0  0  0  0  0  0  0  0  0
    7.6850  -13.2349   20.5833 N   0  0  0  0  0  0  0  0  0  0  0  0
    9.8408  -17.4076   22.1598 C   0  0  0  0  0  0  0  0  0  0  0  0
    9.2808  -18.4722   21.7950 O   0  0  0  0  0  0  0  0  0  0  0  0
   14.8164  -21.3221   24.5336 N   0  0  0  0  0  0  0  0  0  0  0  0
   13.6801  -20.9995   23.7574 C   0  0  0  0  0  0  0  0  0  0  0  0
   13.6623  -21.3222   22.5515 O   0  0  0  0  0  0  0  0  0  0  0  0
   12.5525  -20.3033   24.3548 C   0  0  0  0  0  0  0  0  0  0  0  0
   11.9395  -19.2062   23.5689 C   0  0  0  0  0  0  0  0  0  0  0  0
   10.8102  -18.4773   24.2223 C   0  0  2  0  0  0  0  0  0  0  0  0
   10.4049  -17.3042   23.4376 N   0  0  0  0  0  0  0  0  0  0  0  0
   11.1870  -18.0138   25.5713 C   0  0  0  0  0  0  0  0  0  0  0  0
   11.2325  -16.6407   25.8814 O   0  0  0  0  0  0  0  0  0  0  0  0
   11.4890  -18.7745   26.5256 O   0  0  0  0  0  0  0  0  0  0  0  0
  2  1  1  6
  2  4  1  0
  3  2  1  0
  4  5  1  1
  4  6  1  0
  6  7  2  0
  8  6  1  0
  8  9  1  0
  9 10  1  6
 11 10  1  0
 12 11  2  0
 13 12  1  0
 14 13  1  0
 14 15  2  0
 15 11  1  0
 16 17  2  0
 16  9  1  0
 18 19  1  0
 19 21  1  0
 20 19  2  0
 22 21  1  0
 23 22  1  6
 23 24  1  0
 24 16  1  0
 25 23  1  0
 25 26  1  0
 27 25  2  0
M  END
$$$$
