THQ.pdb
     RDKit          3D

 27 27  0  0  1  0  0  0  0  0999 V2000
   11.2613  -13.3423   17.7655 C   0  0  0  0  0  0  0  0  0  0  0  0
   10.5917  -13.9187   18.9954 C   0  0  1  0  0  0  0  0  0  0  0  0
   10.8311  -13.1096   20.0858 O   0  0  0  0  0  0  0  0  0  0  0  0
    9.1034  -14.0454   18.8218 C   0  0  2  0  0  0  0  0  0  0  0  0
    8.5579  -12.7305   18.6072 N   0  0  0  0  0  0  0  0  0  0  0  0
    8.5410  -14.7205   19.9960 C   0  0  0  0  0  0  0  0  0  0  0  0
    7.6982  -14.0794   20.6870 O   0  0  0  0  0  0  0  0  0  0  0  0
    8.8805  -16.0394   20.4035 N   0  0  0  0  0  0  0  0  0  0  0  0
    8.2385  -16.6330   21.5306 C   0  0  1  0  0  0  0  0  0  0  0  0
    8.2870  -18.1412   21.5180 C   0  0  0  0  0  0  0  0  0  0  0  0
    7.4529  -18.7299   20.4605 C   0  0  0  0  0  0  0  0  0  0  0  0
    6.1455  -18.3429   20.2343 C   0  0  0  0  0  0  0  0  0  0  0  0
    5.6659  -19.0590   19.2138 N   0  0  0  0  0  0  0  0  0  0  0  0
    6.6267  -19.8974   18.7747 C   0  0  0  0  0  0  0  0  0  0  0  0
    7.7029  -19.6773   19.5495 N   0  0  0  0  0  0  0  0  0  0  0  0
    8.8890  -16.2092   22.8181 C   0  0  0  0  0  0  0  0  0  0  0  0
   10.1455  -16.2405   22.8365 O   0  0  0  0  0  0  0  0  0  0  0  0
    5.8219  -12.7801   27.0579 N   0  0  0  0  0  0  0  0  0  0  0  0
    6.4826  -12.2967   25.9058 C   0  0  0  0  0  0  0  0  0  0  0  0
    6.1454  -11.1897   25.4373 O   0  0  0  0  0  0  0  0  0  0  0  0
    7.5363  -13.0770   25.2781 C   0  0  0  0  0  0  0  0  0  0  0  0
    7.8960  -14.3663   25.9148 C   0  0  0  0  0  0  0  0  0  0  0  0
    8.8254  -15.2467   25.1435 C   0  0  2  0  0  0  0  0  0  0  0  0
    8.1728  -15.7981   23.9493 N   0  0  0  0  0  0  0  0  0  0  0  0
    9.2937  -16.3767   25.9684 C   0  0  0  0  0  0  0  0  0  0  0  0
    9.0062  -17.7075   25.6079 O   0  0  0  0  0  0  0  0  0  0  0  0
    9.9645  -16.2555   27.0247 O   0  0  0  0  0  0  0  0  0  0  0  0
  2  1  1  6
  2  4  1  0
  3  2  1  0
  4  5  1  1
  4  6  1  0
  6  7  2  0
  8  6  1  0
  8  9  1  0
  9 10  1  6
 11 10  1  0
 12 11  2  0
 13 12  1  0
 14 13  1  0
 14 15  2  0
 15 11  1  0
 16 17  2  0
 16  9  1  0
 18 19  1  0
 19 21  1  0
 20 19  2  0
 22 21  1  0
 23 22  1  1
 23 24  1  0
 24 16  1  0
 25 23  1  0
 25 26  1  0
 27 25  2  0
M  END
$$$$
