THQ.pdb
     RDKit          3D

 27 27  0  0  1  0  0  0  0  0999 V2000
    7.9117  -13.3508   22.8142 C   0  0  0  0  0  0  0  0  0  0  0  0
    7.2646  -14.7197   22.8012 C   0  0  1  0  0  0  0  0  0  0  0  0
    6.1376  -14.7163   23.5955 O   0  0  0  0  0  0  0  0  0  0  0  0
    6.8616  -15.1414   21.4152 C   0  0  2  0  0  0  0  0  0  0  0  0
    6.1201  -16.3715   21.5127 N   0  0  0  0  0  0  0  0  0  0  0  0
    8.0629  -15.2544   20.5817 C   0  0  0  0  0  0  0  0  0  0  0  0
    8.7159  -16.3353   20.6467 O   0  0  0  0  0  0  0  0  0  0  0  0
    8.5361  -14.2343   19.7122 N   0  0  0  0  0  0  0  0  0  0  0  0
    9.6856  -14.4578   18.8975 C   0  0  1  0  0  0  0  0  0  0  0  0
    9.8663  -13.4140   17.8228 C   0  0  0  0  0  0  0  0  0  0  0  0
    9.1280  -13.7294   16.5915 C   0  0  0  0  0  0  0  0  0  0  0  0
    8.4459  -14.9176   16.4099 C   0  0  0  0  0  0  0  0  0  0  0  0
    7.8846  -14.8989   15.1980 N   0  0  0  0  0  0  0  0  0  0  0  0
    8.1850  -13.7322   14.5919 C   0  0  0  0  0  0  0  0  0  0  0  0
    8.9418  -13.0394   15.4605 N   0  0  0  0  0  0  0  0  0  0  0  0
   10.9484  -14.4345   19.7131 C   0  0  0  0  0  0  0  0  0  0  0  0
   11.1443  -13.3968   20.3949 O   0  0  0  0  0  0  0  0  0  0  0  0
   12.5233  -16.8525   24.5523 N   0  0  0  0  0  0  0  0  0  0  0  0
   11.4018  -16.5405   23.7508 C   0  0  0  0  0  0  0  0  0  0  0  0
   10.2611  -16.6237   24.2514 O   0  0  0  0  0  0  0  0  0  0  0  0
   11.5756  -16.1304   22.3671 C   0  0  0  0  0  0  0  0  0  0  0  0
   12.9650  -16.0152   21.8636 C   0  0  0  0  0  0  0  0  0  0  0  0
   13.1264  -15.4204   20.5020 C   0  0  2  0  0  0  0  0  0  0  0  0
   11.8742  -15.4851   19.7377 N   0  0  0  0  0  0  0  0  0  0  0  0
   14.1660  -16.1299   19.7323 C   0  0  0  0  0  0  0  0  0  0  0  0
   15.5130  -16.1125   20.1432 O   0  0  0  0  0  0  0  0  0  0  0  0
   13.9491  -16.7869   18.6826 O   0  0  0  0  0  0  0  0  0  0  0  0
  2  1  1  6
  2  4  1  0
  3  2  1  0
  4  5  1  1
  4  6  1  0
  6  7  2  0
  8  6  1  0
  8  9  1  0
  9 10  1  6
 11 10  1  0
 12 11  2  0
 13 12  1  0
 14 13  1  0
 14 15  2  0
 15 11  1  0
 16 17  2  0
 16  9  1  0
 18 19  1  0
 19 21  1  0
 20 19  2  0
 22 21  1  0
 23 22  1  1
 23 24  1  0
 24 16  1  0
 25 23  1  0
 25 26  1  0
 27 25  2  0
M  END
$$$$
