THQ.pdb
     RDKit          3D

 27 27  0  0  1  0  0  0  0  0999 V2000
   16.0145  -16.4780   15.6687 C   0  0  0  0  0  0  0  0  0  0  0  0
   15.0204  -16.0552   16.7298 C   0  0  1  0  0  0  0  0  0  0  0  0
   15.5286  -16.3187   17.9842 O   0  0  0  0  0  0  0  0  0  0  0  0
   14.6992  -14.5883   16.6514 C   0  0  2  0  0  0  0  0  0  0  0  0
   15.9128  -13.8456   16.8710 N   0  0  0  0  0  0  0  0  0  0  0  0
   13.6463  -14.2769   17.6236 C   0  0  0  0  0  0  0  0  0  0  0  0
   14.0085  -13.9870   18.7998 O   0  0  0  0  0  0  0  0  0  0  0  0
   12.2555  -14.2802   17.3299 N   0  0  0  0  0  0  0  0  0  0  0  0
   11.2978  -14.1271   18.3760 C   0  0  1  0  0  0  0  0  0  0  0  0
    9.8729  -14.0983   17.8799 C   0  0  0  0  0  0  0  0  0  0  0  0
    8.8975  -13.8849   18.9587 C   0  0  0  0  0  0  0  0  0  0  0  0
    9.2659  -13.7197   20.2805 C   0  0  0  0  0  0  0  0  0  0  0  0
    8.1583  -13.5485   21.0071 N   0  0  0  0  0  0  0  0  0  0  0  0
    7.0852  -13.5984   20.1918 C   0  0  0  0  0  0  0  0  0  0  0  0
    7.5622  -13.8038   18.9520 N   0  0  0  0  0  0  0  0  0  0  0  0
   11.3711  -15.2641   19.3569 C   0  0  0  0  0  0  0  0  0  0  0  0
   11.3183  -16.4197   18.8652 O   0  0  0  0  0  0  0  0  0  0  0  0
   15.8889  -16.8457   22.5118 N   0  0  0  0  0  0  0  0  0  0  0  0
   15.3267  -15.5605   22.6845 C   0  0  0  0  0  0  0  0  0  0  0  0
   16.0729  -14.6153   23.0135 O   0  0  0  0  0  0  0  0  0  0  0  0
   13.9034  -15.3452   22.4825 C   0  0  0  0  0  0  0  0  0  0  0  0
   13.1184  -16.4749   21.9305 C   0  0  0  0  0  0  0  0  0  0  0  0
   11.6708  -16.2084   21.6713 C   0  0  2  0  0  0  0  0  0  0  0  0
   11.4912  -15.0866   20.7410 N   0  0  0  0  0  0  0  0  0  0  0  0
   10.9590  -15.8809   22.9213 C   0  0  0  0  0  0  0  0  0  0  0  0
   10.2951  -14.6486   23.0779 O   0  0  0  0  0  0  0  0  0  0  0  0
   10.8853  -16.6436   23.9181 O   0  0  0  0  0  0  0  0  0  0  0  0
  2  1  1  6
  2  4  1  0
  3  2  1  0
  4  5  1  1
  4  6  1  0
  6  7  2  0
  8  6  1  0
  8  9  1  0
  9 10  1  6
 11 10  1  0
 12 11  2  0
 13 12  1  0
 14 13  1  0
 14 15  2  0
 15 11  1  0
 16 17  2  0
 16  9  1  0
 18 19  1  0
 19 21  1  0
 20 19  2  0
 22 21  1  0
 23 22  1  1
 23 24  1  0
 24 16  1  0
 25 23  1  0
 25 26  1  0
 27 25  2  0
M  END
$$$$
