THQ.pdb
     RDKit          3D

 27 27  0  0  1  0  0  0  0  0999 V2000
   11.4905  -19.7691   18.4520 C   0  0  0  0  0  0  0  0  0  0  0  0
   11.8980  -18.7260   17.4327 C   0  0  1  0  0  0  0  0  0  0  0  0
   12.0677  -19.3145   16.1974 O   0  0  0  0  0  0  0  0  0  0  0  0
   10.8706  -17.6364   17.2971 C   0  0  2  0  0  0  0  0  0  0  0  0
   11.2558  -16.7830   16.2035 N   0  0  0  0  0  0  0  0  0  0  0  0
   10.7574  -16.9246   18.5743 C   0  0  0  0  0  0  0  0  0  0  0  0
   11.7390  -16.2122   18.9318 O   0  0  0  0  0  0  0  0  0  0  0  0
    9.6232  -16.9841   19.4292 N   0  0  0  0  0  0  0  0  0  0  0  0
    9.6318  -16.3089   20.6857 C   0  0  1  0  0  0  0  0  0  0  0  0
    8.2662  -15.8313   21.1149 C   0  0  0  0  0  0  0  0  0  0  0  0
    7.8231  -14.6370   20.3815 C   0  0  0  0  0  0  0  0  0  0  0  0
    7.2334  -14.6998   19.1331 C   0  0  0  0  0  0  0  0  0  0  0  0
    6.9486  -13.4554   18.7399 N   0  0  0  0  0  0  0  0  0  0  0  0
    7.3377  -12.5910   19.6991 C   0  0  0  0  0  0  0  0  0  0  0  0
    7.8662  -13.3350   20.6861 N   0  0  0  0  0  0  0  0  0  0  0  0
   10.1206  -17.2076   21.7875 C   0  0  0  0  0  0  0  0  0  0  0  0
    9.9739  -18.4415   21.5973 O   0  0  0  0  0  0  0  0  0  0  0  0
   15.5439  -17.9503   24.3786 N   0  0  0  0  0  0  0  0  0  0  0  0
   15.0178  -16.7932   23.7606 C   0  0  0  0  0  0  0  0  0  0  0  0
   15.8057  -15.9063   23.3717 O   0  0  0  0  0  0  0  0  0  0  0  0
   13.5833  -16.6401   23.5821 C   0  0  0  0  0  0  0  0  0  0  0  0
   12.7486  -17.8565   23.7260 C   0  0  0  0  0  0  0  0  0  0  0  0
   11.2922  -17.6319   23.9750 C   0  0  2  0  0  0  0  0  0  0  0  0
   10.7087  -16.7365   22.9680 N   0  0  0  0  0  0  0  0  0  0  0  0
   11.0671  -17.0305   25.3032 C   0  0  0  0  0  0  0  0  0  0  0  0
   11.4058  -17.7237   26.4815 O   0  0  0  0  0  0  0  0  0  0  0  0
   10.5722  -15.8904   25.4926 O   0  0  0  0  0  0  0  0  0  0  0  0
  2  1  1  1
  2  4  1  0
  3  2  1  0
  4  5  1  6
  4  6  1  0
  6  7  2  0
  8  6  1  0
  8  9  1  0
  9 10  1  1
 11 10  1  0
 12 11  2  0
 13 12  1  0
 14 13  1  0
 14 15  2  0
 15 11  1  0
 16 17  2  0
 16  9  1  0
 18 19  1  0
 19 21  1  0
 20 19  2  0
 22 21  1  0
 23 22  1  6
 23 24  1  0
 24 16  1  0
 25 23  1  0
 25 26  1  0
 27 25  2  0
M  END
$$$$
