THQ.pdb
     RDKit          3D

 27 27  0  0  1  0  0  0  0  0999 V2000
   11.5795  -19.7262   17.3703 C   0  0  0  0  0  0  0  0  0  0  0  0
   12.1163  -18.7888   16.3092 C   0  0  1  0  0  0  0  0  0  0  0  0
   12.1431  -19.4257   15.0866 O   0  0  0  0  0  0  0  0  0  0  0  0
   11.2778  -17.5478   16.1744 C   0  0  2  0  0  0  0  0  0  0  0  0
   11.7815  -16.7777   15.0673 N   0  0  0  0  0  0  0  0  0  0  0  0
   11.2990  -16.8163   17.4453 C   0  0  0  0  0  0  0  0  0  0  0  0
   12.3770  -16.2381   17.7653 O   0  0  0  0  0  0  0  0  0  0  0  0
   10.1934  -16.7167   18.3333 N   0  0  0  0  0  0  0  0  0  0  0  0
   10.2919  -15.9338   19.5217 C   0  0  1  0  0  0  0  0  0  0  0  0
    8.9594  -15.6893   20.1864 C   0  0  0  0  0  0  0  0  0  0  0  0
    8.1817  -14.6276   19.5317 C   0  0  0  0  0  0  0  0  0  0  0  0
    8.6601  -13.9019   18.4571 C   0  0  0  0  0  0  0  0  0  0  0  0
    7.7237  -13.0210   18.0948 N   0  0  0  0  0  0  0  0  0  0  0  0
    6.6543  -13.1574   18.9050 C   0  0  0  0  0  0  0  0  0  0  0  0
    6.9585  -14.1407   19.7696 N   0  0  0  0  0  0  0  0  0  0  0  0
   11.1510  -16.6099   20.5538 C   0  0  0  0  0  0  0  0  0  0  0  0
   11.0943  -17.8653   20.5805 O   0  0  0  0  0  0  0  0  0  0  0  0
   17.0854  -14.9393   22.0983 N   0  0  0  0  0  0  0  0  0  0  0  0
   16.0154  -14.5511   21.2604 C   0  0  0  0  0  0  0  0  0  0  0  0
   16.2685  -13.9242   20.2108 O   0  0  0  0  0  0  0  0  0  0  0  0
   14.6443  -14.8765   21.6168 C   0  0  0  0  0  0  0  0  0  0  0  0
   14.3453  -16.2921   21.9390 C   0  0  0  0  0  0  0  0  0  0  0  0
   12.9352  -16.5965   22.3298 C   0  0  2  0  0  0  0  0  0  0  0  0
   11.9770  -15.9176   21.4483 N   0  0  0  0  0  0  0  0  0  0  0  0
   12.6632  -16.1659   23.7144 C   0  0  0  0  0  0  0  0  0  0  0  0
   13.3899  -16.6985   24.7970 O   0  0  0  0  0  0  0  0  0  0  0  0
   11.7923  -15.3185   24.0371 O   0  0  0  0  0  0  0  0  0  0  0  0
  2  1  1  1
  2  4  1  0
  3  2  1  0
  4  5  1  6
  4  6  1  0
  6  7  2  0
  8  6  1  0
  8  9  1  0
  9 10  1  1
 11 10  1  0
 12 11  2  0
 13 12  1  0
 14 13  1  0
 14 15  2  0
 15 11  1  0
 16 17  2  0
 16  9  1  0
 18 19  1  0
 19 21  1  0
 20 19  2  0
 22 21  1  0
 23 22  1  6
 23 24  1  0
 24 16  1  0
 25 23  1  0
 25 26  1  0
 27 25  2  0
M  END
$$$$
