THQ.pdb
     RDKit          3D

 27 27  0  0  1  0  0  0  0  0999 V2000
    6.2926  -19.9524   20.5216 C   0  0  0  0  0  0  0  0  0  0  0  0
    6.9666  -19.0535   21.5369 C   0  0  1  0  0  0  0  0  0  0  0  0
    8.2261  -19.5326   21.8286 O   0  0  0  0  0  0  0  0  0  0  0  0
    7.1045  -17.6415   21.0385 C   0  0  2  0  0  0  0  0  0  0  0  0
    7.9329  -17.6547   19.8611 N   0  0  0  0  0  0  0  0  0  0  0  0
    7.6434  -16.8049   22.1158 C   0  0  0  0  0  0  0  0  0  0  0  0
    8.8939  -16.6190   22.1372 O   0  0  0  0  0  0  0  0  0  0  0  0
    6.8555  -16.1945   23.1293 N   0  0  0  0  0  0  0  0  0  0  0  0
    7.4706  -15.3882   24.1325 C   0  0  1  0  0  0  0  0  0  0  0  0
    6.5067  -14.4505   24.8172 C   0  0  0  0  0  0  0  0  0  0  0  0
    7.1490  -13.6284   25.8527 C   0  0  0  0  0  0  0  0  0  0  0  0
    6.8633  -13.7599   27.1985 C   0  0  0  0  0  0  0  0  0  0  0  0
    7.6050  -12.8778   27.8737 N   0  0  0  0  0  0  0  0  0  0  0  0
    8.3616  -12.1805   27.0019 C   0  0  0  0  0  0  0  0  0  0  0  0
    8.0653  -12.6563   25.7801 N   0  0  0  0  0  0  0  0  0  0  0  0
    8.0709  -16.2323   25.2223 C   0  0  0  0  0  0  0  0  0  0  0  0
    7.3878  -17.2203   25.5927 O   0  0  0  0  0  0  0  0  0  0  0  0
   13.8722  -17.9253   25.2375 N   0  0  0  0  0  0  0  0  0  0  0  0
   12.7182  -18.3295   24.5285 C   0  0  0  0  0  0  0  0  0  0  0  0
   12.8573  -18.9426   23.4499 O   0  0  0  0  0  0  0  0  0  0  0  0
   11.3929  -18.0350   25.0479 C   0  0  0  0  0  0  0  0  0  0  0  0
   11.3160  -17.2774   26.3196 C   0  0  0  0  0  0  0  0  0  0  0  0
    9.9471  -16.8814   26.7703 C   0  0  2  0  0  0  0  0  0  0  0  0
    9.3124  -15.9662   25.8133 N   0  0  0  0  0  0  0  0  0  0  0  0
    9.9941  -16.2071   28.0816 C   0  0  0  0  0  0  0  0  0  0  0  0
   10.2936  -16.9236   29.2566 O   0  0  0  0  0  0  0  0  0  0  0  0
    9.7791  -14.9811   28.2585 O   0  0  0  0  0  0  0  0  0  0  0  0
  2  1  1  6
  2  4  1  0
  3  2  1  0
  4  5  1  6
  4  6  1  0
  6  7  2  0
  8  6  1  0
  8  9  1  0
  9 10  1  1
 11 10  1  0
 12 11  2  0
 13 12  1  0
 14 13  1  0
 14 15  2  0
 15 11  1  0
 16 17  2  0
 16  9  1  0
 18 19  1  0
 19 21  1  0
 20 19  2  0
 22 21  1  0
 23 22  1  6
 23 24  1  0
 24 16  1  0
 25 23  1  0
 25 26  1  0
 27 25  2  0
M  END
$$$$
