THQ.pdb
     RDKit          3D

 27 27  0  0  1  0  0  0  0  0999 V2000
   12.2551  -18.5412   15.0819 C   0  0  0  0  0  0  0  0  0  0  0  0
   12.5653  -17.5373   16.1723 C   0  0  1  0  0  0  0  0  0  0  0  0
   13.9290  -17.4426   16.3525 O   0  0  0  0  0  0  0  0  0  0  0  0
   12.0381  -16.1673   15.8461 C   0  0  2  0  0  0  0  0  0  0  0  0
   12.7291  -15.6807   14.6806 N   0  0  0  0  0  0  0  0  0  0  0  0
   12.2002  -15.3011   17.0185 C   0  0  0  0  0  0  0  0  0  0  0  0
   13.1780  -14.4994   17.0181 O   0  0  0  0  0  0  0  0  0  0  0  0
   11.3349  -15.3056   18.1462 N   0  0  0  0  0  0  0  0  0  0  0  0
   11.5320  -14.3752   19.2094 C   0  0  1  0  0  0  0  0  0  0  0  0
   10.3142  -14.2027   20.0838 C   0  0  0  0  0  0  0  0  0  0  0  0
    9.1125  -13.8341   19.3218 C   0  0  0  0  0  0  0  0  0  0  0  0
    8.7961  -12.5258   19.0078 C   0  0  0  0  0  0  0  0  0  0  0  0
    7.6534  -12.5243   18.3162 N   0  0  0  0  0  0  0  0  0  0  0  0
    7.2231  -13.7947   18.1747 C   0  0  0  0  0  0  0  0  0  0  0  0
    8.1281  -14.5712   18.7951 N   0  0  0  0  0  0  0  0  0  0  0  0
   12.6396  -14.8162   20.1254 C   0  0  0  0  0  0  0  0  0  0  0  0
   13.4244  -15.6825   19.6630 O   0  0  0  0  0  0  0  0  0  0  0  0
   10.9486  -18.8954   22.6470 N   0  0  0  0  0  0  0  0  0  0  0  0
   11.9379  -18.6544   23.6272 C   0  0  0  0  0  0  0  0  0  0  0  0
   12.1772  -19.5410   24.4729 O   0  0  0  0  0  0  0  0  0  0  0  0
   12.6629  -17.3947   23.6489 C   0  0  0  0  0  0  0  0  0  0  0  0
   12.3180  -16.3960   22.6093 C   0  0  0  0  0  0  0  0  0  0  0  0
   13.1748  -15.1723   22.5595 C   0  0  2  0  0  0  0  0  0  0  0  0
   12.8189  -14.3158   21.4211 N   0  0  0  0  0  0  0  0  0  0  0  0
   14.6011  -15.5275   22.4328 C   0  0  0  0  0  0  0  0  0  0  0  0
   15.0539  -16.3537   21.3859 O   0  0  0  0  0  0  0  0  0  0  0  0
   15.5027  -15.1388   23.2180 O   0  0  0  0  0  0  0  0  0  0  0  0
  2  1  1  6
  2  4  1  0
  3  2  1  0
  4  5  1  6
  4  6  1  0
  6  7  2  0
  8  6  1  0
  8  9  1  0
  9 10  1  1
 11 10  1  0
 12 11  2  0
 13 12  1  0
 14 13  1  0
 14 15  2  0
 15 11  1  0
 16 17  2  0
 16  9  1  0
 18 19  1  0
 19 21  1  0
 20 19  2  0
 22 21  1  0
 23 22  1  6
 23 24  1  0
 24 16  1  0
 25 23  1  0
 25 26  1  0
 27 25  2  0
M  END
$$$$
