THQ.pdb
     RDKit          3D

 27 27  0  0  1  0  0  0  0  0999 V2000
    9.3167  -20.8611   19.4342 C   0  0  0  0  0  0  0  0  0  0  0  0
    9.5376  -20.0882   18.1509 C   0  0  1  0  0  0  0  0  0  0  0  0
    9.0839  -20.8210   17.0748 O   0  0  0  0  0  0  0  0  0  0  0  0
    8.8197  -18.7669   18.1560 C   0  0  2  0  0  0  0  0  0  0  0  0
    8.8704  -18.2178   16.8262 N   0  0  0  0  0  0  0  0  0  0  0  0
    9.4297  -17.8954   19.1655 C   0  0  0  0  0  0  0  0  0  0  0  0
   10.6782  -17.7086   19.0942 O   0  0  0  0  0  0  0  0  0  0  0  0
    8.7122  -17.2524   20.2108 N   0  0  0  0  0  0  0  0  0  0  0  0
    9.4026  -16.4694   21.1830 C   0  0  1  0  0  0  0  0  0  0  0  0
    8.5221  -15.4477   21.8597 C   0  0  0  0  0  0  0  0  0  0  0  0
    8.1020  -14.3680   20.9550 C   0  0  0  0  0  0  0  0  0  0  0  0
    8.5482  -14.2668   19.6508 C   0  0  0  0  0  0  0  0  0  0  0  0
    7.9884  -13.1874   19.0978 N   0  0  0  0  0  0  0  0  0  0  0  0
    7.1934  -12.5889   20.0082 C   0  0  0  0  0  0  0  0  0  0  0  0
    7.2804  -13.3266   21.1285 N   0  0  0  0  0  0  0  0  0  0  0  0
    9.9599  -17.3288   22.2836 C   0  0  0  0  0  0  0  0  0  0  0  0
    9.3664  -18.4183   22.4854 O   0  0  0  0  0  0  0  0  0  0  0  0
   13.4839  -20.6153   20.7494 N   0  0  0  0  0  0  0  0  0  0  0  0
   14.2285  -19.6541   21.4700 C   0  0  0  0  0  0  0  0  0  0  0  0
   15.4751  -19.7207   21.4531 O   0  0  0  0  0  0  0  0  0  0  0  0
   13.5525  -18.6070   22.2181 C   0  0  0  0  0  0  0  0  0  0  0  0
   12.4181  -19.0144   23.0807 C   0  0  0  0  0  0  0  0  0  0  0  0
   11.7915  -17.9338   23.9013 C   0  0  2  0  0  0  0  0  0  0  0  0
   11.0706  -16.9715   23.0584 N   0  0  0  0  0  0  0  0  0  0  0  0
   12.8097  -17.1921   24.6692 C   0  0  0  0  0  0  0  0  0  0  0  0
   12.9942  -15.8082   24.4836 O   0  0  0  0  0  0  0  0  0  0  0  0
   13.5725  -17.7102   25.5238 O   0  0  0  0  0  0  0  0  0  0  0  0
  2  1  1  1
  2  4  1  0
  3  2  1  0
  4  5  1  6
  4  6  1  0
  6  7  2  0
  8  6  1  0
  8  9  1  0
  9 10  1  1
 11 10  1  0
 12 11  2  0
 13 12  1  0
 14 13  1  0
 14 15  2  0
 15 11  1  0
 16 17  2  0
 16  9  1  0
 18 19  1  0
 19 21  1  0
 20 19  2  0
 22 21  1  0
 23 22  1  6
 23 24  1  0
 24 16  1  0
 25 23  1  0
 25 26  1  0
 27 25  2  0
M  END
$$$$
