THQ.pdb
     RDKit          3D

 27 27  0  0  1  0  0  0  0  0999 V2000
   10.3233  -20.8018   17.3135 C   0  0  0  0  0  0  0  0  0  0  0  0
   10.7315  -19.6806   18.2458 C   0  0  1  0  0  0  0  0  0  0  0  0
   12.0929  -19.4759   18.1698 O   0  0  0  0  0  0  0  0  0  0  0  0
   10.0423  -18.3869   17.9101 C   0  0  2  0  0  0  0  0  0  0  0  0
   10.4432  -17.9894   16.5857 N   0  0  0  0  0  0  0  0  0  0  0  0
   10.3681  -17.3914   18.9365 C   0  0  0  0  0  0  0  0  0  0  0  0
   11.5252  -16.8823   18.9059 O   0  0  0  0  0  0  0  0  0  0  0  0
    9.4730  -16.9657   19.9554 N   0  0  0  0  0  0  0  0  0  0  0  0
    9.9078  -16.0520   20.9609 C   0  0  1  0  0  0  0  0  0  0  0  0
    8.7716  -15.3215   21.6337 C   0  0  0  0  0  0  0  0  0  0  0  0
    7.9867  -14.5029   20.6986 C   0  0  0  0  0  0  0  0  0  0  0  0
    8.5169  -13.4199   20.0231 C   0  0  0  0  0  0  0  0  0  0  0  0
    7.5581  -12.8916   19.2579 N   0  0  0  0  0  0  0  0  0  0  0  0
    6.4238  -13.6027   19.4202 C   0  0  0  0  0  0  0  0  0  0  0  0
    6.7114  -14.5765   20.3011 N   0  0  0  0  0  0  0  0  0  0  0  0
   10.6525  -16.7591   22.0591 C   0  0  0  0  0  0  0  0  0  0  0  0
   10.2943  -17.9407   22.2949 O   0  0  0  0  0  0  0  0  0  0  0  0
   17.4565  -17.0471   25.0167 N   0  0  0  0  0  0  0  0  0  0  0  0
   16.4087  -16.4678   24.2655 C   0  0  0  0  0  0  0  0  0  0  0  0
   16.6471  -15.4492   23.5841 O   0  0  0  0  0  0  0  0  0  0  0  0
   15.0767  -17.0493   24.2878 C   0  0  0  0  0  0  0  0  0  0  0  0
   14.0183  -16.3489   23.5221 C   0  0  0  0  0  0  0  0  0  0  0  0
   12.6543  -16.9578   23.5727 C   0  0  2  0  0  0  0  0  0  0  0  0
   11.6877  -16.1709   22.7965 N   0  0  0  0  0  0  0  0  0  0  0  0
   12.1616  -17.0425   24.9607 C   0  0  0  0  0  0  0  0  0  0  0  0
   12.6923  -17.9839   25.8639 O   0  0  0  0  0  0  0  0  0  0  0  0
   11.2596  -16.3099   25.4406 O   0  0  0  0  0  0  0  0  0  0  0  0
  2  1  1  6
  2  4  1  0
  3  2  1  0
  4  5  1  6
  4  6  1  0
  6  7  2  0
  8  6  1  0
  8  9  1  0
  9 10  1  1
 11 10  1  0
 12 11  2  0
 13 12  1  0
 14 13  1  0
 14 15  2  0
 15 11  1  0
 16 17  2  0
 16  9  1  0
 18 19  1  0
 19 21  1  0
 20 19  2  0
 22 21  1  0
 23 22  1  1
 23 24  1  0
 24 16  1  0
 25 23  1  0
 25 26  1  0
 27 25  2  0
M  END
$$$$
