THQ.pdb
     RDKit          3D

 27 27  0  0  1  0  0  0  0  0999 V2000
   10.2798  -15.3716   18.9101 C   0  0  0  0  0  0  0  0  0  0  0  0
    9.7102  -13.9973   18.6275 C   0  0  1  0  0  0  0  0  0  0  0  0
    9.8168  -13.7097   17.2833 O   0  0  0  0  0  0  0  0  0  0  0  0
    8.2614  -13.8948   19.0166 C   0  0  2  0  0  0  0  0  0  0  0  0
    7.8069  -12.5599   18.7268 N   0  0  0  0  0  0  0  0  0  0  0  0
    8.1189  -14.2605   20.4297 C   0  0  0  0  0  0  0  0  0  0  0  0
    8.4398  -13.3913   21.2902 O   0  0  0  0  0  0  0  0  0  0  0  0
    7.6468  -15.5199   20.8898 N   0  0  0  0  0  0  0  0  0  0  0  0
    7.5830  -15.7987   22.2874 C   0  0  1  0  0  0  0  0  0  0  0  0
    6.8329  -17.0682   22.6081 C   0  0  0  0  0  0  0  0  0  0  0  0
    6.9570  -17.4632   24.0185 C   0  0  0  0  0  0  0  0  0  0  0  0
    6.7647  -16.5799   25.0640 C   0  0  0  0  0  0  0  0  0  0  0  0
    6.9476  -17.2400   26.2107 N   0  0  0  0  0  0  0  0  0  0  0  0
    7.2526  -18.5245   25.9352 C   0  0  0  0  0  0  0  0  0  0  0  0
    7.2518  -18.6337   24.5953 N   0  0  0  0  0  0  0  0  0  0  0  0
    8.9561  -15.9700   22.8753 C   0  0  0  0  0  0  0  0  0  0  0  0
    9.7887  -16.5828   22.1602 O   0  0  0  0  0  0  0  0  0  0  0  0
   10.6117  -15.1726   29.5721 N   0  0  0  0  0  0  0  0  0  0  0  0
   10.1513  -14.5711   28.3789 C   0  0  0  0  0  0  0  0  0  0  0  0
    9.8899  -13.3503   28.3809 O   0  0  0  0  0  0  0  0  0  0  0  0
    9.9851  -15.3624   27.1709 C   0  0  0  0  0  0  0  0  0  0  0  0
   10.8300  -15.0069   26.0060 C   0  0  0  0  0  0  0  0  0  0  0  0
   10.6130  -15.8094   24.7639 C   0  0  2  0  0  0  0  0  0  0  0  0
    9.3232  -15.4902   24.1389 N   0  0  0  0  0  0  0  0  0  0  0  0
   10.6314  -17.2554   25.0558 C   0  0  0  0  0  0  0  0  0  0  0  0
   11.8428  -17.9331   25.2942 O   0  0  0  0  0  0  0  0  0  0  0  0
    9.6068  -17.9816   25.1152 O   0  0  0  0  0  0  0  0  0  0  0  0
  2  1  1  6
  2  4  1  0
  3  2  1  0
  4  5  1  1
  4  6  1  0
  6  7  2  0
  8  6  1  0
  8  9  1  0
  9 10  1  6
 11 10  1  0
 12 11  2  0
 13 12  1  0
 14 13  1  0
 14 15  2  0
 15 11  1  0
 16 17  2  0
 16  9  1  0
 18 19  1  0
 19 21  1  0
 20 19  2  0
 22 21  1  0
 23 22  1  1
 23 24  1  0
 24 16  1  0
 25 23  1  0
 25 26  1  0
 27 25  2  0
M  END
$$$$
