THQ.pdb
     RDKit          3D

 27 27  0  0  1  0  0  0  0  0999 V2000
   11.8918  -18.4473   15.2916 C   0  0  0  0  0  0  0  0  0  0  0  0
   11.6335  -17.5781   14.0789 C   0  0  1  0  0  0  0  0  0  0  0  0
   11.2114  -18.3562   13.0219 O   0  0  0  0  0  0  0  0  0  0  0  0
   10.5828  -16.5355   14.3440 C   0  0  2  0  0  0  0  0  0  0  0  0
   10.3752  -15.7825   13.1346 N   0  0  0  0  0  0  0  0  0  0  0  0
   11.0076  -15.7059   15.4764 C   0  0  0  0  0  0  0  0  0  0  0  0
   11.7840  -14.7390   15.2295 O   0  0  0  0  0  0  0  0  0  0  0  0
   10.6051  -15.9181   16.8231 N   0  0  0  0  0  0  0  0  0  0  0  0
   11.1056  -15.0822   17.8650 C   0  0  1  0  0  0  0  0  0  0  0  0
   10.2729  -15.1340   19.1224 C   0  0  0  0  0  0  0  0  0  0  0  0
    9.0584  -14.3104   19.0366 C   0  0  0  0  0  0  0  0  0  0  0  0
    8.7586  -13.5293   17.9365 C   0  0  0  0  0  0  0  0  0  0  0  0
    7.5982  -12.9087   18.1656 N   0  0  0  0  0  0  0  0  0  0  0  0
    7.1403  -13.2671   19.3825 C   0  0  0  0  0  0  0  0  0  0  0  0
    8.0466  -14.1198   19.8909 N   0  0  0  0  0  0  0  0  0  0  0  0
   12.4952  -15.4866   18.2723 C   0  0  0  0  0  0  0  0  0  0  0  0
   12.7334  -16.7209   18.2661 O   0  0  0  0  0  0  0  0  0  0  0  0
   18.8492  -12.4977   19.8975 N   0  0  0  0  0  0  0  0  0  0  0  0
   18.1999  -13.0484   18.7693 C   0  0  0  0  0  0  0  0  0  0  0  0
   18.4473  -12.5753   17.6408 O   0  0  0  0  0  0  0  0  0  0  0  0
   17.2599  -14.1465   18.9226 C   0  0  0  0  0  0  0  0  0  0  0  0
   15.8194  -13.8320   18.7703 C   0  0  0  0  0  0  0  0  0  0  0  0
   14.8737  -14.9793   18.9227 C   0  0  2  0  0  0  0  0  0  0  0  0
   13.4905  -14.5736   18.6426 N   0  0  0  0  0  0  0  0  0  0  0  0
   14.9186  -15.5264   20.2920 C   0  0  0  0  0  0  0  0  0  0  0  0
   13.8749  -15.2835   21.2061 O   0  0  0  0  0  0  0  0  0  0  0  0
   15.8564  -16.2301   20.7459 O   0  0  0  0  0  0  0  0  0  0  0  0
  2  1  1  1
  2  4  1  0
  3  2  1  0
  4  5  1  6
  4  6  1  0
  6  7  2  0
  8  6  1  0
  8  9  1  0
  9 10  1  1
 11 10  1  0
 12 11  2  0
 13 12  1  0
 14 13  1  0
 14 15  2  0
 15 11  1  0
 16 17  2  0
 16  9  1  0
 18 19  1  0
 19 21  1  0
 20 19  2  0
 22 21  1  0
 23 22  1  1
 23 24  1  0
 24 16  1  0
 25 23  1  0
 25 26  1  0
 27 25  2  0
M  END
$$$$
