THQ.pdb
     RDKit          3D

 27 27  0  0  1  0  0  0  0  0999 V2000
   11.8217  -20.0732   18.7273 C   0  0  0  0  0  0  0  0  0  0  0  0
   11.9996  -19.2137   17.4934 C   0  0  1  0  0  0  0  0  0  0  0  0
   11.9938  -20.0036   16.3633 O   0  0  0  0  0  0  0  0  0  0  0  0
   10.9079  -18.1888   17.3561 C   0  0  2  0  0  0  0  0  0  0  0  0
   11.0670  -17.5232   16.0895 N   0  0  0  0  0  0  0  0  0  0  0  0
   10.9638  -17.2744   18.5013 C   0  0  0  0  0  0  0  0  0  0  0  0
   11.9686  -16.5118   18.5876 O   0  0  0  0  0  0  0  0  0  0  0  0
    9.9681  -17.1917   19.5124 N   0  0  0  0  0  0  0  0  0  0  0  0
   10.1401  -16.3130   20.6229 C   0  0  1  0  0  0  0  0  0  0  0  0
    8.8377  -15.9018   21.2647 C   0  0  0  0  0  0  0  0  0  0  0  0
    8.1236  -14.8717   20.4968 C   0  0  0  0  0  0  0  0  0  0  0  0
    7.1620  -15.1736   19.5511 C   0  0  0  0  0  0  0  0  0  0  0  0
    6.7062  -14.0290   19.0352 N   0  0  0  0  0  0  0  0  0  0  0  0
    7.3463  -12.9966   19.6211 C   0  0  0  0  0  0  0  0  0  0  0  0
    8.2026  -13.5362   20.5057 N   0  0  0  0  0  0  0  0  0  0  0  0
   10.9519  -16.9581   21.7116 C   0  0  0  0  0  0  0  0  0  0  0  0
   10.7808  -18.1936   21.8676 O   0  0  0  0  0  0  0  0  0  0  0  0
   16.8643  -15.3209   22.8906 N   0  0  0  0  0  0  0  0  0  0  0  0
   16.6157  -16.2921   23.8869 C   0  0  0  0  0  0  0  0  0  0  0  0
   17.5545  -16.6492   24.6283 O   0  0  0  0  0  0  0  0  0  0  0  0
   15.2888  -16.8646   24.0437 C   0  0  0  0  0  0  0  0  0  0  0  0
   14.2056  -16.3066   23.1996 C   0  0  0  0  0  0  0  0  0  0  0  0
   12.8576  -16.9328   23.3565 C   0  0  2  0  0  0  0  0  0  0  0  0
   11.8540  -16.2586   22.5232 N   0  0  0  0  0  0  0  0  0  0  0  0
   12.4021  -16.8685   24.7582 C   0  0  0  0  0  0  0  0  0  0  0  0
   12.8707  -17.7874   25.7173 O   0  0  0  0  0  0  0  0  0  0  0  0
   11.5870  -16.0207   25.2026 O   0  0  0  0  0  0  0  0  0  0  0  0
  2  1  1  1
  2  4  1  0
  3  2  1  0
  4  5  1  6
  4  6  1  0
  6  7  2  0
  8  6  1  0
  8  9  1  0
  9 10  1  1
 11 10  1  0
 12 11  2  0
 13 12  1  0
 14 13  1  0
 14 15  2  0
 15 11  1  0
 16 17  2  0
 16  9  1  0
 18 19  1  0
 19 21  1  0
 20 19  2  0
 22 21  1  0
 23 22  1  1
 23 24  1  0
 24 16  1  0
 25 23  1  0
 25 26  1  0
 27 25  2  0
M  END
$$$$
