RMV.pdb
     RDKit          3D

 27 26  0  0  1  0  0  0  0  0999 V2000
   27.7456  -16.1141  -18.1839 N   0  0  0  0  0  0  0  0  0  0  0  0
   28.7290  -16.9375  -18.7786 C   0  0  0  0  0  0  0  0  0  0  0  0
   29.6117  -16.5110  -19.6001 N   0  0  0  0  0  0  0  0  0  0  0  0
   28.7372  -18.3150  -18.4472 N   0  0  0  0  0  0  0  0  0  0  0  0
   27.7633  -18.8249  -17.5201 C   0  0  0  0  0  0  0  0  0  0  0  0
   28.2871  -18.5159  -16.1059 C   0  0  0  0  0  0  0  0  0  0  0  0
   27.3080  -19.0190  -15.0786 C   0  0  0  0  0  0  0  0  0  0  0  0
   27.7431  -20.1574  -14.2751 C   0  0  2  0  0  0  0  0  0  0  0  0
   28.2772  -21.2467  -15.1365 N   0  0  0  0  0  0  0  0  0  0  0  0
   26.8404  -20.7982  -13.3392 C   0  0  0  0  0  0  0  0  0  0  0  0
   26.1518  -21.7714  -13.8281 O   0  0  0  0  0  0  0  0  0  0  0  0
   30.3128  -17.0959  -20.0934 C   0  0  0  0  0  0  0  0  0  0  0  0
   25.6600  -20.3441   -6.7963 S   0  0  0  0  0  0  0  0  0  0  0  0
   27.2265  -20.6475   -7.6469 C   0  0  0  0  0  0  0  0  0  0  0  0
   26.8968  -21.2799   -9.3081 C   0  0  0  0  0  0  0  0  0  0  0  0
   25.5965  -20.6931   -9.8142 C   0  0  2  0  0  0  0  0  0  0  0  0
   25.4486  -21.0938  -11.2591 N   0  0  0  0  0  0  0  0  0  0  0  0
   26.5907  -20.5294  -11.9905 C   0  0  0  0  0  0  0  0  0  0  0  0
   24.2238  -20.5286  -11.8825 O   0  0  0  0  0  0  0  0  0  0  0  0
   24.0856  -19.2931  -12.1051 C   0  0  0  0  0  0  0  0  0  0  0  0
   22.9578  -21.6341  -15.1490 C   0  0  1  0  0  0  0  0  0  0  0  0
   21.7522  -21.5979  -14.2671 C   0  0  0  0  0  0  0  0  0  0  0  0
   20.5231  -21.1054  -14.9857 C   0  0  2  0  0  0  0  0  0  0  0  0
   22.0181  -20.8197  -12.9931 N   0  0  0  0  0  0  0  0  0  0  0  0
   23.1325  -21.3690  -12.2634 C   0  0  0  0  0  0  0  0  0  0  0  0
   20.8102  -20.9212  -12.1378 O   0  0  0  0  0  0  0  0  0  0  0  0
   19.8709  -19.9119  -12.1157 O   0  0  0  0  0  0  0  0  0  0  0  0
  2  4  1  0
  2  1  1  0
  3  2  2  0
  5  4  1  0
  6  5  1  0
  7  6  1  0
  8  7  1  0
  8  9  1  6
 10 17  1  0
 10  8  1  0
 11 10  2  0
 13 12  1  0
 14 13  1  0
 16 15  1  1
 15 14  1  0
 16 17  1  0
 18 19  2  0
 18 16  1  0
 21 20  1  6
 21 23  1  0
 22 21  1  0
 23 25  1  0
 23 24  1  6
 24 18  1  0
 25 26  1  0
 27 25  2  0
M  END
$$$$
