RMV.pdb
     RDKit          3D

 27 26  0  0  1  0  0  0  0  0999 V2000
   26.6528  -24.3019  -16.7823 N   0  0  0  0  0  0  0  0  0  0  0  0
   27.7763  -24.4502  -17.6276 C   0  0  0  0  0  0  0  0  0  0  0  0
   27.7914  -25.1970  -18.6658 N   0  0  0  0  0  0  0  0  0  0  0  0
   28.9542  -23.7315  -17.3062 N   0  0  0  0  0  0  0  0  0  0  0  0
   28.9774  -22.9006  -16.1327 C   0  0  0  0  0  0  0  0  0  0  0  0
   28.7661  -21.4512  -16.6064 C   0  0  0  0  0  0  0  0  0  0  0  0
   28.1221  -20.6454  -15.5097 C   0  0  0  0  0  0  0  0  0  0  0  0
   26.6635  -20.5878  -15.5220 C   0  0  2  0  0  0  0  0  0  0  0  0
   26.1709  -19.7602  -16.6561 N   0  0  0  0  0  0  0  0  0  0  0  0
   25.9247  -20.1436  -14.3565 C   0  0  0  0  0  0  0  0  0  0  0  0
   25.9694  -18.8750  -14.1359 O   0  0  0  0  0  0  0  0  0  0  0  0
   28.5769  -25.2828  -19.3388 C   0  0  0  0  0  0  0  0  0  0  0  0
   20.1175  -20.6186  -12.0754 S   0  0  0  0  0  0  0  0  0  0  0  0
   20.7591  -20.0219  -13.6571 C   0  0  0  0  0  0  0  0  0  0  0  0
   22.5401  -19.7446  -13.5182 C   0  0  0  0  0  0  0  0  0  0  0  0
   23.0716  -20.5149  -12.3285 C   0  0  2  0  0  0  0  0  0  0  0  0
   24.5537  -20.2568  -12.2450 N   0  0  0  0  0  0  0  0  0  0  0  0
   25.1735  -20.8691  -13.4276 C   0  0  0  0  0  0  0  0  0  0  0  0
   25.1760  -20.8997  -11.0585 O   0  0  0  0  0  0  0  0  0  0  0  0
   25.3994  -22.1414  -11.0003 C   0  0  0  0  0  0  0  0  0  0  0  0
   26.5125  -18.6591   -7.5480 C   0  0  1  0  0  0  0  0  0  0  0  0
   27.0218  -20.0007   -7.9642 C   0  0  0  0  0  0  0  0  0  0  0  0
   28.3087  -19.9161   -8.7428 C   0  0  1  0  0  0  0  0  0  0  0  0
   25.9605  -20.7944   -8.7012 N   0  0  0  0  0  0  0  0  0  0  0  0
   25.5547  -20.1315   -9.9145 C   0  0  0  0  0  0  0  0  0  0  0  0
   24.7758  -20.9020   -7.8147 O   0  0  0  0  0  0  0  0  0  0  0  0
   24.7864  -21.7354   -6.7161 O   0  0  0  0  0  0  0  0  0  0  0  0
  2  4  1  0
  2  1  1  0
  3  2  2  0
  5  4  1  0
  6  5  1  0
  7  6  1  0
  8  7  1  0
  8  9  1  6
 10 17  1  0
 10  8  1  0
 11 10  2  0
 13 12  1  0
 14 13  1  0
 16 15  1  6
 15 14  1  0
 16 17  1  0
 18 19  2  0
 18 16  1  0
 21 20  1  1
 21 23  1  0
 22 21  1  0
 23 25  1  0
 23 24  1  6
 24 18  1  0
 25 26  1  0
 27 25  2  0
M  END
$$$$
