RMV.pdb
     RDKit          3D

 27 26  0  0  1  0  0  0  0  0999 V2000
   27.5400  -16.7509  -18.3702 N   0  0  0  0  0  0  0  0  0  0  0  0
   26.2487  -16.9422  -17.8273 C   0  0  0  0  0  0  0  0  0  0  0  0
   25.2481  -17.3630  -18.5038 N   0  0  0  0  0  0  0  0  0  0  0  0
   26.0502  -16.6498  -16.4553 N   0  0  0  0  0  0  0  0  0  0  0  0
   27.1603  -16.1969  -15.6612 C   0  0  0  0  0  0  0  0  0  0  0  0
   27.9535  -17.4491  -15.2456 C   0  0  0  0  0  0  0  0  0  0  0  0
   27.0975  -18.3282  -14.3731 C   0  0  0  0  0  0  0  0  0  0  0  0
   27.7117  -19.5667  -13.9043 C   0  0  2  0  0  0  0  0  0  0  0  0
   27.9998  -20.4837  -15.0402 N   0  0  0  0  0  0  0  0  0  0  0  0
   27.0700  -20.3803  -12.8906 C   0  0  0  0  0  0  0  0  0  0  0  0
   26.5886  -21.4976  -13.3151 O   0  0  0  0  0  0  0  0  0  0  0  0
   24.2870  -17.5055  -18.1387 C   0  0  0  0  0  0  0  0  0  0  0  0
   27.3450  -20.6069   -6.4718 S   0  0  0  0  0  0  0  0  0  0  0  0
   25.6120  -21.0847   -6.6665 C   0  0  0  0  0  0  0  0  0  0  0  0
   25.2671  -21.4002   -8.4128 C   0  0  0  0  0  0  0  0  0  0  0  0
   26.2217  -20.5889   -9.2623 C   0  0  2  0  0  0  0  0  0  0  0  0
   25.9316  -20.9102  -10.7055 N   0  0  0  0  0  0  0  0  0  0  0  0
   26.8834  -20.1483  -11.5250 C   0  0  0  0  0  0  0  0  0  0  0  0
   24.5720  -20.4777  -11.1213 O   0  0  0  0  0  0  0  0  0  0  0  0
   24.2238  -19.2639  -11.1404 C   0  0  0  0  0  0  0  0  0  0  0  0
   23.1848  -21.5415  -14.4117 C   0  0  1  0  0  0  0  0  0  0  0  0
   22.0774  -21.7235  -13.4252 C   0  0  0  0  0  0  0  0  0  0  0  0
   20.7282  -21.3754  -13.9976 C   0  0  2  0  0  0  0  0  0  0  0  0
   22.3569  -20.9821  -12.1322 N   0  0  0  0  0  0  0  0  0  0  0  0
   23.5841  -21.4287  -11.5237 C   0  0  0  0  0  0  0  0  0  0  0  0
   21.2442  -21.2692  -11.1939 O   0  0  0  0  0  0  0  0  0  0  0  0
   20.0963  -20.5052  -11.2013 O   0  0  0  0  0  0  0  0  0  0  0  0
  2  4  1  0
  2  1  1  0
  3  2  2  0
  5  4  1  0
  6  5  1  0
  7  6  1  0
  8  7  1  0
  8  9  1  6
 10 17  1  0
 10  8  1  0
 11 10  2  0
 13 12  1  0
 14 13  1  0
 16 15  1  1
 15 14  1  0
 16 17  1  0
 18 19  2  0
 18 16  1  0
 21 20  1  6
 21 23  1  0
 22 21  1  0
 23 25  1  0
 23 24  1  6
 24 18  1  0
 25 26  1  0
 27 25  2  0
M  END
$$$$
