RMV.pdb
     RDKit          3D

 27 26  0  0  1  0  0  0  0  0999 V2000
   25.6984  -23.2755  -15.5350 N   0  0  0  0  0  0  0  0  0  0  0  0
   26.5893  -22.2579  -15.9468 C   0  0  0  0  0  0  0  0  0  0  0  0
   27.4520  -22.4027  -16.8798 N   0  0  0  0  0  0  0  0  0  0  0  0
   26.5244  -21.0055  -15.2875 N   0  0  0  0  0  0  0  0  0  0  0  0
   25.4773  -20.7629  -14.3320 C   0  0  0  0  0  0  0  0  0  0  0  0
   24.1704  -20.6067  -15.1304 C   0  0  0  0  0  0  0  0  0  0  0  0
   23.0297  -21.2251  -14.3668 C   0  0  0  0  0  0  0  0  0  0  0  0
   22.5603  -20.4877  -13.1977 C   0  0  2  0  0  0  0  0  0  0  0  0
   23.1404  -19.1180  -13.1615 N   0  0  0  0  0  0  0  0  0  0  0  0
   22.7262  -21.0243  -11.8613 C   0  0  0  0  0  0  0  0  0  0  0  0
   22.4737  -22.2825  -11.7458 O   0  0  0  0  0  0  0  0  0  0  0  0
   28.1920  -21.7201  -17.1318 C   0  0  0  0  0  0  0  0  0  0  0  0
   26.7835  -19.5402   -7.2734 S   0  0  0  0  0  0  0  0  0  0  0  0
   25.5804  -20.3626   -6.2031 C   0  0  0  0  0  0  0  0  0  0  0  0
   24.2943  -21.1260   -7.2187 C   0  0  0  0  0  0  0  0  0  0  0  0
   24.1820  -20.3732   -8.5270 C   0  0  2  0  0  0  0  0  0  0  0  0
   23.1732  -21.0953   -9.3821 N   0  0  0  0  0  0  0  0  0  0  0  0
   23.1119  -20.3973  -10.6732 C   0  0  0  0  0  0  0  0  0  0  0  0
   21.8036  -21.0467   -8.8076 O   0  0  0  0  0  0  0  0  0  0  0  0
   21.1201  -19.9852   -8.7751 C   0  0  0  0  0  0  0  0  0  0  0  0
   19.1978  -24.3311   -8.7067 C   0  0  1  0  0  0  0  0  0  0  0  0
   18.8623  -22.8793   -8.5962 C   0  0  0  0  0  0  0  0  0  0  0  0
   18.6965  -22.2189   -9.9400 C   0  0  1  0  0  0  0  0  0  0  0  0
   19.8563  -22.1440   -7.7181 N   0  0  0  0  0  0  0  0  0  0  0  0
   21.1899  -22.2149   -8.2589 C   0  0  0  0  0  0  0  0  0  0  0  0
   19.8610  -22.8012   -6.3881 O   0  0  0  0  0  0  0  0  0  0  0  0
   18.7690  -22.7136   -5.5507 O   0  0  0  0  0  0  0  0  0  0  0  0
  2  4  1  0
  2  1  1  0
  3  2  2  0
  5  4  1  0
  6  5  1  0
  7  6  1  0
  8  7  1  0
  8  9  1  1
 10 17  1  0
 10  8  1  0
 11 10  2  0
 13 12  1  0
 14 13  1  0
 16 15  1  6
 15 14  1  0
 16 17  1  0
 18 19  2  0
 18 16  1  0
 21 20  1  1
 21 23  1  0
 22 21  1  0
 23 25  1  0
 23 24  1  6
 24 18  1  0
 25 26  1  0
 27 25  2  0
M  END
$$$$
