RMV.pdb
     RDKit          3D

 27 26  0  0  1  0  0  0  0  0999 V2000
   30.1403  -20.4330  -19.6157 N   0  0  0  0  0  0  0  0  0  0  0  0
   29.3830  -21.5470  -20.0450 C   0  0  0  0  0  0  0  0  0  0  0  0
   29.5335  -22.1138  -21.1815 N   0  0  0  0  0  0  0  0  0  0  0  0
   28.3993  -22.0651  -19.1667 N   0  0  0  0  0  0  0  0  0  0  0  0
   27.9784  -21.2826  -18.0360 C   0  0  0  0  0  0  0  0  0  0  0  0
   28.8280  -21.7376  -16.8356 C   0  0  0  0  0  0  0  0  0  0  0  0
   27.9309  -22.0702  -15.6732 C   0  0  0  0  0  0  0  0  0  0  0  0
   27.1565  -20.9643  -15.1182 C   0  0  2  0  0  0  0  0  0  0  0  0
   28.0498  -19.9144  -14.5582 N   0  0  0  0  0  0  0  0  0  0  0  0
   26.1388  -21.1971  -14.1123 C   0  0  0  0  0  0  0  0  0  0  0  0
   25.3145  -22.1495  -14.3837 O   0  0  0  0  0  0  0  0  0  0  0  0
   28.9700  -22.9075  -21.5419 C   0  0  0  0  0  0  0  0  0  0  0  0
   25.8292  -19.4927   -7.8745 S   0  0  0  0  0  0  0  0  0  0  0  0
   26.7982  -20.9059   -8.4518 C   0  0  0  0  0  0  0  0  0  0  0  0
   26.0850  -21.5374   -9.9883 C   0  0  0  0  0  0  0  0  0  0  0  0
   25.2035  -20.4709  -10.6021 C   0  0  2  0  0  0  0  0  0  0  0  0
   24.8180  -20.9381  -11.9817 N   0  0  0  0  0  0  0  0  0  0  0  0
   25.9021  -20.5526  -12.8949 C   0  0  0  0  0  0  0  0  0  0  0  0
   23.5855  -20.2753  -12.4818 O   0  0  0  0  0  0  0  0  0  0  0  0
   23.5220  -19.0310  -12.6885 C   0  0  0  0  0  0  0  0  0  0  0  0
   20.5873  -22.2984  -14.6514 C   0  0  1  0  0  0  0  0  0  0  0  0
   20.8283  -20.8243  -14.6151 C   0  0  0  0  0  0  0  0  0  0  0  0
   21.8166  -20.3727  -15.6586 C   0  0  1  0  0  0  0  0  0  0  0  0
   21.2139  -20.3578  -13.2247 N   0  0  0  0  0  0  0  0  0  0  0  0
   22.4008  -21.0263  -12.7552 C   0  0  0  0  0  0  0  0  0  0  0  0
   20.0989  -20.6957  -12.3063 O   0  0  0  0  0  0  0  0  0  0  0  0
   18.9388  -19.9504  -12.2962 O   0  0  0  0  0  0  0  0  0  0  0  0
  2  4  1  0
  2  1  1  0
  3  2  2  0
  5  4  1  0
  6  5  1  0
  7  6  1  0
  8  7  1  0
  8  9  1  1
 10 17  1  0
 10  8  1  0
 11 10  2  0
 13 12  1  0
 14 13  1  0
 16 15  1  1
 15 14  1  0
 16 17  1  0
 18 19  2  0
 18 16  1  0
 21 20  1  6
 21 23  1  0
 22 21  1  0
 23 25  1  0
 23 24  1  6
 24 18  1  0
 25 26  1  0
 27 25  2  0
M  END
$$$$
