RMV.pdb
     RDKit          3D

 27 26  0  0  1  0  0  0  0  0999 V2000
   19.5952  -20.9906  -10.3786 N   0  0  0  0  0  0  0  0  0  0  0  0
   19.3762  -21.6005  -11.6351 C   0  0  0  0  0  0  0  0  0  0  0  0
   20.0512  -21.3259  -12.6862 N   0  0  0  0  0  0  0  0  0  0  0  0
   18.3491  -22.5710  -11.7372 N   0  0  0  0  0  0  0  0  0  0  0  0
   17.6417  -22.9790  -10.5535 C   0  0  0  0  0  0  0  0  0  0  0  0
   18.3818  -24.2059   -9.9905 C   0  0  0  0  0  0  0  0  0  0  0  0
   17.6488  -24.7350   -8.7865 C   0  0  0  0  0  0  0  0  0  0  0  0
   18.2073  -25.9320   -8.1652 C   0  0  2  0  0  0  0  0  0  0  0  0
   18.0653  -27.1136   -9.0582 N   0  0  0  0  0  0  0  0  0  0  0  0
   17.7640  -26.3688   -6.8559 C   0  0  0  0  0  0  0  0  0  0  0  0
   16.7494  -27.1630   -6.8628 O   0  0  0  0  0  0  0  0  0  0  0  0
   19.8998  -21.7359  -13.6276 C   0  0  0  0  0  0  0  0  0  0  0  0
   20.2325  -25.6859   -0.8117 S   0  0  0  0  0  0  0  0  0  0  0  0
   19.1674  -27.1404   -0.6728 C   0  0  0  0  0  0  0  0  0  0  0  0
   17.9760  -27.1462   -2.0326 C   0  0  0  0  0  0  0  0  0  0  0  0
   18.6459  -26.6164   -3.2823 C   0  0  2  0  0  0  0  0  0  0  0  0
   17.5858  -26.4826   -4.3446 N   0  0  0  0  0  0  0  0  0  0  0  0
   18.2556  -26.0647   -5.5833 C   0  0  0  0  0  0  0  0  0  0  0  0
   16.5901  -25.4274   -4.0234 O   0  0  0  0  0  0  0  0  0  0  0  0
   16.8005  -24.2041   -4.2568 C   0  0  0  0  0  0  0  0  0  0  0  0
   12.5761  -26.3618   -2.7350 C   0  0  1  0  0  0  0  0  0  0  0  0
   12.9779  -25.0993   -3.4257 C   0  0  0  0  0  0  0  0  0  0  0  0
   12.7456  -25.1533   -4.9132 C   0  0  1  0  0  0  0  0  0  0  0  0
   14.4027  -24.7079   -3.0848 N   0  0  0  0  0  0  0  0  0  0  0  0
   15.3325  -25.7536   -3.4279 C   0  0  0  0  0  0  0  0  0  0  0  0
   14.4752  -24.4871   -1.6196 O   0  0  0  0  0  0  0  0  0  0  0  0
   13.9254  -23.3607   -1.0448 O   0  0  0  0  0  0  0  0  0  0  0  0
  2  4  1  0
  2  1  1  0
  3  2  2  0
  5  4  1  0
  6  5  1  0
  7  6  1  0
  8  7  1  0
  8  9  1  6
 10 17  1  0
 10  8  1  0
 11 10  2  0
 13 12  1  0
 14 13  1  0
 16 15  1  6
 15 14  1  0
 16 17  1  0
 18 19  2  0
 18 16  1  0
 21 20  1  1
 21 23  1  0
 22 21  1  0
 23 25  1  0
 23 24  1  6
 24 18  1  0
 25 26  1  0
 27 25  2  0
M  END
$$$$
