RMV.pdb
     RDKit          3D

 27 26  0  0  1  0  0  0  0  0999 V2000
   24.2762  -19.1068  -17.1880 N   0  0  0  0  0  0  0  0  0  0  0  0
   24.6792  -17.9807  -16.4341 C   0  0  0  0  0  0  0  0  0  0  0  0
   24.2702  -16.7902  -16.6602 N   0  0  0  0  0  0  0  0  0  0  0  0
   25.5898  -18.1814  -15.3673 N   0  0  0  0  0  0  0  0  0  0  0  0
   26.2453  -19.4537  -15.2273 C   0  0  0  0  0  0  0  0  0  0  0  0
   27.1045  -19.3764  -13.9523 C   0  0  0  0  0  0  0  0  0  0  0  0
   26.7314  -20.4964  -13.0177 C   0  0  0  0  0  0  0  0  0  0  0  0
   25.7346  -20.1819  -11.9986 C   0  0  2  0  0  0  0  0  0  0  0  0
   25.4847  -18.7168  -11.9296 N   0  0  0  0  0  0  0  0  0  0  0  0
   25.9059  -20.6202  -10.6275 C   0  0  0  0  0  0  0  0  0  0  0  0
   25.9787  -21.8970  -10.4703 O   0  0  0  0  0  0  0  0  0  0  0  0
   24.5749  -15.9382  -16.1517 C   0  0  0  0  0  0  0  0  0  0  0  0
   29.2396  -18.2927   -5.8725 S   0  0  0  0  0  0  0  0  0  0  0  0
   28.1082  -19.2484   -4.8351 C   0  0  0  0  0  0  0  0  0  0  0  0
   27.0305  -20.2509   -5.8849 C   0  0  0  0  0  0  0  0  0  0  0  0
   26.9131  -19.5967   -7.2448 C   0  0  2  0  0  0  0  0  0  0  0  0
   26.0850  -20.5049   -8.1163 N   0  0  0  0  0  0  0  0  0  0  0  0
   26.0006  -19.8824   -9.4442 C   0  0  0  0  0  0  0  0  0  0  0  0
   24.6899  -20.6468   -7.6244 O   0  0  0  0  0  0  0  0  0  0  0  0
   23.8282  -19.7333   -7.7589 C   0  0  0  0  0  0  0  0  0  0  0  0
   21.0072  -23.5290   -6.1002 C   0  0  1  0  0  0  0  0  0  0  0  0
   22.4576  -23.4086   -6.4381 C   0  0  0  0  0  0  0  0  0  0  0  0
   23.3359  -24.2166   -5.5188 C   0  0  2  0  0  0  0  0  0  0  0  0
   22.8927  -21.9579   -6.5134 N   0  0  0  0  0  0  0  0  0  0  0  0
   24.2547  -21.8395   -6.9683 C   0  0  0  0  0  0  0  0  0  0  0  0
   22.8105  -21.3872   -5.1465 O   0  0  0  0  0  0  0  0  0  0  0  0
   23.9238  -21.3283   -4.3352 O   0  0  0  0  0  0  0  0  0  0  0  0
  2  4  1  0
  2  1  1  0
  3  2  2  0
  5  4  1  0
  6  5  1  0
  7  6  1  0
  8  7  1  0
  8  9  1  1
 10 17  1  0
 10  8  1  0
 11 10  2  0
 13 12  1  0
 14 13  1  0
 16 15  1  6
 15 14  1  0
 16 17  1  0
 18 19  2  0
 18 16  1  0
 21 20  1  6
 21 23  1  0
 22 21  1  0
 23 25  1  0
 23 24  1  1
 24 18  1  0
 25 26  1  0
 27 25  2  0
M  END
$$$$
