RMV.pdb
     RDKit          3D

 27 26  0  0  1  0  0  0  0  0999 V2000
   26.6188  -15.1723  -17.8434 N   0  0  0  0  0  0  0  0  0  0  0  0
   27.8921  -15.1231  -17.2309 C   0  0  0  0  0  0  0  0  0  0  0  0
   28.9778  -14.8899  -17.8654 N   0  0  0  0  0  0  0  0  0  0  0  0
   27.9711  -15.3463  -15.8340 N   0  0  0  0  0  0  0  0  0  0  0  0
   27.4809  -16.5826  -15.2868 C   0  0  0  0  0  0  0  0  0  0  0  0
   27.0018  -17.4383  -16.4733 C   0  0  0  0  0  0  0  0  0  0  0  0
   26.4493  -18.7449  -15.9690 C   0  0  0  0  0  0  0  0  0  0  0  0
   27.2693  -19.4601  -14.9959 C   0  0  2  0  0  0  0  0  0  0  0  0
   28.1937  -20.4103  -15.6716 N   0  0  0  0  0  0  0  0  0  0  0  0
   26.6606  -20.2031  -13.9101 C   0  0  0  0  0  0  0  0  0  0  0  0
   26.3757  -21.4295  -14.1837 O   0  0  0  0  0  0  0  0  0  0  0  0
   29.9212  -14.8053  -17.4410 C   0  0  0  0  0  0  0  0  0  0  0  0
   27.4887  -20.6075   -7.5388 S   0  0  0  0  0  0  0  0  0  0  0  0
   25.6868  -20.7272   -7.6298 C   0  0  0  0  0  0  0  0  0  0  0  0
   25.1949  -21.1295   -9.3223 C   0  0  0  0  0  0  0  0  0  0  0  0
   25.9489  -20.2367  -10.2844 C   0  0  2  0  0  0  0  0  0  0  0  0
   25.5723  -20.6541  -11.6823 N   0  0  0  0  0  0  0  0  0  0  0  0
   26.3270  -19.8042  -12.6128 C   0  0  0  0  0  0  0  0  0  0  0  0
   24.1326  -20.4286  -11.9737 O   0  0  0  0  0  0  0  0  0  0  0  0
   23.6286  -19.2726  -12.0427 C   0  0  0  0  0  0  0  0  0  0  0  0
   22.4887  -22.3056  -14.9509 C   0  0  1  0  0  0  0  0  0  0  0  0
   21.5700  -22.3476  -13.7733 C   0  0  0  0  0  0  0  0  0  0  0  0
   20.1179  -22.2787  -14.1683 C   0  0  2  0  0  0  0  0  0  0  0  0
   21.9326  -21.2918  -12.7470 N   0  0  0  0  0  0  0  0  0  0  0  0
   23.2417  -21.5245  -12.1919 C   0  0  0  0  0  0  0  0  0  0  0  0
   20.9425  -21.3701  -11.6450 O   0  0  0  0  0  0  0  0  0  0  0  0
   21.2071  -22.0999  -10.5053 O   0  0  0  0  0  0  0  0  0  0  0  0
  2  4  1  0
  2  1  1  0
  3  2  2  0
  5  4  1  0
  6  5  1  0
  7  6  1  0
  8  7  1  0
  8  9  1  6
 10 17  1  0
 10  8  1  0
 11 10  2  0
 13 12  1  0
 14 13  1  0
 16 15  1  6
 15 14  1  0
 16 17  1  0
 18 19  2  0
 18 16  1  0
 21 20  1  6
 21 23  1  0
 22 21  1  0
 23 25  1  0
 23 24  1  6
 24 18  1  0
 25 26  1  0
 27 25  2  0
M  END
$$$$
