RMV.pdb
     RDKit          3D

 27 26  0  0  1  0  0  0  0  0999 V2000
   21.4968  -17.4040  -14.1683 N   0  0  0  0  0  0  0  0  0  0  0  0
   21.6288  -18.0636  -15.4118 C   0  0  0  0  0  0  0  0  0  0  0  0
   21.7804  -17.4555  -16.5267 N   0  0  0  0  0  0  0  0  0  0  0  0
   21.5896  -19.4798  -15.4248 N   0  0  0  0  0  0  0  0  0  0  0  0
   22.0656  -20.2108  -14.2815 C   0  0  0  0  0  0  0  0  0  0  0  0
   23.6000  -20.2654  -14.3924 C   0  0  0  0  0  0  0  0  0  0  0  0
   24.1612  -21.1148  -13.2832 C   0  0  0  0  0  0  0  0  0  0  0  0
   25.3927  -20.6355  -12.6629 C   0  0  2  0  0  0  0  0  0  0  0  0
   26.5888  -21.1405  -13.3895 N   0  0  0  0  0  0  0  0  0  0  0  0
   25.6572  -20.8643  -11.2560 C   0  0  0  0  0  0  0  0  0  0  0  0
   25.8636  -22.0950  -10.9352 O   0  0  0  0  0  0  0  0  0  0  0  0
   21.8728  -17.9084  -17.4560 C   0  0  0  0  0  0  0  0  0  0  0  0
   28.4233  -19.2545   -4.1726 S   0  0  0  0  0  0  0  0  0  0  0  0
   28.1306  -18.6921   -5.8660 C   0  0  0  0  0  0  0  0  0  0  0  0
   26.9953  -19.8316   -6.6911 C   0  0  0  0  0  0  0  0  0  0  0  0
   26.8508  -19.4253   -8.1420 C   0  0  1  0  0  0  0  0  0  0  0  0
   25.8953  -20.3921   -8.7920 N   0  0  0  0  0  0  0  0  0  0  0  0
   25.7205  -19.9662  -10.1869 C   0  0  0  0  0  0  0  0  0  0  0  0
   24.5471  -20.3644   -8.1674 O   0  0  0  0  0  0  0  0  0  0  0  0
   23.7845  -19.3608   -8.2468 C   0  0  0  0  0  0  0  0  0  0  0  0
   22.8816  -23.7676   -5.9868 C   0  0  1  0  0  0  0  0  0  0  0  0
   22.0867  -22.8039   -6.8066 C   0  0  0  0  0  0  0  0  0  0  0  0
   21.7908  -23.3251   -8.1887 C   0  0  1  0  0  0  0  0  0  0  0  0
   22.7366  -21.4342   -6.8405 N   0  0  0  0  0  0  0  0  0  0  0  0
   24.0461  -21.4873   -7.4392 C   0  0  0  0  0  0  0  0  0  0  0  0
   22.8868  -20.9675   -5.4404 O   0  0  0  0  0  0  0  0  0  0  0  0
   21.8022  -20.4988   -4.7295 O   0  0  0  0  0  0  0  0  0  0  0  0
  2  4  1  0
  2  1  1  0
  3  2  2  0
  5  4  1  0
  6  5  1  0
  7  6  1  0
  8  7  1  0
  8  9  1  6
 10 17  1  0
 10  8  1  0
 11 10  2  0
 13 12  1  0
 14 13  1  0
 16 15  1  6
 15 14  1  0
 16 17  1  0
 18 19  2  0
 18 16  1  0
 21 20  1  1
 21 23  1  0
 22 21  1  0
 23 25  1  0
 23 24  1  6
 24 18  1  0
 25 26  1  0
 27 25  2  0
M  END
$$$$
