RMV.pdb
     RDKit          3D

 27 26  0  0  1  0  0  0  0  0999 V2000
   31.8121  -24.7810  -16.9310 N   0  0  0  0  0  0  0  0  0  0  0  0
   30.8427  -24.5090  -17.9236 C   0  0  0  0  0  0  0  0  0  0  0  0
   30.7424  -25.1635  -19.0178 N   0  0  0  0  0  0  0  0  0  0  0  0
   29.9303  -23.4496  -17.6945 N   0  0  0  0  0  0  0  0  0  0  0  0
   30.2783  -22.4044  -16.7699 C   0  0  0  0  0  0  0  0  0  0  0  0
   29.5973  -22.7455  -15.4321 C   0  0  0  0  0  0  0  0  0  0  0  0
   28.1454  -22.3503  -15.4839 C   0  0  0  0  0  0  0  0  0  0  0  0
   27.7475  -21.2397  -14.6241 C   0  0  2  0  0  0  0  0  0  0  0  0
   28.9324  -20.4584  -14.1776 N   0  0  0  0  0  0  0  0  0  0  0  0
   26.9502  -21.4658  -13.4347 C   0  0  0  0  0  0  0  0  0  0  0  0
   26.0659  -22.3968  -13.5423 O   0  0  0  0  0  0  0  0  0  0  0  0
   30.0091  -25.0279  -19.7396 C   0  0  0  0  0  0  0  0  0  0  0  0
   27.9637  -20.0567   -7.2698 S   0  0  0  0  0  0  0  0  0  0  0  0
   26.1603  -20.1620   -7.1915 C   0  0  0  0  0  0  0  0  0  0  0  0
   25.5256  -20.7959   -8.7611 C   0  0  0  0  0  0  0  0  0  0  0  0
   26.5242  -20.4959   -9.8583 C   0  0  2  0  0  0  0  0  0  0  0  0
   25.9901  -21.0922  -11.1348 N   0  0  0  0  0  0  0  0  0  0  0  0
   26.9807  -20.8342  -12.1883 C   0  0  0  0  0  0  0  0  0  0  0  0
   24.7245  -20.4500  -11.5754 O   0  0  0  0  0  0  0  0  0  0  0  0
   24.6364  -19.2102  -11.7996 C   0  0  0  0  0  0  0  0  0  0  0  0
   21.5732  -22.6451  -13.4289 C   0  0  1  0  0  0  0  0  0  0  0  0
   21.8930  -21.1933  -13.5789 C   0  0  0  0  0  0  0  0  0  0  0  0
   22.8764  -20.9281  -14.6889 C   0  0  1  0  0  0  0  0  0  0  0  0
   22.3389  -20.5832  -12.2642 N   0  0  0  0  0  0  0  0  0  0  0  0
   23.5340  -21.2168  -11.7680 C   0  0  0  0  0  0  0  0  0  0  0  0
   21.2561  -20.7978  -11.2731 O   0  0  0  0  0  0  0  0  0  0  0  0
   20.0640  -20.1109  -11.3662 O   0  0  0  0  0  0  0  0  0  0  0  0
  2  4  1  0
  2  1  1  0
  3  2  2  0
  5  4  1  0
  6  5  1  0
  7  6  1  0
  8  7  1  0
  8  9  1  1
 10 17  1  0
 10  8  1  0
 11 10  2  0
 13 12  1  0
 14 13  1  0
 16 15  1  1
 15 14  1  0
 16 17  1  0
 18 19  2  0
 18 16  1  0
 21 20  1  6
 21 23  1  0
 22 21  1  0
 23 25  1  0
 23 24  1  6
 24 18  1  0
 25 26  1  0
 27 25  2  0
M  END
$$$$
