RMV.pdb
     RDKit          3D

 27 26  0  0  1  0  0  0  0  0999 V2000
   18.2107  -21.5601  -10.6601 N   0  0  0  0  0  0  0  0  0  0  0  0
   17.4107  -22.4053  -11.4630 C   0  0  0  0  0  0  0  0  0  0  0  0
   16.5286  -23.2045  -10.9951 N   0  0  0  0  0  0  0  0  0  0  0  0
   17.5972  -22.3665  -12.8669 N   0  0  0  0  0  0  0  0  0  0  0  0
   18.8220  -21.8368  -13.4030 C   0  0  0  0  0  0  0  0  0  0  0  0
   19.9725  -22.4652  -12.5959 C   0  0  0  0  0  0  0  0  0  0  0  0
   21.0163  -21.4215  -12.2992 C   0  0  0  0  0  0  0  0  0  0  0  0
   22.2627  -21.5226  -13.0522 C   0  0  2  0  0  0  0  0  0  0  0  0
   22.6664  -22.9438  -13.2293 N   0  0  0  0  0  0  0  0  0  0  0  0
   23.4555  -20.8227  -12.6178 C   0  0  0  0  0  0  0  0  0  0  0  0
   23.3996  -19.5394  -12.7190 O   0  0  0  0  0  0  0  0  0  0  0  0
   15.9033  -23.8129  -11.5573 C   0  0  0  0  0  0  0  0  0  0  0  0
   28.2247  -20.6452   -8.1019 S   0  0  0  0  0  0  0  0  0  0  0  0
   26.4367  -20.8041   -7.8846 C   0  0  0  0  0  0  0  0  0  0  0  0
   25.6063  -20.4517   -9.4513 C   0  0  0  0  0  0  0  0  0  0  0  0
   26.4787  -20.9258  -10.5937 C   0  0  2  0  0  0  0  0  0  0  0  0
   25.8377  -20.4651  -11.8771 N   0  0  0  0  0  0  0  0  0  0  0  0
   24.6615  -21.3138  -12.1100 C   0  0  0  0  0  0  0  0  0  0  0  0
   26.7291  -20.6428  -13.0527 O   0  0  0  0  0  0  0  0  0  0  0  0
   27.3877  -21.7024  -13.2492 C   0  0  0  0  0  0  0  0  0  0  0  0
   25.7294  -21.3277  -16.1505 C   0  0  1  0  0  0  0  0  0  0  0  0
   26.5659  -20.1144  -16.3970 C   0  0  0  0  0  0  0  0  0  0  0  0
   27.2368  -20.1372  -17.7456 C   0  0  2  0  0  0  0  0  0  0  0  0
   27.5556  -19.8831  -15.2715 N   0  0  0  0  0  0  0  0  0  0  0  0
   26.8832  -19.6088  -14.0271 C   0  0  0  0  0  0  0  0  0  0  0  0
   28.3767  -18.6990  -15.6244 O   0  0  0  0  0  0  0  0  0  0  0  0
   29.4317  -18.8056  -16.5059 O   0  0  0  0  0  0  0  0  0  0  0  0
  2  4  1  0
  2  1  1  0
  3  2  2  0
  5  4  1  0
  6  5  1  0
  7  6  1  0
  8  7  1  0
  8  9  1  1
 10 17  1  0
 10  8  1  0
 11 10  2  0
 13 12  1  0
 14 13  1  0
 16 15  1  1
 15 14  1  0
 16 17  1  0
 18 19  2  0
 18 16  1  0
 21 20  1  6
 21 23  1  0
 22 21  1  0
 23 25  1  0
 23 24  1  1
 24 18  1  0
 25 26  1  0
 27 25  2  0
M  END
$$$$
