RMV.pdb
     RDKit          3D

 27 26  0  0  1  0  0  0  0  0999 V2000
   23.7854  -17.2528  -17.4870 N   0  0  0  0  0  0  0  0  0  0  0  0
   22.6294  -18.0485  -17.3157 C   0  0  0  0  0  0  0  0  0  0  0  0
   21.5075  -17.8032  -17.8787 N   0  0  0  0  0  0  0  0  0  0  0  0
   22.7174  -19.1824  -16.4709 N   0  0  0  0  0  0  0  0  0  0  0  0
   23.9075  -19.3926  -15.6914 C   0  0  0  0  0  0  0  0  0  0  0  0
   23.6598  -18.7502  -14.3145 C   0  0  0  0  0  0  0  0  0  0  0  0
   23.8474  -19.7788  -13.2311 C   0  0  0  0  0  0  0  0  0  0  0  0
   25.2266  -20.0892  -12.8673 C   0  0  2  0  0  0  0  0  0  0  0  0
   25.8245  -21.0628  -13.8204 N   0  0  0  0  0  0  0  0  0  0  0  0
   25.5569  -20.5768  -11.5427 C   0  0  0  0  0  0  0  0  0  0  0  0
   25.3553  -21.8365  -11.3615 O   0  0  0  0  0  0  0  0  0  0  0  0
   20.6356  -18.3528  -17.7567 C   0  0  0  0  0  0  0  0  0  0  0  0
   29.5973  -19.1628   -6.5730 S   0  0  0  0  0  0  0  0  0  0  0  0
   27.9911  -19.2569   -5.7479 C   0  0  0  0  0  0  0  0  0  0  0  0
   26.8298  -20.1662   -6.7932 C   0  0  0  0  0  0  0  0  0  0  0  0
   26.8380  -19.5668   -8.1831 C   0  0  2  0  0  0  0  0  0  0  0  0
   25.9899  -20.4478   -9.0634 N   0  0  0  0  0  0  0  0  0  0  0  0
   26.0553  -19.9011  -10.4253 C   0  0  0  0  0  0  0  0  0  0  0  0
   24.5573  -20.4342   -8.6686 O   0  0  0  0  0  0  0  0  0  0  0  0
   23.8359  -19.4028   -8.7728 C   0  0  0  0  0  0  0  0  0  0  0  0
   21.7952  -22.0895  -10.0708 C   0  0  1  0  0  0  0  0  0  0  0  0
   21.6858  -22.4613   -8.6278 C   0  0  0  0  0  0  0  0  0  0  0  0
   20.2577  -22.5261   -8.1526 C   0  0  2  0  0  0  0  0  0  0  0  0
   22.5370  -21.5596   -7.7550 N   0  0  0  0  0  0  0  0  0  0  0  0
   23.9229  -21.6034   -8.1463 C   0  0  0  0  0  0  0  0  0  0  0  0
   22.4350  -22.0504   -6.3587 O   0  0  0  0  0  0  0  0  0  0  0  0
   23.2972  -23.0152   -5.8821 O   0  0  0  0  0  0  0  0  0  0  0  0
  2  4  1  0
  2  1  1  0
  3  2  2  0
  5  4  1  0
  6  5  1  0
  7  6  1  0
  8  7  1  0
  8  9  1  6
 10 17  1  0
 10  8  1  0
 11 10  2  0
 13 12  1  0
 14 13  1  0
 16 15  1  6
 15 14  1  0
 16 17  1  0
 18 19  2  0
 18 16  1  0
 21 20  1  6
 21 23  1  0
 22 21  1  0
 23 25  1  0
 23 24  1  1
 24 18  1  0
 25 26  1  0
 27 25  2  0
M  END
$$$$
