RMV.pdb
     RDKit          3D

 27 26  0  0  1  0  0  0  0  0999 V2000
   21.1856  -27.4884  -12.3459 N   0  0  0  0  0  0  0  0  0  0  0  0
   20.2134  -26.5677  -11.8920 C   0  0  0  0  0  0  0  0  0  0  0  0
   19.3073  -26.8545  -11.0361 N   0  0  0  0  0  0  0  0  0  0  0  0
   20.2430  -25.2516  -12.4158 N   0  0  0  0  0  0  0  0  0  0  0  0
   21.3206  -24.8603  -13.2841 C   0  0  0  0  0  0  0  0  0  0  0  0
   20.6858  -24.1469  -14.4915 C   0  0  0  0  0  0  0  0  0  0  0  0
   21.3545  -22.8151  -14.7059 C   0  0  0  0  0  0  0  0  0  0  0  0
   21.1896  -21.8309  -13.6404 C   0  0  2  0  0  0  0  0  0  0  0  0
   20.1100  -20.8617  -13.9704 N   0  0  0  0  0  0  0  0  0  0  0  0
   22.3104  -21.0349  -13.1804 C   0  0  0  0  0  0  0  0  0  0  0  0
   22.3321  -19.8232  -13.6180 O   0  0  0  0  0  0  0  0  0  0  0  0
   18.5420  -26.2238  -10.7299 C   0  0  0  0  0  0  0  0  0  0  0  0
   25.7725  -21.3896   -7.9324 S   0  0  0  0  0  0  0  0  0  0  0  0
   26.6112  -19.9563   -8.6478 C   0  0  0  0  0  0  0  0  0  0  0  0
   26.0761  -19.7389  -10.3609 C   0  0  0  0  0  0  0  0  0  0  0  0
   24.9465  -20.7026  -10.6548 C   0  0  2  0  0  0  0  0  0  0  0  0
   24.5009  -20.4619  -12.0738 N   0  0  0  0  0  0  0  0  0  0  0  0
   23.3769  -21.3691  -12.3411 C   0  0  0  0  0  0  0  0  0  0  0  0
   25.5581  -20.7920  -13.0646 O   0  0  0  0  0  0  0  0  0  0  0  0
   25.9519  -21.9750  -13.2660 C   0  0  0  0  0  0  0  0  0  0  0  0
   28.2847  -17.9199  -14.7949 C   0  0  1  0  0  0  0  0  0  0  0  0
   27.5767  -18.9112  -15.6601 C   0  0  0  0  0  0  0  0  0  0  0  0
   26.4398  -18.2969  -16.4344 C   0  0  1  0  0  0  0  0  0  0  0  0
   27.1359  -20.1266  -14.8676 N   0  0  0  0  0  0  0  0  0  0  0  0
   26.1851  -19.7720  -13.8448 C   0  0  0  0  0  0  0  0  0  0  0  0
   28.3350  -20.6974  -14.2064 O   0  0  0  0  0  0  0  0  0  0  0  0
   29.2143  -21.4990  -14.9034 O   0  0  0  0  0  0  0  0  0  0  0  0
  2  4  1  0
  2  1  1  0
  3  2  2  0
  5  4  1  0
  6  5  1  0
  7  6  1  0
  8  7  1  0
  8  9  1  6
 10 17  1  0
 10  8  1  0
 11 10  2  0
 13 12  1  0
 14 13  1  0
 16 15  1  1
 15 14  1  0
 16 17  1  0
 18 19  2  0
 18 16  1  0
 21 20  1  6
 21 23  1  0
 22 21  1  0
 23 25  1  0
 23 24  1  1
 24 18  1  0
 25 26  1  0
 27 25  2  0
M  END
$$$$
