KPV.pdb
     RDKit          3D

 24 24  0  0  1  0  0  0  0  0999 V2000
    8.9911  -15.0381   20.6532 N   0  0  0  0  0  0  0  0  0  0  0  0
    7.9730  -14.8473   21.6504 C   0  0  1  0  0  0  0  0  0  0  0  0
    7.0282  -16.0601   21.6994 C   0  0  0  0  0  0  0  0  0  0  0  0
    7.8455  -17.3083   21.9644 C   0  0  0  0  0  0  0  0  0  0  0  0
    7.0035  -18.5371   22.0568 C   0  0  0  0  0  0  0  0  0  0  0  0
    7.7885  -19.7926   22.2690 C   0  0  0  0  0  0  0  0  0  0  0  0
    6.8310  -20.8982   22.3110 N   0  0  0  0  0  0  0  0  0  0  0  0
    8.5319  -14.5661   22.9827 C   0  0  0  0  0  0  0  0  0  0  0  0
    9.8140  -14.6466   23.0446 O   0  0  0  0  0  0  0  0  0  0  0  0
    7.8368  -14.2299   24.1611 N   0  0  0  0  0  0  0  0  0  0  0  0
    6.4308  -14.2861   24.3827 C   0  0  0  0  0  0  0  0  0  0  0  0
    6.1840  -13.3168   25.5213 C   0  0  0  0  0  0  0  0  0  0  0  0
    7.5180  -12.6220   25.7562 C   0  0  0  0  0  0  0  0  0  0  0  0
    8.4507  -13.7772   25.3876 C   0  0  1  0  0  0  0  0  0  0  0  0
    8.3788  -14.8777   26.3700 C   0  0  0  0  0  0  0  0  0  0  0  0
    7.7453  -15.9481   26.1152 O   0  0  0  0  0  0  0  0  0  0  0  0
   10.2338  -15.1335   30.2874 C   0  0  0  0  0  0  0  0  0  0  0  0
   11.0206  -14.7990   29.0338 C   0  0  2  0  0  0  0  0  0  0  0  0
   11.1172  -13.3140   28.9362 C   0  0  0  0  0  0  0  0  0  0  0  0
   10.2962  -15.4230   27.8645 C   0  0  2  0  0  0  0  0  0  0  0  0
    9.0327  -14.7330   27.6259 N   0  0  0  0  0  0  0  0  0  0  0  0
   10.0457  -16.8381   28.2054 C   0  0  0  0  0  0  0  0  0  0  0  0
   11.1114  -17.7013   28.3378 O   0  0  0  0  0  0  0  0  0  0  0  0
    8.8905  -17.2574   28.3734 O   0  0  0  0  0  0  0  0  0  0  0  0
  2  1  1  6
  3  2  1  0
  4  3  1  0
  5  4  1  0
  5  6  1  0
  7  6  1  0
  8  2  1  0
  9  8  2  0
 10 11  1  0
 10  8  1  0
 12 11  1  0
 13 12  1  0
 13 14  1  0
 14 10  1  0
 15 16  2  0
 14 15  1  1
 18 17  1  1
 19 18  1  0
 20 18  1  0
 20 21  1  1
 21 15  1  0
 22 20  1  0
 23 22  1  0
 24 22  2  0
M  END
$$$$
