KPV.pdb
     RDKit          3D

 24 24  0  0  1  0  0  0  0  0999 V2000
    8.4142  -16.8704   16.1885 N   0  0  0  0  0  0  0  0  0  0  0  0
    7.6851  -16.4330   17.3480 C   0  0  1  0  0  0  0  0  0  0  0  0
    6.8277  -17.5783   17.9129 C   0  0  0  0  0  0  0  0  0  0  0  0
    7.7104  -18.7903   18.1316 C   0  0  0  0  0  0  0  0  0  0  0  0
    6.9500  -19.9707   18.6377 C   0  0  0  0  0  0  0  0  0  0  0  0
    7.7956  -21.1849   18.8572 C   0  0  0  0  0  0  0  0  0  0  0  0
    6.9087  -22.2486   19.3292 N   0  0  0  0  0  0  0  0  0  0  0  0
    8.5617  -15.8738   18.3897 C   0  0  0  0  0  0  0  0  0  0  0  0
    9.8126  -16.1138   18.2112 O   0  0  0  0  0  0  0  0  0  0  0  0
    8.1912  -15.1282   19.5262 N   0  0  0  0  0  0  0  0  0  0  0  0
    6.8735  -14.7860   19.9451 C   0  0  0  0  0  0  0  0  0  0  0  0
    7.0560  -13.5619   20.8198 C   0  0  0  0  0  0  0  0  0  0  0  0
    8.5243  -13.1838   20.6837 C   0  0  0  0  0  0  0  0  0  0  0  0
    9.1098  -14.5852   20.4995 C   0  0  1  0  0  0  0  0  0  0  0  0
    9.0029  -15.3926   21.7316 C   0  0  0  0  0  0  0  0  0  0  0  0
    7.9314  -16.0069   22.0260 O   0  0  0  0  0  0  0  0  0  0  0  0
   12.1286  -18.3020   24.0362 C   0  0  0  0  0  0  0  0  0  0  0  0
   11.8825  -17.0606   23.1990 C   0  0  2  0  0  0  0  0  0  0  0  0
   12.7486  -15.9697   23.7317 C   0  0  0  0  0  0  0  0  0  0  0  0
   10.4087  -16.7413   23.2846 C   0  0  2  0  0  0  0  0  0  0  0  0
   10.1238  -15.4823   22.6041 N   0  0  0  0  0  0  0  0  0  0  0  0
   10.0635  -16.6341   24.7167 C   0  0  0  0  0  0  0  0  0  0  0  0
    9.9513  -17.7801   25.4735 O   0  0  0  0  0  0  0  0  0  0  0  0
    9.8739  -15.5279   25.2446 O   0  0  0  0  0  0  0  0  0  0  0  0
  2  1  1  6
  3  2  1  0
  4  3  1  0
  5  4  1  0
  5  6  1  0
  7  6  1  0
  8  2  1  0
  9  8  2  0
 10 11  1  0
 10  8  1  0
 12 11  1  0
 13 12  1  0
 13 14  1  0
 14 10  1  0
 15 16  2  0
 14 15  1  1
 18 17  1  1
 19 18  1  0
 20 18  1  0
 20 21  1  6
 21 15  1  0
 22 20  1  0
 23 22  1  0
 24 22  2  0
M  END
$$$$
