KPV.pdb
     RDKit          3D

 24 24  0  0  1  0  0  0  0  0999 V2000
    8.7761  -15.2007   20.7687 N   0  0  0  0  0  0  0  0  0  0  0  0
    7.7921  -14.8845   21.7682 C   0  0  1  0  0  0  0  0  0  0  0  0
    6.6775  -15.9444   21.7859 C   0  0  0  0  0  0  0  0  0  0  0  0
    7.3031  -17.3112   21.9767 C   0  0  0  0  0  0  0  0  0  0  0  0
    6.8712  -18.2907   20.9366 C   0  0  0  0  0  0  0  0  0  0  0  0
    7.4829  -19.6467   21.0929 C   0  0  0  0  0  0  0  0  0  0  0  0
    6.9795  -20.4760   19.9976 N   0  0  0  0  0  0  0  0  0  0  0  0
    8.3790  -14.7212   23.1081 C   0  0  0  0  0  0  0  0  0  0  0  0
    9.5993  -15.1168   23.2012 O   0  0  0  0  0  0  0  0  0  0  0  0
    7.7684  -14.1960   24.2640 N   0  0  0  0  0  0  0  0  0  0  0  0
    6.4252  -13.7427   24.4034 C   0  0  0  0  0  0  0  0  0  0  0  0
    6.4632  -12.7908   25.5821 C   0  0  0  0  0  0  0  0  0  0  0  0
    7.9372  -12.6398   25.9316 C   0  0  0  0  0  0  0  0  0  0  0  0
    8.4128  -14.0421   25.5473 C   0  0  1  0  0  0  0  0  0  0  0  0
    7.8756  -15.0741   26.4572 C   0  0  0  0  0  0  0  0  0  0  0  0
    6.8469  -15.7521   26.1503 O   0  0  0  0  0  0  0  0  0  0  0  0
   12.1539  -14.9663   28.5527 C   0  0  0  0  0  0  0  0  0  0  0  0
   10.7118  -14.5129   28.4218 C   0  0  2  0  0  0  0  0  0  0  0  0
   10.1960  -14.2249   29.7912 C   0  0  0  0  0  0  0  0  0  0  0  0
    9.9519  -15.6156   27.7231 C   0  0  2  0  0  0  0  0  0  0  0  0
    8.5250  -15.3111   27.7013 N   0  0  0  0  0  0  0  0  0  0  0  0
   10.1937  -16.8631   28.4762 C   0  0  0  0  0  0  0  0  0  0  0  0
   11.3778  -17.5440   28.2956 O   0  0  0  0  0  0  0  0  0  0  0  0
    9.3457  -17.3036   29.2669 O   0  0  0  0  0  0  0  0  0  0  0  0
  2  1  1  6
  3  2  1  0
  4  3  1  0
  5  4  1  0
  5  6  1  0
  7  6  1  0
  8  2  1  0
  9  8  2  0
 10 11  1  0
 10  8  1  0
 12 11  1  0
 13 12  1  0
 13 14  1  0
 14 10  1  0
 15 16  2  0
 14 15  1  1
 18 17  1  1
 19 18  1  0
 20 18  1  0
 20 21  1  1
 21 15  1  0
 22 20  1  0
 23 22  1  0
 24 22  2  0
M  END
$$$$
