KPV.pdb
     RDKit          3D

 24 24  0  0  1  0  0  0  0  0999 V2000
    8.9968  -15.3536   20.3401 N   0  0  0  0  0  0  0  0  0  0  0  0
    8.3065  -15.8360   21.5055 C   0  0  1  0  0  0  0  0  0  0  0  0
    8.3727  -17.3710   21.5781 C   0  0  0  0  0  0  0  0  0  0  0  0
    7.7055  -17.8308   22.8586 C   0  0  0  0  0  0  0  0  0  0  0  0
    7.6238  -19.3175   22.9617 C   0  0  0  0  0  0  0  0  0  0  0  0
    6.9721  -19.8008   24.2183 C   0  0  0  0  0  0  0  0  0  0  0  0
    6.8182  -21.2506   24.0944 N   0  0  0  0  0  0  0  0  0  0  0  0
    8.8080  -15.2319   22.7504 C   0  0  0  0  0  0  0  0  0  0  0  0
   10.0829  -15.0643   22.7792 O   0  0  0  0  0  0  0  0  0  0  0  0
    8.0668  -14.8306   23.8794 N   0  0  0  0  0  0  0  0  0  0  0  0
    6.6769  -15.0310   24.1182 C   0  0  0  0  0  0  0  0  0  0  0  0
    6.3022  -13.9568   25.1195 C   0  0  0  0  0  0  0  0  0  0  0  0
    7.5375  -13.0767   25.2486 C   0  0  0  0  0  0  0  0  0  0  0  0
    8.6095  -14.1459   25.0294 C   0  0  1  0  0  0  0  0  0  0  0  0
    8.6666  -15.1061   26.1503 C   0  0  0  0  0  0  0  0  0  0  0  0
    8.1984  -16.2807   26.0361 O   0  0  0  0  0  0  0  0  0  0  0  0
    9.8230  -14.5301   30.1228 C   0  0  0  0  0  0  0  0  0  0  0  0
   10.9487  -14.7725   29.1347 C   0  0  2  0  0  0  0  0  0  0  0  0
   11.5483  -13.4512   28.7901 C   0  0  0  0  0  0  0  0  0  0  0  0
   10.3578  -15.4838   27.9403 C   0  0  2  0  0  0  0  0  0  0  0  0
    9.2581  -14.7045   27.3809 N   0  0  0  0  0  0  0  0  0  0  0  0
    9.8647  -16.7952   28.4079 C   0  0  0  0  0  0  0  0  0  0  0  0
   10.7651  -17.7342   28.8616 O   0  0  0  0  0  0  0  0  0  0  0  0
    8.6531  -17.0603   28.3968 O   0  0  0  0  0  0  0  0  0  0  0  0
  2  1  1  6
  3  2  1  0
  4  3  1  0
  5  4  1  0
  5  6  1  0
  7  6  1  0
  8  2  1  0
  9  8  2  0
 10 11  1  0
 10  8  1  0
 12 11  1  0
 13 12  1  0
 13 14  1  0
 14 10  1  0
 15 16  2  0
 14 15  1  1
 18 17  1  1
 19 18  1  0
 20 18  1  0
 20 21  1  1
 21 15  1  0
 22 20  1  0
 23 22  1  0
 24 22  2  0
M  END
$$$$
