KPV.pdb
     RDKit          3D

 24 24  0  0  1  0  0  0  0  0999 V2000
    9.1629  -15.2235   20.4651 N   0  0  0  0  0  0  0  0  0  0  0  0
    8.1772  -15.2182   21.5118 C   0  0  1  0  0  0  0  0  0  0  0  0
    7.5274  -16.6053   21.6515 C   0  0  0  0  0  0  0  0  0  0  0  0
    6.9202  -16.9990   20.3201 C   0  0  0  0  0  0  0  0  0  0  0  0
    7.5675  -18.2067   19.7284 C   0  0  0  0  0  0  0  0  0  0  0  0
    6.8946  -18.7068   18.4897 C   0  0  0  0  0  0  0  0  0  0  0  0
    7.6305  -19.8916   18.0473 N   0  0  0  0  0  0  0  0  0  0  0  0
    8.7236  -14.7650   22.8012 C   0  0  0  0  0  0  0  0  0  0  0  0
   10.0063  -14.6733   22.8275 O   0  0  0  0  0  0  0  0  0  0  0  0
    8.0167  -14.4321   23.9735 N   0  0  0  0  0  0  0  0  0  0  0  0
    6.6125  -14.5261   24.1937 C   0  0  0  0  0  0  0  0  0  0  0  0
    6.3353  -13.5479   25.3176 C   0  0  0  0  0  0  0  0  0  0  0  0
    7.6480  -12.8111   25.5444 C   0  0  0  0  0  0  0  0  0  0  0  0
    8.6147  -13.9439   25.1942 C   0  0  1  0  0  0  0  0  0  0  0  0
    8.5729  -15.0316   26.1925 C   0  0  0  0  0  0  0  0  0  0  0  0
    7.9764  -16.1258   25.9501 O   0  0  0  0  0  0  0  0  0  0  0  0
   10.2190  -15.1387   30.1383 C   0  0  0  0  0  0  0  0  0  0  0  0
   11.1369  -14.9708   28.9417 C   0  0  2  0  0  0  0  0  0  0  0  0
   11.4132  -13.5146   28.7771 C   0  0  0  0  0  0  0  0  0  0  0  0
   10.4406  -15.5798   27.7476 C   0  0  2  0  0  0  0  0  0  0  0  0
    9.2142  -14.8472   27.4496 N   0  0  0  0  0  0  0  0  0  0  0  0
   10.1246  -16.9816   28.0892 C   0  0  0  0  0  0  0  0  0  0  0  0
    8.8078  -17.3688   28.2087 O   0  0  0  0  0  0  0  0  0  0  0  0
   11.0283  -17.8119   28.2693 O   0  0  0  0  0  0  0  0  0  0  0  0
  2  1  1  6
  3  2  1  0
  4  3  1  0
  5  4  1  0
  5  6  1  0
  7  6  1  0
  8  2  1  0
  9  8  2  0
 10 11  1  0
 10  8  1  0
 12 11  1  0
 13 12  1  0
 13 14  1  0
 14 10  1  0
 15 16  2  0
 14 15  1  1
 18 17  1  1
 19 18  1  0
 20 18  1  0
 20 21  1  1
 21 15  1  0
 22 20  1  0
 23 22  1  0
 24 22  2  0
M  END
$$$$
