KPV.pdb
     RDKit          3D

 24 24  0  0  1  0  0  0  0  0999 V2000
    7.7512  -13.8398   20.8409 N   0  0  0  0  0  0  0  0  0  0  0  0
    7.0599  -13.8850   22.1008 C   0  0  1  0  0  0  0  0  0  0  0  0
    6.0920  -15.0797   22.1455 C   0  0  0  0  0  0  0  0  0  0  0  0
    6.8783  -16.3566   21.9275 C   0  0  0  0  0  0  0  0  0  0  0  0
    6.0208  -17.5766   21.9895 C   0  0  0  0  0  0  0  0  0  0  0  0
    6.7742  -18.8546   21.7986 C   0  0  0  0  0  0  0  0  0  0  0  0
    5.7929  -19.9399   21.8109 N   0  0  0  0  0  0  0  0  0  0  0  0
    7.9793  -13.9143   23.2498 C   0  0  0  0  0  0  0  0  0  0  0  0
    9.2069  -14.1375   22.9375 O   0  0  0  0  0  0  0  0  0  0  0  0
    7.6707  -13.7312   24.6121 N   0  0  0  0  0  0  0  0  0  0  0  0
    6.3811  -13.5579   25.1917 C   0  0  0  0  0  0  0  0  0  0  0  0
    6.6444  -12.8515   26.5065 C   0  0  0  0  0  0  0  0  0  0  0  0
    8.1276  -12.5089   26.4906 C   0  0  0  0  0  0  0  0  0  0  0  0
    8.6352  -13.7076   25.6869 C   0  0  1  0  0  0  0  0  0  0  0  0
    8.5103  -14.9700   26.4432 C   0  0  0  0  0  0  0  0  0  0  0  0
    7.3797  -15.5163   26.6313 O   0  0  0  0  0  0  0  0  0  0  0  0
   11.3078  -18.6675   25.6005 C   0  0  0  0  0  0  0  0  0  0  0  0
   11.0525  -17.1782   25.7393 C   0  0  2  0  0  0  0  0  0  0  0  0
   12.3227  -16.5351   26.1833 C   0  0  0  0  0  0  0  0  0  0  0  0
    9.9234  -17.0022   26.7270 C   0  0  2  0  0  0  0  0  0  0  0  0
    9.6811  -15.5840   26.9705 N   0  0  0  0  0  0  0  0  0  0  0  0
   10.3262  -17.6713   27.9806 C   0  0  0  0  0  0  0  0  0  0  0  0
   10.2866  -19.0464   28.0568 O   0  0  0  0  0  0  0  0  0  0  0  0
   10.6985  -17.0117   28.9628 O   0  0  0  0  0  0  0  0  0  0  0  0
  2  1  1  6
  3  2  1  0
  4  3  1  0
  5  4  1  0
  5  6  1  0
  7  6  1  0
  8  2  1  0
  9  8  2  0
 10 11  1  0
 10  8  1  0
 12 11  1  0
 13 12  1  0
 13 14  1  0
 14 10  1  0
 15 16  2  0
 14 15  1  1
 18 17  1  1
 19 18  1  0
 20 18  1  0
 20 21  1  1
 21 15  1  0
 22 20  1  0
 23 22  1  0
 24 22  2  0
M  END
$$$$
