KPV.pdb
     RDKit          3D

 24 24  0  0  1  0  0  0  0  0999 V2000
    9.2547  -15.2085   20.4981 N   0  0  0  0  0  0  0  0  0  0  0  0
    8.2581  -15.2496   21.5336 C   0  0  1  0  0  0  0  0  0  0  0  0
    7.6734  -16.6660   21.6673 C   0  0  0  0  0  0  0  0  0  0  0  0
    8.7735  -17.6116   22.1052 C   0  0  0  0  0  0  0  0  0  0  0  0
    8.2700  -18.9888   22.3834 C   0  0  0  0  0  0  0  0  0  0  0  0
    9.3324  -19.9408   22.8333 C   0  0  0  0  0  0  0  0  0  0  0  0
    8.6716  -21.2084   23.1457 N   0  0  0  0  0  0  0  0  0  0  0  0
    8.7677  -14.7703   22.8286 C   0  0  0  0  0  0  0  0  0  0  0  0
   10.0464  -14.6403   22.8768 O   0  0  0  0  0  0  0  0  0  0  0  0
    8.0304  -14.4494   23.9854 N   0  0  0  0  0  0  0  0  0  0  0  0
    6.6286  -14.6003   24.1879 C   0  0  0  0  0  0  0  0  0  0  0  0
    6.2936  -13.6170   25.2915 C   0  0  0  0  0  0  0  0  0  0  0  0
    7.5701  -12.8208   25.5239 C   0  0  0  0  0  0  0  0  0  0  0  0
    8.5894  -13.9164   25.2058 C   0  0  1  0  0  0  0  0  0  0  0  0
    8.5799  -14.9887   26.2215 C   0  0  0  0  0  0  0  0  0  0  0  0
    8.0254  -16.1077   25.9930 O   0  0  0  0  0  0  0  0  0  0  0  0
    9.9322  -15.0736   30.2336 C   0  0  0  0  0  0  0  0  0  0  0  0
   10.9753  -15.0293   29.1326 C   0  0  2  0  0  0  0  0  0  0  0  0
   11.4202  -13.6141   28.9797 C   0  0  0  0  0  0  0  0  0  0  0  0
   10.3380  -15.5876   27.8821 C   0  0  2  0  0  0  0  0  0  0  0  0
    9.2049  -14.7608   27.4797 N   0  0  0  0  0  0  0  0  0  0  0  0
    9.8819  -16.9574   28.1938 C   0  0  0  0  0  0  0  0  0  0  0  0
   10.8133  -17.9344   28.4703 O   0  0  0  0  0  0  0  0  0  0  0  0
    8.6738  -17.2378   28.2094 O   0  0  0  0  0  0  0  0  0  0  0  0
  2  1  1  6
  3  2  1  0
  4  3  1  0
  5  4  1  0
  5  6  1  0
  7  6  1  0
  8  2  1  0
  9  8  2  0
 10 11  1  0
 10  8  1  0
 12 11  1  0
 13 12  1  0
 13 14  1  0
 14 10  1  0
 15 16  2  0
 14 15  1  1
 18 17  1  1
 19 18  1  0
 20 18  1  0
 20 21  1  1
 21 15  1  0
 22 20  1  0
 23 22  1  0
 24 22  2  0
M  END
$$$$
