KPV.pdb
     RDKit          3D

 24 24  0  0  1  0  0  0  0  0999 V2000
    9.0930  -15.8381   15.2868 N   0  0  0  0  0  0  0  0  0  0  0  0
    8.3394  -16.0565   16.4916 C   0  0  1  0  0  0  0  0  0  0  0  0
    7.9218  -17.5322   16.6097 C   0  0  0  0  0  0  0  0  0  0  0  0
    7.2167  -17.7380   17.9351 C   0  0  0  0  0  0  0  0  0  0  0  0
    6.8126  -19.1577   18.1561 C   0  0  0  0  0  0  0  0  0  0  0  0
    5.3716  -19.4285   17.8601 C   0  0  0  0  0  0  0  0  0  0  0  0
    5.3189  -20.6466   17.0511 N   0  0  0  0  0  0  0  0  0  0  0  0
    9.0614  -15.6198   17.6976 C   0  0  0  0  0  0  0  0  0  0  0  0
   10.3076  -15.9379   17.7105 O   0  0  0  0  0  0  0  0  0  0  0  0
    8.5519  -14.9139   18.8053 N   0  0  0  0  0  0  0  0  0  0  0  0
    7.1851  -14.6584   19.1146 C   0  0  0  0  0  0  0  0  0  0  0  0
    7.2178  -13.4377   20.0121 C   0  0  0  0  0  0  0  0  0  0  0  0
    8.6662  -12.9692   20.0037 C   0  0  0  0  0  0  0  0  0  0  0  0
    9.3505  -14.3296   19.8573 C   0  0  1  0  0  0  0  0  0  0  0  0
    9.1911  -15.1591   21.0688 C   0  0  0  0  0  0  0  0  0  0  0  0
    8.1585  -15.8765   21.2450 O   0  0  0  0  0  0  0  0  0  0  0  0
   12.6936  -16.6288   21.7144 C   0  0  0  0  0  0  0  0  0  0  0  0
   12.0011  -16.4762   23.0558 C   0  0  2  0  0  0  0  0  0  0  0  0
   12.3668  -17.6524   23.8966 C   0  0  0  0  0  0  0  0  0  0  0  0
   10.5174  -16.3767   22.7909 C   0  0  2  0  0  0  0  0  0  0  0  0
   10.2159  -15.1523   22.0565 N   0  0  0  0  0  0  0  0  0  0  0  0
    9.8356  -16.3641   24.1012 C   0  0  0  0  0  0  0  0  0  0  0  0
    9.7582  -17.5275   24.8351 O   0  0  0  0  0  0  0  0  0  0  0  0
    9.3334  -15.3213   24.5472 O   0  0  0  0  0  0  0  0  0  0  0  0
  2  1  1  6
  3  2  1  0
  4  3  1  0
  5  4  1  0
  5  6  1  0
  7  6  1  0
  8  2  1  0
  9  8  2  0
 10 11  1  0
 10  8  1  0
 12 11  1  0
 13 12  1  0
 13 14  1  0
 14 10  1  0
 15 16  2  0
 14 15  1  1
 18 17  1  6
 19 18  1  0
 20 18  1  0
 20 21  1  1
 21 15  1  0
 22 20  1  0
 23 22  1  0
 24 22  2  0
M  END
$$$$
