KPV.pdb
     RDKit          3D

 24 24  0  0  1  0  0  0  0  0999 V2000
    9.0002  -14.8856   20.5551 N   0  0  0  0  0  0  0  0  0  0  0  0
    8.0051  -14.8143   21.5905 C   0  0  1  0  0  0  0  0  0  0  0  0
    7.1872  -16.1157   21.6468 C   0  0  0  0  0  0  0  0  0  0  0  0
    8.1358  -17.2842   21.8225 C   0  0  0  0  0  0  0  0  0  0  0  0
    7.4236  -18.5921   21.9222 C   0  0  0  0  0  0  0  0  0  0  0  0
    8.3239  -19.7487   22.2206 C   0  0  0  0  0  0  0  0  0  0  0  0
    7.4845  -20.9460   22.2748 N   0  0  0  0  0  0  0  0  0  0  0  0
    8.5815  -14.5020   22.9084 C   0  0  0  0  0  0  0  0  0  0  0  0
    9.8664  -14.5429   22.9452 O   0  0  0  0  0  0  0  0  0  0  0  0
    7.9000  -14.1743   24.0971 N   0  0  0  0  0  0  0  0  0  0  0  0
    6.4922  -14.1689   24.3144 C   0  0  0  0  0  0  0  0  0  0  0  0
    6.2898  -13.2300   25.4867 C   0  0  0  0  0  0  0  0  0  0  0  0
    7.6557  -12.6108   25.7485 C   0  0  0  0  0  0  0  0  0  0  0  0
    8.5314  -13.7968   25.3399 C   0  0  1  0  0  0  0  0  0  0  0  0
    8.4021  -14.9269   26.2821 C   0  0  0  0  0  0  0  0  0  0  0  0
    7.7164  -15.9543   25.9884 O   0  0  0  0  0  0  0  0  0  0  0  0
   10.2366  -15.0459   30.1237 C   0  0  0  0  0  0  0  0  0  0  0  0
   11.0962  -14.9768   28.8753 C   0  0  2  0  0  0  0  0  0  0  0  0
   11.4405  -13.5458   28.6349 C   0  0  0  0  0  0  0  0  0  0  0  0
   10.3050  -15.5928   27.7458 C   0  0  2  0  0  0  0  0  0  0  0  0
    9.0593  -14.8605   27.5427 N   0  0  0  0  0  0  0  0  0  0  0  0
   10.0163  -16.9918   28.1216 C   0  0  0  0  0  0  0  0  0  0  0  0
   11.0525  -17.8951   28.2152 O   0  0  0  0  0  0  0  0  0  0  0  0
    8.8554  -17.3619   28.3534 O   0  0  0  0  0  0  0  0  0  0  0  0
  2  1  1  6
  3  2  1  0
  4  3  1  0
  5  4  1  0
  5  6  1  0
  7  6  1  0
  8  2  1  0
  9  8  2  0
 10 11  1  0
 10  8  1  0
 12 11  1  0
 13 12  1  0
 13 14  1  0
 14 10  1  0
 15 16  2  0
 14 15  1  1
 18 17  1  1
 19 18  1  0
 20 18  1  0
 20 21  1  1
 21 15  1  0
 22 20  1  0
 23 22  1  0
 24 22  2  0
M  END
$$$$
