KPV.pdb
     RDKit          3D

 24 24  0  0  1  0  0  0  0  0999 V2000
   11.2282  -17.2605   19.5105 N   0  0  0  0  0  0  0  0  0  0  0  0
   10.0104  -17.2524   20.2749 C   0  0  1  0  0  0  0  0  0  0  0  0
    9.7008  -18.6584   20.8162 C   0  0  0  0  0  0  0  0  0  0  0  0
   10.7552  -19.0341   21.8376 C   0  0  0  0  0  0  0  0  0  0  0  0
   10.4750  -20.3433   22.4973 C   0  0  0  0  0  0  0  0  0  0  0  0
   11.5039  -20.7433   23.5067 C   0  0  0  0  0  0  0  0  0  0  0  0
   11.0595  -22.0054   24.0987 N   0  0  0  0  0  0  0  0  0  0  0  0
   10.0345  -16.2657   21.3668 C   0  0  0  0  0  0  0  0  0  0  0  0
   11.2089  -15.8294   21.6577 O   0  0  0  0  0  0  0  0  0  0  0  0
    8.9451  -15.7635   22.1057 N   0  0  0  0  0  0  0  0  0  0  0  0
    7.5737  -16.1280   21.9819 C   0  0  0  0  0  0  0  0  0  0  0  0
    6.8113  -14.9441   22.5424 C   0  0  0  0  0  0  0  0  0  0  0  0
    7.8614  -13.8720   22.7978 C   0  0  0  0  0  0  0  0  0  0  0  0
    9.0384  -14.7799   23.1592 C   0  0  1  0  0  0  0  0  0  0  0  0
    8.8272  -15.4678   24.4491 C   0  0  0  0  0  0  0  0  0  0  0  0
    8.5503  -16.7059   24.4979 O   0  0  0  0  0  0  0  0  0  0  0  0
   10.6927  -14.7486   28.9528 C   0  0  0  0  0  0  0  0  0  0  0  0
   10.0529  -14.1082   27.7350 C   0  0  2  0  0  0  0  0  0  0  0  0
    8.7923  -13.4443   28.1757 C   0  0  0  0  0  0  0  0  0  0  0  0
    9.8221  -15.2004   26.7175 C   0  0  2  0  0  0  0  0  0  0  0  0
    8.9364  -14.7264   25.6591 N   0  0  0  0  0  0  0  0  0  0  0  0
    9.2030  -16.3390   27.4259 C   0  0  0  0  0  0  0  0  0  0  0  0
    7.8894  -16.6641   27.1666 O   0  0  0  0  0  0  0  0  0  0  0  0
    9.8498  -17.0041   28.2491 O   0  0  0  0  0  0  0  0  0  0  0  0
  2  1  1  1
  3  2  1  0
  4  3  1  0
  5  4  1  0
  5  6  1  0
  7  6  1  0
  8  2  1  0
  9  8  2  0
 10 11  1  0
 10  8  1  0
 12 11  1  0
 13 12  1  0
 13 14  1  0
 14 10  1  0
 15 16  2  0
 14 15  1  1
 18 17  1  1
 19 18  1  0
 20 18  1  0
 20 21  1  6
 21 15  1  0
 22 20  1  0
 23 22  1  0
 24 22  2  0
M  END
$$$$
