KPV.pdb
     RDKit          3D

 24 24  0  0  1  0  0  0  0  0999 V2000
    8.9585  -16.2683   16.0289 N   0  0  0  0  0  0  0  0  0  0  0  0
    8.1118  -15.8590   17.1165 C   0  0  1  0  0  0  0  0  0  0  0  0
    7.0988  -16.9643   17.4604 C   0  0  0  0  0  0  0  0  0  0  0  0
    7.7690  -18.3131   17.2937 C   0  0  0  0  0  0  0  0  0  0  0  0
    6.8502  -19.4514   17.5901 C   0  0  0  0  0  0  0  0  0  0  0  0
    7.4711  -20.7971   17.3879 C   0  0  0  0  0  0  0  0  0  0  0  0
    6.4541  -21.7956   17.7190 N   0  0  0  0  0  0  0  0  0  0  0  0
    8.8761  -15.4612   18.3097 C   0  0  0  0  0  0  0  0  0  0  0  0
   10.1398  -15.6857   18.2257 O   0  0  0  0  0  0  0  0  0  0  0  0
    8.3893  -14.8802   19.4973 N   0  0  0  0  0  0  0  0  0  0  0  0
    7.0293  -14.6586   19.8582 C   0  0  0  0  0  0  0  0  0  0  0  0
    7.0824  -13.5434   20.8831 C   0  0  0  0  0  0  0  0  0  0  0  0
    8.5319  -13.0783   20.8988 C   0  0  0  0  0  0  0  0  0  0  0  0
    9.2091  -14.4153   20.5917 C   0  0  1  0  0  0  0  0  0  0  0  0
    9.0696  -15.3722   21.7081 C   0  0  0  0  0  0  0  0  0  0  0  0
    7.9791  -15.9888   21.9150 O   0  0  0  0  0  0  0  0  0  0  0  0
   12.6937  -16.6023   23.2186 C   0  0  0  0  0  0  0  0  0  0  0  0
   11.5560  -17.5757   22.9727 C   0  0  2  0  0  0  0  0  0  0  0  0
   11.6284  -18.0149   21.5494 C   0  0  0  0  0  0  0  0  0  0  0  0
   10.2680  -16.8608   23.3065 C   0  0  2  0  0  0  0  0  0  0  0  0
   10.1800  -15.6058   22.5672 N   0  0  0  0  0  0  0  0  0  0  0  0
   10.2752  -16.5950   24.7595 C   0  0  0  0  0  0  0  0  0  0  0  0
   10.3537  -15.2951   25.2093 O   0  0  0  0  0  0  0  0  0  0  0  0
   10.2117  -17.5256   25.5770 O   0  0  0  0  0  0  0  0  0  0  0  0
  2  1  1  6
  3  2  1  0
  4  3  1  0
  5  4  1  0
  5  6  1  0
  7  6  1  0
  8  2  1  0
  9  8  2  0
 10 11  1  0
 10  8  1  0
 12 11  1  0
 13 12  1  0
 13 14  1  0
 14 10  1  0
 15 16  2  0
 14 15  1  1
 18 17  1  6
 19 18  1  0
 20 18  1  0
 20 21  1  6
 21 15  1  0
 22 20  1  0
 23 22  1  0
 24 22  2  0
M  END
$$$$
