KPV.pdb
     RDKit          3D

 24 24  0  0  1  0  0  0  0  0999 V2000
    8.5171  -14.7542   20.5325 N   0  0  0  0  0  0  0  0  0  0  0  0
    7.5970  -14.6433   21.6318 C   0  0  1  0  0  0  0  0  0  0  0  0
    6.7873  -15.9410   21.7939 C   0  0  0  0  0  0  0  0  0  0  0  0
    7.6992  -17.1237   21.5373 C   0  0  0  0  0  0  0  0  0  0  0  0
    6.9843  -18.4306   21.6293 C   0  0  0  0  0  0  0  0  0  0  0  0
    7.8490  -19.6142   21.3313 C   0  0  0  0  0  0  0  0  0  0  0  0
    7.0243  -20.8086   21.5168 N   0  0  0  0  0  0  0  0  0  0  0  0
    8.2638  -14.2825   22.8933 C   0  0  0  0  0  0  0  0  0  0  0  0
    9.5484  -14.3170   22.8397 O   0  0  0  0  0  0  0  0  0  0  0  0
    7.6667  -13.9157   24.1155 N   0  0  0  0  0  0  0  0  0  0  0  0
    6.2793  -13.9249   24.4382 C   0  0  0  0  0  0  0  0  0  0  0  0
    6.1463  -12.9401   25.5825 C   0  0  0  0  0  0  0  0  0  0  0  0
    7.5151  -12.2871   25.7143 C   0  0  0  0  0  0  0  0  0  0  0  0
    8.3816  -13.4745   25.2903 C   0  0  1  0  0  0  0  0  0  0  0  0
    8.3459  -14.5651   26.2857 C   0  0  0  0  0  0  0  0  0  0  0  0
    7.6949  -15.6335   26.0694 O   0  0  0  0  0  0  0  0  0  0  0  0
   11.8179  -15.7564   29.5530 C   0  0  0  0  0  0  0  0  0  0  0  0
   11.0803  -14.6333   28.8481 C   0  0  2  0  0  0  0  0  0  0  0  0
   10.2979  -13.8846   29.8734 C   0  0  0  0  0  0  0  0  0  0  0  0
   10.2122  -15.2601   27.7827 C   0  0  2  0  0  0  0  0  0  0  0  0
    9.0556  -14.4132   27.5100 N   0  0  0  0  0  0  0  0  0  0  0  0
    9.7707  -16.5747   28.2911 C   0  0  0  0  0  0  0  0  0  0  0  0
   10.6934  -17.5867   28.4422 O   0  0  0  0  0  0  0  0  0  0  0  0
    8.5823  -16.7778   28.5828 O   0  0  0  0  0  0  0  0  0  0  0  0
  2  1  1  6
  3  2  1  0
  4  3  1  0
  5  4  1  0
  5  6  1  0
  7  6  1  0
  8  2  1  0
  9  8  2  0
 10 11  1  0
 10  8  1  0
 12 11  1  0
 13 12  1  0
 13 14  1  0
 14 10  1  0
 15 16  2  0
 14 15  1  1
 18 17  1  1
 19 18  1  0
 20 18  1  0
 20 21  1  1
 21 15  1  0
 22 20  1  0
 23 22  1  0
 24 22  2  0
M  END
$$$$
