KPV.pdb
     RDKit          3D

 24 24  0  0  1  0  0  0  0  0999 V2000
    8.6521  -14.6142   20.6278 N   0  0  0  0  0  0  0  0  0  0  0  0
    7.9158  -15.1724   21.7294 C   0  0  1  0  0  0  0  0  0  0  0  0
    7.8430  -16.7043   21.6119 C   0  0  0  0  0  0  0  0  0  0  0  0
    7.1576  -17.2589   22.8443 C   0  0  0  0  0  0  0  0  0  0  0  0
    6.9408  -18.7336   22.7662 C   0  0  0  0  0  0  0  0  0  0  0  0
    6.1850  -19.2952   23.9284 C   0  0  0  0  0  0  0  0  0  0  0  0
    6.0631  -20.7365   23.7078 N   0  0  0  0  0  0  0  0  0  0  0  0
    8.4641  -14.7741   23.0360 C   0  0  0  0  0  0  0  0  0  0  0  0
    9.7471  -14.6890   23.0659 O   0  0  0  0  0  0  0  0  0  0  0  0
    7.7586  -14.4859   24.2209 N   0  0  0  0  0  0  0  0  0  0  0  0
    6.3752  -14.7055   24.4798 C   0  0  0  0  0  0  0  0  0  0  0  0
    6.0360  -13.7359   25.5941 C   0  0  0  0  0  0  0  0  0  0  0  0
    7.2795  -12.8764   25.7737 C   0  0  0  0  0  0  0  0  0  0  0  0
    8.3386  -13.9211   25.4170 C   0  0  1  0  0  0  0  0  0  0  0  0
    8.4232  -14.9887   26.4341 C   0  0  0  0  0  0  0  0  0  0  0  0
    7.9182  -16.1354   26.2292 O   0  0  0  0  0  0  0  0  0  0  0  0
   10.1204  -14.6586   30.2943 C   0  0  0  0  0  0  0  0  0  0  0  0
   11.0546  -14.7178   29.1000 C   0  0  2  0  0  0  0  0  0  0  0  0
   11.4381  -13.3201   28.7487 C   0  0  0  0  0  0  0  0  0  0  0  0
   10.3217  -15.4279   27.9865 C   0  0  2  0  0  0  0  0  0  0  0  0
    9.0838  -14.7246   27.6668 N   0  0  0  0  0  0  0  0  0  0  0  0
   10.0219  -16.7952   28.4579 C   0  0  0  0  0  0  0  0  0  0  0  0
   11.0531  -17.6920   28.6335 O   0  0  0  0  0  0  0  0  0  0  0  0
    8.8560  -17.1446   28.6970 O   0  0  0  0  0  0  0  0  0  0  0  0
  2  1  1  6
  3  2  1  0
  4  3  1  0
  5  4  1  0
  5  6  1  0
  7  6  1  0
  8  2  1  0
  9  8  2  0
 10 11  1  0
 10  8  1  0
 12 11  1  0
 13 12  1  0
 13 14  1  0
 14 10  1  0
 15 16  2  0
 14 15  1  1
 18 17  1  1
 19 18  1  0
 20 18  1  0
 20 21  1  1
 21 15  1  0
 22 20  1  0
 23 22  1  0
 24 22  2  0
M  END
$$$$
