KPV.pdb
     RDKit          3D

 24 24  0  0  1  0  0  0  0  0999 V2000
   10.0406  -18.2056   20.2289 N   0  0  0  0  0  0  0  0  0  0  0  0
    8.9565  -17.2611   20.2321 C   0  0  1  0  0  0  0  0  0  0  0  0
    7.6090  -17.9832   20.4020 C   0  0  0  0  0  0  0  0  0  0  0  0
    7.6951  -18.9073   21.5998 C   0  0  0  0  0  0  0  0  0  0  0  0
    6.4326  -19.6696   21.8289 C   0  0  0  0  0  0  0  0  0  0  0  0
    6.2711  -20.8545   20.9304 C   0  0  0  0  0  0  0  0  0  0  0  0
    5.0365  -21.5320   21.3275 N   0  0  0  0  0  0  0  0  0  0  0  0
    9.1210  -16.2147   21.2540 C   0  0  0  0  0  0  0  0  0  0  0  0
   10.1361  -16.3854   22.0252 O   0  0  0  0  0  0  0  0  0  0  0  0
    8.3122  -15.0822   21.4733 N   0  0  0  0  0  0  0  0  0  0  0  0
    7.0598  -14.7820   20.8646 C   0  0  0  0  0  0  0  0  0  0  0  0
    6.9259  -13.2773   20.9871 C   0  0  0  0  0  0  0  0  0  0  0  0
    8.2629  -12.7963   21.5335 C   0  0  0  0  0  0  0  0  0  0  0  0
    8.6138  -14.0113   22.3943 C   0  0  1  0  0  0  0  0  0  0  0  0
    7.7134  -14.1399   23.5580 C   0  0  0  0  0  0  0  0  0  0  0  0
    6.5803  -14.7034   23.4553 O   0  0  0  0  0  0  0  0  0  0  0  0
    8.4186  -12.0550   27.1946 C   0  0  0  0  0  0  0  0  0  0  0  0
    8.0919  -13.5356   27.2527 C   0  0  2  0  0  0  0  0  0  0  0  0
    9.3769  -14.2842   27.3648 C   0  0  0  0  0  0  0  0  0  0  0  0
    7.3150  -13.8775   26.0033 C   0  0  2  0  0  0  0  0  0  0  0  0
    8.1259  -13.6212   24.8176 N   0  0  0  0  0  0  0  0  0  0  0  0
    6.1086  -13.0255   25.9876 C   0  0  0  0  0  0  0  0  0  0  0  0
    5.0661  -13.3124   26.8415 O   0  0  0  0  0  0  0  0  0  0  0  0
    6.0232  -12.0575   25.2168 O   0  0  0  0  0  0  0  0  0  0  0  0
  2  1  1  1
  3  2  1  0
  4  3  1  0
  5  4  1  0
  5  6  1  0
  7  6  1  0
  8  2  1  0
  9  8  2  0
 10 11  1  0
 10  8  1  0
 12 11  1  0
 13 12  1  0
 13 14  1  0
 14 10  1  0
 15 16  2  0
 14 15  1  1
 18 17  1  6
 19 18  1  0
 20 18  1  0
 20 21  1  6
 21 15  1  0
 22 20  1  0
 23 22  1  0
 24 22  2  0
M  END
$$$$
