IRG.pdb
     RDKit          3D

 24 23  0  0  1  0  0  0  0  0999 V2000
   29.0920  -12.1726  -16.3714 C   0  0  0  0  0  0  0  0  0  0  0  0
   27.6640  -12.5442  -16.1398 C   0  0  0  0  0  0  0  0  0  0  0  0
   26.7244  -11.3328  -16.2678 C   0  0  2  0  0  0  0  0  0  0  0  0
   27.0271  -10.4297  -15.1330 C   0  0  0  0  0  0  0  0  0  0  0  0
   25.3485  -11.9037  -16.3313 C   0  0  2  0  0  0  0  0  0  0  0  0
   25.4088  -13.0000  -17.3159 N   0  0  0  0  0  0  0  0  0  0  0  0
   24.2584  -10.9949  -16.6383 C   0  0  0  0  0  0  0  0  0  0  0  0
   24.0574  -10.5037  -17.7666 O   0  0  0  0  0  0  0  0  0  0  0  0
   16.0400  -12.1640  -14.7904 N   0  0  0  0  0  0  0  0  0  0  0  0
   16.0923  -10.8970  -15.4245 C   0  0  0  0  0  0  0  0  0  0  0  0
   15.0273  -10.3292  -15.9427 N   0  0  0  0  0  0  0  0  0  0  0  0
   17.2921  -10.1517  -15.5496 N   0  0  0  0  0  0  0  0  0  0  0  0
   18.5888  -10.7078  -15.4291 C   0  0  0  0  0  0  0  0  0  0  0  0
   19.7487   -9.7520  -15.6024 C   0  0  0  0  0  0  0  0  0  0  0  0
   21.0233  -10.4829  -15.6042 C   0  0  0  0  0  0  0  0  0  0  0  0
   22.2792   -9.6362  -15.8097 C   0  0  2  0  0  0  0  0  0  0  0  0
   23.3573  -10.6302  -15.6106 N   0  0  0  0  0  0  0  0  0  0  0  0
   22.4623   -8.5849  -14.8064 C   0  0  0  0  0  0  0  0  0  0  0  0
   22.8538   -8.9099  -13.6484 O   0  0  0  0  0  0  0  0  0  0  0  0
   15.1825   -9.3898  -16.3651 N   0  0  0  0  0  0  0  0  0  0  0  0
   22.2432   -7.1973  -15.0049 C   0  0  0  0  0  0  0  0  0  0  0  0
   22.3412   -6.2392  -13.9003 C   0  0  0  0  0  0  0  0  0  0  0  0
   22.0809   -4.8685  -14.4264 O   0  0  0  0  0  0  0  0  0  0  0  0
   22.0693   -3.8807  -13.6767 O   0  0  0  0  0  0  0  0  0  0  0  0
  1  2  1  0
  3  4  1  1
  3  2  1  0
  5  3  1  0
  5  6  1  6
  7  8  2  0
  7  5  1  0
 10  9  1  0
 11 10  2  0
 12 10  1  0
 13 12  1  0
 14 15  1  0
 14 13  1  0
 16 15  1  1
 16 17  1  0
 17  7  1  0
 18 16  1  0
 19 18  2  0
 20 18  1  0
 21 20  1  0
 22 21  1  0
 22 24  1  0
 23 22  2  0
M  END
$$$$
