IRG.pdb
     RDKit          3D

 24 23  0  0  1  0  0  0  0  0999 V2000
   22.0308  -19.3528  -16.7337 C   0  0  0  0  0  0  0  0  0  0  0  0
   21.8578  -19.4222  -15.2519 C   0  0  0  0  0  0  0  0  0  0  0  0
   21.7551  -20.8729  -14.7501 C   0  0  2  0  0  0  0  0  0  0  0  0
   20.5410  -21.4577  -15.3658 C   0  0  0  0  0  0  0  0  0  0  0  0
   21.7830  -20.7804  -13.2623 C   0  0  2  0  0  0  0  0  0  0  0  0
   20.5804  -20.0170  -12.8802 N   0  0  0  0  0  0  0  0  0  0  0  0
   22.9699  -20.2134  -12.6473 C   0  0  0  0  0  0  0  0  0  0  0  0
   23.0815  -19.0148  -12.3223 O   0  0  0  0  0  0  0  0  0  0  0  0
   28.5921  -20.6357   -6.1768 N   0  0  0  0  0  0  0  0  0  0  0  0
   27.8043  -19.6040   -6.7466 C   0  0  0  0  0  0  0  0  0  0  0  0
   27.8235  -18.3737   -6.2869 N   0  0  0  0  0  0  0  0  0  0  0  0
   26.9381  -19.8208   -7.8481 N   0  0  0  0  0  0  0  0  0  0  0  0
   26.6669  -21.0934   -8.4067 C   0  0  0  0  0  0  0  0  0  0  0  0
   26.8236  -21.2163   -9.9065 C   0  0  0  0  0  0  0  0  0  0  0  0
   25.5090  -21.2977  -10.5575 C   0  0  0  0  0  0  0  0  0  0  0  0
   25.3679  -20.5383  -11.8766 C   0  0  2  0  0  0  0  0  0  0  0  0
   24.0798  -21.0527  -12.3924 N   0  0  0  0  0  0  0  0  0  0  0  0
   26.3972  -20.8635  -12.8667 C   0  0  0  0  0  0  0  0  0  0  0  0
   26.5409  -22.0688  -13.2221 O   0  0  0  0  0  0  0  0  0  0  0  0
   27.2479  -17.6884   -6.8198 N   0  0  0  0  0  0  0  0  0  0  0  0
   27.2741  -19.9390  -13.4905 C   0  0  0  0  0  0  0  0  0  0  0  0
   28.3431  -20.3821  -14.3897 C   0  0  0  0  0  0  0  0  0  0  0  0
   27.7865  -20.5284  -15.7651 O   0  0  0  0  0  0  0  0  0  0  0  0
   26.7064  -21.1035  -15.9667 O   0  0  0  0  0  0  0  0  0  0  0  0
  1  2  1  0
  3  4  1  1
  3  2  1  0
  5  3  1  0
  5  6  1  6
  7  8  2  0
  7  5  1  0
 10  9  1  0
 11 10  2  0
 12 10  1  0
 13 12  1  0
 14 15  1  0
 14 13  1  0
 16 15  1  1
 16 17  1  0
 17  7  1  0
 18 16  1  0
 19 18  2  0
 20 18  1  0
 21 20  1  0
 22 21  1  0
 22 24  1  0
 23 22  2  0
M  END
$$$$
