IRG.pdb
     RDKit          3D

 24 23  0  0  1  0  0  0  0  0999 V2000
   24.7580  -21.1293   -7.5231 C   0  0  0  0  0  0  0  0  0  0  0  0
   25.5579  -21.3848   -8.7583 C   0  0  0  0  0  0  0  0  0  0  0  0
   25.0276  -20.5898   -9.9639 C   0  0  2  0  0  0  0  0  0  0  0  0
   23.6009  -20.9541  -10.1275 C   0  0  0  0  0  0  0  0  0  0  0  0
   25.9452  -20.9210  -11.0915 C   0  0  2  0  0  0  0  0  0  0  0  0
   27.3110  -20.8381  -10.5412 N   0  0  0  0  0  0  0  0  0  0  0  0
   25.8298  -20.1316  -12.3047 C   0  0  0  0  0  0  0  0  0  0  0  0
   26.1909  -18.9419  -12.3990 O   0  0  0  0  0  0  0  0  0  0  0  0
   29.8076  -23.1772  -15.1049 N   0  0  0  0  0  0  0  0  0  0  0  0
   28.7229  -23.4181  -15.9854 C   0  0  0  0  0  0  0  0  0  0  0  0
   28.1918  -24.6104  -16.1318 N   0  0  0  0  0  0  0  0  0  0  0  0
   28.1340  -22.3966  -16.7730 N   0  0  0  0  0  0  0  0  0  0  0  0
   28.2470  -21.0131  -16.4931 C   0  0  0  0  0  0  0  0  0  0  0  0
   27.3943  -20.4847  -15.3606 C   0  0  0  0  0  0  0  0  0  0  0  0
   25.9676  -20.5979  -15.6930 C   0  0  0  0  0  0  0  0  0  0  0  0
   24.9968  -19.9623  -14.6979 C   0  0  2  0  0  0  0  0  0  0  0  0
   25.2767  -20.7273  -13.4624 N   0  0  0  0  0  0  0  0  0  0  0  0
   23.5843  -20.1653  -15.0279 C   0  0  0  0  0  0  0  0  0  0  0  0
   23.0304  -21.2515  -14.6915 O   0  0  0  0  0  0  0  0  0  0  0  0
   27.4252  -24.6750  -16.8341 N   0  0  0  0  0  0  0  0  0  0  0  0
   22.7458  -19.2410  -15.7029 C   0  0  0  0  0  0  0  0  0  0  0  0
   21.3294  -19.5266  -15.9475 C   0  0  0  0  0  0  0  0  0  0  0  0
   20.7308  -18.3874  -16.7004 O   0  0  0  0  0  0  0  0  0  0  0  0
   20.5789  -17.2746  -16.1744 O   0  0  0  0  0  0  0  0  0  0  0  0
  1  2  1  0
  3  4  1  6
  3  2  1  0
  5  3  1  0
  5  6  1  1
  7  8  2  0
  7  5  1  0
 10  9  1  0
 11 10  2  0
 12 10  1  0
 13 12  1  0
 14 15  1  0
 14 13  1  0
 16 15  1  6
 16 17  1  0
 17  7  1  0
 18 16  1  0
 19 18  2  0
 20 18  1  0
 21 20  1  0
 22 21  1  0
 22 24  1  0
 23 22  2  0
M  END
$$$$
