IRG.pdb
     RDKit          3D

 24 23  0  0  1  0  0  0  0  0999 V2000
   24.3382  -16.0905  -15.8851 C   0  0  0  0  0  0  0  0  0  0  0  0
   25.2953  -17.2371  -15.8740 C   0  0  0  0  0  0  0  0  0  0  0  0
   26.3773  -17.0752  -14.7924 C   0  0  2  0  0  0  0  0  0  0  0  0
   27.1751  -15.8806  -15.1552 C   0  0  0  0  0  0  0  0  0  0  0  0
   27.0942  -18.3818  -14.7506 C   0  0  2  0  0  0  0  0  0  0  0  0
   27.6483  -18.5844  -16.1022 N   0  0  0  0  0  0  0  0  0  0  0  0
   26.3411  -19.5471  -14.3226 C   0  0  0  0  0  0  0  0  0  0  0  0
   25.8560  -20.3889  -15.1041 O   0  0  0  0  0  0  0  0  0  0  0  0
   30.9628  -21.5105   -8.6622 N   0  0  0  0  0  0  0  0  0  0  0  0
   31.0962  -22.0336   -9.9731 C   0  0  0  0  0  0  0  0  0  0  0  0
   32.2428  -22.4755  -10.4370 N   0  0  0  0  0  0  0  0  0  0  0  0
   30.0089  -22.1164  -10.8794 N   0  0  0  0  0  0  0  0  0  0  0  0
   28.6757  -21.7669  -10.5545 C   0  0  0  0  0  0  0  0  0  0  0  0
   27.6414  -21.9823  -11.6375 C   0  0  0  0  0  0  0  0  0  0  0  0
   26.3615  -21.3689  -11.2576 C   0  0  0  0  0  0  0  0  0  0  0  0
   25.4465  -20.9614  -12.4123 C   0  0  2  0  0  0  0  0  0  0  0  0
   26.1319  -19.7607  -12.9399 N   0  0  0  0  0  0  0  0  0  0  0  0
   24.1038  -20.5511  -11.9950 C   0  0  0  0  0  0  0  0  0  0  0  0
   23.9343  -19.3763  -11.5582 O   0  0  0  0  0  0  0  0  0  0  0  0
   32.2146  -22.8626  -11.4036 N   0  0  0  0  0  0  0  0  0  0  0  0
   22.9370  -21.3573  -12.0342 C   0  0  0  0  0  0  0  0  0  0  0  0
   22.5417  -22.0766  -13.2484 C   0  0  0  0  0  0  0  0  0  0  0  0
   21.5401  -21.2576  -13.9894 O   0  0  0  0  0  0  0  0  0  0  0  0
   21.0933  -21.6221  -15.0875 O   0  0  0  0  0  0  0  0  0  0  0  0
  1  2  1  0
  3  4  1  6
  3  2  1  0
  5  3  1  0
  5  6  1  6
  7  8  2  0
  7  5  1  0
 10  9  1  0
 11 10  2  0
 12 10  1  0
 13 12  1  0
 14 15  1  0
 14 13  1  0
 16 15  1  1
 16 17  1  0
 17  7  1  0
 18 16  1  0
 19 18  2  0
 20 18  1  0
 21 20  1  0
 22 21  1  0
 22 24  1  0
 23 22  2  0
M  END
$$$$
