IRG.pdb
     RDKit          3D

 24 23  0  0  1  0  0  0  0  0999 V2000
   29.8968  -16.7300  -19.2930 C   0  0  0  0  0  0  0  0  0  0  0  0
   28.4279  -16.9191  -19.0996 C   0  0  0  0  0  0  0  0  0  0  0  0
   28.1183  -18.0246  -18.0755 C   0  0  2  0  0  0  0  0  0  0  0  0
   28.9323  -19.2035  -18.4534 C   0  0  0  0  0  0  0  0  0  0  0  0
   26.6365  -18.1870  -18.1036 C   0  0  2  0  0  0  0  0  0  0  0  0
   26.0764  -16.8560  -17.8041 N   0  0  0  0  0  0  0  0  0  0  0  0
   26.0555  -19.1972  -17.2374 C   0  0  0  0  0  0  0  0  0  0  0  0
   26.2787  -20.4192  -17.3448 O   0  0  0  0  0  0  0  0  0  0  0  0
   25.7804  -21.0886   -9.3603 N   0  0  0  0  0  0  0  0  0  0  0  0
   24.4774  -20.7582   -9.8107 C   0  0  0  0  0  0  0  0  0  0  0  0
   23.4448  -20.7220   -8.9997 N   0  0  0  0  0  0  0  0  0  0  0  0
   24.1904  -20.4462  -11.1638 N   0  0  0  0  0  0  0  0  0  0  0  0
   24.8792  -21.0004  -12.2699 C   0  0  0  0  0  0  0  0  0  0  0  0
   25.7739  -20.0584  -13.0452 C   0  0  0  0  0  0  0  0  0  0  0  0
   24.9725  -19.1760  -13.9043 C   0  0  0  0  0  0  0  0  0  0  0  0
   24.5633  -19.7534  -15.2591 C   0  0  2  0  0  0  0  0  0  0  0  0
   25.1798  -18.7941  -16.2022 N   0  0  0  0  0  0  0  0  0  0  0  0
   23.1191  -19.7404  -15.5030 C   0  0  0  0  0  0  0  0  0  0  0  0
   22.5326  -18.6267  -15.6274 O   0  0  0  0  0  0  0  0  0  0  0  0
   22.5228  -20.5609   -9.4569 N   0  0  0  0  0  0  0  0  0  0  0  0
   22.2843  -20.8815  -15.6215 C   0  0  0  0  0  0  0  0  0  0  0  0
   20.8513  -20.7581  -15.9025 C   0  0  0  0  0  0  0  0  0  0  0  0
   20.1047  -20.7637  -14.6119 O   0  0  0  0  0  0  0  0  0  0  0  0
   20.6976  -20.8008  -13.5232 O   0  0  0  0  0  0  0  0  0  0  0  0
  1  2  1  0
  3  4  1  6
  3  2  1  0
  5  3  1  0
  5  6  1  1
  7  8  2  0
  7  5  1  0
 10  9  1  0
 11 10  2  0
 12 10  1  0
 13 12  1  0
 14 15  1  0
 14 13  1  0
 16 15  1  1
 16 17  1  0
 17  7  1  0
 18 16  1  0
 19 18  2  0
 20 18  1  0
 21 20  1  0
 22 21  1  0
 22 24  1  0
 23 22  2  0
M  END
$$$$
