IRG.pdb
     RDKit          3D

 24 23  0  0  1  0  0  0  0  0999 V2000
   24.6145  -18.6661  -15.7687 C   0  0  0  0  0  0  0  0  0  0  0  0
   23.1565  -18.8162  -15.4817 C   0  0  0  0  0  0  0  0  0  0  0  0
   22.8355  -20.1648  -14.8147 C   0  0  2  0  0  0  0  0  0  0  0  0
   23.4383  -21.2200  -15.6622 C   0  0  0  0  0  0  0  0  0  0  0  0
   21.3529  -20.1863  -14.6578 C   0  0  2  0  0  0  0  0  0  0  0  0
   21.0209  -19.0479  -13.7809 N   0  0  0  0  0  0  0  0  0  0  0  0
   20.7480  -21.4104  -14.1641 C   0  0  0  0  0  0  0  0  0  0  0  0
   20.9541  -22.5374  -14.6563 O   0  0  0  0  0  0  0  0  0  0  0  0
   18.6012  -25.8603   -8.5461 N   0  0  0  0  0  0  0  0  0  0  0  0
   18.9006  -24.9095   -7.5380 C   0  0  0  0  0  0  0  0  0  0  0  0
   18.9454  -25.2299   -6.2649 N   0  0  0  0  0  0  0  0  0  0  0  0
   19.1702  -23.5474   -7.8250 N   0  0  0  0  0  0  0  0  0  0  0  0
   18.4250  -22.7662   -8.7413 C   0  0  0  0  0  0  0  0  0  0  0  0
   18.4457  -23.2207  -10.1843 C   0  0  0  0  0  0  0  0  0  0  0  0
   19.1691  -22.2523  -11.0196 C   0  0  0  0  0  0  0  0  0  0  0  0
   19.1703  -22.5347  -12.5219 C   0  0  2  0  0  0  0  0  0  0  0  0
   19.8676  -21.3450  -13.0588 N   0  0  0  0  0  0  0  0  0  0  0  0
   17.8359  -22.5694  -13.1248 C   0  0  0  0  0  0  0  0  0  0  0  0
   17.0680  -21.5777  -12.9614 O   0  0  0  0  0  0  0  0  0  0  0  0
   19.1761  -24.4489   -5.6154 N   0  0  0  0  0  0  0  0  0  0  0  0
   17.2997  -23.6299  -13.8998 C   0  0  0  0  0  0  0  0  0  0  0  0
   17.7088  -25.0206  -13.6846 C   0  0  0  0  0  0  0  0  0  0  0  0
   17.0545  -25.8803  -14.7122 O   0  0  0  0  0  0  0  0  0  0  0  0
   17.4693  -25.9194  -15.8803 O   0  0  0  0  0  0  0  0  0  0  0  0
  1  2  1  0
  3  4  1  6
  3  2  1  0
  5  3  1  0
  5  6  1  1
  7  8  2  0
  7  5  1  0
 10  9  1  0
 11 10  2  0
 12 10  1  0
 13 12  1  0
 14 15  1  0
 14 13  1  0
 16 15  1  1
 16 17  1  0
 17  7  1  0
 18 16  1  0
 19 18  2  0
 20 18  1  0
 21 20  1  0
 22 21  1  0
 22 24  1  0
 23 22  2  0
M  END
$$$$
