IRG.pdb
     RDKit          3D

 24 23  0  0  1  0  0  0  0  0999 V2000
   33.0492  -22.2913   -9.6359 C   0  0  0  0  0  0  0  0  0  0  0  0
   31.9745  -22.4185  -10.6651 C   0  0  0  0  0  0  0  0  0  0  0  0
   30.8211  -21.4303  -10.4204 C   0  0  2  0  0  0  0  0  0  0  0  0
   30.2744  -21.7291   -9.0761 C   0  0  0  0  0  0  0  0  0  0  0  0
   29.8998  -21.6015  -11.5801 C   0  0  2  0  0  0  0  0  0  0  0  0
   30.7501  -21.5561  -12.7842 N   0  0  0  0  0  0  0  0  0  0  0  0
   28.7897  -20.6730  -11.6980 C   0  0  0  0  0  0  0  0  0  0  0  0
   28.9229  -19.4390  -11.8169 O   0  0  0  0  0  0  0  0  0  0  0  0
   25.9837  -18.3784  -17.2621 N   0  0  0  0  0  0  0  0  0  0  0  0
   27.2709  -18.0794  -16.7485 C   0  0  0  0  0  0  0  0  0  0  0  0
   28.2628  -17.7018  -17.5223 N   0  0  0  0  0  0  0  0  0  0  0  0
   27.5847  -18.1674  -15.3685 N   0  0  0  0  0  0  0  0  0  0  0  0
   26.6923  -18.6490  -14.3802 C   0  0  0  0  0  0  0  0  0  0  0  0
   26.6424  -20.1496  -14.1935 C   0  0  0  0  0  0  0  0  0  0  0  0
   25.7326  -20.5027  -13.0952 C   0  0  0  0  0  0  0  0  0  0  0  0
   26.2783  -20.2957  -11.6824 C   0  0  2  0  0  0  0  0  0  0  0  0
   27.4677  -21.1761  -11.6790 N   0  0  0  0  0  0  0  0  0  0  0  0
   25.3837  -20.7643  -10.6214 C   0  0  0  0  0  0  0  0  0  0  0  0
   25.2681  -22.0089  -10.4280 O   0  0  0  0  0  0  0  0  0  0  0  0
   29.1852  -17.6007  -17.0491 N   0  0  0  0  0  0  0  0  0  0  0  0
   24.6127  -19.9428   -9.7592 C   0  0  0  0  0  0  0  0  0  0  0  0
   23.7127  -20.5163   -8.7548 C   0  0  0  0  0  0  0  0  0  0  0  0
   22.3769  -20.7427   -9.3775 O   0  0  0  0  0  0  0  0  0  0  0  0
   22.1912  -20.5629  -10.5905 O   0  0  0  0  0  0  0  0  0  0  0  0
  1  2  1  0
  3  4  1  1
  3  2  1  0
  5  3  1  0
  5  6  1  6
  7  8  2  0
  7  5  1  0
 10  9  1  0
 11 10  2  0
 12 10  1  0
 13 12  1  0
 14 15  1  0
 14 13  1  0
 16 15  1  6
 16 17  1  0
 17  7  1  0
 18 16  1  0
 19 18  2  0
 20 18  1  0
 21 20  1  0
 22 21  1  0
 22 24  1  0
 23 22  2  0
M  END
$$$$
