IRG.pdb
     RDKit          3D

 24 23  0  0  1  0  0  0  0  0999 V2000
   23.4646  -17.8016  -18.5412 C   0  0  0  0  0  0  0  0  0  0  0  0
   23.0167  -19.1525  -18.0882 C   0  0  0  0  0  0  0  0  0  0  0  0
   22.0629  -19.0703  -16.8838 C   0  0  2  0  0  0  0  0  0  0  0  0
   22.8024  -18.3936  -15.7929 C   0  0  0  0  0  0  0  0  0  0  0  0
   21.6187  -20.4715  -16.6340 C   0  0  2  0  0  0  0  0  0  0  0  0
   20.9982  -20.9309  -17.8905 N   0  0  0  0  0  0  0  0  0  0  0  0
   20.7331  -20.7039  -15.5070 C   0  0  0  0  0  0  0  0  0  0  0  0
   19.4936  -20.7997  -15.6030 O   0  0  0  0  0  0  0  0  0  0  0  0
   19.4282  -25.8591  -10.3623 N   0  0  0  0  0  0  0  0  0  0  0  0
   18.0810  -25.8419  -10.8033 C   0  0  0  0  0  0  0  0  0  0  0  0
   17.1153  -26.4195  -10.1257 N   0  0  0  0  0  0  0  0  0  0  0  0
   17.6759  -25.2061  -12.0042 N   0  0  0  0  0  0  0  0  0  0  0  0
   18.5536  -24.5070  -12.8679 C   0  0  0  0  0  0  0  0  0  0  0  0
   19.0651  -23.1729  -12.3702 C   0  0  0  0  0  0  0  0  0  0  0  0
   19.9005  -22.5272  -13.3919 C   0  0  0  0  0  0  0  0  0  0  0  0
   20.4701  -21.1577  -13.0221 C   0  0  2  0  0  0  0  0  0  0  0  0
   21.2875  -20.8322  -14.2119 N   0  0  0  0  0  0  0  0  0  0  0  0
   21.3685  -21.1764  -11.8655 C   0  0  0  0  0  0  0  0  0  0  0  0
   22.5915  -21.4419  -12.0486 O   0  0  0  0  0  0  0  0  0  0  0  0
   16.1728  -26.3779  -10.5672 N   0  0  0  0  0  0  0  0  0  0  0  0
   20.9996  -20.9162  -10.5204 C   0  0  0  0  0  0  0  0  0  0  0  0
   21.4484  -19.7088   -9.8215 C   0  0  0  0  0  0  0  0  0  0  0  0
   20.8904  -19.7165   -8.4388 O   0  0  0  0  0  0  0  0  0  0  0  0
   20.1321  -20.6192   -8.0537 O   0  0  0  0  0  0  0  0  0  0  0  0
  1  2  1  0
  3  4  1  1
  3  2  1  0
  5  3  1  0
  5  6  1  6
  7  8  2  0
  7  5  1  0
 10  9  1  0
 11 10  2  0
 12 10  1  0
 13 12  1  0
 14 15  1  0
 14 13  1  0
 16 15  1  6
 16 17  1  0
 17  7  1  0
 18 16  1  0
 19 18  2  0
 20 18  1  0
 21 20  1  0
 22 21  1  0
 22 24  1  0
 23 22  2  0
M  END
$$$$
