IRG.pdb
     RDKit          3D

 24 23  0  0  1  0  0  0  0  0999 V2000
   27.0650  -16.6962  -18.7327 C   0  0  0  0  0  0  0  0  0  0  0  0
   25.9376  -17.5362  -18.2287 C   0  0  0  0  0  0  0  0  0  0  0  0
   25.8956  -17.5837  -16.6916 C   0  0  2  0  0  0  0  0  0  0  0  0
   27.2219  -18.0635  -16.2380 C   0  0  0  0  0  0  0  0  0  0  0  0
   24.7163  -18.4310  -16.3535 C   0  0  2  0  0  0  0  0  0  0  0  0
   23.5537  -17.7794  -16.9850 N   0  0  0  0  0  0  0  0  0  0  0  0
   24.4595  -18.6939  -14.9487 C   0  0  0  0  0  0  0  0  0  0  0  0
   24.0259  -17.8418  -14.1483 O   0  0  0  0  0  0  0  0  0  0  0  0
   20.1401  -23.1288   -9.5191 N   0  0  0  0  0  0  0  0  0  0  0  0
   19.8157  -23.1637  -10.8987 C   0  0  0  0  0  0  0  0  0  0  0  0
   18.8114  -23.8708  -11.3639 N   0  0  0  0  0  0  0  0  0  0  0  0
   20.5485  -22.4443  -11.8766 N   0  0  0  0  0  0  0  0  0  0  0  0
   21.4594  -21.4019  -11.5788 C   0  0  0  0  0  0  0  0  0  0  0  0
   22.1507  -20.7558  -12.7594 C   0  0  0  0  0  0  0  0  0  0  0  0
   23.4981  -21.3141  -12.9368 C   0  0  0  0  0  0  0  0  0  0  0  0
   24.6404  -20.2998  -12.9896 C   0  0  2  0  0  0  0  0  0  0  0  0
   24.7093  -19.9878  -14.4346 N   0  0  0  0  0  0  0  0  0  0  0  0
   25.9422  -20.8443  -12.5968 C   0  0  0  0  0  0  0  0  0  0  0  0
   26.3738  -21.8763  -13.1872 O   0  0  0  0  0  0  0  0  0  0  0  0
   18.6934  -23.8528  -12.3987 N   0  0  0  0  0  0  0  0  0  0  0  0
   26.7973  -20.3170  -11.5950 C   0  0  0  0  0  0  0  0  0  0  0  0
   28.0797  -20.9479  -11.2707 C   0  0  0  0  0  0  0  0  0  0  0  0
   28.2905  -20.8816   -9.7962 O   0  0  0  0  0  0  0  0  0  0  0  0
   27.4704  -20.3243   -9.0512 O   0  0  0  0  0  0  0  0  0  0  0  0
  1  2  1  0
  3  4  1  6
  3  2  1  0
  5  3  1  0
  5  6  1  1
  7  8  2  0
  7  5  1  0
 10  9  1  0
 11 10  2  0
 12 10  1  0
 13 12  1  0
 14 15  1  0
 14 13  1  0
 16 15  1  6
 16 17  1  0
 17  7  1  0
 18 16  1  0
 19 18  2  0
 20 18  1  0
 21 20  1  0
 22 21  1  0
 22 24  1  0
 23 22  2  0
M  END
$$$$
