IRG.pdb
     RDKit          3D

 24 23  0  0  1  0  0  0  0  0999 V2000
   23.2603  -21.3846   -8.0637 C   0  0  0  0  0  0  0  0  0  0  0  0
   23.4364  -21.5293   -9.5398 C   0  0  0  0  0  0  0  0  0  0  0  0
   24.5792  -20.6485  -10.0737 C   0  0  2  0  0  0  0  0  0  0  0  0
   24.3086  -19.2657   -9.6156 C   0  0  0  0  0  0  0  0  0  0  0  0
   24.6045  -20.8819  -11.5461 C   0  0  2  0  0  0  0  0  0  0  0  0
   24.6794  -22.3440  -11.7241 N   0  0  0  0  0  0  0  0  0  0  0  0
   25.6417  -20.2157  -12.3134 C   0  0  0  0  0  0  0  0  0  0  0  0
   25.6717  -18.9873  -12.5250 O   0  0  0  0  0  0  0  0  0  0  0  0
   32.2401  -21.8013   -9.3785 N   0  0  0  0  0  0  0  0  0  0  0  0
   32.3203  -22.3180  -10.6963 C   0  0  0  0  0  0  0  0  0  0  0  0
   33.0274  -23.3859  -10.9875 N   0  0  0  0  0  0  0  0  0  0  0  0
   31.6495  -21.7231  -11.7947 N   0  0  0  0  0  0  0  0  0  0  0  0
   30.8575  -20.5529  -11.7026 C   0  0  0  0  0  0  0  0  0  0  0  0
   29.3620  -20.7414  -11.8328 C   0  0  0  0  0  0  0  0  0  0  0  0
   29.0019  -21.0648  -13.2201 C   0  0  0  0  0  0  0  0  0  0  0  0
   27.7269  -20.4090  -13.7501 C   0  0  2  0  0  0  0  0  0  0  0  0
   26.6918  -20.9869  -12.8645 N   0  0  0  0  0  0  0  0  0  0  0  0
   27.3876  -20.7859  -15.1242 C   0  0  0  0  0  0  0  0  0  0  0  0
   27.6227  -21.9682  -15.5071 O   0  0  0  0  0  0  0  0  0  0  0  0
   33.0215  -23.6659  -11.9907 N   0  0  0  0  0  0  0  0  0  0  0  0
   26.8013  -19.9383  -16.0993 C   0  0  0  0  0  0  0  0  0  0  0  0
   26.4814  -20.4231  -17.4448 C   0  0  0  0  0  0  0  0  0  0  0  0
   25.6717  -19.3887  -18.1502 O   0  0  0  0  0  0  0  0  0  0  0  0
   25.2393  -18.3904  -17.5546 O   0  0  0  0  0  0  0  0  0  0  0  0
  1  2  1  0
  3  4  1  6
  3  2  1  0
  5  3  1  0
  5  6  1  1
  7  8  2  0
  7  5  1  0
 10  9  1  0
 11 10  2  0
 12 10  1  0
 13 12  1  0
 14 15  1  0
 14 13  1  0
 16 15  1  1
 16 17  1  0
 17  7  1  0
 18 16  1  0
 19 18  2  0
 20 18  1  0
 21 20  1  0
 22 21  1  0
 22 24  1  0
 23 22  2  0
M  END
$$$$
