IRG.pdb
     RDKit          3D

 24 23  0  0  1  0  0  0  0  0999 V2000
   28.2809  -19.6609   -7.5342 C   0  0  0  0  0  0  0  0  0  0  0  0
   27.3557  -20.5380   -8.3123 C   0  0  0  0  0  0  0  0  0  0  0  0
   26.4697  -19.7306   -9.2766 C   0  0  2  0  0  0  0  0  0  0  0  0
   25.6966  -18.7722   -8.4525 C   0  0  0  0  0  0  0  0  0  0  0  0
   25.6924  -20.7453  -10.0441 C   0  0  2  0  0  0  0  0  0  0  0  0
   26.6836  -21.6998  -10.5746 N   0  0  0  0  0  0  0  0  0  0  0  0
   24.8226  -20.2644  -11.1026 C   0  0  0  0  0  0  0  0  0  0  0  0
   23.8162  -19.5542  -10.9089 O   0  0  0  0  0  0  0  0  0  0  0  0
   23.9172  -22.3428  -18.5277 N   0  0  0  0  0  0  0  0  0  0  0  0
   24.4217  -21.1752  -19.1538 C   0  0  0  0  0  0  0  0  0  0  0  0
   24.1066  -20.8504  -20.3869 N   0  0  0  0  0  0  0  0  0  0  0  0
   25.3023  -20.2755  -18.5014 N   0  0  0  0  0  0  0  0  0  0  0  0
   25.7242  -20.4119  -17.1566 C   0  0  0  0  0  0  0  0  0  0  0  0
   24.6743  -20.1687  -16.0947 C   0  0  0  0  0  0  0  0  0  0  0  0
   25.2630  -20.2773  -14.7529 C   0  0  0  0  0  0  0  0  0  0  0  0
   24.2867  -20.1576  -13.5828 C   0  0  2  0  0  0  0  0  0  0  0  0
   25.1147  -20.6103  -12.4429 N   0  0  0  0  0  0  0  0  0  0  0  0
   23.1342  -21.0572  -13.6714 C   0  0  0  0  0  0  0  0  0  0  0  0
   23.2513  -22.2408  -13.2412 O   0  0  0  0  0  0  0  0  0  0  0  0
   24.5811  -20.0017  -20.7606 N   0  0  0  0  0  0  0  0  0  0  0  0
   21.8602  -20.7284  -14.2021 C   0  0  0  0  0  0  0  0  0  0  0  0
   20.8049  -20.1530  -13.3638 C   0  0  0  0  0  0  0  0  0  0  0  0
   20.0987  -21.2568  -12.6523 O   0  0  0  0  0  0  0  0  0  0  0  0
   19.6184  -22.2194  -13.2694 O   0  0  0  0  0  0  0  0  0  0  0  0
  1  2  1  0
  3  4  1  1
  3  2  1  0
  5  3  1  0
  5  6  1  6
  7  8  2  0
  7  5  1  0
 10  9  1  0
 11 10  2  0
 12 10  1  0
 13 12  1  0
 14 15  1  0
 14 13  1  0
 16 15  1  6
 16 17  1  0
 17  7  1  0
 18 16  1  0
 19 18  2  0
 20 18  1  0
 21 20  1  0
 22 21  1  0
 22 24  1  0
 23 22  2  0
M  END
$$$$
