EKP.pdb
     RDKit          3D

 26 26  0  0  1  0  0  0  0  0999 V2000
   14.6174   -9.6187  -13.7588 N   0  0  0  0  0  0  0  0  0  0  0  0
   15.1418   -8.7482  -14.7591 C   0  0  1  0  0  0  0  0  0  0  0  0
   14.6327   -7.3252  -14.4919 C   0  0  0  0  0  0  0  0  0  0  0  0
   13.1597   -7.2374  -14.8292 C   0  0  0  0  0  0  0  0  0  0  0  0
   12.6500   -5.8574  -14.7241 C   0  0  0  0  0  0  0  0  0  0  0  0
   13.3871   -4.9507  -14.2586 O   0  0  0  0  0  0  0  0  0  0  0  0
   16.6143   -8.6844  -14.6473 C   0  0  0  0  0  0  0  0  0  0  0  0
   17.1384   -8.8581  -13.5213 O   0  0  0  0  0  0  0  0  0  0  0  0
   11.3697   -5.4927  -15.1201 O   0  0  0  0  0  0  0  0  0  0  0  0
   17.4472   -8.4388  -15.7428 N   0  0  0  0  0  0  0  0  0  0  0  0
   18.9230   -8.4776  -15.6692 C   0  0  1  0  0  0  0  0  0  0  0  0
   19.4254   -9.0994  -16.9463 C   0  0  0  0  0  0  0  0  0  0  0  0
   20.9039   -9.1546  -17.0259 C   0  0  0  0  0  0  0  0  0  0  0  0
   21.3720   -9.8049  -18.3412 C   0  0  0  0  0  0  0  0  0  0  0  0
   22.8574  -10.0127  -18.3545 C   0  0  0  0  0  0  0  0  0  0  0  0
   23.2088  -10.8024  -19.5393 N   0  0  0  0  0  0  0  0  0  0  0  0
   19.3747   -7.1172  -15.4100 C   0  0  0  0  0  0  0  0  0  0  0  0
   18.6572   -6.1643  -15.9092 O   0  0  0  0  0  0  0  0  0  0  0  0
   20.5104   -6.7416  -14.6647 N   0  0  0  0  0  0  0  0  0  0  0  0
   21.4714   -7.6233  -14.0401 C   0  0  0  0  0  0  0  0  0  0  0  0
   21.8199   -6.8676  -12.7475 C   0  0  0  0  0  0  0  0  0  0  0  0
   21.9712   -5.4754  -13.2775 C   0  0  0  0  0  0  0  0  0  0  0  0
   20.8895   -5.3805  -14.3289 C   0  0  1  0  0  0  0  0  0  0  0  0
   21.4261   -4.6507  -15.4842 C   0  0  0  0  0  0  0  0  0  0  0  0
   21.5486   -3.2588  -15.5340 O   0  0  0  0  0  0  0  0  0  0  0  0
   21.7953   -5.3108  -16.4823 O   0  0  0  0  0  0  0  0  0  0  0  0
  2  7  1  0
  2  1  1  1
  3  2  1  0
  4  5  1  0
  4  3  1  0
  5  6  2  0
  7  8  2  0
  9  5  1  0
 10  7  1  0
 10 11  1  0
 11 12  1  6
 13 12  1  0
 13 14  1  0
 14 15  1  0
 15 16  1  0
 17 11  1  0
 18 17  2  0
 19 17  1  0
 19 23  1  0
 20 21  1  0
 20 19  1  0
 21 22  1  0
 22 23  1  0
 23 24  1  6
 24 25  1  0
 26 24  2  0
M  END
$$$$
