EKP.pdb
     RDKit          3D

 26 26  0  0  1  0  0  0  0  0999 V2000
   24.9813  -19.2621  -17.6388 N   0  0  0  0  0  0  0  0  0  0  0  0
   25.2345  -18.4828  -16.4719 C   0  0  1  0  0  0  0  0  0  0  0  0
   23.9383  -17.7690  -16.0639 C   0  0  0  0  0  0  0  0  0  0  0  0
   23.8511  -16.4288  -16.7620 C   0  0  0  0  0  0  0  0  0  0  0  0
   23.2838  -16.5481  -18.1182 C   0  0  0  0  0  0  0  0  0  0  0  0
   24.0396  -16.7855  -19.0952 O   0  0  0  0  0  0  0  0  0  0  0  0
   25.5871  -19.3692  -15.3428 C   0  0  0  0  0  0  0  0  0  0  0  0
   24.7752  -20.2639  -15.0066 O   0  0  0  0  0  0  0  0  0  0  0  0
   21.9278  -16.4096  -18.3848 O   0  0  0  0  0  0  0  0  0  0  0  0
   26.7864  -19.2526  -14.6342 N   0  0  0  0  0  0  0  0  0  0  0  0
   27.2023  -20.1967  -13.5756 C   0  0  1  0  0  0  0  0  0  0  0  0
   28.7058  -20.1496  -13.4899 C   0  0  0  0  0  0  0  0  0  0  0  0
   29.2581  -21.0353  -12.4384 C   0  0  0  0  0  0  0  0  0  0  0  0
   30.7979  -21.0042  -12.4290 C   0  0  0  0  0  0  0  0  0  0  0  0
   31.3613  -21.9441  -11.4050 C   0  0  0  0  0  0  0  0  0  0  0  0
   32.8249  -21.8606  -11.4483 N   0  0  0  0  0  0  0  0  0  0  0  0
   26.4895  -19.8205  -12.3622 C   0  0  0  0  0  0  0  0  0  0  0  0
   26.4051  -18.5552  -12.1094 O   0  0  0  0  0  0  0  0  0  0  0  0
   25.8797  -20.6997  -11.4447 N   0  0  0  0  0  0  0  0  0  0  0  0
   25.7136  -22.1289  -11.5886 C   0  0  0  0  0  0  0  0  0  0  0  0
   24.3409  -22.3677  -10.9389 C   0  0  0  0  0  0  0  0  0  0  0  0
   24.4674  -21.5171   -9.7132 C   0  0  0  0  0  0  0  0  0  0  0  0
   25.2399  -20.3126  -10.1998 C   0  0  1  0  0  0  0  0  0  0  0  0
   26.2129  -19.9354   -9.1673 C   0  0  0  0  0  0  0  0  0  0  0  0
   25.8766  -19.2433   -7.9999 O   0  0  0  0  0  0  0  0  0  0  0  0
   27.4125  -20.2507   -9.3405 O   0  0  0  0  0  0  0  0  0  0  0  0
  2  7  1  0
  2  1  1  6
  3  2  1  0
  4  5  1  0
  4  3  1  0
  5  6  2  0
  7  8  2  0
  9  5  1  0
 10  7  1  0
 10 11  1  0
 11 12  1  1
 13 12  1  0
 13 14  1  0
 14 15  1  0
 15 16  1  0
 17 11  1  0
 18 17  2  0
 19 17  1  0
 19 23  1  0
 20 21  1  0
 20 19  1  0
 21 22  1  0
 22 23  1  0
 23 24  1  1
 24 25  1  0
 26 24  2  0
M  END
$$$$
