EKP.pdb
     RDKit          3D

 26 26  0  0  1  0  0  0  0  0999 V2000
   26.1276  -22.0152  -12.2324 N   0  0  0  0  0  0  0  0  0  0  0  0
   25.4470  -20.8730  -12.7476 C   0  0  1  0  0  0  0  0  0  0  0  0
   26.3726  -20.1508  -13.7364 C   0  0  0  0  0  0  0  0  0  0  0  0
   27.5388  -19.5381  -12.9909 C   0  0  0  0  0  0  0  0  0  0  0  0
   28.4221  -18.7662  -13.8849 C   0  0  0  0  0  0  0  0  0  0  0  0
   28.1500  -18.6758  -15.1096 O   0  0  0  0  0  0  0  0  0  0  0  0
   24.2674  -21.3012  -13.5286 C   0  0  0  0  0  0  0  0  0  0  0  0
   24.4271  -22.1462  -14.4414 O   0  0  0  0  0  0  0  0  0  0  0  0
   29.5664  -18.1169  -13.4401 O   0  0  0  0  0  0  0  0  0  0  0  0
   22.9821  -20.8047  -13.2931 N   0  0  0  0  0  0  0  0  0  0  0  0
   21.7869  -21.2507  -14.0397 C   0  0  1  0  0  0  0  0  0  0  0  0
   20.6558  -21.3779  -13.0525 C   0  0  0  0  0  0  0  0  0  0  0  0
   19.3635  -21.7265  -13.6879 C   0  0  0  0  0  0  0  0  0  0  0  0
   18.2524  -21.9109  -12.6375 C   0  0  0  0  0  0  0  0  0  0  0  0
   16.9302  -22.2071  -13.2807 C   0  0  0  0  0  0  0  0  0  0  0  0
   15.8999  -22.2432  -12.2375 N   0  0  0  0  0  0  0  0  0  0  0  0
   21.5763  -20.2968  -15.1202 C   0  0  0  0  0  0  0  0  0  0  0  0
   21.7603  -19.0491  -14.8347 O   0  0  0  0  0  0  0  0  0  0  0  0
   21.1994  -20.6028  -16.4435 N   0  0  0  0  0  0  0  0  0  0  0  0
   21.1711  -21.9109  -17.0592 C   0  0  0  0  0  0  0  0  0  0  0  0
   21.6176  -21.6069  -18.4985 C   0  0  0  0  0  0  0  0  0  0  0  0
   20.8121  -20.3766  -18.7801 C   0  0  0  0  0  0  0  0  0  0  0  0
   20.8288  -19.6366  -17.4622 C   0  0  1  0  0  0  0  0  0  0  0  0
   19.4956  -19.0671  -17.2312 C   0  0  0  0  0  0  0  0  0  0  0  0
   18.6298  -19.5025  -16.2234 O   0  0  0  0  0  0  0  0  0  0  0  0
   19.1106  -18.1387  -17.9783 O   0  0  0  0  0  0  0  0  0  0  0  0
  2  7  1  0
  2  1  1  6
  3  2  1  0
  4  5  1  0
  4  3  1  0
  5  6  2  0
  7  8  2  0
  9  5  1  0
 10  7  1  0
 10 11  1  0
 11 12  1  1
 13 12  1  0
 13 14  1  0
 14 15  1  0
 15 16  1  0
 17 11  1  0
 18 17  2  0
 19 17  1  0
 19 23  1  0
 20 21  1  0
 20 19  1  0
 21 22  1  0
 22 23  1  0
 23 24  1  1
 24 25  1  0
 26 24  2  0
M  END
$$$$
