EKP.pdb
     RDKit          3D

 26 26  0  0  1  0  0  0  0  0999 V2000
   24.5432  -13.4495  -16.3791 N   0  0  0  0  0  0  0  0  0  0  0  0
   24.4846  -12.6338  -17.5472 C   0  0  1  0  0  0  0  0  0  0  0  0
   24.2407  -13.5337  -18.7664 C   0  0  0  0  0  0  0  0  0  0  0  0
   25.4349  -14.4387  -18.9810 C   0  0  0  0  0  0  0  0  0  0  0  0
   26.4571  -13.8106  -19.8389 C   0  0  0  0  0  0  0  0  0  0  0  0
   27.3105  -13.0371  -19.3334 O   0  0  0  0  0  0  0  0  0  0  0  0
   23.3204  -11.7264  -17.4681 C   0  0  0  0  0  0  0  0  0  0  0  0
   23.0960  -10.9537  -18.4301 O   0  0  0  0  0  0  0  0  0  0  0  0
   26.5329  -14.0302  -21.2082 O   0  0  0  0  0  0  0  0  0  0  0  0
   22.4595  -11.6929  -16.3673 N   0  0  0  0  0  0  0  0  0  0  0  0
   21.2233  -10.8838  -16.3242 C   0  0  1  0  0  0  0  0  0  0  0  0
   20.1898  -11.6735  -15.5637 C   0  0  0  0  0  0  0  0  0  0  0  0
   19.4810  -12.6674  -16.4034 C   0  0  0  0  0  0  0  0  0  0  0  0
   18.4269  -13.4411  -15.5897 C   0  0  0  0  0  0  0  0  0  0  0  0
   17.6924  -14.4329  -16.4421 C   0  0  0  0  0  0  0  0  0  0  0  0
   16.7560  -15.1768  -15.5931 N   0  0  0  0  0  0  0  0  0  0  0  0
   21.5768   -9.5920  -15.7514 C   0  0  0  0  0  0  0  0  0  0  0  0
   22.4649   -9.5992  -14.8116 O   0  0  0  0  0  0  0  0  0  0  0  0
   21.0506   -8.3394  -16.1266 N   0  0  0  0  0  0  0  0  0  0  0  0
   20.1690   -8.0644  -17.2393 C   0  0  0  0  0  0  0  0  0  0  0  0
   20.6617   -6.6889  -17.7175 C   0  0  0  0  0  0  0  0  0  0  0  0
   20.8273   -5.9870  -16.4053 C   0  0  0  0  0  0  0  0  0  0  0  0
   21.3566   -7.0693  -15.4925 C   0  0  1  0  0  0  0  0  0  0  0  0
   20.7094   -6.9307  -14.1821 C   0  0  0  0  0  0  0  0  0  0  0  0
   19.7402   -7.8145  -13.6980 O   0  0  0  0  0  0  0  0  0  0  0  0
   21.0433   -5.9668  -13.4557 O   0  0  0  0  0  0  0  0  0  0  0  0
  2  7  1  0
  2  1  1  1
  3  2  1  0
  4  5  1  0
  4  3  1  0
  5  6  2  0
  7  8  2  0
  9  5  1  0
 10  7  1  0
 10 11  1  0
 11 12  1  1
 13 12  1  0
 13 14  1  0
 14 15  1  0
 15 16  1  0
 17 11  1  0
 18 17  2  0
 19 17  1  0
 19 23  1  0
 20 21  1  0
 20 19  1  0
 21 22  1  0
 22 23  1  0
 23 24  1  1
 24 25  1  0
 26 24  2  0
M  END
$$$$
