EKP.pdb
     RDKit          3D

 26 26  0  0  1  0  0  0  0  0999 V2000
   27.9995  -25.6500  -17.6645 N   0  0  0  0  0  0  0  0  0  0  0  0
   26.6629  -25.5519  -17.1776 C   0  0  1  0  0  0  0  0  0  0  0  0
   26.4514  -26.6206  -16.0964 C   0  0  0  0  0  0  0  0  0  0  0  0
   25.4626  -27.6561  -16.5876 C   0  0  0  0  0  0  0  0  0  0  0  0
   25.9664  -28.3860  -17.7661 C   0  0  0  0  0  0  0  0  0  0  0  0
   27.0701  -28.9862  -17.7069 O   0  0  0  0  0  0  0  0  0  0  0  0
   26.4664  -24.2483  -16.5091 C   0  0  0  0  0  0  0  0  0  0  0  0
   27.3778  -23.8118  -15.7664 O   0  0  0  0  0  0  0  0  0  0  0  0
   25.2737  -28.4498  -18.9682 O   0  0  0  0  0  0  0  0  0  0  0  0
   25.3086  -23.4816  -16.6696 N   0  0  0  0  0  0  0  0  0  0  0  0
   25.1302  -22.1408  -16.0736 C   0  0  1  0  0  0  0  0  0  0  0  0
   24.1423  -21.3911  -16.9291 C   0  0  0  0  0  0  0  0  0  0  0  0
   23.6945  -20.1160  -16.3219 C   0  0  0  0  0  0  0  0  0  0  0  0
   24.3538  -18.9048  -17.0077 C   0  0  0  0  0  0  0  0  0  0  0  0
   23.9580  -17.6165  -16.3495 C   0  0  0  0  0  0  0  0  0  0  0  0
   24.5757  -16.5070  -17.0833 N   0  0  0  0  0  0  0  0  0  0  0  0
   24.7387  -22.3384  -14.6844 C   0  0  0  0  0  0  0  0  0  0  0  0
   23.8759  -23.2734  -14.4538 O   0  0  0  0  0  0  0  0  0  0  0  0
   25.2136  -21.6155  -13.5716 N   0  0  0  0  0  0  0  0  0  0  0  0
   26.2972  -20.6582  -13.5544 C   0  0  0  0  0  0  0  0  0  0  0  0
   26.9451  -20.9191  -12.1848 C   0  0  0  0  0  0  0  0  0  0  0  0
   25.7259  -21.0305  -11.3229 C   0  0  0  0  0  0  0  0  0  0  0  0
   24.7355  -21.7528  -12.2072 C   0  0  1  0  0  0  0  0  0  0  0  0
   23.4124  -21.1458  -12.0169 C   0  0  0  0  0  0  0  0  0  0  0  0
   22.6354  -21.3230  -10.8681 O   0  0  0  0  0  0  0  0  0  0  0  0
   22.9525  -20.4283  -12.9345 O   0  0  0  0  0  0  0  0  0  0  0  0
  2  7  1  0
  2  1  1  1
  3  2  1  0
  4  5  1  0
  4  3  1  0
  5  6  2  0
  7  8  2  0
  9  5  1  0
 10  7  1  0
 10 11  1  0
 11 12  1  6
 13 12  1  0
 13 14  1  0
 14 15  1  0
 15 16  1  0
 17 11  1  0
 18 17  2  0
 19 17  1  0
 19 23  1  0
 20 21  1  0
 20 19  1  0
 21 22  1  0
 22 23  1  0
 23 24  1  6
 24 25  1  0
 26 24  2  0
M  END
$$$$
