EKP.pdb
     RDKit          3D

 26 26  0  0  1  0  0  0  0  0999 V2000
   22.6194   -5.6784  -18.0849 N   0  0  0  0  0  0  0  0  0  0  0  0
   22.7477   -6.6368  -17.0370 C   0  0  1  0  0  0  0  0  0  0  0  0
   23.2459   -5.9228  -15.7729 C   0  0  0  0  0  0  0  0  0  0  0  0
   22.3279   -4.7650  -15.4443 C   0  0  0  0  0  0  0  0  0  0  0  0
   22.1224   -4.6180  -13.9911 C   0  0  0  0  0  0  0  0  0  0  0  0
   23.0439   -4.9282  -13.1933 O   0  0  0  0  0  0  0  0  0  0  0  0
   21.4201   -7.1912  -16.6982 C   0  0  0  0  0  0  0  0  0  0  0  0
   20.4078   -6.4714  -16.8707 O   0  0  0  0  0  0  0  0  0  0  0  0
   20.9390   -4.1443  -13.4396 O   0  0  0  0  0  0  0  0  0  0  0  0
   21.2450   -8.4832  -16.1939 N   0  0  0  0  0  0  0  0  0  0  0  0
   19.9211   -9.1166  -16.0179 C   0  0  1  0  0  0  0  0  0  0  0  0
   20.1117  -10.6068  -16.1314 C   0  0  0  0  0  0  0  0  0  0  0  0
   18.8458  -11.3675  -16.0129 C   0  0  0  0  0  0  0  0  0  0  0  0
   19.0956  -12.8863  -16.0665 C   0  0  0  0  0  0  0  0  0  0  0  0
   17.8180  -13.6596  -15.9275 C   0  0  0  0  0  0  0  0  0  0  0  0
   18.1457  -15.0805  -15.7709 N   0  0  0  0  0  0  0  0  0  0  0  0
   19.3859   -8.6443  -14.7480 C   0  0  0  0  0  0  0  0  0  0  0  0
   20.2380   -8.4634  -13.7924 O   0  0  0  0  0  0  0  0  0  0  0  0
   18.0348   -8.3604  -14.4645 N   0  0  0  0  0  0  0  0  0  0  0  0
   16.9516   -8.2480  -15.4158 C   0  0  0  0  0  0  0  0  0  0  0  0
   16.0991   -7.1200  -14.8122 C   0  0  0  0  0  0  0  0  0  0  0  0
   16.0954   -7.5225  -13.3700 C   0  0  0  0  0  0  0  0  0  0  0  0
   17.4911   -8.0600  -13.1518 C   0  0  1  0  0  0  0  0  0  0  0  0
   17.4029   -9.2520  -12.2994 C   0  0  0  0  0  0  0  0  0  0  0  0
   17.3852  -10.5598  -12.7935 O   0  0  0  0  0  0  0  0  0  0  0  0
   17.3399   -9.0897  -11.0592 O   0  0  0  0  0  0  0  0  0  0  0  0
  2  7  1  0
  2  1  1  6
  3  2  1  0
  4  5  1  0
  4  3  1  0
  5  6  2  0
  7  8  2  0
  9  5  1  0
 10  7  1  0
 10 11  1  0
 11 12  1  1
 13 12  1  0
 13 14  1  0
 14 15  1  0
 15 16  1  0
 17 11  1  0
 18 17  2  0
 19 17  1  0
 19 23  1  0
 20 21  1  0
 20 19  1  0
 21 22  1  0
 22 23  1  0
 23 24  1  1
 24 25  1  0
 26 24  2  0
M  END
$$$$
