EKP.pdb
     RDKit          3D

 26 26  0  0  1  0  0  0  0  0999 V2000
   23.9289  -14.2614  -19.6154 N   0  0  0  0  0  0  0  0  0  0  0  0
   23.2105  -14.2903  -18.3840 C   0  0  1  0  0  0  0  0  0  0  0  0
   24.2050  -14.5165  -17.2371 C   0  0  0  0  0  0  0  0  0  0  0  0
   25.3785  -13.5717  -17.3840 C   0  0  0  0  0  0  0  0  0  0  0  0
   26.3224  -13.6834  -16.2562 C   0  0  0  0  0  0  0  0  0  0  0  0
   27.3167  -12.9156  -16.1927 O   0  0  0  0  0  0  0  0  0  0  0  0
   22.5895  -12.9724  -18.1340 C   0  0  0  0  0  0  0  0  0  0  0  0
   23.1261  -11.9530  -18.6295 O   0  0  0  0  0  0  0  0  0  0  0  0
   26.1721  -14.6118  -15.2343 O   0  0  0  0  0  0  0  0  0  0  0  0
   21.4302  -12.8142  -17.3692 N   0  0  0  0  0  0  0  0  0  0  0  0
   20.7002  -11.5343  -17.2514 C   0  0  1  0  0  0  0  0  0  0  0  0
   19.2568  -11.8592  -16.9663 C   0  0  0  0  0  0  0  0  0  0  0  0
   18.3965  -10.6568  -16.8693 C   0  0  0  0  0  0  0  0  0  0  0  0
   16.9313  -11.0355  -16.5836 C   0  0  0  0  0  0  0  0  0  0  0  0
   16.0470   -9.8247  -16.5455 C   0  0  0  0  0  0  0  0  0  0  0  0
   14.6582  -10.2647  -16.3760 N   0  0  0  0  0  0  0  0  0  0  0  0
   21.3815  -10.7448  -16.2344 C   0  0  0  0  0  0  0  0  0  0  0  0
   21.9075  -11.3985  -15.2505 O   0  0  0  0  0  0  0  0  0  0  0  0
   21.5275   -9.3430  -16.2236 N   0  0  0  0  0  0  0  0  0  0  0  0
   21.1176   -8.4180  -17.2567 C   0  0  0  0  0  0  0  0  0  0  0  0
   22.2346   -7.3625  -17.2155 C   0  0  0  0  0  0  0  0  0  0  0  0
   22.3786   -7.1750  -15.7370 C   0  0  0  0  0  0  0  0  0  0  0  0
   22.1855   -8.5691  -15.1858 C   0  0  1  0  0  0  0  0  0  0  0  0
   21.3790   -8.4785  -13.9625 C   0  0  0  0  0  0  0  0  0  0  0  0
   20.0095   -8.7558  -13.9137 O   0  0  0  0  0  0  0  0  0  0  0  0
   21.9485   -8.1334  -12.9019 O   0  0  0  0  0  0  0  0  0  0  0  0
  2  7  1  0
  2  1  1  6
  3  2  1  0
  4  5  1  0
  4  3  1  0
  5  6  2  0
  7  8  2  0
  9  5  1  0
 10  7  1  0
 10 11  1  0
 11 12  1  1
 13 12  1  0
 13 14  1  0
 14 15  1  0
 15 16  1  0
 17 11  1  0
 18 17  2  0
 19 17  1  0
 19 23  1  0
 20 21  1  0
 20 19  1  0
 21 22  1  0
 22 23  1  0
 23 24  1  1
 24 25  1  0
 26 24  2  0
M  END
$$$$
