EKP.pdb
     RDKit          3D

 26 26  0  0  1  0  0  0  0  0999 V2000
   27.5779  -18.3940  -16.2539 N   0  0  0  0  0  0  0  0  0  0  0  0
   26.6851  -19.5049  -16.2066 C   0  0  1  0  0  0  0  0  0  0  0  0
   27.2763  -20.5746  -15.2781 C   0  0  0  0  0  0  0  0  0  0  0  0
   28.1538  -21.5154  -16.0756 C   0  0  0  0  0  0  0  0  0  0  0  0
   27.4622  -22.7781  -16.3960 C   0  0  0  0  0  0  0  0  0  0  0  0
   26.2562  -22.9315  -16.0732 O   0  0  0  0  0  0  0  0  0  0  0  0
   25.4040  -19.0937  -15.5946 C   0  0  0  0  0  0  0  0  0  0  0  0
   25.4316  -18.4756  -14.5037 O   0  0  0  0  0  0  0  0  0  0  0  0
   28.0826  -23.8343  -17.0504 O   0  0  0  0  0  0  0  0  0  0  0  0
   24.1637  -19.3643  -16.1797 N   0  0  0  0  0  0  0  0  0  0  0  0
   22.8778  -18.9071  -15.6118 C   0  0  1  0  0  0  0  0  0  0  0  0
   22.1630  -18.1215  -16.6804 C   0  0  0  0  0  0  0  0  0  0  0  0
   20.7836  -17.7386  -16.2986 C   0  0  0  0  0  0  0  0  0  0  0  0
   20.5120  -16.2510  -16.5906 C   0  0  0  0  0  0  0  0  0  0  0  0
   19.1096  -15.8652  -16.2246 C   0  0  0  0  0  0  0  0  0  0  0  0
   18.9754  -14.4105  -16.3545 N   0  0  0  0  0  0  0  0  0  0  0  0
   22.1800  -20.0896  -15.1254 C   0  0  0  0  0  0  0  0  0  0  0  0
   22.2309  -21.1413  -15.8760 O   0  0  0  0  0  0  0  0  0  0  0  0
   21.4632  -20.1987  -13.9167 N   0  0  0  0  0  0  0  0  0  0  0  0
   21.3771  -19.2107  -12.8644 C   0  0  0  0  0  0  0  0  0  0  0  0
   21.3540  -20.0807  -11.5971 C   0  0  0  0  0  0  0  0  0  0  0  0
   20.3915  -21.1482  -12.0164 C   0  0  0  0  0  0  0  0  0  0  0  0
   20.7238  -21.3677  -13.4745 C   0  0  1  0  0  0  0  0  0  0  0  0
   19.4695  -21.5469  -14.2160 C   0  0  0  0  0  0  0  0  0  0  0  0
   18.6559  -22.6783  -14.1026 O   0  0  0  0  0  0  0  0  0  0  0  0
   19.1065  -20.6357  -14.9945 O   0  0  0  0  0  0  0  0  0  0  0  0
  2  7  1  0
  2  1  1  1
  3  2  1  0
  4  5  1  0
  4  3  1  0
  5  6  2  0
  7  8  2  0
  9  5  1  0
 10  7  1  0
 10 11  1  0
 11 12  1  6
 13 12  1  0
 13 14  1  0
 14 15  1  0
 15 16  1  0
 17 11  1  0
 18 17  2  0
 19 17  1  0
 19 23  1  0
 20 21  1  0
 20 19  1  0
 21 22  1  0
 22 23  1  0
 23 24  1  6
 24 25  1  0
 26 24  2  0
M  END
$$$$
