EKP.pdb
     RDKit          3D

 26 26  0  0  1  0  0  0  0  0999 V2000
   16.3722  -19.5262    2.0532 N   0  0  0  0  0  0  0  0  0  0  0  0
   16.2662  -19.8764    3.4314 C   0  0  1  0  0  0  0  0  0  0  0  0
   16.6854  -21.3430    3.6021 C   0  0  0  0  0  0  0  0  0  0  0  0
   15.5939  -22.2511    3.0774 C   0  0  0  0  0  0  0  0  0  0  0  0
   15.8625  -23.6696    3.3793 C   0  0  0  0  0  0  0  0  0  0  0  0
   16.9391  -23.9979    3.9407 O   0  0  0  0  0  0  0  0  0  0  0  0
   17.2250  -19.0810    4.2268 C   0  0  0  0  0  0  0  0  0  0  0  0
   18.3422  -18.8114    3.7248 O   0  0  0  0  0  0  0  0  0  0  0  0
   14.9715  -24.6894    3.0712 O   0  0  0  0  0  0  0  0  0  0  0  0
   16.9397  -18.6166    5.5140 N   0  0  0  0  0  0  0  0  0  0  0  0
   17.8011  -17.6644    6.2463 C   0  0  1  0  0  0  0  0  0  0  0  0
   16.9505  -16.4793    6.6231 C   0  0  0  0  0  0  0  0  0  0  0  0
   17.7079  -15.4177    7.3262 C   0  0  0  0  0  0  0  0  0  0  0  0
   16.7925  -14.2460    7.7276 C   0  0  0  0  0  0  0  0  0  0  0  0
   17.5809  -13.0946    8.2774 C   0  0  0  0  0  0  0  0  0  0  0  0
   16.6447  -12.0874    8.7874 N   0  0  0  0  0  0  0  0  0  0  0  0
   18.3956  -18.3930    7.3588 C   0  0  0  0  0  0  0  0  0  0  0  0
   17.6581  -19.2947    7.9199 O   0  0  0  0  0  0  0  0  0  0  0  0
   19.6947  -18.2146    7.8756 N   0  0  0  0  0  0  0  0  0  0  0  0
   20.7424  -17.3829    7.3264 C   0  0  0  0  0  0  0  0  0  0  0  0
   22.0054  -18.2100    7.6168 C   0  0  0  0  0  0  0  0  0  0  0  0
   21.7341  -18.6369    9.0261 C   0  0  0  0  0  0  0  0  0  0  0  0
   20.2450  -18.8956    9.0341 C   0  0  1  0  0  0  0  0  0  0  0  0
   19.6909  -18.3865   10.2947 C   0  0  0  0  0  0  0  0  0  0  0  0
   18.8667  -17.2605   10.3814 O   0  0  0  0  0  0  0  0  0  0  0  0
   19.9714  -18.9943   11.3531 O   0  0  0  0  0  0  0  0  0  0  0  0
  2  7  1  0
  2  1  1  6
  3  2  1  0
  4  5  1  0
  4  3  1  0
  5  6  2  0
  7  8  2  0
  9  5  1  0
 10  7  1  0
 10 11  1  0
 11 12  1  1
 13 12  1  0
 13 14  1  0
 14 15  1  0
 15 16  1  0
 17 11  1  0
 18 17  2  0
 19 17  1  0
 19 23  1  0
 20 21  1  0
 20 19  1  0
 21 22  1  0
 22 23  1  0
 23 24  1  1
 24 25  1  0
 26 24  2  0
M  END
$$$$
