EKP.pdb
     RDKit          3D

 26 26  0  0  1  0  0  0  0  0999 V2000
   17.0998  -16.6787  -19.7019 N   0  0  0  0  0  0  0  0  0  0  0  0
   16.9993  -16.3183  -18.3259 C   0  0  1  0  0  0  0  0  0  0  0  0
   15.5149  -16.2103  -17.9507 C   0  0  0  0  0  0  0  0  0  0  0  0
   15.0905  -14.7574  -17.9562 C   0  0  0  0  0  0  0  0  0  0  0  0
   14.9746  -14.2104  -16.5914 C   0  0  0  0  0  0  0  0  0  0  0  0
   14.1311  -14.6925  -15.7924 O   0  0  0  0  0  0  0  0  0  0  0  0
   17.5578  -17.3960  -17.4824 C   0  0  0  0  0  0  0  0  0  0  0  0
   17.2321  -18.5813  -17.7305 O   0  0  0  0  0  0  0  0  0  0  0  0
   15.7639  -13.1666  -16.1263 O   0  0  0  0  0  0  0  0  0  0  0  0
   18.4331  -17.1502  -16.4207 N   0  0  0  0  0  0  0  0  0  0  0  0
   19.0188  -18.2185  -15.5836 C   0  0  1  0  0  0  0  0  0  0  0  0
   20.2812  -17.6728  -14.9683 C   0  0  0  0  0  0  0  0  0  0  0  0
   20.9480  -18.6323  -14.0572 C   0  0  0  0  0  0  0  0  0  0  0  0
   21.9007  -19.5674  -14.8252 C   0  0  0  0  0  0  0  0  0  0  0  0
   22.5078  -20.5985  -13.9209 C   0  0  0  0  0  0  0  0  0  0  0  0
   23.3985  -21.4512  -14.7149 N   0  0  0  0  0  0  0  0  0  0  0  0
   17.9891  -18.6382  -14.6427 C   0  0  0  0  0  0  0  0  0  0  0  0
   17.2739  -17.7010  -14.1114 O   0  0  0  0  0  0  0  0  0  0  0  0
   17.6944  -19.9631  -14.2625 N   0  0  0  0  0  0  0  0  0  0  0  0
   18.2463  -21.1736  -14.8291 C   0  0  0  0  0  0  0  0  0  0  0  0
   17.0469  -22.1343  -14.7846 C   0  0  0  0  0  0  0  0  0  0  0  0
   16.5199  -21.8495  -13.4124 C   0  0  0  0  0  0  0  0  0  0  0  0
   16.7190  -20.3588  -13.2621 C   0  0  1  0  0  0  0  0  0  0  0  0
   17.1808  -20.0863  -11.8955 C   0  0  0  0  0  0  0  0  0  0  0  0
   18.4639  -19.6242  -11.5876 O   0  0  0  0  0  0  0  0  0  0  0  0
   16.3812  -20.2782  -10.9509 O   0  0  0  0  0  0  0  0  0  0  0  0
  2  7  1  0
  2  1  1  6
  3  2  1  0
  4  5  1  0
  4  3  1  0
  5  6  2  0
  7  8  2  0
  9  5  1  0
 10  7  1  0
 10 11  1  0
 11 12  1  1
 13 12  1  0
 13 14  1  0
 14 15  1  0
 15 16  1  0
 17 11  1  0
 18 17  2  0
 19 17  1  0
 19 23  1  0
 20 21  1  0
 20 19  1  0
 21 22  1  0
 22 23  1  0
 23 24  1  1
 24 25  1  0
 26 24  2  0
M  END
$$$$
