EKP.pdb
     RDKit          3D

 26 26  0  0  1  0  0  0  0  0999 V2000
   26.9552  -25.9870  -16.8465 N   0  0  0  0  0  0  0  0  0  0  0  0
   25.8923  -25.0370  -16.8139 C   0  0  1  0  0  0  0  0  0  0  0  0
   24.6398  -25.7166  -16.2437 C   0  0  0  0  0  0  0  0  0  0  0  0
   23.5836  -25.8295  -17.3222 C   0  0  0  0  0  0  0  0  0  0  0  0
   22.9790  -24.5229  -17.6425 C   0  0  0  0  0  0  0  0  0  0  0  0
   23.3752  -23.8784  -18.6473 O   0  0  0  0  0  0  0  0  0  0  0  0
   26.2260  -23.9420  -15.8788 C   0  0  0  0  0  0  0  0  0  0  0  0
   27.0453  -24.1695  -14.9570 O   0  0  0  0  0  0  0  0  0  0  0  0
   21.9713  -23.9491  -16.8782 O   0  0  0  0  0  0  0  0  0  0  0  0
   25.6675  -22.6644  -15.9781 N   0  0  0  0  0  0  0  0  0  0  0  0
   26.0308  -21.5446  -15.0843 C   0  0  1  0  0  0  0  0  0  0  0  0
   25.9618  -20.2760  -15.8942 C   0  0  0  0  0  0  0  0  0  0  0  0
   27.1646  -20.0513  -16.7297 C   0  0  0  0  0  0  0  0  0  0  0  0
   27.0901  -18.7035  -17.4713 C   0  0  0  0  0  0  0  0  0  0  0  0
   28.2923  -18.4866  -18.3414 C   0  0  0  0  0  0  0  0  0  0  0  0
   28.1459  -17.1998  -19.0296 N   0  0  0  0  0  0  0  0  0  0  0  0
   25.1388  -21.6079  -13.9344 C   0  0  0  0  0  0  0  0  0  0  0  0
   24.0089  -22.2113  -14.1111 O   0  0  0  0  0  0  0  0  0  0  0  0
   25.3911  -21.0824  -12.6512 N   0  0  0  0  0  0  0  0  0  0  0  0
   26.5835  -20.3914  -12.2134 C   0  0  0  0  0  0  0  0  0  0  0  0
   26.7324  -20.8783  -10.7629 C   0  0  0  0  0  0  0  0  0  0  0  0
   25.3145  -20.7742  -10.2932 C   0  0  0  0  0  0  0  0  0  0  0  0
   24.5122  -21.2001  -11.5012 C   0  0  1  0  0  0  0  0  0  0  0  0
   23.3348  -20.3298  -11.6086 C   0  0  0  0  0  0  0  0  0  0  0  0
   23.2139  -19.3003  -12.5468 O   0  0  0  0  0  0  0  0  0  0  0  0
   22.3842  -20.5190  -10.8156 O   0  0  0  0  0  0  0  0  0  0  0  0
  2  7  1  0
  2  1  1  1
  3  2  1  0
  4  5  1  0
  4  3  1  0
  5  6  2  0
  7  8  2  0
  9  5  1  0
 10  7  1  0
 10 11  1  0
 11 12  1  6
 13 12  1  0
 13 14  1  0
 14 15  1  0
 15 16  1  0
 17 11  1  0
 18 17  2  0
 19 17  1  0
 19 23  1  0
 20 21  1  0
 20 19  1  0
 21 22  1  0
 22 23  1  0
 23 24  1  6
 24 25  1  0
 26 24  2  0
M  END
$$$$
