EKP.pdb
     RDKit          3D

 26 26  0  0  1  0  0  0  0  0999 V2000
   25.9975  -24.2853  -17.7668 N   0  0  0  0  0  0  0  0  0  0  0  0
   25.1112  -23.2603  -17.3228 C   0  0  1  0  0  0  0  0  0  0  0  0
   23.8714  -23.9155  -16.6988 C   0  0  0  0  0  0  0  0  0  0  0  0
   22.9461  -24.4040  -17.7925 C   0  0  0  0  0  0  0  0  0  0  0  0
   22.3870  -23.2904  -18.5817 C   0  0  0  0  0  0  0  0  0  0  0  0
   21.8918  -22.2936  -17.9958 O   0  0  0  0  0  0  0  0  0  0  0  0
   25.7488  -22.4781  -16.2428 C   0  0  0  0  0  0  0  0  0  0  0  0
   26.5954  -23.0449  -15.5115 O   0  0  0  0  0  0  0  0  0  0  0  0
   22.3760  -23.2795  -19.9705 O   0  0  0  0  0  0  0  0  0  0  0  0
   25.4485  -21.1343  -16.0020 N   0  0  0  0  0  0  0  0  0  0  0  0
   26.0778  -20.3388  -14.9267 C   0  0  1  0  0  0  0  0  0  0  0  0
   25.8817  -18.8836  -15.2640 C   0  0  0  0  0  0  0  0  0  0  0  0
   27.0559  -18.2766  -15.9333 C   0  0  0  0  0  0  0  0  0  0  0  0
   26.7174  -17.8320  -17.3684 C   0  0  0  0  0  0  0  0  0  0  0  0
   27.9309  -17.3225  -18.0877 C   0  0  0  0  0  0  0  0  0  0  0  0
   27.5637  -17.0322  -19.4776 N   0  0  0  0  0  0  0  0  0  0  0  0
   25.4904  -20.7792  -13.6686 C   0  0  0  0  0  0  0  0  0  0  0  0
   24.3168  -21.3180  -13.7351 O   0  0  0  0  0  0  0  0  0  0  0  0
   26.0791  -20.6807  -12.3917 N   0  0  0  0  0  0  0  0  0  0  0  0
   27.4322  -20.2714  -12.0872 C   0  0  0  0  0  0  0  0  0  0  0  0
   27.7887  -21.1742  -10.8950 C   0  0  0  0  0  0  0  0  0  0  0  0
   26.5314  -21.0705  -10.0886 C   0  0  0  0  0  0  0  0  0  0  0  0
   25.4431  -21.0412  -11.1370 C   0  0  1  0  0  0  0  0  0  0  0  0
   24.4274  -20.0640  -10.7265 C   0  0  0  0  0  0  0  0  0  0  0  0
   23.4468  -20.3220   -9.7638 O   0  0  0  0  0  0  0  0  0  0  0  0
   24.4385  -18.9351  -11.2684 O   0  0  0  0  0  0  0  0  0  0  0  0
  2  7  1  0
  2  1  1  1
  3  2  1  0
  4  5  1  0
  4  3  1  0
  5  6  2  0
  7  8  2  0
  9  5  1  0
 10  7  1  0
 10 11  1  0
 11 12  1  6
 13 12  1  0
 13 14  1  0
 14 15  1  0
 15 16  1  0
 17 11  1  0
 18 17  2  0
 19 17  1  0
 19 23  1  0
 20 21  1  0
 20 19  1  0
 21 22  1  0
 22 23  1  0
 23 24  1  1
 24 25  1  0
 26 24  2  0
M  END
$$$$
