EKP.pdb
     RDKit          3D

 26 26  0  0  1  0  0  0  0  0999 V2000
   24.7690  -18.3049  -16.2623 N   0  0  0  0  0  0  0  0  0  0  0  0
   24.0204  -17.2203  -16.8068 C   0  0  1  0  0  0  0  0  0  0  0  0
   22.8507  -16.9052  -15.8643 C   0  0  0  0  0  0  0  0  0  0  0  0
   21.7665  -17.9486  -16.0283 C   0  0  0  0  0  0  0  0  0  0  0  0
   20.6045  -17.6793  -15.1607 C   0  0  0  0  0  0  0  0  0  0  0  0
   20.3264  -18.4694  -14.2224 O   0  0  0  0  0  0  0  0  0  0  0  0
   24.8563  -16.0019  -16.8441 C   0  0  0  0  0  0  0  0  0  0  0  0
   25.6526  -15.7918  -15.8983 O   0  0  0  0  0  0  0  0  0  0  0  0
   19.7789  -16.5747  -15.3251 O   0  0  0  0  0  0  0  0  0  0  0  0
   24.7971  -15.0743  -17.8882 N   0  0  0  0  0  0  0  0  0  0  0  0
   25.6929  -13.9029  -17.9891 C   0  0  1  0  0  0  0  0  0  0  0  0
   25.9101  -13.6218  -19.4533 C   0  0  0  0  0  0  0  0  0  0  0  0
   26.6903  -12.3868  -19.7007 C   0  0  0  0  0  0  0  0  0  0  0  0
   28.1893  -12.6943  -19.8748 C   0  0  0  0  0  0  0  0  0  0  0  0
   28.9825  -11.4455  -20.1217 C   0  0  0  0  0  0  0  0  0  0  0  0
   30.3971  -11.8085  -20.2561 N   0  0  0  0  0  0  0  0  0  0  0  0
   25.0774  -12.8262  -17.2250 C   0  0  0  0  0  0  0  0  0  0  0  0
   23.7861  -12.7632  -17.2506 O   0  0  0  0  0  0  0  0  0  0  0  0
   25.7515  -11.8546  -16.4580 N   0  0  0  0  0  0  0  0  0  0  0  0
   27.1554  -11.8405  -16.1116 C   0  0  0  0  0  0  0  0  0  0  0  0
   27.1373  -11.2605  -14.6880 C   0  0  0  0  0  0  0  0  0  0  0  0
   26.1626  -10.1375  -14.8632 C   0  0  0  0  0  0  0  0  0  0  0  0
   25.1347  -10.7094  -15.8123 C   0  0  1  0  0  0  0  0  0  0  0  0
   24.7561   -9.6656  -16.7726 C   0  0  0  0  0  0  0  0  0  0  0  0
   23.9471   -8.5717  -16.4507 O   0  0  0  0  0  0  0  0  0  0  0  0
   25.1810   -9.7589  -17.9469 O   0  0  0  0  0  0  0  0  0  0  0  0
  2  7  1  0
  2  1  1  1
  3  2  1  0
  4  5  1  0
  4  3  1  0
  5  6  2  0
  7  8  2  0
  9  5  1  0
 10  7  1  0
 10 11  1  0
 11 12  1  6
 13 12  1  0
 13 14  1  0
 14 15  1  0
 15 16  1  0
 17 11  1  0
 18 17  2  0
 19 17  1  0
 19 23  1  0
 20 21  1  0
 20 19  1  0
 21 22  1  0
 22 23  1  0
 23 24  1  6
 24 25  1  0
 26 24  2  0
M  END
$$$$
