WSF.pdb
     RDKit          3D

 32 34  0  0  1  0  0  0  0  0999 V2000
   27.9395  -21.8965  -13.2174 N   0  0  0  0  0  0  0  0  0  0  0  0
   26.8091  -21.4811  -12.3529 C   0  0  1  0  0  0  0  0  0  0  0  0
   27.2224  -20.2978  -11.5883 C   0  0  0  0  0  0  0  0  0  0  0  0
   28.2317  -20.6201  -10.5622 C   0  0  0  0  0  0  0  0  0  0  0  0
   29.5571  -20.9369  -10.7735 C   0  0  0  0  0  0  0  0  0  0  0  0
   30.1668  -21.1875   -9.6051 N   0  0  0  0  0  0  0  0  0  0  0  0
   29.2684  -21.0428   -8.6178 C   0  0  0  0  0  0  0  0  0  0  0  0
   29.3277  -21.1718   -7.2415 C   0  0  0  0  0  0  0  0  0  0  0  0
   28.2208  -20.9585   -6.4451 C   0  0  0  0  0  0  0  0  0  0  0  0
   27.0154  -20.6071   -7.0154 C   0  0  0  0  0  0  0  0  0  0  0  0
   26.9637  -20.4805   -8.3850 C   0  0  0  0  0  0  0  0  0  0  0  0
   28.0697  -20.6935   -9.1831 C   0  0  0  0  0  0  0  0  0  0  0  0
   25.6207  -21.4331  -13.1728 C   0  0  0  0  0  0  0  0  0  0  0  0
   25.6490  -20.6960  -14.2235 O   0  0  0  0  0  0  0  0  0  0  0  0
   23.0385  -24.2838  -13.7881 O   0  0  0  0  0  0  0  0  0  0  0  0
   23.0046  -23.2058  -14.6551 C   0  0  0  0  0  0  0  0  0  0  0  0
   23.2491  -21.9405  -13.8698 C   0  0  2  0  0  0  0  0  0  0  0  0
   24.3942  -22.1028  -12.9806 N   0  0  0  0  0  0  0  0  0  0  0  0
   22.0532  -21.4917  -13.1298 C   0  0  0  0  0  0  0  0  0  0  0  0
   21.9972  -21.6734  -11.8608 O   0  0  0  0  0  0  0  0  0  0  0  0
   20.9353  -20.8616  -13.7087 N   0  0  0  0  0  0  0  0  0  0  0  0
   19.7864  -20.4182  -12.9025 C   0  0  1  0  0  0  0  0  0  0  0  0
   19.6571  -18.9329  -12.9281 C   0  0  0  0  0  0  0  0  0  0  0  0
   19.6838  -18.3975  -14.3067 C   0  0  0  0  0  0  0  0  0  0  0  0
   20.8690  -18.0689  -14.9463 C   0  0  0  0  0  0  0  0  0  0  0  0
   20.8369  -17.5995  -16.2257 C   0  0  0  0  0  0  0  0  0  0  0  0
   19.6804  -17.4213  -16.9542 C   0  0  0  0  0  0  0  0  0  0  0  0
   18.5005  -17.7478  -16.3196 C   0  0  0  0  0  0  0  0  0  0  0  0
   18.5154  -18.2279  -15.0156 C   0  0  0  0  0  0  0  0  0  0  0  0
   18.5853  -21.0394  -13.4889 C   0  0  0  0  0  0  0  0  0  0  0  0
   18.5675  -21.6739  -14.5702 O   0  0  0  0  0  0  0  0  0  0  0  0
   17.3360  -20.9520  -12.8407 O   0  0  0  0  0  0  0  0  0  0  0  0
  2  1  1  6
  2 13  1  0
  2  3  1  0
  3  4  1  0
  4  5  2  0
  5  6  1  0
  7  6  1  0
  8  7  2  0
  9  8  1  0
 10 11  1  0
 10  9  2  0
 11 12  2  0
 12  4  1  0
 12  7  1  0
 13 14  2  0
 16 15  1  0
 17 16  1  1
 18 13  1  0
 18 17  1  0
 19 20  2  0
 19 17  1  0
 21 19  1  0
 22 23  1  6
 22 21  1  0
 23 24  1  0
 24 29  1  0
 25 24  2  0
 26 25  1  0
 26 27  2  0
 27 28  1  0
 29 28  2  0
 30 22  1  0
 30 32  1  0
 31 30  2  0
M  END
$$$$
