WSF.pdb
     RDKit          3D

 32 34  0  0  1  0  0  0  0  0999 V2000
   16.2258  -13.1241    4.2518 N   0  0  0  0  0  0  0  0  0  0  0  0
   16.6989  -14.4710    3.8524 C   0  0  1  0  0  0  0  0  0  0  0  0
   17.5423  -14.3296    2.6590 C   0  0  0  0  0  0  0  0  0  0  0  0
   18.0301  -15.6300    2.1622 C   0  0  0  0  0  0  0  0  0  0  0  0
   17.3166  -16.8074    2.0820 C   0  0  0  0  0  0  0  0  0  0  0  0
   18.0922  -17.7883    1.5963 N   0  0  0  0  0  0  0  0  0  0  0  0
   19.3119  -17.2833    1.3513 C   0  0  0  0  0  0  0  0  0  0  0  0
   20.4886  -17.8169    0.8562 C   0  0  0  0  0  0  0  0  0  0  0  0
   21.6250  -17.0487    0.7032 C   0  0  0  0  0  0  0  0  0  0  0  0
   21.6088  -15.7132    1.0466 C   0  0  0  0  0  0  0  0  0  0  0  0
   20.4350  -15.1890    1.5384 C   0  0  0  0  0  0  0  0  0  0  0  0
   19.2975  -15.9558    1.6921 C   0  0  0  0  0  0  0  0  0  0  0  0
   17.2187  -15.1240    5.0316 C   0  0  0  0  0  0  0  0  0  0  0  0
   17.9744  -14.4381    5.8103 O   0  0  0  0  0  0  0  0  0  0  0  0
   15.6748  -17.6179    7.6466 O   0  0  0  0  0  0  0  0  0  0  0  0
   16.8604  -16.9346    7.8525 C   0  0  0  0  0  0  0  0  0  0  0  0
   17.7043  -17.0356    6.6055 C   0  0  2  0  0  0  0  0  0  0  0  0
   17.0070  -16.4491    5.4663 N   0  0  0  0  0  0  0  0  0  0  0  0
   18.1316  -18.4195    6.3199 C   0  0  0  0  0  0  0  0  0  0  0  0
   17.9676  -18.8946    5.1393 O   0  0  0  0  0  0  0  0  0  0  0  0
   18.7225  -19.2908    7.2545 N   0  0  0  0  0  0  0  0  0  0  0  0
   18.9316  -20.7187    6.9650 C   0  0  1  0  0  0  0  0  0  0  0  0
   20.0310  -20.9080    5.9755 C   0  0  0  0  0  0  0  0  0  0  0  0
   20.1455  -22.3157    5.5363 C   0  0  0  0  0  0  0  0  0  0  0  0
   19.6019  -22.7609    4.3412 C   0  0  0  0  0  0  0  0  0  0  0  0
   19.7559  -24.0649    3.9750 C   0  0  0  0  0  0  0  0  0  0  0  0
   20.4315  -25.0032    4.7253 C   0  0  0  0  0  0  0  0  0  0  0  0
   20.9730  -24.5621    5.9142 C   0  0  0  0  0  0  0  0  0  0  0  0
   20.8256  -23.2360    6.3025 C   0  0  0  0  0  0  0  0  0  0  0  0
   19.2833  -21.3683    8.2404 C   0  0  0  0  0  0  0  0  0  0  0  0
   19.5670  -20.7558    9.2970 O   0  0  0  0  0  0  0  0  0  0  0  0
   19.3226  -22.7736    8.3498 O   0  0  0  0  0  0  0  0  0  0  0  0
  2  1  1  1
  2 13  1  0
  2  3  1  0
  3  4  1  0
  4  5  2  0
  5  6  1  0
  7  6  1  0
  8  7  2  0
  9  8  1  0
 10 11  1  0
 10  9  2  0
 11 12  2  0
 12  4  1  0
 12  7  1  0
 13 14  2  0
 16 15  1  0
 17 16  1  1
 18 13  1  0
 18 17  1  0
 19 20  2  0
 19 17  1  0
 21 19  1  0
 22 23  1  6
 22 21  1  0
 23 24  1  0
 24 29  1  0
 25 24  2  0
 26 25  1  0
 26 27  2  0
 27 28  1  0
 29 28  2  0
 30 22  1  0
 30 32  1  0
 31 30  2  0
M  END
$$$$
