WSF.pdb
     RDKit          3D

 32 34  0  0  1  0  0  0  0  0999 V2000
   15.9744  -16.8173    5.2605 N   0  0  0  0  0  0  0  0  0  0  0  0
   17.0700  -16.6251    6.2405 C   0  0  1  0  0  0  0  0  0  0  0  0
   16.8647  -15.3381    6.9167 C   0  0  0  0  0  0  0  0  0  0  0  0
   17.2659  -14.1948    6.0757 C   0  0  0  0  0  0  0  0  0  0  0  0
   16.5702  -13.6656    5.0091 C   0  0  0  0  0  0  0  0  0  0  0  0
   17.2504  -12.6411    4.4730 N   0  0  0  0  0  0  0  0  0  0  0  0
   18.3891  -12.4789    5.1656 C   0  0  0  0  0  0  0  0  0  0  0  0
   19.4533  -11.5999    5.0684 C   0  0  0  0  0  0  0  0  0  0  0  0
   20.5242  -11.6591    5.9370 C   0  0  0  0  0  0  0  0  0  0  0  0
   20.5542  -12.6109    6.9344 C   0  0  0  0  0  0  0  0  0  0  0  0
   19.4923  -13.4820    7.0255 C   0  0  0  0  0  0  0  0  0  0  0  0
   18.4205  -13.4242    6.1576 C   0  0  0  0  0  0  0  0  0  0  0  0
   17.1868  -17.8384    7.0158 C   0  0  0  0  0  0  0  0  0  0  0  0
   16.1575  -18.2258    7.6779 O   0  0  0  0  0  0  0  0  0  0  0  0
   18.5663  -21.3057    6.5417 O   0  0  0  0  0  0  0  0  0  0  0  0
   17.9758  -21.0274    7.7618 C   0  0  0  0  0  0  0  0  0  0  0  0
   18.4348  -19.6669    8.2267 C   0  0  2  0  0  0  0  0  0  0  0  0
   18.3044  -18.6879    7.1531 N   0  0  0  0  0  0  0  0  0  0  0  0
   19.8062  -19.6866    8.7728 C   0  0  0  0  0  0  0  0  0  0  0  0
   20.8024  -19.6317    7.9659 O   0  0  0  0  0  0  0  0  0  0  0  0
   20.1290  -19.7607   10.1410 N   0  0  0  0  0  0  0  0  0  0  0  0
   21.5111  -19.9613   10.6058 C   0  0  1  0  0  0  0  0  0  0  0  0
   22.0029  -18.7671   11.3511 C   0  0  0  0  0  0  0  0  0  0  0  0
   22.3220  -17.6414   10.4463 C   0  0  0  0  0  0  0  0  0  0  0  0
   21.4621  -16.5675   10.2752 C   0  0  0  0  0  0  0  0  0  0  0  0
   21.8162  -15.5461    9.4448 C   0  0  0  0  0  0  0  0  0  0  0  0
   23.0002  -15.4981    8.7409 C   0  0  0  0  0  0  0  0  0  0  0  0
   23.8569  -16.5653    8.9101 C   0  0  0  0  0  0  0  0  0  0  0  0
   23.5116  -17.6147    9.7530 C   0  0  0  0  0  0  0  0  0  0  0  0
   21.4993  -21.1393   11.4916 C   0  0  0  0  0  0  0  0  0  0  0  0
   20.4657  -21.7566   11.8418 O   0  0  0  0  0  0  0  0  0  0  0  0
   22.6991  -21.6609   12.0176 O   0  0  0  0  0  0  0  0  0  0  0  0
  2  1  1  6
  2 13  1  0
  2  3  1  0
  3  4  1  0
  4  5  2  0
  5  6  1  0
  7  6  1  0
  8  7  2  0
  9  8  1  0
 10 11  1  0
 10  9  2  0
 11 12  2  0
 12  4  1  0
 12  7  1  0
 13 14  2  0
 16 15  1  0
 17 16  1  6
 18 13  1  0
 18 17  1  0
 19 20  2  0
 19 17  1  0
 21 19  1  0
 22 23  1  1
 22 21  1  0
 23 24  1  0
 24 29  1  0
 25 24  2  0
 26 25  1  0
 26 27  2  0
 27 28  1  0
 29 28  2  0
 30 22  1  0
 30 32  1  0
 31 30  2  0
M  END
$$$$
