WSF.pdb
     RDKit          3D

 32 34  0  0  1  0  0  0  0  0999 V2000
   21.7357  -13.7213  -19.5420 N   0  0  0  0  0  0  0  0  0  0  0  0
   20.5586  -12.8558  -19.7934 C   0  0  1  0  0  0  0  0  0  0  0  0
   19.3445  -13.6424  -19.5422 C   0  0  0  0  0  0  0  0  0  0  0  0
   19.4703  -14.4980  -18.3474 C   0  0  0  0  0  0  0  0  0  0  0  0
   20.5463  -14.5686  -17.4878 C   0  0  0  0  0  0  0  0  0  0  0  0
   20.3115  -15.4705  -16.5228 N   0  0  0  0  0  0  0  0  0  0  0  0
   19.0956  -16.0025  -16.7257 C   0  0  0  0  0  0  0  0  0  0  0  0
   18.3446  -16.9575  -16.0636 C   0  0  0  0  0  0  0  0  0  0  0  0
   17.0885  -17.3244  -16.5025 C   0  0  0  0  0  0  0  0  0  0  0  0
   16.5496  -16.7362  -17.6274 C   0  0  0  0  0  0  0  0  0  0  0  0
   17.3021  -15.7870  -18.2811 C   0  0  0  0  0  0  0  0  0  0  0  0
   18.5585  -15.4190  -17.8435 C   0  0  0  0  0  0  0  0  0  0  0  0
   20.7698  -11.6093  -19.0944 C   0  0  0  0  0  0  0  0  0  0  0  0
   21.9247  -11.4053  -18.5723 O   0  0  0  0  0  0  0  0  0  0  0  0
   18.0631   -8.3952  -18.4481 O   0  0  0  0  0  0  0  0  0  0  0  0
   19.3574   -8.1614  -18.8783 C   0  0  0  0  0  0  0  0  0  0  0  0
   20.2524   -9.2550  -18.3483 C   0  0  2  0  0  0  0  0  0  0  0  0
   19.8613  -10.5483  -18.8982 N   0  0  0  0  0  0  0  0  0  0  0  0
   20.2948   -9.2886  -16.8731 C   0  0  0  0  0  0  0  0  0  0  0  0
   19.5423  -10.1156  -16.2436 O   0  0  0  0  0  0  0  0  0  0  0  0
   21.1128   -8.4711  -16.0704 N   0  0  0  0  0  0  0  0  0  0  0  0
   21.1648   -8.6181  -14.6068 C   0  0  1  0  0  0  0  0  0  0  0  0
   22.5243   -8.2969  -14.0853 C   0  0  0  0  0  0  0  0  0  0  0  0
   23.0438   -7.0264  -14.6365 C   0  0  0  0  0  0  0  0  0  0  0  0
   22.7641   -5.8010  -14.0518 C   0  0  0  0  0  0  0  0  0  0  0  0
   23.2870   -4.6626  -14.5893 C   0  0  0  0  0  0  0  0  0  0  0  0
   24.0973   -4.6363  -15.7040 C   0  0  0  0  0  0  0  0  0  0  0  0
   24.3767   -5.8543  -16.2868 C   0  0  0  0  0  0  0  0  0  0  0  0
   23.8521   -7.0245  -15.7515 C   0  0  0  0  0  0  0  0  0  0  0  0
   20.1749   -7.6812  -14.0459 C   0  0  0  0  0  0  0  0  0  0  0  0
   19.8758   -7.6045  -12.8307 O   0  0  0  0  0  0  0  0  0  0  0  0
   19.4788   -6.7805  -14.8781 O   0  0  0  0  0  0  0  0  0  0  0  0
  2  1  1  1
  2 13  1  0
  2  3  1  0
  3  4  1  0
  4  5  2  0
  5  6  1  0
  7  6  1  0
  8  7  2  0
  9  8  1  0
 10 11  1  0
 10  9  2  0
 11 12  2  0
 12  4  1  0
 12  7  1  0
 13 14  2  0
 16 15  1  0
 17 16  1  1
 18 13  1  0
 18 17  1  0
 19 20  2  0
 19 17  1  0
 21 19  1  0
 22 23  1  1
 22 21  1  0
 23 24  1  0
 24 29  1  0
 25 24  2  0
 26 25  1  0
 26 27  2  0
 27 28  1  0
 29 28  2  0
 30 22  1  0
 30 32  1  0
 31 30  2  0
M  END
$$$$
