WSF.pdb
     RDKit          3D

 32 34  0  0  1  0  0  0  0  0999 V2000
   24.2860  -10.7370  -19.2510 N   0  0  0  0  0  0  0  0  0  0  0  0
   22.8948  -10.6635  -18.7443 C   0  0  1  0  0  0  0  0  0  0  0  0
   22.7825  -11.5414  -17.5728 C   0  0  0  0  0  0  0  0  0  0  0  0
   22.9510  -12.9643  -17.9227 C   0  0  0  0  0  0  0  0  0  0  0  0
   23.9604  -13.8066  -17.5063 C   0  0  0  0  0  0  0  0  0  0  0  0
   23.7970  -15.0266  -18.0398 N   0  0  0  0  0  0  0  0  0  0  0  0
   22.6944  -15.0109  -18.8057 C   0  0  0  0  0  0  0  0  0  0  0  0
   22.0522  -15.9601  -19.5809 C   0  0  0  0  0  0  0  0  0  0  0  0
   20.9017  -15.6645  -20.2838 C   0  0  0  0  0  0  0  0  0  0  0  0
   20.3619  -14.3968  -20.2256 C   0  0  0  0  0  0  0  0  0  0  0  0
   21.0058  -13.4576  -19.4525 C   0  0  0  0  0  0  0  0  0  0  0  0
   22.1565  -13.7515  -18.7489 C   0  0  0  0  0  0  0  0  0  0  0  0
   22.5365   -9.2680  -18.6388 C   0  0  0  0  0  0  0  0  0  0  0  0
   23.4397   -8.4477  -18.2396 O   0  0  0  0  0  0  0  0  0  0  0  0
   19.6173   -5.4456  -19.2323 O   0  0  0  0  0  0  0  0  0  0  0  0
   19.7570   -6.8163  -19.3617 C   0  0  0  0  0  0  0  0  0  0  0  0
   21.0303   -7.2438  -18.6735 C   0  0  2  0  0  0  0  0  0  0  0  0
   21.2976   -8.6561  -18.9224 N   0  0  0  0  0  0  0  0  0  0  0  0
   21.0221   -6.9447  -17.2279 C   0  0  0  0  0  0  0  0  0  0  0  0
   20.4202   -7.7455  -16.4262 O   0  0  0  0  0  0  0  0  0  0  0  0
   21.6355   -5.8266  -16.6317 N   0  0  0  0  0  0  0  0  0  0  0  0
   21.5119   -5.5453  -15.1922 C   0  0  1  0  0  0  0  0  0  0  0  0
   22.8296   -5.6769  -14.5069 C   0  0  0  0  0  0  0  0  0  0  0  0
   23.3660   -7.0525  -14.5957 C   0  0  0  0  0  0  0  0  0  0  0  0
   22.9052   -8.0765  -13.7828 C   0  0  0  0  0  0  0  0  0  0  0  0
   23.4198   -9.3311  -13.9219 C   0  0  0  0  0  0  0  0  0  0  0  0
   24.3932   -9.6695  -14.8373 C   0  0  0  0  0  0  0  0  0  0  0  0
   24.8526   -8.6521  -15.6469 C   0  0  0  0  0  0  0  0  0  0  0  0
   24.3385   -7.3675  -15.5184 C   0  0  0  0  0  0  0  0  0  0  0  0
   21.0133   -4.1640  -15.0661 C   0  0  0  0  0  0  0  0  0  0  0  0
   20.7665   -3.4050  -16.0331 O   0  0  0  0  0  0  0  0  0  0  0  0
   20.7756   -3.5936  -13.7986 O   0  0  0  0  0  0  0  0  0  0  0  0
  2  1  1  1
  2 13  1  0
  2  3  1  0
  3  4  1  0
  4  5  2  0
  5  6  1  0
  7  6  1  0
  8  7  2  0
  9  8  1  0
 10 11  1  0
 10  9  2  0
 11 12  2  0
 12  4  1  0
 12  7  1  0
 13 14  2  0
 16 15  1  0
 17 16  1  1
 18 13  1  0
 18 17  1  0
 19 20  2  0
 19 17  1  0
 21 19  1  0
 22 23  1  1
 22 21  1  0
 23 24  1  0
 24 29  1  0
 25 24  2  0
 26 25  1  0
 26 27  2  0
 27 28  1  0
 29 28  2  0
 30 22  1  0
 30 32  1  0
 31 30  2  0
M  END
$$$$
