WSF.pdb
     RDKit          3D

 32 34  0  0  1  0  0  0  0  0999 V2000
   27.1080  -21.1287  -15.9113 N   0  0  0  0  0  0  0  0  0  0  0  0
   26.4330  -21.5712  -14.6678 C   0  0  1  0  0  0  0  0  0  0  0  0
   26.5056  -20.4795  -13.6888 C   0  0  0  0  0  0  0  0  0  0  0  0
   27.8891  -20.2097  -13.2545 C   0  0  0  0  0  0  0  0  0  0  0  0
   28.7925  -19.3535  -13.8484 C   0  0  0  0  0  0  0  0  0  0  0  0
   29.9596  -19.3782  -13.1874 N   0  0  0  0  0  0  0  0  0  0  0  0
   29.8485  -20.2376  -12.1618 C   0  0  0  0  0  0  0  0  0  0  0  0
   30.7118  -20.6575  -11.1653 C   0  0  0  0  0  0  0  0  0  0  0  0
   30.3254  -21.5773  -10.2116 C   0  0  0  0  0  0  0  0  0  0  0  0
   29.0510  -22.1037  -10.2343 C   0  0  0  0  0  0  0  0  0  0  0  0
   28.1975  -21.6816  -11.2283 C   0  0  0  0  0  0  0  0  0  0  0  0
   28.5823  -20.7617  -12.1829 C   0  0  0  0  0  0  0  0  0  0  0  0
   25.1518  -22.1285  -15.0353 C   0  0  0  0  0  0  0  0  0  0  0  0
   24.3940  -21.4303  -15.8009 O   0  0  0  0  0  0  0  0  0  0  0  0
   23.6614  -25.7047  -13.7152 O   0  0  0  0  0  0  0  0  0  0  0  0
   23.0058  -25.2132  -14.8303 C   0  0  0  0  0  0  0  0  0  0  0  0
   23.1970  -23.7173  -14.8886 C   0  0  2  0  0  0  0  0  0  0  0  0
   24.5961  -23.3707  -14.6641 N   0  0  0  0  0  0  0  0  0  0  0  0
   22.3080  -22.9948  -13.9574 C   0  0  0  0  0  0  0  0  0  0  0  0
   22.2346  -23.3802  -12.7357 O   0  0  0  0  0  0  0  0  0  0  0  0
   21.5106  -21.8862  -14.2993 N   0  0  0  0  0  0  0  0  0  0  0  0
   20.5808  -21.2694  -13.3394 C   0  0  1  0  0  0  0  0  0  0  0  0
   21.1167  -19.9730  -12.8339 C   0  0  0  0  0  0  0  0  0  0  0  0
   22.2904  -20.1633  -11.9541 C   0  0  0  0  0  0  0  0  0  0  0  0
   23.5892  -20.0954  -12.4340 C   0  0  0  0  0  0  0  0  0  0  0  0
   24.6347  -20.2572  -11.5744 C   0  0  0  0  0  0  0  0  0  0  0  0
   24.4947  -20.4904  -10.2232 C   0  0  0  0  0  0  0  0  0  0  0  0
   23.2034  -20.5581   -9.7441 C   0  0  0  0  0  0  0  0  0  0  0  0
   22.1262  -20.3951  -10.6066 C   0  0  0  0  0  0  0  0  0  0  0  0
   19.3114  -21.0462  -14.0544 C   0  0  0  0  0  0  0  0  0  0  0  0
   18.2514  -20.6480  -13.5160 O   0  0  0  0  0  0  0  0  0  0  0  0
   19.2123  -21.2773  -15.4419 O   0  0  0  0  0  0  0  0  0  0  0  0
  2  1  1  6
  2 13  1  0
  2  3  1  0
  3  4  1  0
  4  5  2  0
  5  6  1  0
  7  6  1  0
  8  7  2  0
  9  8  1  0
 10 11  1  0
 10  9  2  0
 11 12  2  0
 12  4  1  0
 12  7  1  0
 13 14  2  0
 16 15  1  0
 17 16  1  1
 18 13  1  0
 18 17  1  0
 19 20  2  0
 19 17  1  0
 21 19  1  0
 22 23  1  6
 22 21  1  0
 23 24  1  0
 24 29  1  0
 25 24  2  0
 26 25  1  0
 26 27  2  0
 27 28  1  0
 29 28  2  0
 30 22  1  0
 30 32  1  0
 31 30  2  0
M  END
$$$$
