WSF.pdb
     RDKit          3D

 32 34  0  0  1  0  0  0  0  0999 V2000
   16.6530  -20.2701    2.3899 N   0  0  0  0  0  0  0  0  0  0  0  0
   17.2559  -19.1791    3.1923 C   0  0  1  0  0  0  0  0  0  0  0  0
   16.1805  -18.4886    3.9152 C   0  0  0  0  0  0  0  0  0  0  0  0
   16.2727  -17.0222    3.7865 C   0  0  0  0  0  0  0  0  0  0  0  0
   15.4340  -16.0857    4.3535 C   0  0  0  0  0  0  0  0  0  0  0  0
   15.8152  -14.8481    4.0032 N   0  0  0  0  0  0  0  0  0  0  0  0
   16.8952  -14.9447    3.2113 C   0  0  0  0  0  0  0  0  0  0  0  0
   17.6976  -14.0194    2.5675 C   0  0  0  0  0  0  0  0  0  0  0  0
   18.7738  -14.4062    1.7947 C   0  0  0  0  0  0  0  0  0  0  0  0
   19.0744  -15.7440    1.6474 C   0  0  0  0  0  0  0  0  0  0  0  0
   18.2721  -16.6590    2.2905 C   0  0  0  0  0  0  0  0  0  0  0  0
   17.1953  -16.2739    3.0637 C   0  0  0  0  0  0  0  0  0  0  0  0
   18.3759  -19.7318    3.9183 C   0  0  0  0  0  0  0  0  0  0  0  0
   18.8394  -20.8642    3.5298 O   0  0  0  0  0  0  0  0  0  0  0  0
   19.9194  -18.1993    7.3289 O   0  0  0  0  0  0  0  0  0  0  0  0
   20.8786  -18.9067    6.6257 C   0  0  0  0  0  0  0  0  0  0  0  0
   20.1872  -19.8492    5.6711 C   0  0  2  0  0  0  0  0  0  0  0  0
   19.0574  -19.1882    5.0272 N   0  0  0  0  0  0  0  0  0  0  0  0
   19.7748  -21.1105    6.3179 C   0  0  0  0  0  0  0  0  0  0  0  0
   18.5411  -21.2821    6.6259 O   0  0  0  0  0  0  0  0  0  0  0  0
   20.6396  -22.1750    6.6353 N   0  0  0  0  0  0  0  0  0  0  0  0
   20.1483  -23.4253    7.2369 C   0  0  1  0  0  0  0  0  0  0  0  0
   20.7942  -24.6119    6.6058 C   0  0  0  0  0  0  0  0  0  0  0  0
   20.3458  -24.8107    5.2103 C   0  0  0  0  0  0  0  0  0  0  0  0
   20.9834  -24.2053    4.1386 C   0  0  0  0  0  0  0  0  0  0  0  0
   20.5413  -24.4405    2.8707 C   0  0  0  0  0  0  0  0  0  0  0  0
   19.4760  -25.2596    2.5638 C   0  0  0  0  0  0  0  0  0  0  0  0
   18.8407  -25.8628    3.6287 C   0  0  0  0  0  0  0  0  0  0  0  0
   19.2788  -25.6340    4.9275 C   0  0  0  0  0  0  0  0  0  0  0  0
   20.4830  -23.3719    8.6713 C   0  0  0  0  0  0  0  0  0  0  0  0
   21.0733  -22.4171    9.2297 O   0  0  0  0  0  0  0  0  0  0  0  0
   20.1447  -24.4355    9.5331 O   0  0  0  0  0  0  0  0  0  0  0  0
  2  1  1  1
  2 13  1  0
  2  3  1  0
  3  4  1  0
  4  5  2  0
  5  6  1  0
  7  6  1  0
  8  7  2  0
  9  8  1  0
 10 11  1  0
 10  9  2  0
 11 12  2  0
 12  4  1  0
 12  7  1  0
 13 14  2  0
 16 15  1  0
 17 16  1  1
 18 13  1  0
 18 17  1  0
 19 20  2  0
 19 17  1  0
 21 19  1  0
 22 23  1  6
 22 21  1  0
 23 24  1  0
 24 29  1  0
 25 24  2  0
 26 25  1  0
 26 27  2  0
 27 28  1  0
 29 28  2  0
 30 22  1  0
 30 32  1  0
 31 30  2  0
M  END
$$$$
