WSF.pdb
     RDKit          3D

 32 34  0  0  1  0  0  0  0  0999 V2000
   25.0921  -18.0595  -19.3983 N   0  0  0  0  0  0  0  0  0  0  0  0
   23.9194  -18.9644  -19.3380 C   0  0  1  0  0  0  0  0  0  0  0  0
   24.2880  -20.2409  -19.9629 C   0  0  0  0  0  0  0  0  0  0  0  0
   24.4584  -20.1196  -21.4229 C   0  0  0  0  0  0  0  0  0  0  0  0
   25.6443  -19.9633  -22.1091 C   0  0  0  0  0  0  0  0  0  0  0  0
   25.4098  -19.8707  -23.4267 N   0  0  0  0  0  0  0  0  0  0  0  0
   24.0859  -19.9628  -23.6299 C   0  0  0  0  0  0  0  0  0  0  0  0
   23.2848  -19.9332  -24.7576 C   0  0  0  0  0  0  0  0  0  0  0  0
   21.9123  -20.0536  -24.6754 C   0  0  0  0  0  0  0  0  0  0  0  0
   21.3038  -20.2084  -23.4476 C   0  0  0  0  0  0  0  0  0  0  0  0
   22.1067  -20.2370  -22.3300 C   0  0  0  0  0  0  0  0  0  0  0  0
   23.4794  -20.1166  -22.4104 C   0  0  0  0  0  0  0  0  0  0  0  0
   23.4131  -18.9415  -17.9852 C   0  0  0  0  0  0  0  0  0  0  0  0
   24.2678  -18.9236  -17.0275 O   0  0  0  0  0  0  0  0  0  0  0  0
   19.7504  -17.6530  -16.6582 O   0  0  0  0  0  0  0  0  0  0  0  0
   20.8785  -17.6448  -15.8568 C   0  0  0  0  0  0  0  0  0  0  0  0
   21.6893  -18.8850  -16.1433 C   0  0  2  0  0  0  0  0  0  0  0  0
   22.0713  -18.9334  -17.5504 N   0  0  0  0  0  0  0  0  0  0  0  0
   20.9983  -20.1227  -15.7309 C   0  0  0  0  0  0  0  0  0  0  0  0
   20.3735  -20.8146  -16.6126 O   0  0  0  0  0  0  0  0  0  0  0  0
   20.9636  -20.6282  -14.4175 N   0  0  0  0  0  0  0  0  0  0  0  0
   20.2433  -21.8661  -14.0778 C   0  0  1  0  0  0  0  0  0  0  0  0
   20.8464  -22.5247  -12.8837 C   0  0  0  0  0  0  0  0  0  0  0  0
   20.8550  -21.6330  -11.7036 C   0  0  0  0  0  0  0  0  0  0  0  0
   21.8989  -20.7567  -11.4502 C   0  0  0  0  0  0  0  0  0  0  0  0
   21.8451  -19.9417  -10.3589 C   0  0  0  0  0  0  0  0  0  0  0  0
   20.7998  -19.9218   -9.4607 C   0  0  0  0  0  0  0  0  0  0  0  0
   19.7604  -20.7926   -9.7112 C   0  0  0  0  0  0  0  0  0  0  0  0
   19.7992  -21.6302  -10.8194 C   0  0  0  0  0  0  0  0  0  0  0  0
   18.8478  -21.4864  -13.7936 C   0  0  0  0  0  0  0  0  0  0  0  0
   18.4594  -20.3150  -13.5724 O   0  0  0  0  0  0  0  0  0  0  0  0
   17.8276  -22.4590  -13.7525 O   0  0  0  0  0  0  0  0  0  0  0  0
  2  1  1  1
  2 13  1  0
  2  3  1  0
  3  4  1  0
  4  5  2  0
  5  6  1  0
  7  6  1  0
  8  7  2  0
  9  8  1  0
 10 11  1  0
 10  9  2  0
 11 12  2  0
 12  4  1  0
 12  7  1  0
 13 14  2  0
 16 15  1  0
 17 16  1  6
 18 13  1  0
 18 17  1  0
 19 20  2  0
 19 17  1  0
 21 19  1  0
 22 23  1  1
 22 21  1  0
 23 24  1  0
 24 29  1  0
 25 24  2  0
 26 25  1  0
 26 27  2  0
 27 28  1  0
 29 28  2  0
 30 22  1  0
 30 32  1  0
 31 30  2  0
M  END
$$$$
