WSF.pdb
     RDKit          3D

 32 34  0  0  1  0  0  0  0  0999 V2000
   23.8904  -21.9419  -15.9837 N   0  0  0  0  0  0  0  0  0  0  0  0
   23.8802  -21.0288  -14.8159 C   0  0  1  0  0  0  0  0  0  0  0  0
   22.5461  -21.0754  -14.2044 C   0  0  0  0  0  0  0  0  0  0  0  0
   21.5125  -20.4808  -15.0726 C   0  0  0  0  0  0  0  0  0  0  0  0
   20.5019  -21.1464  -15.7339 C   0  0  0  0  0  0  0  0  0  0  0  0
   19.7625  -20.2809  -16.4437 N   0  0  0  0  0  0  0  0  0  0  0  0
   20.2644  -19.0484  -16.2660 C   0  0  0  0  0  0  0  0  0  0  0  0
   19.9186  -17.7952  -16.7396 C   0  0  0  0  0  0  0  0  0  0  0  0
   20.6280  -16.6653  -16.3859 C   0  0  0  0  0  0  0  0  0  0  0  0
   21.7125  -16.7660  -15.5400 C   0  0  0  0  0  0  0  0  0  0  0  0
   22.0509  -18.0156  -15.0726 C   0  0  0  0  0  0  0  0  0  0  0  0
   21.3425  -19.1466  -15.4254 C   0  0  0  0  0  0  0  0  0  0  0  0
   25.0506  -21.3170  -14.0198 C   0  0  0  0  0  0  0  0  0  0  0  0
   25.3702  -22.5488  -13.8513 O   0  0  0  0  0  0  0  0  0  0  0  0
   27.6348  -18.5798  -12.4433 O   0  0  0  0  0  0  0  0  0  0  0  0
   28.0947  -19.8843  -12.4029 C   0  0  0  0  0  0  0  0  0  0  0  0
   26.9098  -20.8188  -12.3880 C   0  0  2  0  0  0  0  0  0  0  0  0
   25.9230  -20.4105  -13.3817 N   0  0  0  0  0  0  0  0  0  0  0  0
   26.3031  -20.9448  -11.0481 C   0  0  0  0  0  0  0  0  0  0  0  0
   25.0782  -20.6015  -10.8805 O   0  0  0  0  0  0  0  0  0  0  0  0
   26.9675  -21.4238   -9.9031 N   0  0  0  0  0  0  0  0  0  0  0  0
   26.2933  -21.5331   -8.5994 C   0  0  1  0  0  0  0  0  0  0  0  0
   27.2251  -22.0527   -7.5576 C   0  0  0  0  0  0  0  0  0  0  0  0
   27.8934  -20.9607   -6.8170 C   0  0  0  0  0  0  0  0  0  0  0  0
   29.0531  -20.3586   -7.2802 C   0  0  0  0  0  0  0  0  0  0  0  0
   29.6153  -19.3414   -6.5679 C   0  0  0  0  0  0  0  0  0  0  0  0
   29.1030  -18.8508   -5.3861 C   0  0  0  0  0  0  0  0  0  0  0  0
   27.9494  -19.4483   -4.9239 C   0  0  0  0  0  0  0  0  0  0  0  0
   27.3631  -20.4864   -5.6379 C   0  0  0  0  0  0  0  0  0  0  0  0
   25.8363  -20.1794   -8.2376 C   0  0  0  0  0  0  0  0  0  0  0  0
   26.3661  -19.1173   -8.6417 O   0  0  0  0  0  0  0  0  0  0  0  0
   24.7317  -19.9936   -7.3810 O   0  0  0  0  0  0  0  0  0  0  0  0
  2  1  1  6
  2 13  1  0
  2  3  1  0
  3  4  1  0
  4  5  2  0
  5  6  1  0
  7  6  1  0
  8  7  2  0
  9  8  1  0
 10 11  1  0
 10  9  2  0
 11 12  2  0
 12  4  1  0
 12  7  1  0
 13 14  2  0
 16 15  1  0
 17 16  1  1
 18 13  1  0
 18 17  1  0
 19 20  2  0
 19 17  1  0
 21 19  1  0
 22 23  1  1
 22 21  1  0
 23 24  1  0
 24 29  1  0
 25 24  2  0
 26 25  1  0
 26 27  2  0
 27 28  1  0
 29 28  2  0
 30 22  1  0
 30 32  1  0
 31 30  2  0
M  END
$$$$
