WSF.pdb
     RDKit          3D

 32 34  0  0  1  0  0  0  0  0999 V2000
   28.5102  -30.8706  -16.6583 N   0  0  0  0  0  0  0  0  0  0  0  0
   27.6996  -30.3516  -17.7858 C   0  0  1  0  0  0  0  0  0  0  0  0
   26.6996  -31.3661  -18.1416 C   0  0  0  0  0  0  0  0  0  0  0  0
   27.2479  -32.4004  -19.0388 C   0  0  0  0  0  0  0  0  0  0  0  0
   27.8774  -33.5702  -18.6686 C   0  0  0  0  0  0  0  0  0  0  0  0
   28.2584  -34.2570  -19.7562 N   0  0  0  0  0  0  0  0  0  0  0  0
   27.8928  -33.5633  -20.8460 C   0  0  0  0  0  0  0  0  0  0  0  0
   28.0209  -33.7784  -22.2068 C   0  0  0  0  0  0  0  0  0  0  0  0
   27.5398  -32.8744  -23.1321 C   0  0  0  0  0  0  0  0  0  0  0  0
   26.9122  -31.7210  -22.7109 C   0  0  0  0  0  0  0  0  0  0  0  0
   26.7881  -31.5134  -21.3559 C   0  0  0  0  0  0  0  0  0  0  0  0
   27.2687  -32.4165  -20.4291 C   0  0  0  0  0  0  0  0  0  0  0  0
   27.2805  -29.0110  -17.4479 C   0  0  0  0  0  0  0  0  0  0  0  0
   27.1367  -28.7254  -16.2047 O   0  0  0  0  0  0  0  0  0  0  0  0
   27.6012  -25.6739  -19.6846 O   0  0  0  0  0  0  0  0  0  0  0  0
   27.3803  -25.5249  -18.3266 C   0  0  0  0  0  0  0  0  0  0  0  0
   26.4918  -26.6482  -17.8510 C   0  0  2  0  0  0  0  0  0  0  0  0
   26.9996  -27.9346  -18.3151 N   0  0  0  0  0  0  0  0  0  0  0  0
   25.0796  -26.4569  -18.2364 C   0  0  0  0  0  0  0  0  0  0  0  0
   24.6820  -26.8713  -19.3838 O   0  0  0  0  0  0  0  0  0  0  0  0
   24.0998  -25.8435  -17.4330 N   0  0  0  0  0  0  0  0  0  0  0  0
   22.7445  -25.5636  -17.9342 C   0  0  1  0  0  0  0  0  0  0  0  0
   21.7291  -26.3882  -17.2183 C   0  0  0  0  0  0  0  0  0  0  0  0
   21.7068  -27.7852  -17.7039 C   0  0  0  0  0  0  0  0  0  0  0  0
   22.4116  -28.7967  -17.0699 C   0  0  0  0  0  0  0  0  0  0  0  0
   22.3382  -30.0712  -17.5477 C   0  0  0  0  0  0  0  0  0  0  0  0
   21.5938  -30.4423  -18.6468 C   0  0  0  0  0  0  0  0  0  0  0  0
   20.8919  -29.4375  -19.2786 C   0  0  0  0  0  0  0  0  0  0  0  0
   20.9555  -28.1328  -18.8044 C   0  0  0  0  0  0  0  0  0  0  0  0
   22.4875  -24.1313  -17.6998 C   0  0  0  0  0  0  0  0  0  0  0  0
   21.4438  -23.5291  -18.0466 O   0  0  0  0  0  0  0  0  0  0  0  0
   23.4397  -23.3231  -17.0454 O   0  0  0  0  0  0  0  0  0  0  0  0
  2  1  1  1
  2 13  1  0
  2  3  1  0
  3  4  1  0
  4  5  2  0
  5  6  1  0
  7  6  1  0
  8  7  2  0
  9  8  1  0
 10 11  1  0
 10  9  2  0
 11 12  2  0
 12  4  1  0
 12  7  1  0
 13 14  2  0
 16 15  1  0
 17 16  1  6
 18 13  1  0
 18 17  1  0
 19 20  2  0
 19 17  1  0
 21 19  1  0
 22 23  1  1
 22 21  1  0
 23 24  1  0
 24 29  1  0
 25 24  2  0
 26 25  1  0
 26 27  2  0
 27 28  1  0
 29 28  2  0
 30 22  1  0
 30 32  1  0
 31 30  2  0
M  END
$$$$
