WSF.pdb
     RDKit          3D

 32 34  0  0  1  0  0  0  0  0999 V2000
   24.0958  -19.6386  -18.8600 N   0  0  0  0  0  0  0  0  0  0  0  0
   25.0095  -19.7172  -17.6953 C   0  0  1  0  0  0  0  0  0  0  0  0
   24.1975  -19.8395  -16.4782 C   0  0  0  0  0  0  0  0  0  0  0  0
   23.5559  -18.5651  -16.1042 C   0  0  0  0  0  0  0  0  0  0  0  0
   22.2115  -18.2642  -16.1660 C   0  0  0  0  0  0  0  0  0  0  0  0
   21.9987  -17.0028  -15.7620 N   0  0  0  0  0  0  0  0  0  0  0  0
   23.1805  -16.4578  -15.4317 C   0  0  0  0  0  0  0  0  0  0  0  0
   23.5646  -15.2148  -14.9608 C   0  0  0  0  0  0  0  0  0  0  0  0
   24.8860  -14.9160  -14.6972 C   0  0  0  0  0  0  0  0  0  0  0  0
   25.8642  -15.8663  -14.9016 C   0  0  0  0  0  0  0  0  0  0  0  0
   25.4751  -17.1006  -15.3700 C   0  0  0  0  0  0  0  0  0  0  0  0
   24.1540  -17.4011  -15.6342 C   0  0  0  0  0  0  0  0  0  0  0  0
   26.0196  -20.7063  -17.9926 C   0  0  0  0  0  0  0  0  0  0  0  0
   25.6280  -21.8463  -18.4340 O   0  0  0  0  0  0  0  0  0  0  0  0
   30.1662  -20.5618  -17.1907 O   0  0  0  0  0  0  0  0  0  0  0  0
   29.7375  -21.1857  -18.3492 C   0  0  0  0  0  0  0  0  0  0  0  0
   28.3347  -21.6998  -18.1357 C   0  0  2  0  0  0  0  0  0  0  0  0
   27.4202  -20.5958  -17.8660 N   0  0  0  0  0  0  0  0  0  0  0  0
   28.2619  -22.7286  -17.0795 C   0  0  0  0  0  0  0  0  0  0  0  0
   28.1523  -22.3620  -15.8547 O   0  0  0  0  0  0  0  0  0  0  0  0
   28.3015  -24.1180  -17.3022 N   0  0  0  0  0  0  0  0  0  0  0  0
   28.1903  -25.0874  -16.2002 C   0  0  1  0  0  0  0  0  0  0  0  0
   26.8801  -24.9536  -15.5009 C   0  0  0  0  0  0  0  0  0  0  0  0
   25.7474  -25.3539  -16.3639 C   0  0  0  0  0  0  0  0  0  0  0  0
   24.9141  -24.4229  -16.9644 C   0  0  0  0  0  0  0  0  0  0  0  0
   23.8979  -24.8470  -17.7679 C   0  0  0  0  0  0  0  0  0  0  0  0
   23.6275  -26.1715  -18.0370 C   0  0  0  0  0  0  0  0  0  0  0  0
   24.4555  -27.0990  -17.4407 C   0  0  0  0  0  0  0  0  0  0  0  0
   25.4963  -26.6837  -16.6189 C   0  0  0  0  0  0  0  0  0  0  0  0
   28.3093  -26.4302  -16.7960 C   0  0  0  0  0  0  0  0  0  0  0  0
   28.2778  -27.5025  -16.1471 O   0  0  0  0  0  0  0  0  0  0  0  0
   28.4721  -26.5924  -18.1873 O   0  0  0  0  0  0  0  0  0  0  0  0
  2  1  1  6
  2 13  1  0
  2  3  1  0
  3  4  1  0
  4  5  2  0
  5  6  1  0
  7  6  1  0
  8  7  2  0
  9  8  1  0
 10 11  1  0
 10  9  2  0
 11 12  2  0
 12  4  1  0
 12  7  1  0
 13 14  2  0
 16 15  1  0
 17 16  1  1
 18 13  1  0
 18 17  1  0
 19 20  2  0
 19 17  1  0
 21 19  1  0
 22 23  1  6
 22 21  1  0
 23 24  1  0
 24 29  1  0
 25 24  2  0
 26 25  1  0
 26 27  2  0
 27 28  1  0
 29 28  2  0
 30 22  1  0
 30 32  1  0
 31 30  2  0
M  END
$$$$
