WSF.pdb
     RDKit          3D

 32 34  0  0  1  0  0  0  0  0999 V2000
   24.5858  -18.1521  -15.2849 N   0  0  0  0  0  0  0  0  0  0  0  0
   25.8156  -18.1825  -14.4577 C   0  0  1  0  0  0  0  0  0  0  0  0
   26.0767  -16.8233  -13.9676 C   0  0  0  0  0  0  0  0  0  0  0  0
   26.4691  -15.9040  -15.0521 C   0  0  0  0  0  0  0  0  0  0  0  0
   25.9630  -14.6444  -15.2951 C   0  0  0  0  0  0  0  0  0  0  0  0
   26.5464  -14.1104  -16.3787 N   0  0  0  0  0  0  0  0  0  0  0  0
   27.4337  -14.9945  -16.8623 C   0  0  0  0  0  0  0  0  0  0  0  0
   28.3048  -14.9880  -17.9373 C   0  0  0  0  0  0  0  0  0  0  0  0
   29.1272  -16.0622  -18.2104 C   0  0  0  0  0  0  0  0  0  0  0  0
   29.0957  -17.1804  -17.4038 C   0  0  0  0  0  0  0  0  0  0  0  0
   28.2269  -17.1800  -16.3362 C   0  0  0  0  0  0  0  0  0  0  0  0
   27.4036  -16.1066  -16.0616 C   0  0  0  0  0  0  0  0  0  0  0  0
   25.6920  -19.2767  -13.5227 C   0  0  0  0  0  0  0  0  0  0  0  0
   24.5140  -19.5855  -13.1167 O   0  0  0  0  0  0  0  0  0  0  0  0
   28.7509  -21.5660  -12.1973 O   0  0  0  0  0  0  0  0  0  0  0  0
   27.5192  -22.0837  -11.8368 C   0  0  0  0  0  0  0  0  0  0  0  0
   26.5030  -20.9679  -11.8347 C   0  0  2  0  0  0  0  0  0  0  0  0
   26.7119  -20.0828  -12.9752 N   0  0  0  0  0  0  0  0  0  0  0  0
   26.4896  -20.2149  -10.5650 C   0  0  0  0  0  0  0  0  0  0  0  0
   27.1023  -19.0895  -10.4979 O   0  0  0  0  0  0  0  0  0  0  0  0
   25.8439  -20.6324   -9.3859 N   0  0  0  0  0  0  0  0  0  0  0  0
   26.5867  -20.9015   -8.1440 C   0  0  1  0  0  0  0  0  0  0  0  0
   27.1271  -19.6402   -7.5605 C   0  0  0  0  0  0  0  0  0  0  0  0
   27.7615  -19.8656   -6.2435 C   0  0  0  0  0  0  0  0  0  0  0  0
   29.1375  -19.9374   -6.0914 C   0  0  0  0  0  0  0  0  0  0  0  0
   29.6697  -20.1253   -4.8505 C   0  0  0  0  0  0  0  0  0  0  0  0
   28.9210  -20.2532   -3.7004 C   0  0  0  0  0  0  0  0  0  0  0  0
   27.5520  -20.1818   -3.8497 C   0  0  0  0  0  0  0  0  0  0  0  0
   26.9930  -19.9904   -5.1075 C   0  0  0  0  0  0  0  0  0  0  0  0
   25.6393  -21.5269   -7.2040 C   0  0  0  0  0  0  0  0  0  0  0  0
   24.3970  -21.5704   -7.3685 O   0  0  0  0  0  0  0  0  0  0  0  0
   26.0943  -22.1371   -6.0170 O   0  0  0  0  0  0  0  0  0  0  0  0
  2  1  1  1
  2 13  1  0
  2  3  1  0
  3  4  1  0
  4  5  2  0
  5  6  1  0
  7  6  1  0
  8  7  2  0
  9  8  1  0
 10 11  1  0
 10  9  2  0
 11 12  2  0
 12  4  1  0
 12  7  1  0
 13 14  2  0
 16 15  1  0
 17 16  1  1
 18 13  1  0
 18 17  1  0
 19 20  2  0
 19 17  1  0
 21 19  1  0
 22 23  1  1
 22 21  1  0
 23 24  1  0
 24 29  1  0
 25 24  2  0
 26 25  1  0
 26 27  2  0
 27 28  1  0
 29 28  2  0
 30 22  1  0
 30 32  1  0
 31 30  2  0
M  END
$$$$
