DRI.pdb
     RDKit          3D

 28 27  0  0  1  0  0  0  0  0999 V2000
    9.8294  -18.5644   20.3143 N   0  0  0  0  0  0  0  0  0  0  0  0
    9.2302  -17.2557   20.0981 C   0  0  1  0  0  0  0  0  0  0  0  0
    8.4134  -17.2363   18.8432 C   0  0  0  0  0  0  0  0  0  0  0  0
    9.1854  -17.6425   17.6396 C   0  0  0  0  0  0  0  0  0  0  0  0
    9.5328  -18.8115   17.3698 O   0  0  0  0  0  0  0  0  0  0  0  0
    8.4164  -16.8455   21.2779 C   0  0  0  0  0  0  0  0  0  0  0  0
    7.7677  -15.7791   21.3028 O   0  0  0  0  0  0  0  0  0  0  0  0
    9.5552  -16.6322   16.7318 O   0  0  0  0  0  0  0  0  0  0  0  0
    9.0191  -23.0604   22.9005 N   0  0  0  0  0  0  0  0  0  0  0  0
    7.8583  -22.2869   23.2121 C   0  0  0  0  0  0  0  0  0  0  0  0
    6.8762  -22.1254   22.3743 N   0  0  0  0  0  0  0  0  0  0  0  0
    7.7710  -21.6632   24.4897 N   0  0  0  0  0  0  0  0  0  0  0  0
    6.6511  -20.8003   24.7928 C   0  0  0  0  0  0  0  0  0  0  0  0
    6.6070  -19.6273   23.7953 C   0  0  0  0  0  0  0  0  0  0  0  0
    7.3813  -18.5287   24.4413 C   0  0  0  0  0  0  0  0  0  0  0  0
    7.5527  -17.3047   23.5928 C   0  0  2  0  0  0  0  0  0  0  0  0
    8.3520  -17.6781   22.4453 N   0  0  0  0  0  0  0  0  0  0  0  0
    8.4124  -16.3276   24.3690 C   0  0  0  0  0  0  0  0  0  0  0  0
    9.6665  -16.3353   24.3098 O   0  0  0  0  0  0  0  0  0  0  0  0
    6.0672  -21.5259   22.6412 C   0  0  0  0  0  0  0  0  0  0  0  0
    6.0005  -11.6784   25.6316 C   0  0  0  0  0  0  0  0  0  0  0  0
    7.0549  -12.7086   25.2237 C   0  0  2  0  0  0  0  0  0  0  0  0
    7.6229  -13.3569   26.4395 C   0  0  0  0  0  0  0  0  0  0  0  0
    8.2944  -12.4094   27.3825 C   0  0  2  0  0  0  0  0  0  0  0  0
    8.5714  -14.4590   26.0454 N   0  0  0  0  0  0  0  0  0  0  0  0
    7.7820  -15.3681   25.1935 C   0  0  0  0  0  0  0  0  0  0  0  0
    9.0732  -15.2683   27.1640 O   0  0  0  0  0  0  0  0  0  0  0  0
   10.3082  -15.0263   27.7831 O   0  0  0  0  0  0  0  0  0  0  0  0
  2  1  1  1
  2  3  1  0
  3  4  1  0
  4  8  1  0
  5  4  2  0
  6  2  1  0
  7  6  2  0
  9 10  1  0
 10 12  1  0
 11 10  2  0
 12 13  1  0
 13 14  1  0
 14 15  1  0
 16 15  1  1
 16 17  1  0
 17  6  1  0
 18 19  2  0
 18 16  1  0
 21 20  1  0
 21 22  1  0
 22 24  1  0
 22 23  1  1
 24 25  1  6
 25 18  1  0
 26 24  1  0
 27 26  1  0
 28 26  2  0
M  END
$$$$
