DRI.pdb
     RDKit          3D

 28 27  0  0  1  0  0  0  0  0999 V2000
    9.5744  -16.9316   18.7302 N   0  0  0  0  0  0  0  0  0  0  0  0
   10.1132  -17.1335   20.0671 C   0  0  1  0  0  0  0  0  0  0  0  0
   11.3853  -16.3669   20.2582 C   0  0  0  0  0  0  0  0  0  0  0  0
   12.5236  -16.9248   19.4818 C   0  0  0  0  0  0  0  0  0  0  0  0
   12.4166  -17.6667   18.4828 O   0  0  0  0  0  0  0  0  0  0  0  0
    9.1046  -16.7721   21.1037 C   0  0  0  0  0  0  0  0  0  0  0  0
    8.3954  -15.7483   21.0163 O   0  0  0  0  0  0  0  0  0  0  0  0
   13.8247  -16.5925   19.9041 O   0  0  0  0  0  0  0  0  0  0  0  0
    7.1146  -21.9471   27.6210 N   0  0  0  0  0  0  0  0  0  0  0  0
    7.1643  -20.6135   28.1328 C   0  0  0  0  0  0  0  0  0  0  0  0
    7.6092  -20.3340   29.3229 N   0  0  0  0  0  0  0  0  0  0  0  0
    6.7060  -19.5447   27.3104 N   0  0  0  0  0  0  0  0  0  0  0  0
    6.6285  -19.7231   25.8776 C   0  0  0  0  0  0  0  0  0  0  0  0
    6.6892  -18.3541   25.1740 C   0  0  0  0  0  0  0  0  0  0  0  0
    7.7146  -18.5049   24.1018 C   0  0  0  0  0  0  0  0  0  0  0  0
    7.9248  -17.2797   23.2638 C   0  0  2  0  0  0  0  0  0  0  0  0
    8.9135  -17.6040   22.2576 N   0  0  0  0  0  0  0  0  0  0  0  0
    8.5848  -16.2346   24.1403 C   0  0  0  0  0  0  0  0  0  0  0  0
    9.8263  -16.1906   24.3221 O   0  0  0  0  0  0  0  0  0  0  0  0
    7.6285  -19.3433   29.6441 C   0  0  0  0  0  0  0  0  0  0  0  0
    6.6195  -10.9336   26.5930 C   0  0  0  0  0  0  0  0  0  0  0  0
    7.7577  -11.9408   26.4205 C   0  0  2  0  0  0  0  0  0  0  0  0
    7.2511  -13.1605   25.7301 C   0  0  0  0  0  0  0  0  0  0  0  0
    6.1023  -13.8238   26.4216 C   0  0  2  0  0  0  0  0  0  0  0  0
    8.3731  -14.1445   25.5239 N   0  0  0  0  0  0  0  0  0  0  0  0
    7.7748  -15.2693   24.7806 C   0  0  0  0  0  0  0  0  0  0  0  0
    8.9292  -14.7116   26.7596 O   0  0  0  0  0  0  0  0  0  0  0  0
    8.6508  -16.0174   27.1890 O   0  0  0  0  0  0  0  0  0  0  0  0
  2  1  1  6
  2  3  1  0
  3  4  1  0
  4  8  1  0
  5  4  2  0
  6  2  1  0
  7  6  2  0
  9 10  1  0
 10 12  1  0
 11 10  2  0
 12 13  1  0
 13 14  1  0
 14 15  1  0
 16 15  1  1
 16 17  1  0
 17  6  1  0
 18 19  2  0
 18 16  1  0
 21 20  1  0
 21 22  1  0
 22 24  1  0
 22 23  1  6
 24 25  1  1
 25 18  1  0
 26 24  1  0
 27 26  1  0
 28 26  2  0
M  END
$$$$
