DRI.pdb
     RDKit          3D

 28 27  0  0  1  0  0  0  0  0999 V2000
   12.7708  -16.5730   19.4993 N   0  0  0  0  0  0  0  0  0  0  0  0
   13.2004  -15.4509   20.3209 C   0  0  1  0  0  0  0  0  0  0  0  0
   13.6375  -14.2967   19.4728 C   0  0  0  0  0  0  0  0  0  0  0  0
   14.5753  -14.6924   18.3896 C   0  0  0  0  0  0  0  0  0  0  0  0
   14.6996  -14.1023   17.2958 O   0  0  0  0  0  0  0  0  0  0  0  0
   12.1229  -15.0466   21.2685 C   0  0  0  0  0  0  0  0  0  0  0  0
   12.1858  -13.9971   21.9419 O   0  0  0  0  0  0  0  0  0  0  0  0
   15.3878  -15.8203   18.6117 O   0  0  0  0  0  0  0  0  0  0  0  0
    7.5100  -13.5532   18.0132 N   0  0  0  0  0  0  0  0  0  0  0  0
    7.9318  -12.8657   19.1933 C   0  0  0  0  0  0  0  0  0  0  0  0
    8.3429  -11.6316   19.1781 N   0  0  0  0  0  0  0  0  0  0  0  0
    7.9053  -13.5578   20.4379 N   0  0  0  0  0  0  0  0  0  0  0  0
    7.3468  -14.8897   20.5075 C   0  0  0  0  0  0  0  0  0  0  0  0
    7.4382  -15.4227   21.9498 C   0  0  0  0  0  0  0  0  0  0  0  0
    8.6766  -16.2525   21.9877 C   0  0  0  0  0  0  0  0  0  0  0  0
    9.9158  -15.5052   22.3793 C   0  0  2  0  0  0  0  0  0  0  0  0
   10.9575  -15.8664   21.4415 N   0  0  0  0  0  0  0  0  0  0  0  0
   10.3794  -16.0562   23.7126 C   0  0  0  0  0  0  0  0  0  0  0  0
   11.2918  -16.9131   23.8097 O   0  0  0  0  0  0  0  0  0  0  0  0
    8.7371  -11.2112   20.0458 C   0  0  0  0  0  0  0  0  0  0  0  0
    9.9604  -13.9873   29.4590 C   0  0  0  0  0  0  0  0  0  0  0  0
   10.4102  -15.1062   28.5181 C   0  0  2  0  0  0  0  0  0  0  0  0
    9.9023  -14.8422   27.1421 C   0  0  0  0  0  0  0  0  0  0  0  0
    8.4313  -14.5798   27.0715 C   0  0  2  0  0  0  0  0  0  0  0  0
   10.2732  -15.9782   26.2246 N   0  0  0  0  0  0  0  0  0  0  0  0
    9.7631  -15.5901   24.8962 C   0  0  0  0  0  0  0  0  0  0  0  0
    9.6439  -17.2644   26.5523 O   0  0  0  0  0  0  0  0  0  0  0  0
   10.2072  -18.1779   27.4552 O   0  0  0  0  0  0  0  0  0  0  0  0
  2  1  1  6
  2  3  1  0
  3  4  1  0
  4  8  1  0
  5  4  2  0
  6  2  1  0
  7  6  2  0
  9 10  1  0
 10 12  1  0
 11 10  2  0
 12 13  1  0
 13 14  1  0
 14 15  1  0
 16 15  1  6
 16 17  1  0
 17  6  1  0
 18 19  2  0
 18 16  1  0
 21 20  1  0
 21 22  1  0
 22 24  1  0
 22 23  1  6
 24 25  1  1
 25 18  1  0
 26 24  1  0
 27 26  1  0
 28 26  2  0
M  END
$$$$
