DRI.pdb
     RDKit          3D

 28 27  0  0  1  0  0  0  0  0999 V2000
    6.6391  -19.3096   23.9022 N   0  0  0  0  0  0  0  0  0  0  0  0
    7.9400  -19.4521   23.2652 C   0  0  1  0  0  0  0  0  0  0  0  0
    7.9070  -20.5028   22.1987 C   0  0  0  0  0  0  0  0  0  0  0  0
    7.4951  -21.8370   22.7082 C   0  0  0  0  0  0  0  0  0  0  0  0
    7.1399  -22.0799   23.8807 O   0  0  0  0  0  0  0  0  0  0  0  0
    8.4082  -18.1455   22.7211 C   0  0  0  0  0  0  0  0  0  0  0  0
    9.4631  -18.0365   22.0623 O   0  0  0  0  0  0  0  0  0  0  0  0
    7.5057  -22.9124   21.7999 O   0  0  0  0  0  0  0  0  0  0  0  0
    8.5017  -15.0615   17.5284 N   0  0  0  0  0  0  0  0  0  0  0  0
    8.3313  -13.6572   17.7329 C   0  0  0  0  0  0  0  0  0  0  0  0
    8.1531  -12.8211   16.7522 N   0  0  0  0  0  0  0  0  0  0  0  0
    8.3604  -13.1481   19.0629 N   0  0  0  0  0  0  0  0  0  0  0  0
    8.3268  -14.0622   20.1827 C   0  0  0  0  0  0  0  0  0  0  0  0
    7.1164  -13.7469   21.0817 C   0  0  0  0  0  0  0  0  0  0  0  0
    6.8437  -15.0050   21.8345 C   0  0  0  0  0  0  0  0  0  0  0  0
    8.0644  -15.6788   22.3852 C   0  0  2  0  0  0  0  0  0  0  0  0
    7.6479  -16.9483   22.9420 N   0  0  0  0  0  0  0  0  0  0  0  0
    8.5385  -14.8657   23.5728 C   0  0  0  0  0  0  0  0  0  0  0  0
    8.6261  -13.6137   23.5433 O   0  0  0  0  0  0  0  0  0  0  0  0
    8.1388  -11.7978   16.9463 C   0  0  0  0  0  0  0  0  0  0  0  0
    6.1722  -12.4766   25.7460 C   0  0  0  0  0  0  0  0  0  0  0  0
    7.4526  -13.1939   25.3155 C   0  0  2  0  0  0  0  0  0  0  0  0
    7.8863  -14.1366   26.3852 C   0  0  0  0  0  0  0  0  0  0  0  0
    8.0011  -13.5147   27.7408 C   0  0  2  0  0  0  0  0  0  0  0  0
    9.1865  -14.7943   26.0023 N   0  0  0  0  0  0  0  0  0  0  0  0
    8.8974  -15.5393   24.7625 C   0  0  0  0  0  0  0  0  0  0  0  0
    9.6873  -15.7780   26.9714 O   0  0  0  0  0  0  0  0  0  0  0  0
   10.6864  -15.4800   27.9095 O   0  0  0  0  0  0  0  0  0  0  0  0
  2  1  1  6
  2  3  1  0
  3  4  1  0
  4  8  1  0
  5  4  2  0
  6  2  1  0
  7  6  2  0
  9 10  1  0
 10 12  1  0
 11 10  2  0
 12 13  1  0
 13 14  1  0
 14 15  1  0
 16 15  1  1
 16 17  1  0
 17  6  1  0
 18 19  2  0
 18 16  1  0
 21 20  1  0
 21 22  1  0
 22 24  1  0
 22 23  1  6
 24 25  1  6
 25 18  1  0
 26 24  1  0
 27 26  1  0
 28 26  2  0
M  END
$$$$
