DRI.pdb
     RDKit          3D

 28 27  0  0  1  0  0  0  0  0999 V2000
    9.3313  -15.7511   19.1503 N   0  0  0  0  0  0  0  0  0  0  0  0
    8.8289  -14.4978   19.6940 C   0  0  1  0  0  0  0  0  0  0  0  0
    7.9707  -13.7821   18.6971 C   0  0  0  0  0  0  0  0  0  0  0  0
    8.3742  -14.0401   17.2899 C   0  0  0  0  0  0  0  0  0  0  0  0
    8.7213  -15.1499   16.8341 O   0  0  0  0  0  0  0  0  0  0  0  0
    8.0934  -14.7321   20.9694 C   0  0  0  0  0  0  0  0  0  0  0  0
    7.4968  -13.8166   21.5733 O   0  0  0  0  0  0  0  0  0  0  0  0
    8.3654  -12.9496   16.3998 O   0  0  0  0  0  0  0  0  0  0  0  0
    8.7815  -19.4155   26.7309 N   0  0  0  0  0  0  0  0  0  0  0  0
    7.5244  -20.0780   26.8850 C   0  0  0  0  0  0  0  0  0  0  0  0
    7.1316  -20.5846   28.0171 N   0  0  0  0  0  0  0  0  0  0  0  0
    6.6654  -20.1930   25.7546 N   0  0  0  0  0  0  0  0  0  0  0  0
    7.1004  -19.6961   24.4684 C   0  0  0  0  0  0  0  0  0  0  0  0
    6.9156  -18.1681   24.4059 C   0  0  0  0  0  0  0  0  0  0  0  0
    7.3796  -17.7682   23.0463 C   0  0  0  0  0  0  0  0  0  0  0  0
    7.2996  -16.2972   22.7682 C   0  0  2  0  0  0  0  0  0  0  0  0
    8.0475  -16.0414   21.5557 N   0  0  0  0  0  0  0  0  0  0  0  0
    8.0683  -15.5831   23.8617 C   0  0  0  0  0  0  0  0  0  0  0  0
    9.3227  -15.5770   23.9130 O   0  0  0  0  0  0  0  0  0  0  0  0
    6.1732  -20.9853   28.0950 C   0  0  0  0  0  0  0  0  0  0  0  0
    6.8638  -10.3792   26.5332 C   0  0  0  0  0  0  0  0  0  0  0  0
    7.7326  -11.6363   26.5977 C   0  0  2  0  0  0  0  0  0  0  0  0
    7.1324  -12.7077   25.7534 C   0  0  0  0  0  0  0  0  0  0  0  0
    5.7362  -13.0820   26.1388 C   0  0  2  0  0  0  0  0  0  0  0  0
    8.0174  -13.9269   25.7542 N   0  0  0  0  0  0  0  0  0  0  0  0
    7.3488  -14.8958   24.8656 C   0  0  0  0  0  0  0  0  0  0  0  0
    8.1554  -14.5862   27.0596 O   0  0  0  0  0  0  0  0  0  0  0  0
    7.5912  -15.8389   27.3417 O   0  0  0  0  0  0  0  0  0  0  0  0
  2  1  1  6
  2  3  1  0
  3  4  1  0
  4  8  1  0
  5  4  2  0
  6  2  1  0
  7  6  2  0
  9 10  1  0
 10 12  1  0
 11 10  2  0
 12 13  1  0
 13 14  1  0
 14 15  1  0
 16 15  1  1
 16 17  1  0
 17  6  1  0
 18 19  2  0
 18 16  1  0
 21 20  1  0
 21 22  1  0
 22 24  1  0
 22 23  1  6
 24 25  1  1
 25 18  1  0
 26 24  1  0
 27 26  1  0
 28 26  2  0
M  END
$$$$
