DRI.pdb
     RDKit          3D

 28 27  0  0  1  0  0  0  0  0999 V2000
    5.0357  -18.5547   20.4289 N   0  0  0  0  0  0  0  0  0  0  0  0
    4.7524  -17.5977   21.4883 C   0  0  1  0  0  0  0  0  0  0  0  0
    3.4852  -17.9461   22.2062 C   0  0  0  0  0  0  0  0  0  0  0  0
    2.6171  -18.8759   21.4372 C   0  0  0  0  0  0  0  0  0  0  0  0
    2.8735  -19.3226   20.2994 O   0  0  0  0  0  0  0  0  0  0  0  0
    5.9000  -17.5021   22.4350 C   0  0  0  0  0  0  0  0  0  0  0  0
    5.9205  -18.1148   23.5227 O   0  0  0  0  0  0  0  0  0  0  0  0
    1.4110  -19.2859   22.0362 O   0  0  0  0  0  0  0  0  0  0  0  0
   11.2931  -20.7146   18.4558 N   0  0  0  0  0  0  0  0  0  0  0  0
   11.2216  -19.7543   19.5121 C   0  0  0  0  0  0  0  0  0  0  0  0
   11.4880  -20.0511   20.7504 N   0  0  0  0  0  0  0  0  0  0  0  0
   10.8404  -18.4177   19.2006 N   0  0  0  0  0  0  0  0  0  0  0  0
   10.7280  -17.4379   20.2580 C   0  0  0  0  0  0  0  0  0  0  0  0
    9.4949  -17.7443   21.1288 C   0  0  0  0  0  0  0  0  0  0  0  0
    9.4150  -16.6246   22.1105 C   0  0  0  0  0  0  0  0  0  0  0  0
    8.1988  -16.6495   22.9866 C   0  0  2  0  0  0  0  0  0  0  0  0
    7.0389  -16.6868   22.1216 N   0  0  0  0  0  0  0  0  0  0  0  0
    8.1181  -15.3120   23.6943 C   0  0  0  0  0  0  0  0  0  0  0  0
    8.2308  -14.2184   23.0880 O   0  0  0  0  0  0  0  0  0  0  0  0
   11.4496  -19.3053   21.4766 C   0  0  0  0  0  0  0  0  0  0  0  0
    5.7800  -11.9464   26.2987 C   0  0  0  0  0  0  0  0  0  0  0  0
    6.8708  -12.7700   25.6123 C   0  0  2  0  0  0  0  0  0  0  0  0
    7.6653  -13.5065   26.6357 C   0  0  0  0  0  0  0  0  0  0  0  0
    8.3293  -12.6262   27.6466 C   0  0  2  0  0  0  0  0  0  0  0  0
    8.6848  -14.3900   25.9650 N   0  0  0  0  0  0  0  0  0  0  0  0
    7.9080  -15.2899   25.0919 C   0  0  0  0  0  0  0  0  0  0  0  0
    9.4475  -15.2521   26.8776 O   0  0  0  0  0  0  0  0  0  0  0  0
   10.6988  -14.8899   27.3973 O   0  0  0  0  0  0  0  0  0  0  0  0
  2  1  1  6
  2  3  1  0
  3  4  1  0
  4  8  1  0
  5  4  2  0
  6  2  1  0
  7  6  2  0
  9 10  1  0
 10 12  1  0
 11 10  2  0
 12 13  1  0
 13 14  1  0
 14 15  1  0
 16 15  1  6
 16 17  1  0
 17  6  1  0
 18 19  2  0
 18 16  1  0
 21 20  1  0
 21 22  1  0
 22 24  1  0
 22 23  1  1
 24 25  1  6
 25 18  1  0
 26 24  1  0
 27 26  1  0
 28 26  2  0
M  END
$$$$
