DRI.pdb
     RDKit          3D

 28 27  0  0  1  0  0  0  0  0999 V2000
    9.8014  -18.1333   19.0247 N   0  0  0  0  0  0  0  0  0  0  0  0
   10.3714  -17.7374   20.3042 C   0  0  1  0  0  0  0  0  0  0  0  0
   11.5304  -16.8082   20.1148 C   0  0  0  0  0  0  0  0  0  0  0  0
   12.7663  -17.5026   19.6675 C   0  0  0  0  0  0  0  0  0  0  0  0
   12.8569  -18.7250   19.4282 O   0  0  0  0  0  0  0  0  0  0  0  0
    9.3304  -17.1296   21.1812 C   0  0  0  0  0  0  0  0  0  0  0  0
    8.4879  -16.3149   20.7507 O   0  0  0  0  0  0  0  0  0  0  0  0
   13.9266  -16.7232   19.5003 O   0  0  0  0  0  0  0  0  0  0  0  0
    5.7016  -22.8690   25.1148 N   0  0  0  0  0  0  0  0  0  0  0  0
    6.3527  -22.8503   23.8425 C   0  0  0  0  0  0  0  0  0  0  0  0
    6.6004  -23.9325   23.1643 N   0  0  0  0  0  0  0  0  0  0  0  0
    6.7508  -21.5980   23.2929 N   0  0  0  0  0  0  0  0  0  0  0  0
    6.5268  -20.3813   24.0415 C   0  0  0  0  0  0  0  0  0  0  0  0
    6.8776  -19.1584   23.1730 C   0  0  0  0  0  0  0  0  0  0  0  0
    7.5864  -18.2151   24.0849 C   0  0  0  0  0  0  0  0  0  0  0  0
    8.1686  -17.0116   23.4065 C   0  0  2  0  0  0  0  0  0  0  0  0
    9.2624  -17.4664   22.5748 N   0  0  0  0  0  0  0  0  0  0  0  0
    8.8175  -16.1545   24.4745 C   0  0  0  0  0  0  0  0  0  0  0  0
   10.0346  -16.2465   24.7682 O   0  0  0  0  0  0  0  0  0  0  0  0
    7.0622  -23.8604   22.2333 C   0  0  0  0  0  0  0  0  0  0  0  0
    5.8134  -11.8011   25.5658 C   0  0  0  0  0  0  0  0  0  0  0  0
    7.0069  -12.6999   25.2384 C   0  0  2  0  0  0  0  0  0  0  0  0
    7.5413  -13.3045   26.4913 C   0  0  0  0  0  0  0  0  0  0  0  0
    8.0421  -12.3076   27.4879 C   0  0  2  0  0  0  0  0  0  0  0  0
    8.6211  -14.3036   26.1666 N   0  0  0  0  0  0  0  0  0  0  0  0
    8.0250  -15.2132   25.1701 C   0  0  0  0  0  0  0  0  0  0  0  0
    9.0427  -15.1429   27.2960 O   0  0  0  0  0  0  0  0  0  0  0  0
   10.1851  -14.8682   28.0620 O   0  0  0  0  0  0  0  0  0  0  0  0
  2  1  1  6
  2  3  1  0
  3  4  1  0
  4  8  1  0
  5  4  2  0
  6  2  1  0
  7  6  2  0
  9 10  1  0
 10 12  1  0
 11 10  2  0
 12 13  1  0
 13 14  1  0
 14 15  1  0
 16 15  1  1
 16 17  1  0
 17  6  1  0
 18 19  2  0
 18 16  1  0
 21 20  1  0
 21 22  1  0
 22 24  1  0
 22 23  1  1
 24 25  1  6
 25 18  1  0
 26 24  1  0
 27 26  1  0
 28 26  2  0
M  END
$$$$
