DRI.pdb
     RDKit          3D

 28 27  0  0  1  0  0  0  0  0999 V2000
   10.6125  -15.9399   19.7372 N   0  0  0  0  0  0  0  0  0  0  0  0
    9.1999  -16.0251   19.3970 C   0  0  1  0  0  0  0  0  0  0  0  0
    8.9188  -17.2319   18.5560 C   0  0  0  0  0  0  0  0  0  0  0  0
    7.5169  -17.2853   18.0646 C   0  0  0  0  0  0  0  0  0  0  0  0
    6.6948  -16.3477   18.1348 O   0  0  0  0  0  0  0  0  0  0  0  0
    8.3584  -16.0171   20.6275 C   0  0  0  0  0  0  0  0  0  0  0  0
    7.2856  -15.3824   20.6981 O   0  0  0  0  0  0  0  0  0  0  0  0
    7.0796  -18.4859   17.4737 O   0  0  0  0  0  0  0  0  0  0  0  0
    5.6277  -21.4115   22.0266 N   0  0  0  0  0  0  0  0  0  0  0  0
    6.8324  -22.1242   21.7375 C   0  0  0  0  0  0  0  0  0  0  0  0
    6.8668  -23.1509   20.9392 N   0  0  0  0  0  0  0  0  0  0  0  0
    8.0462  -21.6980   22.3489 N   0  0  0  0  0  0  0  0  0  0  0  0
    8.0337  -20.5837   23.2703 C   0  0  0  0  0  0  0  0  0  0  0  0
    7.9627  -19.2577   22.4898 C   0  0  0  0  0  0  0  0  0  0  0  0
    7.9952  -18.1858   23.5260 C   0  0  0  0  0  0  0  0  0  0  0  0
    7.9369  -16.7904   22.9813 C   0  0  2  0  0  0  0  0  0  0  0  0
    8.7622  -16.7514   21.7928 N   0  0  0  0  0  0  0  0  0  0  0  0
    8.6349  -15.8829   23.9740 C   0  0  0  0  0  0  0  0  0  0  0  0
    9.8836  -15.7606   24.0164 O   0  0  0  0  0  0  0  0  0  0  0  0
    7.7571  -23.6782   20.8193 C   0  0  0  0  0  0  0  0  0  0  0  0
    5.9214  -11.5196   25.4407 C   0  0  0  0  0  0  0  0  0  0  0  0
    7.0439  -12.4939   25.0797 C   0  0  2  0  0  0  0  0  0  0  0  0
    7.4446  -13.2707   26.2867 C   0  0  0  0  0  0  0  0  0  0  0  0
    7.9273  -12.4288   27.4252 C   0  0  2  0  0  0  0  0  0  0  0  0
    8.4841  -14.2983   25.9218 N   0  0  0  0  0  0  0  0  0  0  0  0
    7.8533  -15.1431   24.8904 C   0  0  0  0  0  0  0  0  0  0  0  0
    8.8712  -15.1978   27.0167 O   0  0  0  0  0  0  0  0  0  0  0  0
    9.9991  -14.9756   27.8201 O   0  0  0  0  0  0  0  0  0  0  0  0
  2  1  1  1
  2  3  1  0
  3  4  1  0
  4  8  1  0
  5  4  2  0
  6  2  1  0
  7  6  2  0
  9 10  1  0
 10 12  1  0
 11 10  2  0
 12 13  1  0
 13 14  1  0
 14 15  1  0
 16 15  1  1
 16 17  1  0
 17  6  1  0
 18 19  2  0
 18 16  1  0
 21 20  1  0
 21 22  1  0
 22 24  1  0
 22 23  1  1
 24 25  1  6
 25 18  1  0
 26 24  1  0
 27 26  1  0
 28 26  2  0
M  END
$$$$
