DRI.pdb
     RDKit          3D

 28 27  0  0  1  0  0  0  0  0999 V2000
    8.8382  -12.7042   18.7706 N   0  0  0  0  0  0  0  0  0  0  0  0
    7.6057  -13.4328   19.0324 C   0  0  1  0  0  0  0  0  0  0  0  0
    7.0950  -14.0943   17.7898 C   0  0  0  0  0  0  0  0  0  0  0  0
    8.1488  -14.2921   16.7604 C   0  0  0  0  0  0  0  0  0  0  0  0
    9.3538  -13.9941   16.8993 O   0  0  0  0  0  0  0  0  0  0  0  0
    7.7998  -14.4228   20.1299 C   0  0  0  0  0  0  0  0  0  0  0  0
    6.8960  -15.2053   20.4902 O   0  0  0  0  0  0  0  0  0  0  0  0
    7.7605  -14.8593   15.5319 O   0  0  0  0  0  0  0  0  0  0  0  0
   12.8021  -16.0538   18.1083 N   0  0  0  0  0  0  0  0  0  0  0  0
   13.5841  -15.5374   19.1875 C   0  0  0  0  0  0  0  0  0  0  0  0
   14.4802  -14.6086   19.0240 N   0  0  0  0  0  0  0  0  0  0  0  0
   13.3790  -16.0608   20.4963 N   0  0  0  0  0  0  0  0  0  0  0  0
   12.4169  -17.1201   20.7036 C   0  0  0  0  0  0  0  0  0  0  0  0
   10.9875  -16.5722   20.5320 C   0  0  0  0  0  0  0  0  0  0  0  0
   10.6393  -15.9558   21.8444 C   0  0  0  0  0  0  0  0  0  0  0  0
    9.2415  -15.4208   21.9303 C   0  0  2  0  0  0  0  0  0  0  0  0
    9.0546  -14.5094   20.8215 N   0  0  0  0  0  0  0  0  0  0  0  0
    9.1599  -14.5530   23.1699 C   0  0  0  0  0  0  0  0  0  0  0  0
    9.4432  -13.3300   23.1589 O   0  0  0  0  0  0  0  0  0  0  0  0
   15.0853  -14.3324   19.8257 C   0  0  0  0  0  0  0  0  0  0  0  0
    6.4221  -11.4181   26.4289 C   0  0  0  0  0  0  0  0  0  0  0  0
    7.5363  -12.4456   26.6343 C   0  0  2  0  0  0  0  0  0  0  0  0
    7.6273  -13.3356   25.4424 C   0  0  0  0  0  0  0  0  0  0  0  0
    6.3428  -14.0133   25.0839 C   0  0  2  0  0  0  0  0  0  0  0  0
    8.7177  -14.3565   25.6383 N   0  0  0  0  0  0  0  0  0  0  0  0
    8.7492  -15.1394   24.3887 C   0  0  0  0  0  0  0  0  0  0  0  0
    8.4747  -15.3157   26.7240 O   0  0  0  0  0  0  0  0  0  0  0  0
    8.1967  -16.6708   26.4927 O   0  0  0  0  0  0  0  0  0  0  0  0
  2  1  1  6
  2  3  1  0
  3  4  1  0
  4  8  1  0
  5  4  2  0
  6  2  1  0
  7  6  2  0
  9 10  1  0
 10 12  1  0
 11 10  2  0
 12 13  1  0
 13 14  1  0
 14 15  1  0
 16 15  1  6
 16 17  1  0
 17  6  1  0
 18 19  2  0
 18 16  1  0
 21 20  1  0
 21 22  1  0
 22 24  1  0
 22 23  1  6
 24 25  1  1
 25 18  1  0
 26 24  1  0
 27 26  1  0
 28 26  2  0
M  END
$$$$
