DRI.pdb
     RDKit          3D

 28 27  0  0  1  0  0  0  0  0999 V2000
    7.3008  -18.7606   21.1098 N   0  0  0  0  0  0  0  0  0  0  0  0
    8.3917  -19.7241   21.1004 C   0  0  1  0  0  0  0  0  0  0  0  0
    8.3959  -20.5228   19.8337 C   0  0  0  0  0  0  0  0  0  0  0  0
    7.2138  -21.4146   19.7037 C   0  0  0  0  0  0  0  0  0  0  0  0
    6.2094  -21.3888   20.4457 O   0  0  0  0  0  0  0  0  0  0  0  0
    9.7005  -19.0428   21.3129 C   0  0  0  0  0  0  0  0  0  0  0  0
   10.7631  -19.6765   21.4807 O   0  0  0  0  0  0  0  0  0  0  0  0
    7.2253  -22.3633   18.6638 O   0  0  0  0  0  0  0  0  0  0  0  0
    8.2848  -14.5079   17.4503 N   0  0  0  0  0  0  0  0  0  0  0  0
    8.3940  -13.2605   18.1395 C   0  0  0  0  0  0  0  0  0  0  0  0
    7.4814  -12.3361   18.0677 N   0  0  0  0  0  0  0  0  0  0  0  0
    9.5492  -13.0144   18.9356 N   0  0  0  0  0  0  0  0  0  0  0  0
   10.5288  -14.0614   19.1229 C   0  0  0  0  0  0  0  0  0  0  0  0
   10.1540  -14.9183   20.3467 C   0  0  0  0  0  0  0  0  0  0  0  0
   11.2329  -15.9415   20.4593 C   0  0  0  0  0  0  0  0  0  0  0  0
   11.0396  -16.9315   21.5684 C   0  0  2  0  0  0  0  0  0  0  0  0
    9.7828  -17.6100   21.3331 N   0  0  0  0  0  0  0  0  0  0  0  0
   10.8294  -16.1483   22.8484 C   0  0  0  0  0  0  0  0  0  0  0  0
   11.6905  -15.3577   23.3065 O   0  0  0  0  0  0  0  0  0  0  0  0
    7.5969  -11.4573   18.6149 C   0  0  0  0  0  0  0  0  0  0  0  0
    6.7562  -13.3476   23.9378 C   0  0  0  0  0  0  0  0  0  0  0  0
    8.1243  -14.0316   23.9387 C   0  0  2  0  0  0  0  0  0  0  0  0
    8.1524  -15.1011   24.9762 C   0  0  0  0  0  0  0  0  0  0  0  0
    7.8620  -14.6186   26.3620 C   0  0  2  0  0  0  0  0  0  0  0  0
    9.4743  -15.8230   24.9425 N   0  0  0  0  0  0  0  0  0  0  0  0
    9.6179  -16.3111   23.5581 C   0  0  0  0  0  0  0  0  0  0  0  0
    9.5519  -17.0055   25.8105 O   0  0  0  0  0  0  0  0  0  0  0  0
   10.1262  -16.9729   27.0897 O   0  0  0  0  0  0  0  0  0  0  0  0
  2  1  1  6
  2  3  1  0
  3  4  1  0
  4  8  1  0
  5  4  2  0
  6  2  1  0
  7  6  2  0
  9 10  1  0
 10 12  1  0
 11 10  2  0
 12 13  1  0
 13 14  1  0
 14 15  1  0
 16 15  1  6
 16 17  1  0
 17  6  1  0
 18 19  2  0
 18 16  1  0
 21 20  1  0
 21 22  1  0
 22 24  1  0
 22 23  1  6
 24 25  1  1
 25 18  1  0
 26 24  1  0
 27 26  1  0
 28 26  2  0
M  END
$$$$
