DRI.pdb
     RDKit          3D

 28 27  0  0  1  0  0  0  0  0999 V2000
    9.0858  -15.5308   19.1782 N   0  0  0  0  0  0  0  0  0  0  0  0
    8.4744  -14.3468   19.7639 C   0  0  1  0  0  0  0  0  0  0  0  0
    7.5629  -13.6704   18.7872 C   0  0  0  0  0  0  0  0  0  0  0  0
    8.0758  -13.7040   17.3925 C   0  0  0  0  0  0  0  0  0  0  0  0
    8.4420  -14.7328   16.7863 O   0  0  0  0  0  0  0  0  0  0  0  0
    7.7554  -14.6914   21.0235 C   0  0  0  0  0  0  0  0  0  0  0  0
    7.0683  -13.8576   21.6491 O   0  0  0  0  0  0  0  0  0  0  0  0
    8.1562  -12.4817   16.6988 O   0  0  0  0  0  0  0  0  0  0  0  0
    6.2127  -20.0593   27.0204 N   0  0  0  0  0  0  0  0  0  0  0  0
    7.5937  -20.2796   26.7252 C   0  0  0  0  0  0  0  0  0  0  0  0
    8.4806  -20.5134   27.6479 N   0  0  0  0  0  0  0  0  0  0  0  0
    8.0207  -20.2392   25.3670 N   0  0  0  0  0  0  0  0  0  0  0  0
    7.0918  -19.8393   24.3336 C   0  0  0  0  0  0  0  0  0  0  0  0
    6.8911  -18.3125   24.3702 C   0  0  0  0  0  0  0  0  0  0  0  0
    7.3438  -17.8213   23.0369 C   0  0  0  0  0  0  0  0  0  0  0  0
    7.2539  -16.3358   22.8567 C   0  0  2  0  0  0  0  0  0  0  0  0
    7.8320  -16.0171   21.5686 N   0  0  0  0  0  0  0  0  0  0  0  0
    8.1794  -15.6957   23.8716 C   0  0  0  0  0  0  0  0  0  0  0  0
    9.3972  -15.4934   23.6431 O   0  0  0  0  0  0  0  0  0  0  0  0
    9.4693  -20.6954   27.3750 C   0  0  0  0  0  0  0  0  0  0  0  0
    5.7064  -11.9623   26.6198 C   0  0  0  0  0  0  0  0  0  0  0  0
    6.7724  -12.7664   25.8739 C   0  0  2  0  0  0  0  0  0  0  0  0
    7.4839  -13.6654   26.8261 C   0  0  0  0  0  0  0  0  0  0  0  0
    8.1698  -12.9511   27.9474 C   0  0  2  0  0  0  0  0  0  0  0  0
    8.4657  -14.5349   26.0848 N   0  0  0  0  0  0  0  0  0  0  0  0
    7.6554  -15.3098   25.1264 C   0  0  0  0  0  0  0  0  0  0  0  0
    9.1723  -15.5152   26.9199 O   0  0  0  0  0  0  0  0  0  0  0  0
   10.4268  -15.2612   27.4934 O   0  0  0  0  0  0  0  0  0  0  0  0
  2  1  1  6
  2  3  1  0
  3  4  1  0
  4  8  1  0
  5  4  2  0
  6  2  1  0
  7  6  2  0
  9 10  1  0
 10 12  1  0
 11 10  2  0
 12 13  1  0
 13 14  1  0
 14 15  1  0
 16 15  1  1
 16 17  1  0
 17  6  1  0
 18 19  2  0
 18 16  1  0
 21 20  1  0
 21 22  1  0
 22 24  1  0
 22 23  1  1
 24 25  1  6
 25 18  1  0
 26 24  1  0
 27 26  1  0
 28 26  2  0
M  END
$$$$
