DRI.pdb
     RDKit          3D

 28 27  0  0  1  0  0  0  0  0999 V2000
    6.4966  -18.6331   23.3713 N   0  0  0  0  0  0  0  0  0  0  0  0
    7.8877  -18.9255   23.0585 C   0  0  1  0  0  0  0  0  0  0  0  0
    7.9953  -19.8359   21.8745 C   0  0  0  0  0  0  0  0  0  0  0  0
    7.3082  -21.1384   22.0772 C   0  0  0  0  0  0  0  0  0  0  0  0
    6.4177  -21.3564   22.9253 O   0  0  0  0  0  0  0  0  0  0  0  0
    8.6567  -17.6667   22.8427 C   0  0  0  0  0  0  0  0  0  0  0  0
    9.8956  -17.6598   22.6881 O   0  0  0  0  0  0  0  0  0  0  0  0
    7.6898  -22.2114   21.2498 O   0  0  0  0  0  0  0  0  0  0  0  0
    8.0472  -12.5185   17.7065 N   0  0  0  0  0  0  0  0  0  0  0  0
    8.0895  -13.8796   17.2721 C   0  0  0  0  0  0  0  0  0  0  0  0
    7.7717  -14.2413   16.0635 N   0  0  0  0  0  0  0  0  0  0  0  0
    8.4925  -14.8840   18.1981 N   0  0  0  0  0  0  0  0  0  0  0  0
    8.6959  -14.5398   19.5877 C   0  0  0  0  0  0  0  0  0  0  0  0
    7.3644  -14.6449   20.3550 C   0  0  0  0  0  0  0  0  0  0  0  0
    7.6897  -14.2825   21.7644 C   0  0  0  0  0  0  0  0  0  0  0  0
    8.6835  -15.1883   22.4273 C   0  0  2  0  0  0  0  0  0  0  0  0
    7.9856  -16.3984   22.8062 N   0  0  0  0  0  0  0  0  0  0  0  0
    9.0882  -14.5420   23.7368 C   0  0  0  0  0  0  0  0  0  0  0  0
    9.8070  -13.5140   23.7898 O   0  0  0  0  0  0  0  0  0  0  0  0
    7.8208  -15.2477   15.7993 C   0  0  0  0  0  0  0  0  0  0  0  0
    6.2283  -11.9577   26.2267 C   0  0  0  0  0  0  0  0  0  0  0  0
    7.4559  -12.7269   25.7359 C   0  0  2  0  0  0  0  0  0  0  0  0
    7.8213  -13.7783   26.7269 C   0  0  0  0  0  0  0  0  0  0  0  0
    8.0485  -13.2623   28.1125 C   0  0  2  0  0  0  0  0  0  0  0  0
    9.0292  -14.5430   26.2515 N   0  0  0  0  0  0  0  0  0  0  0  0
    8.6413  -15.1158   24.9488 C   0  0  0  0  0  0  0  0  0  0  0  0
    9.4161  -15.6745   27.1047 O   0  0  0  0  0  0  0  0  0  0  0  0
   10.3183  -15.5485   28.1710 O   0  0  0  0  0  0  0  0  0  0  0  0
  2  1  1  6
  2  3  1  0
  3  4  1  0
  4  8  1  0
  5  4  2  0
  6  2  1  0
  7  6  2  0
  9 10  1  0
 10 12  1  0
 11 10  2  0
 12 13  1  0
 13 14  1  0
 14 15  1  0
 16 15  1  1
 16 17  1  0
 17  6  1  0
 18 19  2  0
 18 16  1  0
 21 20  1  0
 21 22  1  0
 22 24  1  0
 22 23  1  6
 24 25  1  6
 25 18  1  0
 26 24  1  0
 27 26  1  0
 28 26  2  0
M  END
$$$$
