SET.pdb
     RDKit          3D

 23 22  0  0  1  0  0  0  0  0999 V2000
    7.6184  -12.7650   19.8279 O   0  0  0  0  0  0  0  0  0  0  0  0
    8.7030  -13.5826   19.4918 C   0  0  0  0  0  0  0  0  0  0  0  0
    8.3305  -15.0270   19.7259 C   0  0  2  0  0  0  0  0  0  0  0  0
    7.0760  -15.2707   19.0454 N   0  0  0  0  0  0  0  0  0  0  0  0
    8.1945  -15.3644   21.1448 C   0  0  0  0  0  0  0  0  0  0  0  0
    7.0574  -15.3841   21.6781 O   0  0  0  0  0  0  0  0  0  0  0  0
    9.3158  -15.6772   21.9623 N   0  0  0  0  0  0  0  0  0  0  0  0
    9.1929  -16.1346   23.3275 C   0  0  1  0  0  0  0  0  0  0  0  0
   10.2778  -17.1425   23.6451 C   0  0  0  0  0  0  0  0  0  0  0  0
   10.1962  -17.6619   25.0393 C   0  0  0  0  0  0  0  0  0  0  0  0
   11.3501  -18.5438   25.3091 C   0  0  0  0  0  0  0  0  0  0  0  0
   11.8642  -18.5445   26.4497 O   0  0  0  0  0  0  0  0  0  0  0  0
    9.2287  -15.0119   24.2943 C   0  0  0  0  0  0  0  0  0  0  0  0
   10.1234  -14.1291   24.2674 O   0  0  0  0  0  0  0  0  0  0  0  0
   11.9059  -19.3851   24.3558 O   0  0  0  0  0  0  0  0  0  0  0  0
    6.8344  -12.2017   24.9608 C   0  0  0  0  0  0  0  0  0  0  0  0
    6.9292  -12.9802   26.2603 C   0  0  1  0  0  0  0  0  0  0  0  0
    5.8006  -13.8347   26.2537 O   0  0  0  0  0  0  0  0  0  0  0  0
    8.2069  -13.7515   26.2271 C   0  0  2  0  0  0  0  0  0  0  0  0
    8.2612  -14.8400   25.3261 N   0  0  0  0  0  0  0  0  0  0  0  0
    8.5044  -14.2150   27.5920 C   0  0  0  0  0  0  0  0  0  0  0  0
    8.6311  -13.3364   28.6442 O   0  0  0  0  0  0  0  0  0  0  0  0
    8.6465  -15.4314   27.8086 O   0  0  0  0  0  0  0  0  0  0  0  0
  2  3  1  0
  2  1  1  0
  3  5  1  0
  3  4  1  6
  5  6  2  0
  7  8  1  0
  7  5  1  0
  8 13  1  0
  8  9  1  1
 10  9  1  0
 11 10  1  0
 12 11  2  0
 13 20  1  0
 13 14  2  0
 15 11  1  0
 17 18  1  0
 17 16  1  6
 19 17  1  0
 19 20  1  6
 21 22  1  0
 21 19  1  0
 23 21  2  0
M  END
$$$$
