SET.pdb
     RDKit          3D

 23 22  0  0  1  0  0  0  0  0999 V2000
    8.4361  -16.3963   17.5992 O   0  0  0  0  0  0  0  0  0  0  0  0
    9.7155  -16.9436   17.4533 C   0  0  0  0  0  0  0  0  0  0  0  0
    9.7593  -18.2956   18.1241 C   0  0  2  0  0  0  0  0  0  0  0  0
    8.6937  -19.0979   17.5610 N   0  0  0  0  0  0  0  0  0  0  0  0
    9.6042  -18.2224   19.5789 C   0  0  0  0  0  0  0  0  0  0  0  0
    8.4623  -18.3197   20.0931 O   0  0  0  0  0  0  0  0  0  0  0  0
   10.7118  -18.0424   20.4530 N   0  0  0  0  0  0  0  0  0  0  0  0
   10.5713  -17.8962   21.8838 C   0  0  1  0  0  0  0  0  0  0  0  0
   11.8664  -18.2592   22.5801 C   0  0  0  0  0  0  0  0  0  0  0  0
   11.8001  -18.0790   24.0577 C   0  0  0  0  0  0  0  0  0  0  0  0
   13.1011  -18.4345   24.6604 C   0  0  0  0  0  0  0  0  0  0  0  0
   13.1245  -18.9639   25.7936 O   0  0  0  0  0  0  0  0  0  0  0  0
   10.1444  -16.5284   22.2625 C   0  0  0  0  0  0  0  0  0  0  0  0
   10.7996  -15.5053   21.9394 O   0  0  0  0  0  0  0  0  0  0  0  0
   14.3183  -18.2118   24.0325 O   0  0  0  0  0  0  0  0  0  0  0  0
    7.5917  -14.1813   21.3746 C   0  0  0  0  0  0  0  0  0  0  0  0
    7.2968  -14.4473   22.8394 C   0  0  1  0  0  0  0  0  0  0  0  0
    6.2604  -15.4115   22.8309 O   0  0  0  0  0  0  0  0  0  0  0  0
    8.5458  -14.9835   23.4566 C   0  0  2  0  0  0  0  0  0  0  0  0
    8.9664  -16.2602   23.0177 N   0  0  0  0  0  0  0  0  0  0  0  0
    8.3763  -14.9866   24.9188 C   0  0  0  0  0  0  0  0  0  0  0  0
    8.0184  -13.8506   25.6091 O   0  0  0  0  0  0  0  0  0  0  0  0
    8.5595  -16.0396   25.5544 O   0  0  0  0  0  0  0  0  0  0  0  0
  2  3  1  0
  2  1  1  0
  3  5  1  0
  3  4  1  6
  5  6  2  0
  7  8  1  0
  7  5  1  0
  8 13  1  0
  8  9  1  1
 10  9  1  0
 11 10  1  0
 12 11  2  0
 13 20  1  0
 13 14  2  0
 15 11  1  0
 17 18  1  0
 17 16  1  6
 19 17  1  0
 19 20  1  6
 21 22  1  0
 21 19  1  0
 23 21  2  0
M  END
$$$$
