SET.pdb
     RDKit          3D

 23 22  0  0  1  0  0  0  0  0999 V2000
    7.9399  -17.1856   13.9911 O   0  0  0  0  0  0  0  0  0  0  0  0
    7.8755  -15.7887   14.0383 C   0  0  0  0  0  0  0  0  0  0  0  0
    9.0207  -15.2641   14.8708 C   0  0  2  0  0  0  0  0  0  0  0  0
   10.2481  -15.7740   14.2967 N   0  0  0  0  0  0  0  0  0  0  0  0
    8.9361  -15.6565   16.2796 C   0  0  0  0  0  0  0  0  0  0  0  0
    7.9178  -15.3604   16.9527 O   0  0  0  0  0  0  0  0  0  0  0  0
    9.9773  -16.3727   16.9326 N   0  0  0  0  0  0  0  0  0  0  0  0
    9.8385  -16.9318   18.2579 C   0  0  1  0  0  0  0  0  0  0  0  0
   10.8517  -18.0370   18.4721 C   0  0  0  0  0  0  0  0  0  0  0  0
   10.5032  -19.2912   17.7471 C   0  0  0  0  0  0  0  0  0  0  0  0
   11.5889  -20.2790   17.9131 C   0  0  0  0  0  0  0  0  0  0  0  0
   12.6724  -20.1016   17.3134 O   0  0  0  0  0  0  0  0  0  0  0  0
    9.9673  -15.8984   19.3124 C   0  0  0  0  0  0  0  0  0  0  0  0
   11.0117  -15.2145   19.4603 O   0  0  0  0  0  0  0  0  0  0  0  0
   11.4750  -21.4104   18.7082 O   0  0  0  0  0  0  0  0  0  0  0  0
    7.9547  -12.8047   20.2040 C   0  0  0  0  0  0  0  0  0  0  0  0
    7.9188  -13.6862   21.4391 C   0  0  1  0  0  0  0  0  0  0  0  0
    6.6482  -14.3093   21.4025 O   0  0  0  0  0  0  0  0  0  0  0  0
    9.0257  -14.6796   21.3115 C   0  0  2  0  0  0  0  0  0  0  0  0
    8.9280  -15.5959   20.2389 N   0  0  0  0  0  0  0  0  0  0  0  0
    9.1436  -15.4087   22.5847 C   0  0  0  0  0  0  0  0  0  0  0  0
    9.3269  -14.7527   23.7810 O   0  0  0  0  0  0  0  0  0  0  0  0
    9.0769  -16.6505   22.5879 O   0  0  0  0  0  0  0  0  0  0  0  0
  2  3  1  0
  2  1  1  0
  3  5  1  0
  3  4  1  6
  5  6  2  0
  7  8  1  0
  7  5  1  0
  8 13  1  0
  8  9  1  1
 10  9  1  0
 11 10  1  0
 12 11  2  0
 13 20  1  0
 13 14  2  0
 15 11  1  0
 17 18  1  0
 17 16  1  6
 19 17  1  0
 19 20  1  6
 21 22  1  0
 21 19  1  0
 23 21  2  0
M  END
$$$$
