SET.pdb
     RDKit          3D

 23 22  0  0  1  0  0  0  0  0999 V2000
   -1.9145  -27.6092   26.6183 O   0  0  0  0  0  0  0  0  0  0  0  0
   -1.8491  -27.4721   28.0092 C   0  0  0  0  0  0  0  0  0  0  0  0
   -1.6957  -26.0115   28.3600 C   0  0  2  0  0  0  0  0  0  0  0  0
   -0.3515  -25.8216   28.8633 N   0  0  0  0  0  0  0  0  0  0  0  0
   -2.6645  -25.5540   29.3590 C   0  0  0  0  0  0  0  0  0  0  0  0
   -2.3688  -25.5857   30.5794 O   0  0  0  0  0  0  0  0  0  0  0  0
   -3.9516  -25.0653   29.0011 N   0  0  0  0  0  0  0  0  0  0  0  0
   -4.9302  -24.6359   29.9737 C   0  0  1  0  0  0  0  0  0  0  0  0
   -5.6109  -23.3647   29.5103 C   0  0  0  0  0  0  0  0  0  0  0  0
   -6.6425  -22.8773   30.4685 C   0  0  0  0  0  0  0  0  0  0  0  0
   -7.3042  -21.6768   29.9180 C   0  0  0  0  0  0  0  0  0  0  0  0
   -6.9328  -21.2290   28.8104 O   0  0  0  0  0  0  0  0  0  0  0  0
   -5.9342  -25.6896   30.2532 C   0  0  0  0  0  0  0  0  0  0  0  0
   -6.5679  -26.2748   29.3387 O   0  0  0  0  0  0  0  0  0  0  0  0
   -8.3303  -21.0062   30.5682 O   0  0  0  0  0  0  0  0  0  0  0  0
   -5.5293  -28.9215   32.2817 C   0  0  0  0  0  0  0  0  0  0  0  0
   -6.6908  -28.1634   32.8980 C   0  0  1  0  0  0  0  0  0  0  0  0
   -6.1452  -27.5324   34.0417 O   0  0  0  0  0  0  0  0  0  0  0  0
   -7.1609  -27.1686   31.8891 C   0  0  2  0  0  0  0  0  0  0  0  0
   -6.2628  -26.1241   31.5698 N   0  0  0  0  0  0  0  0  0  0  0  0
   -8.4395  -26.6063   32.3532 C   0  0  0  0  0  0  0  0  0  0  0  0
   -9.5373  -27.4021   32.5914 O   0  0  0  0  0  0  0  0  0  0  0  0
   -8.5386  -25.3803   32.5375 O   0  0  0  0  0  0  0  0  0  0  0  0
  2  3  1  0
  2  1  1  0
  3  5  1  0
  3  4  1  1
  5  6  2  0
  7  8  1  0
  7  5  1  0
  8 13  1  0
  8  9  1  6
 10  9  1  0
 11 10  1  0
 12 11  2  0
 13 20  1  0
 13 14  2  0
 15 11  1  0
 17 18  1  0
 17 16  1  6
 19 17  1  0
 19 20  1  1
 21 22  1  0
 21 19  1  0
 23 21  2  0
M  END
$$$$
