SET.pdb
     RDKit          3D

 23 22  0  0  1  0  0  0  0  0999 V2000
    7.1658  -12.4920   19.7789 O   0  0  0  0  0  0  0  0  0  0  0  0
    8.4319  -12.5775   19.1897 C   0  0  0  0  0  0  0  0  0  0  0  0
    8.8231  -14.0297   19.0557 C   0  0  2  0  0  0  0  0  0  0  0  0
    8.1476  -14.5586   17.8895 N   0  0  0  0  0  0  0  0  0  0  0  0
    8.4753  -14.8310   20.2315 C   0  0  0  0  0  0  0  0  0  0  0  0
    7.7202  -15.8274   20.1100 O   0  0  0  0  0  0  0  0  0  0  0  0
    8.9647  -14.5246   21.5316 N   0  0  0  0  0  0  0  0  0  0  0  0
    9.0091  -15.4909   22.6052 C   0  0  1  0  0  0  0  0  0  0  0  0
   10.0643  -16.5408   22.3258 C   0  0  0  0  0  0  0  0  0  0  0  0
   10.1275  -17.5935   23.3784 C   0  0  0  0  0  0  0  0  0  0  0  0
   11.2463  -18.5148   23.0931 C   0  0  0  0  0  0  0  0  0  0  0  0
   12.3348  -18.3561   23.6892 O   0  0  0  0  0  0  0  0  0  0  0  0
    9.2506  -14.8496   23.9193 C   0  0  0  0  0  0  0  0  0  0  0  0
   10.3296  -14.2668   24.1955 O   0  0  0  0  0  0  0  0  0  0  0  0
   11.1590  -19.5627   22.1879 O   0  0  0  0  0  0  0  0  0  0  0  0
    6.9556  -12.2308   25.4860 C   0  0  0  0  0  0  0  0  0  0  0  0
    7.1639  -13.3004   26.5425 C   0  0  1  0  0  0  0  0  0  0  0  0
    5.9942  -14.0958   26.4883 O   0  0  0  0  0  0  0  0  0  0  0  0
    8.3792  -14.0775   26.1583 C   0  0  2  0  0  0  0  0  0  0  0  0
    8.2889  -14.8397   24.9707 N   0  0  0  0  0  0  0  0  0  0  0  0
    8.7488  -14.9481   27.2861 C   0  0  0  0  0  0  0  0  0  0  0  0
    8.9977  -14.4412   28.5415 O   0  0  0  0  0  0  0  0  0  0  0  0
    8.8406  -16.1755   27.1079 O   0  0  0  0  0  0  0  0  0  0  0  0
  2  3  1  0
  2  1  1  0
  3  5  1  0
  3  4  1  6
  5  6  2  0
  7  8  1  0
  7  5  1  0
  8 13  1  0
  8  9  1  6
 10  9  1  0
 11 10  1  0
 12 11  2  0
 13 20  1  0
 13 14  2  0
 15 11  1  0
 17 18  1  0
 17 16  1  6
 19 17  1  0
 19 20  1  6
 21 22  1  0
 21 19  1  0
 23 21  2  0
M  END
$$$$
