SET.pdb
     RDKit          3D

 23 22  0  0  1  0  0  0  0  0999 V2000
    7.4149  -11.9488   17.9695 O   0  0  0  0  0  0  0  0  0  0  0  0
    8.0134  -12.9785   18.7039 C   0  0  0  0  0  0  0  0  0  0  0  0
    8.8339  -13.8416   17.7757 C   0  0  2  0  0  0  0  0  0  0  0  0
    7.9192  -14.4945   16.8629 N   0  0  0  0  0  0  0  0  0  0  0  0
    9.6301  -14.8497   18.4795 C   0  0  0  0  0  0  0  0  0  0  0  0
    9.1761  -16.0106   18.6348 O   0  0  0  0  0  0  0  0  0  0  0  0
   10.9210  -14.5668   19.0058 N   0  0  0  0  0  0  0  0  0  0  0  0
   11.6945  -15.5291   19.7567 C   0  0  1  0  0  0  0  0  0  0  0  0
   13.1582  -15.4390   19.3783 C   0  0  0  0  0  0  0  0  0  0  0  0
   13.4162  -14.4529   18.2914 C   0  0  0  0  0  0  0  0  0  0  0  0
   14.8491  -14.4720   17.9331 C   0  0  0  0  0  0  0  0  0  0  0  0
   15.1774  -14.6525   16.7394 O   0  0  0  0  0  0  0  0  0  0  0  0
   11.5253  -15.3574   21.2190 C   0  0  0  0  0  0  0  0  0  0  0  0
   12.1048  -14.4450   21.8609 O   0  0  0  0  0  0  0  0  0  0  0  0
   15.8685  -14.2986   18.8583 O   0  0  0  0  0  0  0  0  0  0  0  0
    8.3457  -14.7018   23.0405 C   0  0  0  0  0  0  0  0  0  0  0  0
    8.9198  -15.9385   23.7072 C   0  0  1  0  0  0  0  0  0  0  0  0
    8.2098  -17.0212   23.1347 O   0  0  0  0  0  0  0  0  0  0  0  0
   10.3737  -15.9923   23.3729 C   0  0  2  0  0  0  0  0  0  0  0  0
   10.6991  -16.2041   22.0132 N   0  0  0  0  0  0  0  0  0  0  0  0
   11.0032  -17.0292   24.2066 C   0  0  0  0  0  0  0  0  0  0  0  0
   10.9098  -17.0104   25.5799 O   0  0  0  0  0  0  0  0  0  0  0  0
   11.6381  -17.9502   23.6631 O   0  0  0  0  0  0  0  0  0  0  0  0
  2  3  1  0
  2  1  1  0
  3  5  1  0
  3  4  1  6
  5  6  2  0
  7  8  1  0
  7  5  1  0
  8 13  1  0
  8  9  1  1
 10  9  1  0
 11 10  1  0
 12 11  2  0
 13 20  1  0
 13 14  2  0
 15 11  1  0
 17 18  1  0
 17 16  1  6
 19 17  1  0
 19 20  1  6
 21 22  1  0
 21 19  1  0
 23 21  2  0
M  END
$$$$
