SET.pdb
     RDKit          3D

 23 22  0  0  1  0  0  0  0  0999 V2000
    9.6690  -11.9867   20.0237 O   0  0  0  0  0  0  0  0  0  0  0  0
   10.0667  -13.1622   19.3775 C   0  0  0  0  0  0  0  0  0  0  0  0
    8.8711  -14.0693   19.2113 C   0  0  2  0  0  0  0  0  0  0  0  0
    7.8183  -13.2952   18.5878 N   0  0  0  0  0  0  0  0  0  0  0  0
    8.3891  -14.6253   20.4778 C   0  0  0  0  0  0  0  0  0  0  0  0
    7.3309  -14.1862   20.9928 O   0  0  0  0  0  0  0  0  0  0  0  0
    9.0802  -15.6618   21.1645 N   0  0  0  0  0  0  0  0  0  0  0  0
    8.6311  -16.2084   22.4246 C   0  0  1  0  0  0  0  0  0  0  0  0
    9.3707  -17.4931   22.7351 C   0  0  0  0  0  0  0  0  0  0  0  0
    9.1130  -18.5665   21.7343 C   0  0  0  0  0  0  0  0  0  0  0  0
    9.8883  -19.7728   22.0890 C   0  0  0  0  0  0  0  0  0  0  0  0
   10.9967  -19.9685   21.5428 O   0  0  0  0  0  0  0  0  0  0  0  0
    8.7846  -15.2398   23.5359 C   0  0  0  0  0  0  0  0  0  0  0  0
    9.7762  -14.4726   23.6276 O   0  0  0  0  0  0  0  0  0  0  0  0
    9.4517  -20.7167   23.0076 O   0  0  0  0  0  0  0  0  0  0  0  0
    6.7333  -12.3309   26.8359 C   0  0  0  0  0  0  0  0  0  0  0  0
    6.5010  -13.5908   26.0221 C   0  0  1  0  0  0  0  0  0  0  0  0
    5.6958  -13.1759   24.9343 O   0  0  0  0  0  0  0  0  0  0  0  0
    7.8354  -14.0812   25.5669 C   0  0  2  0  0  0  0  0  0  0  0  0
    7.8300  -15.0980   24.5841 N   0  0  0  0  0  0  0  0  0  0  0  0
    8.5925  -14.5286   26.7472 C   0  0  0  0  0  0  0  0  0  0  0  0
    8.8587  -13.6832   27.8005 O   0  0  0  0  0  0  0  0  0  0  0  0
    9.0060  -15.7002   26.8017 O   0  0  0  0  0  0  0  0  0  0  0  0
  2  3  1  0
  2  1  1  0
  3  5  1  0
  3  4  1  1
  5  6  2  0
  7  8  1  0
  7  5  1  0
  8 13  1  0
  8  9  1  1
 10  9  1  0
 11 10  1  0
 12 11  2  0
 13 20  1  0
 13 14  2  0
 15 11  1  0
 17 18  1  0
 17 16  1  1
 19 17  1  0
 19 20  1  6
 21 22  1  0
 21 19  1  0
 23 21  2  0
M  END
$$$$
