SET.pdb
     RDKit          3D

 23 22  0  0  1  0  0  0  0  0999 V2000
    7.4314  -13.2954   19.7637 O   0  0  0  0  0  0  0  0  0  0  0  0
    8.2974  -13.8713   18.8277 C   0  0  0  0  0  0  0  0  0  0  0  0
    8.1782  -15.3749   18.8965 C   0  0  2  0  0  0  0  0  0  0  0  0
    6.8147  -15.7215   18.5543 N   0  0  0  0  0  0  0  0  0  0  0  0
    8.5081  -15.9194   20.2157 C   0  0  0  0  0  0  0  0  0  0  0  0
    7.5895  -16.2084   21.0222 O   0  0  0  0  0  0  0  0  0  0  0  0
    9.8501  -16.1400   20.6326 N   0  0  0  0  0  0  0  0  0  0  0  0
   10.1932  -16.7193   21.9113 C   0  0  1  0  0  0  0  0  0  0  0  0
   11.6299  -17.1985   21.9040 C   0  0  0  0  0  0  0  0  0  0  0  0
   11.8007  -18.5079   21.2136 C   0  0  0  0  0  0  0  0  0  0  0  0
   13.2316  -18.8736   21.1890 C   0  0  0  0  0  0  0  0  0  0  0  0
   13.6153  -19.8804   21.8249 O   0  0  0  0  0  0  0  0  0  0  0  0
    9.9681  -15.7715   23.0282 C   0  0  0  0  0  0  0  0  0  0  0  0
   10.5208  -14.6434   23.0751 O   0  0  0  0  0  0  0  0  0  0  0  0
   14.1904  -18.1539   20.4904 O   0  0  0  0  0  0  0  0  0  0  0  0
    7.3652  -13.6762   23.9447 C   0  0  0  0  0  0  0  0  0  0  0  0
    7.4578  -14.5520   25.1808 C   0  0  1  0  0  0  0  0  0  0  0  0
    6.4434  -15.5249   25.0121 O   0  0  0  0  0  0  0  0  0  0  0  0
    8.8178  -15.1674   25.1916 C   0  0  2  0  0  0  0  0  0  0  0  0
    9.1143  -16.0565   24.1327 N   0  0  0  0  0  0  0  0  0  0  0  0
    9.0100  -15.8450   26.4841 C   0  0  0  0  0  0  0  0  0  0  0  0
    8.9494  -15.1607   27.6770 O   0  0  0  0  0  0  0  0  0  0  0  0
    9.2334  -17.0682   26.5072 O   0  0  0  0  0  0  0  0  0  0  0  0
  2  3  1  0
  2  1  1  0
  3  5  1  0
  3  4  1  1
  5  6  2  0
  7  8  1  0
  7  5  1  0
  8 13  1  0
  8  9  1  6
 10  9  1  0
 11 10  1  0
 12 11  2  0
 13 20  1  0
 13 14  2  0
 15 11  1  0
 17 18  1  0
 17 16  1  6
 19 17  1  0
 19 20  1  6
 21 22  1  0
 21 19  1  0
 23 21  2  0
M  END
$$$$
