SET.pdb
     RDKit          3D

 23 22  0  0  1  0  0  0  0  0999 V2000
    8.8609  -16.1605   14.1519 O   0  0  0  0  0  0  0  0  0  0  0  0
    8.6490  -16.1220   15.5344 C   0  0  0  0  0  0  0  0  0  0  0  0
    8.5495  -17.5327   16.0634 C   0  0  2  0  0  0  0  0  0  0  0  0
    7.2709  -18.0676   15.6447 N   0  0  0  0  0  0  0  0  0  0  0  0
    8.6617  -17.6105   17.5218 C   0  0  0  0  0  0  0  0  0  0  0  0
    7.6285  -17.5532   18.2339 O   0  0  0  0  0  0  0  0  0  0  0  0
    9.9143  -17.7508   18.1811 N   0  0  0  0  0  0  0  0  0  0  0  0
   10.0368  -17.9487   19.6073 C   0  0  1  0  0  0  0  0  0  0  0  0
   11.3342  -18.6600   19.9310 C   0  0  0  0  0  0  0  0  0  0  0  0
   11.5003  -18.9282   21.3873 C   0  0  0  0  0  0  0  0  0  0  0  0
   12.7820  -19.6243   21.6211 C   0  0  0  0  0  0  0  0  0  0  0  0
   12.7836  -20.8664   21.7703 O   0  0  0  0  0  0  0  0  0  0  0  0
    9.9445  -16.6722   20.3546 C   0  0  0  0  0  0  0  0  0  0  0  0
   10.7114  -15.7024   20.1272 O   0  0  0  0  0  0  0  0  0  0  0  0
   14.0040  -18.9701   21.6859 O   0  0  0  0  0  0  0  0  0  0  0  0
    7.4042  -14.0269   20.6408 C   0  0  0  0  0  0  0  0  0  0  0  0
    7.5579  -14.5403   22.0607 C   0  0  1  0  0  0  0  0  0  0  0  0
    6.4701  -15.4273   22.2448 O   0  0  0  0  0  0  0  0  0  0  0  0
    8.8691  -15.2495   22.1400 C   0  0  2  0  0  0  0  0  0  0  0  0
    8.9877  -16.4388   21.3843 N   0  0  0  0  0  0  0  0  0  0  0  0
    9.1631  -15.5238   23.5560 C   0  0  0  0  0  0  0  0  0  0  0  0
    9.2237  -14.5160   24.4919 O   0  0  0  0  0  0  0  0  0  0  0  0
    9.3632  -16.6946   23.9244 O   0  0  0  0  0  0  0  0  0  0  0  0
  2  3  1  0
  2  1  1  0
  3  5  1  0
  3  4  1  1
  5  6  2  0
  7  8  1  0
  7  5  1  0
  8 13  1  0
  8  9  1  6
 10  9  1  0
 11 10  1  0
 12 11  2  0
 13 20  1  0
 13 14  2  0
 15 11  1  0
 17 18  1  0
 17 16  1  6
 19 17  1  0
 19 20  1  6
 21 22  1  0
 21 19  1  0
 23 21  2  0
M  END
$$$$
