SET.pdb
     RDKit          3D

 23 22  0  0  1  0  0  0  0  0999 V2000
    8.2786  -13.6555   18.1186 O   0  0  0  0  0  0  0  0  0  0  0  0
    7.8182  -13.9289   19.4113 C   0  0  0  0  0  0  0  0  0  0  0  0
    8.0435  -15.3890   19.7230 C   0  0  2  0  0  0  0  0  0  0  0  0
    7.1598  -16.1589   18.8730 N   0  0  0  0  0  0  0  0  0  0  0  0
    7.7918  -15.7241   21.1265 C   0  0  0  0  0  0  0  0  0  0  0  0
    6.6227  -15.9753   21.5111 O   0  0  0  0  0  0  0  0  0  0  0  0
    8.8339  -15.7789   22.0932 N   0  0  0  0  0  0  0  0  0  0  0  0
    8.6064  -16.1188   23.4792 C   0  0  1  0  0  0  0  0  0  0  0  0
    9.4751  -17.2917   23.8835 C   0  0  0  0  0  0  0  0  0  0  0  0
   10.9319  -16.9908   23.7973 C   0  0  0  0  0  0  0  0  0  0  0  0
   11.7089  -18.1639   24.2467 C   0  0  0  0  0  0  0  0  0  0  0  0
   12.5819  -18.6442   23.4901 O   0  0  0  0  0  0  0  0  0  0  0  0
    8.8411  -14.9649   24.3793 C   0  0  0  0  0  0  0  0  0  0  0  0
    9.8122  -14.1809   24.2289 O   0  0  0  0  0  0  0  0  0  0  0  0
   11.5239  -18.7741   25.4791 O   0  0  0  0  0  0  0  0  0  0  0  0
    6.7665  -11.8970   25.2599 C   0  0  0  0  0  0  0  0  0  0  0  0
    6.9723  -12.6701   26.5497 C   0  0  1  0  0  0  0  0  0  0  0  0
    5.7834  -13.4203   26.7159 O   0  0  0  0  0  0  0  0  0  0  0  0
    8.1606  -13.5529   26.3570 C   0  0  2  0  0  0  0  0  0  0  0  0
    7.9937  -14.6500   25.4805 N   0  0  0  0  0  0  0  0  0  0  0  0
    8.6039  -14.0288   27.6774 C   0  0  0  0  0  0  0  0  0  0  0  0
    8.9048  -13.1561   28.6987 O   0  0  0  0  0  0  0  0  0  0  0  0
    8.7117  -15.2504   27.8837 O   0  0  0  0  0  0  0  0  0  0  0  0
  2  3  1  0
  2  1  1  0
  3  5  1  0
  3  4  1  6
  5  6  2  0
  7  8  1  0
  7  5  1  0
  8 13  1  0
  8  9  1  1
 10  9  1  0
 11 10  1  0
 12 11  2  0
 13 20  1  0
 13 14  2  0
 15 11  1  0
 17 18  1  0
 17 16  1  6
 19 17  1  0
 19 20  1  6
 21 22  1  0
 21 19  1  0
 23 21  2  0
M  END
$$$$
