SET.pdb
     RDKit          3D

 23 22  0  0  1  0  0  0  0  0999 V2000
    7.3203  -12.6920   16.0875 O   0  0  0  0  0  0  0  0  0  0  0  0
    7.9488  -13.4139   17.1081 C   0  0  0  0  0  0  0  0  0  0  0  0
    9.0397  -14.2719   16.5135 C   0  0  2  0  0  0  0  0  0  0  0  0
    8.4092  -15.2334   15.6337 N   0  0  0  0  0  0  0  0  0  0  0  0
    9.8342  -14.9755   17.5231 C   0  0  0  0  0  0  0  0  0  0  0  0
    9.4705  -16.1068   17.9303 O   0  0  0  0  0  0  0  0  0  0  0  0
   11.0237  -14.4234   18.0742 N   0  0  0  0  0  0  0  0  0  0  0  0
   11.7377  -15.0293   19.1748 C   0  0  1  0  0  0  0  0  0  0  0  0
   13.2107  -14.6850   19.1004 C   0  0  0  0  0  0  0  0  0  0  0  0
   14.0047  -15.2941   20.2044 C   0  0  0  0  0  0  0  0  0  0  0  0
   15.4364  -14.9821   20.0174 C   0  0  0  0  0  0  0  0  0  0  0  0
   15.8918  -13.9094   20.4724 O   0  0  0  0  0  0  0  0  0  0  0  0
   11.1772  -14.6294   20.4872 C   0  0  0  0  0  0  0  0  0  0  0  0
   11.3842  -13.4960   20.9901 O   0  0  0  0  0  0  0  0  0  0  0  0
   16.3196  -15.8231   19.3556 O   0  0  0  0  0  0  0  0  0  0  0  0
    7.8670  -13.9313   21.6477 C   0  0  0  0  0  0  0  0  0  0  0  0
    8.2865  -15.0738   22.5545 C   0  0  1  0  0  0  0  0  0  0  0  0
    7.6937  -16.2256   21.9838 O   0  0  0  0  0  0  0  0  0  0  0  0
    9.7773  -15.1456   22.5224 C   0  0  2  0  0  0  0  0  0  0  0  0
   10.3640  -15.4878   21.2821 N   0  0  0  0  0  0  0  0  0  0  0  0
   10.2186  -16.0885   23.5630 C   0  0  0  0  0  0  0  0  0  0  0  0
    9.9087  -15.8993   24.8909 O   0  0  0  0  0  0  0  0  0  0  0  0
   10.8898  -17.0850   23.2419 O   0  0  0  0  0  0  0  0  0  0  0  0
  2  3  1  0
  2  1  1  0
  3  5  1  0
  3  4  1  6
  5  6  2  0
  7  8  1  0
  7  5  1  0
  8 13  1  0
  8  9  1  1
 10  9  1  0
 11 10  1  0
 12 11  2  0
 13 20  1  0
 13 14  2  0
 15 11  1  0
 17 18  1  0
 17 16  1  6
 19 17  1  0
 19 20  1  6
 21 22  1  0
 21 19  1  0
 23 21  2  0
M  END
$$$$
