SET.pdb
     RDKit          3D

 23 22  0  0  1  0  0  0  0  0999 V2000
    7.7413  -13.6754   17.1455 O   0  0  0  0  0  0  0  0  0  0  0  0
    7.3907  -14.3538   18.3179 C   0  0  0  0  0  0  0  0  0  0  0  0
    7.8887  -13.5761   19.5124 C   0  0  2  0  0  0  0  0  0  0  0  0
    9.2647  -13.2085   19.2521 N   0  0  0  0  0  0  0  0  0  0  0  0
    7.8096  -14.3310   20.7652 C   0  0  0  0  0  0  0  0  0  0  0  0
    6.6999  -14.7569   21.1714 O   0  0  0  0  0  0  0  0  0  0  0  0
    8.9571  -14.6088   21.5587 N   0  0  0  0  0  0  0  0  0  0  0  0
    8.8981  -15.3501   22.7977 C   0  0  1  0  0  0  0  0  0  0  0  0
    9.9672  -16.4227   22.8213 C   0  0  0  0  0  0  0  0  0  0  0  0
    9.7100  -17.5188   21.8452 C   0  0  0  0  0  0  0  0  0  0  0  0
   10.7831  -18.5295   21.9392 C   0  0  0  0  0  0  0  0  0  0  0  0
   10.4761  -19.7383   22.0387 O   0  0  0  0  0  0  0  0  0  0  0  0
    9.0246  -14.4656   23.9802 C   0  0  0  0  0  0  0  0  0  0  0  0
    9.9541  -13.6274   24.0971 O   0  0  0  0  0  0  0  0  0  0  0  0
   12.1336  -18.2112   21.9234 O   0  0  0  0  0  0  0  0  0  0  0  0
    7.0824  -11.7054   25.6012 C   0  0  0  0  0  0  0  0  0  0  0  0
    7.0882  -12.8435   26.6054 C   0  0  1  0  0  0  0  0  0  0  0  0
    5.8447  -13.4945   26.4222 O   0  0  0  0  0  0  0  0  0  0  0  0
    8.2351  -13.7356   26.2632 C   0  0  2  0  0  0  0  0  0  0  0  0
    8.1117  -14.4905   25.0739 N   0  0  0  0  0  0  0  0  0  0  0  0
    8.4809  -14.6332   27.4036 C   0  0  0  0  0  0  0  0  0  0  0  0
    8.7427  -14.1474   28.6648 O   0  0  0  0  0  0  0  0  0  0  0  0
    8.4530  -15.8645   27.2312 O   0  0  0  0  0  0  0  0  0  0  0  0
  2  3  1  0
  2  1  1  0
  3  5  1  0
  3  4  1  6
  5  6  2  0
  7  8  1  0
  7  5  1  0
  8 13  1  0
  8  9  1  6
 10  9  1  0
 11 10  1  0
 12 11  2  0
 13 20  1  0
 13 14  2  0
 15 11  1  0
 17 18  1  0
 17 16  1  6
 19 17  1  0
 19 20  1  6
 21 22  1  0
 21 19  1  0
 23 21  2  0
M  END
$$$$
