SET.pdb
     RDKit          3D

 23 22  0  0  1  0  0  0  0  0999 V2000
    8.9343  -16.4428   15.9331 O   0  0  0  0  0  0  0  0  0  0  0  0
    8.9145  -16.4570   17.3321 C   0  0  0  0  0  0  0  0  0  0  0  0
    9.2497  -17.8454   17.8218 C   0  0  2  0  0  0  0  0  0  0  0  0
    8.1470  -18.7130   17.4650 N   0  0  0  0  0  0  0  0  0  0  0  0
    9.4767  -17.9073   19.2676 C   0  0  0  0  0  0  0  0  0  0  0  0
    8.5123  -18.1145   20.0452 O   0  0  0  0  0  0  0  0  0  0  0  0
   10.7673  -17.7399   19.8419 N   0  0  0  0  0  0  0  0  0  0  0  0
   11.0252  -17.8828   21.2566 C   0  0  1  0  0  0  0  0  0  0  0  0
   12.4591  -18.3108   21.4901 C   0  0  0  0  0  0  0  0  0  0  0  0
   12.7680  -19.6459   20.9050 C   0  0  0  0  0  0  0  0  0  0  0  0
   14.1876  -19.9767   21.1441 C   0  0  0  0  0  0  0  0  0  0  0  0
   14.4743  -20.8887   21.9510 O   0  0  0  0  0  0  0  0  0  0  0  0
   10.7273  -16.6378   22.0035 C   0  0  0  0  0  0  0  0  0  0  0  0
   11.4100  -15.5911   21.8663 O   0  0  0  0  0  0  0  0  0  0  0  0
   15.2386  -19.3242   20.5156 O   0  0  0  0  0  0  0  0  0  0  0  0
    8.0620  -14.2746   21.8029 C   0  0  0  0  0  0  0  0  0  0  0  0
    7.9578  -14.7513   23.2400 C   0  0  1  0  0  0  0  0  0  0  0  0
    6.9326  -15.7272   23.2245 O   0  0  0  0  0  0  0  0  0  0  0  0
    9.2776  -15.3417   23.6118 C   0  0  2  0  0  0  0  0  0  0  0  0
    9.6521  -16.5234   22.9314 N   0  0  0  0  0  0  0  0  0  0  0  0
    9.2883  -15.5751   25.0651 C   0  0  0  0  0  0  0  0  0  0  0  0
    9.4953  -16.8281   25.5963 O   0  0  0  0  0  0  0  0  0  0  0  0
    9.1063  -14.6198   25.8403 O   0  0  0  0  0  0  0  0  0  0  0  0
  2  3  1  0
  2  1  1  0
  3  5  1  0
  3  4  1  1
  5  6  2  0
  7  8  1  0
  7  5  1  0
  8 13  1  0
  8  9  1  6
 10  9  1  0
 11 10  1  0
 12 11  2  0
 13 20  1  0
 13 14  2  0
 15 11  1  0
 17 18  1  0
 17 16  1  6
 19 17  1  0
 19 20  1  6
 21 22  1  0
 21 19  1  0
 23 21  2  0
M  END
$$$$
