SET.pdb
     RDKit          3D

 23 22  0  0  1  0  0  0  0  0999 V2000
    8.5712  -12.0336   20.1953 O   0  0  0  0  0  0  0  0  0  0  0  0
    7.7295  -12.6546   19.2660 C   0  0  0  0  0  0  0  0  0  0  0  0
    8.2479  -14.0420   18.9722 C   0  0  2  0  0  0  0  0  0  0  0  0
    7.3617  -14.6425   17.9974 N   0  0  0  0  0  0  0  0  0  0  0  0
    8.3209  -14.8937   20.1617 C   0  0  0  0  0  0  0  0  0  0  0  0
    7.2688  -15.3645   20.6610 O   0  0  0  0  0  0  0  0  0  0  0  0
    9.5555  -15.2181   20.7893 N   0  0  0  0  0  0  0  0  0  0  0  0
    9.6504  -16.0868   21.9402 C   0  0  1  0  0  0  0  0  0  0  0  0
   10.9557  -16.8545   21.9145 C   0  0  0  0  0  0  0  0  0  0  0  0
   11.0547  -17.8662   23.0039 C   0  0  0  0  0  0  0  0  0  0  0  0
   12.3688  -18.5378   22.9404 C   0  0  0  0  0  0  0  0  0  0  0  0
   12.4394  -19.6983   22.4787 O   0  0  0  0  0  0  0  0  0  0  0  0
    9.5133  -15.3393   23.2126 C   0  0  0  0  0  0  0  0  0  0  0  0
   10.2508  -14.3635   23.5026 O   0  0  0  0  0  0  0  0  0  0  0  0
   13.5484  -17.9468   23.3701 O   0  0  0  0  0  0  0  0  0  0  0  0
    6.8202  -13.2906   24.7605 C   0  0  0  0  0  0  0  0  0  0  0  0
    7.0468  -14.4290   25.7383 C   0  0  1  0  0  0  0  0  0  0  0  0
    6.0108  -15.3537   25.4640 O   0  0  0  0  0  0  0  0  0  0  0  0
    8.3932  -15.0053   25.4491 C   0  0  2  0  0  0  0  0  0  0  0  0
    8.5428  -15.6607   24.2051 N   0  0  0  0  0  0  0  0  0  0  0  0
    8.7508  -15.9210   26.5446 C   0  0  0  0  0  0  0  0  0  0  0  0
    8.8017  -15.4993   27.8541 O   0  0  0  0  0  0  0  0  0  0  0  0
    9.0153  -17.1088   26.2884 O   0  0  0  0  0  0  0  0  0  0  0  0
  2  3  1  0
  2  1  1  0
  3  5  1  0
  3  4  1  6
  5  6  2  0
  7  8  1  0
  7  5  1  0
  8 13  1  0
  8  9  1  1
 10  9  1  0
 11 10  1  0
 12 11  2  0
 13 20  1  0
 13 14  2  0
 15 11  1  0
 17 18  1  0
 17 16  1  6
 19 17  1  0
 19 20  1  6
 21 22  1  0
 21 19  1  0
 23 21  2  0
M  END
$$$$
