HYN.pdb
     RDKit          3D

 31 32  0  0  1  0  0  0  0  0999 V2000
    8.3028  -18.8453   18.5200 N   0  0  0  0  0  0  0  0  0  0  0  0
    9.5341  -18.1159   18.3859 C   0  0  1  0  0  0  0  0  0  0  0  0
    9.3908  -17.1470   17.2285 C   0  0  0  0  0  0  0  0  0  0  0  0
    9.0546  -17.9275   16.0035 C   0  0  0  0  0  0  0  0  0  0  0  0
    9.9580  -18.2114   14.9978 C   0  0  0  0  0  0  0  0  0  0  0  0
    9.2964  -18.9231   14.0760 N   0  0  0  0  0  0  0  0  0  0  0  0
    8.0256  -19.0758   14.4954 C   0  0  0  0  0  0  0  0  0  0  0  0
    7.8586  -18.4632   15.6919 N   0  0  0  0  0  0  0  0  0  0  0  0
    9.8493  -17.3876   19.6329 C   0  0  0  0  0  0  0  0  0  0  0  0
   10.9322  -16.7646   19.6865 O   0  0  0  0  0  0  0  0  0  0  0  0
    7.0820  -11.6777   18.7637 O   0  0  0  0  0  0  0  0  0  0  0  0
    7.3970  -12.6792   19.7022 C   0  0  0  0  0  0  0  0  0  0  0  0
    8.5068  -12.5697   20.5039 C   0  0  0  0  0  0  0  0  0  0  0  0
    8.8262  -13.5602   21.4351 C   0  0  0  0  0  0  0  0  0  0  0  0
    8.0627  -14.6732   21.5956 C   0  0  0  0  0  0  0  0  0  0  0  0
    8.3224  -15.7666   22.5624 C   0  0  0  0  0  0  0  0  0  0  0  0
    9.3013  -16.7894   22.0275 C   0  0  2  0  0  0  0  0  0  0  0  0
    8.9877  -17.3583   20.7711 N   0  0  0  0  0  0  0  0  0  0  0  0
    9.7273  -17.6932   23.0816 C   0  0  0  0  0  0  0  0  0  0  0  0
    8.8817  -18.5533   23.5011 O   0  0  0  0  0  0  0  0  0  0  0  0
    6.9332  -14.7634   20.7651 C   0  0  0  0  0  0  0  0  0  0  0  0
    6.6092  -13.7977   19.8476 C   0  0  0  0  0  0  0  0  0  0  0  0
   13.9807  -19.1544   22.2362 N   0  0  0  0  0  0  0  0  0  0  0  0
   13.0241  -19.6802   23.1734 C   0  0  0  0  0  0  0  0  0  0  0  0
   12.4132  -20.7111   22.8405 O   0  0  0  0  0  0  0  0  0  0  0  0
   12.8097  -19.0061   24.4373 C   0  0  0  0  0  0  0  0  0  0  0  0
   11.3944  -18.6712   24.7377 C   0  0  2  0  0  0  0  0  0  0  0  0
   11.0045  -17.6998   23.6785 N   0  0  0  0  0  0  0  0  0  0  0  0
   11.0931  -18.0742   26.0356 C   0  0  0  0  0  0  0  0  0  0  0  0
   10.8878  -16.8259   26.1145 O   0  0  0  0  0  0  0  0  0  0  0  0
   10.9974  -18.7512   27.2501 O   0  0  0  0  0  0  0  0  0  0  0  0
  2  1  1  1
  3  2  1  0
  3  4  1  0
  4  5  2  0
  5  6  1  0
  7  6  1  0
  8  4  1  0
  8  7  2  0
  9 18  1  0
  9  2  1  0
 10  9  2  0
 11 12  1  0
 12 13  2  0
 13 14  1  0
 15 16  1  0
 15 14  2  0
 17 16  1  1
 17 18  1  0
 19 17  1  0
 20 19  2  0
 21 15  1  0
 22 21  2  0
 22 12  1  0
 23 24  1  0
 24 25  2  0
 24 26  1  0
 27 26  1  1
 27 29  1  0
 27 28  1  0
 28 19  1  0
 29 31  1  0
 30 29  2  0
M  END
$$$$
