HYN.pdb
     RDKit          3D

 31 32  0  0  1  0  0  0  0  0999 V2000
   10.6074  -16.6825   18.7131 N   0  0  0  0  0  0  0  0  0  0  0  0
    9.2787  -16.4248   19.1968 C   0  0  1  0  0  0  0  0  0  0  0  0
    8.4678  -17.6992   19.0653 C   0  0  0  0  0  0  0  0  0  0  0  0
    7.9745  -17.7974   17.6618 C   0  0  0  0  0  0  0  0  0  0  0  0
    7.3875  -16.7520   16.9756 C   0  0  0  0  0  0  0  0  0  0  0  0
    7.0798  -17.2160   15.7574 N   0  0  0  0  0  0  0  0  0  0  0  0
    7.4630  -18.5055   15.6897 C   0  0  0  0  0  0  0  0  0  0  0  0
    8.0211  -18.8825   16.8650 N   0  0  0  0  0  0  0  0  0  0  0  0
    9.3121  -15.9772   20.6051 C   0  0  0  0  0  0  0  0  0  0  0  0
   10.1534  -16.5051   21.3650 O   0  0  0  0  0  0  0  0  0  0  0  0
    7.3126  -12.2686   28.4105 O   0  0  0  0  0  0  0  0  0  0  0  0
    7.3032  -12.5941   27.0405 C   0  0  0  0  0  0  0  0  0  0  0  0
    6.3382  -13.4210   26.5193 C   0  0  0  0  0  0  0  0  0  0  0  0
    6.3243  -13.7496   25.1621 C   0  0  0  0  0  0  0  0  0  0  0  0
    7.2553  -13.2727   24.2943 C   0  0  0  0  0  0  0  0  0  0  0  0
    7.3105  -13.5626   22.8415 C   0  0  0  0  0  0  0  0  0  0  0  0
    8.3478  -14.6109   22.5013 C   0  0  2  0  0  0  0  0  0  0  0  0
    8.4405  -14.9804   21.1391 N   0  0  0  0  0  0  0  0  0  0  0  0
    8.3386  -15.6806   23.4837 C   0  0  0  0  0  0  0  0  0  0  0  0
    7.3735  -16.5157   23.4401 O   0  0  0  0  0  0  0  0  0  0  0  0
    8.2319  -12.4292   24.8498 C   0  0  0  0  0  0  0  0  0  0  0  0
    8.2559  -12.0992   26.1802 C   0  0  0  0  0  0  0  0  0  0  0  0
    9.7486  -20.1582   25.6145 N   0  0  0  0  0  0  0  0  0  0  0  0
   10.7503  -19.1339   25.4829 C   0  0  0  0  0  0  0  0  0  0  0  0
   11.8525  -19.3480   26.0177 O   0  0  0  0  0  0  0  0  0  0  0  0
   10.4465  -17.9199   24.7537 C   0  0  0  0  0  0  0  0  0  0  0  0
    9.3618  -17.0913   25.3387 C   0  0  2  0  0  0  0  0  0  0  0  0
    9.3146  -15.8739   24.4826 N   0  0  0  0  0  0  0  0  0  0  0  0
    9.5000  -16.6650   26.7284 C   0  0  0  0  0  0  0  0  0  0  0  0
    9.5262  -17.5372   27.6478 O   0  0  0  0  0  0  0  0  0  0  0  0
    9.6155  -15.3509   27.1780 O   0  0  0  0  0  0  0  0  0  0  0  0
  2  1  1  1
  3  2  1  0
  3  4  1  0
  4  5  2  0
  5  6  1  0
  7  6  1  0
  8  4  1  0
  8  7  2  0
  9 18  1  0
  9  2  1  0
 10  9  2  0
 11 12  1  0
 12 13  2  0
 13 14  1  0
 15 16  1  0
 15 14  2  0
 17 16  1  6
 17 18  1  0
 19 17  1  0
 20 19  2  0
 21 15  1  0
 22 21  2  0
 22 12  1  0
 23 24  1  0
 24 25  2  0
 24 26  1  0
 27 26  1  6
 27 29  1  0
 27 28  1  0
 28 19  1  0
 29 31  1  0
 30 29  2  0
M  END
$$$$
