HYN.pdb
     RDKit          3D

 31 32  0  0  1  0  0  0  0  0999 V2000
   10.4833  -17.1238   19.4381 N   0  0  0  0  0  0  0  0  0  0  0  0
    9.2668  -17.2403   20.1947 C   0  0  1  0  0  0  0  0  0  0  0  0
    9.0775  -18.6965   20.5724 C   0  0  0  0  0  0  0  0  0  0  0  0
    8.6939  -19.4521   19.3457 C   0  0  0  0  0  0  0  0  0  0  0  0
    7.4292  -19.4307   18.7905 C   0  0  0  0  0  0  0  0  0  0  0  0
    7.4698  -20.2214   17.7102 N   0  0  0  0  0  0  0  0  0  0  0  0
    8.7173  -20.7167   17.5986 C   0  0  0  0  0  0  0  0  0  0  0  0
    9.4909  -20.2483   18.6071 N   0  0  0  0  0  0  0  0  0  0  0  0
    9.3214  -16.3956   21.4064 C   0  0  0  0  0  0  0  0  0  0  0  0
   10.3967  -16.3590   22.0438 O   0  0  0  0  0  0  0  0  0  0  0  0
    7.0709  -11.2953   28.3341 O   0  0  0  0  0  0  0  0  0  0  0  0
    7.0493  -11.9596   27.0926 C   0  0  0  0  0  0  0  0  0  0  0  0
    7.7336  -11.4575   26.0127 C   0  0  0  0  0  0  0  0  0  0  0  0
    7.7147  -12.1100   24.7783 C   0  0  0  0  0  0  0  0  0  0  0  0
    7.0255  -13.2651   24.5829 C   0  0  0  0  0  0  0  0  0  0  0  0
    6.9581  -14.0262   23.3124 C   0  0  0  0  0  0  0  0  0  0  0  0
    8.2095  -14.8392   23.0598 C   0  0  2  0  0  0  0  0  0  0  0  0
    8.2184  -15.6246   21.8835 N   0  0  0  0  0  0  0  0  0  0  0  0
    8.6699  -15.4679   24.2854 C   0  0  0  0  0  0  0  0  0  0  0  0
    8.8431  -14.7193   25.3054 O   0  0  0  0  0  0  0  0  0  0  0  0
    6.3336  -13.7596   25.7010 C   0  0  0  0  0  0  0  0  0  0  0  0
    6.3448  -13.1283   26.9179 C   0  0  0  0  0  0  0  0  0  0  0  0
    7.2535  -19.9191   27.6235 N   0  0  0  0  0  0  0  0  0  0  0  0
    7.9820  -18.6843   27.5038 C   0  0  0  0  0  0  0  0  0  0  0  0
    8.6351  -18.3140   28.4954 O   0  0  0  0  0  0  0  0  0  0  0  0
    7.9282  -17.9340   26.2661 C   0  0  0  0  0  0  0  0  0  0  0  0
    9.2423  -17.4607   25.7616 C   0  0  2  0  0  0  0  0  0  0  0  0
    8.9385  -16.8431   24.4412 N   0  0  0  0  0  0  0  0  0  0  0  0
   10.2981  -18.4507   25.5686 C   0  0  0  0  0  0  0  0  0  0  0  0
   10.8214  -19.0084   26.5793 O   0  0  0  0  0  0  0  0  0  0  0  0
   10.8156  -18.8733   24.3455 O   0  0  0  0  0  0  0  0  0  0  0  0
  2  1  1  1
  3  2  1  0
  3  4  1  0
  4  5  2  0
  5  6  1  0
  7  6  1  0
  8  4  1  0
  8  7  2  0
  9 18  1  0
  9  2  1  0
 10  9  2  0
 11 12  1  0
 12 13  2  0
 13 14  1  0
 15 16  1  0
 15 14  2  0
 17 16  1  1
 17 18  1  0
 19 17  1  0
 20 19  2  0
 21 15  1  0
 22 21  2  0
 22 12  1  0
 23 24  1  0
 24 25  2  0
 24 26  1  0
 27 26  1  6
 27 29  1  0
 27 28  1  0
 28 19  1  0
 29 31  1  0
 30 29  2  0
M  END
$$$$
