HYN.pdb
     RDKit          3D

 31 32  0  0  1  0  0  0  0  0999 V2000
   10.9377  -14.9875   19.9981 N   0  0  0  0  0  0  0  0  0  0  0  0
    9.8771  -14.6511   20.9081 C   0  0  1  0  0  0  0  0  0  0  0  0
    8.6061  -15.3248   20.4291 C   0  0  0  0  0  0  0  0  0  0  0  0
    8.0016  -14.4785   19.3609 C   0  0  0  0  0  0  0  0  0  0  0  0
    8.6165  -13.3677   18.8166 C   0  0  0  0  0  0  0  0  0  0  0  0
    7.7766  -12.8751   17.8968 N   0  0  0  0  0  0  0  0  0  0  0  0
    6.6780  -13.6538   17.8710 C   0  0  0  0  0  0  0  0  0  0  0  0
    6.8016  -14.6550   18.7749 N   0  0  0  0  0  0  0  0  0  0  0  0
   10.2073  -15.0881   22.2809 C   0  0  0  0  0  0  0  0  0  0  0  0
   11.1030  -15.9497   22.4191 O   0  0  0  0  0  0  0  0  0  0  0  0
   10.6317  -15.9416   31.0979 O   0  0  0  0  0  0  0  0  0  0  0  0
   10.2515  -15.5194   29.8093 C   0  0  0  0  0  0  0  0  0  0  0  0
   10.8608  -14.4430   29.2120 C   0  0  0  0  0  0  0  0  0  0  0  0
   10.4872  -14.0178   27.9355 C   0  0  0  0  0  0  0  0  0  0  0  0
    9.5111  -14.6410   27.2240 C   0  0  0  0  0  0  0  0  0  0  0  0
    9.0585  -14.2629   25.8639 C   0  0  0  0  0  0  0  0  0  0  0  0
    9.8270  -14.9853   24.7784 C   0  0  2  0  0  0  0  0  0  0  0  0
    9.5617  -14.5811   23.4491 N   0  0  0  0  0  0  0  0  0  0  0  0
    9.8742  -16.4122   25.0451 C   0  0  0  0  0  0  0  0  0  0  0  0
    8.7897  -17.0742   24.9171 O   0  0  0  0  0  0  0  0  0  0  0  0
    8.9024  -15.7389   27.8547 C   0  0  0  0  0  0  0  0  0  0  0  0
    9.2606  -16.1659   29.1073 C   0  0  0  0  0  0  0  0  0  0  0  0
    9.8668  -20.3284   23.8359 N   0  0  0  0  0  0  0  0  0  0  0  0
   11.2815  -20.0833   23.7442 C   0  0  0  0  0  0  0  0  0  0  0  0
   11.9033  -20.6841   22.8503 O   0  0  0  0  0  0  0  0  0  0  0  0
   11.9155  -19.1714   24.6739 C   0  0  0  0  0  0  0  0  0  0  0  0
   11.0116  -18.5928   25.7003 C   0  0  2  0  0  0  0  0  0  0  0  0
   11.0255  -17.1282   25.4317 N   0  0  0  0  0  0  0  0  0  0  0  0
   11.3498  -18.8007   27.1054 C   0  0  0  0  0  0  0  0  0  0  0  0
   12.1258  -17.9843   27.6867 O   0  0  0  0  0  0  0  0  0  0  0  0
   10.8932  -19.8380   27.9166 O   0  0  0  0  0  0  0  0  0  0  0  0
  2  1  1  6
  3  2  1  0
  3  4  1  0
  4  5  2  0
  5  6  1  0
  7  6  1  0
  8  4  1  0
  8  7  2  0
  9 18  1  0
  9  2  1  0
 10  9  2  0
 11 12  1  0
 12 13  2  0
 13 14  1  0
 15 16  1  0
 15 14  2  0
 17 16  1  1
 17 18  1  0
 19 17  1  0
 20 19  2  0
 21 15  1  0
 22 21  2  0
 22 12  1  0
 23 24  1  0
 24 25  2  0
 24 26  1  0
 27 26  1  6
 27 29  1  0
 27 28  1  0
 28 19  1  0
 29 31  1  0
 30 29  2  0
M  END
$$$$
