HYN.pdb
     RDKit          3D

 31 32  0  0  1  0  0  0  0  0999 V2000
   10.1145  -16.9479   18.8238 N   0  0  0  0  0  0  0  0  0  0  0  0
    8.9180  -16.9697   19.6199 C   0  0  1  0  0  0  0  0  0  0  0  0
    8.5430  -18.4160   19.8778 C   0  0  0  0  0  0  0  0  0  0  0  0
    8.0234  -18.9985   18.6076 C   0  0  0  0  0  0  0  0  0  0  0  0
    8.7632  -19.0977   17.4452 C   0  0  0  0  0  0  0  0  0  0  0  0
    7.9681  -19.6682   16.5306 N   0  0  0  0  0  0  0  0  0  0  0  0
    6.7755  -19.9148   17.1059 C   0  0  0  0  0  0  0  0  0  0  0  0
    6.7930  -19.5048   18.3968 N   0  0  0  0  0  0  0  0  0  0  0  0
    9.1258  -16.2547   20.8967 C   0  0  0  0  0  0  0  0  0  0  0  0
   10.2679  -16.2890   21.4051 O   0  0  0  0  0  0  0  0  0  0  0  0
    7.7464  -12.2127   28.6815 O   0  0  0  0  0  0  0  0  0  0  0  0
    7.5787  -12.6799   27.3636 C   0  0  0  0  0  0  0  0  0  0  0  0
    8.1990  -12.0543   26.3099 C   0  0  0  0  0  0  0  0  0  0  0  0
    8.0353  -12.5111   25.0004 C   0  0  0  0  0  0  0  0  0  0  0  0
    7.2616  -13.5883   24.7032 C   0  0  0  0  0  0  0  0  0  0  0  0
    7.0398  -14.1444   23.3469 C   0  0  0  0  0  0  0  0  0  0  0  0
    8.1691  -15.0487   22.9023 C   0  0  2  0  0  0  0  0  0  0  0  0
    8.0982  -15.5317   21.5748 N   0  0  0  0  0  0  0  0  0  0  0  0
    8.5017  -16.0051   23.9435 C   0  0  0  0  0  0  0  0  0  0  0  0
    7.7042  -16.9864   24.1222 O   0  0  0  0  0  0  0  0  0  0  0  0
    6.6374  -14.2118   25.7964 C   0  0  0  0  0  0  0  0  0  0  0  0
    6.7906  -13.7729   27.0862 C   0  0  0  0  0  0  0  0  0  0  0  0
   12.2830  -17.6002   23.0596 N   0  0  0  0  0  0  0  0  0  0  0  0
   11.4045  -18.1162   24.0755 C   0  0  0  0  0  0  0  0  0  0  0  0
   10.7321  -19.1214   23.7852 O   0  0  0  0  0  0  0  0  0  0  0  0
   11.3339  -17.4620   25.3658 C   0  0  0  0  0  0  0  0  0  0  0  0
    9.9793  -16.9998   25.7616 C   0  0  2  0  0  0  0  0  0  0  0  0
    9.6396  -15.9391   24.7732 N   0  0  0  0  0  0  0  0  0  0  0  0
    9.8101  -16.4440   27.1012 C   0  0  0  0  0  0  0  0  0  0  0  0
    9.9083  -15.1920   27.2732 O   0  0  0  0  0  0  0  0  0  0  0  0
    9.5370  -17.1649   28.2623 O   0  0  0  0  0  0  0  0  0  0  0  0
  2  1  1  6
  3  2  1  0
  3  4  1  0
  4  5  2  0
  5  6  1  0
  7  6  1  0
  8  4  1  0
  8  7  2  0
  9 18  1  0
  9  2  1  0
 10  9  2  0
 11 12  1  0
 12 13  2  0
 13 14  1  0
 15 16  1  0
 15 14  2  0
 17 16  1  1
 17 18  1  0
 19 17  1  0
 20 19  2  0
 21 15  1  0
 22 21  2  0
 22 12  1  0
 23 24  1  0
 24 25  2  0
 24 26  1  0
 27 26  1  6
 27 29  1  0
 27 28  1  0
 28 19  1  0
 29 31  1  0
 30 29  2  0
M  END
$$$$
