HYN.pdb
     RDKit          3D

 31 32  0  0  1  0  0  0  0  0999 V2000
   10.3390  -16.9976   18.9392 N   0  0  0  0  0  0  0  0  0  0  0  0
    9.0392  -16.8524   19.5353 C   0  0  1  0  0  0  0  0  0  0  0  0
    8.3889  -18.2205   19.6008 C   0  0  0  0  0  0  0  0  0  0  0  0
    7.7210  -18.4844   18.2942 C   0  0  0  0  0  0  0  0  0  0  0  0
    7.7678  -17.6221   17.2160 C   0  0  0  0  0  0  0  0  0  0  0  0
    7.0593  -18.1948   16.2342 N   0  0  0  0  0  0  0  0  0  0  0  0
    6.5888  -19.3726   16.6876 C   0  0  0  0  0  0  0  0  0  0  0  0
    6.9910  -19.5680   17.9662 N   0  0  0  0  0  0  0  0  0  0  0  0
    9.1463  -16.2665   20.8880 C   0  0  0  0  0  0  0  0  0  0  0  0
   10.1648  -16.5365   21.5615 O   0  0  0  0  0  0  0  0  0  0  0  0
    7.4919  -12.0668   28.5205 O   0  0  0  0  0  0  0  0  0  0  0  0
    7.3611  -12.5619   27.2086 C   0  0  0  0  0  0  0  0  0  0  0  0
    6.5146  -13.6074   26.9311 C   0  0  0  0  0  0  0  0  0  0  0  0
    6.3817  -14.1046   25.6330 C   0  0  0  0  0  0  0  0  0  0  0  0
    7.0759  -13.5848   24.5864 C   0  0  0  0  0  0  0  0  0  0  0  0
    6.9897  -14.0442   23.1795 C   0  0  0  0  0  0  0  0  0  0  0  0
    8.1255  -14.9717   22.8048 C   0  0  2  0  0  0  0  0  0  0  0  0
    8.1549  -15.4140   21.4616 N   0  0  0  0  0  0  0  0  0  0  0  0
    8.3383  -15.9678   23.8401 C   0  0  0  0  0  0  0  0  0  0  0  0
    7.4260  -16.8442   24.0144 O   0  0  0  0  0  0  0  0  0  0  0  0
    7.9351  -12.5167   24.8941 C   0  0  0  0  0  0  0  0  0  0  0  0
    8.0738  -12.0198   26.1642 C   0  0  0  0  0  0  0  0  0  0  0  0
   10.9343  -19.1328   23.0758 N   0  0  0  0  0  0  0  0  0  0  0  0
   10.2059  -18.9624   24.3048 C   0  0  0  0  0  0  0  0  0  0  0  0
    9.2000  -19.6748   24.4701 O   0  0  0  0  0  0  0  0  0  0  0  0
   10.6566  -17.9904   25.2794 C   0  0  0  0  0  0  0  0  0  0  0  0
    9.6106  -17.0520   25.7596 C   0  0  2  0  0  0  0  0  0  0  0  0
    9.4763  -16.0475   24.6685 N   0  0  0  0  0  0  0  0  0  0  0  0
    9.8543  -16.3365   27.0089 C   0  0  0  0  0  0  0  0  0  0  0  0
    9.9694  -16.9902   28.0887 O   0  0  0  0  0  0  0  0  0  0  0  0
    9.9844  -14.9566   27.1546 O   0  0  0  0  0  0  0  0  0  0  0  0
  2  1  1  1
  3  2  1  0
  3  4  1  0
  4  5  2  0
  5  6  1  0
  7  6  1  0
  8  4  1  0
  8  7  2  0
  9 18  1  0
  9  2  1  0
 10  9  2  0
 11 12  1  0
 12 13  2  0
 13 14  1  0
 15 16  1  0
 15 14  2  0
 17 16  1  1
 17 18  1  0
 19 17  1  0
 20 19  2  0
 21 15  1  0
 22 21  2  0
 22 12  1  0
 23 24  1  0
 24 25  2  0
 24 26  1  0
 27 26  1  6
 27 29  1  0
 27 28  1  0
 28 19  1  0
 29 31  1  0
 30 29  2  0
M  END
$$$$
