HYN.pdb
     RDKit          3D

 31 32  0  0  1  0  0  0  0  0999 V2000
    9.4334  -18.1063   20.4745 N   0  0  0  0  0  0  0  0  0  0  0  0
   10.5439  -17.3239   20.9441 C   0  0  1  0  0  0  0  0  0  0  0  0
   11.0347  -16.4579   19.8005 C   0  0  0  0  0  0  0  0  0  0  0  0
   11.0250  -17.2776   18.5551 C   0  0  0  0  0  0  0  0  0  0  0  0
   11.4882  -18.5770   18.4834 C   0  0  0  0  0  0  0  0  0  0  0  0
   11.3170  -18.9771   17.2167 N   0  0  0  0  0  0  0  0  0  0  0  0
   10.7662  -17.9606   16.5257 C   0  0  0  0  0  0  0  0  0  0  0  0
   10.5781  -16.8967   17.3428 N   0  0  0  0  0  0  0  0  0  0  0  0
   10.1436  -16.4841   22.0927 C   0  0  0  0  0  0  0  0  0  0  0  0
   11.0422  -15.8651   22.7037 O   0  0  0  0  0  0  0  0  0  0  0  0
    7.5772  -12.4603   18.0503 O   0  0  0  0  0  0  0  0  0  0  0  0
    7.4939  -12.9846   19.3546 C   0  0  0  0  0  0  0  0  0  0  0  0
    6.6989  -14.0708   19.6281 C   0  0  0  0  0  0  0  0  0  0  0  0
    6.6101  -14.5944   20.9196 C   0  0  0  0  0  0  0  0  0  0  0  0
    7.2994  -14.0623   21.9632 C   0  0  0  0  0  0  0  0  0  0  0  0
    7.2704  -14.5582   23.3600 C   0  0  0  0  0  0  0  0  0  0  0  0
    8.3662  -15.5645   23.6378 C   0  0  2  0  0  0  0  0  0  0  0  0
    8.7942  -16.3433   22.5374 N   0  0  0  0  0  0  0  0  0  0  0  0
    8.1220  -16.2572   24.8908 C   0  0  0  0  0  0  0  0  0  0  0  0
    7.6324  -15.5793   25.8560 O   0  0  0  0  0  0  0  0  0  0  0  0
    8.1056  -12.9526   21.6597 C   0  0  0  0  0  0  0  0  0  0  0  0
    8.2012  -12.4297   20.3960 C   0  0  0  0  0  0  0  0  0  0  0  0
    7.2198  -19.9209   28.5214 N   0  0  0  0  0  0  0  0  0  0  0  0
    6.9921  -20.3758   27.1756 C   0  0  0  0  0  0  0  0  0  0  0  0
    6.4642  -21.4934   27.0376 O   0  0  0  0  0  0  0  0  0  0  0  0
    7.3783  -19.5392   26.0582 C   0  0  0  0  0  0  0  0  0  0  0  0
    8.0845  -18.2860   26.4273 C   0  0  2  0  0  0  0  0  0  0  0  0
    8.3795  -17.6231   25.1270 N   0  0  0  0  0  0  0  0  0  0  0  0
    9.3342  -18.3992   27.1740 C   0  0  0  0  0  0  0  0  0  0  0  0
   10.4346  -18.4287   26.5457 O   0  0  0  0  0  0  0  0  0  0  0  0
    9.4601  -18.4778   28.5597 O   0  0  0  0  0  0  0  0  0  0  0  0
  2  1  1  6
  3  2  1  0
  3  4  1  0
  4  5  2  0
  5  6  1  0
  7  6  1  0
  8  4  1  0
  8  7  2  0
  9 18  1  0
  9  2  1  0
 10  9  2  0
 11 12  1  0
 12 13  2  0
 13 14  1  0
 15 16  1  0
 15 14  2  0
 17 16  1  6
 17 18  1  0
 19 17  1  0
 20 19  2  0
 21 15  1  0
 22 21  2  0
 22 12  1  0
 23 24  1  0
 24 25  2  0
 24 26  1  0
 27 26  1  6
 27 29  1  0
 27 28  1  0
 28 19  1  0
 29 31  1  0
 30 29  2  0
M  END
$$$$
