HYN.pdb
     RDKit          3D

 31 32  0  0  1  0  0  0  0  0999 V2000
    8.2199  -16.7137   19.2500 N   0  0  0  0  0  0  0  0  0  0  0  0
    9.1655  -15.6328   19.3078 C   0  0  1  0  0  0  0  0  0  0  0  0
    8.8088  -14.6288   18.2291 C   0  0  0  0  0  0  0  0  0  0  0  0
    8.8152  -15.3320   16.9144 C   0  0  0  0  0  0  0  0  0  0  0  0
    9.9327  -15.9304   16.3653 C   0  0  0  0  0  0  0  0  0  0  0  0
    9.5520  -16.4530   15.1923 N   0  0  0  0  0  0  0  0  0  0  0  0
    8.2428  -16.1880   15.0193 C   0  0  0  0  0  0  0  0  0  0  0  0
    7.7694  -15.4921   16.0807 N   0  0  0  0  0  0  0  0  0  0  0  0
    9.1448  -14.9900   20.6386 C   0  0  0  0  0  0  0  0  0  0  0  0
   10.0892  -14.2244   20.9312 O   0  0  0  0  0  0  0  0  0  0  0  0
    7.2723  -11.8695   28.6529 O   0  0  0  0  0  0  0  0  0  0  0  0
    7.1578  -12.4043   27.3552 C   0  0  0  0  0  0  0  0  0  0  0  0
    6.5049  -13.5930   27.1379 C   0  0  0  0  0  0  0  0  0  0  0  0
    6.3896  -14.1300   25.8540 C   0  0  0  0  0  0  0  0  0  0  0  0
    6.9118  -13.5102   24.7628 C   0  0  0  0  0  0  0  0  0  0  0  0
    6.8288  -14.0034   23.3673 C   0  0  0  0  0  0  0  0  0  0  0  0
    8.1009  -14.6920   22.9219 C   0  0  2  0  0  0  0  0  0  0  0  0
    8.1098  -15.1960   21.6004 N   0  0  0  0  0  0  0  0  0  0  0  0
    8.6098  -15.5589   23.9702 C   0  0  0  0  0  0  0  0  0  0  0  0
    8.6784  -15.0806   25.1522 O   0  0  0  0  0  0  0  0  0  0  0  0
    7.5747  -12.2964   25.0092 C   0  0  0  0  0  0  0  0  0  0  0  0
    7.6942  -11.7591   26.2648 C   0  0  0  0  0  0  0  0  0  0  0  0
    6.7467  -17.7088   24.9680 N   0  0  0  0  0  0  0  0  0  0  0  0
    7.4007  -18.9764   24.7803 C   0  0  0  0  0  0  0  0  0  0  0  0
    6.6722  -19.9782   24.6689 O   0  0  0  0  0  0  0  0  0  0  0  0
    8.8469  -19.0398   24.7318 C   0  0  0  0  0  0  0  0  0  0  0  0
    9.5381  -17.7369   24.9045 C   0  0  2  0  0  0  0  0  0  0  0  0
    9.0323  -16.8915   23.7878 N   0  0  0  0  0  0  0  0  0  0  0  0
   10.9975  -17.7251   24.8588 C   0  0  0  0  0  0  0  0  0  0  0  0
   11.5845  -17.4076   23.7812 O   0  0  0  0  0  0  0  0  0  0  0  0
   11.8559  -18.0328   25.9129 O   0  0  0  0  0  0  0  0  0  0  0  0
  2  1  1  1
  3  2  1  0
  3  4  1  0
  4  5  2  0
  5  6  1  0
  7  6  1  0
  8  4  1  0
  8  7  2  0
  9 18  1  0
  9  2  1  0
 10  9  2  0
 11 12  1  0
 12 13  2  0
 13 14  1  0
 15 16  1  0
 15 14  2  0
 17 16  1  1
 17 18  1  0
 19 17  1  0
 20 19  2  0
 21 15  1  0
 22 21  2  0
 22 12  1  0
 23 24  1  0
 24 25  2  0
 24 26  1  0
 27 26  1  6
 27 29  1  0
 27 28  1  0
 28 19  1  0
 29 31  1  0
 30 29  2  0
M  END
$$$$
