HYN.pdb
     RDKit          3D

 31 32  0  0  1  0  0  0  0  0999 V2000
   10.5801  -16.9302   19.1505 N   0  0  0  0  0  0  0  0  0  0  0  0
    9.2898  -16.8945   19.7829 C   0  0  1  0  0  0  0  0  0  0  0  0
    8.7950  -18.3193   19.9378 C   0  0  0  0  0  0  0  0  0  0  0  0
    8.3552  -18.8101   18.6003 C   0  0  0  0  0  0  0  0  0  0  0  0
    7.3483  -18.2254   17.8571 C   0  0  0  0  0  0  0  0  0  0  0  0
    7.2415  -18.9366   16.7272 N   0  0  0  0  0  0  0  0  0  0  0  0
    8.1513  -19.9290   16.7678 C   0  0  0  0  0  0  0  0  0  0  0  0
    8.8520  -19.8646   17.9252 N   0  0  0  0  0  0  0  0  0  0  0  0
    9.3713  -16.2302   21.1007 C   0  0  0  0  0  0  0  0  0  0  0  0
   10.3467  -16.5056   21.8333 O   0  0  0  0  0  0  0  0  0  0  0  0
    7.0808  -12.0189   28.5964 O   0  0  0  0  0  0  0  0  0  0  0  0
    7.1318  -12.4390   27.2532 C   0  0  0  0  0  0  0  0  0  0  0  0
    8.1241  -11.9956   26.4134 C   0  0  0  0  0  0  0  0  0  0  0  0
    8.1794  -12.4065   25.0799 C   0  0  0  0  0  0  0  0  0  0  0  0
    7.2635  -13.2588   24.5487 C   0  0  0  0  0  0  0  0  0  0  0  0
    7.2516  -13.7518   23.1507 C   0  0  0  0  0  0  0  0  0  0  0  0
    8.3348  -14.7763   22.8908 C   0  0  2  0  0  0  0  0  0  0  0  0
    8.4015  -15.2969   21.5774 N   0  0  0  0  0  0  0  0  0  0  0  0
    8.4208  -15.7229   23.9890 C   0  0  0  0  0  0  0  0  0  0  0  0
    7.4245  -16.4983   24.1811 O   0  0  0  0  0  0  0  0  0  0  0  0
    6.2585  -13.6990   25.4261 C   0  0  0  0  0  0  0  0  0  0  0  0
    6.1938  -13.3029   26.7370 C   0  0  0  0  0  0  0  0  0  0  0  0
    9.6086  -19.4784   24.1894 N   0  0  0  0  0  0  0  0  0  0  0  0
   10.6296  -18.4725   24.3139 C   0  0  0  0  0  0  0  0  0  0  0  0
   11.3645  -18.2868   23.3278 O   0  0  0  0  0  0  0  0  0  0  0  0
   10.7641  -17.7329   25.5519 C   0  0  0  0  0  0  0  0  0  0  0  0
    9.5879  -16.9036   25.9182 C   0  0  2  0  0  0  0  0  0  0  0  0
    9.5207  -15.8576   24.8606 N   0  0  0  0  0  0  0  0  0  0  0  0
    9.5984  -16.2370   27.2173 C   0  0  0  0  0  0  0  0  0  0  0  0
    9.8680  -15.0001   27.2804 O   0  0  0  0  0  0  0  0  0  0  0  0
    9.3301  -16.8313   28.4490 O   0  0  0  0  0  0  0  0  0  0  0  0
  2  1  1  1
  3  2  1  0
  3  4  1  0
  4  5  2  0
  5  6  1  0
  7  6  1  0
  8  4  1  0
  8  7  2  0
  9 18  1  0
  9  2  1  0
 10  9  2  0
 11 12  1  0
 12 13  2  0
 13 14  1  0
 15 16  1  0
 15 14  2  0
 17 16  1  6
 17 18  1  0
 19 17  1  0
 20 19  2  0
 21 15  1  0
 22 21  2  0
 22 12  1  0
 23 24  1  0
 24 25  2  0
 24 26  1  0
 27 26  1  6
 27 29  1  0
 27 28  1  0
 28 19  1  0
 29 31  1  0
 30 29  2  0
M  END
$$$$
