HYN.pdb
     RDKit          3D

 31 32  0  0  1  0  0  0  0  0999 V2000
   10.7950  -16.8972   18.9906 N   0  0  0  0  0  0  0  0  0  0  0  0
    9.4796  -16.8605   19.5690 C   0  0  1  0  0  0  0  0  0  0  0  0
    8.9670  -18.2832   19.6788 C   0  0  0  0  0  0  0  0  0  0  0  0
    8.6041  -18.7568   18.3124 C   0  0  0  0  0  0  0  0  0  0  0  0
    8.2726  -17.9161   17.2675 C   0  0  0  0  0  0  0  0  0  0  0  0
    8.0116  -18.6985   16.2122 N   0  0  0  0  0  0  0  0  0  0  0  0
    8.1757  -19.9811   16.5893 C   0  0  0  0  0  0  0  0  0  0  0  0
    8.5441  -20.0350   17.8916 N   0  0  0  0  0  0  0  0  0  0  0  0
    9.5111  -16.2189   20.9001 C   0  0  0  0  0  0  0  0  0  0  0  0
   10.4890  -16.4608   21.6411 O   0  0  0  0  0  0  0  0  0  0  0  0
    7.0672  -12.1042   28.3949 O   0  0  0  0  0  0  0  0  0  0  0  0
    7.1014  -12.5591   27.0627 C   0  0  0  0  0  0  0  0  0  0  0  0
    7.9195  -11.9620   26.1349 C   0  0  0  0  0  0  0  0  0  0  0  0
    7.9567  -12.4067   24.8117 C   0  0  0  0  0  0  0  0  0  0  0  0
    7.1933  -13.4439   24.3770 C   0  0  0  0  0  0  0  0  0  0  0  0
    7.1765  -13.9848   22.9969 C   0  0  0  0  0  0  0  0  0  0  0  0
    8.3809  -14.8530   22.7027 C   0  0  2  0  0  0  0  0  0  0  0  0
    8.4906  -15.3435   21.3806 N   0  0  0  0  0  0  0  0  0  0  0  0
    8.6129  -15.7935   23.7848 C   0  0  0  0  0  0  0  0  0  0  0  0
    7.8043  -16.7753   23.8989 O   0  0  0  0  0  0  0  0  0  0  0  0
    6.3649  -14.0388   25.3431 C   0  0  0  0  0  0  0  0  0  0  0  0
    6.3197  -13.6114   26.6449 C   0  0  0  0  0  0  0  0  0  0  0  0
    9.9044  -18.8600   23.9184 N   0  0  0  0  0  0  0  0  0  0  0  0
   11.1734  -18.4257   24.4390 C   0  0  0  0  0  0  0  0  0  0  0  0
   12.1861  -19.0221   24.0324 O   0  0  0  0  0  0  0  0  0  0  0  0
   11.2249  -17.3394   25.3956 C   0  0  0  0  0  0  0  0  0  0  0  0
    9.9072  -16.7557   25.7538 C   0  0  2  0  0  0  0  0  0  0  0  0
    9.6645  -15.7116   24.7202 N   0  0  0  0  0  0  0  0  0  0  0  0
    9.7680  -16.1355   27.0683 C   0  0  0  0  0  0  0  0  0  0  0  0
    9.6008  -16.8688   28.0885 O   0  0  0  0  0  0  0  0  0  0  0  0
    9.8037  -14.7692   27.3410 O   0  0  0  0  0  0  0  0  0  0  0  0
  2  1  1  1
  3  2  1  0
  3  4  1  0
  4  5  2  0
  5  6  1  0
  7  6  1  0
  8  4  1  0
  8  7  2  0
  9 18  1  0
  9  2  1  0
 10  9  2  0
 11 12  1  0
 12 13  2  0
 13 14  1  0
 15 16  1  0
 15 14  2  0
 17 16  1  1
 17 18  1  0
 19 17  1  0
 20 19  2  0
 21 15  1  0
 22 21  2  0
 22 12  1  0
 23 24  1  0
 24 25  2  0
 24 26  1  0
 27 26  1  6
 27 29  1  0
 27 28  1  0
 28 19  1  0
 29 31  1  0
 30 29  2  0
M  END
$$$$
