HYN.pdb
     RDKit          3D

 31 32  0  0  1  0  0  0  0  0999 V2000
   10.5255  -16.9231   19.1801 N   0  0  0  0  0  0  0  0  0  0  0  0
    9.2164  -16.8554   19.7698 C   0  0  1  0  0  0  0  0  0  0  0  0
    8.6443  -18.2585   19.8234 C   0  0  0  0  0  0  0  0  0  0  0  0
    8.2888  -18.6724   18.4358 C   0  0  0  0  0  0  0  0  0  0  0  0
    7.1674  -18.2289   17.7621 C   0  0  0  0  0  0  0  0  0  0  0  0
    7.1876  -18.8113   16.5561 N   0  0  0  0  0  0  0  0  0  0  0  0
    8.2845  -19.5897   16.4838 C   0  0  0  0  0  0  0  0  0  0  0  0
    8.9800  -19.5146   17.6437 N   0  0  0  0  0  0  0  0  0  0  0  0
    9.2833  -16.2731   21.1267 C   0  0  0  0  0  0  0  0  0  0  0  0
   10.1572  -16.7108   21.9068 O   0  0  0  0  0  0  0  0  0  0  0  0
    7.2504  -12.0539   28.6597 O   0  0  0  0  0  0  0  0  0  0  0  0
    7.2505  -12.4658   27.3130 C   0  0  0  0  0  0  0  0  0  0  0  0
    6.2758  -13.3062   26.8331 C   0  0  0  0  0  0  0  0  0  0  0  0
    6.2712  -13.7201   25.4994 C   0  0  0  0  0  0  0  0  0  0  0  0
    7.2212  -13.3167   24.6151 C   0  0  0  0  0  0  0  0  0  0  0  0
    7.2875  -13.6994   23.1844 C   0  0  0  0  0  0  0  0  0  0  0  0
    8.3036  -14.7909   22.9255 C   0  0  2  0  0  0  0  0  0  0  0  0
    8.4086  -15.2439   21.5897 N   0  0  0  0  0  0  0  0  0  0  0  0
    8.2520  -15.7990   23.9699 C   0  0  0  0  0  0  0  0  0  0  0  0
    7.1661  -16.4577   24.1033 O   0  0  0  0  0  0  0  0  0  0  0  0
    8.2074  -12.4578   25.1283 C   0  0  0  0  0  0  0  0  0  0  0  0
    8.2225  -12.0443   26.4353 C   0  0  0  0  0  0  0  0  0  0  0  0
   11.8033  -17.1513   24.9434 N   0  0  0  0  0  0  0  0  0  0  0  0
   11.0378  -18.3643   24.8313 C   0  0  0  0  0  0  0  0  0  0  0  0
   11.6067  -19.3479   24.3257 O   0  0  0  0  0  0  0  0  0  0  0  0
    9.6665  -18.3954   25.2965 C   0  0  0  0  0  0  0  0  0  0  0  0
    9.1877  -17.1368   25.9226 C   0  0  2  0  0  0  0  0  0  0  0  0
    9.3089  -16.1123   24.8487 N   0  0  0  0  0  0  0  0  0  0  0  0
    9.8961  -16.6462   27.1013 C   0  0  0  0  0  0  0  0  0  0  0  0
    9.9108  -17.3485   28.1564 O   0  0  0  0  0  0  0  0  0  0  0  0
   10.5916  -15.4426   27.2012 O   0  0  0  0  0  0  0  0  0  0  0  0
  2  1  1  1
  3  2  1  0
  3  4  1  0
  4  5  2  0
  5  6  1  0
  7  6  1  0
  8  4  1  0
  8  7  2  0
  9 18  1  0
  9  2  1  0
 10  9  2  0
 11 12  1  0
 12 13  2  0
 13 14  1  0
 15 16  1  0
 15 14  2  0
 17 16  1  6
 17 18  1  0
 19 17  1  0
 20 19  2  0
 21 15  1  0
 22 21  2  0
 22 12  1  0
 23 24  1  0
 24 25  2  0
 24 26  1  0
 27 26  1  6
 27 29  1  0
 27 28  1  0
 28 19  1  0
 29 31  1  0
 30 29  2  0
M  END
$$$$
