HYN.pdb
     RDKit          3D

 31 32  0  0  1  0  0  0  0  0999 V2000
    8.5701  -17.8126   19.2228 N   0  0  0  0  0  0  0  0  0  0  0  0
    9.8654  -17.2911   19.5636 C   0  0  1  0  0  0  0  0  0  0  0  0
   10.3683  -16.4631   18.3972 C   0  0  0  0  0  0  0  0  0  0  0  0
   10.4050  -17.3332   17.1869 C   0  0  0  0  0  0  0  0  0  0  0  0
    9.4675  -18.3092   16.9100 C   0  0  0  0  0  0  0  0  0  0  0  0
    9.8301  -18.8730   15.7504 N   0  0  0  0  0  0  0  0  0  0  0  0
   10.9544  -18.2674   15.3222 C   0  0  0  0  0  0  0  0  0  0  0  0
   11.3251  -17.3077   16.2034 N   0  0  0  0  0  0  0  0  0  0  0  0
    9.7919  -16.4666   20.7881 C   0  0  0  0  0  0  0  0  0  0  0  0
   10.8676  -16.0943   21.3060 O   0  0  0  0  0  0  0  0  0  0  0  0
    7.1452  -11.8962   27.8961 O   0  0  0  0  0  0  0  0  0  0  0  0
    7.1541  -12.5634   26.6560 C   0  0  0  0  0  0  0  0  0  0  0  0
    6.5253  -13.7749   26.5030 C   0  0  0  0  0  0  0  0  0  0  0  0
    6.5320  -14.4429   25.2767 C   0  0  0  0  0  0  0  0  0  0  0  0
    7.1547  -13.9339   24.1810 C   0  0  0  0  0  0  0  0  0  0  0  0
    7.2042  -14.5696   22.8426 C   0  0  0  0  0  0  0  0  0  0  0  0
    8.4438  -15.4168   22.6516 C   0  0  2  0  0  0  0  0  0  0  0  0
    8.5655  -16.0756   21.4059 N   0  0  0  0  0  0  0  0  0  0  0  0
    8.7252  -16.1923   23.8470 C   0  0  0  0  0  0  0  0  0  0  0  0
    7.9246  -17.1439   24.1370 O   0  0  0  0  0  0  0  0  0  0  0  0
    7.7908  -12.6944   24.3611 C   0  0  0  0  0  0  0  0  0  0  0  0
    7.7908  -12.0289   25.5598 C   0  0  0  0  0  0  0  0  0  0  0  0
   11.4875  -19.0152   27.1790 N   0  0  0  0  0  0  0  0  0  0  0  0
   12.2833  -18.2740   26.2370 C   0  0  0  0  0  0  0  0  0  0  0  0
   13.4781  -18.6006   26.1248 O   0  0  0  0  0  0  0  0  0  0  0  0
   11.6812  -17.1997   25.4745 C   0  0  0  0  0  0  0  0  0  0  0  0
   10.2371  -16.9757   25.7388 C   0  0  2  0  0  0  0  0  0  0  0  0
    9.8168  -15.9806   24.7138 N   0  0  0  0  0  0  0  0  0  0  0  0
    9.8527  -16.4660   27.0519 C   0  0  0  0  0  0  0  0  0  0  0  0
    9.9677  -15.2279   27.2977 O   0  0  0  0  0  0  0  0  0  0  0  0
    9.3478  -17.2186   28.1108 O   0  0  0  0  0  0  0  0  0  0  0  0
  2  1  1  6
  3  2  1  0
  3  4  1  0
  4  5  2  0
  5  6  1  0
  7  6  1  0
  8  4  1  0
  8  7  2  0
  9 18  1  0
  9  2  1  0
 10  9  2  0
 11 12  1  0
 12 13  2  0
 13 14  1  0
 15 16  1  0
 15 14  2  0
 17 16  1  1
 17 18  1  0
 19 17  1  0
 20 19  2  0
 21 15  1  0
 22 21  2  0
 22 12  1  0
 23 24  1  0
 24 25  2  0
 24 26  1  0
 27 26  1  1
 27 29  1  0
 27 28  1  0
 28 19  1  0
 29 31  1  0
 30 29  2  0
M  END
$$$$
