HYN.pdb
     RDKit          3D

 31 32  0  0  1  0  0  0  0  0999 V2000
   10.1701  -14.5016   20.9597 N   0  0  0  0  0  0  0  0  0  0  0  0
    8.8590  -14.6321   21.5342 C   0  0  1  0  0  0  0  0  0  0  0  0
    8.0441  -15.5619   20.6565 C   0  0  0  0  0  0  0  0  0  0  0  0
    7.8751  -14.9179   19.3225 C   0  0  0  0  0  0  0  0  0  0  0  0
    7.7722  -13.5536   19.1322 C   0  0  0  0  0  0  0  0  0  0  0  0
    7.6333  -13.3583   17.8144 N   0  0  0  0  0  0  0  0  0  0  0  0
    7.6496  -14.5606   17.2075 C   0  0  0  0  0  0  0  0  0  0  0  0
    7.7993  -15.5406   18.1304 N   0  0  0  0  0  0  0  0  0  0  0  0
    8.9416  -15.1626   22.9113 C   0  0  0  0  0  0  0  0  0  0  0  0
   10.0245  -15.6703   23.2766 O   0  0  0  0  0  0  0  0  0  0  0  0
    6.8009   -9.7146   27.1910 O   0  0  0  0  0  0  0  0  0  0  0  0
    6.7694  -11.0924   26.9015 C   0  0  0  0  0  0  0  0  0  0  0  0
    5.7775  -11.6246   26.1144 C   0  0  0  0  0  0  0  0  0  0  0  0
    5.7391  -12.9902   25.8252 C   0  0  0  0  0  0  0  0  0  0  0  0
    6.6722  -13.8557   26.3024 C   0  0  0  0  0  0  0  0  0  0  0  0
    6.7122  -15.3140   26.0391 C   0  0  0  0  0  0  0  0  0  0  0  0
    7.8571  -15.7051   25.1298 C   0  0  2  0  0  0  0  0  0  0  0  0
    7.8574  -15.1255   23.8396 N   0  0  0  0  0  0  0  0  0  0  0  0
    8.1222  -17.1301   25.2212 C   0  0  0  0  0  0  0  0  0  0  0  0
    7.5057  -17.8998   24.4098 O   0  0  0  0  0  0  0  0  0  0  0  0
    7.6765  -13.2889   27.1048 C   0  0  0  0  0  0  0  0  0  0  0  0
    7.7250  -11.9500   27.3955 C   0  0  0  0  0  0  0  0  0  0  0  0
   10.6767  -20.0177   22.3614 N   0  0  0  0  0  0  0  0  0  0  0  0
   10.1508  -20.0758   23.6993 C   0  0  0  0  0  0  0  0  0  0  0  0
    9.5715  -21.1239   24.0348 O   0  0  0  0  0  0  0  0  0  0  0  0
   10.3081  -18.9401   24.5843 C   0  0  0  0  0  0  0  0  0  0  0  0
    9.6265  -19.0687   25.8974 C   0  0  2  0  0  0  0  0  0  0  0  0
    9.0108  -17.7337   26.1343 N   0  0  0  0  0  0  0  0  0  0  0  0
   10.4411  -19.4068   27.0610 C   0  0  0  0  0  0  0  0  0  0  0  0
   10.2473  -20.5078   27.6584 O   0  0  0  0  0  0  0  0  0  0  0  0
   11.4546  -18.6240   27.6111 O   0  0  0  0  0  0  0  0  0  0  0  0
  2  1  1  6
  3  2  1  0
  3  4  1  0
  4  5  2  0
  5  6  1  0
  7  6  1  0
  8  4  1  0
  8  7  2  0
  9 18  1  0
  9  2  1  0
 10  9  2  0
 11 12  1  0
 12 13  2  0
 13 14  1  0
 15 16  1  0
 15 14  2  0
 17 16  1  6
 17 18  1  0
 19 17  1  0
 20 19  2  0
 21 15  1  0
 22 21  2  0
 22 12  1  0
 23 24  1  0
 24 25  2  0
 24 26  1  0
 27 26  1  6
 27 29  1  0
 27 28  1  0
 28 19  1  0
 29 31  1  0
 30 29  2  0
M  END
$$$$
