INK.pdb
     RDKit          3D

 26 25  0  0  1  0  0  0  0  0999 V2000
    6.8838  -11.7460   27.8139 C   0  0  0  0  0  0  0  0  0  0  0  0
    6.2229  -12.6073   26.7944 C   0  0  0  0  0  0  0  0  0  0  0  0
    7.1805  -13.4568   25.9895 C   0  0  2  0  0  0  0  0  0  0  0  0
    8.2081  -12.6603   25.2498 C   0  0  0  0  0  0  0  0  0  0  0  0
    6.3476  -14.3320   25.0274 C   0  0  2  0  0  0  0  0  0  0  0  0
    5.4385  -15.1569   25.7707 N   0  0  0  0  0  0  0  0  0  0  0  0
    7.3214  -15.1710   24.2705 C   0  0  0  0  0  0  0  0  0  0  0  0
    7.7235  -16.2764   24.6647 O   0  0  0  0  0  0  0  0  0  0  0  0
    7.5853  -13.2286   19.5862 N   0  0  0  0  0  0  0  0  0  0  0  0
    7.9329  -14.4979   20.1146 C   0  0  0  0  0  0  0  0  0  0  0  0
    7.1733  -15.4672   19.8287 O   0  0  0  0  0  0  0  0  0  0  0  0
    9.1364  -14.6738   20.9651 C   0  0  0  0  0  0  0  0  0  0  0  0
    8.8078  -15.3556   22.2690 C   0  0  2  0  0  0  0  0  0  0  0  0
    7.8173  -14.6885   23.0366 N   0  0  0  0  0  0  0  0  0  0  0  0
   10.0946  -15.5334   23.0001 C   0  0  0  0  0  0  0  0  0  0  0  0
   10.6733  -14.5117   23.4633 O   0  0  0  0  0  0  0  0  0  0  0  0
   10.5617  -16.8583   23.1132 N   0  0  0  0  0  0  0  0  0  0  0  0
   11.7827  -17.1255   23.9448 C   0  0  1  0  0  0  0  0  0  0  0  0
   11.5653  -18.4726   24.4809 C   0  0  0  0  0  0  0  0  0  0  0  0
   12.5384  -19.2363   25.2518 C   0  0  0  0  0  0  0  0  0  0  0  0
   12.1382  -20.5470   25.8151 C   0  0  0  0  0  0  0  0  0  0  0  0
   13.3612  -21.1778   26.5436 C   0  0  0  0  0  0  0  0  0  0  0  0
   12.9896  -22.4915   26.9854 N   0  0  0  0  0  0  0  0  0  0  0  0
   12.8925  -16.7744   23.0862 C   0  0  0  0  0  0  0  0  0  0  0  0
   14.0128  -16.3079   23.4432 O   0  0  0  0  0  0  0  0  0  0  0  0
   12.8200  -16.9283   21.6738 O   0  0  0  0  0  0  0  0  0  0  0  0
  2  1  1  0
  3  2  1  0
  3  4  1  6
  5  3  1  0
  5  6  1  1
  7  5  1  0
  7  8  2  0
  9 10  1  0
 10 11  2  0
 12 10  1  0
 13 12  1  6
 13 14  1  0
 14  7  1  0
 15 13  1  0
 16 15  2  0
 17 15  1  0
 18 17  1  0
 18 24  1  0
 18 19  1  6
 20 19  1  0
 21 20  1  0
 22 21  1  0
 23 22  1  0
 24 26  1  0
 25 24  2  0
M  END
$$$$
