INK.pdb
     RDKit          3D

 26 25  0  0  1  0  0  0  0  0999 V2000
    7.5129  -11.7720   20.1991 C   0  0  0  0  0  0  0  0  0  0  0  0
    7.4457  -13.1186   19.5667 C   0  0  0  0  0  0  0  0  0  0  0  0
    8.4081  -14.1256   20.1552 C   0  0  2  0  0  0  0  0  0  0  0  0
    9.8392  -13.6964   20.0832 C   0  0  0  0  0  0  0  0  0  0  0  0
    8.1880  -15.4731   19.4332 C   0  0  2  0  0  0  0  0  0  0  0  0
    6.8060  -15.8532   19.5056 N   0  0  0  0  0  0  0  0  0  0  0  0
    9.0463  -16.4720   20.1337 C   0  0  0  0  0  0  0  0  0  0  0  0
    8.6344  -17.2118   21.0405 O   0  0  0  0  0  0  0  0  0  0  0  0
   14.1176  -19.5468   18.8267 N   0  0  0  0  0  0  0  0  0  0  0  0
   12.7826  -19.4596   19.2969 C   0  0  0  0  0  0  0  0  0  0  0  0
   12.3853  -20.3757   20.0724 O   0  0  0  0  0  0  0  0  0  0  0  0
   11.8960  -18.3401   18.8925 C   0  0  0  0  0  0  0  0  0  0  0  0
   11.2235  -17.6993   20.0798 C   0  0  2  0  0  0  0  0  0  0  0  0
   10.4028  -16.5890   19.7496 N   0  0  0  0  0  0  0  0  0  0  0  0
   12.2986  -17.3635   21.0562 C   0  0  0  0  0  0  0  0  0  0  0  0
   13.2226  -18.2013   21.2505 O   0  0  0  0  0  0  0  0  0  0  0  0
   12.1862  -16.1099   21.6903 N   0  0  0  0  0  0  0  0  0  0  0  0
   12.7535  -15.9447   23.0705 C   0  0  1  0  0  0  0  0  0  0  0  0
   11.8729  -16.7517   23.9205 C   0  0  0  0  0  0  0  0  0  0  0  0
   12.2009  -17.2231   25.2602 C   0  0  0  0  0  0  0  0  0  0  0  0
   11.3162  -18.2209   25.9063 C   0  0  0  0  0  0  0  0  0  0  0  0
   11.8144  -18.4706   27.3601 C   0  0  0  0  0  0  0  0  0  0  0  0
   10.9650  -19.4594   27.9602 N   0  0  0  0  0  0  0  0  0  0  0  0
   14.1692  -16.1973   22.9154 C   0  0  0  0  0  0  0  0  0  0  0  0
   14.7149  -16.9939   22.0982 O   0  0  0  0  0  0  0  0  0  0  0  0
   15.1373  -15.5341   23.7197 O   0  0  0  0  0  0  0  0  0  0  0  0
  2  1  1  0
  3  2  1  0
  3  4  1  6
  5  3  1  0
  5  6  1  1
  7  5  1  0
  7  8  2  0
  9 10  1  0
 10 11  2  0
 12 10  1  0
 13 12  1  6
 13 14  1  0
 14  7  1  0
 15 13  1  0
 16 15  2  0
 17 15  1  0
 18 17  1  0
 18 24  1  0
 18 19  1  1
 20 19  1  0
 21 20  1  0
 22 21  1  0
 23 22  1  0
 24 26  1  0
 25 24  2  0
M  END
$$$$
