INK.pdb
     RDKit          3D

 26 25  0  0  1  0  0  0  0  0999 V2000
    7.4748  -11.8087   20.2126 C   0  0  0  0  0  0  0  0  0  0  0  0
    7.4202  -13.2970   20.2144 C   0  0  0  0  0  0  0  0  0  0  0  0
    7.9226  -13.9315   21.4918 C   0  0  2  0  0  0  0  0  0  0  0  0
    9.3343  -13.5659   21.8249 C   0  0  0  0  0  0  0  0  0  0  0  0
    7.7533  -15.4612   21.3623 C   0  0  2  0  0  0  0  0  0  0  0  0
    6.3780  -15.7875   21.1141 N   0  0  0  0  0  0  0  0  0  0  0  0
    8.2083  -16.0469   22.6565 C   0  0  0  0  0  0  0  0  0  0  0  0
    7.5067  -16.0744   23.6793 O   0  0  0  0  0  0  0  0  0  0  0  0
   12.8360  -19.5470   24.9518 N   0  0  0  0  0  0  0  0  0  0  0  0
   11.5735  -18.9138   24.8241 C   0  0  0  0  0  0  0  0  0  0  0  0
   10.7338  -19.1143   25.7477 O   0  0  0  0  0  0  0  0  0  0  0  0
   11.2581  -18.0554   23.6552 C   0  0  0  0  0  0  0  0  0  0  0  0
   10.0483  -17.1907   23.9037 C   0  0  2  0  0  0  0  0  0  0  0  0
    9.5069  -16.6032   22.7302 N   0  0  0  0  0  0  0  0  0  0  0  0
   10.4384  -16.1876   24.9349 C   0  0  0  0  0  0  0  0  0  0  0  0
   11.3917  -15.3996   24.6821 O   0  0  0  0  0  0  0  0  0  0  0  0
    9.6899  -16.2073   26.1288 N   0  0  0  0  0  0  0  0  0  0  0  0
   10.1081  -15.3119   27.2589 C   0  0  1  0  0  0  0  0  0  0  0  0
    9.0297  -14.3232   27.3528 C   0  0  0  0  0  0  0  0  0  0  0  0
    8.3819  -13.6776   26.2179 C   0  0  0  0  0  0  0  0  0  0  0  0
    7.2170  -12.7952   26.4633 C   0  0  0  0  0  0  0  0  0  0  0  0
    6.7610  -12.1738   25.1105 C   0  0  0  0  0  0  0  0  0  0  0  0
    5.5805  -11.3944   25.3520 N   0  0  0  0  0  0  0  0  0  0  0  0
   10.4604  -16.2175   28.3303 C   0  0  0  0  0  0  0  0  0  0  0  0
   10.2114  -17.4562   28.3923 O   0  0  0  0  0  0  0  0  0  0  0  0
   11.1598  -15.7696   29.4853 O   0  0  0  0  0  0  0  0  0  0  0  0
  2  1  1  0
  3  2  1  0
  3  4  1  6
  5  3  1  0
  5  6  1  1
  7  5  1  0
  7  8  2  0
  9 10  1  0
 10 11  2  0
 12 10  1  0
 13 12  1  6
 13 14  1  0
 14  7  1  0
 15 13  1  0
 16 15  2  0
 17 15  1  0
 18 17  1  0
 18 24  1  0
 18 19  1  1
 20 19  1  0
 21 20  1  0
 22 21  1  0
 23 22  1  0
 24 26  1  0
 25 24  2  0
M  END
$$$$
