INK.pdb
     RDKit          3D

 26 25  0  0  1  0  0  0  0  0999 V2000
    7.9313  -11.7315   19.9053 C   0  0  0  0  0  0  0  0  0  0  0  0
    8.0978  -13.0941   19.3276 C   0  0  0  0  0  0  0  0  0  0  0  0
    7.8536  -14.2158   20.3117 C   0  0  2  0  0  0  0  0  0  0  0  0
    8.7524  -14.1681   21.5065 C   0  0  0  0  0  0  0  0  0  0  0  0
    7.9964  -15.5540   19.5537 C   0  0  2  0  0  0  0  0  0  0  0  0
    7.0342  -15.6257   18.4913 N   0  0  0  0  0  0  0  0  0  0  0  0
    7.7569  -16.6335   20.5549 C   0  0  0  0  0  0  0  0  0  0  0  0
    6.6456  -17.1475   20.7543 O   0  0  0  0  0  0  0  0  0  0  0  0
    8.7526  -21.9846   21.7125 N   0  0  0  0  0  0  0  0  0  0  0  0
    8.2595  -20.7210   22.1259 C   0  0  0  0  0  0  0  0  0  0  0  0
    7.6872  -20.6676   23.2520 O   0  0  0  0  0  0  0  0  0  0  0  0
    8.4113  -19.5182   21.2697 C   0  0  0  0  0  0  0  0  0  0  0  0
    8.8295  -18.3097   22.0680 C   0  0  2  0  0  0  0  0  0  0  0  0
    8.8496  -17.1024   21.3214 N   0  0  0  0  0  0  0  0  0  0  0  0
   10.1443  -18.6362   22.6896 C   0  0  0  0  0  0  0  0  0  0  0  0
   11.1982  -18.3951   22.0378 O   0  0  0  0  0  0  0  0  0  0  0  0
   10.0934  -19.1973   23.9814 N   0  0  0  0  0  0  0  0  0  0  0  0
   11.3822  -19.5278   24.6771 C   0  0  1  0  0  0  0  0  0  0  0  0
   12.4016  -18.8087   23.9071 C   0  0  0  0  0  0  0  0  0  0  0  0
   13.8244  -18.7776   24.2219 C   0  0  0  0  0  0  0  0  0  0  0  0
   14.7322  -17.9825   23.3620 C   0  0  0  0  0  0  0  0  0  0  0  0
   16.2016  -18.2338   23.8115 C   0  0  0  0  0  0  0  0  0  0  0  0
   17.0692  -17.5044   22.9315 N   0  0  0  0  0  0  0  0  0  0  0  0
   11.1140  -19.2820   26.0771 C   0  0  0  0  0  0  0  0  0  0  0  0
   10.0012  -18.9796   26.5970 O   0  0  0  0  0  0  0  0  0  0  0  0
   12.1417  -19.3597   27.0577 O   0  0  0  0  0  0  0  0  0  0  0  0
  2  1  1  0
  3  2  1  0
  3  4  1  1
  5  3  1  0
  5  6  1  6
  7  5  1  0
  7  8  2  0
  9 10  1  0
 10 11  2  0
 12 10  1  0
 13 12  1  6
 13 14  1  0
 14  7  1  0
 15 13  1  0
 16 15  2  0
 17 15  1  0
 18 17  1  0
 18 24  1  0
 18 19  1  6
 20 19  1  0
 21 20  1  0
 22 21  1  0
 23 22  1  0
 24 26  1  0
 25 24  2  0
M  END
$$$$
