INK.pdb
     RDKit          3D

 26 25  0  0  1  0  0  0  0  0999 V2000
    8.3458  -11.6287   19.3914 C   0  0  0  0  0  0  0  0  0  0  0  0
    8.0521  -13.0275   18.9728 C   0  0  0  0  0  0  0  0  0  0  0  0
    8.7295  -14.0806   19.8204 C   0  0  2  0  0  0  0  0  0  0  0  0
   10.2223  -13.9857   19.8104 C   0  0  0  0  0  0  0  0  0  0  0  0
    8.2508  -15.4655   19.3321 C   0  0  2  0  0  0  0  0  0  0  0  0
    6.8174  -15.5302   19.3563 N   0  0  0  0  0  0  0  0  0  0  0  0
    8.8391  -16.4686   20.2662 C   0  0  0  0  0  0  0  0  0  0  0  0
    8.3810  -16.7037   21.3949 O   0  0  0  0  0  0  0  0  0  0  0  0
   12.1637  -21.4389   20.8514 N   0  0  0  0  0  0  0  0  0  0  0  0
   11.2672  -20.4236   21.2713 C   0  0  0  0  0  0  0  0  0  0  0  0
   11.0615  -20.3164   22.5141 O   0  0  0  0  0  0  0  0  0  0  0  0
   10.6028  -19.5299   20.2902 C   0  0  0  0  0  0  0  0  0  0  0  0
   10.7014  -18.0807   20.6939 C   0  0  2  0  0  0  0  0  0  0  0  0
    9.9796  -17.1954   19.8509 N   0  0  0  0  0  0  0  0  0  0  0  0
   12.1531  -17.7541   20.7809 C   0  0  0  0  0  0  0  0  0  0  0  0
   12.9358  -18.2427   19.9193 O   0  0  0  0  0  0  0  0  0  0  0  0
   12.5324  -16.9075   21.8418 N   0  0  0  0  0  0  0  0  0  0  0  0
   13.9914  -16.6252   22.0551 C   0  0  1  0  0  0  0  0  0  0  0  0
   14.2216  -15.3636   21.3446 C   0  0  0  0  0  0  0  0  0  0  0  0
   14.3838  -15.2303   19.9022 C   0  0  0  0  0  0  0  0  0  0  0  0
   14.9822  -13.9881   19.3594 C   0  0  0  0  0  0  0  0  0  0  0  0
   14.9697  -14.0600   17.8041 C   0  0  0  0  0  0  0  0  0  0  0  0
   15.4201  -12.7963   17.2946 N   0  0  0  0  0  0  0  0  0  0  0  0
   14.1906  -16.7913   23.4780 C   0  0  0  0  0  0  0  0  0  0  0  0
   13.2946  -16.8789   24.3666 O   0  0  0  0  0  0  0  0  0  0  0  0
   15.4933  -16.8733   24.0438 O   0  0  0  0  0  0  0  0  0  0  0  0
  2  1  1  0
  3  2  1  0
  3  4  1  6
  5  3  1  0
  5  6  1  1
  7  5  1  0
  7  8  2  0
  9 10  1  0
 10 11  2  0
 12 10  1  0
 13 12  1  6
 13 14  1  0
 14  7  1  0
 15 13  1  0
 16 15  2  0
 17 15  1  0
 18 17  1  0
 18 24  1  0
 18 19  1  1
 20 19  1  0
 21 20  1  0
 22 21  1  0
 23 22  1  0
 24 26  1  0
 25 24  2  0
M  END
$$$$
