INK.pdb
     RDKit          3D

 26 25  0  0  1  0  0  0  0  0999 V2000
    7.3153  -11.9568   18.5965 C   0  0  0  0  0  0  0  0  0  0  0  0
    8.0157  -13.2711   18.6036 C   0  0  0  0  0  0  0  0  0  0  0  0
    7.9751  -13.9850   19.9360 C   0  0  2  0  0  0  0  0  0  0  0  0
    8.4985  -13.1622   21.0703 C   0  0  0  0  0  0  0  0  0  0  0  0
    8.7594  -15.3077   19.7918 C   0  0  2  0  0  0  0  0  0  0  0  0
    8.2607  -16.0593   18.6757 N   0  0  0  0  0  0  0  0  0  0  0  0
    8.5576  -16.0586   21.0648 C   0  0  0  0  0  0  0  0  0  0  0  0
    7.5669  -15.9107   21.7967 O   0  0  0  0  0  0  0  0  0  0  0  0
   12.0949  -17.3277   21.5863 N   0  0  0  0  0  0  0  0  0  0  0  0
   11.7775  -18.5818   22.1672 C   0  0  0  0  0  0  0  0  0  0  0  0
   12.6580  -19.4865   22.0985 O   0  0  0  0  0  0  0  0  0  0  0  0
   10.4677  -18.8157   22.8248 C   0  0  0  0  0  0  0  0  0  0  0  0
    9.5755  -17.6030   22.7465 C   0  0  2  0  0  0  0  0  0  0  0  0
    9.5429  -16.9911   21.4660 N   0  0  0  0  0  0  0  0  0  0  0  0
   10.0115  -16.6751   23.8285 C   0  0  0  0  0  0  0  0  0  0  0  0
   10.6268  -15.6201   23.5092 O   0  0  0  0  0  0  0  0  0  0  0  0
    9.6895  -17.0664   25.1436 N   0  0  0  0  0  0  0  0  0  0  0  0
    9.5670  -16.0094   26.2026 C   0  0  1  0  0  0  0  0  0  0  0  0
    8.4392  -15.1845   25.7591 C   0  0  0  0  0  0  0  0  0  0  0  0
    8.0283  -13.9263   26.3696 C   0  0  0  0  0  0  0  0  0  0  0  0
    6.8260  -13.2347   25.8483 C   0  0  0  0  0  0  0  0  0  0  0  0
    6.6288  -11.9047   26.6334 C   0  0  0  0  0  0  0  0  0  0  0  0
    5.4657  -11.2459   26.1116 N   0  0  0  0  0  0  0  0  0  0  0  0
    9.5831  -16.7402   27.4507 C   0  0  0  0  0  0  0  0  0  0  0  0
    9.1773  -17.9225   27.6454 O   0  0  0  0  0  0  0  0  0  0  0  0
   10.0852  -16.1593   28.6483 O   0  0  0  0  0  0  0  0  0  0  0  0
  2  1  1  0
  3  2  1  0
  3  4  1  1
  5  3  1  0
  5  6  1  6
  7  5  1  0
  7  8  2  0
  9 10  1  0
 10 11  2  0
 12 10  1  0
 13 12  1  6
 13 14  1  0
 14  7  1  0
 15 13  1  0
 16 15  2  0
 17 15  1  0
 18 17  1  0
 18 24  1  0
 18 19  1  6
 20 19  1  0
 21 20  1  0
 22 21  1  0
 23 22  1  0
 24 26  1  0
 25 24  2  0
M  END
$$$$
