INK.pdb
     RDKit          3D

 26 25  0  0  1  0  0  0  0  0999 V2000
    7.6985  -11.9368   18.6473 C   0  0  0  0  0  0  0  0  0  0  0  0
    7.9575  -13.4027   18.6017 C   0  0  0  0  0  0  0  0  0  0  0  0
    8.8013  -13.9163   19.7466 C   0  0  2  0  0  0  0  0  0  0  0  0
   10.1215  -13.2245   19.8725 C   0  0  0  0  0  0  0  0  0  0  0  0
    8.9797  -15.4392   19.5609 C   0  0  2  0  0  0  0  0  0  0  0  0
    7.7221  -16.0484   19.2341 N   0  0  0  0  0  0  0  0  0  0  0  0
    9.4982  -15.9642   20.8573 C   0  0  0  0  0  0  0  0  0  0  0  0
    9.8679  -15.2364   21.7915 O   0  0  0  0  0  0  0  0  0  0  0  0
   11.1824  -19.2119   24.4590 N   0  0  0  0  0  0  0  0  0  0  0  0
   10.3017  -19.9692   23.6456 C   0  0  0  0  0  0  0  0  0  0  0  0
   10.0216  -21.1387   24.0356 O   0  0  0  0  0  0  0  0  0  0  0  0
    9.7376  -19.4081   22.3927 C   0  0  0  0  0  0  0  0  0  0  0  0
   10.1724  -17.9818   22.1704 C   0  0  2  0  0  0  0  0  0  0  0  0
    9.5751  -17.3650   21.0399 N   0  0  0  0  0  0  0  0  0  0  0  0
   11.6620  -17.9876   22.1162 C   0  0  0  0  0  0  0  0  0  0  0  0
   12.2355  -18.7888   21.3271 O   0  0  0  0  0  0  0  0  0  0  0  0
   12.3137  -17.0754   22.9702 N   0  0  0  0  0  0  0  0  0  0  0  0
   13.8088  -16.9588   22.8973 C   0  0  1  0  0  0  0  0  0  0  0  0
   14.0370  -15.7303   22.1305 C   0  0  0  0  0  0  0  0  0  0  0  0
   14.1931  -15.6614   20.6829 C   0  0  0  0  0  0  0  0  0  0  0  0
   14.3889  -14.3386   20.0446 C   0  0  0  0  0  0  0  0  0  0  0  0
   14.5066  -14.5341   18.5044 C   0  0  0  0  0  0  0  0  0  0  0  0
   14.7011  -13.2454   17.9038 N   0  0  0  0  0  0  0  0  0  0  0  0
   14.2559  -17.1475   24.2599 C   0  0  0  0  0  0  0  0  0  0  0  0
   13.5455  -17.1101   25.3059 O   0  0  0  0  0  0  0  0  0  0  0  0
   15.6207  -17.4055   24.5676 O   0  0  0  0  0  0  0  0  0  0  0  0
  2  1  1  0
  3  2  1  0
  3  4  1  6
  5  3  1  0
  5  6  1  1
  7  5  1  0
  7  8  2  0
  9 10  1  0
 10 11  2  0
 12 10  1  0
 13 12  1  6
 13 14  1  0
 14  7  1  0
 15 13  1  0
 16 15  2  0
 17 15  1  0
 18 17  1  0
 18 24  1  0
 18 19  1  1
 20 19  1  0
 21 20  1  0
 22 21  1  0
 23 22  1  0
 24 26  1  0
 25 24  2  0
M  END
$$$$
