INK.pdb
     RDKit          3D

 26 25  0  0  1  0  0  0  0  0999 V2000
    7.1347  -12.3229   18.1011 C   0  0  0  0  0  0  0  0  0  0  0  0
    8.2342  -13.2977   18.3434 C   0  0  0  0  0  0  0  0  0  0  0  0
    8.2179  -13.9162   19.7232 C   0  0  2  0  0  0  0  0  0  0  0  0
    8.2446  -12.9093   20.8291 C   0  0  0  0  0  0  0  0  0  0  0  0
    9.4112  -14.8918   19.8219 C   0  0  2  0  0  0  0  0  0  0  0  0
    9.4343  -15.7622   18.6811 N   0  0  0  0  0  0  0  0  0  0  0  0
    9.2141  -15.6735   21.0770 C   0  0  0  0  0  0  0  0  0  0  0  0
    8.3835  -15.3717   21.9477 O   0  0  0  0  0  0  0  0  0  0  0  0
   12.2511  -19.5273   20.4910 N   0  0  0  0  0  0  0  0  0  0  0  0
   11.0578  -19.4361   21.2517 C   0  0  0  0  0  0  0  0  0  0  0  0
   10.0354  -20.0187   20.7894 O   0  0  0  0  0  0  0  0  0  0  0  0
   11.0174  -18.6880   22.5329 C   0  0  0  0  0  0  0  0  0  0  0  0
   10.0057  -17.5708   22.4993 C   0  0  2  0  0  0  0  0  0  0  0  0
   10.0117  -16.8217   21.2935 N   0  0  0  0  0  0  0  0  0  0  0  0
   10.2448  -16.7347   23.7099 C   0  0  0  0  0  0  0  0  0  0  0  0
   11.2330  -15.9492   23.7171 O   0  0  0  0  0  0  0  0  0  0  0  0
    9.3237  -16.8980   24.7640 N   0  0  0  0  0  0  0  0  0  0  0  0
    9.4159  -15.9850   25.9523 C   0  0  1  0  0  0  0  0  0  0  0  0
    8.2841  -15.0674   25.7898 C   0  0  0  0  0  0  0  0  0  0  0  0
    7.9784  -13.9475   26.6712 C   0  0  0  0  0  0  0  0  0  0  0  0
    6.7661  -13.1373   26.4077 C   0  0  0  0  0  0  0  0  0  0  0  0
    6.6784  -12.0007   27.4683 C   0  0  0  0  0  0  0  0  0  0  0  0
    5.4875  -11.2420   27.2131 N   0  0  0  0  0  0  0  0  0  0  0  0
    9.5714  -16.8732   27.0832 C   0  0  0  0  0  0  0  0  0  0  0  0
    9.3056  -18.1093   27.1220 O   0  0  0  0  0  0  0  0  0  0  0  0
   10.0652  -16.4084   28.3338 O   0  0  0  0  0  0  0  0  0  0  0  0
  2  1  1  0
  3  2  1  0
  3  4  1  1
  5  3  1  0
  5  6  1  6
  7  5  1  0
  7  8  2  0
  9 10  1  0
 10 11  2  0
 12 10  1  0
 13 12  1  6
 13 14  1  0
 14  7  1  0
 15 13  1  0
 16 15  2  0
 17 15  1  0
 18 17  1  0
 18 24  1  0
 18 19  1  1
 20 19  1  0
 21 20  1  0
 22 21  1  0
 23 22  1  0
 24 26  1  0
 25 24  2  0
M  END
$$$$
