INK.pdb
     RDKit          3D

 26 25  0  0  1  0  0  0  0  0999 V2000
    5.8328  -11.3369   26.8622 C   0  0  0  0  0  0  0  0  0  0  0  0
    5.7018  -12.4387   25.8688 C   0  0  0  0  0  0  0  0  0  0  0  0
    6.7729  -13.5003   25.9797 C   0  0  2  0  0  0  0  0  0  0  0  0
    8.1638  -12.9559   25.8979 C   0  0  0  0  0  0  0  0  0  0  0  0
    6.5156  -14.5533   24.8794 C   0  0  2  0  0  0  0  0  0  0  0  0
    5.1844  -15.0763   24.9970 N   0  0  0  0  0  0  0  0  0  0  0  0
    7.5253  -15.6321   25.0837 C   0  0  0  0  0  0  0  0  0  0  0  0
    7.3417  -16.6095   25.8255 O   0  0  0  0  0  0  0  0  0  0  0  0
   11.6406  -18.5589   24.0258 N   0  0  0  0  0  0  0  0  0  0  0  0
   12.0254  -17.2328   23.7033 C   0  0  0  0  0  0  0  0  0  0  0  0
   13.1797  -17.0723   23.2131 O   0  0  0  0  0  0  0  0  0  0  0  0
   11.1092  -16.0881   23.9339 C   0  0  0  0  0  0  0  0  0  0  0  0
    9.7723  -16.5373   24.4665 C   0  0  2  0  0  0  0  0  0  0  0  0
    8.7599  -15.5444   24.3987 N   0  0  0  0  0  0  0  0  0  0  0  0
   10.0056  -17.0430   25.8491 C   0  0  0  0  0  0  0  0  0  0  0  0
    9.4844  -18.1420   26.1872 O   0  0  0  0  0  0  0  0  0  0  0  0
   10.8074  -16.2308   26.6758 N   0  0  0  0  0  0  0  0  0  0  0  0
   11.1133  -16.6975   28.0696 C   0  0  1  0  0  0  0  0  0  0  0  0
   12.3134  -17.5256   27.9167 C   0  0  0  0  0  0  0  0  0  0  0  0
   12.3667  -18.9695   28.1086 C   0  0  0  0  0  0  0  0  0  0  0  0
   13.6252  -19.6882   27.8001 C   0  0  0  0  0  0  0  0  0  0  0  0
   13.4234  -21.2051   28.0872 C   0  0  0  0  0  0  0  0  0  0  0  0
   14.5977  -21.9033   27.6482 N   0  0  0  0  0  0  0  0  0  0  0  0
   11.0656  -15.4968   28.8747 C   0  0  0  0  0  0  0  0  0  0  0  0
   11.0890  -15.4261   30.1375 O   0  0  0  0  0  0  0  0  0  0  0  0
   10.9795  -14.2058   28.2835 O   0  0  0  0  0  0  0  0  0  0  0  0
  2  1  1  0
  3  2  1  0
  3  4  1  6
  5  3  1  0
  5  6  1  1
  7  5  1  0
  7  8  2  0
  9 10  1  0
 10 11  2  0
 12 10  1  0
 13 12  1  1
 13 14  1  0
 14  7  1  0
 15 13  1  0
 16 15  2  0
 17 15  1  0
 18 17  1  0
 18 24  1  0
 18 19  1  6
 20 19  1  0
 21 20  1  0
 22 21  1  0
 23 22  1  0
 24 26  1  0
 25 24  2  0
M  END
$$$$
