INK.pdb
     RDKit          3D

 26 25  0  0  1  0  0  0  0  0999 V2000
    7.9158  -11.6441   22.3927 C   0  0  0  0  0  0  0  0  0  0  0  0
    7.6591  -13.1104   22.3466 C   0  0  0  0  0  0  0  0  0  0  0  0
    8.3812  -13.8286   21.2289 C   0  0  2  0  0  0  0  0  0  0  0  0
    8.1522  -13.2196   19.8820 C   0  0  0  0  0  0  0  0  0  0  0  0
    7.9479  -15.3108   21.2570 C   0  0  2  0  0  0  0  0  0  0  0  0
    6.5245  -15.4130   21.1046 N   0  0  0  0  0  0  0  0  0  0  0  0
    8.3760  -15.8503   22.5802 C   0  0  0  0  0  0  0  0  0  0  0  0
    7.5916  -16.0691   23.5161 O   0  0  0  0  0  0  0  0  0  0  0  0
   11.5429  -19.7959   25.1182 N   0  0  0  0  0  0  0  0  0  0  0  0
   11.8696  -18.4419   24.8525 C   0  0  0  0  0  0  0  0  0  0  0  0
   12.5915  -17.8471   25.7030 O   0  0  0  0  0  0  0  0  0  0  0  0
   11.3820  -17.7587   23.6283 C   0  0  0  0  0  0  0  0  0  0  0  0
   10.2504  -16.8088   23.9282 C   0  0  2  0  0  0  0  0  0  0  0  0
    9.7470  -16.1309   22.7870 N   0  0  0  0  0  0  0  0  0  0  0  0
   10.7328  -15.8846   24.9936 C   0  0  0  0  0  0  0  0  0  0  0  0
   11.7161  -15.1337   24.7432 O   0  0  0  0  0  0  0  0  0  0  0  0
   10.0308  -15.9311   26.2147 N   0  0  0  0  0  0  0  0  0  0  0  0
   10.5129  -15.0861   27.3582 C   0  0  1  0  0  0  0  0  0  0  0  0
    9.4894  -14.0452   27.4931 C   0  0  0  0  0  0  0  0  0  0  0  0
    8.2641  -13.9663   26.7078 C   0  0  0  0  0  0  0  0  0  0  0  0
    7.2908  -12.8887   27.0031 C   0  0  0  0  0  0  0  0  0  0  0  0
    6.0395  -13.0763   26.0957 C   0  0  0  0  0  0  0  0  0  0  0  0
    5.1138  -12.0192   26.3865 N   0  0  0  0  0  0  0  0  0  0  0  0
   10.8339  -16.0343   28.4021 C   0  0  0  0  0  0  0  0  0  0  0  0
   11.4022  -15.7881   29.5052 O   0  0  0  0  0  0  0  0  0  0  0  0
   10.5234  -17.4168   28.2748 O   0  0  0  0  0  0  0  0  0  0  0  0
  2  1  1  0
  3  2  1  0
  3  4  1  6
  5  3  1  0
  5  6  1  1
  7  5  1  0
  7  8  2  0
  9 10  1  0
 10 11  2  0
 12 10  1  0
 13 12  1  6
 13 14  1  0
 14  7  1  0
 15 13  1  0
 16 15  2  0
 17 15  1  0
 18 17  1  0
 18 24  1  0
 18 19  1  1
 20 19  1  0
 21 20  1  0
 22 21  1  0
 23 22  1  0
 24 26  1  0
 25 24  2  0
M  END
$$$$
