INK.pdb
     RDKit          3D

 26 25  0  0  1  0  0  0  0  0999 V2000
    8.7841  -11.7818   20.1681 C   0  0  0  0  0  0  0  0  0  0  0  0
    8.7941  -13.2658   20.0421 C   0  0  0  0  0  0  0  0  0  0  0  0
    8.8214  -13.7639   18.6146 C   0  0  2  0  0  0  0  0  0  0  0  0
    7.6437  -13.3214   17.8053 C   0  0  0  0  0  0  0  0  0  0  0  0
    8.9331  -15.3040   18.6496 C   0  0  2  0  0  0  0  0  0  0  0  0
    7.8513  -15.8612   19.4105 N   0  0  0  0  0  0  0  0  0  0  0  0
   10.2435  -15.6173   19.2898 C   0  0  0  0  0  0  0  0  0  0  0  0
   11.3074  -15.7135   18.6591 O   0  0  0  0  0  0  0  0  0  0  0  0
   13.3685  -14.0625   19.1386 N   0  0  0  0  0  0  0  0  0  0  0  0
   13.3301  -15.1093   20.0945 C   0  0  0  0  0  0  0  0  0  0  0  0
   14.0233  -16.1377   19.8490 O   0  0  0  0  0  0  0  0  0  0  0  0
   12.5101  -14.9965   21.3265 C   0  0  0  0  0  0  0  0  0  0  0  0
   11.4746  -16.0887   21.4138 C   0  0  2  0  0  0  0  0  0  0  0  0
   10.2843  -15.8161   20.6898 N   0  0  0  0  0  0  0  0  0  0  0  0
   11.2342  -16.3415   22.8630 C   0  0  0  0  0  0  0  0  0  0  0  0
   10.8020  -15.3955   23.5785 O   0  0  0  0  0  0  0  0  0  0  0  0
   11.5161  -17.6456   23.3168 N   0  0  0  0  0  0  0  0  0  0  0  0
   11.1245  -18.0246   24.7157 C   0  0  1  0  0  0  0  0  0  0  0  0
   10.0843  -19.0418   24.5352 C   0  0  0  0  0  0  0  0  0  0  0  0
    9.4478  -19.7914   25.6110 C   0  0  0  0  0  0  0  0  0  0  0  0
    8.5227  -20.8963   25.2659 C   0  0  0  0  0  0  0  0  0  0  0  0
    7.9800  -21.5293   26.5808 C   0  0  0  0  0  0  0  0  0  0  0  0
    7.1088  -22.6137   26.2285 N   0  0  0  0  0  0  0  0  0  0  0  0
   12.3793  -18.2728   25.3909 C   0  0  0  0  0  0  0  0  0  0  0  0
   12.5519  -18.4655   26.6292 O   0  0  0  0  0  0  0  0  0  0  0  0
   13.6109  -18.3230   24.6806 O   0  0  0  0  0  0  0  0  0  0  0  0
  2  1  1  0
  3  2  1  0
  3  4  1  1
  5  3  1  0
  5  6  1  1
  7  5  1  0
  7  8  2  0
  9 10  1  0
 10 11  2  0
 12 10  1  0
 13 12  1  1
 13 14  1  0
 14  7  1  0
 15 13  1  0
 16 15  2  0
 17 15  1  0
 18 17  1  0
 18 24  1  0
 18 19  1  6
 20 19  1  0
 21 20  1  0
 22 21  1  0
 23 22  1  0
 24 26  1  0
 25 24  2  0
M  END
$$$$
