INK.pdb
     RDKit          3D

 26 25  0  0  1  0  0  0  0  0999 V2000
    6.4282  -11.3185   27.4115 C   0  0  0  0  0  0  0  0  0  0  0  0
    5.8601  -12.3624   26.5139 C   0  0  0  0  0  0  0  0  0  0  0  0
    6.9005  -13.1804   25.7826 C   0  0  2  0  0  0  0  0  0  0  0  0
    7.7735  -12.3670   24.8805 C   0  0  0  0  0  0  0  0  0  0  0  0
    6.1684  -14.2943   25.0023 C   0  0  2  0  0  0  0  0  0  0  0  0
    5.4050  -15.1096   25.9034 N   0  0  0  0  0  0  0  0  0  0  0  0
    7.2260  -15.1021   24.3286 C   0  0  0  0  0  0  0  0  0  0  0  0
    7.7169  -16.1311   24.8179 O   0  0  0  0  0  0  0  0  0  0  0  0
    7.3148  -13.8521   19.2535 N   0  0  0  0  0  0  0  0  0  0  0  0
    7.7793  -14.9433   20.0309 C   0  0  0  0  0  0  0  0  0  0  0  0
    7.1629  -16.0402   19.9081 O   0  0  0  0  0  0  0  0  0  0  0  0
    8.9382  -14.7974   20.9466 C   0  0  0  0  0  0  0  0  0  0  0  0
    8.6611  -15.3952   22.3026 C   0  0  2  0  0  0  0  0  0  0  0  0
    7.6997  -14.6802   23.0641 N   0  0  0  0  0  0  0  0  0  0  0  0
    9.9753  -15.5273   22.9935 C   0  0  0  0  0  0  0  0  0  0  0  0
   10.6334  -14.4803   23.2470 O   0  0  0  0  0  0  0  0  0  0  0  0
   10.3759  -16.8406   23.3111 N   0  0  0  0  0  0  0  0  0  0  0  0
   11.6246  -17.0395   24.1205 C   0  0  1  0  0  0  0  0  0  0  0  0
   11.3171  -18.1862   24.9807 C   0  0  0  0  0  0  0  0  0  0  0  0
   11.8465  -18.3946   26.3226 C   0  0  0  0  0  0  0  0  0  0  0  0
   11.3808  -19.5642   27.1041 C   0  0  0  0  0  0  0  0  0  0  0  0
   12.1591  -19.6129   28.4517 C   0  0  0  0  0  0  0  0  0  0  0  0
   11.6280  -20.6910   29.2359 N   0  0  0  0  0  0  0  0  0  0  0  0
   12.6947  -17.0320   23.1475 C   0  0  0  0  0  0  0  0  0  0  0  0
   12.6324  -17.4197   21.9450 O   0  0  0  0  0  0  0  0  0  0  0  0
   13.9968  -16.5617   23.4751 O   0  0  0  0  0  0  0  0  0  0  0  0
  2  1  1  0
  3  2  1  0
  3  4  1  6
  5  3  1  0
  5  6  1  1
  7  5  1  0
  7  8  2  0
  9 10  1  0
 10 11  2  0
 12 10  1  0
 13 12  1  6
 13 14  1  0
 14  7  1  0
 15 13  1  0
 16 15  2  0
 17 15  1  0
 18 17  1  0
 18 24  1  0
 18 19  1  6
 20 19  1  0
 21 20  1  0
 22 21  1  0
 23 22  1  0
 24 26  1  0
 25 24  2  0
M  END
$$$$
