PRV.pdb
     RDKit          3D

 26 26  0  0  1  0  0  0  0  0999 V2000
   28.5030  -21.5561  -16.6576 N   0  0  0  0  0  0  0  0  0  0  0  0
   29.8057  -22.0765  -16.9239 C   0  0  0  0  0  0  0  0  0  0  0  0
   29.6670  -23.5096  -17.3226 C   0  0  0  0  0  0  0  0  0  0  0  0
   28.2374  -23.8281  -16.9793 C   0  0  0  0  0  0  0  0  0  0  0  0
   27.5271  -22.5174  -17.0528 C   0  0  1  0  0  0  0  0  0  0  0  0
   26.3095  -22.4696  -16.1696 C   0  0  0  0  0  0  0  0  0  0  0  0
   25.3432  -23.2339  -16.3848 O   0  0  0  0  0  0  0  0  0  0  0  0
   22.2045  -20.8092   -7.7435 N   0  0  0  0  0  0  0  0  0  0  0  0
   22.9428  -20.5910   -8.9858 C   0  0  0  0  0  0  0  0  0  0  0  0
   22.5592  -19.7082   -9.7933 N   0  0  0  0  0  0  0  0  0  0  0  0
   24.0804  -21.3795   -9.2570 N   0  0  0  0  0  0  0  0  0  0  0  0
   25.0341  -21.2302  -10.3060 C   0  0  0  0  0  0  0  0  0  0  0  0
   24.5556  -21.3167  -11.7056 C   0  0  0  0  0  0  0  0  0  0  0  0
   25.7038  -21.2121  -12.7381 C   0  0  0  0  0  0  0  0  0  0  0  0
   25.2486  -21.3597  -14.1284 C   0  0  2  0  0  0  0  0  0  0  0  0
   26.2731  -21.5526  -15.0967 N   0  0  0  0  0  0  0  0  0  0  0  0
   24.1929  -20.3560  -14.5390 C   0  0  0  0  0  0  0  0  0  0  0  0
   24.3816  -19.1174  -14.5209 O   0  0  0  0  0  0  0  0  0  0  0  0
   22.8954  -19.4476  -10.6759 C   0  0  0  0  0  0  0  0  0  0  0  0
   20.8626  -21.4517  -17.0088 C   0  0  2  0  0  0  0  0  0  0  0  0
   21.4900  -20.0849  -16.8600 C   0  0  0  0  0  0  0  0  0  0  0  0
   20.4739  -19.0526  -17.2847 C   0  0  1  0  0  0  0  0  0  0  0  0
   21.9169  -19.7959  -15.4552 N   0  0  0  0  0  0  0  0  0  0  0  0
   22.8986  -20.7712  -14.9784 C   0  0  0  0  0  0  0  0  0  0  0  0
   20.7323  -19.8557  -14.5521 O   0  0  0  0  0  0  0  0  0  0  0  0
   19.7970  -18.8150  -14.5388 O   0  0  0  0  0  0  0  0  0  0  0  0
  1  2  1  0
  3  2  1  0
  4  5  1  0
  4  3  1  0
  5  1  1  0
  6  7  2  0
  5  6  1  1
  9 11  1  0
  9  8  1  0
 10  9  2  0
 12 11  1  0
 13 12  1  0
 13 14  1  0
 15 14  1  1
 15 16  1  0
 16  6  1  0
 17 18  2  0
 17 15  1  0
 20 19  1  6
 20 21  1  0
 22 20  1  0
 22 23  1  6
 23 17  1  0
 24 22  1  0
 25 24  1  0
 26 24  2  0
M  END
$$$$
