PRV.pdb
     RDKit          3D

 26 26  0  0  1  0  0  0  0  0999 V2000
   27.2146  -22.7721  -17.2387 N   0  0  0  0  0  0  0  0  0  0  0  0
   27.7885  -23.0657  -18.5127 C   0  0  0  0  0  0  0  0  0  0  0  0
   29.0612  -22.2941  -18.6441 C   0  0  0  0  0  0  0  0  0  0  0  0
   29.0060  -21.3349  -17.4864 C   0  0  0  0  0  0  0  0  0  0  0  0
   28.1454  -22.0117  -16.4719 C   0  0  1  0  0  0  0  0  0  0  0  0
   27.4502  -21.0363  -15.5607 C   0  0  0  0  0  0  0  0  0  0  0  0
   28.1158  -20.2842  -14.8153 O   0  0  0  0  0  0  0  0  0  0  0  0
   19.7566  -21.5039  -17.1599 N   0  0  0  0  0  0  0  0  0  0  0  0
   20.5371  -20.8857  -18.2298 C   0  0  0  0  0  0  0  0  0  0  0  0
   20.3400  -21.2257  -19.4231 N   0  0  0  0  0  0  0  0  0  0  0  0
   21.5029  -19.9116  -17.9014 N   0  0  0  0  0  0  0  0  0  0  0  0
   21.8759  -19.4309  -16.6122 C   0  0  0  0  0  0  0  0  0  0  0  0
   22.8882  -20.1943  -15.8457 C   0  0  0  0  0  0  0  0  0  0  0  0
   24.1819  -19.3839  -15.5903 C   0  0  0  0  0  0  0  0  0  0  0  0
   25.1854  -20.1239  -14.8110 C   0  0  2  0  0  0  0  0  0  0  0  0
   26.0393  -20.9813  -15.5592 N   0  0  0  0  0  0  0  0  0  0  0  0
   24.6414  -20.7479  -13.5440 C   0  0  0  0  0  0  0  0  0  0  0  0
   24.0823  -21.8690  -13.5180 O   0  0  0  0  0  0  0  0  0  0  0  0
   20.7806  -20.9544  -20.2551 C   0  0  0  0  0  0  0  0  0  0  0  0
   24.4511  -20.7518   -8.5531 C   0  0  2  0  0  0  0  0  0  0  0  0
   24.9187  -20.1160   -9.8419 C   0  0  0  0  0  0  0  0  0  0  0  0
   26.4170  -20.2761   -9.9284 C   0  0  1  0  0  0  0  0  0  0  0  0
   24.2939  -20.7371  -11.0515 N   0  0  0  0  0  0  0  0  0  0  0  0
   24.7364  -20.0825  -12.2836 C   0  0  0  0  0  0  0  0  0  0  0  0
   22.8110  -20.6080  -10.9684 O   0  0  0  0  0  0  0  0  0  0  0  0
   22.0614  -21.5132  -10.2091 O   0  0  0  0  0  0  0  0  0  0  0  0
  1  2  1  0
  3  2  1  0
  4  5  1  0
  4  3  1  0
  5  1  1  0
  6  7  2  0
  5  6  1  6
  9 11  1  0
  9  8  1  0
 10  9  2  0
 12 11  1  0
 13 12  1  0
 13 14  1  0
 15 14  1  6
 15 16  1  0
 16  6  1  0
 17 18  2  0
 17 15  1  0
 20 19  1  1
 20 21  1  0
 22 20  1  0
 22 23  1  1
 23 17  1  0
 24 22  1  0
 25 24  1  0
 26 24  2  0
M  END
$$$$
