PRV.pdb
     RDKit          3D

 26 26  0  0  1  0  0  0  0  0999 V2000
   23.0122  -15.0208  -19.9403 N   0  0  0  0  0  0  0  0  0  0  0  0
   22.2627  -13.8710  -20.3341 C   0  0  0  0  0  0  0  0  0  0  0  0
   21.7347  -13.2096  -19.1027 C   0  0  0  0  0  0  0  0  0  0  0  0
   21.9946  -14.2263  -18.0247 C   0  0  0  0  0  0  0  0  0  0  0  0
   23.1569  -15.0198  -18.5220 C   0  0  1  0  0  0  0  0  0  0  0  0
   23.1833  -16.4175  -17.9644 C   0  0  0  0  0  0  0  0  0  0  0  0
   22.5281  -17.3294  -18.5154 O   0  0  0  0  0  0  0  0  0  0  0  0
   28.5816  -22.2331  -16.2432 N   0  0  0  0  0  0  0  0  0  0  0  0
   27.5247  -21.7216  -15.3730 C   0  0  0  0  0  0  0  0  0  0  0  0
   26.5267  -22.4398  -15.1143 N   0  0  0  0  0  0  0  0  0  0  0  0
   27.6452  -20.4234  -14.8351 N   0  0  0  0  0  0  0  0  0  0  0  0
   26.7235  -19.7158  -14.0091 C   0  0  0  0  0  0  0  0  0  0  0  0
   25.3792  -19.4170  -14.5559 C   0  0  0  0  0  0  0  0  0  0  0  0
   25.3524  -18.1227  -15.4041 C   0  0  0  0  0  0  0  0  0  0  0  0
   24.0663  -17.8995  -16.0809 C   0  0  2  0  0  0  0  0  0  0  0  0
   23.9564  -16.6849  -16.8137 N   0  0  0  0  0  0  0  0  0  0  0  0
   22.8587  -18.2146  -15.2247 C   0  0  0  0  0  0  0  0  0  0  0  0
   22.5854  -17.5941  -14.1710 O   0  0  0  0  0  0  0  0  0  0  0  0
   25.7353  -22.2738  -14.5611 C   0  0  0  0  0  0  0  0  0  0  0  0
   18.3042  -20.1409  -14.9414 C   0  0  2  0  0  0  0  0  0  0  0  0
   19.5950  -19.9299  -15.6986 C   0  0  0  0  0  0  0  0  0  0  0  0
   19.3480  -18.8950  -16.7692 C   0  0  1  0  0  0  0  0  0  0  0  0
   20.7102  -19.4604  -14.8182 N   0  0  0  0  0  0  0  0  0  0  0  0
   21.9458  -19.2558  -15.5757 C   0  0  0  0  0  0  0  0  0  0  0  0
   20.9787  -20.4822  -13.7663 O   0  0  0  0  0  0  0  0  0  0  0  0
   20.4167  -20.3527  -12.4915 O   0  0  0  0  0  0  0  0  0  0  0  0
  1  2  1  0
  3  2  1  0
  4  5  1  0
  4  3  1  0
  5  1  1  0
  6  7  2  0
  5  6  1  1
  9 11  1  0
  9  8  1  0
 10  9  2  0
 12 11  1  0
 13 12  1  0
 13 14  1  0
 15 14  1  1
 15 16  1  0
 16  6  1  0
 17 18  2  0
 17 15  1  0
 20 19  1  6
 20 21  1  0
 22 20  1  0
 22 23  1  6
 23 17  1  0
 24 22  1  0
 25 24  1  0
 26 24  2  0
M  END
$$$$
