PRV.pdb
     RDKit          3D

 26 26  0  0  1  0  0  0  0  0999 V2000
   16.7629  -13.7434  -17.9055 N   0  0  0  0  0  0  0  0  0  0  0  0
   15.3695  -13.8315  -18.2047 C   0  0  0  0  0  0  0  0  0  0  0  0
   14.8807  -12.4685  -18.5728 C   0  0  0  0  0  0  0  0  0  0  0  0
   16.0225  -11.5723  -18.1773 C   0  0  0  0  0  0  0  0  0  0  0  0
   17.2328  -12.4426  -18.2512 C   0  0  1  0  0  0  0  0  0  0  0  0
   18.3310  -11.9846  -17.3297 C   0  0  0  0  0  0  0  0  0  0  0  0
   18.1217  -11.8804  -16.1010 O   0  0  0  0  0  0  0  0  0  0  0  0
   27.4172  -11.7095  -17.5085 N   0  0  0  0  0  0  0  0  0  0  0  0
   26.8884  -11.9004  -16.1595 C   0  0  0  0  0  0  0  0  0  0  0  0
   27.6754  -11.9482  -15.1813 N   0  0  0  0  0  0  0  0  0  0  0  0
   25.4953  -12.0272  -15.9786 N   0  0  0  0  0  0  0  0  0  0  0  0
   24.4698  -12.0446  -16.9688 C   0  0  0  0  0  0  0  0  0  0  0  0
   23.2109  -11.3160  -16.6865 C   0  0  0  0  0  0  0  0  0  0  0  0
   22.0203  -11.8287  -17.5319 C   0  0  0  0  0  0  0  0  0  0  0  0
   20.7482  -11.1692  -17.2019 C   0  0  2  0  0  0  0  0  0  0  0  0
   19.5984  -11.6755  -17.8697 N   0  0  0  0  0  0  0  0  0  0  0  0
   20.8290   -9.6583  -17.1724 C   0  0  0  0  0  0  0  0  0  0  0  0
   21.0242   -8.9627  -18.1963 O   0  0  0  0  0  0  0  0  0  0  0  0
   27.5145  -12.1045  -14.2275 C   0  0  0  0  0  0  0  0  0  0  0  0
   18.5514   -7.3476  -17.2642 C   0  0  2  0  0  0  0  0  0  0  0  0
   19.2886   -6.9157  -16.0176 C   0  0  0  0  0  0  0  0  0  0  0  0
   18.5127   -7.4057  -14.8192 C   0  0  2  0  0  0  0  0  0  0  0  0
   20.6799   -7.4627  -15.9514 N   0  0  0  0  0  0  0  0  0  0  0  0
   20.6846   -8.9264  -15.9542 C   0  0  0  0  0  0  0  0  0  0  0  0
   21.3371   -7.0024  -14.6950 O   0  0  0  0  0  0  0  0  0  0  0  0
   21.6450   -7.9148  -13.6799 O   0  0  0  0  0  0  0  0  0  0  0  0
  1  2  1  0
  3  2  1  0
  4  5  1  0
  4  3  1  0
  5  1  1  0
  6  7  2  0
  5  6  1  1
  9 11  1  0
  9  8  1  0
 10  9  2  0
 12 11  1  0
 13 12  1  0
 13 14  1  0
 15 14  1  6
 15 16  1  0
 16  6  1  0
 17 18  2  0
 17 15  1  0
 20 19  1  1
 20 21  1  0
 22 20  1  0
 22 23  1  1
 23 17  1  0
 24 22  1  0
 25 24  1  0
 26 24  2  0
M  END
$$$$
