PRV.pdb
     RDKit          3D

 26 26  0  0  1  0  0  0  0  0999 V2000
   28.2131  -20.6047  -15.6777 N   0  0  0  0  0  0  0  0  0  0  0  0
   29.4700  -21.2736  -15.7861 C   0  0  0  0  0  0  0  0  0  0  0  0
   29.3231  -22.3951  -16.7623 C   0  0  0  0  0  0  0  0  0  0  0  0
   27.8352  -22.4844  -16.9662 C   0  0  0  0  0  0  0  0  0  0  0  0
   27.3278  -21.1114  -16.6737 C   0  0  1  0  0  0  0  0  0  0  0  0
   25.8993  -21.1121  -16.2000 C   0  0  0  0  0  0  0  0  0  0  0  0
   24.9872  -21.5322  -16.9456 O   0  0  0  0  0  0  0  0  0  0  0  0
   25.0114  -21.1809   -7.6880 N   0  0  0  0  0  0  0  0  0  0  0  0
   23.8375  -21.1860   -8.5585 C   0  0  0  0  0  0  0  0  0  0  0  0
   22.6876  -21.1228   -8.0563 N   0  0  0  0  0  0  0  0  0  0  0  0
   24.0177  -21.2614   -9.9553 N   0  0  0  0  0  0  0  0  0  0  0  0
   25.2351  -21.3757  -10.6883 C   0  0  0  0  0  0  0  0  0  0  0  0
   25.1558  -21.5147  -12.1612 C   0  0  0  0  0  0  0  0  0  0  0  0
   24.3321  -20.3852  -12.8254 C   0  0  0  0  0  0  0  0  0  0  0  0
   24.3309  -20.4551  -14.2941 C   0  0  2  0  0  0  0  0  0  0  0  0
   25.6034  -20.6336  -14.9050 N   0  0  0  0  0  0  0  0  0  0  0  0
   23.4699  -19.4027  -14.9585 C   0  0  0  0  0  0  0  0  0  0  0  0
   23.7460  -18.1806  -14.9409 O   0  0  0  0  0  0  0  0  0  0  0  0
   21.7988  -21.1527   -8.4675 C   0  0  0  0  0  0  0  0  0  0  0  0
   20.2950  -18.0185  -18.4021 C   0  0  2  0  0  0  0  0  0  0  0  0
   21.1559  -19.0584  -17.7229 C   0  0  0  0  0  0  0  0  0  0  0  0
   22.4581  -19.1575  -18.4796 C   0  0  1  0  0  0  0  0  0  0  0  0
   21.4491  -18.7212  -16.2948 N   0  0  0  0  0  0  0  0  0  0  0  0
   22.2723  -19.7492  -15.6560 C   0  0  0  0  0  0  0  0  0  0  0  0
   20.1709  -18.6168  -15.5348 O   0  0  0  0  0  0  0  0  0  0  0  0
   19.7122  -19.6925  -14.7666 O   0  0  0  0  0  0  0  0  0  0  0  0
  1  2  1  0
  3  2  1  0
  4  5  1  0
  4  3  1  0
  5  1  1  0
  6  7  2  0
  5  6  1  1
  9 11  1  0
  9  8  1  0
 10  9  2  0
 12 11  1  0
 13 12  1  0
 13 14  1  0
 15 14  1  1
 15 16  1  0
 16  6  1  0
 17 18  2  0
 17 15  1  0
 20 19  1  6
 20 21  1  0
 22 20  1  0
 22 23  1  6
 23 17  1  0
 24 22  1  0
 25 24  1  0
 26 24  2  0
M  END
$$$$
