PRV.pdb
     RDKit          3D

 26 26  0  0  1  0  0  0  0  0999 V2000
   32.0025  -35.2352   -7.0249 N   0  0  0  0  0  0  0  0  0  0  0  0
   32.7756  -34.8304   -8.1550 C   0  0  0  0  0  0  0  0  0  0  0  0
   33.4102  -33.5142   -7.8434 C   0  0  0  0  0  0  0  0  0  0  0  0
   32.7074  -33.0796   -6.5863 C   0  0  0  0  0  0  0  0  0  0  0  0
   32.2651  -34.3497   -5.9389 C   0  0  1  0  0  0  0  0  0  0  0  0
   31.0521  -34.1624   -5.0679 C   0  0  0  0  0  0  0  0  0  0  0  0
   31.0958  -33.3949   -4.0813 O   0  0  0  0  0  0  0  0  0  0  0  0
   27.9633  -32.7317   -9.0684 N   0  0  0  0  0  0  0  0  0  0  0  0
   26.5346  -32.7478   -9.3757 C   0  0  0  0  0  0  0  0  0  0  0  0
   26.1172  -32.2131  -10.4332 N   0  0  0  0  0  0  0  0  0  0  0  0
   25.6445  -33.3681   -8.4743 N   0  0  0  0  0  0  0  0  0  0  0  0
   25.9449  -34.2531   -7.3978 C   0  0  0  0  0  0  0  0  0  0  0  0
   27.1747  -34.0054   -6.6095 C   0  0  0  0  0  0  0  0  0  0  0  0
   27.4333  -35.0985   -5.5448 C   0  0  0  0  0  0  0  0  0  0  0  0
   28.6120  -34.8264   -4.7089 C   0  0  2  0  0  0  0  0  0  0  0  0
   29.8664  -34.8628   -5.3793 N   0  0  0  0  0  0  0  0  0  0  0  0
   28.6021  -35.5490   -3.3792 C   0  0  0  0  0  0  0  0  0  0  0  0
   28.8608  -36.7693   -3.2608 O   0  0  0  0  0  0  0  0  0  0  0  0
   25.2106  -32.0953  -10.7853 C   0  0  0  0  0  0  0  0  0  0  0  0
   29.1666  -35.5458    1.4744 C   0  0  2  0  0  0  0  0  0  0  0  0
   29.1169  -34.8320    0.1433 C   0  0  0  0  0  0  0  0  0  0  0  0
   30.5312  -34.6797   -0.3615 C   0  0  1  0  0  0  0  0  0  0  0  0
   28.3142  -35.5732   -0.8792 N   0  0  0  0  0  0  0  0  0  0  0  0
   28.2921  -34.8687   -2.1620 C   0  0  0  0  0  0  0  0  0  0  0  0
   26.9075  -35.7103   -0.4047 O   0  0  0  0  0  0  0  0  0  0  0  0
   26.6049  -36.5248    0.6920 O   0  0  0  0  0  0  0  0  0  0  0  0
  1  2  1  0
  3  2  1  0
  4  5  1  0
  4  3  1  0
  5  1  1  0
  6  7  2  0
  5  6  1  6
  9 11  1  0
  9  8  1  0
 10  9  2  0
 12 11  1  0
 13 12  1  0
 13 14  1  0
 15 14  1  6
 15 16  1  0
 16  6  1  0
 17 18  2  0
 17 15  1  0
 20 19  1  1
 20 21  1  0
 22 20  1  0
 22 23  1  1
 23 17  1  0
 24 22  1  0
 25 24  1  0
 26 24  2  0
M  END
$$$$
