PRV.pdb
     RDKit          3D

 26 26  0  0  1  0  0  0  0  0999 V2000
   19.6399  -15.5550  -16.9568 N   0  0  0  0  0  0  0  0  0  0  0  0
   18.5161  -16.4252  -17.0927 C   0  0  0  0  0  0  0  0  0  0  0  0
   17.2791  -15.5895  -17.1542 C   0  0  0  0  0  0  0  0  0  0  0  0
   17.7637  -14.2232  -16.7521 C   0  0  0  0  0  0  0  0  0  0  0  0
   19.2088  -14.2066  -17.1254 C   0  0  1  0  0  0  0  0  0  0  0  0
   20.0130  -13.2555  -16.2806 C   0  0  0  0  0  0  0  0  0  0  0  0
   19.7154  -13.0716  -15.0798 O   0  0  0  0  0  0  0  0  0  0  0  0
   27.8598  -14.9474  -16.5333 N   0  0  0  0  0  0  0  0  0  0  0  0
   26.8471  -15.6139  -15.7171 C   0  0  0  0  0  0  0  0  0  0  0  0
   27.1019  -16.7259  -15.1909 N   0  0  0  0  0  0  0  0  0  0  0  0
   25.5944  -14.9924  -15.5329 N   0  0  0  0  0  0  0  0  0  0  0  0
   25.1658  -13.7090  -15.9819 C   0  0  0  0  0  0  0  0  0  0  0  0
   23.7685  -13.3009  -15.7062 C   0  0  0  0  0  0  0  0  0  0  0  0
   23.4102  -11.9316  -16.3325 C   0  0  0  0  0  0  0  0  0  0  0  0
   21.9749  -11.6201  -16.2635 C   0  0  2  0  0  0  0  0  0  0  0  0
   21.1060  -12.5756  -16.8606 N   0  0  0  0  0  0  0  0  0  0  0  0
   21.6408  -10.1842  -16.6052 C   0  0  0  0  0  0  0  0  0  0  0  0
   21.3776   -9.8005  -17.7687 O   0  0  0  0  0  0  0  0  0  0  0  0
   26.5289  -17.3663  -14.7202 C   0  0  0  0  0  0  0  0  0  0  0  0
   19.3321   -8.8996  -17.3884 C   0  0  2  0  0  0  0  0  0  0  0  0
   19.5896   -7.9378  -16.2514 C   0  0  0  0  0  0  0  0  0  0  0  0
   18.8125   -8.4136  -15.0482 C   0  0  2  0  0  0  0  0  0  0  0  0
   21.0386   -7.8481  -15.8887 N   0  0  0  0  0  0  0  0  0  0  0  0
   21.6058   -9.1669  -15.6030 C   0  0  0  0  0  0  0  0  0  0  0  0
   21.1957   -7.0052  -14.6691 O   0  0  0  0  0  0  0  0  0  0  0  0
   21.0418   -5.6164  -14.7419 O   0  0  0  0  0  0  0  0  0  0  0  0
  1  2  1  0
  3  2  1  0
  4  5  1  0
  4  3  1  0
  5  1  1  0
  6  7  2  0
  5  6  1  1
  9 11  1  0
  9  8  1  0
 10  9  2  0
 12 11  1  0
 13 12  1  0
 13 14  1  0
 15 14  1  6
 15 16  1  0
 16  6  1  0
 17 18  2  0
 17 15  1  0
 20 19  1  6
 20 21  1  0
 22 20  1  0
 22 23  1  6
 23 17  1  0
 24 22  1  0
 25 24  1  0
 26 24  2  0
M  END
$$$$
