PRV.pdb
     RDKit          3D

 26 26  0  0  1  0  0  0  0  0999 V2000
   22.1232  -21.6553  -14.1281 N   0  0  0  0  0  0  0  0  0  0  0  0
   22.6564  -21.3470  -15.4163 C   0  0  0  0  0  0  0  0  0  0  0  0
   22.7369  -19.8609  -15.5484 C   0  0  0  0  0  0  0  0  0  0  0  0
   21.9455  -19.3648  -14.3690 C   0  0  0  0  0  0  0  0  0  0  0  0
   22.0432  -20.4584  -13.3578 C   0  0  1  0  0  0  0  0  0  0  0  0
   20.8700  -20.4806  -12.4154 C   0  0  0  0  0  0  0  0  0  0  0  0
   20.5903  -19.4713  -11.7318 O   0  0  0  0  0  0  0  0  0  0  0  0
   13.9829  -23.6368  -11.5365 N   0  0  0  0  0  0  0  0  0  0  0  0
   13.2497  -22.3900  -11.7457 C   0  0  0  0  0  0  0  0  0  0  0  0
   12.1088  -22.2442  -11.2401 N   0  0  0  0  0  0  0  0  0  0  0  0
   13.8401  -21.3661  -12.5154 N   0  0  0  0  0  0  0  0  0  0  0  0
   15.1803  -21.2751  -12.9928 C   0  0  0  0  0  0  0  0  0  0  0  0
   16.2783  -21.6614  -12.0761 C   0  0  0  0  0  0  0  0  0  0  0  0
   17.6799  -21.4335  -12.6917 C   0  0  0  0  0  0  0  0  0  0  0  0
   18.7779  -21.8041  -11.7867 C   0  0  2  0  0  0  0  0  0  0  0  0
   20.0907  -21.6535  -12.3142 N   0  0  0  0  0  0  0  0  0  0  0  0
   18.5544  -23.1077  -11.0512 C   0  0  0  0  0  0  0  0  0  0  0  0
   18.7551  -24.2303  -11.5706 O   0  0  0  0  0  0  0  0  0  0  0  0
   11.4795  -21.4937  -11.2670 C   0  0  0  0  0  0  0  0  0  0  0  0
   18.0326  -25.4641   -6.6981 C   0  0  1  0  0  0  0  0  0  0  0  0
   18.0864  -24.1736   -7.4827 C   0  0  0  0  0  0  0  0  0  0  0  0
   19.3928  -23.4863   -7.1679 C   0  0  1  0  0  0  0  0  0  0  0  0
   17.9972  -24.3927   -8.9603 N   0  0  0  0  0  0  0  0  0  0  0  0
   18.0941  -23.1329   -9.6991 C   0  0  0  0  0  0  0  0  0  0  0  0
   16.6873  -25.0219   -9.2927 O   0  0  0  0  0  0  0  0  0  0  0  0
   16.5971  -26.4016   -9.5077 O   0  0  0  0  0  0  0  0  0  0  0  0
  1  2  1  0
  3  2  1  0
  4  5  1  0
  4  3  1  0
  5  1  1  0
  6  7  2  0
  5  6  1  1
  9 11  1  0
  9  8  1  0
 10  9  2  0
 12 11  1  0
 13 12  1  0
 13 14  1  0
 15 14  1  6
 15 16  1  0
 16  6  1  0
 17 18  2  0
 17 15  1  0
 20 19  1  1
 20 21  1  0
 22 20  1  0
 22 23  1  1
 23 17  1  0
 24 22  1  0
 25 24  1  0
 26 24  2  0
M  END
$$$$
