PRV.pdb
     RDKit          3D

 26 26  0  0  1  0  0  0  0  0999 V2000
   27.2895  -20.5844  -15.2783 N   0  0  0  0  0  0  0  0  0  0  0  0
   28.4229  -21.1818  -15.9088 C   0  0  0  0  0  0  0  0  0  0  0  0
   28.2707  -21.0333  -17.3876 C   0  0  0  0  0  0  0  0  0  0  0  0
   26.8461  -20.5764  -17.5453 C   0  0  0  0  0  0  0  0  0  0  0  0
   26.5214  -19.8916  -16.2594 C   0  0  1  0  0  0  0  0  0  0  0  0
   25.0508  -19.9267  -15.9414 C   0  0  0  0  0  0  0  0  0  0  0  0
   24.2321  -19.3286  -16.6737 O   0  0  0  0  0  0  0  0  0  0  0  0
   22.5598  -26.5891  -15.4375 N   0  0  0  0  0  0  0  0  0  0  0  0
   23.8944  -26.5180  -14.8463 C   0  0  0  0  0  0  0  0  0  0  0  0
   24.8565  -27.1024  -15.4044 N   0  0  0  0  0  0  0  0  0  0  0  0
   24.0799  -25.7891  -13.6531 N   0  0  0  0  0  0  0  0  0  0  0  0
   23.4814  -24.5548  -13.2649 C   0  0  0  0  0  0  0  0  0  0  0  0
   23.7380  -23.3584  -14.1004 C   0  0  0  0  0  0  0  0  0  0  0  0
   23.0922  -22.0758  -13.5233 C   0  0  0  0  0  0  0  0  0  0  0  0
   23.2748  -20.8972  -14.3833 C   0  0  2  0  0  0  0  0  0  0  0  0
   24.6087  -20.6429  -14.8078 N   0  0  0  0  0  0  0  0  0  0  0  0
   22.5346  -19.6669  -13.9047 C   0  0  0  0  0  0  0  0  0  0  0  0
   22.8283  -19.0581  -12.8497 O   0  0  0  0  0  0  0  0  0  0  0  0
   25.7836  -27.2409  -15.1193 C   0  0  0  0  0  0  0  0  0  0  0  0
   22.0283  -16.3492  -15.6646 C   0  0  2  0  0  0  0  0  0  0  0  0
   20.6713  -16.8800  -15.2635 C   0  0  0  0  0  0  0  0  0  0  0  0
   20.0287  -17.4963  -16.4823 C   0  0  2  0  0  0  0  0  0  0  0  0
   20.7520  -17.9125  -14.1833 N   0  0  0  0  0  0  0  0  0  0  0  0
   21.4399  -19.1203  -14.6419 C   0  0  0  0  0  0  0  0  0  0  0  0
   19.3759  -18.2989  -13.7596 O   0  0  0  0  0  0  0  0  0  0  0  0
   18.8737  -19.5711  -14.0547 O   0  0  0  0  0  0  0  0  0  0  0  0
  1  2  1  0
  3  2  1  0
  4  5  1  0
  4  3  1  0
  5  1  1  0
  6  7  2  0
  5  6  1  1
  9 11  1  0
  9  8  1  0
 10  9  2  0
 12 11  1  0
 13 12  1  0
 13 14  1  0
 15 14  1  1
 15 16  1  0
 16  6  1  0
 17 18  2  0
 17 15  1  0
 20 19  1  6
 20 21  1  0
 22 20  1  0
 22 23  1  1
 23 17  1  0
 24 22  1  0
 25 24  1  0
 26 24  2  0
M  END
$$$$
