PRV.pdb
     RDKit          3D

 26 26  0  0  1  0  0  0  0  0999 V2000
   26.9257  -17.1363  -18.6158 N   0  0  0  0  0  0  0  0  0  0  0  0
   28.0778  -16.5468  -19.2190 C   0  0  0  0  0  0  0  0  0  0  0  0
   28.9685  -17.6442  -19.7032 C   0  0  0  0  0  0  0  0  0  0  0  0
   28.3767  -18.8749  -19.0719 C   0  0  0  0  0  0  0  0  0  0  0  0
   26.9372  -18.5404  -18.8623 C   0  0  1  0  0  0  0  0  0  0  0  0
   26.3250  -19.3103  -17.7232 C   0  0  0  0  0  0  0  0  0  0  0  0
   26.2591  -20.5585  -17.7682 O   0  0  0  0  0  0  0  0  0  0  0  0
   25.8330  -22.2127  -11.4340 N   0  0  0  0  0  0  0  0  0  0  0  0
   27.0369  -21.4009  -11.2685 C   0  0  0  0  0  0  0  0  0  0  0  0
   28.1412  -21.9590  -11.0502 N   0  0  0  0  0  0  0  0  0  0  0  0
   26.9371  -19.9969  -11.3584 N   0  0  0  0  0  0  0  0  0  0  0  0
   25.7922  -19.2066  -11.6700 C   0  0  0  0  0  0  0  0  0  0  0  0
   25.0961  -19.4574  -12.9536 C   0  0  0  0  0  0  0  0  0  0  0  0
   25.8562  -18.8761  -14.1701 C   0  0  0  0  0  0  0  0  0  0  0  0
   25.1754  -19.1209  -15.4502 C   0  0  2  0  0  0  0  0  0  0  0  0
   25.8277  -18.6060  -16.6051 N   0  0  0  0  0  0  0  0  0  0  0  0
   23.6857  -18.8568  -15.4140 C   0  0  0  0  0  0  0  0  0  0  0  0
   23.1962  -17.7158  -15.2448 O   0  0  0  0  0  0  0  0  0  0  0  0
   29.0286  -21.5881  -10.8634 C   0  0  0  0  0  0  0  0  0  0  0  0
   21.1398  -20.1310  -18.0954 C   0  0  2  0  0  0  0  0  0  0  0  0
   20.6328  -20.4476  -16.7073 C   0  0  0  0  0  0  0  0  0  0  0  0
   20.8930  -21.9090  -16.4339 C   0  0  2  0  0  0  0  0  0  0  0  0
   21.3020  -19.6294  -15.6481 N   0  0  0  0  0  0  0  0  0  0  0  0
   22.7362  -19.9121  -15.5739 C   0  0  0  0  0  0  0  0  0  0  0  0
   20.7011  -19.9447  -14.3208 O   0  0  0  0  0  0  0  0  0  0  0  0
   19.4487  -19.4296  -13.9686 O   0  0  0  0  0  0  0  0  0  0  0  0
  1  2  1  0
  3  2  1  0
  4  5  1  0
  4  3  1  0
  5  1  1  0
  6  7  2  0
  5  6  1  1
  9 11  1  0
  9  8  1  0
 10  9  2  0
 12 11  1  0
 13 12  1  0
 13 14  1  0
 15 14  1  1
 15 16  1  0
 16  6  1  0
 17 18  2  0
 17 15  1  0
 20 19  1  6
 20 21  1  0
 22 20  1  0
 22 23  1  1
 23 17  1  0
 24 22  1  0
 25 24  1  0
 26 24  2  0
M  END
$$$$
