PRV.pdb
     RDKit          3D

 26 26  0  0  1  0  0  0  0  0999 V2000
   26.5222  -17.4266  -17.4433 N   0  0  0  0  0  0  0  0  0  0  0  0
   26.5714  -17.0489  -18.8195 C   0  0  0  0  0  0  0  0  0  0  0  0
   25.2982  -17.4806  -19.4713 C   0  0  0  0  0  0  0  0  0  0  0  0
   24.6674  -18.3764  -18.4402 C   0  0  0  0  0  0  0  0  0  0  0  0
   25.2123  -17.8978  -17.1356 C   0  0  1  0  0  0  0  0  0  0  0  0
   25.2416  -18.9798  -16.0899 C   0  0  0  0  0  0  0  0  0  0  0  0
   24.1804  -19.5277  -15.7185 O   0  0  0  0  0  0  0  0  0  0  0  0
   28.0551  -25.8751  -16.0359 N   0  0  0  0  0  0  0  0  0  0  0  0
   28.3519  -25.1287  -17.2568 C   0  0  0  0  0  0  0  0  0  0  0  0
   27.9235  -25.5442  -18.3624 N   0  0  0  0  0  0  0  0  0  0  0  0
   29.1179  -23.9474  -17.1714 N   0  0  0  0  0  0  0  0  0  0  0  0
   29.1048  -22.9531  -16.1498 C   0  0  0  0  0  0  0  0  0  0  0  0
   27.8367  -22.2322  -15.8900 C   0  0  0  0  0  0  0  0  0  0  0  0
   27.9746  -21.1584  -14.7840 C   0  0  0  0  0  0  0  0  0  0  0  0
   26.7439  -20.3819  -14.5730 C   0  0  2  0  0  0  0  0  0  0  0  0
   26.4808  -19.3676  -15.5353 N   0  0  0  0  0  0  0  0  0  0  0  0
   26.5329  -19.9425  -13.1402 C   0  0  0  0  0  0  0  0  0  0  0  0
   27.2499  -19.0848  -12.5742 O   0  0  0  0  0  0  0  0  0  0  0  0
   28.0268  -25.1920  -19.2708 C   0  0  0  0  0  0  0  0  0  0  0  0
   22.8981  -19.6566  -11.1897 C   0  0  2  0  0  0  0  0  0  0  0  0
   23.9655  -20.4000  -10.4202 C   0  0  0  0  0  0  0  0  0  0  0  0
   23.6900  -21.8788  -10.5438 C   0  0  2  0  0  0  0  0  0  0  0  0
   25.3445  -20.1193  -10.9289 N   0  0  0  0  0  0  0  0  0  0  0  0
   25.4856  -20.4900  -12.3378 C   0  0  0  0  0  0  0  0  0  0  0  0
   26.3357  -20.9088  -10.1435 O   0  0  0  0  0  0  0  0  0  0  0  0
   26.7006  -20.5073   -8.8537 O   0  0  0  0  0  0  0  0  0  0  0  0
  1  2  1  0
  3  2  1  0
  4  5  1  0
  4  3  1  0
  5  1  1  0
  6  7  2  0
  5  6  1  1
  9 11  1  0
  9  8  1  0
 10  9  2  0
 12 11  1  0
 13 12  1  0
 13 14  1  0
 15 14  1  1
 15 16  1  0
 16  6  1  0
 17 18  2  0
 17 15  1  0
 20 19  1  1
 20 21  1  0
 22 20  1  0
 22 23  1  1
 23 17  1  0
 24 22  1  0
 25 24  1  0
 26 24  2  0
M  END
$$$$
