PRV.pdb
     RDKit          3D

 26 26  0  0  1  0  0  0  0  0999 V2000
   26.3389  -24.7226  -18.5208 N   0  0  0  0  0  0  0  0  0  0  0  0
   25.9727  -23.5093  -17.8632 C   0  0  0  0  0  0  0  0  0  0  0  0
   26.0914  -23.7193  -16.3888 C   0  0  0  0  0  0  0  0  0  0  0  0
   26.2650  -25.2085  -16.2637 C   0  0  0  0  0  0  0  0  0  0  0  0
   26.8720  -25.6312  -17.5602 C   0  0  1  0  0  0  0  0  0  0  0  0
   26.5531  -27.0601  -17.9088 C   0  0  0  0  0  0  0  0  0  0  0  0
   25.5708  -27.3286  -18.6349 O   0  0  0  0  0  0  0  0  0  0  0  0
   32.0293  -34.0156  -17.1199 N   0  0  0  0  0  0  0  0  0  0  0  0
   31.7929  -32.6079  -16.8058 C   0  0  0  0  0  0  0  0  0  0  0  0
   32.6388  -31.9678  -16.1327 N   0  0  0  0  0  0  0  0  0  0  0  0
   30.6124  -31.9893  -17.2676 N   0  0  0  0  0  0  0  0  0  0  0  0
   29.3706  -32.5962  -17.6170 C   0  0  0  0  0  0  0  0  0  0  0  0
   28.2860  -31.7271  -18.1304 C   0  0  0  0  0  0  0  0  0  0  0  0
   28.5029  -30.2336  -17.7873 C   0  0  0  0  0  0  0  0  0  0  0  0
   27.2466  -29.4968  -17.5847 C   0  0  2  0  0  0  0  0  0  0  0  0
   27.3766  -28.0912  -17.4068 N   0  0  0  0  0  0  0  0  0  0  0  0
   26.2980  -30.1571  -16.6076 C   0  0  0  0  0  0  0  0  0  0  0  0
   26.4823  -30.1578  -15.3682 O   0  0  0  0  0  0  0  0  0  0  0  0
   32.7140  -31.0130  -15.9263 C   0  0  0  0  0  0  0  0  0  0  0  0
   21.6663  -31.4825  -15.5995 C   0  0  2  0  0  0  0  0  0  0  0  0
   22.7243  -30.9899  -16.5597 C   0  0  0  0  0  0  0  0  0  0  0  0
   22.5730  -29.4946  -16.6990 C   0  0  1  0  0  0  0  0  0  0  0  0
   24.1132  -31.2956  -16.0942 N   0  0  0  0  0  0  0  0  0  0  0  0
   25.1177  -30.8287  -17.0508 C   0  0  0  0  0  0  0  0  0  0  0  0
   24.2740  -32.7697  -15.9401 O   0  0  0  0  0  0  0  0  0  0  0  0
   24.1092  -33.3745  -14.6891 O   0  0  0  0  0  0  0  0  0  0  0  0
  1  2  1  0
  3  2  1  0
  4  5  1  0
  4  3  1  0
  5  1  1  0
  6  7  2  0
  5  6  1  6
  9 11  1  0
  9  8  1  0
 10  9  2  0
 12 11  1  0
 13 12  1  0
 13 14  1  0
 15 14  1  1
 15 16  1  0
 16  6  1  0
 17 18  2  0
 17 15  1  0
 20 19  1  6
 20 21  1  0
 22 20  1  0
 22 23  1  6
 23 17  1  0
 24 22  1  0
 25 24  1  0
 26 24  2  0
M  END
$$$$
