VVE.pdb
     RDKit          3D

 24 23  0  0  1  0  0  0  0  0999 V2000
    6.5316  -11.2198   26.7503 C   0  0  0  0  0  0  0  0  0  0  0  0
    7.2267  -12.4253   26.1458 C   0  0  1  0  0  0  0  0  0  0  0  0
    8.0217  -13.1145   27.2071 C   0  0  0  0  0  0  0  0  0  0  0  0
    6.2301  -13.3458   25.4609 C   0  0  2  0  0  0  0  0  0  0  0  0
    5.2790  -13.8051   26.4242 N   0  0  0  0  0  0  0  0  0  0  0  0
    6.8858  -14.4125   24.6996 C   0  0  0  0  0  0  0  0  0  0  0  0
    7.0865  -15.5167   25.2670 O   0  0  0  0  0  0  0  0  0  0  0  0
    6.8355  -14.6571   20.5495 C   0  0  0  0  0  0  0  0  0  0  0  0
    8.1824  -14.8998   21.1482 C   0  0  2  0  0  0  0  0  0  0  0  0
    8.9313  -15.9903   20.4048 C   0  0  0  0  0  0  0  0  0  0  0  0
    8.0372  -15.2696   22.6282 C   0  0  2  0  0  0  0  0  0  0  0  0
    7.3100  -14.2705   23.3500 N   0  0  0  0  0  0  0  0  0  0  0  0
    9.4318  -15.3827   23.1807 C   0  0  0  0  0  0  0  0  0  0  0  0
   10.0605  -14.3803   23.5874 O   0  0  0  0  0  0  0  0  0  0  0  0
   10.0944  -16.6345   23.2637 N   0  0  0  0  0  0  0  0  0  0  0  0
   11.4698  -16.7163   23.7353 C   0  0  1  0  0  0  0  0  0  0  0  0
   11.4037  -17.0010   25.1951 C   0  0  0  0  0  0  0  0  0  0  0  0
   10.7001  -18.2431   25.6018 C   0  0  0  0  0  0  0  0  0  0  0  0
   10.7252  -18.5495   27.0381 C   0  0  0  0  0  0  0  0  0  0  0  0
   11.5733  -18.0461   27.7849 O   0  0  0  0  0  0  0  0  0  0  0  0
   12.2411  -17.7293   22.9744 C   0  0  0  0  0  0  0  0  0  0  0  0
   11.7235  -18.5440   22.1676 O   0  0  0  0  0  0  0  0  0  0  0  0
    9.7745  -19.4235   27.5628 O   0  0  0  0  0  0  0  0  0  0  0  0
   13.6160  -17.8008   23.1465 O   0  0  0  0  0  0  0  0  0  0  0  0
  2  1  1  1
  3  2  1  0
  4  2  1  0
  4  6  1  0
  4  5  1  1
  6  7  2  0
  9  8  1  6
  9 10  1  0
  9 11  1  0
 11 13  1  0
 11 12  1  1
 12  6  1  0
 13 14  2  0
 15 13  1  0
 15 16  1  0
 16 21  1  0
 16 17  1  1
 18 17  1  0
 19 18  1  0
 20 19  2  0
 21 22  2  0
 21 24  1  0
 23 19  1  0
M  END
$$$$
