VVE.pdb
     RDKit          3D

 24 23  0  0  1  0  0  0  0  0999 V2000
    6.2278  -14.3055   19.4591 C   0  0  0  0  0  0  0  0  0  0  0  0
    6.7742  -14.6149   20.8401 C   0  0  1  0  0  0  0  0  0  0  0  0
    7.3577  -15.9908   20.8381 C   0  0  0  0  0  0  0  0  0  0  0  0
    7.7643  -13.5526   21.2881 C   0  0  2  0  0  0  0  0  0  0  0  0
    8.7973  -13.4326   20.3074 N   0  0  0  0  0  0  0  0  0  0  0  0
    8.2472  -13.7782   22.6532 C   0  0  0  0  0  0  0  0  0  0  0  0
    9.2232  -14.5528   22.8227 O   0  0  0  0  0  0  0  0  0  0  0  0
    7.8102  -12.8487   27.5373 C   0  0  0  0  0  0  0  0  0  0  0  0
    7.2819  -12.6209   26.1587 C   0  0  2  0  0  0  0  0  0  0  0  0
    5.8272  -13.0378   26.0464 C   0  0  0  0  0  0  0  0  0  0  0  0
    8.1337  -13.3857   25.1399 C   0  0  2  0  0  0  0  0  0  0  0  0
    7.6732  -13.1690   23.8024 N   0  0  0  0  0  0  0  0  0  0  0  0
    8.0137  -14.8439   25.4895 C   0  0  0  0  0  0  0  0  0  0  0  0
    6.9442  -15.4726   25.3267 O   0  0  0  0  0  0  0  0  0  0  0  0
    9.1115  -15.5693   26.0202 N   0  0  0  0  0  0  0  0  0  0  0  0
    8.9740  -16.9779   26.3632 C   0  0  1  0  0  0  0  0  0  0  0  0
    9.6130  -17.7492   25.2618 C   0  0  0  0  0  0  0  0  0  0  0  0
   11.0852  -17.6198   25.1230 C   0  0  0  0  0  0  0  0  0  0  0  0
   11.6865  -18.3482   23.9981 C   0  0  0  0  0  0  0  0  0  0  0  0
   11.0011  -19.0706   23.2641 O   0  0  0  0  0  0  0  0  0  0  0  0
    9.5560  -17.2672   27.6965 C   0  0  0  0  0  0  0  0  0  0  0  0
    9.4961  -18.3909   28.2588 O   0  0  0  0  0  0  0  0  0  0  0  0
   13.0537  -18.2192   23.7586 O   0  0  0  0  0  0  0  0  0  0  0  0
   10.2099  -16.2538   28.3824 O   0  0  0  0  0  0  0  0  0  0  0  0
  2  1  1  6
  3  2  1  0
  4  2  1  0
  4  6  1  0
  4  5  1  6
  6  7  2  0
  9  8  1  1
  9 10  1  0
  9 11  1  0
 11 13  1  0
 11 12  1  6
 12  6  1  0
 13 14  2  0
 15 13  1  0
 15 16  1  0
 16 21  1  0
 16 17  1  6
 18 17  1  0
 19 18  1  0
 20 19  2  0
 21 22  2  0
 21 24  1  0
 23 19  1  0
M  END
$$$$
