VVE.pdb
     RDKit          3D

 24 23  0  0  1  0  0  0  0  0999 V2000
    4.2343  -18.9081   22.7688 C   0  0  0  0  0  0  0  0  0  0  0  0
    5.4901  -18.1666   23.1872 C   0  0  1  0  0  0  0  0  0  0  0  0
    6.6806  -18.8471   22.5930 C   0  0  0  0  0  0  0  0  0  0  0  0
    5.4050  -16.6944   22.8196 C   0  0  2  0  0  0  0  0  0  0  0  0
    5.0815  -16.5765   21.4323 N   0  0  0  0  0  0  0  0  0  0  0  0
    6.5958  -15.9456   23.2306 C   0  0  0  0  0  0  0  0  0  0  0  0
    7.5929  -15.9389   22.4643 O   0  0  0  0  0  0  0  0  0  0  0  0
    6.8732  -14.2223   27.1343 C   0  0  0  0  0  0  0  0  0  0  0  0
    7.5401  -13.5213   25.9960 C   0  0  2  0  0  0  0  0  0  0  0  0
    6.6786  -12.3941   25.4577 C   0  0  0  0  0  0  0  0  0  0  0  0
    7.8611  -14.5231   24.8817 C   0  0  2  0  0  0  0  0  0  0  0  0
    6.6893  -15.2229   24.4514 N   0  0  0  0  0  0  0  0  0  0  0  0
    8.8542  -15.4973   25.4541 C   0  0  0  0  0  0  0  0  0  0  0  0
    8.4881  -16.5358   26.0483 O   0  0  0  0  0  0  0  0  0  0  0  0
   10.2516  -15.2785   25.3438 N   0  0  0  0  0  0  0  0  0  0  0  0
   11.1946  -16.3572   25.6047 C   0  0  1  0  0  0  0  0  0  0  0  0
   12.4311  -16.0368   24.8398 C   0  0  0  0  0  0  0  0  0  0  0  0
   13.6220  -16.8799   25.1125 C   0  0  0  0  0  0  0  0  0  0  0  0
   14.8349  -16.5333   24.3601 C   0  0  0  0  0  0  0  0  0  0  0  0
   14.8314  -15.6192   23.5266 O   0  0  0  0  0  0  0  0  0  0  0  0
   11.4317  -16.5258   27.0592 C   0  0  0  0  0  0  0  0  0  0  0  0
   11.1184  -15.6683   27.9247 O   0  0  0  0  0  0  0  0  0  0  0  0
   16.0072  -17.2504   24.5937 O   0  0  0  0  0  0  0  0  0  0  0  0
   12.0332  -17.6900   27.5150 O   0  0  0  0  0  0  0  0  0  0  0  0
  2  1  1  6
  3  2  1  0
  4  2  1  0
  4  6  1  0
  4  5  1  6
  6  7  2  0
  9  8  1  1
  9 10  1  0
  9 11  1  0
 11 13  1  0
 11 12  1  1
 12  6  1  0
 13 14  2  0
 15 13  1  0
 15 16  1  0
 16 21  1  0
 16 17  1  6
 18 17  1  0
 19 18  1  0
 20 19  2  0
 21 22  2  0
 21 24  1  0
 23 19  1  0
M  END
$$$$
