VVE.pdb
     RDKit          3D

 24 23  0  0  1  0  0  0  0  0999 V2000
    5.5566  -19.2300   22.8104 C   0  0  0  0  0  0  0  0  0  0  0  0
    6.4151  -18.2905   23.6363 C   0  0  1  0  0  0  0  0  0  0  0  0
    7.5677  -19.0536   24.2045 C   0  0  0  0  0  0  0  0  0  0  0  0
    6.8486  -17.0843   22.8197 C   0  0  2  0  0  0  0  0  0  0  0  0
    7.4709  -17.5347   21.6142 N   0  0  0  0  0  0  0  0  0  0  0  0
    7.6519  -16.1397   23.6007 C   0  0  0  0  0  0  0  0  0  0  0  0
    8.8967  -16.3111   23.6513 O   0  0  0  0  0  0  0  0  0  0  0  0
    7.8465  -12.0928   26.5123 C   0  0  0  0  0  0  0  0  0  0  0  0
    7.0174  -12.9849   25.6471 C   0  0  2  0  0  0  0  0  0  0  0  0
    5.7969  -13.4979   26.3885 C   0  0  0  0  0  0  0  0  0  0  0  0
    7.8647  -14.1581   25.1431 C   0  0  2  0  0  0  0  0  0  0  0  0
    7.1025  -15.0353   24.3078 N   0  0  0  0  0  0  0  0  0  0  0  0
    8.3379  -14.9003   26.3629 C   0  0  0  0  0  0  0  0  0  0  0  0
    7.5693  -15.6321   27.0259 O   0  0  0  0  0  0  0  0  0  0  0  0
    9.6793  -14.8012   26.8140 N   0  0  0  0  0  0  0  0  0  0  0  0
   10.1328  -15.5658   27.9676 C   0  0  1  0  0  0  0  0  0  0  0  0
   11.3140  -16.3535   27.5194 C   0  0  0  0  0  0  0  0  0  0  0  0
   11.2169  -17.8297   27.6405 C   0  0  0  0  0  0  0  0  0  0  0  0
   12.3488  -18.5905   27.0949 C   0  0  0  0  0  0  0  0  0  0  0  0
   13.3053  -18.0180   26.5588 O   0  0  0  0  0  0  0  0  0  0  0  0
   10.4220  -14.6799   29.1215 C   0  0  0  0  0  0  0  0  0  0  0  0
   10.7090  -15.0989   30.2725 O   0  0  0  0  0  0  0  0  0  0  0  0
   12.3390  -19.9815   27.1858 O   0  0  0  0  0  0  0  0  0  0  0  0
   10.3794  -13.3045   28.9445 O   0  0  0  0  0  0  0  0  0  0  0  0
  2  1  1  6
  3  2  1  0
  4  2  1  0
  4  6  1  0
  4  5  1  6
  6  7  2  0
  9  8  1  1
  9 10  1  0
  9 11  1  0
 11 13  1  0
 11 12  1  6
 12  6  1  0
 13 14  2  0
 15 13  1  0
 15 16  1  0
 16 21  1  0
 16 17  1  6
 18 17  1  0
 19 18  1  0
 20 19  2  0
 21 22  2  0
 21 24  1  0
 23 19  1  0
M  END
$$$$
