VVE.pdb
     RDKit          3D

 24 23  0  0  1  0  0  0  0  0999 V2000
    5.9047  -16.0079   19.9203 C   0  0  0  0  0  0  0  0  0  0  0  0
    6.6790  -15.8618   21.2168 C   0  0  1  0  0  0  0  0  0  0  0  0
    7.5430  -17.0660   21.4087 C   0  0  0  0  0  0  0  0  0  0  0  0
    7.4632  -14.5603   21.2427 C   0  0  2  0  0  0  0  0  0  0  0  0
    8.3098  -14.5013   20.0924 N   0  0  0  0  0  0  0  0  0  0  0  0
    8.1557  -14.3499   22.5169 C   0  0  0  0  0  0  0  0  0  0  0  0
    9.3144  -14.8192   22.6533 O   0  0  0  0  0  0  0  0  0  0  0  0
    8.2337  -12.2752   27.0451 C   0  0  0  0  0  0  0  0  0  0  0  0
    7.4834  -12.4852   25.7705 C   0  0  2  0  0  0  0  0  0  0  0  0
    6.0691  -12.9686   26.0328 C   0  0  0  0  0  0  0  0  0  0  0  0
    8.2309  -13.4864   24.8833 C   0  0  2  0  0  0  0  0  0  0  0  0
    7.5905  -13.6424   23.6130 N   0  0  0  0  0  0  0  0  0  0  0  0
    8.2269  -14.7981   25.6198 C   0  0  0  0  0  0  0  0  0  0  0  0
    7.4203  -15.7104   25.3324 O   0  0  0  0  0  0  0  0  0  0  0  0
    9.1404  -15.0561   26.6742 N   0  0  0  0  0  0  0  0  0  0  0  0
    9.6226  -16.4074   26.9243 C   0  0  1  0  0  0  0  0  0  0  0  0
   10.4415  -16.7933   25.7423 C   0  0  0  0  0  0  0  0  0  0  0  0
   11.1029  -18.1212   25.7932 C   0  0  0  0  0  0  0  0  0  0  0  0
   11.8881  -18.4889   24.6076 C   0  0  0  0  0  0  0  0  0  0  0  0
   11.7255  -19.5786   24.0452 O   0  0  0  0  0  0  0  0  0  0  0  0
   10.3673  -16.4856   28.2047 C   0  0  0  0  0  0  0  0  0  0  0  0
   10.7741  -17.5613   28.7146 O   0  0  0  0  0  0  0  0  0  0  0  0
   12.8315  -17.5900   24.1122 O   0  0  0  0  0  0  0  0  0  0  0  0
   10.6429  -15.3160   28.8983 O   0  0  0  0  0  0  0  0  0  0  0  0
  2  1  1  6
  3  2  1  0
  4  2  1  0
  4  6  1  0
  4  5  1  6
  6  7  2  0
  9  8  1  1
  9 10  1  0
  9 11  1  0
 11 13  1  0
 11 12  1  6
 12  6  1  0
 13 14  2  0
 15 13  1  0
 15 16  1  0
 16 21  1  0
 16 17  1  6
 18 17  1  0
 19 18  1  0
 20 19  2  0
 21 22  2  0
 21 24  1  0
 23 19  1  0
M  END
$$$$
