VVE.pdb
     RDKit          3D

 24 23  0  0  1  0  0  0  0  0999 V2000
    6.0422  -17.0120   20.4384 C   0  0  0  0  0  0  0  0  0  0  0  0
    6.8558  -16.6212   21.6579 C   0  0  1  0  0  0  0  0  0  0  0  0
    8.0680  -17.4919   21.7365 C   0  0  0  0  0  0  0  0  0  0  0  0
    7.1916  -15.1391   21.6403 C   0  0  2  0  0  0  0  0  0  0  0  0
    7.8649  -14.8264   20.4187 N   0  0  0  0  0  0  0  0  0  0  0  0
    7.9000  -14.7118   22.8499 C   0  0  0  0  0  0  0  0  0  0  0  0
    9.1574  -14.7147   22.8399 O   0  0  0  0  0  0  0  0  0  0  0  0
    6.6110  -11.8884   25.6013 C   0  0  0  0  0  0  0  0  0  0  0  0
    7.0118  -13.1897   26.2159 C   0  0  2  0  0  0  0  0  0  0  0  0
    7.7073  -12.9826   27.5486 C   0  0  0  0  0  0  0  0  0  0  0  0
    7.9228  -13.9621   25.2558 C   0  0  2  0  0  0  0  0  0  0  0  0
    7.2444  -14.2922   24.0397 N   0  0  0  0  0  0  0  0  0  0  0  0
    8.3287  -15.2221   25.9704 C   0  0  0  0  0  0  0  0  0  0  0  0
    7.4862  -16.0764   26.3254 O   0  0  0  0  0  0  0  0  0  0  0  0
    9.6878  -15.4951   26.2725 N   0  0  0  0  0  0  0  0  0  0  0  0
   10.0669  -16.7391   26.9279 C   0  0  1  0  0  0  0  0  0  0  0  0
   11.2859  -17.2338   26.2309 C   0  0  0  0  0  0  0  0  0  0  0  0
   11.8636  -18.5102   26.7212 C   0  0  0  0  0  0  0  0  0  0  0  0
   13.1101  -18.9374   26.0723 C   0  0  0  0  0  0  0  0  0  0  0  0
   14.1221  -19.1929   26.7364 O   0  0  0  0  0  0  0  0  0  0  0  0
   10.2632  -16.5427   28.3849 C   0  0  0  0  0  0  0  0  0  0  0  0
   10.4817  -15.4247   28.9185 O   0  0  0  0  0  0  0  0  0  0  0  0
   13.1473  -19.0550   24.6838 O   0  0  0  0  0  0  0  0  0  0  0  0
   10.2065  -17.6428   29.2284 O   0  0  0  0  0  0  0  0  0  0  0  0
  2  1  1  6
  3  2  1  0
  4  2  1  0
  4  6  1  0
  4  5  1  6
  6  7  2  0
  9  8  1  6
  9 10  1  0
  9 11  1  0
 11 13  1  0
 11 12  1  6
 12  6  1  0
 13 14  2  0
 15 13  1  0
 15 16  1  0
 16 21  1  0
 16 17  1  6
 18 17  1  0
 19 18  1  0
 20 19  2  0
 21 22  2  0
 21 24  1  0
 23 19  1  0
M  END
$$$$
