VVE.pdb
     RDKit          3D

 24 23  0  0  1  0  0  0  0  0999 V2000
    9.1841  -20.3934   20.2604 C   0  0  0  0  0  0  0  0  0  0  0  0
    9.1336  -19.9426   18.8127 C   0  0  1  0  0  0  0  0  0  0  0  0
    8.5936  -21.0546   17.9727 C   0  0  0  0  0  0  0  0  0  0  0  0
    8.3422  -18.6533   18.6677 C   0  0  2  0  0  0  0  0  0  0  0  0
    8.2117  -18.3379   17.2796 N   0  0  0  0  0  0  0  0  0  0  0  0
    8.8866  -17.5676   19.4878 C   0  0  0  0  0  0  0  0  0  0  0  0
   10.0821  -17.2221   19.3068 O   0  0  0  0  0  0  0  0  0  0  0  0
    6.9428  -14.2050   20.6757 C   0  0  0  0  0  0  0  0  0  0  0  0
    7.5778  -14.9108   21.8291 C   0  0  2  0  0  0  0  0  0  0  0  0
    8.1515  -13.9280   22.8329 C   0  0  0  0  0  0  0  0  0  0  0  0
    8.6742  -15.8549   21.3242 C   0  0  2  0  0  0  0  0  0  0  0  0
    8.1376  -16.8792   20.4811 N   0  0  0  0  0  0  0  0  0  0  0  0
    9.3005  -16.4753   22.5432 C   0  0  0  0  0  0  0  0  0  0  0  0
    8.6854  -17.3078   23.2462 O   0  0  0  0  0  0  0  0  0  0  0  0
   10.6187  -16.1412   22.9478 N   0  0  0  0  0  0  0  0  0  0  0  0
   11.2121  -16.7581   24.1260 C   0  0  1  0  0  0  0  0  0  0  0  0
   12.6772  -16.5056   24.0472 C   0  0  0  0  0  0  0  0  0  0  0  0
   13.3681  -16.9628   22.8155 C   0  0  0  0  0  0  0  0  0  0  0  0
   14.8128  -16.7036   22.7607 C   0  0  0  0  0  0  0  0  0  0  0  0
   15.3382  -15.8529   23.4891 O   0  0  0  0  0  0  0  0  0  0  0  0
   10.5943  -16.2437   25.3726 C   0  0  0  0  0  0  0  0  0  0  0  0
    9.8286  -15.2465   25.4159 O   0  0  0  0  0  0  0  0  0  0  0  0
   15.6002  -17.4320   21.8705 O   0  0  0  0  0  0  0  0  0  0  0  0
   10.8626  -16.8844   26.5736 O   0  0  0  0  0  0  0  0  0  0  0  0
  2  1  1  1
  3  2  1  0
  4  2  1  0
  4  6  1  0
  4  5  1  6
  6  7  2  0
  9  8  1  6
  9 10  1  0
  9 11  1  0
 11 13  1  0
 11 12  1  6
 12  6  1  0
 13 14  2  0
 15 13  1  0
 15 16  1  0
 16 21  1  0
 16 17  1  1
 18 17  1  0
 19 18  1  0
 20 19  2  0
 21 22  2  0
 21 24  1  0
 23 19  1  0
M  END
$$$$
