VVE.pdb
     RDKit          3D

 24 23  0  0  1  0  0  0  0  0999 V2000
    7.0342  -17.3236   23.0250 C   0  0  0  0  0  0  0  0  0  0  0  0
    7.4636  -16.6661   21.7269 C   0  0  1  0  0  0  0  0  0  0  0  0
    6.7005  -17.2744   20.5950 C   0  0  0  0  0  0  0  0  0  0  0  0
    7.3097  -15.1560   21.8007 C   0  0  2  0  0  0  0  0  0  0  0  0
    7.6282  -14.5905   20.5271 N   0  0  0  0  0  0  0  0  0  0  0  0
    8.0471  -14.5729   22.9249 C   0  0  0  0  0  0  0  0  0  0  0  0
    9.3037  -14.5654   22.8772 O   0  0  0  0  0  0  0  0  0  0  0  0
    7.9941  -12.2761   27.3470 C   0  0  0  0  0  0  0  0  0  0  0  0
    7.2264  -12.7208   26.1451 C   0  0  2  0  0  0  0  0  0  0  0  0
    5.9945  -13.5156   26.5369 C   0  0  0  0  0  0  0  0  0  0  0  0
    8.1278  -13.5555   25.2290 C   0  0  2  0  0  0  0  0  0  0  0  0
    7.4209  -14.0125   24.0717 N   0  0  0  0  0  0  0  0  0  0  0  0
    8.5904  -14.7341   26.0412 C   0  0  0  0  0  0  0  0  0  0  0  0
    7.7921  -15.6113   26.4398 O   0  0  0  0  0  0  0  0  0  0  0  0
    9.9555  -14.9008   26.3902 N   0  0  0  0  0  0  0  0  0  0  0  0
   10.3827  -16.0386   27.1925 C   0  0  1  0  0  0  0  0  0  0  0  0
   11.6824  -16.4947   26.6274 C   0  0  0  0  0  0  0  0  0  0  0  0
   11.6744  -16.9429   25.2123 C   0  0  0  0  0  0  0  0  0  0  0  0
   12.9699  -17.3776   24.6734 C   0  0  0  0  0  0  0  0  0  0  0  0
   13.4157  -18.5066   24.9121 O   0  0  0  0  0  0  0  0  0  0  0  0
   10.4602  -15.6851   28.6310 C   0  0  0  0  0  0  0  0  0  0  0  0
   10.3905  -14.5077   29.0683 O   0  0  0  0  0  0  0  0  0  0  0  0
   13.7050  -16.4982   23.8800 O   0  0  0  0  0  0  0  0  0  0  0  0
   10.6188  -16.6964   29.5675 O   0  0  0  0  0  0  0  0  0  0  0  0
  2  1  1  1
  3  2  1  0
  4  2  1  0
  4  6  1  0
  4  5  1  6
  6  7  2  0
  9  8  1  1
  9 10  1  0
  9 11  1  0
 11 13  1  0
 11 12  1  6
 12  6  1  0
 13 14  2  0
 15 13  1  0
 15 16  1  0
 16 21  1  0
 16 17  1  6
 18 17  1  0
 19 18  1  0
 20 19  2  0
 21 22  2  0
 21 24  1  0
 23 19  1  0
M  END
$$$$
