VVE.pdb
     RDKit          3D

 24 23  0  0  1  0  0  0  0  0999 V2000
    6.0816  -16.1881   19.9848 C   0  0  0  0  0  0  0  0  0  0  0  0
    6.8273  -16.0020   21.2928 C   0  0  1  0  0  0  0  0  0  0  0  0
    7.7666  -17.1480   21.4875 C   0  0  0  0  0  0  0  0  0  0  0  0
    7.5233  -14.6518   21.3393 C   0  0  2  0  0  0  0  0  0  0  0  0
    8.3914  -14.5338   20.2098 N   0  0  0  0  0  0  0  0  0  0  0  0
    8.1697  -14.3999   22.6301 C   0  0  0  0  0  0  0  0  0  0  0  0
    9.3146  -14.8802   22.8302 O   0  0  0  0  0  0  0  0  0  0  0  0
    7.8958  -12.4610   27.2204 C   0  0  0  0  0  0  0  0  0  0  0  0
    7.2660  -12.6041   25.8734 C   0  0  2  0  0  0  0  0  0  0  0  0
    5.8562  -13.1559   25.9762 C   0  0  0  0  0  0  0  0  0  0  0  0
    8.1277  -13.5104   24.9876 C   0  0  2  0  0  0  0  0  0  0  0  0
    7.5744  -13.6403   23.6742 N   0  0  0  0  0  0  0  0  0  0  0  0
    8.1654  -14.8558   25.6594 C   0  0  0  0  0  0  0  0  0  0  0  0
    7.4740  -15.8145   25.2491 O   0  0  0  0  0  0  0  0  0  0  0  0
    8.9891  -15.0944   26.7896 N   0  0  0  0  0  0  0  0  0  0  0  0
    9.5114  -16.4269   27.0592 C   0  0  1  0  0  0  0  0  0  0  0  0
   10.3952  -16.7782   25.9137 C   0  0  0  0  0  0  0  0  0  0  0  0
   11.0468  -18.1111   25.9576 C   0  0  0  0  0  0  0  0  0  0  0  0
   11.9261  -18.4291   24.8248 C   0  0  0  0  0  0  0  0  0  0  0  0
   11.4649  -18.6396   23.6963 O   0  0  0  0  0  0  0  0  0  0  0  0
   10.2020  -16.4799   28.3708 C   0  0  0  0  0  0  0  0  0  0  0  0
   10.7547  -15.4883   28.9127 O   0  0  0  0  0  0  0  0  0  0  0  0
   13.3032  -18.4934   25.0311 O   0  0  0  0  0  0  0  0  0  0  0  0
   10.2539  -17.6837   29.0587 O   0  0  0  0  0  0  0  0  0  0  0  0
  2  1  1  6
  3  2  1  0
  4  2  1  0
  4  6  1  0
  4  5  1  6
  6  7  2  0
  9  8  1  1
  9 10  1  0
  9 11  1  0
 11 13  1  0
 11 12  1  6
 12  6  1  0
 13 14  2  0
 15 13  1  0
 15 16  1  0
 16 21  1  0
 16 17  1  6
 18 17  1  0
 19 18  1  0
 20 19  2  0
 21 22  2  0
 21 24  1  0
 23 19  1  0
M  END
$$$$
