VVE.pdb
     RDKit          3D

 24 23  0  0  1  0  0  0  0  0999 V2000
    6.5313  -17.3225   22.6895 C   0  0  0  0  0  0  0  0  0  0  0  0
    7.0080  -16.6261   21.4288 C   0  0  1  0  0  0  0  0  0  0  0  0
    6.1905  -17.0984   20.2703 C   0  0  0  0  0  0  0  0  0  0  0  0
    6.9827  -15.1156   21.5944 C   0  0  2  0  0  0  0  0  0  0  0  0
    7.3410  -14.5029   20.3536 N   0  0  0  0  0  0  0  0  0  0  0  0
    7.7728  -14.6656   22.7436 C   0  0  0  0  0  0  0  0  0  0  0  0
    9.0245  -14.7728   22.6885 O   0  0  0  0  0  0  0  0  0  0  0  0
    7.9155  -12.5574   27.2612 C   0  0  0  0  0  0  0  0  0  0  0  0
    7.1032  -12.9178   26.0603 C   0  0  2  0  0  0  0  0  0  0  0  0
    5.8719  -13.7177   26.4435 C   0  0  0  0  0  0  0  0  0  0  0  0
    7.9619  -13.7079   25.0670 C   0  0  2  0  0  0  0  0  0  0  0  0
    7.2031  -14.1123   23.9229 N   0  0  0  0  0  0  0  0  0  0  0  0
    8.4603  -14.9220   25.8022 C   0  0  0  0  0  0  0  0  0  0  0  0
    7.7006  -15.8738   26.0895 O   0  0  0  0  0  0  0  0  0  0  0  0
    9.8166  -15.0387   26.2018 N   0  0  0  0  0  0  0  0  0  0  0  0
   10.2962  -16.2486   26.8553 C   0  0  1  0  0  0  0  0  0  0  0  0
   11.6286  -16.5525   26.2647 C   0  0  0  0  0  0  0  0  0  0  0  0
   11.6532  -16.9206   24.8269 C   0  0  0  0  0  0  0  0  0  0  0  0
   12.9851  -17.1328   24.2453 C   0  0  0  0  0  0  0  0  0  0  0  0
   13.6803  -16.1794   23.8737 O   0  0  0  0  0  0  0  0  0  0  0  0
   10.3309  -16.0873   28.3294 C   0  0  0  0  0  0  0  0  0  0  0  0
   10.6115  -17.0162   29.1299 O   0  0  0  0  0  0  0  0  0  0  0  0
   13.4687  -18.4334   24.1121 O   0  0  0  0  0  0  0  0  0  0  0  0
   10.0402  -14.8475   28.8803 O   0  0  0  0  0  0  0  0  0  0  0  0
  2  1  1  1
  3  2  1  0
  4  2  1  0
  4  6  1  0
  4  5  1  6
  6  7  2  0
  9  8  1  1
  9 10  1  0
  9 11  1  0
 11 13  1  0
 11 12  1  6
 12  6  1  0
 13 14  2  0
 15 13  1  0
 15 16  1  0
 16 21  1  0
 16 17  1  6
 18 17  1  0
 19 18  1  0
 20 19  2  0
 21 22  2  0
 21 24  1  0
 23 19  1  0
M  END
$$$$
