VVE.pdb
     RDKit          3D

 24 23  0  0  1  0  0  0  0  0999 V2000
    6.3971  -16.2452   21.8287 C   0  0  0  0  0  0  0  0  0  0  0  0
    7.1872  -15.4075   20.8410 C   0  0  1  0  0  0  0  0  0  0  0  0
    6.5270  -15.4781   19.5020 C   0  0  0  0  0  0  0  0  0  0  0  0
    7.3566  -13.9832   21.3431 C   0  0  2  0  0  0  0  0  0  0  0  0
    7.9671  -13.1954   20.3184 N   0  0  0  0  0  0  0  0  0  0  0  0
    8.0367  -13.9244   22.6398 C   0  0  0  0  0  0  0  0  0  0  0  0
    9.2691  -14.1712   22.6812 O   0  0  0  0  0  0  0  0  0  0  0  0
    5.8116  -13.4240   26.2501 C   0  0  0  0  0  0  0  0  0  0  0  0
    7.1913  -12.8549   26.1854 C   0  0  2  0  0  0  0  0  0  0  0  0
    7.1649  -11.3721   25.8642 C   0  0  0  0  0  0  0  0  0  0  0  0
    8.0193  -13.6100   25.1401 C   0  0  2  0  0  0  0  0  0  0  0  0
    7.3807  -13.6029   23.8595 N   0  0  0  0  0  0  0  0  0  0  0  0
    8.1491  -15.0242   25.6362 C   0  0  0  0  0  0  0  0  0  0  0  0
    7.1802  -15.8159   25.6249 O   0  0  0  0  0  0  0  0  0  0  0  0
    9.3792  -15.5208   26.1393 N   0  0  0  0  0  0  0  0  0  0  0  0
    9.4868  -16.8933   26.6143 C   0  0  1  0  0  0  0  0  0  0  0  0
   10.2540  -17.6428   25.5816 C   0  0  0  0  0  0  0  0  0  0  0  0
   11.7060  -17.3502   25.4855 C   0  0  0  0  0  0  0  0  0  0  0  0
   12.4474  -18.1227   24.4799 C   0  0  0  0  0  0  0  0  0  0  0  0
   11.8804  -18.9682   23.7770 O   0  0  0  0  0  0  0  0  0  0  0  0
   10.1054  -16.9506   27.9612 C   0  0  0  0  0  0  0  0  0  0  0  0
   10.2516  -18.0116   28.6210 O   0  0  0  0  0  0  0  0  0  0  0  0
   13.8132  -17.8947   24.3197 O   0  0  0  0  0  0  0  0  0  0  0  0
   10.5567  -15.7770   28.5476 O   0  0  0  0  0  0  0  0  0  0  0  0
  2  1  1  1
  3  2  1  0
  4  2  1  0
  4  6  1  0
  4  5  1  6
  6  7  2  0
  9  8  1  6
  9 10  1  0
  9 11  1  0
 11 13  1  0
 11 12  1  6
 12  6  1  0
 13 14  2  0
 15 13  1  0
 15 16  1  0
 16 21  1  0
 16 17  1  6
 18 17  1  0
 19 18  1  0
 20 19  2  0
 21 22  2  0
 21 24  1  0
 23 19  1  0
M  END
$$$$
