VVE.pdb
     RDKit          3D

 24 23  0  0  1  0  0  0  0  0999 V2000
    7.4990  -19.9273   20.5298 C   0  0  0  0  0  0  0  0  0  0  0  0
    7.4192  -19.6350   19.0432 C   0  0  1  0  0  0  0  0  0  0  0  0
    6.4529  -20.5829   18.4097 C   0  0  0  0  0  0  0  0  0  0  0  0
    7.0714  -18.1775   18.7895 C   0  0  2  0  0  0  0  0  0  0  0  0
    6.8298  -17.9905   17.3930 N   0  0  0  0  0  0  0  0  0  0  0  0
    8.0588  -17.2589   19.3626 C   0  0  0  0  0  0  0  0  0  0  0  0
    9.2467  -17.3266   18.9555 O   0  0  0  0  0  0  0  0  0  0  0  0
    7.0373  -14.4012   22.4643 C   0  0  0  0  0  0  0  0  0  0  0  0
    8.0201  -14.0829   21.3852 C   0  0  2  0  0  0  0  0  0  0  0  0
    7.3551  -13.3698   20.2224 C   0  0  0  0  0  0  0  0  0  0  0  0
    8.6992  -15.3686   20.9014 C   0  0  2  0  0  0  0  0  0  0  0  0
    7.7499  -16.2910   20.3572 N   0  0  0  0  0  0  0  0  0  0  0  0
    9.3694  -15.9775   22.1026 C   0  0  0  0  0  0  0  0  0  0  0  0
    8.7898  -16.8233   22.8199 O   0  0  0  0  0  0  0  0  0  0  0  0
   10.6905  -15.6171   22.4735 N   0  0  0  0  0  0  0  0  0  0  0  0
   11.4618  -16.4562   23.3801 C   0  0  1  0  0  0  0  0  0  0  0  0
   12.8780  -16.3845   22.9264 C   0  0  0  0  0  0  0  0  0  0  0  0
   13.8773  -17.1234   23.7381 C   0  0  0  0  0  0  0  0  0  0  0  0
   15.2792  -16.9528   23.3343 C   0  0  0  0  0  0  0  0  0  0  0  0
   16.1931  -16.9838   24.1674 O   0  0  0  0  0  0  0  0  0  0  0  0
   11.2760  -16.0380   24.7910 C   0  0  0  0  0  0  0  0  0  0  0  0
   10.8804  -14.8952   25.1372 O   0  0  0  0  0  0  0  0  0  0  0  0
   15.5786  -16.7528   21.9877 O   0  0  0  0  0  0  0  0  0  0  0  0
   11.5482  -16.9444   25.8056 O   0  0  0  0  0  0  0  0  0  0  0  0
  2  1  1  1
  3  2  1  0
  4  2  1  0
  4  6  1  0
  4  5  1  6
  6  7  2  0
  9  8  1  1
  9 10  1  0
  9 11  1  0
 11 13  1  0
 11 12  1  1
 12  6  1  0
 13 14  2  0
 15 13  1  0
 15 16  1  0
 16 21  1  0
 16 17  1  6
 18 17  1  0
 19 18  1  0
 20 19  2  0
 21 22  2  0
 21 24  1  0
 23 19  1  0
M  END
$$$$
