VVE.pdb
     RDKit          3D

 24 23  0  0  1  0  0  0  0  0999 V2000
    6.7469  -17.1258   22.5224 C   0  0  0  0  0  0  0  0  0  0  0  0
    7.4704  -16.4527   21.3712 C   0  0  1  0  0  0  0  0  0  0  0  0
    6.8677  -16.9082   20.0816 C   0  0  0  0  0  0  0  0  0  0  0  0
    7.4615  -14.9410   21.5275 C   0  0  2  0  0  0  0  0  0  0  0  0
    8.0647  -14.3480   20.3751 N   0  0  0  0  0  0  0  0  0  0  0  0
    8.0360  -14.5073   22.8039 C   0  0  0  0  0  0  0  0  0  0  0  0
    9.2824  -14.5794   22.9548 O   0  0  0  0  0  0  0  0  0  0  0  0
    6.5010  -11.6097   25.3514 C   0  0  0  0  0  0  0  0  0  0  0  0
    6.8005  -12.9078   26.0275 C   0  0  2  0  0  0  0  0  0  0  0  0
    7.3528  -12.6910   27.4241 C   0  0  0  0  0  0  0  0  0  0  0  0
    7.7905  -13.7192   25.1849 C   0  0  2  0  0  0  0  0  0  0  0  0
    7.2620  -14.0074   23.8866 N   0  0  0  0  0  0  0  0  0  0  0  0
    8.0368  -15.0024   25.9305 C   0  0  0  0  0  0  0  0  0  0  0  0
    7.1551  -15.8848   26.0284 O   0  0  0  0  0  0  0  0  0  0  0  0
    9.2827  -15.2663   26.5556 N   0  0  0  0  0  0  0  0  0  0  0  0
    9.5345  -16.5496   27.1964 C   0  0  1  0  0  0  0  0  0  0  0  0
   10.1415  -17.4310   26.1614 C   0  0  0  0  0  0  0  0  0  0  0  0
   11.5929  -17.2567   25.9040 C   0  0  0  0  0  0  0  0  0  0  0  0
   12.1564  -18.0929   24.8360 C   0  0  0  0  0  0  0  0  0  0  0  0
   12.8030  -19.1147   25.0973 O   0  0  0  0  0  0  0  0  0  0  0  0
   10.3820  -16.3923   28.4035 C   0  0  0  0  0  0  0  0  0  0  0  0
   10.7203  -17.3453   29.1517 O   0  0  0  0  0  0  0  0  0  0  0  0
   11.9559  -17.7235   23.5069 O   0  0  0  0  0  0  0  0  0  0  0  0
   10.8404  -15.1286   28.7469 O   0  0  0  0  0  0  0  0  0  0  0  0
  2  1  1  1
  3  2  1  0
  4  2  1  0
  4  6  1  0
  4  5  1  6
  6  7  2  0
  9  8  1  6
  9 10  1  0
  9 11  1  0
 11 13  1  0
 11 12  1  6
 12  6  1  0
 13 14  2  0
 15 13  1  0
 15 16  1  0
 16 21  1  0
 16 17  1  6
 18 17  1  0
 19 18  1  0
 20 19  2  0
 21 22  2  0
 21 24  1  0
 23 19  1  0
M  END
$$$$
