HGF.pdb
     RDKit          3D

 26 27  0  0  1  0  0  0  0  0999 V2000
   18.4064  -11.2194  -16.7007 N   0  0  0  0  0  0  0  0  0  0  0  0
   17.2417  -10.5292  -17.2230 C   0  0  1  0  0  0  0  0  0  0  0  0
   15.9663  -11.0760  -16.6171 C   0  0  0  0  0  0  0  0  0  0  0  0
   15.7757  -12.4568  -17.0626 C   0  0  0  0  0  0  0  0  0  0  0  0
   15.6371  -12.9034  -18.3510 C   0  0  0  0  0  0  0  0  0  0  0  0
   15.4901  -14.2516  -18.2556 N   0  0  0  0  0  0  0  0  0  0  0  0
   15.5385  -14.5992  -16.9584 C   0  0  0  0  0  0  0  0  0  0  0  0
   15.7154  -13.5050  -16.1927 N   0  0  0  0  0  0  0  0  0  0  0  0
   17.3264   -9.1136  -16.7641 C   0  0  0  0  0  0  0  0  0  0  0  0
   16.5072   -8.3001  -17.2635 O   0  0  0  0  0  0  0  0  0  0  0  0
   18.2848   -8.6947  -15.8075 N   0  0  0  0  0  0  0  0  0  0  0  0
   18.3624   -7.3257  -15.4176 C   0  0  0  0  0  0  0  0  0  0  0  0
   19.3914   -7.1036  -14.3471 C   0  0  0  0  0  0  0  0  0  0  0  0
   19.6394   -7.9883  -13.4835 O   0  0  0  0  0  0  0  0  0  0  0  0
   20.1228   -5.8897  -14.2691 N   0  0  0  0  0  0  0  0  0  0  0  0
   21.2361   -5.6656  -13.4072 C   0  0  1  0  0  0  0  0  0  0  0  0
   22.3105   -6.7285  -13.5457 C   0  0  0  0  0  0  0  0  0  0  0  0
   22.8949   -6.7274  -14.9003 C   0  0  0  0  0  0  0  0  0  0  0  0
   22.5223   -7.6043  -15.8864 C   0  0  0  0  0  0  0  0  0  0  0  0
   23.1050   -7.5533  -17.1433 C   0  0  0  0  0  0  0  0  0  0  0  0
   24.0730   -6.6153  -17.4230 C   0  0  0  0  0  0  0  0  0  0  0  0
   24.4586   -5.7282  -16.4455 C   0  0  0  0  0  0  0  0  0  0  0  0
   23.8642   -5.7976  -15.1999 C   0  0  0  0  0  0  0  0  0  0  0  0
   21.8005   -4.3015  -13.5188 C   0  0  0  0  0  0  0  0  0  0  0  0
   22.7492   -3.8452  -12.5982 O   0  0  0  0  0  0  0  0  0  0  0  0
   21.4662   -3.4985  -14.4245 O   0  0  0  0  0  0  0  0  0  0  0  0
  2  9  1  0
  2  1  1  1
  3  2  1  0
  4  8  1  0
  4  3  1  0
  5  4  2  0
  6  5  1  0
  6  7  1  0
  7  8  2  0
  9 11  1  0
 10  9  2  0
 11 12  1  0
 13 12  1  0
 13 14  2  0
 15 13  1  0
 16 15  1  0
 16 24  1  0
 16 17  1  6
 18 23  1  0
 18 17  1  0
 19 18  2  0
 20 21  2  0
 20 19  1  0
 21 22  1  0
 22 23  2  0
 24 26  2  0
 24 25  1  0
M  END
$$$$
