HGF.pdb
     RDKit          3D

 26 27  0  0  1  0  0  0  0  0999 V2000
   27.4000  -19.4996  -17.3967 N   0  0  0  0  0  0  0  0  0  0  0  0
   26.3710  -18.8602  -16.5980 C   0  0  1  0  0  0  0  0  0  0  0  0
   25.0301  -19.5359  -16.7937 C   0  0  0  0  0  0  0  0  0  0  0  0
   24.5519  -19.2712  -18.1511 C   0  0  0  0  0  0  0  0  0  0  0  0
   24.1213  -20.1877  -19.0748 C   0  0  0  0  0  0  0  0  0  0  0  0
   23.7794  -19.4645  -20.1740 N   0  0  0  0  0  0  0  0  0  0  0  0
   23.9976  -18.1634  -19.9182 C   0  0  0  0  0  0  0  0  0  0  0  0
   24.4776  -18.0119  -18.6686 N   0  0  0  0  0  0  0  0  0  0  0  0
   26.7239  -19.0813  -15.1667 C   0  0  0  0  0  0  0  0  0  0  0  0
   25.9867  -18.5373  -14.3049 O   0  0  0  0  0  0  0  0  0  0  0  0
   27.8393  -19.8686  -14.7856 N   0  0  0  0  0  0  0  0  0  0  0  0
   28.2308  -19.9481  -13.4172 C   0  0  0  0  0  0  0  0  0  0  0  0
   27.2801  -20.7822  -12.6081 C   0  0  0  0  0  0  0  0  0  0  0  0
   26.6501  -21.7444  -13.1252 O   0  0  0  0  0  0  0  0  0  0  0  0
   27.0569  -20.5181  -11.2315 N   0  0  0  0  0  0  0  0  0  0  0  0
   26.2066  -21.2871  -10.3839 C   0  0  1  0  0  0  0  0  0  0  0  0
   26.9344  -21.8542   -9.1790 C   0  0  0  0  0  0  0  0  0  0  0  0
   27.4778  -20.7802   -8.3259 C   0  0  0  0  0  0  0  0  0  0  0  0
   26.6952  -19.8647   -7.6705 C   0  0  0  0  0  0  0  0  0  0  0  0
   27.2629  -18.8785   -6.8785 C   0  0  0  0  0  0  0  0  0  0  0  0
   28.6300  -18.8025   -6.7367 C   0  0  0  0  0  0  0  0  0  0  0  0
   29.4298  -19.7127   -7.3872 C   0  0  0  0  0  0  0  0  0  0  0  0
   28.8421  -20.6871   -8.1713 C   0  0  0  0  0  0  0  0  0  0  0  0
   24.9704  -20.5747   -9.9892 C   0  0  0  0  0  0  0  0  0  0  0  0
   23.9082  -21.2651   -9.3968 O   0  0  0  0  0  0  0  0  0  0  0  0
   24.8114  -19.3409  -10.1607 O   0  0  0  0  0  0  0  0  0  0  0  0
  2  9  1  0
  2  1  1  6
  3  2  1  0
  4  8  1  0
  4  3  1  0
  5  4  2  0
  6  5  1  0
  6  7  1  0
  7  8  2  0
  9 11  1  0
 10  9  2  0
 11 12  1  0
 13 12  1  0
 13 14  2  0
 15 13  1  0
 16 15  1  0
 16 24  1  0
 16 17  1  1
 18 23  1  0
 18 17  1  0
 19 18  2  0
 20 21  2  0
 20 19  1  0
 21 22  1  0
 22 23  2  0
 24 26  2  0
 24 25  1  0
M  END
$$$$
