HGF.pdb
     RDKit          3D

 26 27  0  0  1  0  0  0  0  0999 V2000
   17.5139   -8.2662  -11.8354 N   0  0  0  0  0  0  0  0  0  0  0  0
   16.6892   -9.4423  -12.0406 C   0  0  1  0  0  0  0  0  0  0  0  0
   17.5359  -10.6952  -12.1196 C   0  0  0  0  0  0  0  0  0  0  0  0
   18.2131  -10.7369  -13.4161 C   0  0  0  0  0  0  0  0  0  0  0  0
   18.1640   -9.7952  -14.4108 C   0  0  0  0  0  0  0  0  0  0  0  0
   18.9520  -10.2771  -15.4083 N   0  0  0  0  0  0  0  0  0  0  0  0
   19.4540  -11.4633  -15.0253 C   0  0  0  0  0  0  0  0  0  0  0  0
   19.0127  -11.7757  -13.7914 N   0  0  0  0  0  0  0  0  0  0  0  0
   15.8461   -9.6068  -10.8223 C   0  0  0  0  0  0  0  0  0  0  0  0
   16.3077   -9.1571   -9.7420 O   0  0  0  0  0  0  0  0  0  0  0  0
   14.5793  -10.2406  -10.8709 N   0  0  0  0  0  0  0  0  0  0  0  0
   13.8093  -10.4030   -9.6822 C   0  0  0  0  0  0  0  0  0  0  0  0
   12.4565  -10.9898   -9.9646 C   0  0  0  0  0  0  0  0  0  0  0  0
   12.1114  -11.3062  -11.1354 O   0  0  0  0  0  0  0  0  0  0  0  0
   11.5173  -11.2101   -8.9234 N   0  0  0  0  0  0  0  0  0  0  0  0
   10.2306  -11.7980   -9.1005 C   0  0  1  0  0  0  0  0  0  0  0  0
   10.3022  -13.2448   -9.5531 C   0  0  0  0  0  0  0  0  0  0  0  0
   10.8502  -14.1122   -8.4931 C   0  0  0  0  0  0  0  0  0  0  0  0
   12.1139  -14.6432   -8.5271 C   0  0  0  0  0  0  0  0  0  0  0  0
   12.5763  -15.4499   -7.4987 C   0  0  0  0  0  0  0  0  0  0  0  0
   11.7686  -15.7323   -6.4203 C   0  0  0  0  0  0  0  0  0  0  0  0
   10.4982  -15.2080   -6.3702 C   0  0  0  0  0  0  0  0  0  0  0  0
   10.0585  -14.4065   -7.4066 C   0  0  0  0  0  0  0  0  0  0  0  0
    9.3442  -11.6370   -7.9258 C   0  0  0  0  0  0  0  0  0  0  0  0
    7.9810  -11.9362   -8.0152 O   0  0  0  0  0  0  0  0  0  0  0  0
    9.7578  -11.2325   -6.8113 O   0  0  0  0  0  0  0  0  0  0  0  0
  2  9  1  0
  2  1  1  1
  3  2  1  0
  4  8  1  0
  4  3  1  0
  5  4  2  0
  6  5  1  0
  6  7  1  0
  7  8  2  0
  9 11  1  0
 10  9  2  0
 11 12  1  0
 13 12  1  0
 13 14  2  0
 15 13  1  0
 16 15  1  0
 16 24  1  0
 16 17  1  1
 18 23  1  0
 18 17  1  0
 19 18  2  0
 20 21  2  0
 20 19  1  0
 21 22  1  0
 22 23  2  0
 24 26  2  0
 24 25  1  0
M  END
$$$$
