HGF.pdb
     RDKit          3D

 26 27  0  0  1  0  0  0  0  0999 V2000
   25.9844  -16.3808  -17.7638 N   0  0  0  0  0  0  0  0  0  0  0  0
   25.0068  -17.3762  -18.1626 C   0  0  1  0  0  0  0  0  0  0  0  0
   25.6791  -18.5839  -18.7812 C   0  0  0  0  0  0  0  0  0  0  0  0
   26.3377  -18.1830  -20.0249 C   0  0  0  0  0  0  0  0  0  0  0  0
   25.8035  -18.1851  -21.2871 C   0  0  0  0  0  0  0  0  0  0  0  0
   26.7918  -17.7296  -22.1020 N   0  0  0  0  0  0  0  0  0  0  0  0
   27.8774  -17.4650  -21.3555 C   0  0  0  0  0  0  0  0  0  0  0  0
   27.6257  -17.7368  -20.0603 N   0  0  0  0  0  0  0  0  0  0  0  0
   24.3550  -17.8761  -16.9188 C   0  0  0  0  0  0  0  0  0  0  0  0
   23.4532  -18.7427  -17.0537 O   0  0  0  0  0  0  0  0  0  0  0  0
   24.7291  -17.4009  -15.6368 N   0  0  0  0  0  0  0  0  0  0  0  0
   24.0212  -17.8283  -14.4756 C   0  0  0  0  0  0  0  0  0  0  0  0
   24.2256  -19.2898  -14.1989 C   0  0  0  0  0  0  0  0  0  0  0  0
   23.9390  -20.1656  -15.0596 O   0  0  0  0  0  0  0  0  0  0  0  0
   24.7496  -19.7382  -12.9584 N   0  0  0  0  0  0  0  0  0  0  0  0
   25.1151  -21.0858  -12.6700 C   0  0  1  0  0  0  0  0  0  0  0  0
   26.3935  -21.1877  -11.8586 C   0  0  0  0  0  0  0  0  0  0  0  0
   26.2119  -20.6419  -10.5001 C   0  0  0  0  0  0  0  0  0  0  0  0
   25.9339  -21.4169   -9.4036 C   0  0  0  0  0  0  0  0  0  0  0  0
   25.7771  -20.8476   -8.1493 C   0  0  0  0  0  0  0  0  0  0  0  0
   25.8988  -19.4864   -7.9839 C   0  0  0  0  0  0  0  0  0  0  0  0
   26.1773  -18.6942   -9.0731 C   0  0  0  0  0  0  0  0  0  0  0  0
   26.3295  -19.2835  -10.3138 C   0  0  0  0  0  0  0  0  0  0  0  0
   24.0193  -21.8748  -12.0631 C   0  0  0  0  0  0  0  0  0  0  0  0
   24.1052  -23.2683  -11.9811 O   0  0  0  0  0  0  0  0  0  0  0  0
   22.9774  -21.3489  -11.6000 O   0  0  0  0  0  0  0  0  0  0  0  0
  2  9  1  0
  2  1  1  1
  3  2  1  0
  4  8  1  0
  4  3  1  0
  5  4  2  0
  6  5  1  0
  6  7  1  0
  7  8  2  0
  9 11  1  0
 10  9  2  0
 11 12  1  0
 13 12  1  0
 13 14  2  0
 15 13  1  0
 16 15  1  0
 16 24  1  0
 16 17  1  1
 18 23  1  0
 18 17  1  0
 19 18  2  0
 20 21  2  0
 20 19  1  0
 21 22  1  0
 22 23  2  0
 24 26  2  0
 24 25  1  0
M  END
$$$$
