HGF.pdb
     RDKit          3D

 26 27  0  0  1  0  0  0  0  0999 V2000
   25.2426  -21.7704  -14.3716 N   0  0  0  0  0  0  0  0  0  0  0  0
   26.3802  -20.8773  -14.4901 C   0  0  1  0  0  0  0  0  0  0  0  0
   26.0256  -19.6465  -15.2977 C   0  0  0  0  0  0  0  0  0  0  0  0
   25.8274  -20.0297  -16.6960 C   0  0  0  0  0  0  0  0  0  0  0  0
   25.1762  -21.1386  -17.1703 C   0  0  0  0  0  0  0  0  0  0  0  0
   25.2521  -21.0543  -18.5250 N   0  0  0  0  0  0  0  0  0  0  0  0
   25.9240  -19.9368  -18.8499 C   0  0  0  0  0  0  0  0  0  0  0  0
   26.2943  -19.2789  -17.7341 N   0  0  0  0  0  0  0  0  0  0  0  0
   26.6932  -20.3792  -13.1205 C   0  0  0  0  0  0  0  0  0  0  0  0
   25.7437  -19.8833  -12.4610 O   0  0  0  0  0  0  0  0  0  0  0  0
   28.0004  -20.4573  -12.5780 N   0  0  0  0  0  0  0  0  0  0  0  0
   28.2726  -19.9401  -11.2778 C   0  0  0  0  0  0  0  0  0  0  0  0
   27.5148  -20.6754  -10.2104 C   0  0  0  0  0  0  0  0  0  0  0  0
   27.5001  -21.9356  -10.1679 O   0  0  0  0  0  0  0  0  0  0  0  0
   26.7882  -19.9783   -9.2101 N   0  0  0  0  0  0  0  0  0  0  0  0
   25.9869  -20.5983   -8.2070 C   0  0  1  0  0  0  0  0  0  0  0  0
   25.9617  -19.8152   -6.9072 C   0  0  0  0  0  0  0  0  0  0  0  0
   27.2638  -19.8795   -6.2167 C   0  0  0  0  0  0  0  0  0  0  0  0
   28.3102  -19.0378   -6.4937 C   0  0  0  0  0  0  0  0  0  0  0  0
   29.5108  -19.1432   -5.8086 C   0  0  0  0  0  0  0  0  0  0  0  0
   29.6723  -20.1009   -4.8330 C   0  0  0  0  0  0  0  0  0  0  0  0
   28.6331  -20.9535   -4.5425 C   0  0  0  0  0  0  0  0  0  0  0  0
   27.4455  -20.8300   -5.2382 C   0  0  0  0  0  0  0  0  0  0  0  0
   24.6208  -20.9323   -8.6693 C   0  0  0  0  0  0  0  0  0  0  0  0
   23.7753  -21.7215   -7.8831 O   0  0  0  0  0  0  0  0  0  0  0  0
   24.1574  -20.5350   -9.7667 O   0  0  0  0  0  0  0  0  0  0  0  0
  2  9  1  0
  2  1  1  1
  3  2  1  0
  4  8  1  0
  4  3  1  0
  5  4  2  0
  6  5  1  0
  6  7  1  0
  7  8  2  0
  9 11  1  0
 10  9  2  0
 11 12  1  0
 13 12  1  0
 13 14  2  0
 15 13  1  0
 16 15  1  0
 16 24  1  0
 16 17  1  1
 18 23  1  0
 18 17  1  0
 19 18  2  0
 20 21  2  0
 20 19  1  0
 21 22  1  0
 22 23  2  0
 24 26  2  0
 24 25  1  0
M  END
$$$$
