HGF.pdb
     RDKit          3D

 26 27  0  0  1  0  0  0  0  0999 V2000
   25.3514  -21.4803  -14.8557 N   0  0  0  0  0  0  0  0  0  0  0  0
   25.5336  -20.0663  -14.5860 C   0  0  1  0  0  0  0  0  0  0  0  0
   24.2772  -19.4562  -14.0009 C   0  0  0  0  0  0  0  0  0  0  0  0
   23.1565  -19.6992  -14.9099 C   0  0  0  0  0  0  0  0  0  0  0  0
   22.6166  -18.8248  -15.8169 C   0  0  0  0  0  0  0  0  0  0  0  0
   21.6070  -19.5048  -16.4223 N   0  0  0  0  0  0  0  0  0  0  0  0
   21.5445  -20.7402  -15.8972 C   0  0  0  0  0  0  0  0  0  0  0  0
   22.4952  -20.8908  -14.9547 N   0  0  0  0  0  0  0  0  0  0  0  0
   26.5673  -19.9515  -13.5182 C   0  0  0  0  0  0  0  0  0  0  0  0
   26.7892  -18.8022  -13.0576 O   0  0  0  0  0  0  0  0  0  0  0  0
   27.2733  -21.0827  -13.0376 N   0  0  0  0  0  0  0  0  0  0  0  0
   28.1343  -20.9675  -11.9073 C   0  0  0  0  0  0  0  0  0  0  0  0
   27.4507  -21.3795  -10.6357 C   0  0  0  0  0  0  0  0  0  0  0  0
   27.4302  -22.5842  -10.2639 O   0  0  0  0  0  0  0  0  0  0  0  0
   26.8033  -20.4273   -9.8056 N   0  0  0  0  0  0  0  0  0  0  0  0
   25.9707  -20.7506   -8.6944 C   0  0  1  0  0  0  0  0  0  0  0  0
   26.0105  -19.6966   -7.6033 C   0  0  0  0  0  0  0  0  0  0  0  0
   27.3512  -19.6046   -6.9947 C   0  0  0  0  0  0  0  0  0  0  0  0
   27.9120  -18.4267   -6.5727 C   0  0  0  0  0  0  0  0  0  0  0  0
   29.1761  -18.4023   -6.0039 C   0  0  0  0  0  0  0  0  0  0  0  0
   29.8927  -19.5679   -5.8528 C   0  0  0  0  0  0  0  0  0  0  0  0
   29.3452  -20.7583   -6.2707 C   0  0  0  0  0  0  0  0  0  0  0  0
   28.0837  -20.7586   -6.8349 C   0  0  0  0  0  0  0  0  0  0  0  0
   24.5809  -21.0854   -9.0793 C   0  0  0  0  0  0  0  0  0  0  0  0
   23.6885  -21.6120   -8.1401 O   0  0  0  0  0  0  0  0  0  0  0  0
   24.1377  -20.9190  -10.2424 O   0  0  0  0  0  0  0  0  0  0  0  0
  2  9  1  0
  2  1  1  1
  3  2  1  0
  4  8  1  0
  4  3  1  0
  5  4  2  0
  6  5  1  0
  6  7  1  0
  7  8  2  0
  9 11  1  0
 10  9  2  0
 11 12  1  0
 13 12  1  0
 13 14  2  0
 15 13  1  0
 16 15  1  0
 16 24  1  0
 16 17  1  1
 18 23  1  0
 18 17  1  0
 19 18  2  0
 20 21  2  0
 20 19  1  0
 21 22  1  0
 22 23  2  0
 24 26  2  0
 24 25  1  0
M  END
$$$$
