HGF.pdb
     RDKit          3D

 26 27  0  0  1  0  0  0  0  0999 V2000
   21.0965  -10.6969  -18.3797 N   0  0  0  0  0  0  0  0  0  0  0  0
   21.9690   -9.9039  -19.2255 C   0  0  1  0  0  0  0  0  0  0  0  0
   21.7239  -10.1985  -20.6904 C   0  0  0  0  0  0  0  0  0  0  0  0
   22.1722  -11.5591  -20.9888 C   0  0  0  0  0  0  0  0  0  0  0  0
   22.1317  -12.6490  -20.1586 C   0  0  0  0  0  0  0  0  0  0  0  0
   22.6522  -13.6767  -20.8805 N   0  0  0  0  0  0  0  0  0  0  0  0
   22.9920  -13.2191  -22.0975 C   0  0  0  0  0  0  0  0  0  0  0  0
   22.7054  -11.9064  -22.1947 N   0  0  0  0  0  0  0  0  0  0  0  0
   21.5863   -8.4757  -19.0363 C   0  0  0  0  0  0  0  0  0  0  0  0
   22.3254   -7.6096  -19.5709 O   0  0  0  0  0  0  0  0  0  0  0  0
   20.4416   -8.1020  -18.2886 N   0  0  0  0  0  0  0  0  0  0  0  0
   20.1477   -6.7258  -18.0611 C   0  0  0  0  0  0  0  0  0  0  0  0
   20.3326   -6.3421  -16.6214 C   0  0  0  0  0  0  0  0  0  0  0  0
   19.6677   -6.8974  -15.7052 O   0  0  0  0  0  0  0  0  0  0  0  0
   21.2632   -5.3407  -16.2397 N   0  0  0  0  0  0  0  0  0  0  0  0
   21.4225   -4.8422  -14.9136 C   0  0  1  0  0  0  0  0  0  0  0  0
   22.7311   -5.2722  -14.2767 C   0  0  0  0  0  0  0  0  0  0  0  0
   22.9145   -6.7336  -14.3614 C   0  0  0  0  0  0  0  0  0  0  0  0
   23.6592   -7.3482  -15.3349 C   0  0  0  0  0  0  0  0  0  0  0  0
   23.7990   -8.7272  -15.3617 C   0  0  0  0  0  0  0  0  0  0  0  0
   23.1883   -9.5063  -14.4051 C   0  0  0  0  0  0  0  0  0  0  0  0
   22.4375   -8.9062  -13.4214 C   0  0  0  0  0  0  0  0  0  0  0  0
   22.3120   -7.5300  -13.4145 C   0  0  0  0  0  0  0  0  0  0  0  0
   21.2184   -3.3798  -14.8070 C   0  0  0  0  0  0  0  0  0  0  0  0
   21.1405   -2.7604  -13.5556 O   0  0  0  0  0  0  0  0  0  0  0  0
   21.1065   -2.6332  -15.8104 O   0  0  0  0  0  0  0  0  0  0  0  0
  2  9  1  0
  2  1  1  1
  3  2  1  0
  4  8  1  0
  4  3  1  0
  5  4  2  0
  6  5  1  0
  6  7  1  0
  7  8  2  0
  9 11  1  0
 10  9  2  0
 11 12  1  0
 13 12  1  0
 13 14  2  0
 15 13  1  0
 16 15  1  0
 16 24  1  0
 16 17  1  6
 18 23  1  0
 18 17  1  0
 19 18  2  0
 20 21  2  0
 20 19  1  0
 21 22  1  0
 22 23  2  0
 24 26  2  0
 24 25  1  0
M  END
$$$$
