HGF.pdb
     RDKit          3D

 26 27  0  0  1  0  0  0  0  0999 V2000
   25.6946  -18.2108  -17.1768 N   0  0  0  0  0  0  0  0  0  0  0  0
   26.9474  -18.4939  -16.5016 C   0  0  1  0  0  0  0  0  0  0  0  0
   27.0084  -17.8060  -15.1540 C   0  0  0  0  0  0  0  0  0  0  0  0
   26.8609  -16.3626  -15.3440 C   0  0  0  0  0  0  0  0  0  0  0  0
   25.7173  -15.6188  -15.2115 C   0  0  0  0  0  0  0  0  0  0  0  0
   26.0820  -14.3377  -15.4836 N   0  0  0  0  0  0  0  0  0  0  0  0
   27.3950  -14.3153  -15.7688 C   0  0  0  0  0  0  0  0  0  0  0  0
   27.9068  -15.5590  -15.6900 N   0  0  0  0  0  0  0  0  0  0  0  0
   26.9672  -19.9546  -16.2051 C   0  0  0  0  0  0  0  0  0  0  0  0
   27.9922  -20.4089  -15.6348 O   0  0  0  0  0  0  0  0  0  0  0  0
   25.8829  -20.8009  -16.5473 N   0  0  0  0  0  0  0  0  0  0  0  0
   26.0018  -22.2149  -16.4100 C   0  0  0  0  0  0  0  0  0  0  0  0
   25.4672  -22.6986  -15.0930 C   0  0  0  0  0  0  0  0  0  0  0  0
   25.3119  -23.9282  -14.8611 O   0  0  0  0  0  0  0  0  0  0  0  0
   25.1180  -21.7888  -14.0610 N   0  0  0  0  0  0  0  0  0  0  0  0
   24.3080  -22.1114  -12.9330 C   0  0  1  0  0  0  0  0  0  0  0  0
   25.1243  -22.4133  -11.6898 C   0  0  0  0  0  0  0  0  0  0  0  0
   25.7845  -21.1993  -11.1734 C   0  0  0  0  0  0  0  0  0  0  0  0
   26.7837  -20.5386  -11.8407 C   0  0  0  0  0  0  0  0  0  0  0  0
   27.3651  -19.3988  -11.3070 C   0  0  0  0  0  0  0  0  0  0  0  0
   26.9457  -18.9093  -10.0907 C   0  0  0  0  0  0  0  0  0  0  0  0
   25.9447  -19.5597   -9.4078 C   0  0  0  0  0  0  0  0  0  0  0  0
   25.3797  -20.6939   -9.9590 C   0  0  0  0  0  0  0  0  0  0  0  0
   23.2518  -21.1099  -12.6623 C   0  0  0  0  0  0  0  0  0  0  0  0
   22.1435  -21.4380  -11.8750 O   0  0  0  0  0  0  0  0  0  0  0  0
   23.2920  -19.9390  -13.1142 O   0  0  0  0  0  0  0  0  0  0  0  0
  2  9  1  0
  2  1  1  1
  3  2  1  0
  4  8  1  0
  4  3  1  0
  5  4  2  0
  6  5  1  0
  6  7  1  0
  7  8  2  0
  9 11  1  0
 10  9  2  0
 11 12  1  0
 13 12  1  0
 13 14  2  0
 15 13  1  0
 16 15  1  0
 16 24  1  0
 16 17  1  1
 18 23  1  0
 18 17  1  0
 19 18  2  0
 20 21  2  0
 20 19  1  0
 21 22  1  0
 22 23  2  0
 24 26  2  0
 24 25  1  0
M  END
$$$$
