HGF.pdb
     RDKit          3D

 26 27  0  0  1  0  0  0  0  0999 V2000
   23.5203  -21.7943  -14.0320 N   0  0  0  0  0  0  0  0  0  0  0  0
   23.7834  -20.4124  -13.6763 C   0  0  1  0  0  0  0  0  0  0  0  0
   22.7166  -19.8762  -12.7450 C   0  0  0  0  0  0  0  0  0  0  0  0
   21.4023  -20.0656  -13.3599 C   0  0  0  0  0  0  0  0  0  0  0  0
   20.4927  -21.0548  -13.0905 C   0  0  0  0  0  0  0  0  0  0  0  0
   19.4331  -20.8076  -13.9055 N   0  0  0  0  0  0  0  0  0  0  0  0
   19.6984  -19.7113  -14.6360 C   0  0  0  0  0  0  0  0  0  0  0  0
   20.9151  -19.2276  -14.3191 N   0  0  0  0  0  0  0  0  0  0  0  0
   25.0477  -20.3942  -12.8868 C   0  0  0  0  0  0  0  0  0  0  0  0
   25.4643  -19.2723  -12.4993 O   0  0  0  0  0  0  0  0  0  0  0  0
   25.7551  -21.5841  -12.5821 N   0  0  0  0  0  0  0  0  0  0  0  0
   27.0309  -21.5215  -11.9493 C   0  0  0  0  0  0  0  0  0  0  0  0
   26.9151  -21.4873  -10.4529 C   0  0  0  0  0  0  0  0  0  0  0  0
   25.9982  -22.1111   -9.8526 O   0  0  0  0  0  0  0  0  0  0  0  0
   27.8342  -20.7520   -9.6596 N   0  0  0  0  0  0  0  0  0  0  0  0
   27.8041  -20.6814   -8.2360 C   0  0  1  0  0  0  0  0  0  0  0  0
   29.1015  -20.1608   -7.6453 C   0  0  0  0  0  0  0  0  0  0  0  0
   28.9972  -19.9957   -6.1830 C   0  0  0  0  0  0  0  0  0  0  0  0
   28.5233  -18.8584   -5.5813 C   0  0  0  0  0  0  0  0  0  0  0  0
   28.4448  -18.7620   -4.2005 C   0  0  0  0  0  0  0  0  0  0  0  0
   28.8441  -19.8134   -3.4067 C   0  0  0  0  0  0  0  0  0  0  0  0
   29.3220  -20.9616   -3.9938 C   0  0  0  0  0  0  0  0  0  0  0  0
   29.3913  -21.0353   -5.3720 C   0  0  0  0  0  0  0  0  0  0  0  0
   26.6313  -19.9477   -7.7087 C   0  0  0  0  0  0  0  0  0  0  0  0
   26.2161  -18.7495   -8.2983 O   0  0  0  0  0  0  0  0  0  0  0  0
   25.9612  -20.3513   -6.7264 O   0  0  0  0  0  0  0  0  0  0  0  0
  2  9  1  0
  2  1  1  1
  3  2  1  0
  4  8  1  0
  4  3  1  0
  5  4  2  0
  6  5  1  0
  6  7  1  0
  7  8  2  0
  9 11  1  0
 10  9  2  0
 11 12  1  0
 13 12  1  0
 13 14  2  0
 15 13  1  0
 16 15  1  0
 16 24  1  0
 16 17  1  6
 18 23  1  0
 18 17  1  0
 19 18  2  0
 20 21  2  0
 20 19  1  0
 21 22  1  0
 22 23  2  0
 24 26  2  0
 24 25  1  0
M  END
$$$$
