HHF.pdb
     RDKit          3D

 32 34  0  0  1  0  0  0  0  0999 V2000
   29.8947  -21.9656  -18.6911 N   0  0  0  0  0  0  0  0  0  0  0  0
   28.7638  -22.4462  -17.9179 C   0  0  1  0  0  0  0  0  0  0  0  0
   29.2140  -23.3855  -16.8202 C   0  0  0  0  0  0  0  0  0  0  0  0
   29.6225  -24.7022  -17.3615 C   0  0  0  0  0  0  0  0  0  0  0  0
   30.8500  -25.2872  -17.1520 C   0  0  0  0  0  0  0  0  0  0  0  0
   30.8727  -26.4576  -17.7794 N   0  0  0  0  0  0  0  0  0  0  0  0
   29.6820  -26.6089  -18.3739 C   0  0  0  0  0  0  0  0  0  0  0  0
   28.9210  -25.5484  -18.1238 N   0  0  0  0  0  0  0  0  0  0  0  0
   28.0899  -21.2728  -17.3224 C   0  0  0  0  0  0  0  0  0  0  0  0
   28.8490  -20.3925  -16.7931 O   0  0  0  0  0  0  0  0  0  0  0  0
   26.6802  -21.1162  -17.3291 N   0  0  0  0  0  0  0  0  0  0  0  0
   26.0599  -20.0202  -16.6214 C   0  0  1  0  0  0  0  0  0  0  0  0
   25.2524  -19.1708  -17.5881 C   0  0  0  0  0  0  0  0  0  0  0  0
   24.3067  -20.0035  -18.3900 C   0  0  0  0  0  0  0  0  0  0  0  0
   24.2085  -21.3734  -18.3026 C   0  0  0  0  0  0  0  0  0  0  0  0
   23.2559  -21.7467  -19.1717 N   0  0  0  0  0  0  0  0  0  0  0  0
   22.7582  -20.6663  -19.7955 C   0  0  0  0  0  0  0  0  0  0  0  0
   23.4133  -19.6074  -19.3045 N   0  0  0  0  0  0  0  0  0  0  0  0
   25.1907  -20.5242  -15.5134 C   0  0  0  0  0  0  0  0  0  0  0  0
   24.6866  -21.6699  -15.5733 O   0  0  0  0  0  0  0  0  0  0  0  0
   24.9071  -19.7362  -14.3681 N   0  0  0  0  0  0  0  0  0  0  0  0
   24.1191  -20.2721  -13.2590 C   0  0  1  0  0  0  0  0  0  0  0  0
   24.7996  -19.7771  -12.0044 C   0  0  0  0  0  0  0  0  0  0  0  0
   26.1919  -20.2011  -11.8558 C   0  0  0  0  0  0  0  0  0  0  0  0
   26.5095  -21.3132  -11.1239 C   0  0  0  0  0  0  0  0  0  0  0  0
   27.8308  -21.7042  -11.0012 C   0  0  0  0  0  0  0  0  0  0  0  0
   28.8260  -20.9973  -11.5998 C   0  0  0  0  0  0  0  0  0  0  0  0
   28.5063  -19.8888  -12.3292 C   0  0  0  0  0  0  0  0  0  0  0  0
   27.1938  -19.4849  -12.4619 C   0  0  0  0  0  0  0  0  0  0  0  0
   22.7358  -19.7483  -13.3092 C   0  0  0  0  0  0  0  0  0  0  0  0
   22.3567  -18.7298  -14.1668 O   0  0  0  0  0  0  0  0  0  0  0  0
   21.8145  -20.2140  -12.5558 O   0  0  0  0  0  0  0  0  0  0  0  0
  2  1  1  1
  3  4  1  0
  3  2  1  0
  4  5  2  0
  5  6  1  0
  7  6  1  0
  8  4  1  0
  8  7  2  0
  9  2  1  0
  9 10  2  0
 11  9  1  0
 12 11  1  0
 12 13  1  6
 13 14  1  0
 14 18  1  0
 14 15  2  0
 15 16  1  0
 17 16  1  0
 18 17  2  0
 19 12  1  0
 20 19  2  0
 21 19  1  0
 22 23  1  1
 22 21  1  0
 24 29  1  0
 24 23  1  0
 25 24  2  0
 26 27  2  0
 26 25  1  0
 27 28  1  0
 28 29  2  0
 30 22  1  0
 31 30  1  0
 32 30  2  0
M  END
$$$$
