HHF.pdb
     RDKit          3D

 32 34  0  0  1  0  0  0  0  0999 V2000
   25.7120  -16.9875  -19.6173 N   0  0  0  0  0  0  0  0  0  0  0  0
   25.4917  -16.5284  -18.2576 C   0  0  1  0  0  0  0  0  0  0  0  0
   24.2154  -15.7220  -18.1549 C   0  0  0  0  0  0  0  0  0  0  0  0
   24.3454  -14.4063  -18.8223 C   0  0  0  0  0  0  0  0  0  0  0  0
   23.6765  -14.0409  -19.9677 C   0  0  0  0  0  0  0  0  0  0  0  0
   24.0283  -12.8000  -20.2849 N   0  0  0  0  0  0  0  0  0  0  0  0
   24.9030  -12.3896  -19.3571 C   0  0  0  0  0  0  0  0  0  0  0  0
   25.0984  -13.3588  -18.4690 N   0  0  0  0  0  0  0  0  0  0  0  0
   25.3987  -17.7190  -17.3862 C   0  0  0  0  0  0  0  0  0  0  0  0
   24.7860  -18.7291  -17.8716 O   0  0  0  0  0  0  0  0  0  0  0  0
   25.9530  -17.7560  -16.0811 N   0  0  0  0  0  0  0  0  0  0  0  0
   25.7360  -18.8979  -15.2234 C   0  0  1  0  0  0  0  0  0  0  0  0
   26.8570  -18.9993  -14.2031 C   0  0  0  0  0  0  0  0  0  0  0  0
   26.6185  -20.1128  -13.2366 C   0  0  0  0  0  0  0  0  0  0  0  0
   25.4948  -20.9072  -13.2255 C   0  0  0  0  0  0  0  0  0  0  0  0
   25.6530  -21.7827  -12.2201 N   0  0  0  0  0  0  0  0  0  0  0  0
   26.8277  -21.5655  -11.6062 C   0  0  0  0  0  0  0  0  0  0  0  0
   27.4058  -20.5392  -12.2418 N   0  0  0  0  0  0  0  0  0  0  0  0
   24.4095  -18.8065  -14.5384 C   0  0  0  0  0  0  0  0  0  0  0  0
   24.1172  -17.7987  -13.8534 O   0  0  0  0  0  0  0  0  0  0  0  0
   23.4447  -19.8421  -14.6359 N   0  0  0  0  0  0  0  0  0  0  0  0
   22.1651  -19.7506  -13.9342 C   0  0  1  0  0  0  0  0  0  0  0  0
   21.3843  -18.6781  -14.6570 C   0  0  0  0  0  0  0  0  0  0  0  0
   21.0741  -18.9838  -16.0537 C   0  0  0  0  0  0  0  0  0  0  0  0
   21.4230  -18.1162  -17.0532 C   0  0  0  0  0  0  0  0  0  0  0  0
   21.1291  -18.4258  -18.3691 C   0  0  0  0  0  0  0  0  0  0  0  0
   20.4952  -19.5854  -18.6883 C   0  0  0  0  0  0  0  0  0  0  0  0
   20.1486  -20.4487  -17.6895 C   0  0  0  0  0  0  0  0  0  0  0  0
   20.4341  -20.1557  -16.3719 C   0  0  0  0  0  0  0  0  0  0  0  0
   21.4359  -21.0355  -14.0222 C   0  0  0  0  0  0  0  0  0  0  0  0
   20.2191  -21.2446  -13.3960 O   0  0  0  0  0  0  0  0  0  0  0  0
   21.8983  -22.0250  -14.6858 O   0  0  0  0  0  0  0  0  0  0  0  0
  2  1  1  6
  3  4  1  0
  3  2  1  0
  4  5  2  0
  5  6  1  0
  7  6  1  0
  8  4  1  0
  8  7  2  0
  9  2  1  0
  9 10  2  0
 11  9  1  0
 12 11  1  0
 12 13  1  1
 13 14  1  0
 14 18  1  0
 14 15  2  0
 15 16  1  0
 17 16  1  0
 18 17  2  0
 19 12  1  0
 20 19  2  0
 21 19  1  0
 22 23  1  6
 22 21  1  0
 24 29  1  0
 24 23  1  0
 25 24  2  0
 26 27  2  0
 26 25  1  0
 27 28  1  0
 28 29  2  0
 30 22  1  0
 31 30  1  0
 32 30  2  0
M  END
$$$$
