HHF.pdb
     RDKit          3D

 32 34  0  0  1  0  0  0  0  0999 V2000
   22.0107  -12.7758  -21.0110 N   0  0  0  0  0  0  0  0  0  0  0  0
   22.0007  -12.7635  -19.5592 C   0  0  1  0  0  0  0  0  0  0  0  0
   23.3935  -12.9653  -19.0031 C   0  0  0  0  0  0  0  0  0  0  0  0
   23.8922  -14.3354  -19.2632 C   0  0  0  0  0  0  0  0  0  0  0  0
   23.1070  -15.4651  -19.2715 C   0  0  0  0  0  0  0  0  0  0  0  0
   23.8778  -16.5135  -19.5375 N   0  0  0  0  0  0  0  0  0  0  0  0
   25.1263  -16.0545  -19.6943 C   0  0  0  0  0  0  0  0  0  0  0  0
   25.1405  -14.7358  -19.5292 N   0  0  0  0  0  0  0  0  0  0  0  0
   21.4754  -11.4532  -19.1202 C   0  0  0  0  0  0  0  0  0  0  0  0
   21.8847  -10.4328  -19.7703 O   0  0  0  0  0  0  0  0  0  0  0  0
   20.5669  -11.3173  -18.0395 N   0  0  0  0  0  0  0  0  0  0  0  0
   20.0819  -10.0143  -17.6475 C   0  0  1  0  0  0  0  0  0  0  0  0
   18.6058   -9.8887  -17.9842 C   0  0  0  0  0  0  0  0  0  0  0  0
   18.0505   -8.5782  -17.5311 C   0  0  0  0  0  0  0  0  0  0  0  0
   18.7701   -7.6190  -16.8558 C   0  0  0  0  0  0  0  0  0  0  0  0
   17.9294   -6.5975  -16.6276 N   0  0  0  0  0  0  0  0  0  0  0  0
   16.7178   -6.8819  -17.1327 C   0  0  0  0  0  0  0  0  0  0  0  0
   16.8101   -8.0988  -17.6824 N   0  0  0  0  0  0  0  0  0  0  0  0
   20.3094   -9.7767  -16.1884 C   0  0  0  0  0  0  0  0  0  0  0  0
   19.9222  -10.6149  -15.3411 O   0  0  0  0  0  0  0  0  0  0  0  0
   20.9628   -8.6102  -15.7138 N   0  0  0  0  0  0  0  0  0  0  0  0
   21.2434   -8.4281  -14.2902 C   0  0  1  0  0  0  0  0  0  0  0  0
   22.7298   -8.1734  -14.2014 C   0  0  0  0  0  0  0  0  0  0  0  0
   23.2023   -7.0309  -14.9836 C   0  0  0  0  0  0  0  0  0  0  0  0
   23.1388   -5.7617  -14.4754 C   0  0  0  0  0  0  0  0  0  0  0  0
   23.5982   -4.6942  -15.2260 C   0  0  0  0  0  0  0  0  0  0  0  0
   24.1153   -4.8863  -16.4686 C   0  0  0  0  0  0  0  0  0  0  0  0
   24.1776   -6.1532  -16.9728 C   0  0  0  0  0  0  0  0  0  0  0  0
   23.7240   -7.2290  -16.2377 C   0  0  0  0  0  0  0  0  0  0  0  0
   20.5096   -7.2545  -13.7663 C   0  0  0  0  0  0  0  0  0  0  0  0
   20.3467   -7.0233  -12.4111 O   0  0  0  0  0  0  0  0  0  0  0  0
   19.9843   -6.3889  -14.5461 O   0  0  0  0  0  0  0  0  0  0  0  0
  2  1  1  6
  3  4  1  0
  3  2  1  0
  4  5  2  0
  5  6  1  0
  7  6  1  0
  8  4  1  0
  8  7  2  0
  9  2  1  0
  9 10  2  0
 11  9  1  0
 12 11  1  0
 12 13  1  1
 13 14  1  0
 14 18  1  0
 14 15  2  0
 15 16  1  0
 17 16  1  0
 18 17  2  0
 19 12  1  0
 20 19  2  0
 21 19  1  0
 22 23  1  6
 22 21  1  0
 24 29  1  0
 24 23  1  0
 25 24  2  0
 26 27  2  0
 26 25  1  0
 27 28  1  0
 28 29  2  0
 30 22  1  0
 31 30  1  0
 32 30  2  0
M  END
$$$$
