HHF.pdb
     RDKit          3D

 32 34  0  0  1  0  0  0  0  0999 V2000
   19.2943  -11.9032  -18.6372 N   0  0  0  0  0  0  0  0  0  0  0  0
   20.1718  -10.9618  -19.3093 C   0  0  1  0  0  0  0  0  0  0  0  0
   19.8380   -9.5366  -18.9259 C   0  0  0  0  0  0  0  0  0  0  0  0
   18.5143   -9.1261  -19.4483 C   0  0  0  0  0  0  0  0  0  0  0  0
   18.2965   -8.6014  -20.7013 C   0  0  0  0  0  0  0  0  0  0  0  0
   16.9994   -8.3479  -20.8335 N   0  0  0  0  0  0  0  0  0  0  0  0
   16.4093   -8.7059  -19.6856 C   0  0  0  0  0  0  0  0  0  0  0  0
   17.3224   -9.1779  -18.8432 N   0  0  0  0  0  0  0  0  0  0  0  0
   21.5609  -11.2716  -18.9095 C   0  0  0  0  0  0  0  0  0  0  0  0
   21.7710  -11.4149  -17.6579 O   0  0  0  0  0  0  0  0  0  0  0  0
   22.6148  -11.4059  -19.8494 N   0  0  0  0  0  0  0  0  0  0  0  0
   23.9580  -11.7031  -19.4088 C   0  0  1  0  0  0  0  0  0  0  0  0
   24.6774  -12.5285  -20.4620 C   0  0  0  0  0  0  0  0  0  0  0  0
   26.0402  -12.9330  -20.0037 C   0  0  0  0  0  0  0  0  0  0  0  0
   26.3092  -14.0574  -19.2572 C   0  0  0  0  0  0  0  0  0  0  0  0
   27.6354  -14.0725  -19.0493 N   0  0  0  0  0  0  0  0  0  0  0  0
   28.2016  -13.0047  -19.6353 C   0  0  0  0  0  0  0  0  0  0  0  0
   27.2099  -12.3178  -20.2151 N   0  0  0  0  0  0  0  0  0  0  0  0
   24.7153  -10.4461  -19.1196 C   0  0  0  0  0  0  0  0  0  0  0  0
   24.5604   -9.4321  -19.8395 O   0  0  0  0  0  0  0  0  0  0  0  0
   25.6252  -10.3542  -18.0350 N   0  0  0  0  0  0  0  0  0  0  0  0
   26.4284   -9.1507  -17.8229 C   0  0  1  0  0  0  0  0  0  0  0  0
   26.9924   -9.2827  -16.4277 C   0  0  0  0  0  0  0  0  0  0  0  0
   27.6803  -10.5465  -16.1632 C   0  0  0  0  0  0  0  0  0  0  0  0
   27.0277  -11.5829  -15.5521 C   0  0  0  0  0  0  0  0  0  0  0  0
   27.6917  -12.7737  -15.3176 C   0  0  0  0  0  0  0  0  0  0  0  0
   28.9905  -12.9328  -15.6865 C   0  0  0  0  0  0  0  0  0  0  0  0
   29.6387  -11.8975  -16.2958 C   0  0  0  0  0  0  0  0  0  0  0  0
   28.9917  -10.7032  -16.5374 C   0  0  0  0  0  0  0  0  0  0  0  0
   27.5383   -9.0929  -18.8002 C   0  0  0  0  0  0  0  0  0  0  0  0
   28.3253   -7.9662  -18.9663 O   0  0  0  0  0  0  0  0  0  0  0  0
   27.8271  -10.0891  -19.5469 O   0  0  0  0  0  0  0  0  0  0  0  0
  2  1  1  1
  3  4  1  0
  3  2  1  0
  4  5  2  0
  5  6  1  0
  7  6  1  0
  8  4  1  0
  8  7  2  0
  9  2  1  0
  9 10  2  0
 11  9  1  0
 12 11  1  0
 12 13  1  6
 13 14  1  0
 14 18  1  0
 14 15  2  0
 15 16  1  0
 17 16  1  0
 18 17  2  0
 19 12  1  0
 20 19  2  0
 21 19  1  0
 22 23  1  1
 22 21  1  0
 24 29  1  0
 24 23  1  0
 25 24  2  0
 26 27  2  0
 26 25  1  0
 27 28  1  0
 28 29  2  0
 30 22  1  0
 31 30  1  0
 32 30  2  0
M  END
$$$$
