HHF.pdb
     RDKit          3D

 32 34  0  0  1  0  0  0  0  0999 V2000
   31.2521  -36.6869   -5.5260 N   0  0  0  0  0  0  0  0  0  0  0  0
   31.4788  -35.7265   -4.4610 C   0  0  1  0  0  0  0  0  0  0  0  0
   31.3548  -34.3075   -4.9717 C   0  0  0  0  0  0  0  0  0  0  0  0
   32.5505  -33.8984   -5.7439 C   0  0  0  0  0  0  0  0  0  0  0  0
   33.6299  -34.7112   -6.0030 C   0  0  0  0  0  0  0  0  0  0  0  0
   34.5145  -34.0240   -6.7167 N   0  0  0  0  0  0  0  0  0  0  0  0
   34.0033  -32.8003   -6.9048 C   0  0  0  0  0  0  0  0  0  0  0  0
   32.8138  -32.7190   -6.3176 N   0  0  0  0  0  0  0  0  0  0  0  0
   30.4668  -35.9668   -3.4105 C   0  0  0  0  0  0  0  0  0  0  0  0
   29.2716  -36.1707   -3.8120 O   0  0  0  0  0  0  0  0  0  0  0  0
   30.7867  -35.9742   -2.0286 N   0  0  0  0  0  0  0  0  0  0  0  0
   29.7540  -36.1658   -1.0369 C   0  0  1  0  0  0  0  0  0  0  0  0
   30.3776  -36.5679    0.2888 C   0  0  0  0  0  0  0  0  0  0  0  0
   29.3351  -36.8724    1.3141 C   0  0  0  0  0  0  0  0  0  0  0  0
   27.9792  -36.8301    1.0827 C   0  0  0  0  0  0  0  0  0  0  0  0
   27.3816  -37.1639    2.2376 N   0  0  0  0  0  0  0  0  0  0  0  0
   28.3093  -37.4118    3.1767 C   0  0  0  0  0  0  0  0  0  0  0  0
   29.5001  -37.2285    2.5937 N   0  0  0  0  0  0  0  0  0  0  0  0
   28.9321  -34.9265   -0.8759 C   0  0  0  0  0  0  0  0  0  0  0  0
   29.4330  -33.7996   -1.0983 O   0  0  0  0  0  0  0  0  0  0  0  0
   27.5734  -34.9779   -0.4709 N   0  0  0  0  0  0  0  0  0  0  0  0
   26.7769  -33.7582   -0.3428 C   0  0  1  0  0  0  0  0  0  0  0  0
   26.6978  -33.1799   -1.7362 C   0  0  0  0  0  0  0  0  0  0  0  0
   25.8618  -31.9853   -1.8561 C   0  0  0  0  0  0  0  0  0  0  0  0
   26.0046  -30.9417   -0.9821 C   0  0  0  0  0  0  0  0  0  0  0  0
   25.2112  -29.8163   -1.1159 C   0  0  0  0  0  0  0  0  0  0  0  0
   24.2855  -29.7291   -2.1079 C   0  0  0  0  0  0  0  0  0  0  0  0
   24.1454  -30.7713   -2.9780 C   0  0  0  0  0  0  0  0  0  0  0  0
   24.9285  -31.9010   -2.8591 C   0  0  0  0  0  0  0  0  0  0  0  0
   25.4140  -34.0805    0.1356 C   0  0  0  0  0  0  0  0  0  0  0  0
   24.7674  -33.3283    1.1014 O   0  0  0  0  0  0  0  0  0  0  0  0
   24.7609  -35.0788   -0.3226 O   0  0  0  0  0  0  0  0  0  0  0  0
  2  1  1  6
  3  4  1  0
  3  2  1  0
  4  5  2  0
  5  6  1  0
  7  6  1  0
  8  4  1  0
  8  7  2  0
  9  2  1  0
  9 10  2  0
 11  9  1  0
 12 11  1  0
 12 13  1  1
 13 14  1  0
 14 18  1  0
 14 15  2  0
 15 16  1  0
 17 16  1  0
 18 17  2  0
 19 12  1  0
 20 19  2  0
 21 19  1  0
 22 23  1  6
 22 21  1  0
 24 29  1  0
 24 23  1  0
 25 24  2  0
 26 27  2  0
 26 25  1  0
 27 28  1  0
 28 29  2  0
 30 22  1  0
 31 30  1  0
 32 30  2  0
M  END
$$$$
