HHF.pdb
     RDKit          3D

 32 34  0  0  1  0  0  0  0  0999 V2000
   25.7725  -17.7594  -18.9115 N   0  0  0  0  0  0  0  0  0  0  0  0
   25.3759  -17.6117  -17.5227 C   0  0  1  0  0  0  0  0  0  0  0  0
   24.1123  -16.7881  -17.4016 C   0  0  0  0  0  0  0  0  0  0  0  0
   24.3564  -15.3628  -17.7222 C   0  0  0  0  0  0  0  0  0  0  0  0
   25.5921  -14.8234  -17.9962 C   0  0  0  0  0  0  0  0  0  0  0  0
   25.4424  -13.5261  -18.2383 N   0  0  0  0  0  0  0  0  0  0  0  0
   24.1369  -13.2515  -18.1193 C   0  0  0  0  0  0  0  0  0  0  0  0
   23.4747  -14.3606  -17.8068 N   0  0  0  0  0  0  0  0  0  0  0  0
   25.1427  -18.9634  -16.9713 C   0  0  0  0  0  0  0  0  0  0  0  0
   24.4617  -19.7619  -17.6994 O   0  0  0  0  0  0  0  0  0  0  0  0
   25.6396  -19.3689  -15.7062 N   0  0  0  0  0  0  0  0  0  0  0  0
   25.3464  -20.6858  -15.1899 C   0  0  1  0  0  0  0  0  0  0  0  0
   26.6226  -21.3422  -14.6913 C   0  0  0  0  0  0  0  0  0  0  0  0
   27.5203  -21.7229  -15.8227 C   0  0  0  0  0  0  0  0  0  0  0  0
   27.1797  -21.6295  -17.1528 C   0  0  0  0  0  0  0  0  0  0  0  0
   28.2412  -22.0607  -17.8526 N   0  0  0  0  0  0  0  0  0  0  0  0
   29.2269  -22.4180  -17.0130 C   0  0  0  0  0  0  0  0  0  0  0  0
   28.7681  -22.2045  -15.7739 N   0  0  0  0  0  0  0  0  0  0  0  0
   24.3299  -20.6157  -14.0949 C   0  0  0  0  0  0  0  0  0  0  0  0
   24.4724  -19.8078  -13.1476 O   0  0  0  0  0  0  0  0  0  0  0  0
   23.1816  -21.4488  -14.0863 N   0  0  0  0  0  0  0  0  0  0  0  0
   22.2161  -21.3927  -12.9895 C   0  0  1  0  0  0  0  0  0  0  0  0
   21.6916  -19.9759  -12.9857 C   0  0  0  0  0  0  0  0  0  0  0  0
   20.6220  -19.7223  -12.0205 C   0  0  0  0  0  0  0  0  0  0  0  0
   20.9066  -19.5352  -10.6948 C   0  0  0  0  0  0  0  0  0  0  0  0
   19.8829  -19.2880   -9.7977 C   0  0  0  0  0  0  0  0  0  0  0  0
   18.5900  -19.2273  -10.2137 C   0  0  0  0  0  0  0  0  0  0  0  0
   18.3092  -19.4142  -11.5363 C   0  0  0  0  0  0  0  0  0  0  0  0
   19.3178  -19.6616  -12.4445 C   0  0  0  0  0  0  0  0  0  0  0  0
   21.0992  -22.3315  -13.2375 C   0  0  0  0  0  0  0  0  0  0  0  0
   20.3828  -22.9230  -12.2111 O   0  0  0  0  0  0  0  0  0  0  0  0
   20.7380  -22.6461  -14.4223 O   0  0  0  0  0  0  0  0  0  0  0  0
  2  1  1  6
  3  4  1  0
  3  2  1  0
  4  5  2  0
  5  6  1  0
  7  6  1  0
  8  4  1  0
  8  7  2  0
  9  2  1  0
  9 10  2  0
 11  9  1  0
 12 11  1  0
 12 13  1  1
 13 14  1  0
 14 18  1  0
 14 15  2  0
 15 16  1  0
 17 16  1  0
 18 17  2  0
 19 12  1  0
 20 19  2  0
 21 19  1  0
 22 23  1  6
 22 21  1  0
 24 29  1  0
 24 23  1  0
 25 24  2  0
 26 27  2  0
 26 25  1  0
 27 28  1  0
 28 29  2  0
 30 22  1  0
 31 30  1  0
 32 30  2  0
M  END
$$$$
