HHF.pdb
     RDKit          3D

 32 34  0  0  1  0  0  0  0  0999 V2000
   28.5806  -11.3069  -19.1941 N   0  0  0  0  0  0  0  0  0  0  0  0
   28.1075  -10.0947  -18.5500 C   0  0  1  0  0  0  0  0  0  0  0  0
   28.0949  -10.2472  -17.0445 C   0  0  0  0  0  0  0  0  0  0  0  0
   26.9919  -11.1267  -16.5938 C   0  0  0  0  0  0  0  0  0  0  0  0
   26.9477  -12.4880  -16.7886 C   0  0  0  0  0  0  0  0  0  0  0  0
   25.8222  -12.9542  -16.2593 N   0  0  0  0  0  0  0  0  0  0  0  0
   25.1680  -11.9069  -15.7402 C   0  0  0  0  0  0  0  0  0  0  0  0
   25.8722  -10.7977  -15.9400 N   0  0  0  0  0  0  0  0  0  0  0  0
   29.0179   -8.9939  -18.9304 C   0  0  0  0  0  0  0  0  0  0  0  0
   30.2511   -9.2992  -19.0620 O   0  0  0  0  0  0  0  0  0  0  0  0
   28.5653   -7.6663  -19.1416 N   0  0  0  0  0  0  0  0  0  0  0  0
   29.4750   -6.6461  -19.6089 C   0  0  1  0  0  0  0  0  0  0  0  0
   28.7333   -5.6557  -20.4904 C   0  0  0  0  0  0  0  0  0  0  0  0
   28.5624   -6.1798  -21.8786 C   0  0  0  0  0  0  0  0  0  0  0  0
   29.2560   -7.2486  -22.3986 C   0  0  0  0  0  0  0  0  0  0  0  0
   28.8258   -7.4090  -23.6602 N   0  0  0  0  0  0  0  0  0  0  0  0
   27.8941   -6.4845  -23.9457 C   0  0  0  0  0  0  0  0  0  0  0  0
   27.7453   -5.7403  -22.8433 N   0  0  0  0  0  0  0  0  0  0  0  0
   30.1236   -5.9423  -18.4594 C   0  0  0  0  0  0  0  0  0  0  0  0
   29.4478   -5.6029  -17.4602 O   0  0  0  0  0  0  0  0  0  0  0  0
   31.5089   -5.6359  -18.4558 N   0  0  0  0  0  0  0  0  0  0  0  0
   32.0999   -4.8241  -17.3928 C   0  0  1  0  0  0  0  0  0  0  0  0
   32.3256   -5.7727  -16.2389 C   0  0  0  0  0  0  0  0  0  0  0  0
   33.1259   -5.2243  -15.1439 C   0  0  0  0  0  0  0  0  0  0  0  0
   32.5907   -4.3110  -14.2762 C   0  0  0  0  0  0  0  0  0  0  0  0
   33.3598   -3.8096  -13.2413 C   0  0  0  0  0  0  0  0  0  0  0  0
   34.6473   -4.2115  -13.0707 C   0  0  0  0  0  0  0  0  0  0  0  0
   35.1784   -5.1224  -13.9374 C   0  0  0  0  0  0  0  0  0  0  0  0
   34.4255   -5.6328  -14.9748 C   0  0  0  0  0  0  0  0  0  0  0  0
   33.3977   -4.2648  -17.8326 C   0  0  0  0  0  0  0  0  0  0  0  0
   34.1327   -4.8162  -18.8680 O   0  0  0  0  0  0  0  0  0  0  0  0
   33.9092   -3.2363  -17.2724 O   0  0  0  0  0  0  0  0  0  0  0  0
  2  1  1  6
  3  4  1  0
  3  2  1  0
  4  5  2  0
  5  6  1  0
  7  6  1  0
  8  4  1  0
  8  7  2  0
  9  2  1  0
  9 10  2  0
 11  9  1  0
 12 11  1  0
 12 13  1  1
 13 14  1  0
 14 18  1  0
 14 15  2  0
 15 16  1  0
 17 16  1  0
 18 17  2  0
 19 12  1  0
 20 19  2  0
 21 19  1  0
 22 23  1  1
 22 21  1  0
 24 29  1  0
 24 23  1  0
 25 24  2  0
 26 27  2  0
 26 25  1  0
 27 28  1  0
 28 29  2  0
 30 22  1  0
 31 30  1  0
 32 30  2  0
M  END
$$$$
