HHF.pdb
     RDKit          3D

 32 34  0  0  1  0  0  0  0  0999 V2000
   20.0325   -9.6167  -19.2498 N   0  0  0  0  0  0  0  0  0  0  0  0
   20.7654   -8.3787  -19.0542 C   0  0  1  0  0  0  0  0  0  0  0  0
   20.3799   -7.3476  -20.0925 C   0  0  0  0  0  0  0  0  0  0  0  0
   20.8738   -7.7172  -21.4390 C   0  0  0  0  0  0  0  0  0  0  0  0
   21.9488   -7.1304  -22.0660 C   0  0  0  0  0  0  0  0  0  0  0  0
   22.1095   -7.7032  -23.2535 N   0  0  0  0  0  0  0  0  0  0  0  0
   21.1541   -8.6341  -23.3741 C   0  0  0  0  0  0  0  0  0  0  0  0
   20.4029   -8.6467  -22.2778 N   0  0  0  0  0  0  0  0  0  0  0  0
   20.4432   -7.8691  -17.7044 C   0  0  0  0  0  0  0  0  0  0  0  0
   19.2030   -7.8008  -17.4064 O   0  0  0  0  0  0  0  0  0  0  0  0
   21.4420   -7.4734  -16.7784 N   0  0  0  0  0  0  0  0  0  0  0  0
   21.0841   -7.0838  -15.4342 C   0  0  1  0  0  0  0  0  0  0  0  0
   21.6334   -8.0922  -14.4395 C   0  0  0  0  0  0  0  0  0  0  0  0
   20.9838   -9.4277  -14.5987 C   0  0  0  0  0  0  0  0  0  0  0  0
   21.5899  -10.5264  -15.1639 C   0  0  0  0  0  0  0  0  0  0  0  0
   20.6918  -11.5234  -15.1250 N   0  0  0  0  0  0  0  0  0  0  0  0
   19.5531  -11.0902  -14.5593 C   0  0  0  0  0  0  0  0  0  0  0  0
   19.7498   -9.8046  -14.2431 N   0  0  0  0  0  0  0  0  0  0  0  0
   21.5903   -5.7111  -15.1237 C   0  0  0  0  0  0  0  0  0  0  0  0
   22.7877   -5.4120  -15.3410 O   0  0  0  0  0  0  0  0  0  0  0  0
   20.7470   -4.7086  -14.5789 N   0  0  0  0  0  0  0  0  0  0  0  0
   21.1829   -3.3149  -14.5019 C   0  0  1  0  0  0  0  0  0  0  0  0
   21.3720   -2.8717  -15.9336 C   0  0  0  0  0  0  0  0  0  0  0  0
   21.7169   -1.4593  -16.0961 C   0  0  0  0  0  0  0  0  0  0  0  0
   20.7677   -0.5464  -16.4689 C   0  0  0  0  0  0  0  0  0  0  0  0
   21.1102    0.7866  -16.6094 C   0  0  0  0  0  0  0  0  0  0  0  0
   22.3827    1.2078  -16.3819 C   0  0  0  0  0  0  0  0  0  0  0  0
   23.3271    0.2952  -16.0101 C   0  0  0  0  0  0  0  0  0  0  0  0
   23.0028   -1.0379  -15.8652 C   0  0  0  0  0  0  0  0  0  0  0  0
   20.1394   -2.4832  -13.8617 C   0  0  0  0  0  0  0  0  0  0  0  0
   20.4424   -1.3870  -13.0723 O   0  0  0  0  0  0  0  0  0  0  0  0
   18.8956   -2.7387  -14.0065 O   0  0  0  0  0  0  0  0  0  0  0  0
  2  1  1  6
  3  4  1  0
  3  2  1  0
  4  5  2  0
  5  6  1  0
  7  6  1  0
  8  4  1  0
  8  7  2  0
  9  2  1  0
  9 10  2  0
 11  9  1  0
 12 11  1  0
 12 13  1  1
 13 14  1  0
 14 18  1  0
 14 15  2  0
 15 16  1  0
 17 16  1  0
 18 17  2  0
 19 12  1  0
 20 19  2  0
 21 19  1  0
 22 23  1  6
 22 21  1  0
 24 29  1  0
 24 23  1  0
 25 24  2  0
 26 27  2  0
 26 25  1  0
 27 28  1  0
 28 29  2  0
 30 22  1  0
 31 30  1  0
 32 30  2  0
M  END
$$$$
