HHF.pdb
     RDKit          3D

 32 34  0  0  1  0  0  0  0  0999 V2000
   20.2527   -9.4314  -22.3031 N   0  0  0  0  0  0  0  0  0  0  0  0
   21.0994   -9.6877  -21.1518 C   0  0  1  0  0  0  0  0  0  0  0  0
   22.4138   -8.9468  -21.2665 C   0  0  0  0  0  0  0  0  0  0  0  0
   23.2730   -9.5198  -22.3281 C   0  0  0  0  0  0  0  0  0  0  0  0
   23.9064   -8.7846  -23.3034 C   0  0  0  0  0  0  0  0  0  0  0  0
   24.5883   -9.6159  -24.0831 N   0  0  0  0  0  0  0  0  0  0  0  0
   24.3894  -10.8527  -23.6091 C   0  0  0  0  0  0  0  0  0  0  0  0
   23.5934  -10.8001  -22.5461 N   0  0  0  0  0  0  0  0  0  0  0  0
   20.3756   -9.2320  -19.9460 C   0  0  0  0  0  0  0  0  0  0  0  0
   19.7735   -8.1094  -20.0379 O   0  0  0  0  0  0  0  0  0  0  0  0
   20.3408   -9.9860  -18.7451 N   0  0  0  0  0  0  0  0  0  0  0  0
   19.6121   -9.5023  -17.5954 C   0  0  1  0  0  0  0  0  0  0  0  0
   18.4329  -10.4160  -17.3079 C   0  0  0  0  0  0  0  0  0  0  0  0
   17.7251  -10.0182  -16.0544 C   0  0  0  0  0  0  0  0  0  0  0  0
   16.8608   -8.9521  -15.9526 C   0  0  0  0  0  0  0  0  0  0  0  0
   16.4343   -8.9231  -14.6800 N   0  0  0  0  0  0  0  0  0  0  0  0
   16.9973   -9.9264  -13.9869 C   0  0  0  0  0  0  0  0  0  0  0  0
   17.7848  -10.5869  -14.8442 N   0  0  0  0  0  0  0  0  0  0  0  0
   20.5051   -9.4058  -16.3994 C   0  0  0  0  0  0  0  0  0  0  0  0
   21.5657  -10.0711  -16.3440 O   0  0  0  0  0  0  0  0  0  0  0  0
   20.1909   -8.5696  -15.2971 N   0  0  0  0  0  0  0  0  0  0  0  0
   21.1340   -8.3872  -14.1946 C   0  0  1  0  0  0  0  0  0  0  0  0
   22.2988   -7.6252  -14.7820 C   0  0  0  0  0  0  0  0  0  0  0  0
   22.0098   -6.2315  -15.1200 C   0  0  0  0  0  0  0  0  0  0  0  0
   22.0389   -5.2584  -14.1579 C   0  0  0  0  0  0  0  0  0  0  0  0
   21.7713   -3.9443  -14.4974 C   0  0  0  0  0  0  0  0  0  0  0  0
   21.4778   -3.6008  -15.7797 C   0  0  0  0  0  0  0  0  0  0  0  0
   21.4496   -4.5733  -16.7371 C   0  0  0  0  0  0  0  0  0  0  0  0
   21.7141   -5.8887  -16.4159 C   0  0  0  0  0  0  0  0  0  0  0  0
   20.5155   -7.5868  -13.1143 C   0  0  0  0  0  0  0  0  0  0  0  0
   19.2565   -7.0235  -13.2335 O   0  0  0  0  0  0  0  0  0  0  0  0
   21.1189   -7.3733  -12.0081 O   0  0  0  0  0  0  0  0  0  0  0  0
  2  1  1  6
  3  4  1  0
  3  2  1  0
  4  5  2  0
  5  6  1  0
  7  6  1  0
  8  4  1  0
  8  7  2  0
  9  2  1  0
  9 10  2  0
 11  9  1  0
 12 11  1  0
 12 13  1  1
 13 14  1  0
 14 18  1  0
 14 15  2  0
 15 16  1  0
 17 16  1  0
 18 17  2  0
 19 12  1  0
 20 19  2  0
 21 19  1  0
 22 23  1  6
 22 21  1  0
 24 29  1  0
 24 23  1  0
 25 24  2  0
 26 27  2  0
 26 25  1  0
 27 28  1  0
 28 29  2  0
 30 22  1  0
 31 30  1  0
 32 30  2  0
M  END
$$$$
