HHF.pdb
     RDKit          3D

 32 34  0  0  1  0  0  0  0  0999 V2000
   22.6096  -33.2518  -17.8152 N   0  0  0  0  0  0  0  0  0  0  0  0
   23.4954  -33.1794  -16.6672 C   0  0  1  0  0  0  0  0  0  0  0  0
   23.6518  -31.7523  -16.1889 C   0  0  0  0  0  0  0  0  0  0  0  0
   24.3704  -30.9194  -17.1807 C   0  0  0  0  0  0  0  0  0  0  0  0
   25.7359  -30.9066  -17.3483 C   0  0  0  0  0  0  0  0  0  0  0  0
   26.0343  -30.0501  -18.3187 N   0  0  0  0  0  0  0  0  0  0  0  0
   24.8790  -29.5319  -18.7555 C   0  0  0  0  0  0  0  0  0  0  0  0
   23.8681  -30.0551  -18.0695 N   0  0  0  0  0  0  0  0  0  0  0  0
   22.9089  -34.0033  -15.5889 C   0  0  0  0  0  0  0  0  0  0  0  0
   21.6520  -33.8770  -15.4002 O   0  0  0  0  0  0  0  0  0  0  0  0
   23.6830  -34.8902  -14.7978 N   0  0  0  0  0  0  0  0  0  0  0  0
   23.0559  -35.7111  -13.7881 C   0  0  1  0  0  0  0  0  0  0  0  0
   23.0889  -37.1694  -14.2127 C   0  0  0  0  0  0  0  0  0  0  0  0
   22.0712  -37.4554  -15.2679 C   0  0  0  0  0  0  0  0  0  0  0  0
   20.8164  -37.9646  -15.0223 C   0  0  0  0  0  0  0  0  0  0  0  0
   20.2079  -38.0784  -16.2136 N   0  0  0  0  0  0  0  0  0  0  0  0
   21.0320  -37.6614  -17.1888 C   0  0  0  0  0  0  0  0  0  0  0  0
   22.1686  -37.2834  -16.5916 N   0  0  0  0  0  0  0  0  0  0  0  0
   23.7281  -35.5349  -12.4636 C   0  0  0  0  0  0  0  0  0  0  0  0
   24.9727  -35.6427  -12.3643 O   0  0  0  0  0  0  0  0  0  0  0  0
   22.9937  -35.2430  -11.2853 N   0  0  0  0  0  0  0  0  0  0  0  0
   23.6609  -35.1244   -9.9896 C   0  0  1  0  0  0  0  0  0  0  0  0
   23.3925  -33.7120   -9.5254 C   0  0  0  0  0  0  0  0  0  0  0  0
   23.8385  -33.4208   -8.1629 C   0  0  0  0  0  0  0  0  0  0  0  0
   25.1193  -33.0030   -7.9210 C   0  0  0  0  0  0  0  0  0  0  0  0
   25.5211  -32.7240   -6.6269 C   0  0  0  0  0  0  0  0  0  0  0  0
   24.6590  -32.8588   -5.5842 C   0  0  0  0  0  0  0  0  0  0  0  0
   23.3824  -33.2755   -5.8285 C   0  0  0  0  0  0  0  0  0  0  0  0
   22.9651  -33.5579   -7.1128 C   0  0  0  0  0  0  0  0  0  0  0  0
   23.0797  -36.0807   -9.0211 C   0  0  0  0  0  0  0  0  0  0  0  0
   23.8514  -36.7676   -8.0995 O   0  0  0  0  0  0  0  0  0  0  0  0
   21.8252  -36.3227   -8.9879 O   0  0  0  0  0  0  0  0  0  0  0  0
  2  1  1  6
  3  4  1  0
  3  2  1  0
  4  5  2  0
  5  6  1  0
  7  6  1  0
  8  4  1  0
  8  7  2  0
  9  2  1  0
  9 10  2  0
 11  9  1  0
 12 11  1  0
 12 13  1  6
 13 14  1  0
 14 18  1  0
 14 15  2  0
 15 16  1  0
 17 16  1  0
 18 17  2  0
 19 12  1  0
 20 19  2  0
 21 19  1  0
 22 23  1  1
 22 21  1  0
 24 29  1  0
 24 23  1  0
 25 24  2  0
 26 27  2  0
 26 25  1  0
 27 28  1  0
 28 29  2  0
 30 22  1  0
 31 30  1  0
 32 30  2  0
M  END
$$$$
