HHF.pdb
     RDKit          3D

 32 34  0  0  1  0  0  0  0  0999 V2000
   26.9823  -26.3604  -17.8133 N   0  0  0  0  0  0  0  0  0  0  0  0
   25.8538  -26.1941  -16.9151 C   0  0  1  0  0  0  0  0  0  0  0  0
   25.9262  -27.1720  -15.7625 C   0  0  0  0  0  0  0  0  0  0  0  0
   25.5866  -28.5482  -16.1916 C   0  0  0  0  0  0  0  0  0  0  0  0
   26.4973  -29.5692  -16.3370 C   0  0  0  0  0  0  0  0  0  0  0  0
   25.8501  -30.6593  -16.7331 N   0  0  0  0  0  0  0  0  0  0  0  0
   24.5551  -30.3328  -16.8359 C   0  0  0  0  0  0  0  0  0  0  0  0
   24.3902  -29.0553  -16.5090 N   0  0  0  0  0  0  0  0  0  0  0  0
   25.8873  -24.8105  -16.3957 C   0  0  0  0  0  0  0  0  0  0  0  0
   27.0448  -24.3018  -16.2147 O   0  0  0  0  0  0  0  0  0  0  0  0
   24.7100  -24.0732  -16.1087 N   0  0  0  0  0  0  0  0  0  0  0  0
   24.7916  -22.6921  -15.6934 C   0  0  1  0  0  0  0  0  0  0  0  0
   23.6993  -21.8825  -16.3712 C   0  0  0  0  0  0  0  0  0  0  0  0
   23.7602  -20.4431  -15.9769 C   0  0  0  0  0  0  0  0  0  0  0  0
   24.7322  -19.5621  -16.3927 C   0  0  0  0  0  0  0  0  0  0  0  0
   24.4433  -18.3777  -15.8304 N   0  0  0  0  0  0  0  0  0  0  0  0
   23.3327  -18.4860  -15.0829 C   0  0  0  0  0  0  0  0  0  0  0  0
   22.9278  -19.7577  -15.1841 N   0  0  0  0  0  0  0  0  0  0  0  0
   24.6857  -22.5747  -14.2061 C   0  0  0  0  0  0  0  0  0  0  0  0
   23.8441  -23.2550  -13.5742 O   0  0  0  0  0  0  0  0  0  0  0  0
   25.5217  -21.7014  -13.4636 N   0  0  0  0  0  0  0  0  0  0  0  0
   25.3881  -21.5806  -12.0124 C   0  0  1  0  0  0  0  0  0  0  0  0
   26.6233  -20.8415  -11.5537 C   0  0  0  0  0  0  0  0  0  0  0  0
   26.6656  -20.5515  -10.1204 C   0  0  0  0  0  0  0  0  0  0  0  0
   27.3328  -21.3800   -9.2591 C   0  0  0  0  0  0  0  0  0  0  0  0
   27.3694  -21.0854   -7.9079 C   0  0  0  0  0  0  0  0  0  0  0  0
   26.7494  -19.9790   -7.4179 C   0  0  0  0  0  0  0  0  0  0  0  0
   26.0850  -19.1546   -8.2792 C   0  0  0  0  0  0  0  0  0  0  0  0
   26.0386  -19.4334   -9.6296 C   0  0  0  0  0  0  0  0  0  0  0  0
   24.1847  -20.7902  -11.6696 C   0  0  0  0  0  0  0  0  0  0  0  0
   23.4075  -21.0632  -10.5569 O   0  0  0  0  0  0  0  0  0  0  0  0
   23.7992  -19.8082  -12.3910 O   0  0  0  0  0  0  0  0  0  0  0  0
  2  1  1  6
  3  4  1  0
  3  2  1  0
  4  5  2  0
  5  6  1  0
  7  6  1  0
  8  4  1  0
  8  7  2  0
  9  2  1  0
  9 10  2  0
 11  9  1  0
 12 11  1  0
 12 13  1  6
 13 14  1  0
 14 18  1  0
 14 15  2  0
 15 16  1  0
 17 16  1  0
 18 17  2  0
 19 12  1  0
 20 19  2  0
 21 19  1  0
 22 23  1  6
 22 21  1  0
 24 29  1  0
 24 23  1  0
 25 24  2  0
 26 27  2  0
 26 25  1  0
 27 28  1  0
 28 29  2  0
 30 22  1  0
 31 30  1  0
 32 30  2  0
M  END
$$$$
