HHF.pdb
     RDKit          3D

 32 34  0  0  1  0  0  0  0  0999 V2000
   22.2380  -12.1418  -23.9501 N   0  0  0  0  0  0  0  0  0  0  0  0
   21.0905  -12.0089  -23.0705 C   0  0  1  0  0  0  0  0  0  0  0  0
   19.8008  -11.9639  -23.8607 C   0  0  0  0  0  0  0  0  0  0  0  0
   19.6479  -10.6806  -24.5841 C   0  0  0  0  0  0  0  0  0  0  0  0
   19.7502  -10.5350  -25.9484 C   0  0  0  0  0  0  0  0  0  0  0  0
   19.5589   -9.2562  -26.2523 N   0  0  0  0  0  0  0  0  0  0  0  0
   19.3400   -8.6066  -25.1015 C   0  0  0  0  0  0  0  0  0  0  0  0
   19.3929   -9.4648  -24.0881 N   0  0  0  0  0  0  0  0  0  0  0  0
   21.0769  -13.1760  -22.1632 C   0  0  0  0  0  0  0  0  0  0  0  0
   21.1891  -14.3227  -22.7143 O   0  0  0  0  0  0  0  0  0  0  0  0
   20.9473  -13.0488  -20.7564 N   0  0  0  0  0  0  0  0  0  0  0  0
   20.9310  -14.2205  -19.9117 C   0  0  1  0  0  0  0  0  0  0  0  0
   22.1838  -14.2571  -19.0532 C   0  0  0  0  0  0  0  0  0  0  0  0
   23.3958  -14.5731  -19.8668 C   0  0  0  0  0  0  0  0  0  0  0  0
   23.8503  -15.8461  -20.1253 C   0  0  0  0  0  0  0  0  0  0  0  0
   24.9515  -15.7149  -20.8819 N   0  0  0  0  0  0  0  0  0  0  0  0
   25.2003  -14.4138  -21.1042 C   0  0  0  0  0  0  0  0  0  0  0  0
   24.2376  -13.7290  -20.4752 N   0  0  0  0  0  0  0  0  0  0  0  0
   19.7060  -14.2430  -19.0538 C   0  0  0  0  0  0  0  0  0  0  0  0
   19.2820  -13.1887  -18.5253 O   0  0  0  0  0  0  0  0  0  0  0  0
   18.9869  -15.4411  -18.8084 N   0  0  0  0  0  0  0  0  0  0  0  0
   17.7887  -15.4445  -17.9702 C   0  0  1  0  0  0  0  0  0  0  0  0
   16.7829  -14.5860  -18.7006 C   0  0  0  0  0  0  0  0  0  0  0  0
   16.3797  -15.0970  -20.0108 C   0  0  0  0  0  0  0  0  0  0  0  0
   16.9159  -14.5786  -21.1585 C   0  0  0  0  0  0  0  0  0  0  0  0
   16.5290  -15.0800  -22.3885 C   0  0  0  0  0  0  0  0  0  0  0  0
   15.6189  -16.0861  -22.4768 C   0  0  0  0  0  0  0  0  0  0  0  0
   15.0859  -16.6012  -21.3307 C   0  0  0  0  0  0  0  0  0  0  0  0
   15.4606  -16.1130  -20.0959 C   0  0  0  0  0  0  0  0  0  0  0  0
   17.2580  -16.8195  -17.8353 C   0  0  0  0  0  0  0  0  0  0  0  0
   17.8464  -17.9082  -18.4559 O   0  0  0  0  0  0  0  0  0  0  0  0
   16.2201  -17.0721  -17.1335 O   0  0  0  0  0  0  0  0  0  0  0  0
  2  1  1  6
  3  4  1  0
  3  2  1  0
  4  5  2  0
  5  6  1  0
  7  6  1  0
  8  4  1  0
  8  7  2  0
  9  2  1  0
  9 10  2  0
 11  9  1  0
 12 11  1  0
 12 13  1  1
 13 14  1  0
 14 18  1  0
 14 15  2  0
 15 16  1  0
 17 16  1  0
 18 17  2  0
 19 12  1  0
 20 19  2  0
 21 19  1  0
 22 23  1  6
 22 21  1  0
 24 29  1  0
 24 23  1  0
 25 24  2  0
 26 27  2  0
 26 25  1  0
 27 28  1  0
 28 29  2  0
 30 22  1  0
 31 30  1  0
 32 30  2  0
M  END
$$$$
