HHF.pdb
     RDKit          3D

 32 34  0  0  1  0  0  0  0  0999 V2000
   27.3669  -21.4312  -15.1972 N   0  0  0  0  0  0  0  0  0  0  0  0
   28.0114  -20.2837  -14.5843 C   0  0  1  0  0  0  0  0  0  0  0  0
   27.9862  -19.0863  -15.5092 C   0  0  0  0  0  0  0  0  0  0  0  0
   28.5494  -19.4119  -16.8398 C   0  0  0  0  0  0  0  0  0  0  0  0
   27.8317  -19.4133  -18.0136 C   0  0  0  0  0  0  0  0  0  0  0  0
   28.6471  -19.7493  -19.0068 N   0  0  0  0  0  0  0  0  0  0  0  0
   29.8568  -19.9560  -18.4702 C   0  0  0  0  0  0  0  0  0  0  0  0
   29.8030  -19.7530  -17.1579 N   0  0  0  0  0  0  0  0  0  0  0  0
   27.2816  -19.9650  -13.3388 C   0  0  0  0  0  0  0  0  0  0  0  0
   27.5474  -18.8380  -12.7997 O   0  0  0  0  0  0  0  0  0  0  0  0
   26.3353  -20.8490  -12.7600 N   0  0  0  0  0  0  0  0  0  0  0  0
   25.6474  -20.4925  -11.5409 C   0  0  1  0  0  0  0  0  0  0  0  0
   24.2009  -20.9517  -11.6096 C   0  0  0  0  0  0  0  0  0  0  0  0
   23.4091  -20.1250  -12.5691 C   0  0  0  0  0  0  0  0  0  0  0  0
   23.9216  -19.0814  -13.3053 C   0  0  0  0  0  0  0  0  0  0  0  0
   22.9088  -18.5963  -14.0411 N   0  0  0  0  0  0  0  0  0  0  0  0
   21.7887  -19.2947  -13.7927 C   0  0  0  0  0  0  0  0  0  0  0  0
   22.1135  -20.2270  -12.8889 N   0  0  0  0  0  0  0  0  0  0  0  0
   26.3303  -21.0856  -10.3496 C   0  0  0  0  0  0  0  0  0  0  0  0
   26.9009  -22.1981  -10.4339 O   0  0  0  0  0  0  0  0  0  0  0  0
   26.3583  -20.4214   -9.0962 N   0  0  0  0  0  0  0  0  0  0  0  0
   26.8989  -21.0771   -7.9061 C   0  0  1  0  0  0  0  0  0  0  0  0
   28.2863  -20.5069   -7.7265 C   0  0  0  0  0  0  0  0  0  0  0  0
   28.6008  -20.0813   -6.3627 C   0  0  0  0  0  0  0  0  0  0  0  0
   29.2926  -20.9043   -5.5156 C   0  0  0  0  0  0  0  0  0  0  0  0
   29.5885  -20.4817   -4.2319 C   0  0  0  0  0  0  0  0  0  0  0  0
   29.2010  -19.2540   -3.7948 C   0  0  0  0  0  0  0  0  0  0  0  0
   28.5114  -18.4354   -4.6418 C   0  0  0  0  0  0  0  0  0  0  0  0
   28.2080  -18.8409   -5.9251 C   0  0  0  0  0  0  0  0  0  0  0  0
   26.0751  -20.7529   -6.7201 C   0  0  0  0  0  0  0  0  0  0  0  0
   26.0485  -21.5541   -5.5914 O   0  0  0  0  0  0  0  0  0  0  0  0
   25.3399  -19.7083   -6.6792 O   0  0  0  0  0  0  0  0  0  0  0  0
  2  1  1  6
  3  4  1  0
  3  2  1  0
  4  5  2  0
  5  6  1  0
  7  6  1  0
  8  4  1  0
  8  7  2  0
  9  2  1  0
  9 10  2  0
 11  9  1  0
 12 11  1  0
 12 13  1  6
 13 14  1  0
 14 18  1  0
 14 15  2  0
 15 16  1  0
 17 16  1  0
 18 17  2  0
 19 12  1  0
 20 19  2  0
 21 19  1  0
 22 23  1  1
 22 21  1  0
 24 29  1  0
 24 23  1  0
 25 24  2  0
 26 27  2  0
 26 25  1  0
 27 28  1  0
 28 29  2  0
 30 22  1  0
 31 30  1  0
 32 30  2  0
M  END
$$$$
