HHF.pdb
     RDKit          3D

 32 34  0  0  1  0  0  0  0  0999 V2000
   19.5471  -22.0829  -14.8287 N   0  0  0  0  0  0  0  0  0  0  0  0
   20.4441  -21.0214  -15.2488 C   0  0  1  0  0  0  0  0  0  0  0  0
   19.9128  -19.6651  -14.8390 C   0  0  0  0  0  0  0  0  0  0  0  0
   18.8424  -19.1995  -15.7507 C   0  0  0  0  0  0  0  0  0  0  0  0
   19.0463  -18.7737  -17.0430 C   0  0  0  0  0  0  0  0  0  0  0  0
   17.8739  -18.4311  -17.5648 N   0  0  0  0  0  0  0  0  0  0  0  0
   16.9472  -18.6367  -16.6197 C   0  0  0  0  0  0  0  0  0  0  0  0
   17.5286  -19.1020  -15.5190 N   0  0  0  0  0  0  0  0  0  0  0  0
   21.7556  -21.2556  -14.6080 C   0  0  0  0  0  0  0  0  0  0  0  0
   21.7706  -21.2501  -13.3309 O   0  0  0  0  0  0  0  0  0  0  0  0
   22.9420  -21.4758  -15.3536 N   0  0  0  0  0  0  0  0  0  0  0  0
   24.1926  -21.7426  -14.6817 C   0  0  1  0  0  0  0  0  0  0  0  0
   24.8232  -23.0052  -15.2440 C   0  0  0  0  0  0  0  0  0  0  0  0
   23.9127  -24.1809  -15.1041 C   0  0  0  0  0  0  0  0  0  0  0  0
   23.9901  -25.1100  -14.0919 C   0  0  0  0  0  0  0  0  0  0  0  0
   23.0106  -26.0013  -14.3124 N   0  0  0  0  0  0  0  0  0  0  0  0
   22.3280  -25.6648  -15.4191 C   0  0  0  0  0  0  0  0  0  0  0  0
   22.8940  -24.5475  -15.8910 N   0  0  0  0  0  0  0  0  0  0  0  0
   25.1286  -20.5837  -14.8161 C   0  0  0  0  0  0  0  0  0  0  0  0
   25.0921  -19.8533  -15.8337 O   0  0  0  0  0  0  0  0  0  0  0  0
   26.0803  -20.2709  -13.8115 N   0  0  0  0  0  0  0  0  0  0  0  0
   27.0608  -19.2036  -14.0062 C   0  0  1  0  0  0  0  0  0  0  0  0
   27.6197  -18.9138  -12.6330 C   0  0  0  0  0  0  0  0  0  0  0  0
   28.3769  -20.0141  -12.0361 C   0  0  0  0  0  0  0  0  0  0  0  0
   27.7479  -20.9667  -11.2809 C   0  0  0  0  0  0  0  0  0  0  0  0
   28.4787  -22.0048  -10.7313 C   0  0  0  0  0  0  0  0  0  0  0  0
   29.8206  -22.0952  -10.9302 C   0  0  0  0  0  0  0  0  0  0  0  0
   30.4452  -21.1439  -11.6838 C   0  0  0  0  0  0  0  0  0  0  0  0
   29.7317  -20.1020  -12.2394 C   0  0  0  0  0  0  0  0  0  0  0  0
   28.1512  -19.6616  -14.8960 C   0  0  0  0  0  0  0  0  0  0  0  0
   29.0777  -18.7920  -15.4455 O   0  0  0  0  0  0  0  0  0  0  0  0
   28.2922  -20.8937  -15.2047 O   0  0  0  0  0  0  0  0  0  0  0  0
  2  1  1  1
  3  4  1  0
  3  2  1  0
  4  5  2  0
  5  6  1  0
  7  6  1  0
  8  4  1  0
  8  7  2  0
  9  2  1  0
  9 10  2  0
 11  9  1  0
 12 11  1  0
 12 13  1  6
 13 14  1  0
 14 18  1  0
 14 15  2  0
 15 16  1  0
 17 16  1  0
 18 17  2  0
 19 12  1  0
 20 19  2  0
 21 19  1  0
 22 23  1  1
 22 21  1  0
 24 29  1  0
 24 23  1  0
 25 24  2  0
 26 27  2  0
 26 25  1  0
 27 28  1  0
 28 29  2  0
 30 22  1  0
 31 30  1  0
 32 30  2  0
M  END
$$$$
