HHF.pdb
     RDKit          3D

 32 34  0  0  1  0  0  0  0  0999 V2000
   21.7328  -12.0094  -18.5726 N   0  0  0  0  0  0  0  0  0  0  0  0
   21.5061  -10.6187  -18.9224 C   0  0  1  0  0  0  0  0  0  0  0  0
   20.0520  -10.3723  -19.2612 C   0  0  0  0  0  0  0  0  0  0  0  0
   19.6537  -11.0751  -20.5026 C   0  0  0  0  0  0  0  0  0  0  0  0
   18.6243  -11.9837  -20.5909 C   0  0  0  0  0  0  0  0  0  0  0  0
   18.5475  -12.4145  -21.8450 N   0  0  0  0  0  0  0  0  0  0  0  0
   19.5102  -11.7896  -22.5355 C   0  0  0  0  0  0  0  0  0  0  0  0
   20.1831  -10.9772  -21.7271 N   0  0  0  0  0  0  0  0  0  0  0  0
   21.8930   -9.7899  -17.7610 C   0  0  0  0  0  0  0  0  0  0  0  0
   21.4044  -10.1340  -16.6322 O   0  0  0  0  0  0  0  0  0  0  0  0
   22.7576   -8.6712  -17.8747 N   0  0  0  0  0  0  0  0  0  0  0  0
   23.0414   -7.8429  -16.7257 C   0  0  1  0  0  0  0  0  0  0  0  0
   24.5377   -7.6041  -16.6168 C   0  0  0  0  0  0  0  0  0  0  0  0
   25.2596   -8.8401  -16.1902 C   0  0  0  0  0  0  0  0  0  0  0  0
   24.6533  -10.0510  -15.9453 C   0  0  0  0  0  0  0  0  0  0  0  0
   25.6273  -10.9034  -15.5888 N   0  0  0  0  0  0  0  0  0  0  0  0
   26.8132  -10.2729  -15.6019 C   0  0  0  0  0  0  0  0  0  0  0  0
   26.5692   -9.0101  -15.9724 N   0  0  0  0  0  0  0  0  0  0  0  0
   22.3072   -6.5425  -16.8107 C   0  0  0  0  0  0  0  0  0  0  0  0
   22.5788   -5.7184  -17.7149 O   0  0  0  0  0  0  0  0  0  0  0  0
   21.2896   -6.1965  -15.8847 N   0  0  0  0  0  0  0  0  0  0  0  0
   20.5980   -4.9108  -15.9681 C   0  0  1  0  0  0  0  0  0  0  0  0
   19.9072   -4.9107  -17.3116 C   0  0  0  0  0  0  0  0  0  0  0  0
   18.7029   -5.7385  -17.3801 C   0  0  0  0  0  0  0  0  0  0  0  0
   17.5341   -5.3211  -16.8030 C   0  0  0  0  0  0  0  0  0  0  0  0
   16.4028   -6.1131  -16.8851 C   0  0  0  0  0  0  0  0  0  0  0  0
   16.4329   -7.3075  -17.5340 C   0  0  0  0  0  0  0  0  0  0  0  0
   17.5998   -7.7211  -18.1087 C   0  0  0  0  0  0  0  0  0  0  0  0
   18.7372   -6.9437  -18.0364 C   0  0  0  0  0  0  0  0  0  0  0  0
   19.5866   -4.7989  -14.8934 C   0  0  0  0  0  0  0  0  0  0  0  0
   18.8655   -3.6387  -14.6685 O   0  0  0  0  0  0  0  0  0  0  0  0
   19.3272   -5.7764  -14.1121 O   0  0  0  0  0  0  0  0  0  0  0  0
  2  1  1  1
  3  4  1  0
  3  2  1  0
  4  5  2  0
  5  6  1  0
  7  6  1  0
  8  4  1  0
  8  7  2  0
  9  2  1  0
  9 10  2  0
 11  9  1  0
 12 11  1  0
 12 13  1  6
 13 14  1  0
 14 18  1  0
 14 15  2  0
 15 16  1  0
 17 16  1  0
 18 17  2  0
 19 12  1  0
 20 19  2  0
 21 19  1  0
 22 23  1  6
 22 21  1  0
 24 29  1  0
 24 23  1  0
 25 24  2  0
 26 27  2  0
 26 25  1  0
 27 28  1  0
 28 29  2  0
 30 22  1  0
 31 30  1  0
 32 30  2  0
M  END
$$$$
