HHF.pdb
     RDKit          3D

 32 34  0  0  1  0  0  0  0  0999 V2000
   25.5202  -16.9403  -18.5415 N   0  0  0  0  0  0  0  0  0  0  0  0
   25.7251  -17.6730  -17.3050 C   0  0  1  0  0  0  0  0  0  0  0  0
   26.4928  -16.8420  -16.3001 C   0  0  0  0  0  0  0  0  0  0  0  0
   27.8613  -16.5354  -16.7765 C   0  0  0  0  0  0  0  0  0  0  0  0
   28.8699  -17.4620  -16.9069 C   0  0  0  0  0  0  0  0  0  0  0  0
   29.9559  -16.8438  -17.3568 N   0  0  0  0  0  0  0  0  0  0  0  0
   29.6391  -15.5512  -17.5077 C   0  0  0  0  0  0  0  0  0  0  0  0
   28.3715  -15.3591  -17.1576 N   0  0  0  0  0  0  0  0  0  0  0  0
   24.3963  -18.0153  -16.7549 C   0  0  0  0  0  0  0  0  0  0  0  0
   23.6432  -17.0324  -16.4415 O   0  0  0  0  0  0  0  0  0  0  0  0
   23.9644  -19.3547  -16.5778 N   0  0  0  0  0  0  0  0  0  0  0  0
   22.6784  -19.6391  -15.9847 C   0  0  1  0  0  0  0  0  0  0  0  0
   21.8758  -20.5480  -16.9000 C   0  0  0  0  0  0  0  0  0  0  0  0
   21.5128  -19.8589  -18.1744 C   0  0  0  0  0  0  0  0  0  0  0  0
   20.3368  -19.1750  -18.3825 C   0  0  0  0  0  0  0  0  0  0  0  0
   20.3839  -18.7026  -19.6383 N   0  0  0  0  0  0  0  0  0  0  0  0
   21.5398  -19.0644  -20.2190 C   0  0  0  0  0  0  0  0  0  0  0  0
   22.2188  -19.7719  -19.3081 N   0  0  0  0  0  0  0  0  0  0  0  0
   22.8394  -20.2633  -14.6350 C   0  0  0  0  0  0  0  0  0  0  0  0
   21.8341  -20.6140  -13.9740 O   0  0  0  0  0  0  0  0  0  0  0  0
   24.1178  -20.4795  -14.0588 N   0  0  0  0  0  0  0  0  0  0  0  0
   24.2584  -20.8587  -12.6536 C   0  0  1  0  0  0  0  0  0  0  0  0
   25.5469  -20.2203  -12.1905 C   0  0  0  0  0  0  0  0  0  0  0  0
   25.8491  -20.4119  -10.7720 C   0  0  0  0  0  0  0  0  0  0  0  0
   26.4993  -21.5367  -10.3416 C   0  0  0  0  0  0  0  0  0  0  0  0
   26.7843  -21.6970   -8.9973 C   0  0  0  0  0  0  0  0  0  0  0  0
   26.4269  -20.7493   -8.0904 C   0  0  0  0  0  0  0  0  0  0  0  0
   25.7788  -19.6285   -8.5226 C   0  0  0  0  0  0  0  0  0  0  0  0
   25.4868  -19.4525   -9.8594 C   0  0  0  0  0  0  0  0  0  0  0  0
   23.1297  -20.3235  -11.8599 C   0  0  0  0  0  0  0  0  0  0  0  0
   22.7025  -19.0109  -11.9654 O   0  0  0  0  0  0  0  0  0  0  0  0
   22.4883  -21.0531  -11.0295 O   0  0  0  0  0  0  0  0  0  0  0  0
  2  1  1  6
  3  4  1  0
  3  2  1  0
  4  5  2  0
  5  6  1  0
  7  6  1  0
  8  4  1  0
  8  7  2  0
  9  2  1  0
  9 10  2  0
 11  9  1  0
 12 11  1  0
 12 13  1  6
 13 14  1  0
 14 18  1  0
 14 15  2  0
 15 16  1  0
 17 16  1  0
 18 17  2  0
 19 12  1  0
 20 19  2  0
 21 19  1  0
 22 23  1  1
 22 21  1  0
 24 29  1  0
 24 23  1  0
 25 24  2  0
 26 27  2  0
 26 25  1  0
 27 28  1  0
 28 29  2  0
 30 22  1  0
 31 30  1  0
 32 30  2  0
M  END
$$$$
