MWL.pdb
     RDKit          3D

 31 32  0  0  1  0  0  0  0  0999 V2000
   14.5574  -19.9035   22.2495 C   0  0  0  0  0  0  0  0  0  0  0  0
   14.2817  -20.4115   20.5337 S   0  0  0  0  0  0  0  0  0  0  0  0
   12.8259  -19.5589   19.8832 C   0  0  0  0  0  0  0  0  0  0  0  0
   12.2855  -18.6303   20.9534 C   0  0  0  0  0  0  0  0  0  0  0  0
   10.9738  -18.0089   20.4713 C   0  0  2  0  0  0  0  0  0  0  0  0
   11.2905  -17.3696   19.2044 N   0  0  0  0  0  0  0  0  0  0  0  0
   10.4743  -17.0099   21.4485 C   0  0  0  0  0  0  0  0  0  0  0  0
   10.9876  -15.8779   21.5645 O   0  0  0  0  0  0  0  0  0  0  0  0
    9.3695  -17.3057   22.3091 N   0  0  0  0  0  0  0  0  0  0  0  0
    8.9180  -16.3799   23.3222 C   0  0  1  0  0  0  0  0  0  0  0  0
    7.4687  -16.5265   23.6605 C   0  0  0  0  0  0  0  0  0  0  0  0
    6.9541  -15.6814   24.7316 C   0  0  0  0  0  0  0  0  0  0  0  0
    6.2852  -15.9587   25.8992 C   0  0  0  0  0  0  0  0  0  0  0  0
    6.0627  -14.7938   26.5179 N   0  0  0  0  0  0  0  0  0  0  0  0
    6.5561  -13.7700   25.8071 C   0  0  0  0  0  0  0  0  0  0  0  0
    6.5926  -12.3932   25.9950 C   0  0  0  0  0  0  0  0  0  0  0  0
    7.1831  -11.5387   25.0782 C   0  0  0  0  0  0  0  0  0  0  0  0
    7.7560  -12.0716   23.9369 C   0  0  0  0  0  0  0  0  0  0  0  0
    7.7126  -13.4233   23.7662 C   0  0  0  0  0  0  0  0  0  0  0  0
    7.1239  -14.2888   24.6778 C   0  0  0  0  0  0  0  0  0  0  0  0
    9.7996  -16.3559   24.5052 C   0  0  0  0  0  0  0  0  0  0  0  0
   10.8659  -15.7021   24.4481 O   0  0  0  0  0  0  0  0  0  0  0  0
    9.1790  -14.0454   29.3390 C   0  0  0  0  0  0  0  0  0  0  0  0
   10.0180  -14.8652   28.4339 C   0  0  2  0  0  0  0  0  0  0  0  0
   10.3734  -13.9712   27.2134 C   0  0  0  0  0  0  0  0  0  0  0  0
    9.5373  -16.1705   27.9488 C   0  0  0  0  0  0  0  0  0  0  0  0
   10.3326  -16.8782   26.9349 C   0  0  2  0  0  0  0  0  0  0  0  0
    9.4996  -17.0363   25.7026 N   0  0  0  0  0  0  0  0  0  0  0  0
   10.7201  -18.2331   27.2943 C   0  0  0  0  0  0  0  0  0  0  0  0
   11.5877  -18.5721   28.1258 O   0  0  0  0  0  0  0  0  0  0  0  0
   10.0886  -19.3465   26.6762 O   0  0  0  0  0  0  0  0  0  0  0  0
  2  1  1  0
  3  2  1  0
  4  3  1  0
  5  4  1  0
  5  6  1  6
  7  5  1  0
  7  8  2  0
  9  7  1  0
 10 11  1  1
 10  9  1  0
 12 11  1  0
 12 13  2  0
 14 13  1  0
 15 14  1  0
 16 15  2  0
 17 16  1  0
 18 17  2  0
 18 19  1  0
 19 20  2  0
 20 15  1  0
 20 12  1  0
 21 10  1  0
 22 21  2  0
 24 23  1  6
 24 25  1  0
 24 26  1  0
 27 26  1  1
 27 28  1  0
 28 21  1  0
 29 27  1  0
 29 31  1  0
 30 29  2  0
M  END
$$$$
