MWL.pdb
     RDKit          3D

 31 32  0  0  1  0  0  0  0  0999 V2000
    7.4971  -11.8421   18.8687 C   0  0  0  0  0  0  0  0  0  0  0  0
    7.1619  -13.2945   17.8409 S   0  0  0  0  0  0  0  0  0  0  0  0
    7.1249  -14.7708   18.8843 C   0  0  0  0  0  0  0  0  0  0  0  0
    7.7033  -14.4232   20.2423 C   0  0  0  0  0  0  0  0  0  0  0  0
    7.8043  -15.6916   21.0909 C   0  0  2  0  0  0  0  0  0  0  0  0
    6.4327  -16.1216   21.3097 N   0  0  0  0  0  0  0  0  0  0  0  0
    8.4739  -15.4073   22.3844 C   0  0  0  0  0  0  0  0  0  0  0  0
    8.5785  -14.2496   22.8396 O   0  0  0  0  0  0  0  0  0  0  0  0
    9.0342  -16.4613   23.1743 N   0  0  0  0  0  0  0  0  0  0  0  0
    9.9313  -16.1994   24.2761 C   0  0  1  0  0  0  0  0  0  0  0  0
    9.2895  -16.3560   25.6178 C   0  0  0  0  0  0  0  0  0  0  0  0
    7.9822  -15.7360   25.7986 C   0  0  0  0  0  0  0  0  0  0  0  0
    6.7002  -16.2257   25.7331 C   0  0  0  0  0  0  0  0  0  0  0  0
    5.8712  -15.2100   25.9979 N   0  0  0  0  0  0  0  0  0  0  0  0
    6.5540  -14.0807   26.2331 C   0  0  0  0  0  0  0  0  0  0  0  0
    6.1860  -12.7778   26.5481 C   0  0  0  0  0  0  0  0  0  0  0  0
    7.1205  -11.7744   26.7459 C   0  0  0  0  0  0  0  0  0  0  0  0
    8.4654  -12.0772   26.6264 C   0  0  0  0  0  0  0  0  0  0  0  0
    8.8112  -13.3589   26.3171 C   0  0  0  0  0  0  0  0  0  0  0  0
    7.8839  -14.3721   26.1167 C   0  0  0  0  0  0  0  0  0  0  0  0
   11.2140  -16.9176   24.1491 C   0  0  0  0  0  0  0  0  0  0  0  0
   11.2184  -18.0531   23.6218 O   0  0  0  0  0  0  0  0  0  0  0  0
   17.1552  -15.5028   23.4633 C   0  0  0  0  0  0  0  0  0  0  0  0
   16.0334  -16.4676   23.3857 C   0  0  2  0  0  0  0  0  0  0  0  0
   16.0344  -17.0473   21.9438 C   0  0  0  0  0  0  0  0  0  0  0  0
   14.6643  -16.0499   23.7340 C   0  0  0  0  0  0  0  0  0  0  0  0
   13.7478  -17.0511   24.2987 C   0  0  2  0  0  0  0  0  0  0  0  0
   12.4410  -16.3861   24.5947 N   0  0  0  0  0  0  0  0  0  0  0  0
   14.1678  -17.6206   25.5693 C   0  0  0  0  0  0  0  0  0  0  0  0
   13.8497  -17.2287   26.7114 O   0  0  0  0  0  0  0  0  0  0  0  0
   15.0339  -18.7474   25.5978 O   0  0  0  0  0  0  0  0  0  0  0  0
  2  1  1  0
  3  2  1  0
  4  3  1  0
  5  4  1  0
  5  6  1  1
  7  5  1  0
  7  8  2  0
  9  7  1  0
 10 11  1  1
 10  9  1  0
 12 11  1  0
 12 13  2  0
 14 13  1  0
 15 14  1  0
 16 15  2  0
 17 16  1  0
 18 17  2  0
 18 19  1  0
 19 20  2  0
 20 15  1  0
 20 12  1  0
 21 10  1  0
 22 21  2  0
 24 23  1  6
 24 25  1  0
 24 26  1  0
 27 26  1  1
 27 28  1  0
 28 21  1  0
 29 27  1  0
 29 31  1  0
 30 29  2  0
M  END
$$$$
