MWL.pdb
     RDKit          3D

 31 32  0  0  1  0  0  0  0  0999 V2000
   14.5355  -19.0014   20.2760 C   0  0  0  0  0  0  0  0  0  0  0  0
   13.9139  -19.1081   18.5789 S   0  0  0  0  0  0  0  0  0  0  0  0
   12.1975  -18.5414   18.5331 C   0  0  0  0  0  0  0  0  0  0  0  0
   11.8618  -17.8938   19.8626 C   0  0  0  0  0  0  0  0  0  0  0  0
   10.3782  -17.5228   19.8864 C   0  0  2  0  0  0  0  0  0  0  0  0
   10.1700  -16.6833   18.7176 N   0  0  0  0  0  0  0  0  0  0  0  0
   10.0410  -16.7816   21.1270 C   0  0  0  0  0  0  0  0  0  0  0  0
   10.3064  -15.5704   21.2718 O   0  0  0  0  0  0  0  0  0  0  0  0
    9.3891  -17.4319   22.2228 N   0  0  0  0  0  0  0  0  0  0  0  0
    9.0018  -16.7175   23.4174 C   0  0  1  0  0  0  0  0  0  0  0  0
    7.7905  -17.2856   24.0856 C   0  0  0  0  0  0  0  0  0  0  0  0
    6.7774  -16.3358   24.5300 C   0  0  0  0  0  0  0  0  0  0  0  0
    5.4226  -16.4427   24.7313 C   0  0  0  0  0  0  0  0  0  0  0  0
    4.9875  -15.2521   25.1583 N   0  0  0  0  0  0  0  0  0  0  0  0
    5.9966  -14.3740   25.2446 C   0  0  0  0  0  0  0  0  0  0  0  0
    6.0858  -13.0400   25.6250 C   0  0  0  0  0  0  0  0  0  0  0  0
    7.2877  -12.3509   25.6234 C   0  0  0  0  0  0  0  0  0  0  0  0
    8.4387  -13.0108   25.2303 C   0  0  0  0  0  0  0  0  0  0  0  0
    8.3359  -14.3186   24.8601 C   0  0  0  0  0  0  0  0  0  0  0  0
    7.1375  -15.0190   24.8578 C   0  0  0  0  0  0  0  0  0  0  0  0
   10.1324  -16.4936   24.3387 C   0  0  0  0  0  0  0  0  0  0  0  0
   11.1334  -17.2410   24.2560 O   0  0  0  0  0  0  0  0  0  0  0  0
   10.3448  -13.9044   30.0130 C   0  0  0  0  0  0  0  0  0  0  0  0
   10.9377  -14.7351   28.9389 C   0  0  2  0  0  0  0  0  0  0  0  0
   12.4591  -14.4195   28.9107 C   0  0  0  0  0  0  0  0  0  0  0  0
   10.4083  -14.6685   27.5657 C   0  0  0  0  0  0  0  0  0  0  0  0
   10.9755  -15.5685   26.5509 C   0  0  2  0  0  0  0  0  0  0  0  0
   10.1413  -15.4749   25.3128 N   0  0  0  0  0  0  0  0  0  0  0  0
   10.9567  -16.9796   26.9023 C   0  0  0  0  0  0  0  0  0  0  0  0
   11.9426  -17.7313   27.0507 O   0  0  0  0  0  0  0  0  0  0  0  0
    9.7207  -17.6479   27.1172 O   0  0  0  0  0  0  0  0  0  0  0  0
  2  1  1  0
  3  2  1  0
  4  3  1  0
  5  4  1  0
  5  6  1  6
  7  5  1  0
  7  8  2  0
  9  7  1  0
 10 11  1  1
 10  9  1  0
 12 11  1  0
 12 13  2  0
 14 13  1  0
 15 14  1  0
 16 15  2  0
 17 16  1  0
 18 17  2  0
 18 19  1  0
 19 20  2  0
 20 15  1  0
 20 12  1  0
 21 10  1  0
 22 21  2  0
 24 23  1  1
 24 25  1  0
 24 26  1  0
 27 26  1  1
 27 28  1  0
 28 21  1  0
 29 27  1  0
 29 31  1  0
 30 29  2  0
M  END
$$$$
