MWL.pdb
     RDKit          3D

 31 32  0  0  1  0  0  0  0  0999 V2000
   14.5802  -19.6302   22.4872 C   0  0  0  0  0  0  0  0  0  0  0  0
   14.3106  -20.2736   20.8164 S   0  0  0  0  0  0  0  0  0  0  0  0
   12.8331  -19.5068   20.1106 C   0  0  0  0  0  0  0  0  0  0  0  0
   12.2909  -18.4916   21.0981 C   0  0  0  0  0  0  0  0  0  0  0  0
   11.0349  -17.8396   20.5181 C   0  0  2  0  0  0  0  0  0  0  0  0
   11.4510  -17.2539   19.2540 N   0  0  0  0  0  0  0  0  0  0  0  0
   10.5160  -16.7919   21.4321 C   0  0  0  0  0  0  0  0  0  0  0  0
   10.9259  -15.6133   21.3946 O   0  0  0  0  0  0  0  0  0  0  0  0
    9.5113  -17.0921   22.4063 N   0  0  0  0  0  0  0  0  0  0  0  0
    8.8987  -16.0649   23.2169 C   0  0  1  0  0  0  0  0  0  0  0  0
    7.4390  -16.2855   23.4560 C   0  0  0  0  0  0  0  0  0  0  0  0
    6.8337  -15.5474   24.5582 C   0  0  0  0  0  0  0  0  0  0  0  0
    6.1948  -15.9448   25.7078 C   0  0  0  0  0  0  0  0  0  0  0  0
    5.8471  -14.8383   26.3740 N   0  0  0  0  0  0  0  0  0  0  0  0
    6.2301  -13.7377   25.7114 C   0  0  0  0  0  0  0  0  0  0  0  0
    6.1185  -12.3744   25.9582 C   0  0  0  0  0  0  0  0  0  0  0  0
    6.6169  -11.4228   25.0832 C   0  0  0  0  0  0  0  0  0  0  0  0
    7.2470  -11.8415   23.9246 C   0  0  0  0  0  0  0  0  0  0  0  0
    7.3490  -13.1815   23.6960 C   0  0  0  0  0  0  0  0  0  0  0  0
    6.8536  -14.1436   24.5652 C   0  0  0  0  0  0  0  0  0  0  0  0
    9.6610  -15.7808   24.4479 C   0  0  0  0  0  0  0  0  0  0  0  0
    9.6284  -14.6226   24.9223 O   0  0  0  0  0  0  0  0  0  0  0  0
    9.4386  -14.0910   29.1960 C   0  0  0  0  0  0  0  0  0  0  0  0
   10.2229  -15.1759   28.5609 C   0  0  2  0  0  0  0  0  0  0  0  0
   11.7236  -14.8390   28.7836 C   0  0  0  0  0  0  0  0  0  0  0  0
   10.0130  -15.5171   27.1433 C   0  0  0  0  0  0  0  0  0  0  0  0
   10.8006  -16.6137   26.5617 C   0  0  2  0  0  0  0  0  0  0  0  0
   10.4285  -16.7536   25.1197 N   0  0  0  0  0  0  0  0  0  0  0  0
   10.5458  -17.9249   27.1371 C   0  0  0  0  0  0  0  0  0  0  0  0
   11.1965  -18.4894   28.0410 O   0  0  0  0  0  0  0  0  0  0  0  0
    9.4557  -18.7109   26.6738 O   0  0  0  0  0  0  0  0  0  0  0  0
  2  1  1  0
  3  2  1  0
  4  3  1  0
  5  4  1  0
  5  6  1  6
  7  5  1  0
  7  8  2  0
  9  7  1  0
 10 11  1  1
 10  9  1  0
 12 11  1  0
 12 13  2  0
 14 13  1  0
 15 14  1  0
 16 15  2  0
 17 16  1  0
 18 17  2  0
 18 19  1  0
 19 20  2  0
 20 15  1  0
 20 12  1  0
 21 10  1  0
 22 21  2  0
 24 23  1  6
 24 25  1  0
 24 26  1  0
 27 26  1  1
 27 28  1  0
 28 21  1  0
 29 27  1  0
 29 31  1  0
 30 29  2  0
M  END
$$$$
