MWL.pdb
     RDKit          3D

 31 32  0  0  1  0  0  0  0  0999 V2000
    6.8466  -22.2310   18.8727 C   0  0  0  0  0  0  0  0  0  0  0  0
    5.8184  -21.2630   20.0058 S   0  0  0  0  0  0  0  0  0  0  0  0
    6.1484  -21.7826   21.7060 C   0  0  0  0  0  0  0  0  0  0  0  0
    5.2571  -20.9880   22.6408 C   0  0  0  0  0  0  0  0  0  0  0  0
    5.8226  -21.0545   24.0602 C   0  0  2  0  0  0  0  0  0  0  0  0
    4.7178  -21.4936   24.8973 N   0  0  0  0  0  0  0  0  0  0  0  0
    6.3089  -19.7218   24.4960 C   0  0  0  0  0  0  0  0  0  0  0  0
    5.5493  -18.7361   24.5959 O   0  0  0  0  0  0  0  0  0  0  0  0
    7.6855  -19.5081   24.8244 N   0  0  0  0  0  0  0  0  0  0  0  0
    8.2165  -18.1889   25.0798 C   0  0  1  0  0  0  0  0  0  0  0  0
    9.3581  -18.1825   26.0458 C   0  0  0  0  0  0  0  0  0  0  0  0
    9.1697  -17.4334   27.2825 C   0  0  0  0  0  0  0  0  0  0  0  0
    8.8487  -17.8127   28.5634 C   0  0  0  0  0  0  0  0  0  0  0  0
    8.8185  -16.7046   29.3119 N   0  0  0  0  0  0  0  0  0  0  0  0
    9.1051  -15.6203   28.5777 C   0  0  0  0  0  0  0  0  0  0  0  0
    9.2061  -14.2629   28.8592 C   0  0  0  0  0  0  0  0  0  0  0  0
    9.5272  -13.3296   27.8869 C   0  0  0  0  0  0  0  0  0  0  0  0
    9.7552  -13.7611   26.5922 C   0  0  0  0  0  0  0  0  0  0  0  0
    9.6526  -15.0950   26.3311 C   0  0  0  0  0  0  0  0  0  0  0  0
    9.3317  -16.0389   27.2969 C   0  0  0  0  0  0  0  0  0  0  0  0
    8.4888  -17.4350   23.8409 C   0  0  0  0  0  0  0  0  0  0  0  0
    9.0281  -18.0301   22.8804 O   0  0  0  0  0  0  0  0  0  0  0  0
    7.7736  -11.6352   21.5583 C   0  0  0  0  0  0  0  0  0  0  0  0
    7.8786  -13.0985   21.3506 C   0  0  2  0  0  0  0  0  0  0  0  0
    6.8337  -13.4772   20.2644 C   0  0  0  0  0  0  0  0  0  0  0  0
    7.7456  -14.0251   22.4881 C   0  0  0  0  0  0  0  0  0  0  0  0
    8.3628  -15.3554   22.3850 C   0  0  2  0  0  0  0  0  0  0  0  0
    8.1706  -16.0709   23.6845 N   0  0  0  0  0  0  0  0  0  0  0  0
    9.8021  -15.3501   22.1764 C   0  0  0  0  0  0  0  0  0  0  0  0
   10.6861  -15.1464   23.0345 O   0  0  0  0  0  0  0  0  0  0  0  0
   10.3395  -15.5956   20.8835 O   0  0  0  0  0  0  0  0  0  0  0  0
  2  1  1  0
  3  2  1  0
  4  3  1  0
  5  4  1  0
  5  6  1  1
  7  5  1  0
  7  8  2  0
  9  7  1  0
 10 11  1  6
 10  9  1  0
 12 11  1  0
 12 13  2  0
 14 13  1  0
 15 14  1  0
 16 15  2  0
 17 16  1  0
 18 17  2  0
 18 19  1  0
 19 20  2  0
 20 15  1  0
 20 12  1  0
 21 10  1  0
 22 21  2  0
 24 23  1  1
 24 25  1  0
 24 26  1  0
 27 26  1  1
 27 28  1  0
 28 21  1  0
 29 27  1  0
 29 31  1  0
 30 29  2  0
M  END
$$$$
