MWL.pdb
     RDKit          3D

 31 32  0  0  1  0  0  0  0  0999 V2000
   14.5664  -14.0225   20.4806 C   0  0  0  0  0  0  0  0  0  0  0  0
   14.3820  -14.8680   18.8902 S   0  0  0  0  0  0  0  0  0  0  0  0
   12.7185  -15.5670   18.7730 C   0  0  0  0  0  0  0  0  0  0  0  0
   11.7633  -14.6875   19.5563 C   0  0  0  0  0  0  0  0  0  0  0  0
   10.4418  -15.4297   19.7612 C   0  0  2  0  0  0  0  0  0  0  0  0
    9.5479  -14.9201   18.7339 N   0  0  0  0  0  0  0  0  0  0  0  0
    9.8906  -15.1596   21.1123 C   0  0  0  0  0  0  0  0  0  0  0  0
    9.6423  -14.0029   21.5109 O   0  0  0  0  0  0  0  0  0  0  0  0
    9.6166  -16.2267   22.0260 N   0  0  0  0  0  0  0  0  0  0  0  0
    9.2337  -15.9820   23.3974 C   0  0  1  0  0  0  0  0  0  0  0  0
    8.0060  -16.7267   23.8156 C   0  0  0  0  0  0  0  0  0  0  0  0
    7.0401  -15.9988   24.6300 C   0  0  0  0  0  0  0  0  0  0  0  0
    5.8814  -16.3768   25.2641 C   0  0  0  0  0  0  0  0  0  0  0  0
    5.3952  -15.2961   25.8844 N   0  0  0  0  0  0  0  0  0  0  0  0
    6.1839  -14.2309   25.6838 C   0  0  0  0  0  0  0  0  0  0  0  0
    6.1369  -12.9038   26.0946 C   0  0  0  0  0  0  0  0  0  0  0  0
    7.1099  -11.9853   25.7352 C   0  0  0  0  0  0  0  0  0  0  0  0
    8.1641  -12.4008   24.9411 C   0  0  0  0  0  0  0  0  0  0  0  0
    8.1969  -13.7050   24.5461 C   0  0  0  0  0  0  0  0  0  0  0  0
    7.2280  -14.6339   24.8999 C   0  0  0  0  0  0  0  0  0  0  0  0
   10.3608  -16.1288   24.3383 C   0  0  0  0  0  0  0  0  0  0  0  0
   11.4216  -16.6535   23.9296 O   0  0  0  0  0  0  0  0  0  0  0  0
   10.0142  -13.5990   29.2964 C   0  0  0  0  0  0  0  0  0  0  0  0
   10.5786  -14.2103   28.0705 C   0  0  2  0  0  0  0  0  0  0  0  0
    9.6220  -13.8453   26.9014 C   0  0  0  0  0  0  0  0  0  0  0  0
   10.8672  -15.6542   28.0214 C   0  0  0  0  0  0  0  0  0  0  0  0
   11.2201  -16.2553   26.7270 C   0  0  2  0  0  0  0  0  0  0  0  0
   10.3022  -15.7058   25.6815 N   0  0  0  0  0  0  0  0  0  0  0  0
   11.0443  -17.6970   26.6512 C   0  0  0  0  0  0  0  0  0  0  0  0
   10.0280  -18.3119   26.2662 O   0  0  0  0  0  0  0  0  0  0  0  0
   12.0980  -18.5685   27.0393 O   0  0  0  0  0  0  0  0  0  0  0  0
  2  1  1  0
  3  2  1  0
  4  3  1  0
  5  4  1  0
  5  6  1  6
  7  5  1  0
  7  8  2  0
  9  7  1  0
 10 11  1  1
 10  9  1  0
 12 11  1  0
 12 13  2  0
 14 13  1  0
 15 14  1  0
 16 15  2  0
 17 16  1  0
 18 17  2  0
 18 19  1  0
 19 20  2  0
 20 15  1  0
 20 12  1  0
 21 10  1  0
 22 21  2  0
 24 23  1  1
 24 25  1  0
 24 26  1  0
 27 26  1  1
 27 28  1  0
 28 21  1  0
 29 27  1  0
 29 31  1  0
 30 29  2  0
M  END
$$$$
