MWL.pdb
     RDKit          3D

 31 32  0  0  1  0  0  0  0  0999 V2000
    8.9573  -11.7302   18.6804 C   0  0  0  0  0  0  0  0  0  0  0  0
    8.3517  -13.1060   17.6711 S   0  0  0  0  0  0  0  0  0  0  0  0
    8.9114  -14.6678   18.3899 C   0  0  0  0  0  0  0  0  0  0  0  0
    8.9830  -14.5136   19.8968 C   0  0  0  0  0  0  0  0  0  0  0  0
    9.6286  -15.7597   20.5046 C   0  0  2  0  0  0  0  0  0  0  0  0
    8.7255  -16.8555   20.1923 N   0  0  0  0  0  0  0  0  0  0  0  0
    9.7792  -15.6111   21.9735 C   0  0  0  0  0  0  0  0  0  0  0  0
   10.5214  -14.7459   22.4824 O   0  0  0  0  0  0  0  0  0  0  0  0
    9.0708  -16.4633   22.8794 N   0  0  0  0  0  0  0  0  0  0  0  0
    9.0254  -16.2028   24.2997 C   0  0  1  0  0  0  0  0  0  0  0  0
    7.8099  -16.7601   24.9696 C   0  0  0  0  0  0  0  0  0  0  0  0
    6.7190  -15.8296   25.2340 C   0  0  0  0  0  0  0  0  0  0  0  0
    5.3693  -16.0035   25.4230 C   0  0  0  0  0  0  0  0  0  0  0  0
    4.8382  -14.7957   25.6428 N   0  0  0  0  0  0  0  0  0  0  0  0
    5.7799  -13.8424   25.6058 C   0  0  0  0  0  0  0  0  0  0  0  0
    5.7629  -12.4619   25.7668 C   0  0  0  0  0  0  0  0  0  0  0  0
    6.9128  -11.6943   25.6775 C   0  0  0  0  0  0  0  0  0  0  0  0
    8.1192  -12.3209   25.4194 C   0  0  0  0  0  0  0  0  0  0  0  0
    8.1204  -13.6751   25.2639 C   0  0  0  0  0  0  0  0  0  0  0  0
    6.9749  -14.4541   25.3513 C   0  0  0  0  0  0  0  0  0  0  0  0
   10.2861  -16.5502   24.9830 C   0  0  0  0  0  0  0  0  0  0  0  0
   11.1968  -17.1003   24.3229 O   0  0  0  0  0  0  0  0  0  0  0  0
   11.2491  -13.6703   28.0326 C   0  0  0  0  0  0  0  0  0  0  0  0
   10.9422  -14.9789   28.6559 C   0  0  2  0  0  0  0  0  0  0  0  0
   10.8748  -14.7441   30.1907 C   0  0  0  0  0  0  0  0  0  0  0  0
   11.7924  -16.1516   28.3868 C   0  0  0  0  0  0  0  0  0  0  0  0
   11.7633  -16.7452   27.0422 C   0  0  2  0  0  0  0  0  0  0  0  0
   10.5174  -16.2925   26.3494 N   0  0  0  0  0  0  0  0  0  0  0  0
   11.6940  -18.1977   27.0137 C   0  0  0  0  0  0  0  0  0  0  0  0
   12.6501  -18.9981   27.0795 O   0  0  0  0  0  0  0  0  0  0  0  0
   10.4376  -18.8527   26.9009 O   0  0  0  0  0  0  0  0  0  0  0  0
  2  1  1  0
  3  2  1  0
  4  3  1  0
  5  4  1  0
  5  6  1  1
  7  5  1  0
  7  8  2  0
  9  7  1  0
 10 11  1  1
 10  9  1  0
 12 11  1  0
 12 13  2  0
 14 13  1  0
 15 14  1  0
 16 15  2  0
 17 16  1  0
 18 17  2  0
 18 19  1  0
 19 20  2  0
 20 15  1  0
 20 12  1  0
 21 10  1  0
 22 21  2  0
 24 23  1  6
 24 25  1  0
 24 26  1  0
 27 26  1  1
 27 28  1  0
 28 21  1  0
 29 27  1  0
 29 31  1  0
 30 29  2  0
M  END
$$$$
