MWL.pdb
     RDKit          3D

 31 32  0  0  1  0  0  0  0  0999 V2000
   14.2038  -19.7314   19.7375 C   0  0  0  0  0  0  0  0  0  0  0  0
   13.6905  -18.6443   18.3837 S   0  0  0  0  0  0  0  0  0  0  0  0
   11.9221  -18.2977   18.5317 C   0  0  0  0  0  0  0  0  0  0  0  0
   11.7145  -17.2843   19.6406 C   0  0  0  0  0  0  0  0  0  0  0  0
   10.2205  -17.1631   19.9444 C   0  0  2  0  0  0  0  0  0  0  0  0
    9.6708  -16.3537   18.8689 N   0  0  0  0  0  0  0  0  0  0  0  0
   10.0021  -16.5043   21.2562 C   0  0  0  0  0  0  0  0  0  0  0  0
   10.4457  -15.3656   21.5113 O   0  0  0  0  0  0  0  0  0  0  0  0
    9.2644  -17.1544   22.2963 N   0  0  0  0  0  0  0  0  0  0  0  0
    9.0314  -16.5279   23.5771 C   0  0  1  0  0  0  0  0  0  0  0  0
    7.8260  -17.0550   24.2883 C   0  0  0  0  0  0  0  0  0  0  0  0
    6.8992  -16.0695   24.8323 C   0  0  0  0  0  0  0  0  0  0  0  0
    5.6911  -16.1811   25.4770 C   0  0  0  0  0  0  0  0  0  0  0  0
    5.2792  -14.9425   25.7695 N   0  0  0  0  0  0  0  0  0  0  0  0
    6.1634  -14.0288   25.3452 C   0  0  0  0  0  0  0  0  0  0  0  0
    6.2173  -12.6408   25.3964 C   0  0  0  0  0  0  0  0  0  0  0  0
    7.2778  -11.9234   24.8670 C   0  0  0  0  0  0  0  0  0  0  0  0
    8.3188  -12.6096   24.2670 C   0  0  0  0  0  0  0  0  0  0  0  0
    8.2522  -13.9704   24.2242 C   0  0  0  0  0  0  0  0  0  0  0  0
    7.1951  -14.6995   24.7511 C   0  0  0  0  0  0  0  0  0  0  0  0
   10.2419  -16.4874   24.4199 C   0  0  0  0  0  0  0  0  0  0  0  0
   11.2555  -17.1216   24.0484 O   0  0  0  0  0  0  0  0  0  0  0  0
    9.2962  -13.3468   27.5744 C   0  0  0  0  0  0  0  0  0  0  0  0
   10.0487  -14.5019   28.1175 C   0  0  2  0  0  0  0  0  0  0  0  0
   10.1611  -14.2870   29.6525 C   0  0  0  0  0  0  0  0  0  0  0  0
   11.3778  -14.8449   27.5825 C   0  0  0  0  0  0  0  0  0  0  0  0
   11.4729  -15.9020   26.5653 C   0  0  2  0  0  0  0  0  0  0  0  0
   10.3141  -15.7668   25.6291 N   0  0  0  0  0  0  0  0  0  0  0  0
   11.3753  -17.2591   27.0790 C   0  0  0  0  0  0  0  0  0  0  0  0
   12.2661  -17.9070   27.6670 O   0  0  0  0  0  0  0  0  0  0  0  0
   10.1671  -17.9941   26.9356 O   0  0  0  0  0  0  0  0  0  0  0  0
  2  1  1  0
  3  2  1  0
  4  3  1  0
  5  4  1  0
  5  6  1  6
  7  5  1  0
  7  8  2  0
  9  7  1  0
 10 11  1  1
 10  9  1  0
 12 11  1  0
 12 13  2  0
 14 13  1  0
 15 14  1  0
 16 15  2  0
 17 16  1  0
 18 17  2  0
 18 19  1  0
 19 20  2  0
 20 15  1  0
 20 12  1  0
 21 10  1  0
 22 21  2  0
 24 23  1  6
 24 25  1  0
 24 26  1  0
 27 26  1  1
 27 28  1  0
 28 21  1  0
 29 27  1  0
 29 31  1  0
 30 29  2  0
M  END
$$$$
