MWL.pdb
     RDKit          3D

 31 32  0  0  1  0  0  0  0  0999 V2000
    8.4592  -12.0779   18.1536 C   0  0  0  0  0  0  0  0  0  0  0  0
    8.5699  -13.4942   17.0311 S   0  0  0  0  0  0  0  0  0  0  0  0
    9.2833  -14.9025   17.9126 C   0  0  0  0  0  0  0  0  0  0  0  0
    9.3732  -14.5606   19.3872 C   0  0  0  0  0  0  0  0  0  0  0  0
   10.0663  -15.7026   20.1319 C   0  0  2  0  0  0  0  0  0  0  0  0
    9.3864  -16.9140   19.7028 N   0  0  0  0  0  0  0  0  0  0  0  0
    9.9401  -15.5265   21.6001 C   0  0  0  0  0  0  0  0  0  0  0  0
   10.5223  -14.6077   22.2128 O   0  0  0  0  0  0  0  0  0  0  0  0
    9.1356  -16.4129   22.3846 N   0  0  0  0  0  0  0  0  0  0  0  0
    8.8324  -16.1471   23.7720 C   0  0  1  0  0  0  0  0  0  0  0  0
    7.4993  -16.6710   24.2020 C   0  0  0  0  0  0  0  0  0  0  0  0
    6.7217  -15.8304   25.1046 C   0  0  0  0  0  0  0  0  0  0  0  0
    5.6787  -16.0942   25.9591 C   0  0  0  0  0  0  0  0  0  0  0  0
    5.3528  -14.9435   26.5581 N   0  0  0  0  0  0  0  0  0  0  0  0
    6.1356  -13.9417   26.1334 C   0  0  0  0  0  0  0  0  0  0  0  0
    6.2146  -12.5860   26.4299 C   0  0  0  0  0  0  0  0  0  0  0  0
    7.1448  -11.7525   25.8303 C   0  0  0  0  0  0  0  0  0  0  0  0
    8.0253  -12.2854   24.9055 C   0  0  0  0  0  0  0  0  0  0  0  0
    7.9360  -13.6163   24.6249 C   0  0  0  0  0  0  0  0  0  0  0  0
    7.0084  -14.4608   25.2192 C   0  0  0  0  0  0  0  0  0  0  0  0
    9.9340  -16.5249   24.6781 C   0  0  0  0  0  0  0  0  0  0  0  0
   10.9460  -17.0822   24.1956 O   0  0  0  0  0  0  0  0  0  0  0  0
   11.1579  -13.5549   27.6981 C   0  0  0  0  0  0  0  0  0  0  0  0
   10.3591  -14.6396   28.3151 C   0  0  2  0  0  0  0  0  0  0  0  0
   10.1120  -14.2338   29.7948 C   0  0  0  0  0  0  0  0  0  0  0  0
   10.8347  -16.0333   28.2728 C   0  0  0  0  0  0  0  0  0  0  0  0
   11.0425  -16.6640   26.9612 C   0  0  2  0  0  0  0  0  0  0  0  0
    9.9033  -16.2887   26.0673 N   0  0  0  0  0  0  0  0  0  0  0  0
   11.0392  -18.1183   26.9718 C   0  0  0  0  0  0  0  0  0  0  0  0
   10.0995  -18.8711   26.6413 O   0  0  0  0  0  0  0  0  0  0  0  0
   12.1938  -18.8341   27.3903 O   0  0  0  0  0  0  0  0  0  0  0  0
  2  1  1  0
  3  2  1  0
  4  3  1  0
  5  4  1  0
  5  6  1  6
  7  5  1  0
  7  8  2  0
  9  7  1  0
 10 11  1  1
 10  9  1  0
 12 11  1  0
 12 13  2  0
 14 13  1  0
 15 14  1  0
 16 15  2  0
 17 16  1  0
 18 17  2  0
 18 19  1  0
 19 20  2  0
 20 15  1  0
 20 12  1  0
 21 10  1  0
 22 21  2  0
 24 23  1  1
 24 25  1  0
 24 26  1  0
 27 26  1  1
 27 28  1  0
 28 21  1  0
 29 27  1  0
 29 31  1  0
 30 29  2  0
M  END
$$$$
