MWL.pdb
     RDKit          3D

 31 32  0  0  1  0  0  0  0  0999 V2000
    7.8280  -12.0764   19.2514 C   0  0  0  0  0  0  0  0  0  0  0  0
    8.0712  -13.3521   17.9898 S   0  0  0  0  0  0  0  0  0  0  0  0
    8.6234  -14.8806   18.7824 C   0  0  0  0  0  0  0  0  0  0  0  0
    9.2084  -14.5426   20.1400 C   0  0  0  0  0  0  0  0  0  0  0  0
    9.7404  -15.8179   20.7954 C   0  0  2  0  0  0  0  0  0  0  0  0
    8.7582  -16.8469   20.4944 N   0  0  0  0  0  0  0  0  0  0  0  0
    9.8746  -15.6390   22.2625 C   0  0  0  0  0  0  0  0  0  0  0  0
   10.6560  -14.8036   22.7625 O   0  0  0  0  0  0  0  0  0  0  0  0
    9.1041  -16.4258   23.1769 N   0  0  0  0  0  0  0  0  0  0  0  0
    9.0839  -16.1517   24.5953 C   0  0  1  0  0  0  0  0  0  0  0  0
    7.8099  -16.5603   25.2634 C   0  0  0  0  0  0  0  0  0  0  0  0
    6.6961  -15.6225   25.1866 C   0  0  0  0  0  0  0  0  0  0  0  0
    5.3580  -15.7829   24.9194 C   0  0  0  0  0  0  0  0  0  0  0  0
    4.7890  -14.5745   24.9917 N   0  0  0  0  0  0  0  0  0  0  0  0
    5.6949  -13.6338   25.2938 C   0  0  0  0  0  0  0  0  0  0  0  0
    5.6316  -12.2583   25.4837 C   0  0  0  0  0  0  0  0  0  0  0  0
    6.7507  -11.5046   25.7984 C   0  0  0  0  0  0  0  0  0  0  0  0
    7.9728  -12.1404   25.9285 C   0  0  0  0  0  0  0  0  0  0  0  0
    8.0194  -13.4895   25.7395 C   0  0  0  0  0  0  0  0  0  0  0  0
    6.9051  -14.2547   25.4240 C   0  0  0  0  0  0  0  0  0  0  0  0
   10.2937  -16.6373   25.2864 C   0  0  0  0  0  0  0  0  0  0  0  0
   11.1892  -17.1950   24.6122 O   0  0  0  0  0  0  0  0  0  0  0  0
   11.1270  -14.0391   28.6610 C   0  0  0  0  0  0  0  0  0  0  0  0
   10.8278  -15.4186   29.1114 C   0  0  2  0  0  0  0  0  0  0  0  0
   10.6869  -15.3688   30.6583 C   0  0  0  0  0  0  0  0  0  0  0  0
   11.7199  -16.5328   28.7465 C   0  0  0  0  0  0  0  0  0  0  0  0
   11.7368  -16.9890   27.3490 C   0  0  2  0  0  0  0  0  0  0  0  0
   10.4923  -16.5041   26.6755 N   0  0  0  0  0  0  0  0  0  0  0  0
   11.7122  -18.4326   27.1741 C   0  0  0  0  0  0  0  0  0  0  0  0
   10.7616  -19.1233   26.7518 O   0  0  0  0  0  0  0  0  0  0  0  0
   12.8561  -19.2127   27.4960 O   0  0  0  0  0  0  0  0  0  0  0  0
  2  1  1  0
  3  2  1  0
  4  3  1  0
  5  4  1  0
  5  6  1  1
  7  5  1  0
  7  8  2  0
  9  7  1  0
 10 11  1  1
 10  9  1  0
 12 11  1  0
 12 13  2  0
 14 13  1  0
 15 14  1  0
 16 15  2  0
 17 16  1  0
 18 17  2  0
 18 19  1  0
 19 20  2  0
 20 15  1  0
 20 12  1  0
 21 10  1  0
 22 21  2  0
 24 23  1  1
 24 25  1  0
 24 26  1  0
 27 26  1  1
 27 28  1  0
 28 21  1  0
 29 27  1  0
 29 31  1  0
 30 29  2  0
M  END
$$$$
