MWL.pdb
     RDKit          3D

 31 32  0  0  1  0  0  0  0  0999 V2000
    8.2715  -13.4017   15.7387 C   0  0  0  0  0  0  0  0  0  0  0  0
    8.4917  -13.1307   17.5153 S   0  0  0  0  0  0  0  0  0  0  0  0
    7.9443  -14.5990   18.4174 C   0  0  0  0  0  0  0  0  0  0  0  0
    8.1675  -14.3722   19.9001 C   0  0  0  0  0  0  0  0  0  0  0  0
    9.1604  -15.4086   20.4285 C   0  0  2  0  0  0  0  0  0  0  0  0
    8.5728  -16.7017   20.1177 N   0  0  0  0  0  0  0  0  0  0  0  0
    9.3470  -15.2596   21.8932 C   0  0  0  0  0  0  0  0  0  0  0  0
   10.0127  -14.3266   22.3879 O   0  0  0  0  0  0  0  0  0  0  0  0
    8.7641  -16.1902   22.8113 N   0  0  0  0  0  0  0  0  0  0  0  0
    8.8010  -15.9820   24.2405 C   0  0  1  0  0  0  0  0  0  0  0  0
    7.6428  -16.5936   24.9623 C   0  0  0  0  0  0  0  0  0  0  0  0
    6.5808  -15.6897   25.3879 C   0  0  0  0  0  0  0  0  0  0  0  0
    5.2663  -15.8914   25.7329 C   0  0  0  0  0  0  0  0  0  0  0  0
    4.7512  -14.7000   26.0558 N   0  0  0  0  0  0  0  0  0  0  0  0
    5.6697  -13.7309   25.9374 C   0  0  0  0  0  0  0  0  0  0  0  0
    5.6556  -12.3566   26.1457 C   0  0  0  0  0  0  0  0  0  0  0  0
    6.7767  -11.5681   25.9437 C   0  0  0  0  0  0  0  0  0  0  0  0
    7.9504  -12.1666   25.5207 C   0  0  0  0  0  0  0  0  0  0  0  0
    7.9492  -13.5149   25.3206 C   0  0  0  0  0  0  0  0  0  0  0  0
    6.8323  -14.3148   25.5196 C   0  0  0  0  0  0  0  0  0  0  0  0
   10.1095  -16.3216   24.8318 C   0  0  0  0  0  0  0  0  0  0  0  0
   11.0393  -16.6769   24.0724 O   0  0  0  0  0  0  0  0  0  0  0  0
   11.1900  -13.7973   28.2676 C   0  0  0  0  0  0  0  0  0  0  0  0
   10.8595  -15.1860   28.6645 C   0  0  2  0  0  0  0  0  0  0  0  0
   10.7700  -15.2039   30.2159 C   0  0  0  0  0  0  0  0  0  0  0  0
   11.7016  -16.3099   28.2195 C   0  0  0  0  0  0  0  0  0  0  0  0
   11.6800  -16.6824   26.7975 C   0  0  2  0  0  0  0  0  0  0  0  0
   10.3660  -16.2659   26.2167 N   0  0  0  0  0  0  0  0  0  0  0  0
   11.7628  -18.1105   26.5355 C   0  0  0  0  0  0  0  0  0  0  0  0
   12.7852  -18.8259   26.5808 O   0  0  0  0  0  0  0  0  0  0  0  0
   10.5964  -18.8431   26.1843 O   0  0  0  0  0  0  0  0  0  0  0  0
  2  1  1  0
  3  2  1  0
  4  3  1  0
  5  4  1  0
  5  6  1  1
  7  5  1  0
  7  8  2  0
  9  7  1  0
 10 11  1  1
 10  9  1  0
 12 11  1  0
 12 13  2  0
 14 13  1  0
 15 14  1  0
 16 15  2  0
 17 16  1  0
 18 17  2  0
 18 19  1  0
 19 20  2  0
 20 15  1  0
 20 12  1  0
 21 10  1  0
 22 21  2  0
 24 23  1  1
 24 25  1  0
 24 26  1  0
 27 26  1  1
 27 28  1  0
 28 21  1  0
 29 27  1  0
 29 31  1  0
 30 29  2  0
M  END
$$$$
