MWL.pdb
     RDKit          3D

 31 32  0  0  1  0  0  0  0  0999 V2000
    7.3022  -12.9211   18.6097 C   0  0  0  0  0  0  0  0  0  0  0  0
    8.2288  -13.9041   17.4041 S   0  0  0  0  0  0  0  0  0  0  0  0
    8.4281  -15.5883   18.0311 C   0  0  0  0  0  0  0  0  0  0  0  0
    7.8516  -15.6589   19.4319 C   0  0  0  0  0  0  0  0  0  0  0  0
    8.4865  -16.8297   20.1838 C   0  0  2  0  0  0  0  0  0  0  0  0
    8.0550  -18.0243   19.4760 N   0  0  0  0  0  0  0  0  0  0  0  0
    8.0231  -16.8632   21.5932 C   0  0  0  0  0  0  0  0  0  0  0  0
    6.8125  -16.9057   21.8951 O   0  0  0  0  0  0  0  0  0  0  0  0
    8.9559  -16.8487   22.6787 N   0  0  0  0  0  0  0  0  0  0  0  0
    9.5095  -15.6189   23.1969 C   0  0  1  0  0  0  0  0  0  0  0  0
    8.4958  -14.5320   23.3631 C   0  0  0  0  0  0  0  0  0  0  0  0
    7.6278  -14.6146   24.5318 C   0  0  0  0  0  0  0  0  0  0  0  0
    7.0833  -15.6739   25.2167 C   0  0  0  0  0  0  0  0  0  0  0  0
    6.3676  -15.1696   26.2280 N   0  0  0  0  0  0  0  0  0  0  0  0
    6.4207  -13.8303   26.2338 C   0  0  0  0  0  0  0  0  0  0  0  0
    5.8713  -12.8458   27.0469 C   0  0  0  0  0  0  0  0  0  0  0  0
    6.0925  -11.4964   26.8241 C   0  0  0  0  0  0  0  0  0  0  0  0
    6.8865  -11.1140   25.7573 C   0  0  0  0  0  0  0  0  0  0  0  0
    7.4184  -12.0904   24.9687 C   0  0  0  0  0  0  0  0  0  0  0  0
    7.2037  -13.4449   25.1823 C   0  0  0  0  0  0  0  0  0  0  0  0
   10.3473  -15.8310   24.3929 C   0  0  0  0  0  0  0  0  0  0  0  0
   11.5178  -15.3867   24.3943 O   0  0  0  0  0  0  0  0  0  0  0  0
   10.0032  -14.7027   29.9922 C   0  0  0  0  0  0  0  0  0  0  0  0
   10.5456  -15.0576   28.6598 C   0  0  2  0  0  0  0  0  0  0  0  0
   10.4112  -13.7939   27.7654 C   0  0  0  0  0  0  0  0  0  0  0  0
   10.0206  -16.2225   27.9265 C   0  0  0  0  0  0  0  0  0  0  0  0
   10.7571  -16.6986   26.7466 C   0  0  2  0  0  0  0  0  0  0  0  0
    9.8929  -16.5128   25.5398 N   0  0  0  0  0  0  0  0  0  0  0  0
   11.0789  -18.1169   26.7547 C   0  0  0  0  0  0  0  0  0  0  0  0
   11.9678  -18.6830   27.4243 O   0  0  0  0  0  0  0  0  0  0  0  0
   10.3466  -19.0222   25.9393 O   0  0  0  0  0  0  0  0  0  0  0  0
  2  1  1  0
  3  2  1  0
  4  3  1  0
  5  4  1  0
  5  6  1  6
  7  5  1  0
  7  8  2  0
  9  7  1  0
 10 11  1  1
 10  9  1  0
 12 11  1  0
 12 13  2  0
 14 13  1  0
 15 14  1  0
 16 15  2  0
 17 16  1  0
 18 17  2  0
 18 19  1  0
 19 20  2  0
 20 15  1  0
 20 12  1  0
 21 10  1  0
 22 21  2  0
 24 23  1  1
 24 25  1  0
 24 26  1  0
 27 26  1  1
 27 28  1  0
 28 21  1  0
 29 27  1  0
 29 31  1  0
 30 29  2  0
M  END
$$$$
