CIL.pdb
     RDKit          3D

 23 22  0  0  1  0  0  0  0  0999 V2000
   15.2407  -14.0366  -13.0345 N   0  0  0  0  0  0  0  0  0  0  0  0
   14.7438  -12.6987  -13.1494 C   0  0  1  0  0  0  0  0  0  0  0  0
   13.3547  -12.5523  -12.5326 C   0  0  0  0  0  0  0  0  0  0  0  0
   12.1776  -13.5536  -13.4840 S   0  0  0  0  0  0  0  0  0  0  0  0
   15.6245  -11.7016  -12.4870 C   0  0  0  0  0  0  0  0  0  0  0  0
   16.2276  -12.0647  -11.4441 O   0  0  0  0  0  0  0  0  0  0  0  0
   19.5538   -9.4293  -14.9395 C   0  0  0  0  0  0  0  0  0  0  0  0
   18.5434  -10.0733  -14.0045 C   0  0  0  0  0  0  0  0  0  0  0  0
   17.7061   -8.9672  -13.4258 C   0  0  2  0  0  0  0  0  0  0  0  0
   18.5233   -7.9086  -12.7645 C   0  0  0  0  0  0  0  0  0  0  0  0
   16.6887   -9.4791  -12.4280 C   0  0  2  0  0  0  0  0  0  0  0  0
   15.7591  -10.4006  -13.0328 N   0  0  0  0  0  0  0  0  0  0  0  0
   15.9276   -8.3617  -11.8076 C   0  0  0  0  0  0  0  0  0  0  0  0
   15.1229   -7.7007  -12.5081 O   0  0  0  0  0  0  0  0  0  0  0  0
   14.7829   -6.1377   -6.1412 C   0  0  0  0  0  0  0  0  0  0  0  0
   14.5407   -6.0308   -7.6595 C   0  0  2  0  0  0  0  0  0  0  0  0
   13.0499   -6.1232   -7.9003 C   0  0  0  0  0  0  0  0  0  0  0  0
   15.2346   -7.1434   -8.3757 C   0  0  0  0  0  0  0  0  0  0  0  0
   15.3244   -6.8792   -9.8460 C   0  0  2  0  0  0  0  0  0  0  0  0
   16.0666   -7.9983  -10.4417 N   0  0  0  0  0  0  0  0  0  0  0  0
   15.9434   -5.5933  -10.2115 C   0  0  0  0  0  0  0  0  0  0  0  0
   15.2529   -4.4417  -10.5502 O   0  0  0  0  0  0  0  0  0  0  0  0
   17.2238   -5.5442  -10.2153 O   0  0  0  0  0  0  0  0  0  0  0  0
  2  1  1  1
  2  3  1  0
  4  3  1  0
  5  6  2  0
  5  2  1  0
  7  8  1  0
  8  9  1  0
  9 11  1  0
  9 10  1  1
 11 12  1  6
 12  5  1  0
 13 11  1  0
 13 20  1  0
 14 13  2  0
 16 15  1  1
 16 17  1  0
 18 16  1  0
 19 20  1  0
 19 18  1  1
 21 19  1  0
 22 21  1  0
 23 21  2  0
M  END
$$$$
