CIL.pdb
     RDKit          3D

 23 22  0  0  1  0  0  0  0  0999 V2000
   15.0683  -13.7446  -13.0399 N   0  0  0  0  0  0  0  0  0  0  0  0
   14.6505  -12.3921  -13.2549 C   0  0  1  0  0  0  0  0  0  0  0  0
   13.1977  -12.1721  -12.8400 C   0  0  0  0  0  0  0  0  0  0  0  0
   12.1268  -13.2255  -13.8582 S   0  0  0  0  0  0  0  0  0  0  0  0
   15.4745  -11.4113  -12.5014 C   0  0  0  0  0  0  0  0  0  0  0  0
   15.9762  -11.7926  -11.4123 O   0  0  0  0  0  0  0  0  0  0  0  0
   19.4783   -9.1979  -14.8997 C   0  0  0  0  0  0  0  0  0  0  0  0
   18.4691   -9.8366  -13.9597 C   0  0  0  0  0  0  0  0  0  0  0  0
   17.6643   -8.7234  -13.3494 C   0  0  2  0  0  0  0  0  0  0  0  0
   18.5110   -7.7147  -12.6485 C   0  0  0  0  0  0  0  0  0  0  0  0
   16.6238   -9.2345  -12.3752 C   0  0  2  0  0  0  0  0  0  0  0  0
   15.6693  -10.1050  -13.0156 N   0  0  0  0  0  0  0  0  0  0  0  0
   15.8947   -8.1139  -11.7229 C   0  0  0  0  0  0  0  0  0  0  0  0
   15.1087   -7.4111  -12.4038 O   0  0  0  0  0  0  0  0  0  0  0  0
   14.9061   -6.0098   -5.9773 C   0  0  0  0  0  0  0  0  0  0  0  0
   14.6393   -5.8506   -7.4869 C   0  0  2  0  0  0  0  0  0  0  0  0
   13.1414   -5.8668   -7.6988 C   0  0  0  0  0  0  0  0  0  0  0  0
   15.2657   -6.9746   -8.2462 C   0  0  0  0  0  0  0  0  0  0  0  0
   15.3142   -6.6866   -9.7140 C   0  0  2  0  0  0  0  0  0  0  0  0
   16.0444   -7.7928  -10.3476 N   0  0  0  0  0  0  0  0  0  0  0  0
   15.9180   -5.3924  -10.0756 C   0  0  0  0  0  0  0  0  0  0  0  0
   17.2737   -5.1605  -10.2375 O   0  0  0  0  0  0  0  0  0  0  0  0
   15.1189   -4.4064  -10.2518 O   0  0  0  0  0  0  0  0  0  0  0  0
  2  1  1  1
  2  3  1  0
  4  3  1  0
  5  6  2  0
  5  2  1  0
  7  8  1  0
  8  9  1  0
  9 11  1  0
  9 10  1  1
 11 12  1  6
 12  5  1  0
 13 11  1  0
 13 20  1  0
 14 13  2  0
 16 15  1  1
 16 17  1  0
 18 16  1  0
 19 20  1  0
 19 18  1  1
 21 19  1  0
 22 21  1  0
 23 21  2  0
M  END
$$$$
