CIL.pdb
     RDKit          3D

 23 22  0  0  1  0  0  0  0  0999 V2000
   20.0784  -14.9114  -19.9437 N   0  0  0  0  0  0  0  0  0  0  0  0
   19.5446  -14.3880  -18.7226 C   0  0  1  0  0  0  0  0  0  0  0  0
   20.0752  -15.1364  -17.5022 C   0  0  0  0  0  0  0  0  0  0  0  0
   19.5263  -16.8643  -17.5843 S   0  0  0  0  0  0  0  0  0  0  0  0
   19.8642  -12.9498  -18.5276 C   0  0  0  0  0  0  0  0  0  0  0  0
   21.0058  -12.5573  -18.8828 O   0  0  0  0  0  0  0  0  0  0  0  0
   15.7125   -9.8013  -18.8792 C   0  0  0  0  0  0  0  0  0  0  0  0
   17.1997   -9.8743  -19.1840 C   0  0  0  0  0  0  0  0  0  0  0  0
   17.9252   -9.8340  -17.8682 C   0  0  2  0  0  0  0  0  0  0  0  0
   18.2811   -8.4479  -17.4463 C   0  0  0  0  0  0  0  0  0  0  0  0
   19.1884  -10.6687  -17.8832 C   0  0  2  0  0  0  0  0  0  0  0  0
   18.9000  -12.0792  -17.9610 N   0  0  0  0  0  0  0  0  0  0  0  0
   20.0229  -10.4114  -16.6789 C   0  0  0  0  0  0  0  0  0  0  0  0
   19.6019  -10.7649  -15.5507 O   0  0  0  0  0  0  0  0  0  0  0  0
   25.8008  -10.0559  -14.9321 C   0  0  0  0  0  0  0  0  0  0  0  0
   24.3369   -9.7263  -14.5805 C   0  0  2  0  0  0  0  0  0  0  0  0
   23.9361  -10.5876  -13.4029 C   0  0  0  0  0  0  0  0  0  0  0  0
   23.4451  -10.0191  -15.7429 C   0  0  0  0  0  0  0  0  0  0  0  0
   22.0723   -9.4596  -15.5372 C   0  0  2  0  0  0  0  0  0  0  0  0
   21.2917   -9.7763  -16.7407 N   0  0  0  0  0  0  0  0  0  0  0  0
   22.0243   -8.0148  -15.2533 C   0  0  0  0  0  0  0  0  0  0  0  0
   21.8525   -7.4521  -13.9996 O   0  0  0  0  0  0  0  0  0  0  0  0
   22.1512   -7.2211  -16.2511 O   0  0  0  0  0  0  0  0  0  0  0  0
  2  1  1  6
  2  3  1  0
  4  3  1  0
  5  6  2  0
  5  2  1  0
  7  8  1  0
  8  9  1  0
  9 11  1  0
  9 10  1  6
 11 12  1  1
 12  5  1  0
 13 11  1  0
 13 20  1  0
 14 13  2  0
 16 15  1  6
 16 17  1  0
 18 16  1  0
 19 20  1  0
 19 18  1  6
 21 19  1  0
 22 21  1  0
 23 21  2  0
M  END
$$$$
