CIL.pdb
     RDKit          3D

 23 22  0  0  1  0  0  0  0  0999 V2000
   15.7699  -13.3027  -17.5400 N   0  0  0  0  0  0  0  0  0  0  0  0
   15.4404  -12.1069  -16.8249 C   0  0  1  0  0  0  0  0  0  0  0  0
   15.2547  -12.3690  -15.3322 C   0  0  0  0  0  0  0  0  0  0  0  0
   13.8685  -13.5174  -15.1022 S   0  0  0  0  0  0  0  0  0  0  0  0
   16.4808  -11.0542  -16.9587 C   0  0  0  0  0  0  0  0  0  0  0  0
   17.6638  -11.4322  -17.1614 O   0  0  0  0  0  0  0  0  0  0  0  0
   14.9039   -6.3330  -19.2346 C   0  0  0  0  0  0  0  0  0  0  0  0
   15.6620   -7.6199  -18.9533 C   0  0  0  0  0  0  0  0  0  0  0  0
   16.4469   -7.4056  -17.6894 C   0  0  2  0  0  0  0  0  0  0  0  0
   17.5030   -6.3617  -17.8345 C   0  0  0  0  0  0  0  0  0  0  0  0
   17.0987   -8.6798  -17.1953 C   0  0  2  0  0  0  0  0  0  0  0  0
   16.1234   -9.6865  -16.8572 N   0  0  0  0  0  0  0  0  0  0  0  0
   17.9605   -8.4240  -16.0101 C   0  0  0  0  0  0  0  0  0  0  0  0
   17.4289   -8.1009  -14.9200 O   0  0  0  0  0  0  0  0  0  0  0  0
   23.5034   -9.8956  -13.8641 C   0  0  0  0  0  0  0  0  0  0  0  0
   22.2866   -8.9565  -13.7509 C   0  0  2  0  0  0  0  0  0  0  0  0
   21.6346   -9.1999  -12.4075 C   0  0  0  0  0  0  0  0  0  0  0  0
   21.3074   -9.2413  -14.8428 C   0  0  0  0  0  0  0  0  0  0  0  0
   20.2202   -8.2137  -14.8880 C   0  0  2  0  0  0  0  0  0  0  0  0
   19.3764   -8.5281  -16.0487 N   0  0  0  0  0  0  0  0  0  0  0  0
   20.6849   -6.8170  -14.9479 C   0  0  0  0  0  0  0  0  0  0  0  0
   21.0983   -6.1609  -16.0953 O   0  0  0  0  0  0  0  0  0  0  0  0
   20.7067   -6.1633  -13.8461 O   0  0  0  0  0  0  0  0  0  0  0  0
  2  1  1  6
  2  3  1  0
  4  3  1  0
  5  6  2  0
  5  2  1  0
  7  8  1  0
  8  9  1  0
  9 11  1  0
  9 10  1  6
 11 12  1  1
 12  5  1  0
 13 11  1  0
 13 20  1  0
 14 13  2  0
 16 15  1  6
 16 17  1  0
 18 16  1  0
 19 20  1  0
 19 18  1  6
 21 19  1  0
 22 21  1  0
 23 21  2  0
M  END
$$$$
