CIL.pdb
     RDKit          3D

 23 22  0  0  1  0  0  0  0  0999 V2000
   28.4383  -20.0098  -15.3883 N   0  0  0  0  0  0  0  0  0  0  0  0
   27.5575  -19.2801  -14.5270 C   0  0  1  0  0  0  0  0  0  0  0  0
   26.9050  -18.1018  -15.2461 C   0  0  0  0  0  0  0  0  0  0  0  0
   28.2011  -16.9659  -15.8146 S   0  0  0  0  0  0  0  0  0  0  0  0
   26.4610  -20.1225  -13.9823 C   0  0  0  0  0  0  0  0  0  0  0  0
   26.1216  -21.1335  -14.6502 O   0  0  0  0  0  0  0  0  0  0  0  0
   26.1533  -20.8608   -8.6226 C   0  0  0  0  0  0  0  0  0  0  0  0
   26.1977  -21.0883  -10.1247 C   0  0  0  0  0  0  0  0  0  0  0  0
   24.8737  -20.6437  -10.6804 C   0  0  2  0  0  0  0  0  0  0  0  0
   23.7324  -21.4662  -10.1837 C   0  0  0  0  0  0  0  0  0  0  0  0
   24.8518  -20.6602  -12.1944 C   0  0  2  0  0  0  0  0  0  0  0  0
   25.8414  -19.7747  -12.7561 N   0  0  0  0  0  0  0  0  0  0  0  0
   23.5123  -20.2852  -12.7216 C   0  0  0  0  0  0  0  0  0  0  0  0
   23.0881  -19.1164  -12.5507 O   0  0  0  0  0  0  0  0  0  0  0  0
   21.7681  -19.3471  -16.4025 C   0  0  0  0  0  0  0  0  0  0  0  0
   22.0603  -20.8475  -16.2057 C   0  0  2  0  0  0  0  0  0  0  0  0
   21.8814  -21.5353  -17.5413 C   0  0  0  0  0  0  0  0  0  0  0  0
   21.1150  -21.4343  -15.2085 C   0  0  0  0  0  0  0  0  0  0  0  0
   21.3148  -20.8438  -13.8480 C   0  0  2  0  0  0  0  0  0  0  0  0
   22.6752  -21.1958  -13.4196 N   0  0  0  0  0  0  0  0  0  0  0  0
   20.3284  -21.2610  -12.8365 C   0  0  0  0  0  0  0  0  0  0  0  0
   20.5431  -22.2168  -11.8575 O   0  0  0  0  0  0  0  0  0  0  0  0
   19.1817  -20.6905  -12.8719 O   0  0  0  0  0  0  0  0  0  0  0  0
  2  1  1  6
  2  3  1  0
  4  3  1  0
  5  6  2  0
  5  2  1  0
  7  8  1  0
  8  9  1  0
  9 11  1  0
  9 10  1  1
 11 12  1  6
 12  5  1  0
 13 11  1  0
 13 20  1  0
 14 13  2  0
 16 15  1  6
 16 17  1  0
 18 16  1  0
 19 20  1  0
 19 18  1  6
 21 19  1  0
 22 21  1  0
 23 21  2  0
M  END
$$$$
