CIL.pdb
     RDKit          3D

 23 22  0  0  1  0  0  0  0  0999 V2000
   22.3139  -21.2408  -13.3014 N   0  0  0  0  0  0  0  0  0  0  0  0
   22.6319  -20.5161  -12.1082 C   0  0  1  0  0  0  0  0  0  0  0  0
   21.4669  -20.5048  -11.1213 C   0  0  0  0  0  0  0  0  0  0  0  0
   20.8973  -18.7961  -10.8996 S   0  0  0  0  0  0  0  0  0  0  0  0
   23.8068  -21.0782  -11.3925 C   0  0  0  0  0  0  0  0  0  0  0  0
   23.7521  -22.2881  -11.0512 O   0  0  0  0  0  0  0  0  0  0  0  0
   28.2629  -21.5762  -13.5615 C   0  0  0  0  0  0  0  0  0  0  0  0
   26.9840  -21.5748  -12.7402 C   0  0  0  0  0  0  0  0  0  0  0  0
   27.2822  -20.8541  -11.4553 C   0  0  2  0  0  0  0  0  0  0  0  0
   28.4569  -21.4228  -10.7325 C   0  0  0  0  0  0  0  0  0  0  0  0
   26.0976  -20.8477  -10.5123 C   0  0  2  0  0  0  0  0  0  0  0  0
   24.9302  -20.2583  -11.1196 N   0  0  0  0  0  0  0  0  0  0  0  0
   26.4094  -20.1172   -9.2545 C   0  0  0  0  0  0  0  0  0  0  0  0
   26.3397  -18.8642   -9.2363 O   0  0  0  0  0  0  0  0  0  0  0  0
   27.7183  -19.1821   -4.1313 C   0  0  0  0  0  0  0  0  0  0  0  0
   26.9417  -20.4610   -4.5006 C   0  0  2  0  0  0  0  0  0  0  0  0
   27.1342  -21.4614   -3.3819 C   0  0  0  0  0  0  0  0  0  0  0  0
   27.4607  -21.0327   -5.7797 C   0  0  0  0  0  0  0  0  0  0  0  0
   27.3500  -20.0523   -6.9049 C   0  0  2  0  0  0  0  0  0  0  0  0
   26.7880  -20.7747   -8.0539 N   0  0  0  0  0  0  0  0  0  0  0  0
   28.6100  -19.3859   -7.2772 C   0  0  0  0  0  0  0  0  0  0  0  0
   29.0421  -18.1639   -6.7894 O   0  0  0  0  0  0  0  0  0  0  0  0
   29.3608  -19.9906   -8.1212 O   0  0  0  0  0  0  0  0  0  0  0  0
  2  1  1  6
  2  3  1  0
  4  3  1  0
  5  6  2  0
  5  2  1  0
  7  8  1  0
  8  9  1  0
  9 11  1  0
  9 10  1  1
 11 12  1  6
 12  5  1  0
 13 11  1  0
 13 20  1  0
 14 13  2  0
 16 15  1  1
 16 17  1  0
 18 16  1  0
 19 20  1  0
 19 18  1  1
 21 19  1  0
 22 21  1  0
 23 21  2  0
M  END
$$$$
