CIL.pdb
     RDKit          3D

 23 22  0  0  1  0  0  0  0  0999 V2000
   32.9736  -25.0879  -14.7837 N   0  0  0  0  0  0  0  0  0  0  0  0
   32.3067  -25.3069  -16.0317 C   0  0  1  0  0  0  0  0  0  0  0  0
   33.2945  -25.5506  -17.1701 C   0  0  0  0  0  0  0  0  0  0  0  0
   34.2124  -24.0189  -17.4935 S   0  0  0  0  0  0  0  0  0  0  0  0
   31.3868  -26.4735  -15.9927 C   0  0  0  0  0  0  0  0  0  0  0  0
   31.6359  -27.3791  -15.1553 O   0  0  0  0  0  0  0  0  0  0  0  0
   26.1672  -25.4333  -16.9867 C   0  0  0  0  0  0  0  0  0  0  0  0
   27.4436  -25.9308  -16.3284 C   0  0  0  0  0  0  0  0  0  0  0  0
   27.9147  -27.1211  -17.1162 C   0  0  2  0  0  0  0  0  0  0  0  0
   26.9869  -28.2851  -17.0158 C   0  0  0  0  0  0  0  0  0  0  0  0
   29.2979  -27.5746  -16.6994 C   0  0  2  0  0  0  0  0  0  0  0  0
   30.2809  -26.5348  -16.8768 N   0  0  0  0  0  0  0  0  0  0  0  0
   29.7258  -28.7795  -17.4596 C   0  0  0  0  0  0  0  0  0  0  0  0
   29.8828  -28.7002  -18.7023 O   0  0  0  0  0  0  0  0  0  0  0  0
   31.9547  -34.4327  -16.1877 C   0  0  0  0  0  0  0  0  0  0  0  0
   31.5972  -33.3713  -17.2465 C   0  0  2  0  0  0  0  0  0  0  0  0
   32.8597  -33.0286  -18.0064 C   0  0  0  0  0  0  0  0  0  0  0  0
   31.0583  -32.1427  -16.5889 C   0  0  0  0  0  0  0  0  0  0  0  0
   30.4768  -31.1938  -17.5894 C   0  0  2  0  0  0  0  0  0  0  0  0
   29.9698  -30.0350  -16.8422 N   0  0  0  0  0  0  0  0  0  0  0  0
   29.4208  -31.7609  -18.4459 C   0  0  0  0  0  0  0  0  0  0  0  0
   29.6138  -32.2777  -19.7161 O   0  0  0  0  0  0  0  0  0  0  0  0
   28.2306  -31.7728  -17.9715 O   0  0  0  0  0  0  0  0  0  0  0  0
  2  1  1  1
  2  3  1  0
  4  3  1  0
  5  6  2  0
  5  2  1  0
  7  8  1  0
  8  9  1  0
  9 11  1  0
  9 10  1  1
 11 12  1  6
 12  5  1  0
 13 11  1  0
 13 20  1  0
 14 13  2  0
 16 15  1  1
 16 17  1  0
 18 16  1  0
 19 20  1  0
 19 18  1  1
 21 19  1  0
 22 21  1  0
 23 21  2  0
M  END
$$$$
