CIL.pdb
     RDKit          3D

 23 22  0  0  1  0  0  0  0  0999 V2000
   18.4979  -13.9603  -16.8298 N   0  0  0  0  0  0  0  0  0  0  0  0
   18.9272  -12.7337  -17.4310 C   0  0  1  0  0  0  0  0  0  0  0  0
   17.8604  -12.1474  -18.3527 C   0  0  0  0  0  0  0  0  0  0  0  0
   17.5186  -13.3290  -19.6870 S   0  0  0  0  0  0  0  0  0  0  0  0
   19.2606  -11.6898  -16.4272 C   0  0  0  0  0  0  0  0  0  0  0  0
   18.5686  -11.6549  -15.3768 O   0  0  0  0  0  0  0  0  0  0  0  0
   23.9523  -11.0932  -14.4047 C   0  0  0  0  0  0  0  0  0  0  0  0
   22.4556  -11.1344  -14.6656 C   0  0  0  0  0  0  0  0  0  0  0  0
   22.0723   -9.8091  -15.2622 C   0  0  2  0  0  0  0  0  0  0  0  0
   22.3216   -8.6649  -14.3379 C   0  0  0  0  0  0  0  0  0  0  0  0
   20.6203   -9.7705  -15.6903 C   0  0  2  0  0  0  0  0  0  0  0  0
   20.3222  -10.7833  -16.6722 N   0  0  0  0  0  0  0  0  0  0  0  0
   20.2526   -8.4389  -16.2419 C   0  0  0  0  0  0  0  0  0  0  0  0
   20.8378   -8.0140  -17.2677 O   0  0  0  0  0  0  0  0  0  0  0  0
   16.6666   -6.6400  -18.0139 C   0  0  0  0  0  0  0  0  0  0  0  0
   16.5627   -6.8435  -16.4897 C   0  0  2  0  0  0  0  0  0  0  0  0
   15.1543   -6.4867  -16.0677 C   0  0  0  0  0  0  0  0  0  0  0  0
   17.5377   -5.9613  -15.7803 C   0  0  0  0  0  0  0  0  0  0  0  0
   18.9476   -6.2704  -16.1757 C   0  0  2  0  0  0  0  0  0  0  0  0
   19.2576   -7.6101  -15.6587 N   0  0  0  0  0  0  0  0  0  0  0  0
   19.9514   -5.2934  -15.7194 C   0  0  0  0  0  0  0  0  0  0  0  0
   20.3578   -4.1751  -16.4280 O   0  0  0  0  0  0  0  0  0  0  0  0
   20.4880   -5.5020  -14.5748 O   0  0  0  0  0  0  0  0  0  0  0  0
  2  1  1  1
  2  3  1  0
  4  3  1  0
  5  6  2  0
  5  2  1  0
  7  8  1  0
  8  9  1  0
  9 11  1  0
  9 10  1  1
 11 12  1  6
 12  5  1  0
 13 11  1  0
 13 20  1  0
 14 13  2  0
 16 15  1  6
 16 17  1  0
 18 16  1  0
 19 20  1  0
 19 18  1  1
 21 19  1  0
 22 21  1  0
 23 21  2  0
M  END
$$$$
