CIL.pdb
     RDKit          3D

 23 22  0  0  1  0  0  0  0  0999 V2000
   17.1261  -11.3163  -17.3623 N   0  0  0  0  0  0  0  0  0  0  0  0
   18.1312  -10.3702  -17.7427 C   0  0  1  0  0  0  0  0  0  0  0  0
   17.5228   -9.0929  -18.3168 C   0  0  0  0  0  0  0  0  0  0  0  0
   16.7197   -9.4800  -19.8974 S   0  0  0  0  0  0  0  0  0  0  0  0
   18.9999   -9.9689  -16.6055 C   0  0  0  0  0  0  0  0  0  0  0  0
   18.4593   -9.8613  -15.4743 O   0  0  0  0  0  0  0  0  0  0  0  0
   23.7355  -12.0493  -15.3699 C   0  0  0  0  0  0  0  0  0  0  0  0
   22.3484  -11.4285  -15.3458 C   0  0  0  0  0  0  0  0  0  0  0  0
   22.5124   -9.9634  -15.6384 C   0  0  2  0  0  0  0  0  0  0  0  0
   23.3645   -9.2646  -14.6327 C   0  0  0  0  0  0  0  0  0  0  0  0
   21.1836   -9.2424  -15.7229 C   0  0  2  0  0  0  0  0  0  0  0  0
   20.3794   -9.7238  -16.8186 N   0  0  0  0  0  0  0  0  0  0  0  0
   21.3714   -7.7741  -15.8695 C   0  0  0  0  0  0  0  0  0  0  0  0
   21.6724   -7.3005  -16.9922 O   0  0  0  0  0  0  0  0  0  0  0  0
   20.5617   -2.5754  -14.1139 C   0  0  0  0  0  0  0  0  0  0  0  0
   20.1460   -3.3431  -15.3840 C   0  0  2  0  0  0  0  0  0  0  0  0
   18.7901   -2.8289  -15.8155 C   0  0  0  0  0  0  0  0  0  0  0  0
   20.0602   -4.8076  -15.1008 C   0  0  0  0  0  0  0  0  0  0  0  0
   21.4178   -5.4178  -14.9447 C   0  0  2  0  0  0  0  0  0  0  0  0
   21.2255   -6.8656  -14.7876 N   0  0  0  0  0  0  0  0  0  0  0  0
   22.2198   -4.8776  -13.8332 C   0  0  0  0  0  0  0  0  0  0  0  0
   22.1550   -5.3077  -12.5183 O   0  0  0  0  0  0  0  0  0  0  0  0
   23.0400   -3.9337  -14.1124 O   0  0  0  0  0  0  0  0  0  0  0  0
  2  1  1  1
  2  3  1  0
  4  3  1  0
  5  6  2  0
  5  2  1  0
  7  8  1  0
  8  9  1  0
  9 11  1  0
  9 10  1  1
 11 12  1  6
 12  5  1  0
 13 11  1  0
 13 20  1  0
 14 13  2  0
 16 15  1  1
 16 17  1  0
 18 16  1  0
 19 20  1  0
 19 18  1  1
 21 19  1  0
 22 21  1  0
 23 21  2  0
M  END
$$$$
