CIL.pdb
     RDKit          3D

 23 22  0  0  1  0  0  0  0  0999 V2000
   17.7591  -14.6178  -17.2637 N   0  0  0  0  0  0  0  0  0  0  0  0
   17.1095  -13.6712  -16.4082 C   0  0  1  0  0  0  0  0  0  0  0  0
   17.3736  -13.9621  -14.9328 C   0  0  0  0  0  0  0  0  0  0  0  0
   16.7107  -15.6019  -14.5263 S   0  0  0  0  0  0  0  0  0  0  0  0
   17.5459  -12.2738  -16.6641 C   0  0  0  0  0  0  0  0  0  0  0  0
   18.7401  -12.0963  -17.0188 O   0  0  0  0  0  0  0  0  0  0  0  0
   14.0092   -9.9790  -18.7830 C   0  0  0  0  0  0  0  0  0  0  0  0
   15.4899   -9.6441  -18.8555 C   0  0  0  0  0  0  0  0  0  0  0  0
   15.8879   -9.0980  -17.5129 C   0  0  2  0  0  0  0  0  0  0  0  0
   16.2710   -7.6570  -17.5651 C   0  0  0  0  0  0  0  0  0  0  0  0
   17.0306   -9.8744  -16.8930 C   0  0  2  0  0  0  0  0  0  0  0  0
   16.6296  -11.2042  -16.5061 N   0  0  0  0  0  0  0  0  0  0  0  0
   17.5828   -9.1707  -15.7043 C   0  0  0  0  0  0  0  0  0  0  0  0
   16.8953   -9.0984  -14.6568 O   0  0  0  0  0  0  0  0  0  0  0  0
   22.4363   -5.9018  -14.1566 C   0  0  0  0  0  0  0  0  0  0  0  0
   21.4502   -6.9226  -13.5560 C   0  0  2  0  0  0  0  0  0  0  0  0
   22.2196   -7.8035  -12.5963 C   0  0  0  0  0  0  0  0  0  0  0  0
   20.8497   -7.7622  -14.6361 C   0  0  0  0  0  0  0  0  0  0  0  0
   19.3553   -7.7745  -14.5561 C   0  0  2  0  0  0  0  0  0  0  0  0
   18.8681   -8.5667  -15.6933 N   0  0  0  0  0  0  0  0  0  0  0  0
   18.7209   -6.4450  -14.5407 C   0  0  0  0  0  0  0  0  0  0  0  0
   18.4421   -5.6797  -15.6608 O   0  0  0  0  0  0  0  0  0  0  0  0
   18.4056   -5.9639  -13.3958 O   0  0  0  0  0  0  0  0  0  0  0  0
  2  1  1  6
  2  3  1  0
  4  3  1  0
  5  6  2  0
  5  2  1  0
  7  8  1  0
  8  9  1  0
  9 11  1  0
  9 10  1  6
 11 12  1  1
 12  5  1  0
 13 11  1  0
 13 20  1  0
 14 13  2  0
 16 15  1  6
 16 17  1  0
 18 16  1  0
 19 20  1  0
 19 18  1  6
 21 19  1  0
 22 21  1  0
 23 21  2  0
M  END
$$$$
