CIL.pdb
     RDKit          3D

 23 22  0  0  1  0  0  0  0  0999 V2000
   22.4714  -18.6780  -16.7873 N   0  0  0  0  0  0  0  0  0  0  0  0
   22.8939  -18.6103  -15.4209 C   0  0  1  0  0  0  0  0  0  0  0  0
   21.7310  -18.8205  -14.4542 C   0  0  0  0  0  0  0  0  0  0  0  0
   20.5716  -17.4336  -14.6146 S   0  0  0  0  0  0  0  0  0  0  0  0
   23.9276  -19.6255  -15.0900 C   0  0  0  0  0  0  0  0  0  0  0  0
   23.8092  -20.7638  -15.6130 O   0  0  0  0  0  0  0  0  0  0  0  0
   29.0486  -18.4638  -15.4803 C   0  0  0  0  0  0  0  0  0  0  0  0
   27.6582  -19.0775  -15.4883 C   0  0  0  0  0  0  0  0  0  0  0  0
   27.4154  -19.6448  -14.1176 C   0  0  2  0  0  0  0  0  0  0  0  0
   28.4283  -20.6684  -13.7276 C   0  0  0  0  0  0  0  0  0  0  0  0
   26.0383  -20.2606  -13.9868 C   0  0  2  0  0  0  0  0  0  0  0  0
   24.9931  -19.2942  -14.2162 N   0  0  0  0  0  0  0  0  0  0  0  0
   25.8437  -20.8744  -12.6458 C   0  0  0  0  0  0  0  0  0  0  0  0
   26.2409  -22.0473  -12.4416 O   0  0  0  0  0  0  0  0  0  0  0  0
   27.1543  -21.3563   -8.6585 C   0  0  0  0  0  0  0  0  0  0  0  0
   26.5760  -19.9744   -9.0209 C   0  0  2  0  0  0  0  0  0  0  0  0
   26.9058  -19.0217   -7.8928 C   0  0  0  0  0  0  0  0  0  0  0  0
   25.0938  -20.0595   -9.1887 C   0  0  0  0  0  0  0  0  0  0  0  0
   24.7218  -20.8907  -10.3763 C   0  0  2  0  0  0  0  0  0  0  0  0
   25.2218  -20.1909  -11.5673 N   0  0  0  0  0  0  0  0  0  0  0  0
   23.2831  -21.1783  -10.5097 C   0  0  0  0  0  0  0  0  0  0  0  0
   22.4890  -20.8025  -11.5803 O   0  0  0  0  0  0  0  0  0  0  0  0
   22.7285  -21.8276   -9.5545 O   0  0  0  0  0  0  0  0  0  0  0  0
  2  1  1  6
  2  3  1  0
  4  3  1  0
  5  6  2  0
  5  2  1  0
  7  8  1  0
  8  9  1  0
  9 11  1  0
  9 10  1  6
 11 12  1  1
 12  5  1  0
 13 11  1  0
 13 20  1  0
 14 13  2  0
 16 15  1  1
 16 17  1  0
 18 16  1  0
 19 20  1  0
 19 18  1  1
 21 19  1  0
 22 21  1  0
 23 21  2  0
M  END
$$$$
