CIL.pdb
     RDKit          3D

 23 22  0  0  1  0  0  0  0  0999 V2000
   28.8138  -21.2327  -14.9830 N   0  0  0  0  0  0  0  0  0  0  0  0
   28.2354  -20.2585  -14.1076 C   0  0  1  0  0  0  0  0  0  0  0  0
   27.6006  -19.1045  -14.8799 C   0  0  0  0  0  0  0  0  0  0  0  0
   28.8968  -18.2204  -15.7918 S   0  0  0  0  0  0  0  0  0  0  0  0
   27.1812  -20.8308  -13.2303 C   0  0  0  0  0  0  0  0  0  0  0  0
   26.5337  -21.8159  -13.6706 O   0  0  0  0  0  0  0  0  0  0  0  0
   27.3750  -20.0189   -7.7418 C   0  0  0  0  0  0  0  0  0  0  0  0
   27.2520  -20.7815   -9.0507 C   0  0  0  0  0  0  0  0  0  0  0  0
   25.9719  -20.3401   -9.7032 C   0  0  2  0  0  0  0  0  0  0  0  0
   24.7587  -20.8095   -8.9727 C   0  0  0  0  0  0  0  0  0  0  0  0
   25.8721  -20.8011  -11.1420 C   0  0  2  0  0  0  0  0  0  0  0  0
   26.9381  -20.2671  -11.9529 N   0  0  0  0  0  0  0  0  0  0  0  0
   24.5673  -20.4182  -11.7451 C   0  0  0  0  0  0  0  0  0  0  0  0
   24.3437  -19.2132  -12.0157 O   0  0  0  0  0  0  0  0  0  0  0  0
   20.7979  -22.6912  -15.8211 C   0  0  0  0  0  0  0  0  0  0  0  0
   21.0130  -21.5847  -14.7702 C   0  0  2  0  0  0  0  0  0  0  0  0
   21.1586  -20.2691  -15.5030 C   0  0  0  0  0  0  0  0  0  0  0  0
   22.2490  -21.8560  -13.9759 C   0  0  0  0  0  0  0  0  0  0  0  0
   22.3181  -20.9936  -12.7547 C   0  0  2  0  0  0  0  0  0  0  0  0
   23.5452  -21.3605  -12.0353 N   0  0  0  0  0  0  0  0  0  0  0  0
   21.1485  -21.0807  -11.8632 C   0  0  0  0  0  0  0  0  0  0  0  0
   20.0043  -20.3076  -11.9682 O   0  0  0  0  0  0  0  0  0  0  0  0
   21.2015  -21.9423  -10.9163 O   0  0  0  0  0  0  0  0  0  0  0  0
  2  1  1  6
  2  3  1  0
  4  3  1  0
  5  6  2  0
  5  2  1  0
  7  8  1  0
  8  9  1  0
  9 11  1  0
  9 10  1  1
 11 12  1  6
 12  5  1  0
 13 11  1  0
 13 20  1  0
 14 13  2  0
 16 15  1  6
 16 17  1  0
 18 16  1  0
 19 20  1  0
 19 18  1  6
 21 19  1  0
 22 21  1  0
 23 21  2  0
M  END
$$$$
