CIL.pdb
     RDKit          3D

 23 22  0  0  1  0  0  0  0  0999 V2000
   24.5865  -20.5378   -7.7311 N   0  0  0  0  0  0  0  0  0  0  0  0
   24.2847  -21.0267   -9.0426 C   0  0  1  0  0  0  0  0  0  0  0  0
   22.7963  -20.9139   -9.3637 C   0  0  0  0  0  0  0  0  0  0  0  0
   21.8599  -21.9323   -8.1892 S   0  0  0  0  0  0  0  0  0  0  0  0
   25.0193  -20.2974  -10.1089 C   0  0  0  0  0  0  0  0  0  0  0  0
   25.0388  -19.0410  -10.0428 O   0  0  0  0  0  0  0  0  0  0  0  0
   29.9712  -21.3874  -11.0962 C   0  0  0  0  0  0  0  0  0  0  0  0
   28.5936  -20.7822  -10.8820 C   0  0  0  0  0  0  0  0  0  0  0  0
   27.8692  -20.8506  -12.1973 C   0  0  2  0  0  0  0  0  0  0  0  0
   28.5876  -20.1343  -13.2912 C   0  0  0  0  0  0  0  0  0  0  0  0
   26.4622  -20.2982  -12.1073 C   0  0  2  0  0  0  0  0  0  0  0  0
   25.6628  -21.0171  -11.1466 N   0  0  0  0  0  0  0  0  0  0  0  0
   25.7796  -20.3347  -13.4285 C   0  0  0  0  0  0  0  0  0  0  0  0
   25.5351  -21.4426  -13.9652 O   0  0  0  0  0  0  0  0  0  0  0  0
   22.1775  -16.8391  -16.8127 C   0  0  0  0  0  0  0  0  0  0  0  0
   23.3770  -17.7954  -16.9609 C   0  0  2  0  0  0  0  0  0  0  0  0
   22.8370  -19.1743  -17.2710 C   0  0  0  0  0  0  0  0  0  0  0  0
   24.1662  -17.8390  -15.6931 C   0  0  0  0  0  0  0  0  0  0  0  0
   24.6963  -19.2122  -15.4224 C   0  0  2  0  0  0  0  0  0  0  0  0
   25.3838  -19.1621  -14.1252 N   0  0  0  0  0  0  0  0  0  0  0  0
   25.5896  -19.7515  -16.4623 C   0  0  0  0  0  0  0  0  0  0  0  0
   25.2218  -20.6639  -17.4371 O   0  0  0  0  0  0  0  0  0  0  0  0
   26.8030  -19.3399  -16.4578 O   0  0  0  0  0  0  0  0  0  0  0  0
  2  1  1  1
  2  3  1  0
  4  3  1  0
  5  6  2  0
  5  2  1  0
  7  8  1  0
  8  9  1  0
  9 11  1  0
  9 10  1  6
 11 12  1  1
 12  5  1  0
 13 11  1  0
 13 20  1  0
 14 13  2  0
 16 15  1  1
 16 17  1  0
 18 16  1  0
 19 20  1  0
 19 18  1  6
 21 19  1  0
 22 21  1  0
 23 21  2  0
M  END
$$$$
