EST.pdb
     RDKit          3D

 23 22  0  0  1  0  0  0  0  0999 V2000
   10.9011  -15.8585   19.0438 N   0  0  0  0  0  0  0  0  0  0  0  0
    9.6810  -15.9681   19.8421 C   0  0  1  0  0  0  0  0  0  0  0  0
    9.1671  -17.3659   19.6927 C   0  0  0  0  0  0  0  0  0  0  0  0
   10.2643  -18.3563   19.8677 C   0  0  0  0  0  0  0  0  0  0  0  0
    9.8331  -19.7448   19.6234 C   0  0  0  0  0  0  0  0  0  0  0  0
    9.3217  -20.1431   18.5762 O   0  0  0  0  0  0  0  0  0  0  0  0
   10.0075  -15.7953   21.2982 C   0  0  0  0  0  0  0  0  0  0  0  0
   11.1595  -16.0440   21.7082 O   0  0  0  0  0  0  0  0  0  0  0  0
   10.0296  -20.6621   20.6745 O   0  0  0  0  0  0  0  0  0  0  0  0
    7.0164  -15.2015   23.9352 O   0  0  0  0  0  0  0  0  0  0  0  0
    8.1348  -14.4197   24.2225 C   0  0  0  0  0  0  0  0  0  0  0  0
    9.3360  -15.0793   23.6136 C   0  0  2  0  0  0  0  0  0  0  0  0
    9.0202  -15.3523   22.2138 N   0  0  0  0  0  0  0  0  0  0  0  0
    9.5260  -16.4110   24.2692 C   0  0  0  0  0  0  0  0  0  0  0  0
    9.3618  -17.4959   23.6773 O   0  0  0  0  0  0  0  0  0  0  0  0
   11.2698  -18.4373   24.0139 C   0  0  0  0  0  0  0  0  0  0  0  0
   11.6056  -18.2660   25.4719 C   0  0  1  0  0  0  0  0  0  0  0  0
   12.7182  -17.4639   25.6714 O   0  0  0  0  0  0  0  0  0  0  0  0
   10.4237  -17.6870   26.2468 C   0  0  2  0  0  0  0  0  0  0  0  0
    9.9182  -16.4942   25.6533 N   0  0  0  0  0  0  0  0  0  0  0  0
   10.7261  -17.5740   27.6841 C   0  0  0  0  0  0  0  0  0  0  0  0
   10.9811  -18.6407   28.5338 O   0  0  0  0  0  0  0  0  0  0  0  0
   10.7640  -16.4340   28.2152 O   0  0  0  0  0  0  0  0  0  0  0  0
  2  1  1  6
  3  4  1  0
  3  2  1  0
  5  4  1  0
  6  5  2  0
  7 13  1  0
  7  2  1  0
  8  7  2  0
  9  5  1  0
 11 10  1  0
 12 11  1  1
 12 13  1  0
 12 14  1  0
 14 20  1  0
 15 14  2  0
 17 16  1  6
 18 17  1  0
 19 17  1  0
 19 21  1  0
 19 20  1  6
 21 22  1  0
 23 21  2  0
M  END
$$$$
