EST.pdb
     RDKit          3D

 23 22  0  0  1  0  0  0  0  0999 V2000
   14.0273  -14.9036   16.3307 N   0  0  0  0  0  0  0  0  0  0  0  0
   14.1797  -15.2331   17.7471 C   0  0  1  0  0  0  0  0  0  0  0  0
   15.0185  -14.1627   18.3725 C   0  0  0  0  0  0  0  0  0  0  0  0
   16.4667  -14.4281   18.1543 C   0  0  0  0  0  0  0  0  0  0  0  0
   17.3390  -13.4105   18.7686 C   0  0  0  0  0  0  0  0  0  0  0  0
   17.4144  -13.1939   19.9787 O   0  0  0  0  0  0  0  0  0  0  0  0
   12.8438  -15.1716   18.4313 C   0  0  0  0  0  0  0  0  0  0  0  0
   11.9683  -14.3880   18.0110 O   0  0  0  0  0  0  0  0  0  0  0  0
   18.1322  -12.6449   17.8915 O   0  0  0  0  0  0  0  0  0  0  0  0
    9.2693  -17.1272   20.4810 O   0  0  0  0  0  0  0  0  0  0  0  0
   10.5124  -17.1715   19.8509 C   0  0  0  0  0  0  0  0  0  0  0  0
   11.2799  -15.9442   20.2429 C   0  0  2  0  0  0  0  0  0  0  0  0
   12.5654  -15.9950   19.5510 N   0  0  0  0  0  0  0  0  0  0  0  0
   11.5860  -16.0264   21.7054 C   0  0  0  0  0  0  0  0  0  0  0  0
   12.6492  -16.4946   22.1578 O   0  0  0  0  0  0  0  0  0  0  0  0
    8.3813  -15.4109   24.5076 C   0  0  0  0  0  0  0  0  0  0  0  0
    9.7618  -14.9461   24.8896 C   0  0  1  0  0  0  0  0  0  0  0  0
   10.0216  -15.1039   26.2420 O   0  0  0  0  0  0  0  0  0  0  0  0
   10.8337  -15.6771   24.0838 C   0  0  2  0  0  0  0  0  0  0  0  0
   10.6344  -15.5530   22.6783 N   0  0  0  0  0  0  0  0  0  0  0  0
   11.0118  -17.0610   24.5562 C   0  0  0  0  0  0  0  0  0  0  0  0
   11.8251  -17.4471   25.6118 O   0  0  0  0  0  0  0  0  0  0  0  0
   10.3916  -17.9909   23.9786 O   0  0  0  0  0  0  0  0  0  0  0  0
  2  1  1  6
  3  4  1  0
  3  2  1  0
  5  4  1  0
  6  5  2  0
  7 13  1  0
  7  2  1  0
  8  7  2  0
  9  5  1  0
 11 10  1  0
 12 11  1  6
 12 13  1  0
 12 14  1  0
 14 20  1  0
 15 14  2  0
 17 16  1  1
 18 17  1  0
 19 17  1  0
 19 21  1  0
 19 20  1  6
 21 22  1  0
 23 21  2  0
M  END
$$$$
