EST.pdb
     RDKit          3D

 23 22  0  0  1  0  0  0  0  0999 V2000
    9.8489  -16.8658   20.0879 N   0  0  0  0  0  0  0  0  0  0  0  0
   10.1435  -17.5566   21.3425 C   0  0  1  0  0  0  0  0  0  0  0  0
   11.6306  -17.5717   21.5119 C   0  0  0  0  0  0  0  0  0  0  0  0
   12.3104  -17.8187   20.2110 C   0  0  0  0  0  0  0  0  0  0  0  0
   13.7762  -17.9163   20.3350 C   0  0  0  0  0  0  0  0  0  0  0  0
   14.4802  -18.7008   19.6981 O   0  0  0  0  0  0  0  0  0  0  0  0
    9.5983  -16.7677   22.4989 C   0  0  0  0  0  0  0  0  0  0  0  0
    9.6096  -15.5206   22.4577 O   0  0  0  0  0  0  0  0  0  0  0  0
   14.3928  -17.0418   21.2515 O   0  0  0  0  0  0  0  0  0  0  0  0
    7.9576  -18.7715   25.6800 O   0  0  0  0  0  0  0  0  0  0  0  0
    7.3951  -17.5439   25.3321 C   0  0  0  0  0  0  0  0  0  0  0  0
    8.4748  -16.6831   24.7472 C   0  0  2  0  0  0  0  0  0  0  0  0
    9.0702  -17.4247   23.6384 N   0  0  0  0  0  0  0  0  0  0  0  0
    9.5539  -16.5193   25.7710 C   0  0  0  0  0  0  0  0  0  0  0  0
   10.6368  -17.1357   25.7301 O   0  0  0  0  0  0  0  0  0  0  0  0
   10.9264  -13.0869   27.4087 C   0  0  0  0  0  0  0  0  0  0  0  0
   10.4019  -14.0361   28.4535 C   0  0  1  0  0  0  0  0  0  0  0  0
    9.1507  -13.6708   28.9248 O   0  0  0  0  0  0  0  0  0  0  0  0
   10.3397  -15.4658   27.9198 C   0  0  2  0  0  0  0  0  0  0  0  0
    9.3782  -15.6145   26.8786 N   0  0  0  0  0  0  0  0  0  0  0  0
   10.2119  -16.4436   29.0142 C   0  0  0  0  0  0  0  0  0  0  0  0
   11.1224  -16.6104   30.0477 O   0  0  0  0  0  0  0  0  0  0  0  0
    9.2094  -17.2033   29.0441 O   0  0  0  0  0  0  0  0  0  0  0  0
  2  1  1  6
  3  4  1  0
  3  2  1  0
  5  4  1  0
  6  5  2  0
  7 13  1  0
  7  2  1  0
  8  7  2  0
  9  5  1  0
 11 10  1  0
 12 11  1  1
 12 13  1  0
 12 14  1  0
 14 20  1  0
 15 14  2  0
 17 16  1  6
 18 17  1  0
 19 17  1  0
 19 21  1  0
 19 20  1  6
 21 22  1  0
 23 21  2  0
M  END
$$$$
