EST.pdb
     RDKit          3D

 23 22  0  0  1  0  0  0  0  0999 V2000
   10.2593  -17.1164   17.4433 N   0  0  0  0  0  0  0  0  0  0  0  0
   10.9279  -17.9181   18.4671 C   0  0  1  0  0  0  0  0  0  0  0  0
   12.1754  -18.4788   17.8590 C   0  0  0  0  0  0  0  0  0  0  0  0
   11.9501  -18.8536   16.4362 C   0  0  0  0  0  0  0  0  0  0  0  0
   13.1591  -19.3851   15.7809 C   0  0  0  0  0  0  0  0  0  0  0  0
   13.4521  -20.5797   15.7195 O   0  0  0  0  0  0  0  0  0  0  0  0
   11.3737  -17.0335   19.5965 C   0  0  0  0  0  0  0  0  0  0  0  0
   12.0449  -16.0100   19.3535 O   0  0  0  0  0  0  0  0  0  0  0  0
   14.0244  -18.4429   15.1907 O   0  0  0  0  0  0  0  0  0  0  0  0
    9.0896  -16.1267   22.3941 O   0  0  0  0  0  0  0  0  0  0  0  0
   10.2611  -16.5259   23.0366 C   0  0  0  0  0  0  0  0  0  0  0  0
   11.3844  -16.4604   22.0451 C   0  0  2  0  0  0  0  0  0  0  0  0
   11.0400  -17.3484   20.9377 N   0  0  0  0  0  0  0  0  0  0  0  0
   12.6096  -17.0375   22.6816 C   0  0  0  0  0  0  0  0  0  0  0  0
   12.7892  -18.2613   22.8376 O   0  0  0  0  0  0  0  0  0  0  0  0
   16.1128  -15.9645   21.5844 C   0  0  0  0  0  0  0  0  0  0  0  0
   16.1011  -15.9121   23.0894 C   0  0  1  0  0  0  0  0  0  0  0  0
   16.0978  -14.6147   23.5770 O   0  0  0  0  0  0  0  0  0  0  0  0
   14.9011  -16.6658   23.6592 C   0  0  2  0  0  0  0  0  0  0  0  0
   13.6626  -16.1746   23.1539 N   0  0  0  0  0  0  0  0  0  0  0  0
   14.9698  -16.7551   25.1280 C   0  0  0  0  0  0  0  0  0  0  0  0
   15.9416  -17.4403   25.8427 O   0  0  0  0  0  0  0  0  0  0  0  0
   14.0930  -16.1755   25.8195 O   0  0  0  0  0  0  0  0  0  0  0  0
  2  1  1  6
  3  4  1  0
  3  2  1  0
  5  4  1  0
  6  5  2  0
  7 13  1  0
  7  2  1  0
  8  7  2  0
  9  5  1  0
 11 10  1  0
 12 11  1  1
 12 13  1  0
 12 14  1  0
 14 20  1  0
 15 14  2  0
 17 16  1  6
 18 17  1  0
 19 17  1  0
 19 21  1  0
 19 20  1  1
 21 22  1  0
 23 21  2  0
M  END
$$$$
