EST.pdb
     RDKit          3D

 23 22  0  0  1  0  0  0  0  0999 V2000
   12.8415  -17.2327   19.9175 N   0  0  0  0  0  0  0  0  0  0  0  0
   12.9404  -17.6640   21.3111 C   0  0  1  0  0  0  0  0  0  0  0  0
   14.3096  -17.3067   21.7989 C   0  0  0  0  0  0  0  0  0  0  0  0
   15.3456  -17.6942   20.8029 C   0  0  0  0  0  0  0  0  0  0  0  0
   16.7202  -17.4377   21.2703 C   0  0  0  0  0  0  0  0  0  0  0  0
   17.4870  -16.6160   20.7668 O   0  0  0  0  0  0  0  0  0  0  0  0
   11.9770  -16.8808   22.1567 C   0  0  0  0  0  0  0  0  0  0  0  0
   11.7641  -15.6783   21.9002 O   0  0  0  0  0  0  0  0  0  0  0  0
   17.1659  -18.1966   22.3703 O   0  0  0  0  0  0  0  0  0  0  0  0
    9.5317  -18.9026   24.6824 O   0  0  0  0  0  0  0  0  0  0  0  0
    9.1018  -17.6946   24.1344 C   0  0  0  0  0  0  0  0  0  0  0  0
   10.2883  -16.7849   24.0177 C   0  0  2  0  0  0  0  0  0  0  0  0
   11.3055  -17.4929   23.2447 N   0  0  0  0  0  0  0  0  0  0  0  0
   10.8636  -16.5826   25.3842 C   0  0  0  0  0  0  0  0  0  0  0  0
   11.8806  -17.1759   25.7944 O   0  0  0  0  0  0  0  0  0  0  0  0
   10.6066  -13.0288   27.7388 C   0  0  0  0  0  0  0  0  0  0  0  0
   10.0612  -14.2986   28.3372 C   0  0  1  0  0  0  0  0  0  0  0  0
    8.6789  -14.3703   28.2653 O   0  0  0  0  0  0  0  0  0  0  0  0
   10.6636  -15.5300   27.6639 C   0  0  2  0  0  0  0  0  0  0  0  0
   10.2459  -15.6657   26.3083 N   0  0  0  0  0  0  0  0  0  0  0  0
   10.4759  -16.7384   28.4853 C   0  0  0  0  0  0  0  0  0  0  0  0
   10.9965  -16.9295   29.7570 O   0  0  0  0  0  0  0  0  0  0  0  0
    9.7947  -17.6918   28.0272 O   0  0  0  0  0  0  0  0  0  0  0  0
  2  1  1  6
  3  4  1  0
  3  2  1  0
  5  4  1  0
  6  5  2  0
  7 13  1  0
  7  2  1  0
  8  7  2  0
  9  5  1  0
 11 10  1  0
 12 11  1  1
 12 13  1  0
 12 14  1  0
 14 20  1  0
 15 14  2  0
 17 16  1  6
 18 17  1  0
 19 17  1  0
 19 21  1  0
 19 20  1  6
 21 22  1  0
 23 21  2  0
M  END
$$$$
