EST.pdb
     RDKit          3D

 23 22  0  0  1  0  0  0  0  0999 V2000
    9.5130  -16.8402   19.7962 N   0  0  0  0  0  0  0  0  0  0  0  0
    9.8536  -17.4916   21.0602 C   0  0  1  0  0  0  0  0  0  0  0  0
   11.3442  -17.4676   21.1940 C   0  0  0  0  0  0  0  0  0  0  0  0
   11.9722  -18.4947   20.3187 C   0  0  0  0  0  0  0  0  0  0  0  0
   13.4454  -18.4750   20.3710 C   0  0  0  0  0  0  0  0  0  0  0  0
   14.1419  -17.5039   20.0729 O   0  0  0  0  0  0  0  0  0  0  0  0
    9.3170  -16.6865   22.2093 C   0  0  0  0  0  0  0  0  0  0  0  0
    9.4105  -15.4423   22.1906 O   0  0  0  0  0  0  0  0  0  0  0  0
   14.0790  -19.6601   20.7942 O   0  0  0  0  0  0  0  0  0  0  0  0
    7.4456  -18.6086   25.3431 O   0  0  0  0  0  0  0  0  0  0  0  0
    6.9737  -17.3543   24.9577 C   0  0  0  0  0  0  0  0  0  0  0  0
    8.1299  -16.5631   24.4229 C   0  0  2  0  0  0  0  0  0  0  0  0
    8.7042  -17.3248   23.3167 N   0  0  0  0  0  0  0  0  0  0  0  0
    9.1860  -16.4971   25.4811 C   0  0  0  0  0  0  0  0  0  0  0  0
   10.2274  -17.1820   25.4536 O   0  0  0  0  0  0  0  0  0  0  0  0
   10.8833  -14.1907   29.5753 C   0  0  0  0  0  0  0  0  0  0  0  0
    9.8231  -14.2755   28.5092 C   0  0  1  0  0  0  0  0  0  0  0  0
    9.8234  -13.1731   27.6691 O   0  0  0  0  0  0  0  0  0  0  0  0
    9.9804  -15.5440   27.6732 C   0  0  2  0  0  0  0  0  0  0  0  0
    9.0360  -15.6120   26.6082 N   0  0  0  0  0  0  0  0  0  0  0  0
   10.0307  -16.7460   28.5234 C   0  0  0  0  0  0  0  0  0  0  0  0
   11.1001  -17.1120   29.3278 O   0  0  0  0  0  0  0  0  0  0  0  0
    9.0421  -17.5239   28.5450 O   0  0  0  0  0  0  0  0  0  0  0  0
  2  1  1  6
  3  4  1  0
  3  2  1  0
  5  4  1  0
  6  5  2  0
  7 13  1  0
  7  2  1  0
  8  7  2  0
  9  5  1  0
 11 10  1  0
 12 11  1  1
 12 13  1  0
 12 14  1  0
 14 20  1  0
 15 14  2  0
 17 16  1  1
 18 17  1  0
 19 17  1  0
 19 21  1  0
 19 20  1  6
 21 22  1  0
 23 21  2  0
M  END
$$$$
