EST.pdb
     RDKit          3D

 23 22  0  0  1  0  0  0  0  0999 V2000
   13.7236  -20.9716   16.5115 N   0  0  0  0  0  0  0  0  0  0  0  0
   13.7284  -19.5102   16.4638 C   0  0  1  0  0  0  0  0  0  0  0  0
   13.2354  -19.1004   15.1113 C   0  0  0  0  0  0  0  0  0  0  0  0
   14.3734  -18.7938   14.2021 C   0  0  0  0  0  0  0  0  0  0  0  0
   13.9423  -18.4327   12.8393 C   0  0  0  0  0  0  0  0  0  0  0  0
   13.2205  -19.1316   12.1270 O   0  0  0  0  0  0  0  0  0  0  0  0
   12.7385  -18.9647   17.4533 C   0  0  0  0  0  0  0  0  0  0  0  0
   12.7003  -17.7380   17.6788 O   0  0  0  0  0  0  0  0  0  0  0  0
   14.3998  -17.1982   12.3378 O   0  0  0  0  0  0  0  0  0  0  0  0
   10.5354  -21.5135   19.8894 O   0  0  0  0  0  0  0  0  0  0  0  0
    9.8773  -20.4080   19.3515 C   0  0  0  0  0  0  0  0  0  0  0  0
   10.8905  -19.3270   19.1201 C   0  0  2  0  0  0  0  0  0  0  0  0
   11.8455  -19.8288   18.1353 N   0  0  0  0  0  0  0  0  0  0  0  0
   11.6606  -19.1231   20.3868 C   0  0  0  0  0  0  0  0  0  0  0  0
   12.8487  -19.4728   20.5304 O   0  0  0  0  0  0  0  0  0  0  0  0
   10.7153  -15.9145   22.8348 C   0  0  0  0  0  0  0  0  0  0  0  0
   12.0015  -16.6959   22.8884 C   0  0  1  0  0  0  0  0  0  0  0  0
   12.7079  -16.4788   24.0611 O   0  0  0  0  0  0  0  0  0  0  0  0
   11.7458  -18.1929   22.7261 C   0  0  2  0  0  0  0  0  0  0  0  0
   11.0400  -18.4953   21.5257 N   0  0  0  0  0  0  0  0  0  0  0  0
   11.1561  -18.7733   23.9449 C   0  0  0  0  0  0  0  0  0  0  0  0
   11.8634  -19.1287   25.0842 O   0  0  0  0  0  0  0  0  0  0  0  0
    9.9151  -18.9759   23.9894 O   0  0  0  0  0  0  0  0  0  0  0  0
  2  1  1  6
  3  4  1  0
  3  2  1  0
  5  4  1  0
  6  5  2  0
  7 13  1  0
  7  2  1  0
  8  7  2  0
  9  5  1  0
 11 10  1  0
 12 11  1  1
 12 13  1  0
 12 14  1  0
 14 20  1  0
 15 14  2  0
 17 16  1  1
 18 17  1  0
 19 17  1  0
 19 21  1  0
 19 20  1  6
 21 22  1  0
 23 21  2  0
M  END
$$$$
