EST.pdb
     RDKit          3D

 23 22  0  0  1  0  0  0  0  0999 V2000
   10.2576  -17.8129   20.1669 N   0  0  0  0  0  0  0  0  0  0  0  0
   10.3947  -18.4839   21.4587 C   0  0  1  0  0  0  0  0  0  0  0  0
   11.8573  -18.6054   21.7521 C   0  0  0  0  0  0  0  0  0  0  0  0
   12.6123  -17.4631   21.1686 C   0  0  0  0  0  0  0  0  0  0  0  0
   14.0633  -17.5426   21.4176 C   0  0  0  0  0  0  0  0  0  0  0  0
   14.8548  -18.1917   20.7327 O   0  0  0  0  0  0  0  0  0  0  0  0
    9.8200  -17.6201   22.5452 C   0  0  0  0  0  0  0  0  0  0  0  0
    9.8409  -16.3782   22.4249 O   0  0  0  0  0  0  0  0  0  0  0  0
   14.5561  -16.8179   22.5206 O   0  0  0  0  0  0  0  0  0  0  0  0
    8.1763  -19.3785   25.9021 O   0  0  0  0  0  0  0  0  0  0  0  0
    7.4805  -18.3320   25.2978 C   0  0  0  0  0  0  0  0  0  0  0  0
    8.4790  -17.4111   24.6624 C   0  0  2  0  0  0  0  0  0  0  0  0
    9.2531  -18.2003   23.7076 N   0  0  0  0  0  0  0  0  0  0  0  0
    9.4425  -16.9612   25.7152 C   0  0  0  0  0  0  0  0  0  0  0  0
   10.6113  -17.3865   25.8013 O   0  0  0  0  0  0  0  0  0  0  0  0
   10.3851  -13.5919   29.2887 C   0  0  0  0  0  0  0  0  0  0  0  0
    9.3782  -14.2025   28.3500 C   0  0  1  0  0  0  0  0  0  0  0  0
    8.9341  -13.3072   27.3897 O   0  0  0  0  0  0  0  0  0  0  0  0
    9.9470  -15.4397   27.6582 C   0  0  2  0  0  0  0  0  0  0  0  0
    9.0450  -15.9887   26.7013 N   0  0  0  0  0  0  0  0  0  0  0  0
   10.4673  -16.4113   28.6356 C   0  0  0  0  0  0  0  0  0  0  0  0
   11.7031  -16.3324   29.2612 O   0  0  0  0  0  0  0  0  0  0  0  0
    9.7603  -17.4033   28.9504 O   0  0  0  0  0  0  0  0  0  0  0  0
  2  1  1  6
  3  4  1  0
  3  2  1  0
  5  4  1  0
  6  5  2  0
  7 13  1  0
  7  2  1  0
  8  7  2  0
  9  5  1  0
 11 10  1  0
 12 11  1  1
 12 13  1  0
 12 14  1  0
 14 20  1  0
 15 14  2  0
 17 16  1  6
 18 17  1  0
 19 17  1  0
 19 21  1  0
 19 20  1  1
 21 22  1  0
 23 21  2  0
M  END
$$$$
