EST.pdb
     RDKit          3D

 23 22  0  0  1  0  0  0  0  0999 V2000
-867003.6250-1207899.1250704128.2500 N   0  0  0  0  0  0  0  0  0  0  0  0
-867004.0625-1207898.6250704129.3125 C   0  0  1  0  0  0  0  0  0  0  0  0
-867002.8125-1207897.3750704129.5000 C   0  0  0  0  0  0  0  0  0  0  0  0
-867002.8125-1207895.8750704130.5000 C   0  0  0  0  0  0  0  0  0  0  0  0
-867001.6250-1207895.5000704130.6875 C   0  0  0  0  0  0  0  0  0  0  0  0
-867001.5625-1207895.3750704131.4375 O   0  0  0  0  0  0  0  0  0  0  0  0
-867004.7500-1207896.6250704128.8125 C   0  0  0  0  0  0  0  0  0  0  0  0
-867004.5625-1207896.0000704129.7500 O   0  0  0  0  0  0  0  0  0  0  0  0
-867000.8125-1207895.8750704129.7500 O   0  0  0  0  0  0  0  0  0  0  0  0
-867006.1250-1207896.0000704129.5625 O   0  0  0  0  0  0  0  0  0  0  0  0
-867006.7500-1207895.2500704128.1250 C   0  0  0  0  0  0  0  0  0  0  0  0
-867006.1250-1207895.7500704126.8125 C   0  0  2  0  0  0  0  0  0  0  0  0
-867005.4375-1207896.6250704127.5000 N   0  0  0  0  0  0  0  0  0  0  0  0
-867005.1875-1207894.7500704126.1875 C   0  0  0  0  0  0  0  0  0  0  0  0
-867005.8750-1207893.5000704126.1250 O   0  0  0  0  0  0  0  0  0  0  0  0
-867003.5000-1207890.7500704124.5625 C   0  0  0  0  0  0  0  0  0  0  0  0
-867004.0625-1207892.3750704125.4375 C   0  0  1  0  0  0  0  0  0  0  0  0
-867005.1250-1207892.3750704125.6875 O   0  0  0  0  0  0  0  0  0  0  0  0
-867003.4375-1207894.3750704124.8750 C   0  0  2  0  0  0  0  0  0  0  0  0
-867004.4375-1207895.2500704125.3125 N   0  0  0  0  0  0  0  0  0  0  0  0
-867001.8125-1207894.5000704124.7500 C   0  0  0  0  0  0  0  0  0  0  0  0
-867001.0625-1207894.2500704126.4375 O   0  0  0  0  0  0  0  0  0  0  0  0
-867001.2500-1207894.0000704123.5000 O   0  0  0  0  0  0  0  0  0  0  0  0
  2  1  1  6
  3  4  1  0
  3  2  1  0
  5  4  1  0
  6  5  2  0
  7 13  1  0
  7  2  1  0
  8  7  2  0
  9  5  1  0
 11 10  1  0
 12 11  1  1
 12 13  1  0
 12 14  1  0
 14 20  1  0
 15 14  2  0
 17 16  1  6
 18 17  1  0
 19 17  1  0
 19 21  1  0
 19 20  1  1
 21 22  1  0
 23 21  2  0
M  END
$$$$
