EST.pdb
     RDKit          3D

 23 22  0  0  1  0  0  0  0  0999 V2000
   12.7014  -17.9301   21.4177 N   0  0  0  0  0  0  0  0  0  0  0  0
   12.5788  -16.4891   21.6331 C   0  0  1  0  0  0  0  0  0  0  0  0
   12.1800  -15.8696   20.3302 C   0  0  0  0  0  0  0  0  0  0  0  0
   12.9754  -14.6406   20.0615 C   0  0  0  0  0  0  0  0  0  0  0  0
   13.3818  -14.5130   18.6501 C   0  0  0  0  0  0  0  0  0  0  0  0
   13.3105  -15.4185   17.8183 O   0  0  0  0  0  0  0  0  0  0  0  0
   11.4552  -16.2107   22.5905 C   0  0  0  0  0  0  0  0  0  0  0  0
   11.2393  -15.0412   22.9686 O   0  0  0  0  0  0  0  0  0  0  0  0
   13.8833  -13.2596   18.2473 O   0  0  0  0  0  0  0  0  0  0  0  0
    7.7348  -18.0888   25.0449 O   0  0  0  0  0  0  0  0  0  0  0  0
    8.8378  -18.3233   24.2246 C   0  0  0  0  0  0  0  0  0  0  0  0
    9.5646  -17.0254   24.0350 C   0  0  2  0  0  0  0  0  0  0  0  0
   10.6356  -17.2629   23.0705 N   0  0  0  0  0  0  0  0  0  0  0  0
   10.2324  -16.6659   25.3249 C   0  0  0  0  0  0  0  0  0  0  0  0
   11.4062  -16.9830   25.6007 O   0  0  0  0  0  0  0  0  0  0  0  0
   10.0603  -13.8333   29.4254 C   0  0  0  0  0  0  0  0  0  0  0  0
    9.3103  -14.4039   28.2508 C   0  0  1  0  0  0  0  0  0  0  0  0
    8.9509  -13.4351   27.3270 O   0  0  0  0  0  0  0  0  0  0  0  0
   10.1248  -15.4890   27.5494 C   0  0  2  0  0  0  0  0  0  0  0  0
    9.5231  -15.9158   26.3302 N   0  0  0  0  0  0  0  0  0  0  0  0
   10.4746  -16.5814   28.4738 C   0  0  0  0  0  0  0  0  0  0  0  0
   11.5446  -16.5698   29.3568 O   0  0  0  0  0  0  0  0  0  0  0  0
    9.7675  -17.6220   28.4892 O   0  0  0  0  0  0  0  0  0  0  0  0
  2  1  1  6
  3  4  1  0
  3  2  1  0
  5  4  1  0
  6  5  2  0
  7 13  1  0
  7  2  1  0
  8  7  2  0
  9  5  1  0
 11 10  1  0
 12 11  1  1
 12 13  1  0
 12 14  1  0
 14 20  1  0
 15 14  2  0
 17 16  1  1
 18 17  1  0
 19 17  1  0
 19 21  1  0
 19 20  1  6
 21 22  1  0
 23 21  2  0
M  END
$$$$
