EST.pdb
     RDKit          3D

 23 22  0  0  1  0  0  0  0  0999 V2000
   10.8475  -16.7879   19.4983 N   0  0  0  0  0  0  0  0  0  0  0  0
    9.8849  -17.2963   20.4744 C   0  0  1  0  0  0  0  0  0  0  0  0
    9.9373  -18.7913   20.4247 C   0  0  0  0  0  0  0  0  0  0  0  0
    9.7716  -19.2820   19.0292 C   0  0  0  0  0  0  0  0  0  0  0  0
    9.7763  -20.7529   18.9301 C   0  0  0  0  0  0  0  0  0  0  0  0
    8.9770  -21.4941   19.5033 O   0  0  0  0  0  0  0  0  0  0  0  0
   10.3122  -16.9082   21.8613 C   0  0  0  0  0  0  0  0  0  0  0  0
   11.5134  -16.9982   22.1870 O   0  0  0  0  0  0  0  0  0  0  0  0
   10.7732  -21.3287   18.1179 O   0  0  0  0  0  0  0  0  0  0  0  0
    9.1094  -14.5890   25.8917 O   0  0  0  0  0  0  0  0  0  0  0  0
    8.7383  -15.0231   24.6195 C   0  0  0  0  0  0  0  0  0  0  0  0
    9.7609  -16.0122   24.1456 C   0  0  2  0  0  0  0  0  0  0  0  0
    9.3650  -16.4400   22.8062 N   0  0  0  0  0  0  0  0  0  0  0  0
    9.6811  -17.2270   25.0158 C   0  0  0  0  0  0  0  0  0  0  0  0
    8.7105  -18.0095   25.0129 O   0  0  0  0  0  0  0  0  0  0  0  0
   11.7303  -20.2310   25.0397 C   0  0  0  0  0  0  0  0  0  0  0  0
   11.8788  -19.6710   26.4297 C   0  0  1  0  0  0  0  0  0  0  0  0
   13.0942  -19.0324   26.6195 O   0  0  0  0  0  0  0  0  0  0  0  0
   10.7455  -18.7014   26.7588 C   0  0  2  0  0  0  0  0  0  0  0  0
   10.7561  -17.5500   25.9193 N   0  0  0  0  0  0  0  0  0  0  0  0
   10.6918  -18.4060   28.2010 C   0  0  0  0  0  0  0  0  0  0  0  0
   10.5014  -19.3464   29.2031 O   0  0  0  0  0  0  0  0  0  0  0  0
   10.8256  -17.2167   28.5890 O   0  0  0  0  0  0  0  0  0  0  0  0
  2  1  1  6
  3  4  1  0
  3  2  1  0
  5  4  1  0
  6  5  2  0
  7 13  1  0
  7  2  1  0
  8  7  2  0
  9  5  1  0
 11 10  1  0
 12 11  1  1
 12 13  1  0
 12 14  1  0
 14 20  1  0
 15 14  2  0
 17 16  1  6
 18 17  1  0
 19 17  1  0
 19 21  1  0
 19 20  1  6
 21 22  1  0
 23 21  2  0
M  END
$$$$
