EST.pdb
     RDKit          3D

 23 22  0  0  1  0  0  0  0  0999 V2000
   10.8329  -16.8598   17.5758 N   0  0  0  0  0  0  0  0  0  0  0  0
   10.9435  -17.7555   18.7261 C   0  0  1  0  0  0  0  0  0  0  0  0
   12.1669  -18.5951   18.5294 C   0  0  0  0  0  0  0  0  0  0  0  0
   12.7543  -18.3692   17.1806 C   0  0  0  0  0  0  0  0  0  0  0  0
   13.9518  -19.1912   16.9274 C   0  0  0  0  0  0  0  0  0  0  0  0
   15.1081  -18.7684   16.9574 O   0  0  0  0  0  0  0  0  0  0  0  0
   11.1815  -16.9547   19.9746 C   0  0  0  0  0  0  0  0  0  0  0  0
   12.1588  -16.1813   20.0372 O   0  0  0  0  0  0  0  0  0  0  0  0
   13.7340  -20.5516   16.6329 O   0  0  0  0  0  0  0  0  0  0  0  0
    8.2720  -16.9109   22.7770 O   0  0  0  0  0  0  0  0  0  0  0  0
    9.0856  -15.7826   22.6800 C   0  0  0  0  0  0  0  0  0  0  0  0
   10.4577  -16.2285   22.2710 C   0  0  2  0  0  0  0  0  0  0  0  0
   10.3072  -17.0674   21.0847 N   0  0  0  0  0  0  0  0  0  0  0  0
   11.0058  -17.1140   23.3455 C   0  0  0  0  0  0  0  0  0  0  0  0
   10.7593  -18.3339   23.4204 O   0  0  0  0  0  0  0  0  0  0  0  0
   14.6958  -17.2680   24.2371 C   0  0  0  0  0  0  0  0  0  0  0  0
   13.9610  -17.0864   25.5389 C   0  0  1  0  0  0  0  0  0  0  0  0
   14.1214  -15.8154   26.0681 O   0  0  0  0  0  0  0  0  0  0  0  0
   12.4706  -17.3786   25.3776 C   0  0  2  0  0  0  0  0  0  0  0  0
   11.8666  -16.5750   24.3676 N   0  0  0  0  0  0  0  0  0  0  0  0
   11.7740  -17.3550   26.6754 C   0  0  0  0  0  0  0  0  0  0  0  0
   12.0515  -18.1913   27.7470 O   0  0  0  0  0  0  0  0  0  0  0  0
   10.8489  -16.5225   26.8601 O   0  0  0  0  0  0  0  0  0  0  0  0
  2  1  1  6
  3  4  1  0
  3  2  1  0
  5  4  1  0
  6  5  2  0
  7 13  1  0
  7  2  1  0
  8  7  2  0
  9  5  1  0
 11 10  1  0
 12 11  1  1
 12 13  1  0
 12 14  1  0
 14 20  1  0
 15 14  2  0
 17 16  1  6
 18 17  1  0
 19 17  1  0
 19 21  1  0
 19 20  1  6
 21 22  1  0
 23 21  2  0
M  END
$$$$
