EST.pdb
     RDKit          3D

 23 22  0  0  1  0  0  0  0  0999 V2000
   10.4938  -17.7315   18.5461 N   0  0  0  0  0  0  0  0  0  0  0  0
   10.5369  -17.8579   20.0021 C   0  0  1  0  0  0  0  0  0  0  0  0
   11.9682  -17.7407   20.4239 C   0  0  0  0  0  0  0  0  0  0  0  0
   12.7024  -19.0100   20.1684 C   0  0  0  0  0  0  0  0  0  0  0  0
   14.0789  -18.9970   20.6962 C   0  0  0  0  0  0  0  0  0  0  0  0
   14.5319  -19.8263   21.4859 O   0  0  0  0  0  0  0  0  0  0  0  0
    9.8175  -16.7012   20.6356 C   0  0  0  0  0  0  0  0  0  0  0  0
   10.1468  -15.5332   20.3450 O   0  0  0  0  0  0  0  0  0  0  0  0
   14.9163  -17.9545   20.2524 O   0  0  0  0  0  0  0  0  0  0  0  0
    6.5022  -17.5007   22.7334 O   0  0  0  0  0  0  0  0  0  0  0  0
    6.5850  -16.2104   22.2111 C   0  0  0  0  0  0  0  0  0  0  0  0
    8.0309  -15.8149   22.1675 C   0  0  2  0  0  0  0  0  0  0  0  0
    8.7670  -16.9215   21.5614 N   0  0  0  0  0  0  0  0  0  0  0  0
    8.5304  -15.6976   23.5732 C   0  0  0  0  0  0  0  0  0  0  0  0
    9.4170  -16.4337   24.0492 O   0  0  0  0  0  0  0  0  0  0  0  0
    8.2948  -13.1538   27.8879 C   0  0  0  0  0  0  0  0  0  0  0  0
    7.7480  -13.3570   26.4995 C   0  0  1  0  0  0  0  0  0  0  0  0
    7.8803  -12.2291   25.7048 O   0  0  0  0  0  0  0  0  0  0  0  0
    8.4219  -14.5404   25.8080 C   0  0  2  0  0  0  0  0  0  0  0  0
    7.9895  -14.6983   24.4594 N   0  0  0  0  0  0  0  0  0  0  0  0
    8.3337  -15.7628   26.6254 C   0  0  0  0  0  0  0  0  0  0  0  0
    9.3289  -16.2335   27.4696 O   0  0  0  0  0  0  0  0  0  0  0  0
    7.2865  -16.4585   26.5776 O   0  0  0  0  0  0  0  0  0  0  0  0
  2  1  1  6
  3  4  1  0
  3  2  1  0
  5  4  1  0
  6  5  2  0
  7 13  1  0
  7  2  1  0
  8  7  2  0
  9  5  1  0
 11 10  1  0
 12 11  1  1
 12 13  1  0
 12 14  1  0
 14 20  1  0
 15 14  2  0
 17 16  1  1
 18 17  1  0
 19 17  1  0
 19 21  1  0
 19 20  1  6
 21 22  1  0
 23 21  2  0
M  END
$$$$
