EST.pdb
     RDKit          3D

 23 22  0  0  1  0  0  0  0  0999 V2000
    9.7531  -14.8867   18.9392 N   0  0  0  0  0  0  0  0  0  0  0  0
   10.4422  -15.4513   20.0986 C   0  0  1  0  0  0  0  0  0  0  0  0
   11.7285  -14.7050   20.2677 C   0  0  0  0  0  0  0  0  0  0  0  0
   12.7875  -15.2658   19.3847 C   0  0  0  0  0  0  0  0  0  0  0  0
   14.1202  -14.6916   19.6452 C   0  0  0  0  0  0  0  0  0  0  0  0
   14.3719  -13.8922   20.5476 O   0  0  0  0  0  0  0  0  0  0  0  0
    9.6415  -15.1931   21.3431 C   0  0  0  0  0  0  0  0  0  0  0  0
    8.9672  -14.1475   21.4396 O   0  0  0  0  0  0  0  0  0  0  0  0
   15.1627  -15.1001   18.7902 O   0  0  0  0  0  0  0  0  0  0  0  0
    8.8455  -18.2146   24.0106 O   0  0  0  0  0  0  0  0  0  0  0  0
    8.0090  -17.1118   23.8412 C   0  0  0  0  0  0  0  0  0  0  0  0
    8.8678  -15.9009   23.6289 C   0  0  2  0  0  0  0  0  0  0  0  0
    9.6429  -16.1249   22.4112 N   0  0  0  0  0  0  0  0  0  0  0  0
    9.8572  -15.8221   24.7487 C   0  0  0  0  0  0  0  0  0  0  0  0
   11.0368  -16.2136   24.6498 O   0  0  0  0  0  0  0  0  0  0  0  0
   10.3245  -12.7308   27.3684 C   0  0  0  0  0  0  0  0  0  0  0  0
   10.0579  -14.0399   28.0634 C   0  0  1  0  0  0  0  0  0  0  0  0
    8.7567  -14.1395   28.5304 O   0  0  0  0  0  0  0  0  0  0  0  0
   10.3536  -15.2236   27.1446 C   0  0  2  0  0  0  0  0  0  0  0  0
    9.4737  -15.2738   26.0249 N   0  0  0  0  0  0  0  0  0  0  0  0
   10.4502  -16.4827   27.9032 C   0  0  0  0  0  0  0  0  0  0  0  0
   11.3650  -16.7387   28.9143 O   0  0  0  0  0  0  0  0  0  0  0  0
    9.6550  -17.4210   27.6384 O   0  0  0  0  0  0  0  0  0  0  0  0
  2  1  1  6
  3  4  1  0
  3  2  1  0
  5  4  1  0
  6  5  2  0
  7 13  1  0
  7  2  1  0
  8  7  2  0
  9  5  1  0
 11 10  1  0
 12 11  1  1
 12 13  1  0
 12 14  1  0
 14 20  1  0
 15 14  2  0
 17 16  1  6
 18 17  1  0
 19 17  1  0
 19 21  1  0
 19 20  1  6
 21 22  1  0
 23 21  2  0
M  END
$$$$
