IHC.pdb
     RDKit          3D

 25 25  0  0  1  0  0  0  0  0999 V2000
   22.8899  -30.4588  -10.3889 C   0  0  0  0  0  0  0  0  0  0  0  0
   23.9802  -31.1562   -9.6074 C   0  0  0  0  0  0  0  0  0  0  0  0
   23.6044  -32.5819   -9.2842 C   0  0  2  0  0  0  0  0  0  0  0  0
   22.2807  -32.5741   -8.5534 C   0  0  0  0  0  0  0  0  0  0  0  0
   24.6696  -33.3253   -8.5367 C   0  0  2  0  0  0  0  0  0  0  0  0
   25.8954  -33.2782   -9.2939 N   0  0  0  0  0  0  0  0  0  0  0  0
   24.3034  -34.6774   -8.1170 C   0  0  0  0  0  0  0  0  0  0  0  0
   23.1834  -34.8781   -7.5881 O   0  0  0  0  0  0  0  0  0  0  0  0
   25.1567  -35.8038   -8.2744 N   0  0  0  0  0  0  0  0  0  0  0  0
   24.7901  -37.1482   -7.8780 C   0  0  1  0  0  0  0  0  0  0  0  0
   25.1707  -38.1112   -8.9926 C   0  0  0  0  0  0  0  0  0  0  0  0
   24.0404  -38.3145   -9.9234 C   0  0  0  0  0  0  0  0  0  0  0  0
   22.6805  -38.1127   -9.6666 C   0  0  0  0  0  0  0  0  0  0  0  0
   22.0294  -38.4251  -10.8016 N   0  0  0  0  0  0  0  0  0  0  0  0
   22.9019  -38.8081  -11.7463 C   0  0  0  0  0  0  0  0  0  0  0  0
   24.1226  -38.7319  -11.1852 N   0  0  0  0  0  0  0  0  0  0  0  0
   25.5870  -37.4745   -6.6517 C   0  0  0  0  0  0  0  0  0  0  0  0
   26.8373  -37.3746   -6.6223 O   0  0  0  0  0  0  0  0  0  0  0  0
   24.9354  -37.9144   -5.4662 N   0  0  0  0  0  0  0  0  0  0  0  0
   25.7195  -38.1229   -4.2519 C   0  0  1  0  0  0  0  0  0  0  0  0
   25.5706  -36.9487   -3.3206 C   0  0  0  0  0  0  0  0  0  0  0  0
   26.8916  -37.0423   -2.0765 S   0  0  0  0  0  0  0  0  0  0  0  0
   25.2133  -39.3424   -3.5268 C   0  0  0  0  0  0  0  0  0  0  0  0
   25.9619  -39.9377   -2.5415 O   0  0  0  0  0  0  0  0  0  0  0  0
   24.1043  -39.8095   -3.8293 O   0  0  0  0  0  0  0  0  0  0  0  0
  2  1  1  0
  3  2  1  0
  3  4  1  1
  5  3  1  0
  5  7  1  0
  5  6  1  6
  7  8  2  0
  9  7  1  0
  9 10  1  0
 10 11  1  6
 11 12  1  0
 12 13  2  0
 13 14  1  0
 15 14  1  0
 16 12  1  0
 16 15  2  0
 17 10  1  0
 17 18  2  0
 19 17  1  0
 20 23  1  0
 20 19  1  0
 20 21  1  1
 22 21  1  0
 23 24  1  0
 25 23  2  0
M  END
$$$$
