IHC.pdb
     RDKit          3D

 25 25  0  0  1  0  0  0  0  0999 V2000
   29.0576  -16.6654  -18.2146 C   0  0  0  0  0  0  0  0  0  0  0  0
   27.7665  -17.4279  -18.4091 C   0  0  0  0  0  0  0  0  0  0  0  0
   26.9478  -17.4629  -17.1415 C   0  0  2  0  0  0  0  0  0  0  0  0
   27.8386  -17.9204  -16.0087 C   0  0  0  0  0  0  0  0  0  0  0  0
   25.6998  -18.2842  -17.2594 C   0  0  2  0  0  0  0  0  0  0  0  0
   24.9036  -17.7761  -18.3485 N   0  0  0  0  0  0  0  0  0  0  0  0
   24.9431  -18.4435  -16.0182 C   0  0  0  0  0  0  0  0  0  0  0  0
   24.4618  -17.4314  -15.4539 O   0  0  0  0  0  0  0  0  0  0  0  0
   24.7140  -19.7018  -15.3972 N   0  0  0  0  0  0  0  0  0  0  0  0
   24.0367  -19.8563  -14.1259 C   0  0  1  0  0  0  0  0  0  0  0  0
   22.9294  -20.8882  -14.2803 C   0  0  0  0  0  0  0  0  0  0  0  0
   21.7277  -20.2851  -14.8948 C   0  0  0  0  0  0  0  0  0  0  0  0
   21.5183  -18.9386  -15.2093 C   0  0  0  0  0  0  0  0  0  0  0  0
   20.2877  -18.8613  -15.7473 N   0  0  0  0  0  0  0  0  0  0  0  0
   19.7213  -20.0771  -15.7858 C   0  0  0  0  0  0  0  0  0  0  0  0
   20.6205  -20.9287  -15.2597 N   0  0  0  0  0  0  0  0  0  0  0  0
   25.0522  -20.3660  -13.1491 C   0  0  0  0  0  0  0  0  0  0  0  0
   25.8601  -21.2800  -13.4425 O   0  0  0  0  0  0  0  0  0  0  0  0
   25.1289  -19.8174  -11.8390 N   0  0  0  0  0  0  0  0  0  0  0  0
   26.0581  -20.3960  -10.8723 C   0  0  1  0  0  0  0  0  0  0  0  0
   26.3565  -19.4104   -9.7733 C   0  0  0  0  0  0  0  0  0  0  0  0
   26.8680  -17.8449  -10.5408 S   0  0  0  0  0  0  0  0  0  0  0  0
   25.4333  -21.6092  -10.2345 C   0  0  0  0  0  0  0  0  0  0  0  0
   26.1621  -22.4215   -9.4010 O   0  0  0  0  0  0  0  0  0  0  0  0
   24.2436  -21.8717  -10.4701 O   0  0  0  0  0  0  0  0  0  0  0  0
  2  1  1  0
  3  2  1  0
  3  4  1  1
  5  3  1  0
  5  7  1  0
  5  6  1  6
  7  8  2  0
  9  7  1  0
  9 10  1  0
 10 11  1  6
 11 12  1  0
 12 13  2  0
 13 14  1  0
 15 14  1  0
 16 12  1  0
 16 15  2  0
 17 10  1  0
 17 18  2  0
 19 17  1  0
 20 23  1  0
 20 19  1  0
 20 21  1  1
 22 21  1  0
 23 24  1  0
 25 23  2  0
M  END
$$$$
