IHC.pdb
     RDKit          3D

 25 25  0  0  1  0  0  0  0  0999 V2000
   29.2013  -22.8575  -17.3722 C   0  0  0  0  0  0  0  0  0  0  0  0
   28.4765  -22.0992  -16.2834 C   0  0  0  0  0  0  0  0  0  0  0  0
   27.4716  -21.1306  -16.8581 C   0  0  2  0  0  0  0  0  0  0  0  0
   28.1704  -20.2695  -17.8859 C   0  0  0  0  0  0  0  0  0  0  0  0
   26.7603  -20.3205  -15.8171 C   0  0  2  0  0  0  0  0  0  0  0  0
   26.3748  -21.1856  -14.7303 N   0  0  0  0  0  0  0  0  0  0  0  0
   25.6593  -19.4982  -16.3170 C   0  0  0  0  0  0  0  0  0  0  0  0
   25.8977  -18.5790  -17.1372 O   0  0  0  0  0  0  0  0  0  0  0  0
   24.3053  -19.6793  -15.9225 N   0  0  0  0  0  0  0  0  0  0  0  0
   23.2053  -18.8996  -16.4525 C   0  0  1  0  0  0  0  0  0  0  0  0
   21.8965  -19.5863  -16.0918 C   0  0  0  0  0  0  0  0  0  0  0  0
   21.5715  -20.6486  -17.0670 C   0  0  0  0  0  0  0  0  0  0  0  0
   22.2678  -20.9716  -18.2361 C   0  0  0  0  0  0  0  0  0  0  0  0
   21.6069  -21.9987  -18.8002 N   0  0  0  0  0  0  0  0  0  0  0  0
   20.5437  -22.3323  -18.0527 C   0  0  0  0  0  0  0  0  0  0  0  0
   20.5443  -21.4935  -17.0006 N   0  0  0  0  0  0  0  0  0  0  0  0
   23.2586  -17.5592  -15.7848 C   0  0  0  0  0  0  0  0  0  0  0  0
   23.2835  -17.4362  -14.5364 O   0  0  0  0  0  0  0  0  0  0  0  0
   23.2827  -16.3684  -16.5625 N   0  0  0  0  0  0  0  0  0  0  0  0
   23.4316  -15.0783  -15.8946 C   0  0  1  0  0  0  0  0  0  0  0  0
   24.8872  -14.7722  -15.6586 C   0  0  0  0  0  0  0  0  0  0  0  0
   25.0083  -13.0950  -14.9702 S   0  0  0  0  0  0  0  0  0  0  0  0
   22.8766  -13.9876  -16.7728 C   0  0  0  0  0  0  0  0  0  0  0  0
   22.0856  -12.9949  -16.2489 O   0  0  0  0  0  0  0  0  0  0  0  0
   23.1421  -13.9927  -17.9849 O   0  0  0  0  0  0  0  0  0  0  0  0
  2  1  1  0
  3  2  1  0
  3  4  1  6
  5  3  1  0
  5  7  1  0
  5  6  1  1
  7  8  2  0
  9  7  1  0
  9 10  1  0
 10 11  1  1
 11 12  1  0
 12 13  2  0
 13 14  1  0
 15 14  1  0
 16 12  1  0
 16 15  2  0
 17 10  1  0
 17 18  2  0
 19 17  1  0
 20 23  1  0
 20 19  1  0
 20 21  1  6
 22 21  1  0
 23 24  1  0
 25 23  2  0
M  END
$$$$
