IHC.pdb
     RDKit          3D

 25 25  0  0  1  0  0  0  0  0999 V2000
   16.6255  -15.6936  -19.1600 C   0  0  0  0  0  0  0  0  0  0  0  0
   18.0962  -15.8584  -18.8503 C   0  0  0  0  0  0  0  0  0  0  0  0
   18.5607  -14.8578  -17.8200 C   0  0  2  0  0  0  0  0  0  0  0  0
   18.1817  -13.4727  -18.2931 C   0  0  0  0  0  0  0  0  0  0  0  0
   20.0178  -14.9740  -17.4894 C   0  0  2  0  0  0  0  0  0  0  0  0
   20.2914  -16.3143  -17.0347 N   0  0  0  0  0  0  0  0  0  0  0  0
   20.5329  -13.9437  -16.5885 C   0  0  0  0  0  0  0  0  0  0  0  0
   20.3240  -14.0409  -15.3551 O   0  0  0  0  0  0  0  0  0  0  0  0
   21.2721  -12.8135  -17.0333 N   0  0  0  0  0  0  0  0  0  0  0  0
   21.8721  -11.8456  -16.1377 C   0  0  1  0  0  0  0  0  0  0  0  0
   23.3178  -11.6197  -16.5541 C   0  0  0  0  0  0  0  0  0  0  0  0
   24.1701  -12.7540  -16.1391 C   0  0  0  0  0  0  0  0  0  0  0  0
   23.7904  -13.8747  -15.3936 C   0  0  0  0  0  0  0  0  0  0  0  0
   24.8930  -14.6339  -15.2610 N   0  0  0  0  0  0  0  0  0  0  0  0
   25.9330  -14.0528  -15.8784 C   0  0  0  0  0  0  0  0  0  0  0  0
   25.4657  -12.9068  -16.4064 N   0  0  0  0  0  0  0  0  0  0  0  0
   21.1072  -10.5674  -16.3002 C   0  0  0  0  0  0  0  0  0  0  0  0
   20.7728  -10.1286  -17.4271 O   0  0  0  0  0  0  0  0  0  0  0  0
   20.7329   -9.8030  -15.1605 N   0  0  0  0  0  0  0  0  0  0  0  0
   20.0033   -8.5514  -15.3442 C   0  0  1  0  0  0  0  0  0  0  0  0
   19.1678   -8.2454  -14.1291 C   0  0  0  0  0  0  0  0  0  0  0  0
   17.9946   -9.6122  -13.8903 S   0  0  0  0  0  0  0  0  0  0  0  0
   20.9800   -7.4180  -15.5188 C   0  0  0  0  0  0  0  0  0  0  0  0
   20.5431   -6.1509  -15.8176 O   0  0  0  0  0  0  0  0  0  0  0  0
   22.1939   -7.6399  -15.3892 O   0  0  0  0  0  0  0  0  0  0  0  0
  2  1  1  0
  3  2  1  0
  3  4  1  6
  5  3  1  0
  5  7  1  0
  5  6  1  1
  7  8  2  0
  9  7  1  0
  9 10  1  0
 10 11  1  6
 11 12  1  0
 12 13  2  0
 13 14  1  0
 15 14  1  0
 16 12  1  0
 16 15  2  0
 17 10  1  0
 17 18  2  0
 19 17  1  0
 20 23  1  0
 20 19  1  0
 20 21  1  1
 22 21  1  0
 23 24  1  0
 25 23  2  0
M  END
$$$$
