IHC.pdb
     RDKit          3D

 25 25  0  0  1  0  0  0  0  0999 V2000
   24.6006  -14.5709  -23.0958 C   0  0  0  0  0  0  0  0  0  0  0  0
   24.9013  -13.2436  -22.4372 C   0  0  0  0  0  0  0  0  0  0  0  0
   23.9039  -12.9266  -21.3494 C   0  0  2  0  0  0  0  0  0  0  0  0
   22.5125  -13.0193  -21.9340 C   0  0  0  0  0  0  0  0  0  0  0  0
   24.1566  -11.6141  -20.6717 C   0  0  2  0  0  0  0  0  0  0  0  0
   25.5513  -11.5290  -20.3168 N   0  0  0  0  0  0  0  0  0  0  0  0
   23.2593  -11.3085  -19.5583 C   0  0  0  0  0  0  0  0  0  0  0  0
   22.0318  -11.5426  -19.6720 O   0  0  0  0  0  0  0  0  0  0  0  0
   23.7010  -10.7501  -18.3276 N   0  0  0  0  0  0  0  0  0  0  0  0
   22.8182  -10.4635  -17.2152 C   0  0  1  0  0  0  0  0  0  0  0  0
   23.5162  -10.8512  -15.9202 C   0  0  0  0  0  0  0  0  0  0  0  0
   23.4737  -12.3146  -15.7154 C   0  0  0  0  0  0  0  0  0  0  0  0
   22.9049  -13.2750  -16.5580 C   0  0  0  0  0  0  0  0  0  0  0  0
   23.1049  -14.4662  -15.9656 N   0  0  0  0  0  0  0  0  0  0  0  0
   23.7627  -14.3034  -14.8075 C   0  0  0  0  0  0  0  0  0  0  0  0
   23.9761  -12.9811  -14.6778 N   0  0  0  0  0  0  0  0  0  0  0  0
   22.5753   -8.9849  -17.2202 C   0  0  0  0  0  0  0  0  0  0  0  0
   23.4867   -8.1599  -17.4711 O   0  0  0  0  0  0  0  0  0  0  0  0
   21.2814   -8.4673  -16.9354 N   0  0  0  0  0  0  0  0  0  0  0  0
   21.0470   -7.0290  -17.0311 C   0  0  1  0  0  0  0  0  0  0  0  0
   19.6895   -6.7547  -17.6228 C   0  0  0  0  0  0  0  0  0  0  0  0
   19.3800   -4.9670  -17.5238 S   0  0  0  0  0  0  0  0  0  0  0  0
   21.0713   -6.4203  -15.6534 C   0  0  0  0  0  0  0  0  0  0  0  0
   21.4759   -5.1219  -15.4637 O   0  0  0  0  0  0  0  0  0  0  0  0
   20.7196   -7.1075  -14.6819 O   0  0  0  0  0  0  0  0  0  0  0  0
  2  1  1  0
  3  2  1  0
  3  4  1  6
  5  3  1  0
  5  7  1  0
  5  6  1  1
  7  8  2  0
  9  7  1  0
  9 10  1  0
 10 11  1  1
 11 12  1  0
 12 13  2  0
 13 14  1  0
 15 14  1  0
 16 12  1  0
 16 15  2  0
 17 10  1  0
 17 18  2  0
 19 17  1  0
 20 23  1  0
 20 19  1  0
 20 21  1  1
 22 21  1  0
 23 24  1  0
 25 23  2  0
M  END
$$$$
