IHC.pdb
     RDKit          3D

 25 25  0  0  1  0  0  0  0  0999 V2000
   29.4169  -21.1564  -10.2502 C   0  0  0  0  0  0  0  0  0  0  0  0
   27.9454  -20.8495  -10.4132 C   0  0  0  0  0  0  0  0  0  0  0  0
   27.5224  -20.9186  -11.8606 C   0  0  2  0  0  0  0  0  0  0  0  0
   28.4759  -20.0772  -12.6786 C   0  0  0  0  0  0  0  0  0  0  0  0
   26.0887  -20.5427  -12.0821 C   0  0  2  0  0  0  0  0  0  0  0  0
   25.2546  -21.3397  -11.2177 N   0  0  0  0  0  0  0  0  0  0  0  0
   25.6525  -20.5582  -13.4778 C   0  0  0  0  0  0  0  0  0  0  0  0
   25.3878  -21.6533  -14.0302 O   0  0  0  0  0  0  0  0  0  0  0  0
   25.5068  -19.3834  -14.2654 N   0  0  0  0  0  0  0  0  0  0  0  0
   25.1371  -19.3986  -15.6661 C   0  0  1  0  0  0  0  0  0  0  0  0
   24.3144  -18.1559  -15.9716 C   0  0  0  0  0  0  0  0  0  0  0  0
   22.9169  -18.3236  -15.5197 C   0  0  0  0  0  0  0  0  0  0  0  0
   22.3533  -19.4412  -14.8957 C   0  0  0  0  0  0  0  0  0  0  0  0
   21.0617  -19.1395  -14.6712 N   0  0  0  0  0  0  0  0  0  0  0  0
   20.7898  -17.9037  -15.1175 C   0  0  0  0  0  0  0  0  0  0  0  0
   21.9386  -17.4270  -15.6309 N   0  0  0  0  0  0  0  0  0  0  0  0
   26.4105  -19.3525  -16.4544 C   0  0  0  0  0  0  0  0  0  0  0  0
   27.4071  -18.6921  -16.0739 O   0  0  0  0  0  0  0  0  0  0  0  0
   26.5258  -20.0692  -17.6777 N   0  0  0  0  0  0  0  0  0  0  0  0
   27.7329  -20.8473  -17.9422 C   0  0  1  0  0  0  0  0  0  0  0  0
   27.8906  -21.9397  -16.9175 C   0  0  0  0  0  0  0  0  0  0  0  0
   29.3151  -22.9618  -17.3948 S   0  0  0  0  0  0  0  0  0  0  0  0
   27.6238  -21.5060  -19.2924 C   0  0  0  0  0  0  0  0  0  0  0  0
   28.6741  -21.4792  -20.1766 O   0  0  0  0  0  0  0  0  0  0  0  0
   26.5676  -22.0786  -19.6028 O   0  0  0  0  0  0  0  0  0  0  0  0
  2  1  1  0
  3  2  1  0
  3  4  1  6
  5  3  1  0
  5  7  1  0
  5  6  1  1
  7  8  2  0
  9  7  1  0
  9 10  1  0
 10 11  1  6
 11 12  1  0
 12 13  2  0
 13 14  1  0
 15 14  1  0
 16 12  1  0
 16 15  2  0
 17 10  1  0
 17 18  2  0
 19 17  1  0
 20 23  1  0
 20 19  1  0
 20 21  1  1
 22 21  1  0
 23 24  1  0
 25 23  2  0
M  END
$$$$
