IHC.pdb
     RDKit          3D

 25 25  0  0  1  0  0  0  0  0999 V2000
   28.7299  -15.4951  -19.2942 C   0  0  0  0  0  0  0  0  0  0  0  0
   28.2660  -16.7485  -18.5873 C   0  0  0  0  0  0  0  0  0  0  0  0
   27.2703  -16.4332  -17.4976 C   0  0  2  0  0  0  0  0  0  0  0  0
   27.9521  -15.5682  -16.4617 C   0  0  0  0  0  0  0  0  0  0  0  0
   26.6331  -17.6512  -16.9005 C   0  0  2  0  0  0  0  0  0  0  0  0
   26.8498  -18.7737  -17.7787 N   0  0  0  0  0  0  0  0  0  0  0  0
   25.2340  -17.4892  -16.5074 C   0  0  0  0  0  0  0  0  0  0  0  0
   24.9300  -16.6293  -15.6457 O   0  0  0  0  0  0  0  0  0  0  0  0
   24.1731  -18.2628  -17.0530 N   0  0  0  0  0  0  0  0  0  0  0  0
   22.7752  -18.0315  -16.7506 C   0  0  1  0  0  0  0  0  0  0  0  0
   21.9909  -17.9856  -18.0534 C   0  0  0  0  0  0  0  0  0  0  0  0
   20.5414  -17.8570  -17.7927 C   0  0  0  0  0  0  0  0  0  0  0  0
   19.5693  -18.8586  -17.8814 C   0  0  0  0  0  0  0  0  0  0  0  0
   18.3985  -18.2810  -17.5570 N   0  0  0  0  0  0  0  0  0  0  0  0
   18.5848  -16.9830  -17.2726 C   0  0  0  0  0  0  0  0  0  0  0  0
   19.9012  -16.7491  -17.4239 N   0  0  0  0  0  0  0  0  0  0  0  0
   22.3063  -19.1972  -15.9342 C   0  0  0  0  0  0  0  0  0  0  0  0
   22.7277  -20.3624  -16.1313 O   0  0  0  0  0  0  0  0  0  0  0  0
   21.3534  -19.0106  -14.8947 N   0  0  0  0  0  0  0  0  0  0  0  0
   20.9462  -20.1531  -14.0813 C   0  0  1  0  0  0  0  0  0  0  0  0
   21.0404  -19.8170  -12.6162 C   0  0  0  0  0  0  0  0  0  0  0  0
   19.7176  -18.6358  -12.2206 S   0  0  0  0  0  0  0  0  0  0  0  0
   19.5093  -20.4962  -14.3752 C   0  0  0  0  0  0  0  0  0  0  0  0
   18.9841  -21.7093  -14.0034 O   0  0  0  0  0  0  0  0  0  0  0  0
   18.7967  -19.6665  -14.9614 O   0  0  0  0  0  0  0  0  0  0  0  0
  2  1  1  0
  3  2  1  0
  3  4  1  1
  5  3  1  0
  5  7  1  0
  5  6  1  6
  7  8  2  0
  9  7  1  0
  9 10  1  0
 10 11  1  6
 11 12  1  0
 12 13  2  0
 13 14  1  0
 15 14  1  0
 16 12  1  0
 16 15  2  0
 17 10  1  0
 17 18  2  0
 19 17  1  0
 20 23  1  0
 20 19  1  0
 20 21  1  1
 22 21  1  0
 23 24  1  0
 25 23  2  0
M  END
$$$$
