IHC.pdb
     RDKit          3D

 25 25  0  0  1  0  0  0  0  0999 V2000
   26.0877  -22.6701  -16.8615 C   0  0  0  0  0  0  0  0  0  0  0  0
   27.0111  -23.8104  -16.4972 C   0  0  0  0  0  0  0  0  0  0  0  0
   26.5037  -25.1268  -17.0340 C   0  0  2  0  0  0  0  0  0  0  0  0
   25.1147  -25.3638  -16.4857 C   0  0  0  0  0  0  0  0  0  0  0  0
   27.4295  -26.2756  -16.7708 C   0  0  2  0  0  0  0  0  0  0  0  0
   28.7331  -25.9595  -17.2991 N   0  0  0  0  0  0  0  0  0  0  0  0
   26.9344  -27.5821  -17.2024 C   0  0  0  0  0  0  0  0  0  0  0  0
   26.6847  -27.7778  -18.4164 O   0  0  0  0  0  0  0  0  0  0  0  0
   26.7133  -28.6684  -16.3122 N   0  0  0  0  0  0  0  0  0  0  0  0
   26.3099  -29.9905  -16.7461 C   0  0  1  0  0  0  0  0  0  0  0  0
   27.2094  -31.0223  -16.0823 C   0  0  0  0  0  0  0  0  0  0  0  0
   28.4263  -31.2579  -16.8879 C   0  0  0  0  0  0  0  0  0  0  0  0
   28.7370  -30.7137  -18.1382 C   0  0  0  0  0  0  0  0  0  0  0  0
   29.9395  -31.2104  -18.4803 N   0  0  0  0  0  0  0  0  0  0  0  0
   30.3935  -32.0291  -17.5190 C   0  0  0  0  0  0  0  0  0  0  0  0
   29.4516  -32.0411  -16.5581 N   0  0  0  0  0  0  0  0  0  0  0  0
   24.9005  -30.1923  -16.2789 C   0  0  0  0  0  0  0  0  0  0  0  0
   24.5642  -30.0255  -15.0817 O   0  0  0  0  0  0  0  0  0  0  0  0
   23.8876  -30.5857  -17.1968 N   0  0  0  0  0  0  0  0  0  0  0  0
   22.5225  -30.7833  -16.7172 C   0  0  1  0  0  0  0  0  0  0  0  0
   21.5808  -29.8256  -17.3986 C   0  0  0  0  0  0  0  0  0  0  0  0
   19.9145  -30.0961  -16.7265 S   0  0  0  0  0  0  0  0  0  0  0  0
   22.0669  -32.1798  -17.0508 C   0  0  0  0  0  0  0  0  0  0  0  0
   22.6901  -32.9085  -18.0338 O   0  0  0  0  0  0  0  0  0  0  0  0
   21.1151  -32.6717  -16.4248 O   0  0  0  0  0  0  0  0  0  0  0  0
  2  1  1  0
  3  2  1  0
  3  4  1  1
  5  3  1  0
  5  7  1  0
  5  6  1  6
  7  8  2  0
  9  7  1  0
  9 10  1  0
 10 11  1  1
 11 12  1  0
 12 13  2  0
 13 14  1  0
 15 14  1  0
 16 12  1  0
 16 15  2  0
 17 10  1  0
 17 18  2  0
 19 17  1  0
 20 23  1  0
 20 19  1  0
 20 21  1  6
 22 21  1  0
 23 24  1  0
 25 23  2  0
M  END
$$$$
