IHC.pdb
     RDKit          3D

 25 25  0  0  1  0  0  0  0  0999 V2000
   14.4767  -12.9018  -17.4785 C   0  0  0  0  0  0  0  0  0  0  0  0
   15.9546  -12.8491  -17.1642 C   0  0  0  0  0  0  0  0  0  0  0  0
   16.2735  -11.7455  -16.1851 C   0  0  2  0  0  0  0  0  0  0  0  0
   15.7160  -10.4487  -16.7272 C   0  0  0  0  0  0  0  0  0  0  0  0
   17.7306  -11.6488  -15.8483 C   0  0  2  0  0  0  0  0  0  0  0  0
   18.1796  -12.9183  -15.3334 N   0  0  0  0  0  0  0  0  0  0  0  0
   18.0957  -10.5193  -14.9943 C   0  0  0  0  0  0  0  0  0  0  0  0
   17.6906  -10.4861  -13.8072 O   0  0  0  0  0  0  0  0  0  0  0  0
   18.8989   -9.4321  -15.4353 N   0  0  0  0  0  0  0  0  0  0  0  0
   19.1558   -8.2505  -14.6374 C   0  0  1  0  0  0  0  0  0  0  0  0
   20.6040   -8.2761  -14.1719 C   0  0  0  0  0  0  0  0  0  0  0  0
   21.4904   -8.7991  -15.2331 C   0  0  0  0  0  0  0  0  0  0  0  0
   21.1184   -9.2693  -16.4967 C   0  0  0  0  0  0  0  0  0  0  0  0
   22.2550   -9.6405  -17.1133 N   0  0  0  0  0  0  0  0  0  0  0  0
   23.3087   -9.4294  -16.3099 C   0  0  0  0  0  0  0  0  0  0  0  0
   22.8154   -8.9153  -15.1684 N   0  0  0  0  0  0  0  0  0  0  0  0
   18.9467   -7.0661  -15.5311 C   0  0  0  0  0  0  0  0  0  0  0  0
   19.0904   -7.1356  -16.7756 O   0  0  0  0  0  0  0  0  0  0  0  0
   18.5728   -5.8080  -14.9827 N   0  0  0  0  0  0  0  0  0  0  0  0
   18.4033   -4.6605  -15.8699 C   0  0  1  0  0  0  0  0  0  0  0  0
   17.1295   -3.9262  -15.5440 C   0  0  0  0  0  0  0  0  0  0  0  0
   15.7340   -5.0458  -15.8613 S   0  0  0  0  0  0  0  0  0  0  0  0
   19.5441   -3.6967  -15.6729 C   0  0  0  0  0  0  0  0  0  0  0  0
   19.6657   -2.5782  -16.4602 O   0  0  0  0  0  0  0  0  0  0  0  0
   20.3812   -3.9231  -14.7853 O   0  0  0  0  0  0  0  0  0  0  0  0
  2  1  1  0
  3  2  1  0
  3  4  1  6
  5  3  1  0
  5  7  1  0
  5  6  1  1
  7  8  2  0
  9  7  1  0
  9 10  1  0
 10 11  1  6
 11 12  1  0
 12 13  2  0
 13 14  1  0
 15 14  1  0
 16 12  1  0
 16 15  2  0
 17 10  1  0
 17 18  2  0
 19 17  1  0
 20 23  1  0
 20 19  1  0
 20 21  1  1
 22 21  1  0
 23 24  1  0
 25 23  2  0
M  END
$$$$
