IHC.pdb
     RDKit          3D

 25 25  0  0  1  0  0  0  0  0999 V2000
   27.7943  -16.8285  -17.8998 C   0  0  0  0  0  0  0  0  0  0  0  0
   27.3735  -18.1804  -17.3695 C   0  0  0  0  0  0  0  0  0  0  0  0
   26.7684  -18.0706  -15.9910 C   0  0  2  0  0  0  0  0  0  0  0  0
   27.7276  -17.3064  -15.1067 C   0  0  0  0  0  0  0  0  0  0  0  0
   26.3746  -19.3925  -15.4049 C   0  0  2  0  0  0  0  0  0  0  0  0
   25.5472  -20.0987  -16.3509 N   0  0  0  0  0  0  0  0  0  0  0  0
   25.7912  -19.3274  -14.0656 C   0  0  0  0  0  0  0  0  0  0  0  0
   25.2207  -18.2746  -13.6907 O   0  0  0  0  0  0  0  0  0  0  0  0
   25.8312  -20.4069  -13.1411 N   0  0  0  0  0  0  0  0  0  0  0  0
   25.0766  -20.4313  -11.9046 C   0  0  1  0  0  0  0  0  0  0  0  0
   24.1192  -21.6131  -11.9354 C   0  0  0  0  0  0  0  0  0  0  0  0
   22.9690  -21.3378  -12.8224 C   0  0  0  0  0  0  0  0  0  0  0  0
   21.8705  -20.5132  -12.5592 C   0  0  0  0  0  0  0  0  0  0  0  0
   21.0835  -20.5700  -13.6487 N   0  0  0  0  0  0  0  0  0  0  0  0
   21.6264  -21.3791  -14.5712 C   0  0  0  0  0  0  0  0  0  0  0  0
   22.7767  -21.8351  -14.0426 N   0  0  0  0  0  0  0  0  0  0  0  0
   26.0638  -20.6260  -10.7943 C   0  0  0  0  0  0  0  0  0  0  0  0
   26.9647  -21.4976  -10.8477 O   0  0  0  0  0  0  0  0  0  0  0  0
   26.0051  -19.8130   -9.6286 N   0  0  0  0  0  0  0  0  0  0  0  0
   26.6512  -20.2707   -8.4015 C   0  0  1  0  0  0  0  0  0  0  0  0
   27.1556  -19.0978   -7.6026 C   0  0  0  0  0  0  0  0  0  0  0  0
   27.8471  -19.7293   -6.0455 S   0  0  0  0  0  0  0  0  0  0  0  0
   25.6506  -21.0034   -7.5466 C   0  0  0  0  0  0  0  0  0  0  0  0
   26.0605  -21.9263   -6.6160 O   0  0  0  0  0  0  0  0  0  0  0  0
   24.4415  -20.7647   -7.6908 O   0  0  0  0  0  0  0  0  0  0  0  0
  2  1  1  0
  3  2  1  0
  3  4  1  1
  5  3  1  0
  5  7  1  0
  5  6  1  6
  7  8  2  0
  9  7  1  0
  9 10  1  0
 10 11  1  6
 11 12  1  0
 12 13  2  0
 13 14  1  0
 15 14  1  0
 16 12  1  0
 16 15  2  0
 17 10  1  0
 17 18  2  0
 19 17  1  0
 20 23  1  0
 20 19  1  0
 20 21  1  1
 22 21  1  0
 23 24  1  0
 25 23  2  0
M  END
$$$$
