IHC.pdb
     RDKit          3D

 25 25  0  0  1  0  0  0  0  0999 V2000
   27.7527  -14.0065  -15.4948 C   0  0  0  0  0  0  0  0  0  0  0  0
   26.2950  -14.2129  -15.1506 C   0  0  0  0  0  0  0  0  0  0  0  0
   25.4583  -13.0208  -15.5471 C   0  0  2  0  0  0  0  0  0  0  0  0
   25.9935  -11.8010  -14.8315 C   0  0  0  0  0  0  0  0  0  0  0  0
   23.9900  -13.2208  -15.3230 C   0  0  2  0  0  0  0  0  0  0  0  0
   23.5993  -14.4939  -15.8751 N   0  0  0  0  0  0  0  0  0  0  0  0
   23.1395  -12.1162  -15.7643 C   0  0  0  0  0  0  0  0  0  0  0  0
   22.8531  -12.0049  -16.9808 O   0  0  0  0  0  0  0  0  0  0  0  0
   22.6053  -11.1385  -14.8809 N   0  0  0  0  0  0  0  0  0  0  0  0
   21.6444  -10.1326  -15.2858 C   0  0  1  0  0  0  0  0  0  0  0  0
   20.3285  -10.3917  -14.5677 C   0  0  0  0  0  0  0  0  0  0  0  0
   19.5959  -11.5116  -15.1958 C   0  0  0  0  0  0  0  0  0  0  0  0
   18.8277  -11.4764  -16.3640 C   0  0  0  0  0  0  0  0  0  0  0  0
   18.3558  -12.7229  -16.5458 N   0  0  0  0  0  0  0  0  0  0  0  0
   18.7841  -13.5289  -15.5623 C   0  0  0  0  0  0  0  0  0  0  0  0
   19.5392  -12.7655  -14.7512 N   0  0  0  0  0  0  0  0  0  0  0  0
   22.1904   -8.8069  -14.8504 C   0  0  0  0  0  0  0  0  0  0  0  0
   22.7456   -8.6472  -13.7367 O   0  0  0  0  0  0  0  0  0  0  0  0
   22.0921   -7.6730  -15.7037 N   0  0  0  0  0  0  0  0  0  0  0  0
   22.6156   -6.3871  -15.2511 C   0  0  1  0  0  0  0  0  0  0  0  0
   22.9186   -5.4978  -16.4281 C   0  0  0  0  0  0  0  0  0  0  0  0
   23.5172   -3.9038  -15.7937 S   0  0  0  0  0  0  0  0  0  0  0  0
   21.5798   -5.6875  -14.4104 C   0  0  0  0  0  0  0  0  0  0  0  0
   21.9455   -4.9466  -13.3135 O   0  0  0  0  0  0  0  0  0  0  0  0
   20.3822   -5.7865  -14.7193 O   0  0  0  0  0  0  0  0  0  0  0  0
  2  1  1  0
  3  2  1  0
  3  4  1  1
  5  3  1  0
  5  7  1  0
  5  6  1  6
  7  8  2  0
  9  7  1  0
  9 10  1  0
 10 11  1  1
 11 12  1  0
 12 13  2  0
 13 14  1  0
 15 14  1  0
 16 12  1  0
 16 15  2  0
 17 10  1  0
 17 18  2  0
 19 17  1  0
 20 23  1  0
 20 19  1  0
 20 21  1  6
 22 21  1  0
 23 24  1  0
 25 23  2  0
M  END
$$$$
