IHC.pdb
     RDKit          3D

 25 25  0  0  1  0  0  0  0  0999 V2000
   24.6593  -15.8593  -18.8588 C   0  0  0  0  0  0  0  0  0  0  0  0
   24.8848  -14.6719  -17.9505 C   0  0  0  0  0  0  0  0  0  0  0  0
   23.7692  -13.6623  -18.0717 C   0  0  2  0  0  0  0  0  0  0  0  0
   23.6275  -13.2779  -19.5272 C   0  0  0  0  0  0  0  0  0  0  0  0
   23.9409  -12.4725  -17.1768 C   0  0  2  0  0  0  0  0  0  0  0  0
   24.2258  -12.9276  -15.8388 N   0  0  0  0  0  0  0  0  0  0  0  0
   22.8567  -11.4929  -17.2333 C   0  0  0  0  0  0  0  0  0  0  0  0
   22.5220  -11.0050  -18.3398 O   0  0  0  0  0  0  0  0  0  0  0  0
   22.1426  -11.0487  -16.0868 N   0  0  0  0  0  0  0  0  0  0  0  0
   20.9970  -10.1641  -16.1495 C   0  0  1  0  0  0  0  0  0  0  0  0
   19.9689  -10.6166  -15.1234 C   0  0  0  0  0  0  0  0  0  0  0  0
   19.1738  -11.7517  -15.6378 C   0  0  0  0  0  0  0  0  0  0  0  0
   18.1651  -11.7139  -16.6058 C   0  0  0  0  0  0  0  0  0  0  0  0
   17.7292  -12.9784  -16.7495 N   0  0  0  0  0  0  0  0  0  0  0  0
   18.4055  -13.7979  -15.9302 C   0  0  0  0  0  0  0  0  0  0  0  0
   19.2814  -13.0248  -15.2625 N   0  0  0  0  0  0  0  0  0  0  0  0
   21.4832   -8.7936  -15.7883 C   0  0  0  0  0  0  0  0  0  0  0  0
   22.1297   -8.5708  -14.7364 O   0  0  0  0  0  0  0  0  0  0  0  0
   21.2202   -7.6882  -16.6440 N   0  0  0  0  0  0  0  0  0  0  0  0
   21.8316   -6.3943  -16.3529 C   0  0  1  0  0  0  0  0  0  0  0  0
   22.2224   -5.6972  -17.6294 C   0  0  0  0  0  0  0  0  0  0  0  0
   23.4062   -6.7556  -18.5126 S   0  0  0  0  0  0  0  0  0  0  0  0
   20.8369   -5.5137  -15.6429 C   0  0  0  0  0  0  0  0  0  0  0  0
   21.2139   -4.2981  -15.1272 O   0  0  0  0  0  0  0  0  0  0  0  0
   19.6630   -5.8984  -15.5263 O   0  0  0  0  0  0  0  0  0  0  0  0
  2  1  1  0
  3  2  1  0
  3  4  1  6
  5  3  1  0
  5  7  1  0
  5  6  1  1
  7  8  2  0
  9  7  1  0
  9 10  1  0
 10 11  1  1
 11 12  1  0
 12 13  2  0
 13 14  1  0
 15 14  1  0
 16 12  1  0
 16 15  2  0
 17 10  1  0
 17 18  2  0
 19 17  1  0
 20 23  1  0
 20 19  1  0
 20 21  1  6
 22 21  1  0
 23 24  1  0
 25 23  2  0
M  END
$$$$
