IHC.pdb
     RDKit          3D

 25 25  0  0  1  0  0  0  0  0999 V2000
   25.4398  -13.7567  -15.7216 C   0  0  0  0  0  0  0  0  0  0  0  0
   26.3706  -14.8151  -16.2685 C   0  0  0  0  0  0  0  0  0  0  0  0
   25.9716  -16.1957  -15.8065 C   0  0  2  0  0  0  0  0  0  0  0  0
   25.9785  -16.2151  -14.2947 C   0  0  0  0  0  0  0  0  0  0  0  0
   26.8081  -17.2886  -16.3995 C   0  0  2  0  0  0  0  0  0  0  0  0
   26.8048  -17.1571  -17.8351 N   0  0  0  0  0  0  0  0  0  0  0  0
   26.4778  -18.6384  -15.9440 C   0  0  0  0  0  0  0  0  0  0  0  0
   25.3138  -19.0777  -16.1067 O   0  0  0  0  0  0  0  0  0  0  0  0
   27.4143  -19.5029  -15.3140 N   0  0  0  0  0  0  0  0  0  0  0  0
   27.0840  -20.8301  -14.8361 C   0  0  1  0  0  0  0  0  0  0  0  0
   28.0568  -21.8288  -15.4450 C   0  0  0  0  0  0  0  0  0  0  0  0
   28.0477  -21.7422  -16.9207 C   0  0  0  0  0  0  0  0  0  0  0  0
   29.0444  -21.2140  -17.7476 C   0  0  0  0  0  0  0  0  0  0  0  0
   28.6002  -21.3477  -19.0104 N   0  0  0  0  0  0  0  0  0  0  0  0
   27.3896  -21.9263  -19.0174 C   0  0  0  0  0  0  0  0  0  0  0  0
   27.0747  -22.1571  -17.7296 N   0  0  0  0  0  0  0  0  0  0  0  0
   27.2604  -20.8151  -13.3482 C   0  0  0  0  0  0  0  0  0  0  0  0
   28.3166  -21.2095  -12.7976 O   0  0  0  0  0  0  0  0  0  0  0  0
   26.2163  -20.3446  -12.5046 N   0  0  0  0  0  0  0  0  0  0  0  0
   26.1664  -20.7828  -11.1124 C   0  0  1  0  0  0  0  0  0  0  0  0
   26.7103  -19.7123  -10.2034 C   0  0  0  0  0  0  0  0  0  0  0  0
   26.3425  -20.1860   -8.4881 S   0  0  0  0  0  0  0  0  0  0  0  0
   24.7359  -21.0323  -10.7121 C   0  0  0  0  0  0  0  0  0  0  0  0
   24.4317  -21.5891   -9.4943 O   0  0  0  0  0  0  0  0  0  0  0  0
   23.8255  -20.7281  -11.4985 O   0  0  0  0  0  0  0  0  0  0  0  0
  2  1  1  0
  3  2  1  0
  3  4  1  1
  5  3  1  0
  5  7  1  0
  5  6  1  6
  7  8  2  0
  9  7  1  0
  9 10  1  0
 10 11  1  6
 11 12  1  0
 12 13  2  0
 13 14  1  0
 15 14  1  0
 16 12  1  0
 16 15  2  0
 17 10  1  0
 17 18  2  0
 19 17  1  0
 20 23  1  0
 20 19  1  0
 20 21  1  1
 22 21  1  0
 23 24  1  0
 25 23  2  0
M  END
$$$$
