IHC.pdb
     RDKit          3D

 25 25  0  0  1  0  0  0  0  0999 V2000
   27.6319  -15.1239  -15.8204 C   0  0  0  0  0  0  0  0  0  0  0  0
   26.2363  -15.4797  -15.3602 C   0  0  0  0  0  0  0  0  0  0  0  0
   25.2270  -14.4493  -15.8052 C   0  0  2  0  0  0  0  0  0  0  0  0
   25.6181  -13.1117  -15.2187 C   0  0  0  0  0  0  0  0  0  0  0  0
   23.8112  -14.8245  -15.4878 C   0  0  2  0  0  0  0  0  0  0  0  0
   23.5945  -16.2002  -15.8604 N   0  0  0  0  0  0  0  0  0  0  0  0
   22.7954  -13.9169  -16.0195 C   0  0  0  0  0  0  0  0  0  0  0  0
   22.6032  -13.8624  -17.2582 O   0  0  0  0  0  0  0  0  0  0  0  0
   21.9944  -13.0734  -15.2018 N   0  0  0  0  0  0  0  0  0  0  0  0
   21.0147  -12.1443  -15.7270 C   0  0  1  0  0  0  0  0  0  0  0  0
   19.6526  -12.4804  -15.1386 C   0  0  0  0  0  0  0  0  0  0  0  0
   19.0478  -13.6362  -15.8340 C   0  0  0  0  0  0  0  0  0  0  0  0
   19.5971  -14.3798  -16.8835 C   0  0  0  0  0  0  0  0  0  0  0  0
   18.6926  -15.3266  -17.1921 N   0  0  0  0  0  0  0  0  0  0  0  0
   17.6163  -15.2159  -16.3985 C   0  0  0  0  0  0  0  0  0  0  0  0
   17.8579  -14.1767  -15.5784 N   0  0  0  0  0  0  0  0  0  0  0  0
   21.4232  -10.7760  -15.2730 C   0  0  0  0  0  0  0  0  0  0  0  0
   21.8940  -10.5654  -14.1293 O   0  0  0  0  0  0  0  0  0  0  0  0
   21.2858   -9.6586  -16.1424 N   0  0  0  0  0  0  0  0  0  0  0  0
   21.7545   -8.3467  -15.7042 C   0  0  1  0  0  0  0  0  0  0  0  0
   22.0547   -7.4708  -16.8919 C   0  0  0  0  0  0  0  0  0  0  0  0
   22.5187   -5.8247  -16.2781 S   0  0  0  0  0  0  0  0  0  0  0  0
   20.6761   -7.6669  -14.9019 C   0  0  0  0  0  0  0  0  0  0  0  0
   20.9874   -6.9237  -13.7899 O   0  0  0  0  0  0  0  0  0  0  0  0
   19.4928   -7.7845  -15.2565 O   0  0  0  0  0  0  0  0  0  0  0  0
  2  1  1  0
  3  2  1  0
  3  4  1  1
  5  3  1  0
  5  7  1  0
  5  6  1  6
  7  8  2  0
  9  7  1  0
  9 10  1  0
 10 11  1  1
 11 12  1  0
 12 13  2  0
 13 14  1  0
 15 14  1  0
 16 12  1  0
 16 15  2  0
 17 10  1  0
 17 18  2  0
 19 17  1  0
 20 23  1  0
 20 19  1  0
 20 21  1  6
 22 21  1  0
 23 24  1  0
 25 23  2  0
M  END
$$$$
