IHC.pdb
     RDKit          3D

 25 25  0  0  1  0  0  0  0  0999 V2000
   25.3988  -14.0436  -15.6412 C   0  0  0  0  0  0  0  0  0  0  0  0
   23.9184  -13.7543  -15.7438 C   0  0  0  0  0  0  0  0  0  0  0  0
   23.6613  -12.3436  -16.2153 C   0  0  2  0  0  0  0  0  0  0  0  0
   24.3216  -11.3876  -15.2475 C   0  0  0  0  0  0  0  0  0  0  0  0
   22.2088  -12.0391  -16.4235 C   0  0  2  0  0  0  0  0  0  0  0  0
   21.6289  -13.0617  -17.2580 N   0  0  0  0  0  0  0  0  0  0  0  0
   21.9204  -10.6833  -16.8895 C   0  0  0  0  0  0  0  0  0  0  0  0
   22.5309  -10.2302  -17.8877 O   0  0  0  0  0  0  0  0  0  0  0  0
   20.9702   -9.8276  -16.2678 N   0  0  0  0  0  0  0  0  0  0  0  0
   20.5979   -8.5292  -16.7918 C   0  0  1  0  0  0  0  0  0  0  0  0
   19.1716   -8.6005  -17.3161 C   0  0  0  0  0  0  0  0  0  0  0  0
   19.1228   -9.2938  -18.6209 C   0  0  0  0  0  0  0  0  0  0  0  0
   19.4493   -8.7689  -19.8754 C   0  0  0  0  0  0  0  0  0  0  0  0
   19.2527   -9.7593  -20.7642 N   0  0  0  0  0  0  0  0  0  0  0  0
   18.8245  -10.8661  -20.1380 C   0  0  0  0  0  0  0  0  0  0  0  0
   18.7535  -10.5559  -18.8306 N   0  0  0  0  0  0  0  0  0  0  0  0
   20.6542   -7.5639  -15.6471 C   0  0  0  0  0  0  0  0  0  0  0  0
   20.3447   -7.8968  -14.4777 O   0  0  0  0  0  0  0  0  0  0  0  0
   21.0676   -6.2194  -15.8594 N   0  0  0  0  0  0  0  0  0  0  0  0
   21.1355   -5.3022  -14.7250 C   0  0  1  0  0  0  0  0  0  0  0  0
   22.5465   -4.8152  -14.5251 C   0  0  0  0  0  0  0  0  0  0  0  0
   22.5501   -3.6476  -13.1328 S   0  0  0  0  0  0  0  0  0  0  0  0
   20.2752   -4.0963  -14.9981 C   0  0  0  0  0  0  0  0  0  0  0  0
   19.6755   -3.4111  -13.9702 O   0  0  0  0  0  0  0  0  0  0  0  0
   20.1107   -3.7230  -16.1699 O   0  0  0  0  0  0  0  0  0  0  0  0
  2  1  1  0
  3  2  1  0
  3  4  1  1
  5  3  1  0
  5  7  1  0
  5  6  1  6
  7  8  2  0
  9  7  1  0
  9 10  1  0
 10 11  1  1
 11 12  1  0
 12 13  2  0
 13 14  1  0
 15 14  1  0
 16 12  1  0
 16 15  2  0
 17 10  1  0
 17 18  2  0
 19 17  1  0
 20 23  1  0
 20 19  1  0
 20 21  1  6
 22 21  1  0
 23 24  1  0
 25 23  2  0
M  END
$$$$
