IHC.pdb
     RDKit          3D

 25 25  0  0  1  0  0  0  0  0999 V2000
   21.5955  -38.7585  -13.6533 C   0  0  0  0  0  0  0  0  0  0  0  0
   21.4809  -37.2865  -13.3279 C   0  0  0  0  0  0  0  0  0  0  0  0
   22.5323  -36.8556  -12.3342 C   0  0  2  0  0  0  0  0  0  0  0  0
   22.4822  -37.7919  -11.1481 C   0  0  0  0  0  0  0  0  0  0  0  0
   22.4218  -35.4153  -11.9351 C   0  0  2  0  0  0  0  0  0  0  0  0
   22.5582  -34.5901  -13.1093 N   0  0  0  0  0  0  0  0  0  0  0  0
   23.2995  -35.0069  -10.8391 C   0  0  0  0  0  0  0  0  0  0  0  0
   24.5079  -34.7634  -11.0732 O   0  0  0  0  0  0  0  0  0  0  0  0
   22.8589  -34.8656   -9.4946 N   0  0  0  0  0  0  0  0  0  0  0  0
   23.7358  -34.5111   -8.3972 C   0  0  1  0  0  0  0  0  0  0  0  0
   23.1175  -33.3540   -7.6270 C   0  0  0  0  0  0  0  0  0  0  0  0
   23.1433  -32.1124   -8.4290 C   0  0  0  0  0  0  0  0  0  0  0  0
   23.6241  -31.9519   -9.7325 C   0  0  0  0  0  0  0  0  0  0  0  0
   23.4441  -30.6563  -10.0468 N   0  0  0  0  0  0  0  0  0  0  0  0
   22.8813  -30.0036   -9.0184 C   0  0  0  0  0  0  0  0  0  0  0  0
   22.7078  -30.9146   -8.0433 N   0  0  0  0  0  0  0  0  0  0  0  0
   23.8208  -35.7094   -7.5015 C   0  0  0  0  0  0  0  0  0  0  0  0
   23.7860  -36.8809   -7.9494 O   0  0  0  0  0  0  0  0  0  0  0  0
   23.9454  -35.5480   -6.0938 N   0  0  0  0  0  0  0  0  0  0  0  0
   24.8878  -36.3852   -5.3564 C   0  0  1  0  0  0  0  0  0  0  0  0
   26.2967  -36.1286   -5.8223 C   0  0  0  0  0  0  0  0  0  0  0  0
   27.3974  -37.2911   -4.9628 S   0  0  0  0  0  0  0  0  0  0  0  0
   24.8268  -36.0442   -3.8905 C   0  0  0  0  0  0  0  0  0  0  0  0
   24.6889  -37.0285   -2.9430 O   0  0  0  0  0  0  0  0  0  0  0  0
   24.9029  -34.8557   -3.5420 O   0  0  0  0  0  0  0  0  0  0  0  0
  2  1  1  0
  3  2  1  0
  3  4  1  1
  5  3  1  0
  5  7  1  0
  5  6  1  6
  7  8  2  0
  9  7  1  0
  9 10  1  0
 10 11  1  1
 11 12  1  0
 12 13  2  0
 13 14  1  0
 15 14  1  0
 16 12  1  0
 16 15  2  0
 17 10  1  0
 17 18  2  0
 19 17  1  0
 20 23  1  0
 20 19  1  0
 20 21  1  6
 22 21  1  0
 23 24  1  0
 25 23  2  0
M  END
$$$$
