AEH.pdb
     RDKit          3D

 25 25  0  0  1  0  0  0  0  0999 V2000
   21.9607  -14.3297  -18.7247 C   0  0  0  0  0  0  0  0  0  0  0  0
   20.8782  -13.2488  -18.7999 C   0  0  2  0  0  0  0  0  0  0  0  0
   20.4974  -13.1029  -20.1751 N   0  0  0  0  0  0  0  0  0  0  0  0
   21.4256  -11.9883  -18.2629 C   0  0  0  0  0  0  0  0  0  0  0  0
   21.8741  -11.9598  -17.0838 O   0  0  0  0  0  0  0  0  0  0  0  0
   21.4529  -10.8162  -19.0523 N   0  0  0  0  0  0  0  0  0  0  0  0
   21.9903   -9.5409  -18.5604 C   0  0  1  0  0  0  0  0  0  0  0  0
   22.3677   -8.6462  -19.6853 C   0  0  0  0  0  0  0  0  0  0  0  0
   23.0362   -7.4103  -19.2085 C   0  0  0  0  0  0  0  0  0  0  0  0
   23.4280   -6.5205  -20.3747 C   0  0  0  0  0  0  0  0  0  0  0  0
   24.5099   -6.8278  -20.9361 O   0  0  0  0  0  0  0  0  0  0  0  0
   20.9987   -8.9014  -17.6542 C   0  0  0  0  0  0  0  0  0  0  0  0
   19.7998   -8.6927  -17.9145 O   0  0  0  0  0  0  0  0  0  0  0  0
   22.6478   -5.4680  -20.7694 O   0  0  0  0  0  0  0  0  0  0  0  0
   21.4027   -8.4609  -16.3396 N   0  0  0  0  0  0  0  0  0  0  0  0
   20.4673   -7.7615  -15.4581 C   0  0  1  0  0  0  0  0  0  0  0  0
   20.2250   -8.5302  -14.2008 C   0  0  0  0  0  0  0  0  0  0  0  0
   19.1541   -9.5182  -14.4149 C   0  0  0  0  0  0  0  0  0  0  0  0
   18.4368   -9.6722  -15.5873 C   0  0  0  0  0  0  0  0  0  0  0  0
   17.5556  -10.6589  -15.4115 N   0  0  0  0  0  0  0  0  0  0  0  0
   17.7109  -11.1149  -14.1659 C   0  0  0  0  0  0  0  0  0  0  0  0
   18.6703  -10.4345  -13.5591 N   0  0  0  0  0  0  0  0  0  0  0  0
   21.0024   -6.4071  -15.2410 C   0  0  0  0  0  0  0  0  0  0  0  0
   20.3246   -5.4879  -14.4712 O   0  0  0  0  0  0  0  0  0  0  0  0
   22.0896   -6.0715  -15.7591 O   0  0  0  0  0  0  0  0  0  0  0  0
  2  1  1  6
  2  4  1  0
  2  3  1  0
  4  5  2  0
  6  4  1  0
  7  6  1  0
  7  8  1  6
  9  8  1  0
 10  9  1  0
 10 14  1  0
 11 10  2  0
 12  7  1  0
 13 12  2  0
 15 12  1  0
 16 17  1  1
 16 15  1  0
 17 18  1  0
 18 22  1  0
 19 18  2  0
 19 20  1  0
 20 21  1  0
 22 21  2  0
 23 16  1  0
 24 23  1  0
 25 23  2  0
M  END
$$$$
