AEH.pdb
     RDKit          3D

 25 25  0  0  1  0  0  0  0  0999 V2000
   14.2349  -10.2578  -15.8013 C   0  0  0  0  0  0  0  0  0  0  0  0
   15.2253  -11.4167  -15.9489 C   0  0  2  0  0  0  0  0  0  0  0  0
   14.7444  -12.5098  -15.1542 N   0  0  0  0  0  0  0  0  0  0  0  0
   16.5540  -10.9692  -15.4895 C   0  0  0  0  0  0  0  0  0  0  0  0
   16.7117  -10.6308  -14.2842 O   0  0  0  0  0  0  0  0  0  0  0  0
   17.6487  -10.9157  -16.3821 N   0  0  0  0  0  0  0  0  0  0  0  0
   19.0059  -10.5548  -15.9521 C   0  0  1  0  0  0  0  0  0  0  0  0
   20.0233  -11.4294  -16.5909 C   0  0  0  0  0  0  0  0  0  0  0  0
   20.0433  -12.7855  -15.9889 C   0  0  0  0  0  0  0  0  0  0  0  0
   21.0256  -13.6873  -16.7149 C   0  0  0  0  0  0  0  0  0  0  0  0
   20.5220  -14.4006  -17.6192 O   0  0  0  0  0  0  0  0  0  0  0  0
   19.2523   -9.1167  -16.2427 C   0  0  0  0  0  0  0  0  0  0  0  0
   18.6864   -8.4420  -17.1222 O   0  0  0  0  0  0  0  0  0  0  0  0
   22.3554  -13.7072  -16.3937 O   0  0  0  0  0  0  0  0  0  0  0  0
   20.2245   -8.3811  -15.4687 N   0  0  0  0  0  0  0  0  0  0  0  0
   20.4855   -6.9660  -15.7344 C   0  0  1  0  0  0  0  0  0  0  0  0
   19.2176   -6.1784  -15.7859 C   0  0  0  0  0  0  0  0  0  0  0  0
   19.5177   -4.7608  -16.0490 C   0  0  0  0  0  0  0  0  0  0  0  0
   18.9895   -3.6924  -15.3472 C   0  0  0  0  0  0  0  0  0  0  0  0
   19.4859   -2.5665  -15.8640 N   0  0  0  0  0  0  0  0  0  0  0  0
   20.3030   -2.9125  -16.8621 C   0  0  0  0  0  0  0  0  0  0  0  0
   20.3282   -4.2304  -16.9806 N   0  0  0  0  0  0  0  0  0  0  0  0
   21.4416   -6.5002  -14.7162 C   0  0  0  0  0  0  0  0  0  0  0  0
   21.8946   -7.3428  -13.7255 O   0  0  0  0  0  0  0  0  0  0  0  0
   21.8573   -5.3212  -14.7387 O   0  0  0  0  0  0  0  0  0  0  0  0
  2  1  1  1
  2  4  1  0
  2  3  1  0
  4  5  2  0
  6  4  1  0
  7  6  1  0
  7  8  1  6
  9  8  1  0
 10  9  1  0
 10 14  1  0
 11 10  2  0
 12  7  1  0
 13 12  2  0
 15 12  1  0
 16 17  1  1
 16 15  1  0
 17 18  1  0
 18 22  1  0
 19 18  2  0
 19 20  1  0
 20 21  1  0
 22 21  2  0
 23 16  1  0
 24 23  1  0
 25 23  2  0
M  END
$$$$
