AEH.pdb
     RDKit          3D

 25 25  0  0  1  0  0  0  0  0999 V2000
   18.3693  -18.6341  -16.1234 C   0  0  0  0  0  0  0  0  0  0  0  0
   19.5257  -17.9541  -16.8623 C   0  0  2  0  0  0  0  0  0  0  0  0
   19.1271  -17.7701  -18.2279 N   0  0  0  0  0  0  0  0  0  0  0  0
   20.7217  -18.8130  -16.7684 C   0  0  0  0  0  0  0  0  0  0  0  0
   20.6063  -19.9908  -16.3306 O   0  0  0  0  0  0  0  0  0  0  0  0
   21.9912  -18.3324  -17.1623 N   0  0  0  0  0  0  0  0  0  0  0  0
   23.2091  -19.1493  -17.0805 C   0  0  1  0  0  0  0  0  0  0  0  0
   24.2674  -18.6298  -17.9850 C   0  0  0  0  0  0  0  0  0  0  0  0
   23.9866  -18.9506  -19.4063 C   0  0  0  0  0  0  0  0  0  0  0  0
   25.1157  -18.4755  -20.3033 C   0  0  0  0  0  0  0  0  0  0  0  0
   24.7975  -18.2954  -21.5061 O   0  0  0  0  0  0  0  0  0  0  0  0
   23.6708  -19.2111  -15.6675 C   0  0  0  0  0  0  0  0  0  0  0  0
   23.1702  -18.5965  -14.7082 O   0  0  0  0  0  0  0  0  0  0  0  0
   26.3781  -18.2651  -19.8193 O   0  0  0  0  0  0  0  0  0  0  0  0
   24.7977  -20.0418  -15.3131 N   0  0  0  0  0  0  0  0  0  0  0  0
   25.2145  -20.1922  -13.9186 C   0  0  1  0  0  0  0  0  0  0  0  0
   24.0849  -20.6573  -13.0593 C   0  0  0  0  0  0  0  0  0  0  0  0
   24.5524  -20.8488  -11.6759 C   0  0  0  0  0  0  0  0  0  0  0  0
   25.8198  -21.2690  -11.3156 C   0  0  0  0  0  0  0  0  0  0  0  0
   25.8780  -21.3266   -9.9835 N   0  0  0  0  0  0  0  0  0  0  0  0
   24.6837  -20.9543   -9.5159 C   0  0  0  0  0  0  0  0  0  0  0  0
   23.8800  -20.6650  -10.5269 N   0  0  0  0  0  0  0  0  0  0  0  0
   26.3854  -21.0848  -13.9072 C   0  0  0  0  0  0  0  0  0  0  0  0
   27.2759  -21.0789  -12.8566 O   0  0  0  0  0  0  0  0  0  0  0  0
   26.5879  -21.8663  -14.8619 O   0  0  0  0  0  0  0  0  0  0  0  0
  2  1  1  1
  2  4  1  0
  2  3  1  0
  4  5  2  0
  6  4  1  0
  7  6  1  0
  7  8  1  6
  9  8  1  0
 10  9  1  0
 10 14  1  0
 11 10  2  0
 12  7  1  0
 13 12  2  0
 15 12  1  0
 16 17  1  1
 16 15  1  0
 17 18  1  0
 18 22  1  0
 19 18  2  0
 19 20  1  0
 20 21  1  0
 22 21  2  0
 23 16  1  0
 24 23  1  0
 25 23  2  0
M  END
$$$$
