AEH.pdb
     RDKit          3D

 25 25  0  0  1  0  0  0  0  0999 V2000
   15.9006  -10.0143  -16.6791 C   0  0  0  0  0  0  0  0  0  0  0  0
   17.1359  -10.9142  -16.7780 C   0  0  2  0  0  0  0  0  0  0  0  0
   16.8064  -12.1795  -16.1880 N   0  0  0  0  0  0  0  0  0  0  0  0
   18.2537  -10.2689  -16.0633 C   0  0  0  0  0  0  0  0  0  0  0  0
   18.1593  -10.0626  -14.8221 O   0  0  0  0  0  0  0  0  0  0  0  0
   19.4256   -9.8807  -16.7517 N   0  0  0  0  0  0  0  0  0  0  0  0
   20.5849   -9.2874  -16.0725 C   0  0  1  0  0  0  0  0  0  0  0  0
   21.8554   -9.8959  -16.5455 C   0  0  0  0  0  0  0  0  0  0  0  0
   23.0335   -9.3368  -15.8376 C   0  0  0  0  0  0  0  0  0  0  0  0
   24.3262   -9.8616  -16.4367 C   0  0  0  0  0  0  0  0  0  0  0  0
   24.5349  -11.0880  -16.2559 O   0  0  0  0  0  0  0  0  0  0  0  0
   20.5723   -7.8125  -16.2669 C   0  0  0  0  0  0  0  0  0  0  0  0
   20.4333   -7.2202  -17.3526 O   0  0  0  0  0  0  0  0  0  0  0  0
   25.1860   -9.0445  -17.1186 O   0  0  0  0  0  0  0  0  0  0  0  0
   20.7313   -6.9344  -15.1316 N   0  0  0  0  0  0  0  0  0  0  0  0
   20.7436   -5.4807  -15.2985 C   0  0  1  0  0  0  0  0  0  0  0  0
   19.4042   -4.8874  -15.0075 C   0  0  0  0  0  0  0  0  0  0  0  0
   19.4610   -3.4233  -15.1553 C   0  0  0  0  0  0  0  0  0  0  0  0
   20.4582   -2.7284  -15.8153 C   0  0  0  0  0  0  0  0  0  0  0  0
   20.1767   -1.4258  -15.7449 N   0  0  0  0  0  0  0  0  0  0  0  0
   19.0362   -1.3008  -15.0614 C   0  0  0  0  0  0  0  0  0  0  0  0
   18.5985   -2.4972  -14.7028 N   0  0  0  0  0  0  0  0  0  0  0  0
   21.8302   -4.9541  -14.4559 C   0  0  0  0  0  0  0  0  0  0  0  0
   22.6198   -3.9092  -14.8817 O   0  0  0  0  0  0  0  0  0  0  0  0
   22.0518   -5.4553  -13.3321 O   0  0  0  0  0  0  0  0  0  0  0  0
  2  1  1  1
  2  4  1  0
  2  3  1  0
  4  5  2  0
  6  4  1  0
  7  6  1  0
  7  8  1  6
  9  8  1  0
 10  9  1  0
 10 14  1  0
 11 10  2  0
 12  7  1  0
 13 12  2  0
 15 12  1  0
 16 17  1  1
 16 15  1  0
 17 18  1  0
 18 22  1  0
 19 18  2  0
 19 20  1  0
 20 21  1  0
 22 21  2  0
 23 16  1  0
 24 23  1  0
 25 23  2  0
M  END
$$$$
