AEH.pdb
     RDKit          3D

 25 25  0  0  1  0  0  0  0  0999 V2000
   18.8575  -11.5094  -15.2884 C   0  0  0  0  0  0  0  0  0  0  0  0
   18.9162  -10.4152  -16.3584 C   0  0  2  0  0  0  0  0  0  0  0  0
   19.4034  -11.0102  -17.5693 N   0  0  0  0  0  0  0  0  0  0  0  0
   19.8159   -9.3422  -15.8936 C   0  0  0  0  0  0  0  0  0  0  0  0
   19.4932   -8.6561  -14.8850 O   0  0  0  0  0  0  0  0  0  0  0  0
   21.0315   -9.0754  -16.5637 N   0  0  0  0  0  0  0  0  0  0  0  0
   21.9007   -7.9455  -16.2101 C   0  0  1  0  0  0  0  0  0  0  0  0
   23.2740   -8.4061  -15.8782 C   0  0  0  0  0  0  0  0  0  0  0  0
   23.8044   -9.3439  -16.8984 C   0  0  0  0  0  0  0  0  0  0  0  0
   25.2314   -9.7485  -16.5741 C   0  0  0  0  0  0  0  0  0  0  0  0
   25.7033   -9.2355  -15.5280 O   0  0  0  0  0  0  0  0  0  0  0  0
   21.9030   -6.9551  -17.3204 C   0  0  0  0  0  0  0  0  0  0  0  0
   22.3640   -7.1387  -18.4616 O   0  0  0  0  0  0  0  0  0  0  0  0
   25.9339  -10.6083  -17.3737 O   0  0  0  0  0  0  0  0  0  0  0  0
   21.3332   -5.6438  -17.1177 N   0  0  0  0  0  0  0  0  0  0  0  0
   21.3094   -4.6569  -18.1978 C   0  0  1  0  0  0  0  0  0  0  0  0
   20.6484   -5.2031  -19.4206 C   0  0  0  0  0  0  0  0  0  0  0  0
   19.1954   -5.3042  -19.2031 C   0  0  0  0  0  0  0  0  0  0  0  0
   18.5738   -5.2997  -17.9676 C   0  0  0  0  0  0  0  0  0  0  0  0
   17.2578   -5.4076  -18.1616 N   0  0  0  0  0  0  0  0  0  0  0  0
   17.0536   -5.4782  -19.4794 C   0  0  0  0  0  0  0  0  0  0  0  0
   18.2135   -5.4167  -20.1138 N   0  0  0  0  0  0  0  0  0  0  0  0
   20.6741   -3.4408  -17.6634 C   0  0  0  0  0  0  0  0  0  0  0  0
   20.1632   -3.4065  -16.3849 O   0  0  0  0  0  0  0  0  0  0  0  0
   20.5892   -2.4141  -18.3720 O   0  0  0  0  0  0  0  0  0  0  0  0
  2  1  1  1
  2  4  1  0
  2  3  1  0
  4  5  2  0
  6  4  1  0
  7  6  1  0
  7  8  1  6
  9  8  1  0
 10  9  1  0
 10 14  1  0
 11 10  2  0
 12  7  1  0
 13 12  2  0
 15 12  1  0
 16 17  1  6
 16 15  1  0
 17 18  1  0
 18 22  1  0
 19 18  2  0
 19 20  1  0
 20 21  1  0
 22 21  2  0
 23 16  1  0
 24 23  1  0
 25 23  2  0
M  END
$$$$
