AEH.pdb
     RDKit          3D

 25 25  0  0  1  0  0  0  0  0999 V2000
   18.7225  -12.7307    4.0167 C   0  0  0  0  0  0  0  0  0  0  0  0
   17.4263  -13.5449    4.0686 C   0  0  2  0  0  0  0  0  0  0  0  0
   16.3270  -12.6246    4.0222 N   0  0  0  0  0  0  0  0  0  0  0  0
   17.4083  -14.3327    5.3160 C   0  0  0  0  0  0  0  0  0  0  0  0
   17.1507  -13.7572    6.4090 O   0  0  0  0  0  0  0  0  0  0  0  0
   17.6756  -15.7205    5.2999 N   0  0  0  0  0  0  0  0  0  0  0  0
   17.7224  -16.5335    6.5222 C   0  0  1  0  0  0  0  0  0  0  0  0
   17.7399  -17.9847    6.2031 C   0  0  0  0  0  0  0  0  0  0  0  0
   16.3878  -18.4925    5.8630 C   0  0  0  0  0  0  0  0  0  0  0  0
   16.4446  -19.9516    5.4468 C   0  0  0  0  0  0  0  0  0  0  0  0
   16.2538  -20.1615    4.2221 O   0  0  0  0  0  0  0  0  0  0  0  0
   18.8993  -16.1330    7.3395 C   0  0  0  0  0  0  0  0  0  0  0  0
   20.0404  -15.8898    6.9064 O   0  0  0  0  0  0  0  0  0  0  0  0
   16.6867  -20.9483    6.3524 O   0  0  0  0  0  0  0  0  0  0  0  0
   18.7700  -15.9971    8.7713 N   0  0  0  0  0  0  0  0  0  0  0  0
   19.8977  -15.5538    9.5916 C   0  0  1  0  0  0  0  0  0  0  0  0
   19.6248  -14.2278   10.2224 C   0  0  0  0  0  0  0  0  0  0  0  0
   20.2799  -13.1596    9.4488 C   0  0  0  0  0  0  0  0  0  0  0  0
   20.9870  -13.3467    8.2750 C   0  0  0  0  0  0  0  0  0  0  0  0
   21.4342  -12.1588    7.8627 N   0  0  0  0  0  0  0  0  0  0  0  0
   21.0225  -11.2484    8.7488 C   0  0  0  0  0  0  0  0  0  0  0  0
   20.3274  -11.8414    9.7063 N   0  0  0  0  0  0  0  0  0  0  0  0
   20.1860  -16.6296   10.5547 C   0  0  0  0  0  0  0  0  0  0  0  0
   21.2000  -16.5063   11.4785 O   0  0  0  0  0  0  0  0  0  0  0  0
   19.5070  -17.6794   10.5445 O   0  0  0  0  0  0  0  0  0  0  0  0
  2  1  1  1
  2  4  1  0
  2  3  1  0
  4  5  2  0
  6  4  1  0
  7  6  1  0
  7  8  1  6
  9  8  1  0
 10  9  1  0
 10 14  1  0
 11 10  2  0
 12  7  1  0
 13 12  2  0
 15 12  1  0
 16 17  1  1
 16 15  1  0
 17 18  1  0
 18 22  1  0
 19 18  2  0
 19 20  1  0
 20 21  1  0
 22 21  2  0
 23 16  1  0
 24 23  1  0
 25 23  2  0
M  END
$$$$
