AEH.pdb
     RDKit          3D

 25 25  0  0  1  0  0  0  0  0999 V2000
   15.4757  -10.6196  -17.9740 C   0  0  0  0  0  0  0  0  0  0  0  0
   16.8405  -10.7403  -17.2896 C   0  0  2  0  0  0  0  0  0  0  0  0
   16.6298  -11.2943  -15.9834 N   0  0  0  0  0  0  0  0  0  0  0  0
   17.4520   -9.4002  -17.2067 C   0  0  0  0  0  0  0  0  0  0  0  0
   17.7955   -8.8088  -18.2671 O   0  0  0  0  0  0  0  0  0  0  0  0
   17.6566   -8.7736  -15.9563 N   0  0  0  0  0  0  0  0  0  0  0  0
   18.1694   -7.4031  -15.8303 C   0  0  1  0  0  0  0  0  0  0  0  0
   17.2398   -6.5507  -15.0445 C   0  0  0  0  0  0  0  0  0  0  0  0
   16.5843   -5.5223  -15.8897 C   0  0  0  0  0  0  0  0  0  0  0  0
   15.7130   -4.6047  -15.0505 C   0  0  0  0  0  0  0  0  0  0  0  0
   15.9986   -3.3831  -15.1304 O   0  0  0  0  0  0  0  0  0  0  0  0
   19.5303   -7.4359  -15.2301 C   0  0  0  0  0  0  0  0  0  0  0  0
   20.2278   -8.4519  -15.0574 O   0  0  0  0  0  0  0  0  0  0  0  0
   14.6982   -5.0910  -14.2722 O   0  0  0  0  0  0  0  0  0  0  0  0
   20.1529   -6.2103  -14.7880 N   0  0  0  0  0  0  0  0  0  0  0  0
   21.5442   -6.1919  -14.3351 C   0  0  1  0  0  0  0  0  0  0  0  0
   22.4574   -6.7879  -15.3557 C   0  0  0  0  0  0  0  0  0  0  0  0
   22.3991   -8.2577  -15.2842 C   0  0  0  0  0  0  0  0  0  0  0  0
   22.0120   -9.0896  -16.3191 C   0  0  0  0  0  0  0  0  0  0  0  0
   22.0830  -10.3513  -15.8899 N   0  0  0  0  0  0  0  0  0  0  0  0
   22.5023  -10.3181  -14.6223 C   0  0  0  0  0  0  0  0  0  0  0  0
   22.6949   -9.0628  -14.2497 N   0  0  0  0  0  0  0  0  0  0  0  0
   21.8683   -4.8009  -13.9778 C   0  0  0  0  0  0  0  0  0  0  0  0
   22.8063   -4.5133  -13.0112 O   0  0  0  0  0  0  0  0  0  0  0  0
   21.2889   -3.8540  -14.5531 O   0  0  0  0  0  0  0  0  0  0  0  0
  2  1  1  1
  2  4  1  0
  2  3  1  0
  4  5  2  0
  6  4  1  0
  7  6  1  0
  7  8  1  1
  9  8  1  0
 10  9  1  0
 10 14  1  0
 11 10  2  0
 12  7  1  0
 13 12  2  0
 15 12  1  0
 16 17  1  6
 16 15  1  0
 17 18  1  0
 18 22  1  0
 19 18  2  0
 19 20  1  0
 20 21  1  0
 22 21  2  0
 23 16  1  0
 24 23  1  0
 25 23  2  0
M  END
$$$$
