AEH.pdb
     RDKit          3D

 25 25  0  0  1  0  0  0  0  0999 V2000
   14.9798   -9.9964  -15.8070 C   0  0  0  0  0  0  0  0  0  0  0  0
   15.9310  -11.1715  -15.5619 C   0  0  2  0  0  0  0  0  0  0  0  0
   15.3518  -12.0013  -14.5453 N   0  0  0  0  0  0  0  0  0  0  0  0
   17.2407  -10.6431  -15.1349 C   0  0  0  0  0  0  0  0  0  0  0  0
   17.3726  -10.1820  -13.9678 O   0  0  0  0  0  0  0  0  0  0  0  0
   18.3457  -10.6477  -16.0163 N   0  0  0  0  0  0  0  0  0  0  0  0
   19.6500  -10.0766  -15.6562 C   0  0  1  0  0  0  0  0  0  0  0  0
   20.7647  -10.8918  -16.2049 C   0  0  0  0  0  0  0  0  0  0  0  0
   22.0892  -10.3737  -15.7819 C   0  0  0  0  0  0  0  0  0  0  0  0
   23.2080  -11.2682  -16.2851 C   0  0  0  0  0  0  0  0  0  0  0  0
   22.8285  -12.2981  -16.8979 O   0  0  0  0  0  0  0  0  0  0  0  0
   19.7180   -8.6643  -16.1192 C   0  0  0  0  0  0  0  0  0  0  0  0
   19.3032   -8.2329  -17.2103 O   0  0  0  0  0  0  0  0  0  0  0  0
   24.5244  -10.9587  -16.0767 O   0  0  0  0  0  0  0  0  0  0  0  0
   20.3076   -7.6552  -15.2710 N   0  0  0  0  0  0  0  0  0  0  0  0
   20.4282   -6.2682  -15.7213 C   0  0  1  0  0  0  0  0  0  0  0  0
   20.2278   -5.3097  -14.5935 C   0  0  0  0  0  0  0  0  0  0  0  0
   20.3653   -3.9265  -15.0799 C   0  0  0  0  0  0  0  0  0  0  0  0
   21.0468   -3.5492  -16.2226 C   0  0  0  0  0  0  0  0  0  0  0  0
   20.9584   -2.2230  -16.3433 N   0  0  0  0  0  0  0  0  0  0  0  0
   20.2427   -1.7755  -15.3083 C   0  0  0  0  0  0  0  0  0  0  0  0
   19.8818   -2.7932  -14.5431 N   0  0  0  0  0  0  0  0  0  0  0  0
   21.7312   -6.1399  -16.3947 C   0  0  0  0  0  0  0  0  0  0  0  0
   21.8442   -5.5102  -17.6143 O   0  0  0  0  0  0  0  0  0  0  0  0
   22.7614   -6.6070  -15.8621 O   0  0  0  0  0  0  0  0  0  0  0  0
  2  1  1  1
  2  4  1  0
  2  3  1  0
  4  5  2  0
  6  4  1  0
  7  6  1  0
  7  8  1  6
  9  8  1  0
 10  9  1  0
 10 14  1  0
 11 10  2  0
 12  7  1  0
 13 12  2  0
 15 12  1  0
 16 17  1  1
 16 15  1  0
 17 18  1  0
 18 22  1  0
 19 18  2  0
 19 20  1  0
 20 21  1  0
 22 21  2  0
 23 16  1  0
 24 23  1  0
 25 23  2  0
M  END
$$$$
