CAV.pdb
     RDKit          3D

 19 18  0  0  1  0  0  0  0  0999 V2000
   19.3522  -13.0871  -18.0346 N   0  0  0  0  0  0  0  0  0  0  0  0
   18.7854  -12.1724  -17.0660 C   0  0  1  0  0  0  0  0  0  0  0  0
   19.0756  -12.6806  -15.6695 C   0  0  0  0  0  0  0  0  0  0  0  0
   18.1400  -11.6773  -14.4824 S   0  0  0  0  0  0  0  0  0  0  0  0
   19.3696  -10.8320  -17.2969 C   0  0  0  0  0  0  0  0  0  0  0  0
   20.6046  -10.7268  -17.4718 O   0  0  0  0  0  0  0  0  0  0  0  0
   18.0731   -7.5397  -18.3326 C   0  0  0  0  0  0  0  0  0  0  0  0
   19.0371   -8.3707  -17.4948 C   0  0  2  0  0  0  0  0  0  0  0  0
   18.5047   -9.6824  -17.3150 N   0  0  0  0  0  0  0  0  0  0  0  0
   19.2364   -7.6899  -16.1921 C   0  0  0  0  0  0  0  0  0  0  0  0
   18.5662   -7.9300  -15.1699 O   0  0  0  0  0  0  0  0  0  0  0  0
   22.1277   -5.1995  -13.1814 C   0  0  0  0  0  0  0  0  0  0  0  0
   21.9943   -5.8666  -14.5372 C   0  0  2  0  0  0  0  0  0  0  0  0
   22.6757   -4.9981  -15.5387 C   0  0  0  0  0  0  0  0  0  0  0  0
   20.5417   -6.0815  -14.7940 C   0  0  2  0  0  0  0  0  0  0  0  0
   20.2430   -6.6963  -16.0587 N   0  0  0  0  0  0  0  0  0  0  0  0
   19.7353   -4.8567  -14.6763 C   0  0  0  0  0  0  0  0  0  0  0  0
   19.3479   -4.2385  -15.6879 O   0  0  0  0  0  0  0  0  0  0  0  0
   19.3944   -4.3721  -13.4344 O   0  0  0  0  0  0  0  0  0  0  0  0
  2  3  1  0
  2  1  1  6
  3  4  1  0
  5  6  2  0
  5  2  1  0
  8  7  1  6
  8  9  1  0
  9  5  1  0
 10 11  2  0
 10  8  1  0
 13 12  1  1
 13 14  1  0
 15 13  1  0
 15 16  1  6
 16 10  1  0
 17 15  1  0
 18 17  2  0
 19 17  1  0
M  END
$$$$
