CAV.pdb
     RDKit          3D

 19 18  0  0  1  0  0  0  0  0999 V2000
   24.8291  -21.4710  -11.1865 N   0  0  0  0  0  0  0  0  0  0  0  0
   25.3170  -20.1419  -10.8839 C   0  0  1  0  0  0  0  0  0  0  0  0
   26.0464  -20.1676   -9.5573 C   0  0  0  0  0  0  0  0  0  0  0  0
   24.9765  -20.9584   -8.3238 S   0  0  0  0  0  0  0  0  0  0  0  0
   26.2004  -19.7094  -11.9901 C   0  0  0  0  0  0  0  0  0  0  0  0
   26.8397  -18.6392  -11.8773 O   0  0  0  0  0  0  0  0  0  0  0  0
   27.4267  -21.2943  -15.1594 C   0  0  0  0  0  0  0  0  0  0  0  0
   27.0595  -20.0929  -14.2972 C   0  0  2  0  0  0  0  0  0  0  0  0
   26.3033  -20.5288  -13.1683 N   0  0  0  0  0  0  0  0  0  0  0  0
   26.2835  -19.1381  -15.1258 C   0  0  0  0  0  0  0  0  0  0  0  0
   25.0556  -19.2199  -15.3189 O   0  0  0  0  0  0  0  0  0  0  0  0
   27.8559  -15.3229  -16.1245 C   0  0  0  0  0  0  0  0  0  0  0  0
   26.3804  -15.6699  -16.0648 C   0  0  2  0  0  0  0  0  0  0  0  0
   25.9154  -15.4338  -14.6686 C   0  0  0  0  0  0  0  0  0  0  0  0
   26.2276  -17.0759  -16.5363 C   0  0  2  0  0  0  0  0  0  0  0  0
   26.9426  -18.0488  -15.7561 N   0  0  0  0  0  0  0  0  0  0  0  0
   26.5880  -17.2653  -17.9500 C   0  0  0  0  0  0  0  0  0  0  0  0
   25.8763  -16.8057  -18.8653 O   0  0  0  0  0  0  0  0  0  0  0  0
   27.7278  -17.9600  -18.2840 O   0  0  0  0  0  0  0  0  0  0  0  0
  2  3  1  0
  2  1  1  6
  3  4  1  0
  5  6  2  0
  5  2  1  0
  8  7  1  6
  8  9  1  0
  9  5  1  0
 10 11  2  0
 10  8  1  0
 13 12  1  1
 13 14  1  0
 15 13  1  0
 15 16  1  1
 16 10  1  0
 17 15  1  0
 18 17  2  0
 19 17  1  0
M  END
$$$$
