CAV.pdb
     RDKit          3D

 19 18  0  0  1  0  0  0  0  0999 V2000
   17.1438  -11.8622  -15.0141 N   0  0  0  0  0  0  0  0  0  0  0  0
   18.1787  -11.6744  -16.0089 C   0  0  1  0  0  0  0  0  0  0  0  0
   17.6710  -12.1502  -17.3538 C   0  0  0  0  0  0  0  0  0  0  0  0
   17.6278  -13.9639  -17.3475 S   0  0  0  0  0  0  0  0  0  0  0  0
   18.5433  -10.2399  -16.0337 C   0  0  0  0  0  0  0  0  0  0  0  0
   19.5021   -9.8664  -16.7464 O   0  0  0  0  0  0  0  0  0  0  0  0
   16.8764   -7.1181  -14.8124 C   0  0  0  0  0  0  0  0  0  0  0  0
   18.0972   -7.9164  -15.2526 C   0  0  2  0  0  0  0  0  0  0  0  0
   17.7874   -9.3093  -15.2383 N   0  0  0  0  0  0  0  0  0  0  0  0
   19.2189   -7.6074  -14.3324 C   0  0  0  0  0  0  0  0  0  0  0  0
   19.3121   -8.0516  -13.1724 O   0  0  0  0  0  0  0  0  0  0  0  0
   22.9893   -6.5738  -15.8651 C   0  0  0  0  0  0  0  0  0  0  0  0
   22.6807   -7.2249  -14.5302 C   0  0  2  0  0  0  0  0  0  0  0  0
   22.5377   -8.6901  -14.7627 C   0  0  0  0  0  0  0  0  0  0  0  0
   21.4629   -6.5663  -13.9772 C   0  0  2  0  0  0  0  0  0  0  0  0
   20.2728   -6.7565  -14.7609 N   0  0  0  0  0  0  0  0  0  0  0  0
   21.6304   -5.1245  -13.7379 C   0  0  0  0  0  0  0  0  0  0  0  0
   21.0029   -4.2810  -14.4090 O   0  0  0  0  0  0  0  0  0  0  0  0
   22.4912   -4.6832  -12.7594 O   0  0  0  0  0  0  0  0  0  0  0  0
  2  3  1  0
  2  1  1  1
  3  4  1  0
  5  6  2  0
  5  2  1  0
  8  7  1  1
  8  9  1  0
  9  5  1  0
 10 11  2  0
 10  8  1  0
 13 12  1  6
 13 14  1  0
 15 13  1  0
 15 16  1  6
 16 10  1  0
 17 15  1  0
 18 17  2  0
 19 17  1  0
M  END
$$$$
