CAV.pdb
     RDKit          3D

 19 18  0  0  1  0  0  0  0  0999 V2000
   19.2409  -12.8429  -16.9372 N   0  0  0  0  0  0  0  0  0  0  0  0
   19.2078  -11.5612  -17.6097 C   0  0  1  0  0  0  0  0  0  0  0  0
   17.7931  -11.0219  -17.5874 C   0  0  0  0  0  0  0  0  0  0  0  0
   16.7573  -12.0704  -18.6454 S   0  0  0  0  0  0  0  0  0  0  0  0
   20.1544  -10.6532  -16.9237 C   0  0  0  0  0  0  0  0  0  0  0  0
   20.2363  -10.6872  -15.6752 O   0  0  0  0  0  0  0  0  0  0  0  0
   22.7834   -8.2417  -18.1491 C   0  0  0  0  0  0  0  0  0  0  0  0
   21.9075   -8.8900  -17.0842 C   0  0  2  0  0  0  0  0  0  0  0  0
   20.9577   -9.7533  -17.7080 N   0  0  0  0  0  0  0  0  0  0  0  0
   21.2320   -7.8179  -16.3132 C   0  0  0  0  0  0  0  0  0  0  0  0
   20.1995   -7.2321  -16.6905 O   0  0  0  0  0  0  0  0  0  0  0  0
   21.4640   -7.3652  -12.1219 C   0  0  0  0  0  0  0  0  0  0  0  0
   20.4427   -6.7781  -13.0776 C   0  0  2  0  0  0  0  0  0  0  0  0
   19.4005   -7.8155  -13.3206 C   0  0  0  0  0  0  0  0  0  0  0  0
   21.1707   -6.3366  -14.3013 C   0  0  2  0  0  0  0  0  0  0  0  0
   21.7623   -7.4033  -15.0621 N   0  0  0  0  0  0  0  0  0  0  0  0
   22.2097   -5.3291  -14.0372 C   0  0  0  0  0  0  0  0  0  0  0  0
   23.4180   -5.5873  -14.2072 O   0  0  0  0  0  0  0  0  0  0  0  0
   21.8574   -4.0750  -13.5942 O   0  0  0  0  0  0  0  0  0  0  0  0
  2  3  1  0
  2  1  1  1
  3  4  1  0
  5  6  2  0
  5  2  1  0
  8  7  1  6
  8  9  1  0
  9  5  1  0
 10 11  2  0
 10  8  1  0
 13 12  1  1
 13 14  1  0
 15 13  1  0
 15 16  1  1
 16 10  1  0
 17 15  1  0
 18 17  2  0
 19 17  1  0
M  END
$$$$
