CAV.pdb
     RDKit          3D

 19 18  0  0  1  0  0  0  0  0999 V2000
   18.5442  -13.5195  -16.7050 N   0  0  0  0  0  0  0  0  0  0  0  0
   17.8487  -12.5661  -15.8663 C   0  0  1  0  0  0  0  0  0  0  0  0
   18.1421  -12.8723  -14.4127 C   0  0  0  0  0  0  0  0  0  0  0  0
   17.2793  -14.4021  -13.9579 S   0  0  0  0  0  0  0  0  0  0  0  0
   18.2938  -11.2057  -16.2434 C   0  0  0  0  0  0  0  0  0  0  0  0
   19.4922  -11.0200  -16.5534 O   0  0  0  0  0  0  0  0  0  0  0  0
   16.4792   -7.9922  -16.9561 C   0  0  0  0  0  0  0  0  0  0  0  0
   17.7232   -8.8128  -16.6388 C   0  0  2  0  0  0  0  0  0  0  0  0
   17.3389  -10.1294  -16.2448 N   0  0  0  0  0  0  0  0  0  0  0  0
   18.4760   -8.1285  -15.5592 C   0  0  0  0  0  0  0  0  0  0  0  0
   18.3440   -8.3835  -14.3471 O   0  0  0  0  0  0  0  0  0  0  0  0
   22.3107   -5.5142  -14.1148 C   0  0  0  0  0  0  0  0  0  0  0  0
   21.6280   -6.2193  -15.2715 C   0  0  2  0  0  0  0  0  0  0  0  0
   21.7941   -5.3676  -16.4832 C   0  0  0  0  0  0  0  0  0  0  0  0
   20.2108   -6.4633  -14.8786 C   0  0  2  0  0  0  0  0  0  0  0  0
   19.4154   -7.1135  -15.8842 N   0  0  0  0  0  0  0  0  0  0  0  0
   19.5021   -5.2489  -14.4460 C   0  0  0  0  0  0  0  0  0  0  0  0
   18.7141   -4.6545  -15.2085 O   0  0  0  0  0  0  0  0  0  0  0  0
   19.7020   -4.7477  -13.1803 O   0  0  0  0  0  0  0  0  0  0  0  0
  2  3  1  0
  2  1  1  6
  3  4  1  0
  5  6  2  0
  5  2  1  0
  8  7  1  1
  8  9  1  0
  9  5  1  0
 10 11  2  0
 10  8  1  0
 13 12  1  1
 13 14  1  0
 15 13  1  0
 15 16  1  6
 16 10  1  0
 17 15  1  0
 18 17  2  0
 19 17  1  0
M  END
$$$$
