CAV.pdb
     RDKit          3D

 19 18  0  0  1  0  0  0  0  0999 V2000
   21.9688  -12.9362  -17.2054 N   0  0  0  0  0  0  0  0  0  0  0  0
   21.2932  -11.8056  -17.8066 C   0  0  1  0  0  0  0  0  0  0  0  0
   19.9400  -11.6262  -17.1514 C   0  0  0  0  0  0  0  0  0  0  0  0
   19.0539  -13.2082  -17.2108 S   0  0  0  0  0  0  0  0  0  0  0  0
   22.1499  -10.6103  -17.6379 C   0  0  0  0  0  0  0  0  0  0  0  0
   22.9081  -10.5385  -16.6445 O   0  0  0  0  0  0  0  0  0  0  0  0
   23.1230   -7.8021  -19.9070 C   0  0  0  0  0  0  0  0  0  0  0  0
   22.9520   -8.4254  -18.5272 C   0  0  2  0  0  0  0  0  0  0  0  0
   22.0910   -9.5597  -18.6192 N   0  0  0  0  0  0  0  0  0  0  0  0
   22.3918   -7.4001  -17.6133 C   0  0  0  0  0  0  0  0  0  0  0  0
   22.9719   -6.3384  -17.3168 O   0  0  0  0  0  0  0  0  0  0  0  0
   18.9595   -5.7758  -17.8770 C   0  0  0  0  0  0  0  0  0  0  0  0
   19.0556   -6.3646  -16.4823 C   0  0  2  0  0  0  0  0  0  0  0  0
   18.3846   -5.4203  -15.5444 C   0  0  0  0  0  0  0  0  0  0  0  0
   20.4981   -6.6025  -16.1908 C   0  0  2  0  0  0  0  0  0  0  0  0
   21.1178   -7.6019  -17.0179 N   0  0  0  0  0  0  0  0  0  0  0  0
   20.7671   -6.9386  -14.7841 C   0  0  0  0  0  0  0  0  0  0  0  0
   20.5429   -6.1201  -13.8701 O   0  0  0  0  0  0  0  0  0  0  0  0
   21.2752   -8.1743  -14.4552 O   0  0  0  0  0  0  0  0  0  0  0  0
  2  3  1  0
  2  1  1  1
  3  4  1  0
  5  6  2  0
  5  2  1  0
  8  7  1  6
  8  9  1  0
  9  5  1  0
 10 11  2  0
 10  8  1  0
 13 12  1  6
 13 14  1  0
 15 13  1  0
 15 16  1  6
 16 10  1  0
 17 15  1  0
 18 17  2  0
 19 17  1  0
M  END
$$$$
