CAV.pdb
     RDKit          3D

 19 18  0  0  1  0  0  0  0  0999 V2000
   14.3153  -13.5289  -12.3064 N   0  0  0  0  0  0  0  0  0  0  0  0
   13.5671  -12.3116  -12.5401 C   0  0  1  0  0  0  0  0  0  0  0  0
   12.2624  -12.3724  -11.7742 C   0  0  0  0  0  0  0  0  0  0  0  0
   11.2350  -13.6881  -12.4846 S   0  0  0  0  0  0  0  0  0  0  0  0
   14.4023  -11.1655  -12.1158 C   0  0  0  0  0  0  0  0  0  0  0  0
   14.9175  -11.1755  -10.9751 O   0  0  0  0  0  0  0  0  0  0  0  0
   15.9561   -8.3065  -13.9607 C   0  0  0  0  0  0  0  0  0  0  0  0
   15.4755   -8.9907  -12.6869 C   0  0  2  0  0  0  0  0  0  0  0  0
   14.6020  -10.0677  -13.0240 N   0  0  0  0  0  0  0  0  0  0  0  0
   14.7851   -7.9845  -11.8435 C   0  0  0  0  0  0  0  0  0  0  0  0
   13.5853   -7.6741  -11.9692 O   0  0  0  0  0  0  0  0  0  0  0  0
   16.1745   -6.9592   -8.0106 C   0  0  0  0  0  0  0  0  0  0  0  0
   14.7653   -6.7523   -8.5327 C   0  0  2  0  0  0  0  0  0  0  0  0
   14.0082   -8.0162   -8.3074 C   0  0  0  0  0  0  0  0  0  0  0  0
   14.8690   -6.3418   -9.9621 C   0  0  2  0  0  0  0  0  0  0  0  0
   15.4995   -7.3099  -10.8175 N   0  0  0  0  0  0  0  0  0  0  0  0
   15.5430   -5.0486  -10.1560 C   0  0  0  0  0  0  0  0  0  0  0  0
   16.6493   -4.9759  -10.7273 O   0  0  0  0  0  0  0  0  0  0  0  0
   14.9546   -3.8897   -9.7044 O   0  0  0  0  0  0  0  0  0  0  0  0
  2  3  1  0
  2  1  1  1
  3  4  1  0
  5  6  2  0
  5  2  1  0
  8  7  1  6
  8  9  1  0
  9  5  1  0
 10 11  2  0
 10  8  1  0
 13 12  1  6
 13 14  1  0
 15 13  1  0
 15 16  1  6
 16 10  1  0
 17 15  1  0
 18 17  2  0
 19 17  1  0
M  END
$$$$
