CAV.pdb
     RDKit          3D

 19 18  0  0  1  0  0  0  0  0999 V2000
   10.4151  -13.9908    1.1276 N   0  0  0  0  0  0  0  0  0  0  0  0
   11.1642  -15.1049    1.6695 C   0  0  1  0  0  0  0  0  0  0  0  0
   11.6757  -15.9634    0.5320 C   0  0  0  0  0  0  0  0  0  0  0  0
   10.2530  -16.6331   -0.3728 S   0  0  0  0  0  0  0  0  0  0  0  0
   12.2699  -14.5639    2.4918 C   0  0  0  0  0  0  0  0  0  0  0  0
   12.7748  -13.4604    2.1850 O   0  0  0  0  0  0  0  0  0  0  0  0
   13.4754  -15.2258    5.9172 C   0  0  0  0  0  0  0  0  0  0  0  0
   13.7513  -14.7961    4.4816 C   0  0  2  0  0  0  0  0  0  0  0  0
   12.7378  -15.3189    3.6237 N   0  0  0  0  0  0  0  0  0  0  0  0
   15.0931  -15.2931    4.0908 C   0  0  0  0  0  0  0  0  0  0  0  0
   15.3038  -16.4162    3.5949 O   0  0  0  0  0  0  0  0  0  0  0  0
   18.7261  -12.9523    4.7501 C   0  0  0  0  0  0  0  0  0  0  0  0
   18.4824  -13.8017    3.5171 C   0  0  2  0  0  0  0  0  0  0  0  0
   17.9639  -12.9058    2.4447 C   0  0  0  0  0  0  0  0  0  0  0  0
   17.5544  -14.9027    3.9033 C   0  0  2  0  0  0  0  0  0  0  0  0
   16.2355  -14.4693    4.2765 N   0  0  0  0  0  0  0  0  0  0  0  0
   18.0762  -15.7636    4.9761 C   0  0  0  0  0  0  0  0  0  0  0  0
   17.7294  -15.5991    6.1628 O   0  0  0  0  0  0  0  0  0  0  0  0
   18.9636  -16.7727    4.6803 O   0  0  0  0  0  0  0  0  0  0  0  0
  2  3  1  0
  2  1  1  6
  3  4  1  0
  5  6  2  0
  5  2  1  0
  8  7  1  1
  8  9  1  0
  9  5  1  0
 10 11  2  0
 10  8  1  0
 13 12  1  1
 13 14  1  0
 15 13  1  0
 15 16  1  1
 16 10  1  0
 17 15  1  0
 18 17  2  0
 19 17  1  0
M  END
$$$$
