CAV.pdb
     RDKit          3D

 19 18  0  0  1  0  0  0  0  0999 V2000
   15.6479  -12.4722  -13.6481 N   0  0  0  0  0  0  0  0  0  0  0  0
   15.7868  -11.1010  -14.0913 C   0  0  1  0  0  0  0  0  0  0  0  0
   14.5239  -10.6785  -14.8119 C   0  0  0  0  0  0  0  0  0  0  0  0
   14.5176  -11.4353  -16.4607 S   0  0  0  0  0  0  0  0  0  0  0  0
   16.0539  -10.2555  -12.9060 C   0  0  0  0  0  0  0  0  0  0  0  0
   15.4651  -10.5088  -11.8308 O   0  0  0  0  0  0  0  0  0  0  0  0
   18.5418   -7.5052  -12.2197 C   0  0  0  0  0  0  0  0  0  0  0  0
   17.3690   -8.4118  -11.8671 C   0  0  2  0  0  0  0  0  0  0  0  0
   16.9836   -9.1630  -13.0175 N   0  0  0  0  0  0  0  0  0  0  0  0
   16.2512   -7.5675  -11.3791 C   0  0  0  0  0  0  0  0  0  0  0  0
   15.3749   -7.0765  -12.1157 O   0  0  0  0  0  0  0  0  0  0  0  0
   13.5110   -5.9278   -7.6776 C   0  0  0  0  0  0  0  0  0  0  0  0
   14.6743   -6.8221   -8.0626 C   0  0  2  0  0  0  0  0  0  0  0  0
   15.7625   -6.6037   -7.0678 C   0  0  0  0  0  0  0  0  0  0  0  0
   15.0489   -6.4959   -9.4682 C   0  0  2  0  0  0  0  0  0  0  0  0
   16.1358   -7.2766   -9.9933 N   0  0  0  0  0  0  0  0  0  0  0  0
   15.3599   -5.0737   -9.6799 C   0  0  0  0  0  0  0  0  0  0  0  0
   14.4547   -4.2194   -9.7599 O   0  0  0  0  0  0  0  0  0  0  0  0
   16.6683   -4.6634   -9.7935 O   0  0  0  0  0  0  0  0  0  0  0  0
  2  3  1  0
  2  1  1  1
  3  4  1  0
  5  6  2  0
  5  2  1  0
  8  7  1  6
  8  9  1  0
  9  5  1  0
 10 11  2  0
 10  8  1  0
 13 12  1  1
 13 14  1  0
 15 13  1  0
 15 16  1  1
 16 10  1  0
 17 15  1  0
 18 17  2  0
 19 17  1  0
M  END
$$$$
