CAV.pdb
     RDKit          3D

 19 18  0  0  1  0  0  0  0  0999 V2000
   23.2431  -13.1902  -17.8032 N   0  0  0  0  0  0  0  0  0  0  0  0
   22.9473  -12.5707  -16.5285 C   0  0  1  0  0  0  0  0  0  0  0  0
   24.2055  -12.5342  -15.6869 C   0  0  0  0  0  0  0  0  0  0  0  0
   24.5765  -14.2197  -15.1274 S   0  0  0  0  0  0  0  0  0  0  0  0
   22.4165  -11.2129  -16.7850 C   0  0  0  0  0  0  0  0  0  0  0  0
   23.0703  -10.4293  -17.5099 O   0  0  0  0  0  0  0  0  0  0  0  0
   19.1257   -9.5418  -16.0708 C   0  0  0  0  0  0  0  0  0  0  0  0
   20.6009   -9.5394  -16.4521 C   0  0  2  0  0  0  0  0  0  0  0  0
   21.1624  -10.8260  -16.1955 N   0  0  0  0  0  0  0  0  0  0  0  0
   21.2892   -8.4875  -15.6646 C   0  0  0  0  0  0  0  0  0  0  0  0
   21.8414   -8.6876  -14.5661 O   0  0  0  0  0  0  0  0  0  0  0  0
   23.8773   -6.1539  -17.2151 C   0  0  0  0  0  0  0  0  0  0  0  0
   22.9029   -5.2711  -16.4584 C   0  0  2  0  0  0  0  0  0  0  0  0
   23.6891   -4.1914  -15.7969 C   0  0  0  0  0  0  0  0  0  0  0  0
   22.1397   -6.1421  -15.5196 C   0  0  2  0  0  0  0  0  0  0  0  0
   21.3452   -7.1563  -16.1574 N   0  0  0  0  0  0  0  0  0  0  0  0
   21.2743   -5.3943  -14.5942 C   0  0  0  0  0  0  0  0  0  0  0  0
   20.0945   -5.1205  -14.8918 O   0  0  0  0  0  0  0  0  0  0  0  0
   21.7613   -4.9830  -13.3749 O   0  0  0  0  0  0  0  0  0  0  0  0
  2  3  1  0
  2  1  1  6
  3  4  1  0
  5  6  2  0
  5  2  1  0
  8  7  1  1
  8  9  1  0
  9  5  1  0
 10 11  2  0
 10  8  1  0
 13 12  1  1
 13 14  1  0
 15 13  1  0
 15 16  1  6
 16 10  1  0
 17 15  1  0
 18 17  2  0
 19 17  1  0
M  END
$$$$
