CAV.pdb
     RDKit          3D

 19 18  0  0  1  0  0  0  0  0999 V2000
   23.6274  -12.9593  -17.7350 N   0  0  0  0  0  0  0  0  0  0  0  0
   23.4103  -12.3527  -16.4385 C   0  0  1  0  0  0  0  0  0  0  0  0
   24.7457  -12.1360  -15.7585 C   0  0  0  0  0  0  0  0  0  0  0  0
   25.3814  -13.7429  -15.2063 S   0  0  0  0  0  0  0  0  0  0  0  0
   22.6809  -11.0802  -16.6384 C   0  0  0  0  0  0  0  0  0  0  0  0
   23.1028  -10.2620  -17.4866 O   0  0  0  0  0  0  0  0  0  0  0  0
   19.3747   -9.7600  -15.4482 C   0  0  0  0  0  0  0  0  0  0  0  0
   20.7794   -9.5958  -16.0151 C   0  0  2  0  0  0  0  0  0  0  0  0
   21.5048  -10.8140  -15.8535 N   0  0  0  0  0  0  0  0  0  0  0  0
   21.4460   -8.4768  -15.3053 C   0  0  0  0  0  0  0  0  0  0  0  0
   22.0646   -8.6019  -14.2313 O   0  0  0  0  0  0  0  0  0  0  0  0
   22.1193   -4.6899  -17.2488 C   0  0  0  0  0  0  0  0  0  0  0  0
   22.9985   -5.3205  -16.1857 C   0  0  2  0  0  0  0  0  0  0  0  0
   24.0138   -6.1634  -16.8786 C   0  0  0  0  0  0  0  0  0  0  0  0
   22.1106   -6.0683  -15.2504 C   0  0  2  0  0  0  0  0  0  0  0  0
   21.4003   -7.1653  -15.8494 N   0  0  0  0  0  0  0  0  0  0  0  0
   21.1355   -5.2143  -14.5546 C   0  0  0  0  0  0  0  0  0  0  0  0
   21.5014   -4.3668  -13.7160 O   0  0  0  0  0  0  0  0  0  0  0  0
   19.7920   -5.3412  -14.8236 O   0  0  0  0  0  0  0  0  0  0  0  0
  2  3  1  0
  2  1  1  6
  3  4  1  0
  5  6  2  0
  5  2  1  0
  8  7  1  1
  8  9  1  0
  9  5  1  0
 10 11  2  0
 10  8  1  0
 13 12  1  6
 13 14  1  0
 15 13  1  0
 15 16  1  6
 16 10  1  0
 17 15  1  0
 18 17  2  0
 19 17  1  0
M  END
$$$$
