CAV.pdb
     RDKit          3D

 19 18  0  0  1  0  0  0  0  0999 V2000
   25.8150  -13.0763  -19.0309 N   0  0  0  0  0  0  0  0  0  0  0  0
   24.4065  -12.7838  -19.1933 C   0  0  1  0  0  0  0  0  0  0  0  0
   23.5912  -13.9499  -18.6755 C   0  0  0  0  0  0  0  0  0  0  0  0
   21.8489  -13.6707  -19.0974 S   0  0  0  0  0  0  0  0  0  0  0  0
   24.1053  -11.5328  -18.4614 C   0  0  0  0  0  0  0  0  0  0  0  0
   24.4782  -11.4171  -17.2721 O   0  0  0  0  0  0  0  0  0  0  0  0
   22.4729   -8.2733  -19.4489 C   0  0  0  0  0  0  0  0  0  0  0  0
   23.0936   -9.2560  -18.4636 C   0  0  2  0  0  0  0  0  0  0  0  0
   23.3915  -10.4801  -19.1339 N   0  0  0  0  0  0  0  0  0  0  0  0
   22.1381   -9.4734  -17.3501 C   0  0  0  0  0  0  0  0  0  0  0  0
   21.1921  -10.2828  -17.3907 O   0  0  0  0  0  0  0  0  0  0  0  0
   20.8917   -9.7459  -12.8085 C   0  0  0  0  0  0  0  0  0  0  0  0
   21.9378   -9.7062  -13.9064 C   0  0  2  0  0  0  0  0  0  0  0  0
   23.1884   -9.1454  -13.3208 C   0  0  0  0  0  0  0  0  0  0  0  0
   21.3763   -8.9130  -15.0368 C   0  0  2  0  0  0  0  0  0  0  0  0
   22.2743   -8.7335  -16.1450 N   0  0  0  0  0  0  0  0  0  0  0  0
   20.8718   -7.5907  -14.6351 C   0  0  0  0  0  0  0  0  0  0  0  0
   19.8816   -7.4775  -13.8852 O   0  0  0  0  0  0  0  0  0  0  0  0
   21.4931   -6.4491  -15.0867 O   0  0  0  0  0  0  0  0  0  0  0  0
  2  3  1  0
  2  1  1  1
  3  4  1  0
  5  6  2  0
  5  2  1  0
  8  7  1  6
  8  9  1  0
  9  5  1  0
 10 11  2  0
 10  8  1  0
 13 12  1  1
 13 14  1  0
 15 13  1  0
 15 16  1  6
 16 10  1  0
 17 15  1  0
 18 17  2  0
 19 17  1  0
M  END
$$$$
