CAV.pdb
     RDKit          3D

 19 18  0  0  1  0  0  0  0  0999 V2000
   29.4389  -21.0706  -17.6216 N   0  0  0  0  0  0  0  0  0  0  0  0
   28.2644  -21.8212  -17.2306 C   0  0  1  0  0  0  0  0  0  0  0  0
   28.6937  -23.1406  -16.6244 C   0  0  0  0  0  0  0  0  0  0  0  0
   27.2094  -24.1031  -16.2223 S   0  0  0  0  0  0  0  0  0  0  0  0
   27.4879  -21.0017  -16.2732 C   0  0  0  0  0  0  0  0  0  0  0  0
   28.0710  -20.5026  -15.2844 O   0  0  0  0  0  0  0  0  0  0  0  0
   24.1984  -19.2972  -16.3919 C   0  0  0  0  0  0  0  0  0  0  0  0
   25.3066  -19.9949  -15.6129 C   0  0  2  0  0  0  0  0  0  0  0  0
   26.0820  -20.7982  -16.5016 N   0  0  0  0  0  0  0  0  0  0  0  0
   24.6860  -20.8200  -14.5478 C   0  0  0  0  0  0  0  0  0  0  0  0
   24.2994  -21.9929  -14.7103 O   0  0  0  0  0  0  0  0  0  0  0  0
   24.7559  -19.6299  -10.3596 C   0  0  0  0  0  0  0  0  0  0  0  0
   24.8214  -21.0359  -10.9252 C   0  0  2  0  0  0  0  0  0  0  0  0
   26.2574  -21.3708  -11.1421 C   0  0  0  0  0  0  0  0  0  0  0  0
   23.9878  -21.0650  -12.1608 C   0  0  2  0  0  0  0  0  0  0  0  0
   24.5027  -20.2775  -13.2476 N   0  0  0  0  0  0  0  0  0  0  0  0
   22.5868  -20.6770  -11.9352 C   0  0  0  0  0  0  0  0  0  0  0  0
   22.1376  -19.5973  -12.3688 O   0  0  0  0  0  0  0  0  0  0  0  0
   21.7446  -21.5100  -11.2351 O   0  0  0  0  0  0  0  0  0  0  0  0
  2  3  1  0
  2  1  1  1
  3  4  1  0
  5  6  2  0
  5  2  1  0
  8  7  1  6
  8  9  1  0
  9  5  1  0
 10 11  2  0
 10  8  1  0
 13 12  1  6
 13 14  1  0
 15 13  1  0
 15 16  1  6
 16 10  1  0
 17 15  1  0
 18 17  2  0
 19 17  1  0
M  END
$$$$
