CAV.pdb
     RDKit          3D

 19 18  0  0  1  0  0  0  0  0999 V2000
   18.1303  -12.0391  -16.6238 N   0  0  0  0  0  0  0  0  0  0  0  0
   19.1784  -11.2075  -17.1769 C   0  0  1  0  0  0  0  0  0  0  0  0
   18.5863  -10.2885  -18.2245 C   0  0  0  0  0  0  0  0  0  0  0  0
   18.2367  -11.2605  -19.7160 S   0  0  0  0  0  0  0  0  0  0  0  0
   19.8025  -10.4500  -16.0688 C   0  0  0  0  0  0  0  0  0  0  0  0
   19.0690   -9.8513  -15.2501 O   0  0  0  0  0  0  0  0  0  0  0  0
   23.3074  -10.0866  -14.7699 C   0  0  0  0  0  0  0  0  0  0  0  0
   21.8770   -9.6047  -14.9781 C   0  0  2  0  0  0  0  0  0  0  0  0
   21.2368  -10.4196  -15.9591 N   0  0  0  0  0  0  0  0  0  0  0  0
   21.9159   -8.1843  -15.4038 C   0  0  0  0  0  0  0  0  0  0  0  0
   22.1736   -7.8105  -16.5638 O   0  0  0  0  0  0  0  0  0  0  0  0
   19.5190   -5.1859  -14.0658 C   0  0  0  0  0  0  0  0  0  0  0  0
   20.4803   -5.1292  -15.2379 C   0  0  2  0  0  0  0  0  0  0  0  0
   19.8223   -5.7969  -16.3965 C   0  0  0  0  0  0  0  0  0  0  0  0
   21.7583   -5.7631  -14.8050 C   0  0  2  0  0  0  0  0  0  0  0  0
   21.6488   -7.1548  -14.4619 N   0  0  0  0  0  0  0  0  0  0  0  0
   22.4136   -5.0645  -13.6883 C   0  0  0  0  0  0  0  0  0  0  0  0
   22.4704   -5.5743  -12.5515 O   0  0  0  0  0  0  0  0  0  0  0  0
   22.9785   -3.8255  -13.8864 O   0  0  0  0  0  0  0  0  0  0  0  0
  2  3  1  0
  2  1  1  1
  3  4  1  0
  5  6  2  0
  5  2  1  0
  8  7  1  6
  8  9  1  0
  9  5  1  0
 10 11  2  0
 10  8  1  0
 13 12  1  1
 13 14  1  0
 15 13  1  0
 15 16  1  1
 16 10  1  0
 17 15  1  0
 18 17  2  0
 19 17  1  0
M  END
$$$$
