CAV.pdb
     RDKit          3D

 19 18  0  0  1  0  0  0  0  0999 V2000
   18.2338  -14.8425  -15.3920 N   0  0  0  0  0  0  0  0  0  0  0  0
   17.4691  -14.4722  -16.5642 C   0  0  1  0  0  0  0  0  0  0  0  0
   16.1384  -15.1944  -16.5411 C   0  0  0  0  0  0  0  0  0  0  0  0
   16.4392  -16.9513  -16.2031 S   0  0  0  0  0  0  0  0  0  0  0  0
   17.2981  -13.0019  -16.5608 C   0  0  0  0  0  0  0  0  0  0  0  0
   16.8393  -12.4388  -17.5802 O   0  0  0  0  0  0  0  0  0  0  0  0
   16.8181  -10.3990  -14.1006 C   0  0  0  0  0  0  0  0  0  0  0  0
   17.5537  -10.8324  -15.3626 C   0  0  2  0  0  0  0  0  0  0  0  0
   17.6632  -12.2550  -15.3865 N   0  0  0  0  0  0  0  0  0  0  0  0
   18.8915  -10.1917  -15.3715 C   0  0  0  0  0  0  0  0  0  0  0  0
   19.9259  -10.7306  -14.9342 O   0  0  0  0  0  0  0  0  0  0  0  0
   22.0136   -7.1385  -17.3944 C   0  0  0  0  0  0  0  0  0  0  0  0
   20.6188   -7.7345  -17.4125 C   0  0  2  0  0  0  0  0  0  0  0  0
   19.6769   -6.6704  -17.8619 C   0  0  0  0  0  0  0  0  0  0  0  0
   20.3390   -8.2707  -16.0499 C   0  0  2  0  0  0  0  0  0  0  0  0
   19.0468   -8.8832  -15.9026 N   0  0  0  0  0  0  0  0  0  0  0  0
   20.4999   -7.2737  -14.9802 C   0  0  0  0  0  0  0  0  0  0  0  0
   19.5102   -6.7522  -14.4288 O   0  0  0  0  0  0  0  0  0  0  0  0
   21.7589   -6.8996  -14.5699 O   0  0  0  0  0  0  0  0  0  0  0  0
  2  3  1  0
  2  1  1  1
  3  4  1  0
  5  6  2  0
  5  2  1  0
  8  7  1  1
  8  9  1  0
  9  5  1  0
 10 11  2  0
 10  8  1  0
 13 12  1  1
 13 14  1  0
 15 13  1  0
 15 16  1  6
 16 10  1  0
 17 15  1  0
 18 17  2  0
 19 17  1  0
M  END
$$$$
