EQA.pdb
     RDKit          3D

 24 23  0  0  1  0  0  0  0  0999 V2000
   21.1960  -19.8390  -15.3003 N   0  0  0  0  0  0  0  0  0  0  0  0
   21.6162  -18.9638  -16.3358 C   0  0  1  0  0  0  0  0  0  0  0  0
   20.8167  -19.0319  -17.5758 C   0  0  0  0  0  0  0  0  0  0  0  0
   19.8549  -20.1658  -17.5927 C   0  0  0  0  0  0  0  0  0  0  0  0
   19.8912  -21.0112  -18.7868 C   0  0  0  0  0  0  0  0  0  0  0  0
   20.7093  -20.9487  -19.7218 O   0  0  0  0  0  0  0  0  0  0  0  0
   21.7302  -17.5661  -15.7962 C   0  0  0  0  0  0  0  0  0  0  0  0
   20.8460  -17.1263  -14.9963 O   0  0  0  0  0  0  0  0  0  0  0  0
   18.8618  -22.0011  -18.8483 O   0  0  0  0  0  0  0  0  0  0  0  0
   26.8838  -14.3212  -15.2543 N   0  0  0  0  0  0  0  0  0  0  0  0
   26.5836  -15.7112  -15.2641 C   0  0  0  0  0  0  0  0  0  0  0  0
   27.5399  -16.5112  -15.1345 O   0  0  0  0  0  0  0  0  0  0  0  0
   25.1790  -16.1393  -15.4241 C   0  0  0  0  0  0  0  0  0  0  0  0
   24.3192  -14.8971  -15.5315 C   0  0  0  0  0  0  0  0  0  0  0  0
   22.9163  -15.3173  -15.7873 C   0  0  2  0  0  0  0  0  0  0  0  0
   22.8036  -16.7240  -16.1606 N   0  0  0  0  0  0  0  0  0  0  0  0
   22.2856  -14.4382  -16.8092 C   0  0  0  0  0  0  0  0  0  0  0  0
   22.5098  -14.4841  -18.0385 O   0  0  0  0  0  0  0  0  0  0  0  0
   19.5426  -11.9494  -16.5951 C   0  0  0  0  0  0  0  0  0  0  0  0
   20.7917  -12.5044  -17.2638 C   0  0  2  0  0  0  0  0  0  0  0  0
   21.3530  -13.4686  -16.3518 N   0  0  0  0  0  0  0  0  0  0  0  0
   21.7899  -11.4419  -17.5078 C   0  0  0  0  0  0  0  0  0  0  0  0
   21.6011  -10.5729  -18.5667 O   0  0  0  0  0  0  0  0  0  0  0  0
   22.8116  -11.2858  -16.7956 O   0  0  0  0  0  0  0  0  0  0  0  0
  2  3  1  0
  2  1  1  1
  4  3  1  0
  5  4  1  0
  5  6  2  0
  7  8  2  0
  7  2  1  0
  9  5  1  0
 10 11  1  0
 11 13  1  0
 12 11  2  0
 13 14  1  0
 15 14  1  6
 15 16  1  0
 16  7  1  0
 17 15  1  0
 18 17  2  0
 20 19  1  1
 20 22  1  0
 20 21  1  0
 21 17  1  0
 22 23  1  0
 24 22  2  0
M  END
$$$$
