EQA.pdb
     RDKit          3D

 24 23  0  0  1  0  0  0  0  0999 V2000
   25.4763  -18.4991  -17.1503 N   0  0  0  0  0  0  0  0  0  0  0  0
   24.6107  -19.5981  -16.9103 C   0  0  1  0  0  0  0  0  0  0  0  0
   25.2815  -20.9084  -16.7887 C   0  0  0  0  0  0  0  0  0  0  0  0
   26.5768  -20.8396  -16.0618 C   0  0  0  0  0  0  0  0  0  0  0  0
   27.3100  -22.1013  -15.9503 C   0  0  0  0  0  0  0  0  0  0  0  0
   26.9974  -23.1941  -16.4557 O   0  0  0  0  0  0  0  0  0  0  0  0
   23.7229  -19.2909  -15.7377 C   0  0  0  0  0  0  0  0  0  0  0  0
   24.2138  -18.7364  -14.7049 O   0  0  0  0  0  0  0  0  0  0  0  0
   28.5057  -22.0294  -15.1704 O   0  0  0  0  0  0  0  0  0  0  0  0
   18.2397  -16.9518  -15.6852 N   0  0  0  0  0  0  0  0  0  0  0  0
   19.5327  -16.4481  -15.9964 C   0  0  0  0  0  0  0  0  0  0  0  0
   19.5989  -15.3279  -16.5551 O   0  0  0  0  0  0  0  0  0  0  0  0
   20.7188  -17.2578  -15.6511 C   0  0  0  0  0  0  0  0  0  0  0  0
   20.2377  -18.5637  -15.0536 C   0  0  0  0  0  0  0  0  0  0  0  0
   21.4255  -19.3620  -14.6508 C   0  0  2  0  0  0  0  0  0  0  0  0
   22.3468  -19.6073  -15.7563 N   0  0  0  0  0  0  0  0  0  0  0  0
   21.0049  -20.6372  -14.0091 C   0  0  0  0  0  0  0  0  0  0  0  0
   20.8049  -21.7158  -14.6093 O   0  0  0  0  0  0  0  0  0  0  0  0
   20.4528  -21.5079  -10.4234 C   0  0  0  0  0  0  0  0  0  0  0  0
   20.3965  -21.8229  -11.9110 C   0  0  2  0  0  0  0  0  0  0  0  0
   20.8158  -20.6292  -12.6008 N   0  0  0  0  0  0  0  0  0  0  0  0
   19.0229  -22.1627  -12.3385 C   0  0  0  0  0  0  0  0  0  0  0  0
   18.5892  -23.4711  -12.2282 O   0  0  0  0  0  0  0  0  0  0  0  0
   18.2207  -21.3157  -12.8017 O   0  0  0  0  0  0  0  0  0  0  0  0
  2  3  1  0
  2  1  1  1
  4  3  1  0
  5  4  1  0
  5  6  2  0
  7  8  2  0
  7  2  1  0
  9  5  1  0
 10 11  1  0
 11 13  1  0
 12 11  2  0
 13 14  1  0
 15 14  1  6
 15 16  1  0
 16  7  1  0
 17 15  1  0
 18 17  2  0
 20 19  1  1
 20 22  1  0
 20 21  1  0
 21 17  1  0
 22 23  1  0
 24 22  2  0
M  END
$$$$
