EQA.pdb
     RDKit          3D

 24 23  0  0  1  0  0  0  0  0999 V2000
   20.3555  -13.0884  -16.6898 N   0  0  0  0  0  0  0  0  0  0  0  0
   20.4195  -11.7394  -17.1268 C   0  0  1  0  0  0  0  0  0  0  0  0
   19.1159  -11.1211  -17.4425 C   0  0  0  0  0  0  0  0  0  0  0  0
   18.4707  -11.6966  -18.6522 C   0  0  0  0  0  0  0  0  0  0  0  0
   18.7867  -11.0319  -19.9172 C   0  0  0  0  0  0  0  0  0  0  0  0
   18.0108  -10.3651  -20.6249 O   0  0  0  0  0  0  0  0  0  0  0  0
   21.2214  -10.9316  -16.1459 C   0  0  0  0  0  0  0  0  0  0  0  0
   21.0180  -11.0728  -14.8994 O   0  0  0  0  0  0  0  0  0  0  0  0
   20.1394  -11.1887  -20.3518 O   0  0  0  0  0  0  0  0  0  0  0  0
   27.0618   -9.8875  -16.3522 N   0  0  0  0  0  0  0  0  0  0  0  0
   26.3536  -10.9270  -15.6887 C   0  0  0  0  0  0  0  0  0  0  0  0
   27.0044  -11.9396  -15.3388 O   0  0  0  0  0  0  0  0  0  0  0  0
   24.9054  -10.7656  -15.4471 C   0  0  0  0  0  0  0  0  0  0  0  0
   24.4949   -9.3982  -15.9525 C   0  0  0  0  0  0  0  0  0  0  0  0
   23.0426   -9.2169  -15.6907 C   0  0  2  0  0  0  0  0  0  0  0  0
   22.2014  -10.0123  -16.5800 N   0  0  0  0  0  0  0  0  0  0  0  0
   22.6765   -7.7757  -15.7517 C   0  0  0  0  0  0  0  0  0  0  0  0
   22.5070   -7.1177  -16.8014 O   0  0  0  0  0  0  0  0  0  0  0  0
   21.7644   -5.3679  -13.0606 C   0  0  0  0  0  0  0  0  0  0  0  0
   22.1416   -5.6976  -14.4974 C   0  0  2  0  0  0  0  0  0  0  0  0
   22.5052   -7.0919  -14.5180 N   0  0  0  0  0  0  0  0  0  0  0  0
   23.2992   -4.8965  -14.9482 C   0  0  0  0  0  0  0  0  0  0  0  0
   23.0894   -3.6042  -15.3932 O   0  0  0  0  0  0  0  0  0  0  0  0
   24.4758   -5.3335  -14.9482 O   0  0  0  0  0  0  0  0  0  0  0  0
  2  3  1  0
  2  1  1  1
  4  3  1  0
  5  4  1  0
  5  6  2  0
  7  8  2  0
  7  2  1  0
  9  5  1  0
 10 11  1  0
 11 13  1  0
 12 11  2  0
 13 14  1  0
 15 14  1  6
 15 16  1  0
 16  7  1  0
 17 15  1  0
 18 17  2  0
 20 19  1  1
 20 22  1  0
 20 21  1  0
 21 17  1  0
 22 23  1  0
 24 22  2  0
M  END
$$$$
