EQA.pdb
     RDKit          3D

 24 23  0  0  1  0  0  0  0  0999 V2000
   15.1442  -11.0919  -14.6835 N   0  0  0  0  0  0  0  0  0  0  0  0
   16.3720  -10.9367  -13.9883 C   0  0  1  0  0  0  0  0  0  0  0  0
   17.5622  -11.4479  -14.6981 C   0  0  0  0  0  0  0  0  0  0  0  0
   17.5383  -12.9211  -14.8986 C   0  0  0  0  0  0  0  0  0  0  0  0
   18.7206  -13.4931  -15.5443 C   0  0  0  0  0  0  0  0  0  0  0  0
   18.9484  -14.6980  -15.7529 O   0  0  0  0  0  0  0  0  0  0  0  0
   16.5261   -9.5062  -13.5550 C   0  0  0  0  0  0  0  0  0  0  0  0
   16.1845   -8.5697  -14.3432 O   0  0  0  0  0  0  0  0  0  0  0  0
   19.6930  -12.5338  -15.9655 O   0  0  0  0  0  0  0  0  0  0  0  0
   15.4713   -6.7510   -8.2908 N   0  0  0  0  0  0  0  0  0  0  0  0
   16.2992   -5.7609   -8.8881 C   0  0  0  0  0  0  0  0  0  0  0  0
   16.3853   -4.6521   -8.3098 O   0  0  0  0  0  0  0  0  0  0  0  0
   17.0077   -6.0824  -10.1436 C   0  0  0  0  0  0  0  0  0  0  0  0
   16.6777   -7.5129  -10.5156 C   0  0  0  0  0  0  0  0  0  0  0  0
   17.3117   -7.8160  -11.8258 C   0  0  2  0  0  0  0  0  0  0  0  0
   17.0462   -9.1763  -12.2844 N   0  0  0  0  0  0  0  0  0  0  0  0
   18.7736   -7.5421  -11.7747 C   0  0  0  0  0  0  0  0  0  0  0  0
   19.5623   -7.9896  -10.9138 O   0  0  0  0  0  0  0  0  0  0  0  0
   21.0969   -6.9710  -14.3377 C   0  0  0  0  0  0  0  0  0  0  0  0
   20.7441   -6.5491  -12.9189 C   0  0  2  0  0  0  0  0  0  0  0  0
   19.3177   -6.7050  -12.7858 N   0  0  0  0  0  0  0  0  0  0  0  0
   21.0936   -5.1338  -12.6747 C   0  0  0  0  0  0  0  0  0  0  0  0
   22.4198   -4.7930  -12.4817 O   0  0  0  0  0  0  0  0  0  0  0  0
   20.2395   -4.2150  -12.6327 O   0  0  0  0  0  0  0  0  0  0  0  0
  2  3  1  0
  2  1  1  6
  4  3  1  0
  5  4  1  0
  5  6  2  0
  7  8  2  0
  7  2  1  0
  9  5  1  0
 10 11  1  0
 11 13  1  0
 12 11  2  0
 13 14  1  0
 15 14  1  1
 15 16  1  0
 16  7  1  0
 17 15  1  0
 18 17  2  0
 20 19  1  6
 20 22  1  0
 20 21  1  0
 21 17  1  0
 22 23  1  0
 24 22  2  0
M  END
$$$$
