EQA.pdb
     RDKit          3D

 24 23  0  0  1  0  0  0  0  0999 V2000
   16.6639  -11.4441  -14.2532 N   0  0  0  0  0  0  0  0  0  0  0  0
   15.7215  -10.5531  -13.6763 C   0  0  1  0  0  0  0  0  0  0  0  0
   14.4986  -11.1913  -13.1483 C   0  0  0  0  0  0  0  0  0  0  0  0
   13.7606  -11.9809  -14.1695 C   0  0  0  0  0  0  0  0  0  0  0  0
   12.5719  -12.6866  -13.6892 C   0  0  0  0  0  0  0  0  0  0  0  0
   12.1194  -12.6849  -12.5304 O   0  0  0  0  0  0  0  0  0  0  0  0
   16.4080   -9.6863  -12.6589 C   0  0  0  0  0  0  0  0  0  0  0  0
   16.1629   -9.8519  -11.4230 O   0  0  0  0  0  0  0  0  0  0  0  0
   11.8859  -13.4469  -14.6865 O   0  0  0  0  0  0  0  0  0  0  0  0
   21.3809   -5.9550  -13.6559 N   0  0  0  0  0  0  0  0  0  0  0  0
   21.1760   -5.8181  -12.2553 C   0  0  0  0  0  0  0  0  0  0  0  0
   22.0339   -5.1764  -11.6045 O   0  0  0  0  0  0  0  0  0  0  0  0
   19.9789   -6.4300  -11.6436 C   0  0  0  0  0  0  0  0  0  0  0  0
   19.1954   -7.1242  -12.7382 C   0  0  0  0  0  0  0  0  0  0  0  0
   18.0209   -7.7957  -12.1218 C   0  0  2  0  0  0  0  0  0  0  0  0
   17.3242   -8.6843  -13.0470 N   0  0  0  0  0  0  0  0  0  0  0  0
   17.0906   -6.7908  -11.5391 C   0  0  0  0  0  0  0  0  0  0  0  0
   16.4036   -5.9774  -12.1948 O   0  0  0  0  0  0  0  0  0  0  0  0
   15.9028   -6.3231   -8.0461 C   0  0  0  0  0  0  0  0  0  0  0  0
   16.0333   -5.8619   -9.4903 C   0  0  2  0  0  0  0  0  0  0  0  0
   16.9729   -6.7524  -10.1235 N   0  0  0  0  0  0  0  0  0  0  0  0
   16.5566   -4.4818   -9.5704 C   0  0  0  0  0  0  0  0  0  0  0  0
   17.7840   -4.2622  -10.1682 O   0  0  0  0  0  0  0  0  0  0  0  0
   15.9376   -3.4877   -9.1187 O   0  0  0  0  0  0  0  0  0  0  0  0
  2  3  1  0
  2  1  1  1
  4  3  1  0
  5  4  1  0
  5  6  2  0
  7  8  2  0
  7  2  1  0
  9  5  1  0
 10 11  1  0
 11 13  1  0
 12 11  2  0
 13 14  1  0
 15 14  1  6
 15 16  1  0
 16  7  1  0
 17 15  1  0
 18 17  2  0
 20 19  1  1
 20 22  1  0
 20 21  1  0
 21 17  1  0
 22 23  1  0
 24 22  2  0
M  END
$$$$
