EQA.pdb
     RDKit          3D

 24 23  0  0  1  0  0  0  0  0999 V2000
   16.4985  -10.4913  -16.5079 N   0  0  0  0  0  0  0  0  0  0  0  0
   16.8308  -10.4769  -15.1280 C   0  0  1  0  0  0  0  0  0  0  0  0
   16.8077  -11.7964  -14.4648 C   0  0  0  0  0  0  0  0  0  0  0  0
   16.3323  -12.8910  -15.3517 C   0  0  0  0  0  0  0  0  0  0  0  0
   16.4395  -14.2439  -14.8038 C   0  0  0  0  0  0  0  0  0  0  0  0
   17.4129  -15.0127  -14.8973 O   0  0  0  0  0  0  0  0  0  0  0  0
   18.1332   -9.7533  -14.9330 C   0  0  0  0  0  0  0  0  0  0  0  0
   18.6397   -9.6717  -13.7703 O   0  0  0  0  0  0  0  0  0  0  0  0
   15.2834  -14.6930  -14.0932 O   0  0  0  0  0  0  0  0  0  0  0  0
   23.0396   -8.3704  -18.7217 N   0  0  0  0  0  0  0  0  0  0  0  0
   22.7103   -9.6923  -18.3136 C   0  0  0  0  0  0  0  0  0  0  0  0
   23.4565  -10.6214  -18.7027 O   0  0  0  0  0  0  0  0  0  0  0  0
   21.5216   -9.9039  -17.4628 C   0  0  0  0  0  0  0  0  0  0  0  0
   20.8465   -8.5637  -17.2581 C   0  0  0  0  0  0  0  0  0  0  0  0
   20.1514   -8.5834  -15.9440 C   0  0  2  0  0  0  0  0  0  0  0  0
   18.8111   -9.1570  -16.0187 N   0  0  0  0  0  0  0  0  0  0  0  0
   20.1197   -7.2196  -15.3491 C   0  0  0  0  0  0  0  0  0  0  0  0
   19.2569   -6.3471  -15.5895 O   0  0  0  0  0  0  0  0  0  0  0  0
   21.9431   -5.7439  -12.5034 C   0  0  0  0  0  0  0  0  0  0  0  0
   21.1842   -5.5816  -13.8123 C   0  0  2  0  0  0  0  0  0  0  0  0
   21.1526   -6.8814  -14.4337 N   0  0  0  0  0  0  0  0  0  0  0  0
   21.8693   -4.6365  -14.7192 C   0  0  0  0  0  0  0  0  0  0  0  0
   21.7658   -3.2789  -14.4776 O   0  0  0  0  0  0  0  0  0  0  0  0
   22.5477   -5.0066  -15.7082 O   0  0  0  0  0  0  0  0  0  0  0  0
  2  3  1  0
  2  1  1  6
  4  3  1  0
  5  4  1  0
  5  6  2  0
  7  8  2  0
  7  2  1  0
  9  5  1  0
 10 11  1  0
 11 13  1  0
 12 11  2  0
 13 14  1  0
 15 14  1  6
 15 16  1  0
 16  7  1  0
 17 15  1  0
 18 17  2  0
 20 19  1  1
 20 22  1  0
 20 21  1  0
 21 17  1  0
 22 23  1  0
 24 22  2  0
M  END
$$$$
