EQA.pdb
     RDKit          3D

 24 23  0  0  1  0  0  0  0  0999 V2000
   16.0870   -9.6721  -14.2537 N   0  0  0  0  0  0  0  0  0  0  0  0
   16.9050   -8.5955  -13.8217 C   0  0  1  0  0  0  0  0  0  0  0  0
   17.7865   -8.0234  -14.8596 C   0  0  0  0  0  0  0  0  0  0  0  0
   18.8599   -8.9548  -15.2968 C   0  0  0  0  0  0  0  0  0  0  0  0
   20.0468   -9.0018  -14.4417 C   0  0  0  0  0  0  0  0  0  0  0  0
   20.2544   -8.3316  -13.4145 O   0  0  0  0  0  0  0  0  0  0  0  0
   16.0533   -7.5569  -13.1482 C   0  0  0  0  0  0  0  0  0  0  0  0
   14.8904   -7.3092  -13.5970 O   0  0  0  0  0  0  0  0  0  0  0  0
   21.0504   -9.9275  -14.8648 O   0  0  0  0  0  0  0  0  0  0  0  0
   15.0002   -6.5529   -7.3517 N   0  0  0  0  0  0  0  0  0  0  0  0
   14.2712   -7.3360   -8.2886 C   0  0  0  0  0  0  0  0  0  0  0  0
   13.4635   -8.1799   -7.8339 O   0  0  0  0  0  0  0  0  0  0  0  0
   14.4976   -7.1200   -9.7321 C   0  0  0  0  0  0  0  0  0  0  0  0
   15.5823   -6.0743   -9.8857 C   0  0  0  0  0  0  0  0  0  0  0  0
   15.7669   -5.7980  -11.3349 C   0  0  2  0  0  0  0  0  0  0  0  0
   16.5186   -6.8442  -12.0215 N   0  0  0  0  0  0  0  0  0  0  0  0
   16.3957   -4.4643  -11.5366 C   0  0  0  0  0  0  0  0  0  0  0  0
   17.6159   -4.2167  -11.4215 O   0  0  0  0  0  0  0  0  0  0  0  0
   15.0938   -1.3081  -12.9524 C   0  0  0  0  0  0  0  0  0  0  0  0
   16.0711   -2.0557  -12.0571 C   0  0  2  0  0  0  0  0  0  0  0  0
   15.5411   -3.3851  -11.8889 N   0  0  0  0  0  0  0  0  0  0  0  0
   16.1834   -1.4160  -10.7292 C   0  0  0  0  0  0  0  0  0  0  0  0
   16.9753   -0.2909  -10.5903 O   0  0  0  0  0  0  0  0  0  0  0  0
   15.5906   -1.8459   -9.7099 O   0  0  0  0  0  0  0  0  0  0  0  0
  2  3  1  0
  2  1  1  6
  4  3  1  0
  5  4  1  0
  5  6  2  0
  7  8  2  0
  7  2  1  0
  9  5  1  0
 10 11  1  0
 11 13  1  0
 12 11  2  0
 13 14  1  0
 15 14  1  1
 15 16  1  0
 16  7  1  0
 17 15  1  0
 18 17  2  0
 20 19  1  6
 20 22  1  0
 20 21  1  0
 21 17  1  0
 22 23  1  0
 24 22  2  0
M  END
$$$$
