EQA.pdb
     RDKit          3D

 24 23  0  0  1  0  0  0  0  0999 V2000
   27.2784  -19.7517  -16.4103 N   0  0  0  0  0  0  0  0  0  0  0  0
   26.1362  -18.9131  -16.4930 C   0  0  1  0  0  0  0  0  0  0  0  0
   25.7614  -18.4988  -17.8602 C   0  0  0  0  0  0  0  0  0  0  0  0
   26.8198  -18.7736  -18.8678 C   0  0  0  0  0  0  0  0  0  0  0  0
   27.5721  -17.6073  -19.3325 C   0  0  0  0  0  0  0  0  0  0  0  0
   28.5258  -17.6033  -20.1311 O   0  0  0  0  0  0  0  0  0  0  0  0
   24.9954  -19.5438  -15.7457 C   0  0  0  0  0  0  0  0  0  0  0  0
   24.0346  -20.0692  -16.3906 O   0  0  0  0  0  0  0  0  0  0  0  0
   27.1346  -16.3599  -18.7887 O   0  0  0  0  0  0  0  0  0  0  0  0
   24.6915  -20.5857   -9.5130 N   0  0  0  0  0  0  0  0  0  0  0  0
   23.4820  -21.1723   -9.9771 C   0  0  0  0  0  0  0  0  0  0  0  0
   22.7604  -21.7556   -9.1342 O   0  0  0  0  0  0  0  0  0  0  0  0
   23.1391  -21.0676  -11.4099 C   0  0  0  0  0  0  0  0  0  0  0  0
   24.2693  -20.3432  -12.1112 C   0  0  0  0  0  0  0  0  0  0  0  0
   23.8938  -20.1552  -13.5373 C   0  0  2  0  0  0  0  0  0  0  0  0
   24.9653  -19.5653  -14.3341 N   0  0  0  0  0  0  0  0  0  0  0  0
   22.6416  -19.3583  -13.6473 C   0  0  0  0  0  0  0  0  0  0  0  0
   22.5070  -18.1709  -13.2794 O   0  0  0  0  0  0  0  0  0  0  0  0
   19.4808  -20.0184  -15.4562 C   0  0  0  0  0  0  0  0  0  0  0  0
   20.2691  -19.2802  -14.3842 C   0  0  2  0  0  0  0  0  0  0  0  0
   21.5076  -19.9977  -14.2166 N   0  0  0  0  0  0  0  0  0  0  0  0
   19.5464  -19.2694  -13.0949 C   0  0  0  0  0  0  0  0  0  0  0  0
   18.7089  -18.2084  -12.8031 O   0  0  0  0  0  0  0  0  0  0  0  0
   19.6547  -20.1834  -12.2416 O   0  0  0  0  0  0  0  0  0  0  0  0
  2  3  1  0
  2  1  1  6
  4  3  1  0
  5  4  1  0
  5  6  2  0
  7  8  2  0
  7  2  1  0
  9  5  1  0
 10 11  1  0
 11 13  1  0
 12 11  2  0
 13 14  1  0
 15 14  1  1
 15 16  1  0
 16  7  1  0
 17 15  1  0
 18 17  2  0
 20 19  1  6
 20 22  1  0
 20 21  1  0
 21 17  1  0
 22 23  1  0
 24 22  2  0
M  END
$$$$
