EQA.pdb
     RDKit          3D

 24 23  0  0  1  0  0  0  0  0999 V2000
   27.1515  -22.8962  -16.8084 N   0  0  0  0  0  0  0  0  0  0  0  0
   27.9032  -21.8598  -16.1957 C   0  0  1  0  0  0  0  0  0  0  0  0
   28.7475  -21.0710  -17.1159 C   0  0  0  0  0  0  0  0  0  0  0  0
   27.9734  -20.4022  -18.1950 C   0  0  0  0  0  0  0  0  0  0  0  0
   28.7566  -19.5940  -19.1306 C   0  0  0  0  0  0  0  0  0  0  0  0
   28.3178  -18.8810  -20.0506 O   0  0  0  0  0  0  0  0  0  0  0  0
   26.9909  -21.0008  -15.3666 C   0  0  0  0  0  0  0  0  0  0  0  0
   27.4807  -20.0770  -14.6443 O   0  0  0  0  0  0  0  0  0  0  0  0
   30.1711  -19.6572  -18.9341 O   0  0  0  0  0  0  0  0  0  0  0  0
   21.4217  -18.3145  -15.2391 N   0  0  0  0  0  0  0  0  0  0  0  0
   22.5804  -17.8460  -15.9176 C   0  0  0  0  0  0  0  0  0  0  0  0
   22.5433  -16.6875  -16.3950 O   0  0  0  0  0  0  0  0  0  0  0  0
   23.7553  -18.7346  -16.0256 C   0  0  0  0  0  0  0  0  0  0  0  0
   23.4374  -20.0235  -15.2965 C   0  0  0  0  0  0  0  0  0  0  0  0
   24.6482  -20.4501  -14.5465 C   0  0  2  0  0  0  0  0  0  0  0  0
   25.5927  -21.1983  -15.3706 N   0  0  0  0  0  0  0  0  0  0  0  0
   24.2661  -21.2216  -13.3326 C   0  0  0  0  0  0  0  0  0  0  0  0
   23.7036  -22.3383  -13.3343 O   0  0  0  0  0  0  0  0  0  0  0  0
   24.8998  -20.6366   -9.7174 C   0  0  0  0  0  0  0  0  0  0  0  0
   24.1027  -21.2618  -10.8527 C   0  0  2  0  0  0  0  0  0  0  0  0
   24.5648  -20.6432  -12.0695 N   0  0  0  0  0  0  0  0  0  0  0  0
   22.6557  -20.9987  -10.7042 C   0  0  0  0  0  0  0  0  0  0  0  0
   21.9324  -21.7262   -9.7770 O   0  0  0  0  0  0  0  0  0  0  0  0
   22.0427  -20.1398  -11.3837 O   0  0  0  0  0  0  0  0  0  0  0  0
  2  3  1  0
  2  1  1  6
  4  3  1  0
  5  4  1  0
  5  6  2  0
  7  8  2  0
  7  2  1  0
  9  5  1  0
 10 11  1  0
 11 13  1  0
 12 11  2  0
 13 14  1  0
 15 14  1  6
 15 16  1  0
 16  7  1  0
 17 15  1  0
 18 17  2  0
 20 19  1  1
 20 22  1  0
 20 21  1  0
 21 17  1  0
 22 23  1  0
 24 22  2  0
M  END
$$$$
