EQA.pdb
     RDKit          3D

 24 23  0  0  1  0  0  0  0  0999 V2000
   23.6116  -11.5399  -16.4146 N   0  0  0  0  0  0  0  0  0  0  0  0
   23.0984  -11.1601  -17.6823 C   0  0  1  0  0  0  0  0  0  0  0  0
   22.4528  -12.2462  -18.4473 C   0  0  0  0  0  0  0  0  0  0  0  0
   21.3438  -12.9058  -17.7084 C   0  0  0  0  0  0  0  0  0  0  0  0
   21.4366  -14.3617  -17.5913 C   0  0  0  0  0  0  0  0  0  0  0  0
   22.2421  -15.1082  -18.1753 O   0  0  0  0  0  0  0  0  0  0  0  0
   22.2125   -9.9566  -17.5251 C   0  0  0  0  0  0  0  0  0  0  0  0
   21.8104   -9.3322  -18.5562 O   0  0  0  0  0  0  0  0  0  0  0  0
   20.4842  -14.9505  -16.7027 O   0  0  0  0  0  0  0  0  0  0  0  0
   17.2778   -8.9489  -14.4026 N   0  0  0  0  0  0  0  0  0  0  0  0
   17.5981   -7.5995  -14.7173 C   0  0  0  0  0  0  0  0  0  0  0  0
   16.7301   -6.7273  -14.4781 O   0  0  0  0  0  0  0  0  0  0  0  0
   18.9196   -7.2951  -15.3026 C   0  0  0  0  0  0  0  0  0  0  0  0
   19.7054   -8.5872  -15.3847 C   0  0  0  0  0  0  0  0  0  0  0  0
   21.0226   -8.2973  -16.0103 C   0  0  2  0  0  0  0  0  0  0  0  0
   21.8150   -9.4997  -16.2494 N   0  0  0  0  0  0  0  0  0  0  0  0
   21.7805   -7.3074  -15.1975 C   0  0  0  0  0  0  0  0  0  0  0  0
   22.3503   -7.5501  -14.1113 O   0  0  0  0  0  0  0  0  0  0  0  0
   22.6548   -3.7441  -15.8492 C   0  0  0  0  0  0  0  0  0  0  0  0
   22.5197   -4.9494  -14.9303 C   0  0  2  0  0  0  0  0  0  0  0  0
   21.8641   -5.9793  -15.6959 N   0  0  0  0  0  0  0  0  0  0  0  0
   21.6914   -4.6350  -13.7471 C   0  0  0  0  0  0  0  0  0  0  0  0
   22.2788   -4.0092  -12.6629 O   0  0  0  0  0  0  0  0  0  0  0  0
   20.4689   -4.9099  -13.6746 O   0  0  0  0  0  0  0  0  0  0  0  0
  2  3  1  0
  2  1  1  1
  4  3  1  0
  5  4  1  0
  5  6  2  0
  7  8  2  0
  7  2  1  0
  9  5  1  0
 10 11  1  0
 11 13  1  0
 12 11  2  0
 13 14  1  0
 15 14  1  1
 15 16  1  0
 16  7  1  0
 17 15  1  0
 18 17  2  0
 20 19  1  6
 20 22  1  0
 20 21  1  0
 21 17  1  0
 22 23  1  0
 24 22  2  0
M  END
$$$$
