EQA.pdb
     RDKit          3D

 24 23  0  0  1  0  0  0  0  0999 V2000
   17.2711   -9.3775  -12.9553 N   0  0  0  0  0  0  0  0  0  0  0  0
   16.9159   -9.2806  -14.3261 C   0  0  1  0  0  0  0  0  0  0  0  0
   16.3864  -10.5226  -14.9249 C   0  0  0  0  0  0  0  0  0  0  0  0
   17.4360  -11.5436  -15.1833 C   0  0  0  0  0  0  0  0  0  0  0  0
   16.9663  -12.8062  -15.7554 C   0  0  0  0  0  0  0  0  0  0  0  0
   16.8621  -13.0861  -16.9630 O   0  0  0  0  0  0  0  0  0  0  0  0
   16.0009   -8.1055  -14.5256 C   0  0  0  0  0  0  0  0  0  0  0  0
   15.6177   -7.7981  -15.6976 O   0  0  0  0  0  0  0  0  0  0  0  0
   16.5979  -13.7967  -14.7930 O   0  0  0  0  0  0  0  0  0  0  0  0
   11.9030   -6.2111  -10.5265 N   0  0  0  0  0  0  0  0  0  0  0  0
   11.6735   -7.1001  -11.6126 C   0  0  0  0  0  0  0  0  0  0  0  0
   10.6442   -7.8142  -11.5690 O   0  0  0  0  0  0  0  0  0  0  0  0
   12.6456   -7.1386  -12.7240 C   0  0  0  0  0  0  0  0  0  0  0  0
   13.6810   -6.0607  -12.4794 C   0  0  0  0  0  0  0  0  0  0  0  0
   14.7091   -6.1450  -13.5500 C   0  0  2  0  0  0  0  0  0  0  0  0
   15.5549   -7.3291  -13.4337 N   0  0  0  0  0  0  0  0  0  0  0  0
   15.5271   -4.9022  -13.5880 C   0  0  0  0  0  0  0  0  0  0  0  0
   16.5955   -4.7219  -12.9638 O   0  0  0  0  0  0  0  0  0  0  0  0
   15.4260   -1.9408  -15.7856 C   0  0  0  0  0  0  0  0  0  0  0  0
   15.7711   -2.5839  -14.4504 C   0  0  2  0  0  0  0  0  0  0  0  0
   15.0569   -3.8345  -14.3992 N   0  0  0  0  0  0  0  0  0  0  0  0
   15.3364   -1.7402  -13.3173 C   0  0  0  0  0  0  0  0  0  0  0  0
   16.1331   -0.6805  -12.9244 O   0  0  0  0  0  0  0  0  0  0  0  0
   14.2697   -1.9380  -12.6861 O   0  0  0  0  0  0  0  0  0  0  0  0
  2  3  1  0
  2  1  1  1
  4  3  1  0
  5  4  1  0
  5  6  2  0
  7  8  2  0
  7  2  1  0
  9  5  1  0
 10 11  1  0
 11 13  1  0
 12 11  2  0
 13 14  1  0
 15 14  1  1
 15 16  1  0
 16  7  1  0
 17 15  1  0
 18 17  2  0
 20 19  1  6
 20 22  1  0
 20 21  1  0
 21 17  1  0
 22 23  1  0
 24 22  2  0
M  END
$$$$
