VYI.pdb
     RDKit          3D

 28 28  0  0  1  0  0  0  0  0999 V2000
    9.7512  -20.6050   21.6396 C   0  0  0  0  0  0  0  0  0  0  0  0
    9.8594  -19.1887   22.2270 C   0  0  2  0  0  0  0  0  0  0  0  0
    9.1614  -19.2339   23.5448 C   0  0  0  0  0  0  0  0  0  0  0  0
    9.2403  -18.2294   21.2279 C   0  0  2  0  0  0  0  0  0  0  0  0
    9.9283  -18.4325   19.9389 N   0  0  0  0  0  0  0  0  0  0  0  0
    9.3737  -16.8193   21.5839 C   0  0  0  0  0  0  0  0  0  0  0  0
   10.5006  -16.2426   21.4352 O   0  0  0  0  0  0  0  0  0  0  0  0
    7.8306  -13.9532   15.9276 O   0  0  0  0  0  0  0  0  0  0  0  0
    7.6925  -13.9453   17.3185 C   0  0  0  0  0  0  0  0  0  0  0  0
    8.1294  -12.8720   18.0773 C   0  0  0  0  0  0  0  0  0  0  0  0
    8.0112  -12.8266   19.4488 C   0  0  0  0  0  0  0  0  0  0  0  0
    7.4379  -13.8787   20.1262 C   0  0  0  0  0  0  0  0  0  0  0  0
    7.2827  -13.8877   21.6047 C   0  0  0  0  0  0  0  0  0  0  0  0
    8.5017  -14.5498   22.2551 C   0  0  2  0  0  0  0  0  0  0  0  0
    8.3500  -15.9822   22.0970 N   0  0  0  0  0  0  0  0  0  0  0  0
    8.6015  -14.1645   23.6861 C   0  0  0  0  0  0  0  0  0  0  0  0
    8.7402  -12.9595   23.9420 O   0  0  0  0  0  0  0  0  0  0  0  0
    6.9953  -14.9584   19.3929 C   0  0  0  0  0  0  0  0  0  0  0  0
    7.1236  -14.9832   18.0190 C   0  0  0  0  0  0  0  0  0  0  0  0
    6.5263  -11.7135   26.3019 C   0  0  0  0  0  0  0  0  0  0  0  0
    7.6247  -12.6632   25.8131 C   0  0  0  0  0  0  0  0  0  0  0  0
    7.4854  -13.9537   26.5457 C   0  0  2  0  0  0  0  0  0  0  0  0
    7.6469  -13.6167   28.0317 C   0  0  0  0  0  0  0  0  0  0  0  0
    8.5508  -14.9397   26.1177 C   0  0  2  0  0  0  0  0  0  0  0  0
    8.5400  -15.1323   24.6973 N   0  0  0  0  0  0  0  0  0  0  0  0
    8.5245  -16.1894   26.8792 C   0  0  0  0  0  0  0  0  0  0  0  0
    8.2623  -17.4312   26.3554 O   0  0  0  0  0  0  0  0  0  0  0  0
    8.7626  -16.1384   28.1335 O   0  0  0  0  0  0  0  0  0  0  0  0
  2  1  1  6
  3  2  1  0
  4  2  1  0
  4  5  1  6
  6  7  2  0
  6  4  1  0
  9  8  1  0
 10  9  2  0
 11 12  2  0
 11 10  1  0
 12 18  1  0
 14 13  1  1
 13 12  1  0
 14 15  1  0
 15  6  1  0
 16 17  2  0
 16 14  1  0
 18 19  2  0
 19  9  1  0
 20 21  1  0
 21 22  1  0
 22 24  1  0
 22 23  1  1
 24 25  1  6
 25 16  1  0
 26 24  1  0
 27 26  1  0
 28 26  2  0
M  END
$$$$
