VYI.pdb
     RDKit          3D

 28 28  0  0  1  0  0  0  0  0999 V2000
    7.6345  -12.8691   18.1644 C   0  0  0  0  0  0  0  0  0  0  0  0
    7.5820  -13.5733   19.5296 C   0  0  2  0  0  0  0  0  0  0  0  0
    8.1390  -12.6027   20.5164 C   0  0  0  0  0  0  0  0  0  0  0  0
    8.3727  -14.8626   19.4113 C   0  0  2  0  0  0  0  0  0  0  0  0
    7.6475  -15.7385   18.4716 N   0  0  0  0  0  0  0  0  0  0  0  0
    8.5276  -15.5921   20.6670 C   0  0  0  0  0  0  0  0  0  0  0  0
    7.5275  -16.2144   21.1540 O   0  0  0  0  0  0  0  0  0  0  0  0
   10.3136  -21.6841   19.2534 O   0  0  0  0  0  0  0  0  0  0  0  0
   10.4902  -20.5881   20.1026 C   0  0  0  0  0  0  0  0  0  0  0  0
   10.0046  -20.5994   21.3997 C   0  0  0  0  0  0  0  0  0  0  0  0
   10.1583  -19.5401   22.2665 C   0  0  0  0  0  0  0  0  0  0  0  0
   10.8193  -18.4045   21.8566 C   0  0  0  0  0  0  0  0  0  0  0  0
   11.0166  -17.2296   22.7457 C   0  0  0  0  0  0  0  0  0  0  0  0
    9.7650  -16.3461   22.7314 C   0  0  2  0  0  0  0  0  0  0  0  0
    9.7132  -15.6926   21.4391 N   0  0  0  0  0  0  0  0  0  0  0  0
    9.8110  -15.3606   23.8417 C   0  0  0  0  0  0  0  0  0  0  0  0
   10.5329  -14.3645   23.6883 O   0  0  0  0  0  0  0  0  0  0  0  0
   11.3118  -18.3694   20.5698 C   0  0  0  0  0  0  0  0  0  0  0  0
   11.1465  -19.4424   19.7176 C   0  0  0  0  0  0  0  0  0  0  0  0
    7.0476  -11.5376   26.8631 C   0  0  0  0  0  0  0  0  0  0  0  0
    7.9696  -12.7177   27.1875 C   0  0  0  0  0  0  0  0  0  0  0  0
    7.9325  -13.6676   26.0396 C   0  0  2  0  0  0  0  0  0  0  0  0
    6.5423  -14.3112   26.0671 C   0  0  0  0  0  0  0  0  0  0  0  0
    9.0003  -14.7310   26.1791 C   0  0  2  0  0  0  0  0  0  0  0  0
    9.0646  -15.5591   25.0107 N   0  0  0  0  0  0  0  0  0  0  0  0
    8.9070  -15.4866   27.4291 C   0  0  0  0  0  0  0  0  0  0  0  0
    8.5731  -16.8147   27.5293 O   0  0  0  0  0  0  0  0  0  0  0  0
    9.1529  -14.8765   28.5244 O   0  0  0  0  0  0  0  0  0  0  0  0
  2  1  1  6
  3  2  1  0
  4  2  1  0
  4  5  1  6
  6  7  2  0
  6  4  1  0
  9  8  1  0
 10  9  2  0
 11 12  2  0
 11 10  1  0
 12 18  1  0
 14 13  1  6
 13 12  1  0
 14 15  1  0
 15  6  1  0
 16 17  2  0
 16 14  1  0
 18 19  2  0
 19  9  1  0
 20 21  1  0
 21 22  1  0
 22 24  1  0
 22 23  1  1
 24 25  1  6
 25 16  1  0
 26 24  1  0
 27 26  1  0
 28 26  2  0
M  END
$$$$
