VYI.pdb
     RDKit          3D

 28 28  0  0  1  0  0  0  0  0999 V2000
    7.2704  -13.3050   21.0337 C   0  0  0  0  0  0  0  0  0  0  0  0
    8.3398  -13.7387   20.0185 C   0  0  2  0  0  0  0  0  0  0  0  0
    7.9372  -13.1387   18.7131 C   0  0  0  0  0  0  0  0  0  0  0  0
    8.3841  -15.2551   20.0186 C   0  0  2  0  0  0  0  0  0  0  0  0
    7.1067  -15.7324   19.4558 N   0  0  0  0  0  0  0  0  0  0  0  0
    8.5361  -15.8536   21.3421 C   0  0  0  0  0  0  0  0  0  0  0  0
    7.4954  -16.1663   22.0082 O   0  0  0  0  0  0  0  0  0  0  0  0
   11.5014  -19.7100   28.7018 O   0  0  0  0  0  0  0  0  0  0  0  0
   11.3794  -19.1968   27.4075 C   0  0  0  0  0  0  0  0  0  0  0  0
   12.2388  -18.2163   26.9400 C   0  0  0  0  0  0  0  0  0  0  0  0
   12.1511  -17.6855   25.6721 C   0  0  0  0  0  0  0  0  0  0  0  0
   11.1770  -18.1275   24.8059 C   0  0  0  0  0  0  0  0  0  0  0  0
   11.0323  -17.5933   23.4262 C   0  0  0  0  0  0  0  0  0  0  0  0
    9.8338  -16.6415   23.3562 C   0  0  2  0  0  0  0  0  0  0  0  0
    9.7604  -16.1396   21.9988 N   0  0  0  0  0  0  0  0  0  0  0  0
    9.9867  -15.5392   24.3399 C   0  0  0  0  0  0  0  0  0  0  0  0
   10.8729  -14.7004   24.1207 O   0  0  0  0  0  0  0  0  0  0  0  0
   10.3096  -19.1029   25.2482 C   0  0  0  0  0  0  0  0  0  0  0  0
   10.4154  -19.6210   26.5230 C   0  0  0  0  0  0  0  0  0  0  0  0
    6.1026  -12.5073   25.7181 C   0  0  0  0  0  0  0  0  0  0  0  0
    7.4923  -13.1127   25.4946 C   0  0  0  0  0  0  0  0  0  0  0  0
    7.9014  -13.8148   26.7440 C   0  0  2  0  0  0  0  0  0  0  0  0
    8.0409  -12.7276   27.8146 C   0  0  0  0  0  0  0  0  0  0  0  0
    9.2206  -14.5327   26.5573 C   0  0  2  0  0  0  0  0  0  0  0  0
    9.1573  -15.4605   25.4664 N   0  0  0  0  0  0  0  0  0  0  0  0
    9.7440  -15.1157   27.7935 C   0  0  0  0  0  0  0  0  0  0  0  0
    9.7833  -16.4575   28.0823 O   0  0  0  0  0  0  0  0  0  0  0  0
   10.2053  -14.3268   28.6864 O   0  0  0  0  0  0  0  0  0  0  0  0
  2  1  1  1
  3  2  1  0
  4  2  1  0
  4  5  1  1
  6  7  2  0
  6  4  1  0
  9  8  1  0
 10  9  2  0
 11 12  2  0
 11 10  1  0
 12 18  1  0
 14 13  1  6
 13 12  1  0
 14 15  1  0
 15  6  1  0
 16 17  2  0
 16 14  1  0
 18 19  2  0
 19  9  1  0
 20 21  1  0
 21 22  1  0
 22 24  1  0
 22 23  1  1
 24 25  1  6
 25 16  1  0
 26 24  1  0
 27 26  1  0
 28 26  2  0
M  END
$$$$
