VYI.pdb
     RDKit          3D

 28 28  0  0  1  0  0  0  0  0999 V2000
    7.7890  -13.3128   18.2653 C   0  0  0  0  0  0  0  0  0  0  0  0
    7.3661  -13.8066   19.6581 C   0  0  2  0  0  0  0  0  0  0  0  0
    8.1111  -12.9642   20.6385 C   0  0  0  0  0  0  0  0  0  0  0  0
    7.6897  -15.2867   19.7376 C   0  0  2  0  0  0  0  0  0  0  0  0
    6.8066  -15.9818   18.7819 N   0  0  0  0  0  0  0  0  0  0  0  0
    7.4730  -15.8812   21.0539 C   0  0  0  0  0  0  0  0  0  0  0  0
    6.2812  -16.0690   21.4647 O   0  0  0  0  0  0  0  0  0  0  0  0
    7.8569  -19.9107   28.8508 O   0  0  0  0  0  0  0  0  0  0  0  0
    8.0762  -19.4720   27.5420 C   0  0  0  0  0  0  0  0  0  0  0  0
    7.0229  -19.2797   26.6633 C   0  0  0  0  0  0  0  0  0  0  0  0
    7.1978  -18.8487   25.3669 C   0  0  0  0  0  0  0  0  0  0  0  0
    8.4633  -18.5884   24.8921 C   0  0  0  0  0  0  0  0  0  0  0  0
    8.7155  -18.1213   23.5035 C   0  0  0  0  0  0  0  0  0  0  0  0
    8.1976  -16.6898   23.3304 C   0  0  2  0  0  0  0  0  0  0  0  0
    8.4789  -16.2915   21.9658 N   0  0  0  0  0  0  0  0  0  0  0  0
    8.8443  -15.7804   24.3106 C   0  0  0  0  0  0  0  0  0  0  0  0
   10.0563  -15.5613   24.1692 O   0  0  0  0  0  0  0  0  0  0  0  0
    9.5278  -18.7724   25.7478 C   0  0  0  0  0  0  0  0  0  0  0  0
    9.3298  -19.2051   27.0434 C   0  0  0  0  0  0  0  0  0  0  0  0
    5.8380  -11.6527   25.8284 C   0  0  0  0  0  0  0  0  0  0  0  0
    7.0065  -12.5672   25.4466 C   0  0  0  0  0  0  0  0  0  0  0  0
    7.4773  -13.2612   26.6788 C   0  0  2  0  0  0  0  0  0  0  0  0
    8.0476  -12.1684   27.5888 C   0  0  0  0  0  0  0  0  0  0  0  0
    8.5495  -14.2787   26.3538 C   0  0  2  0  0  0  0  0  0  0  0  0
    8.1047  -15.1992   25.3490 N   0  0  0  0  0  0  0  0  0  0  0  0
    9.1100  -14.9297   27.5388 C   0  0  0  0  0  0  0  0  0  0  0  0
    8.8948  -16.2364   27.9015 O   0  0  0  0  0  0  0  0  0  0  0  0
    9.8621  -14.2410   28.3084 O   0  0  0  0  0  0  0  0  0  0  0  0
  2  1  1  6
  3  2  1  0
  4  2  1  0
  4  5  1  6
  6  7  2  0
  6  4  1  0
  9  8  1  0
 10  9  2  0
 11 12  2  0
 11 10  1  0
 12 18  1  0
 14 13  1  6
 13 12  1  0
 14 15  1  0
 15  6  1  0
 16 17  2  0
 16 14  1  0
 18 19  2  0
 19  9  1  0
 20 21  1  0
 21 22  1  0
 22 24  1  0
 22 23  1  1
 24 25  1  6
 25 16  1  0
 26 24  1  0
 27 26  1  0
 28 26  2  0
M  END
$$$$
