VYI.pdb
     RDKit          3D

 28 28  0  0  1  0  0  0  0  0999 V2000
   12.3584  -18.8977   21.7933 C   0  0  0  0  0  0  0  0  0  0  0  0
   11.2514  -18.7386   20.7389 C   0  0  2  0  0  0  0  0  0  0  0  0
   11.6669  -19.5741   19.5747 C   0  0  0  0  0  0  0  0  0  0  0  0
   11.1230  -17.2592   20.4282 C   0  0  2  0  0  0  0  0  0  0  0  0
   12.4555  -16.7795   20.0149 N   0  0  0  0  0  0  0  0  0  0  0  0
   10.6887  -16.4416   21.5577 C   0  0  0  0  0  0  0  0  0  0  0  0
   11.5596  -15.8126   22.2436 O   0  0  0  0  0  0  0  0  0  0  0  0
    6.0019  -11.9358   27.5474 O   0  0  0  0  0  0  0  0  0  0  0  0
    6.3781  -12.7146   26.4495 C   0  0  0  0  0  0  0  0  0  0  0  0
    6.1254  -14.0760   26.4146 C   0  0  0  0  0  0  0  0  0  0  0  0
    6.4804  -14.8769   25.3517 C   0  0  0  0  0  0  0  0  0  0  0  0
    7.1160  -14.3311   24.2597 C   0  0  0  0  0  0  0  0  0  0  0  0
    7.5235  -15.1436   23.0834 C   0  0  0  0  0  0  0  0  0  0  0  0
    9.0054  -15.5166   23.1926 C   0  0  2  0  0  0  0  0  0  0  0  0
    9.3525  -16.2587   21.9973 N   0  0  0  0  0  0  0  0  0  0  0  0
    9.2525  -16.3124   24.4221 C   0  0  0  0  0  0  0  0  0  0  0  0
    9.1519  -17.5447   24.3315 O   0  0  0  0  0  0  0  0  0  0  0  0
    7.3785  -12.9781   24.2710 C   0  0  0  0  0  0  0  0  0  0  0  0
    7.0140  -12.1940   25.3467 C   0  0  0  0  0  0  0  0  0  0  0  0
   10.1653  -13.0341   28.8441 C   0  0  0  0  0  0  0  0  0  0  0  0
   10.4724  -14.0113   27.7046 C   0  0  0  0  0  0  0  0  0  0  0  0
    9.8257  -15.3160   28.0224 C   0  0  2  0  0  0  0  0  0  0  0  0
   10.5475  -15.8560   29.2614 C   0  0  0  0  0  0  0  0  0  0  0  0
    9.9697  -16.2888   26.8719 C   0  0  2  0  0  0  0  0  0  0  0  0
    9.5852  -15.6851   25.6299 N   0  0  0  0  0  0  0  0  0  0  0  0
    9.3273  -17.5802   27.1200 C   0  0  0  0  0  0  0  0  0  0  0  0
    9.9644  -18.7076   27.5765 O   0  0  0  0  0  0  0  0  0  0  0  0
    8.0731  -17.6842   26.8993 O   0  0  0  0  0  0  0  0  0  0  0  0
  2  1  1  1
  3  2  1  0
  4  2  1  0
  4  5  1  1
  6  7  2  0
  6  4  1  0
  9  8  1  0
 10  9  2  0
 11 12  2  0
 11 10  1  0
 12 18  1  0
 14 13  1  6
 13 12  1  0
 14 15  1  0
 15  6  1  0
 16 17  2  0
 16 14  1  0
 18 19  2  0
 19  9  1  0
 20 21  1  0
 21 22  1  0
 22 24  1  0
 22 23  1  1
 24 25  1  6
 25 16  1  0
 26 24  1  0
 27 26  1  0
 28 26  2  0
M  END
$$$$
