VYI.pdb
     RDKit          3D

 28 28  0  0  1  0  0  0  0  0999 V2000
    7.5389  -13.0413   18.5636 C   0  0  0  0  0  0  0  0  0  0  0  0
    7.4128  -13.6737   19.9588 C   0  0  2  0  0  0  0  0  0  0  0  0
    8.0968  -12.7388   20.8992 C   0  0  0  0  0  0  0  0  0  0  0  0
    8.0349  -15.0559   19.8938 C   0  0  2  0  0  0  0  0  0  0  0  0
    7.1726  -15.8859   19.0313 N   0  0  0  0  0  0  0  0  0  0  0  0
    8.1473  -15.7277   21.1856 C   0  0  0  0  0  0  0  0  0  0  0  0
    7.0907  -16.1344   21.7710 O   0  0  0  0  0  0  0  0  0  0  0  0
   10.9429  -19.4371   28.7003 O   0  0  0  0  0  0  0  0  0  0  0  0
   10.8296  -18.9709   27.3875 C   0  0  0  0  0  0  0  0  0  0  0  0
   11.6061  -17.9192   26.9296 C   0  0  0  0  0  0  0  0  0  0  0  0
   11.5238  -17.4315   25.6442 C   0  0  0  0  0  0  0  0  0  0  0  0
   10.6406  -17.9920   24.7496 C   0  0  0  0  0  0  0  0  0  0  0  0
   10.5065  -17.5094   23.3499 C   0  0  0  0  0  0  0  0  0  0  0  0
    9.3736  -16.4823   23.2565 C   0  0  2  0  0  0  0  0  0  0  0  0
    9.3480  -15.9914   21.8933 N   0  0  0  0  0  0  0  0  0  0  0  0
    9.5873  -15.3817   24.2307 C   0  0  0  0  0  0  0  0  0  0  0  0
   10.5342  -14.6103   24.0184 O   0  0  0  0  0  0  0  0  0  0  0  0
    9.8569  -19.0400   25.1819 C   0  0  0  0  0  0  0  0  0  0  0  0
    9.9555  -19.5132   26.4746 C   0  0  0  0  0  0  0  0  0  0  0  0
    5.9795  -11.9800   25.5120 C   0  0  0  0  0  0  0  0  0  0  0  0
    7.3352  -12.6749   25.3479 C   0  0  0  0  0  0  0  0  0  0  0  0
    7.5999  -13.4766   26.5762 C   0  0  2  0  0  0  0  0  0  0  0  0
    7.7656  -12.4649   27.7149 C   0  0  0  0  0  0  0  0  0  0  0  0
    8.8601  -14.3012   26.4262 C   0  0  2  0  0  0  0  0  0  0  0  0
    8.7464  -15.2311   25.3413 N   0  0  0  0  0  0  0  0  0  0  0  0
    9.3056  -14.9131   27.6789 C   0  0  0  0  0  0  0  0  0  0  0  0
    9.2664  -16.2559   27.9628 O   0  0  0  0  0  0  0  0  0  0  0  0
    9.7712  -14.1508   28.5924 O   0  0  0  0  0  0  0  0  0  0  0  0
  2  1  1  6
  3  2  1  0
  4  2  1  0
  4  5  1  6
  6  7  2  0
  6  4  1  0
  9  8  1  0
 10  9  2  0
 11 12  2  0
 11 10  1  0
 12 18  1  0
 14 13  1  6
 13 12  1  0
 14 15  1  0
 15  6  1  0
 16 17  2  0
 16 14  1  0
 18 19  2  0
 19  9  1  0
 20 21  1  0
 21 22  1  0
 22 24  1  0
 22 23  1  1
 24 25  1  6
 25 16  1  0
 26 24  1  0
 27 26  1  0
 28 26  2  0
M  END
$$$$
