VYI.pdb
     RDKit          3D

 28 28  0  0  1  0  0  0  0  0999 V2000
    5.8241  -20.4255   22.5508 C   0  0  0  0  0  0  0  0  0  0  0  0
    6.9053  -19.3856   22.8858 C   0  0  2  0  0  0  0  0  0  0  0  0
    6.4401  -18.6895   24.1207 C   0  0  0  0  0  0  0  0  0  0  0  0
    7.0576  -18.4776   21.6800 C   0  0  2  0  0  0  0  0  0  0  0  0
    7.4482  -19.3255   20.5377 N   0  0  0  0  0  0  0  0  0  0  0  0
    8.0753  -17.4411   21.8307 C   0  0  0  0  0  0  0  0  0  0  0  0
    9.3071  -17.7649   21.7829 O   0  0  0  0  0  0  0  0  0  0  0  0
    7.7139  -13.9769   15.9579 O   0  0  0  0  0  0  0  0  0  0  0  0
    7.8759  -13.9229   17.3451 C   0  0  0  0  0  0  0  0  0  0  0  0
    6.8586  -13.4714   18.1697 C   0  0  0  0  0  0  0  0  0  0  0  0
    6.9794  -13.4033   19.5400 C   0  0  0  0  0  0  0  0  0  0  0  0
    8.1503  -13.7940   20.1489 C   0  0  0  0  0  0  0  0  0  0  0  0
    8.3405  -13.7436   21.6224 C   0  0  0  0  0  0  0  0  0  0  0  0
    8.9043  -15.0770   22.1235 C   0  0  2  0  0  0  0  0  0  0  0  0
    7.8405  -16.0567   22.0320 N   0  0  0  0  0  0  0  0  0  0  0  0
    9.4044  -14.9404   23.5154 C   0  0  0  0  0  0  0  0  0  0  0  0
   10.6076  -14.6818   23.6645 O   0  0  0  0  0  0  0  0  0  0  0  0
    9.1774  -14.2472   19.3493 C   0  0  0  0  0  0  0  0  0  0  0  0
    9.0350  -14.3072   17.9778 C   0  0  0  0  0  0  0  0  0  0  0  0
    7.1064  -11.5507   27.6225 C   0  0  0  0  0  0  0  0  0  0  0  0
    7.9824  -12.8028   27.5110 C   0  0  0  0  0  0  0  0  0  0  0  0
    7.7346  -13.4283   26.1810 C   0  0  2  0  0  0  0  0  0  0  0  0
    6.2884  -13.9333   26.2133 C   0  0  0  0  0  0  0  0  0  0  0  0
    8.6828  -14.5826   25.9378 C   0  0  2  0  0  0  0  0  0  0  0  0
    8.5420  -15.0993   24.6082 N   0  0  0  0  0  0  0  0  0  0  0  0
    8.6224  -15.6119   26.9765 C   0  0  0  0  0  0  0  0  0  0  0  0
    9.1276  -15.4863   28.2471 O   0  0  0  0  0  0  0  0  0  0  0  0
    8.0575  -16.7228   26.6950 O   0  0  0  0  0  0  0  0  0  0  0  0
  2  1  1  6
  3  2  1  0
  4  2  1  0
  4  5  1  6
  6  7  2  0
  6  4  1  0
  9  8  1  0
 10  9  2  0
 11 12  2  0
 11 10  1  0
 12 18  1  0
 14 13  1  1
 13 12  1  0
 14 15  1  0
 15  6  1  0
 16 17  2  0
 16 14  1  0
 18 19  2  0
 19  9  1  0
 20 21  1  0
 21 22  1  0
 22 24  1  0
 22 23  1  1
 24 25  1  6
 25 16  1  0
 26 24  1  0
 27 26  1  0
 28 26  2  0
M  END
$$$$
