VYI.pdb
     RDKit          3D

 28 28  0  0  1  0  0  0  0  0999 V2000
    8.1035  -13.4826   18.1279 C   0  0  0  0  0  0  0  0  0  0  0  0
    7.6282  -13.8216   19.5498 C   0  0  2  0  0  0  0  0  0  0  0  0
    8.5113  -13.0528   20.4746 C   0  0  0  0  0  0  0  0  0  0  0  0
    7.7148  -15.3272   19.7155 C   0  0  2  0  0  0  0  0  0  0  0  0
    6.7071  -15.9267   18.8204 N   0  0  0  0  0  0  0  0  0  0  0  0
    7.4423  -15.8012   21.0698 C   0  0  0  0  0  0  0  0  0  0  0  0
    6.2690  -15.6730   21.5509 O   0  0  0  0  0  0  0  0  0  0  0  0
    7.5404  -19.7650   28.9310 O   0  0  0  0  0  0  0  0  0  0  0  0
    7.7551  -19.3901   27.6017 C   0  0  0  0  0  0  0  0  0  0  0  0
    9.0342  -19.1862   27.1109 C   0  0  0  0  0  0  0  0  0  0  0  0
    9.2868  -18.8165   25.8083 C   0  0  0  0  0  0  0  0  0  0  0  0
    8.2435  -18.6333   24.9293 C   0  0  0  0  0  0  0  0  0  0  0  0
    8.4528  -18.2347   23.5125 C   0  0  0  0  0  0  0  0  0  0  0  0
    8.0558  -16.7680   23.3171 C   0  0  2  0  0  0  0  0  0  0  0  0
    8.3723  -16.4144   21.9479 N   0  0  0  0  0  0  0  0  0  0  0  0
    8.7737  -15.9010   24.2862 C   0  0  0  0  0  0  0  0  0  0  0  0
   10.0053  -15.8183   24.1714 O   0  0  0  0  0  0  0  0  0  0  0  0
    6.9612  -18.8303   25.3944 C   0  0  0  0  0  0  0  0  0  0  0  0
    6.7307  -19.2006   26.7038 C   0  0  0  0  0  0  0  0  0  0  0  0
    5.8120  -11.6864   26.0027 C   0  0  0  0  0  0  0  0  0  0  0  0
    6.9459  -12.5897   25.5069 C   0  0  0  0  0  0  0  0  0  0  0  0
    7.5282  -13.2954   26.6835 C   0  0  2  0  0  0  0  0  0  0  0  0
    8.1493  -12.2073   27.5655 C   0  0  0  0  0  0  0  0  0  0  0  0
    8.5898  -14.2847   26.2536 C   0  0  2  0  0  0  0  0  0  0  0  0
    8.0768  -15.2094   25.2858 N   0  0  0  0  0  0  0  0  0  0  0  0
    9.2712  -14.9294   27.3770 C   0  0  0  0  0  0  0  0  0  0  0  0
   10.4622  -14.5184   27.9229 O   0  0  0  0  0  0  0  0  0  0  0  0
    8.7278  -15.9588   27.9039 O   0  0  0  0  0  0  0  0  0  0  0  0
  2  1  1  6
  3  2  1  0
  4  2  1  0
  4  5  1  6
  6  7  2  0
  6  4  1  0
  9  8  1  0
 10  9  2  0
 11 12  2  0
 11 10  1  0
 12 18  1  0
 14 13  1  1
 13 12  1  0
 14 15  1  0
 15  6  1  0
 16 17  2  0
 16 14  1  0
 18 19  2  0
 19  9  1  0
 20 21  1  0
 21 22  1  0
 22 24  1  0
 22 23  1  1
 24 25  1  6
 25 16  1  0
 26 24  1  0
 27 26  1  0
 28 26  2  0
M  END
$$$$
