VYI.pdb
     RDKit          3D

 28 28  0  0  1  0  0  0  0  0999 V2000
    4.6608  -17.6831   21.6322 C   0  0  0  0  0  0  0  0  0  0  0  0
    5.5169  -18.9426   21.4246 C   0  0  2  0  0  0  0  0  0  0  0  0
    4.8270  -19.7415   20.3701 C   0  0  0  0  0  0  0  0  0  0  0  0
    5.6298  -19.6464   22.7638 C   0  0  2  0  0  0  0  0  0  0  0  0
    4.2873  -20.1507   23.1099 N   0  0  0  0  0  0  0  0  0  0  0  0
    6.0772  -18.7900   23.8590 C   0  0  0  0  0  0  0  0  0  0  0  0
    5.2392  -18.0162   24.4277 O   0  0  0  0  0  0  0  0  0  0  0  0
   10.8143  -14.4381   29.9282 O   0  0  0  0  0  0  0  0  0  0  0  0
   10.3948  -15.3571   28.9624 C   0  0  0  0  0  0  0  0  0  0  0  0
    9.5607  -16.4131   29.2905 C   0  0  0  0  0  0  0  0  0  0  0  0
    9.1258  -17.3389   28.3682 C   0  0  0  0  0  0  0  0  0  0  0  0
    9.5193  -17.2388   27.0530 C   0  0  0  0  0  0  0  0  0  0  0  0
    9.0832  -18.2067   26.0124 C   0  0  0  0  0  0  0  0  0  0  0  0
    7.8192  -17.6926   25.3159 C   0  0  2  0  0  0  0  0  0  0  0  0
    7.3925  -18.7180   24.3851 N   0  0  0  0  0  0  0  0  0  0  0  0
    8.0920  -16.4060   24.6258 C   0  0  0  0  0  0  0  0  0  0  0  0
    8.7420  -16.4531   23.5712 O   0  0  0  0  0  0  0  0  0  0  0  0
   10.3494  -16.1962   26.7019 C   0  0  0  0  0  0  0  0  0  0  0  0
   10.7734  -15.2795   27.6425 C   0  0  0  0  0  0  0  0  0  0  0  0
    5.3999  -12.0988   27.0125 C   0  0  0  0  0  0  0  0  0  0  0  0
    5.7853  -13.0172   25.8481 C   0  0  0  0  0  0  0  0  0  0  0  0
    7.2367  -12.8288   25.5664 C   0  0  2  0  0  0  0  0  0  0  0  0
    7.3704  -11.4337   24.9471 C   0  0  0  0  0  0  0  0  0  0  0  0
    7.7436  -13.8773   24.5998 C   0  0  2  0  0  0  0  0  0  0  0  0
    7.6285  -15.1941   25.1544 N   0  0  0  0  0  0  0  0  0  0  0  0
    9.0735  -13.5799   24.0660 C   0  0  0  0  0  0  0  0  0  0  0  0
    9.3258  -12.8826   22.9104 O   0  0  0  0  0  0  0  0  0  0  0  0
   10.0925  -13.9951   24.7153 O   0  0  0  0  0  0  0  0  0  0  0  0
  2  1  1  1
  3  2  1  0
  4  2  1  0
  4  5  1  1
  6  7  2  0
  6  4  1  0
  9  8  1  0
 10  9  2  0
 11 12  2  0
 11 10  1  0
 12 18  1  0
 14 13  1  6
 13 12  1  0
 14 15  1  0
 15  6  1  0
 16 17  2  0
 16 14  1  0
 18 19  2  0
 19  9  1  0
 20 21  1  0
 21 22  1  0
 22 24  1  0
 22 23  1  6
 24 25  1  1
 25 16  1  0
 26 24  1  0
 27 26  1  0
 28 26  2  0
M  END
$$$$
