VYI.pdb
     RDKit          3D

 28 28  0  0  1  0  0  0  0  0999 V2000
    8.1588  -13.3056   17.8365 C   0  0  0  0  0  0  0  0  0  0  0  0
    7.7250  -13.7535   19.2414 C   0  0  2  0  0  0  0  0  0  0  0  0
    8.3843  -12.8151   20.1958 C   0  0  0  0  0  0  0  0  0  0  0  0
    8.1392  -15.2034   19.4088 C   0  0  2  0  0  0  0  0  0  0  0  0
    7.3558  -15.9986   18.4442 N   0  0  0  0  0  0  0  0  0  0  0  0
    7.8910  -15.7514   20.7395 C   0  0  0  0  0  0  0  0  0  0  0  0
    6.6897  -15.9257   21.1280 O   0  0  0  0  0  0  0  0  0  0  0  0
    8.0018  -19.7274   28.5437 O   0  0  0  0  0  0  0  0  0  0  0  0
    8.3098  -19.2688   27.2597 C   0  0  0  0  0  0  0  0  0  0  0  0
    9.5368  -18.6907   26.9789 C   0  0  0  0  0  0  0  0  0  0  0  0
    9.8777  -18.2270   25.7276 C   0  0  0  0  0  0  0  0  0  0  0  0
    8.9817  -18.3276   24.6877 C   0  0  0  0  0  0  0  0  0  0  0  0
    9.2918  -17.8455   23.3161 C   0  0  0  0  0  0  0  0  0  0  0  0
    8.5559  -16.5294   23.0447 C   0  0  2  0  0  0  0  0  0  0  0  0
    8.8748  -16.1287   21.6892 N   0  0  0  0  0  0  0  0  0  0  0  0
    8.9597  -15.4947   24.0308 C   0  0  0  0  0  0  0  0  0  0  0  0
   10.1428  -15.1248   24.0147 O   0  0  0  0  0  0  0  0  0  0  0  0
    7.7538  -18.8993   24.9424 C   0  0  0  0  0  0  0  0  0  0  0  0
    7.4327  -19.3575   26.2041 C   0  0  0  0  0  0  0  0  0  0  0  0
    6.7692  -10.4818   26.3099 C   0  0  0  0  0  0  0  0  0  0  0  0
    7.6668  -11.6725   26.6621 C   0  0  0  0  0  0  0  0  0  0  0  0
    7.2657  -12.8271   25.8092 C   0  0  2  0  0  0  0  0  0  0  0  0
    5.8783  -13.2541   26.2995 C   0  0  0  0  0  0  0  0  0  0  0  0
    8.2429  -13.9739   25.9518 C   0  0  2  0  0  0  0  0  0  0  0  0
    8.0324  -14.9651   24.9379 N   0  0  0  0  0  0  0  0  0  0  0  0
    8.2984  -14.5239   27.3070 C   0  0  0  0  0  0  0  0  0  0  0  0
    9.0704  -14.0326   28.3307 O   0  0  0  0  0  0  0  0  0  0  0  0
    7.5767  -15.5433   27.5761 O   0  0  0  0  0  0  0  0  0  0  0  0
  2  1  1  6
  3  2  1  0
  4  2  1  0
  4  5  1  6
  6  7  2  0
  6  4  1  0
  9  8  1  0
 10  9  2  0
 11 12  2  0
 11 10  1  0
 12 18  1  0
 14 13  1  1
 13 12  1  0
 14 15  1  0
 15  6  1  0
 16 17  2  0
 16 14  1  0
 18 19  2  0
 19  9  1  0
 20 21  1  0
 21 22  1  0
 22 24  1  0
 22 23  1  1
 24 25  1  6
 25 16  1  0
 26 24  1  0
 27 26  1  0
 28 26  2  0
M  END
$$$$
