VYI.pdb
     RDKit          3D

 28 28  0  0  1  0  0  0  0  0999 V2000
    6.5741  -20.4405   21.3313 C   0  0  0  0  0  0  0  0  0  0  0  0
    6.2715  -21.1974   22.6343 C   0  0  2  0  0  0  0  0  0  0  0  0
    5.8585  -22.5720   22.2268 C   0  0  0  0  0  0  0  0  0  0  0  0
    5.2008  -20.4211   23.3777 C   0  0  2  0  0  0  0  0  0  0  0  0
    3.9421  -20.5765   22.6243 N   0  0  0  0  0  0  0  0  0  0  0  0
    5.4694  -18.9909   23.5010 C   0  0  0  0  0  0  0  0  0  0  0  0
    5.0474  -18.1969   22.5977 O   0  0  0  0  0  0  0  0  0  0  0  0
    7.7781  -10.9234   26.2735 O   0  0  0  0  0  0  0  0  0  0  0  0
    7.5248  -12.2964   26.2079 C   0  0  0  0  0  0  0  0  0  0  0  0
    6.2308  -12.7898   26.2330 C   0  0  0  0  0  0  0  0  0  0  0  0
    5.9404  -14.1347   26.1704 C   0  0  0  0  0  0  0  0  0  0  0  0
    6.9588  -15.0560   26.0784 C   0  0  0  0  0  0  0  0  0  0  0  0
    6.7085  -16.5197   26.0077 C   0  0  0  0  0  0  0  0  0  0  0  0
    6.5116  -16.9474   24.5498 C   0  0  2  0  0  0  0  0  0  0  0  0
    6.1752  -18.3569   24.5556 N   0  0  0  0  0  0  0  0  0  0  0  0
    7.7404  -16.6811   23.7589 C   0  0  0  0  0  0  0  0  0  0  0  0
    8.6770  -17.4849   23.8757 O   0  0  0  0  0  0  0  0  0  0  0  0
    8.2553  -14.5894   26.0518 C   0  0  0  0  0  0  0  0  0  0  0  0
    8.5239  -13.2371   26.1156 C   0  0  0  0  0  0  0  0  0  0  0  0
    7.0329  -12.3433   20.2920 C   0  0  0  0  0  0  0  0  0  0  0  0
    7.2554  -13.7803   20.7751 C   0  0  0  0  0  0  0  0  0  0  0  0
    8.6209  -13.8674   21.3660 C   0  0  2  0  0  0  0  0  0  0  0  0
    9.5986  -13.6353   20.2093 C   0  0  0  0  0  0  0  0  0  0  0  0
    8.8603  -15.2281   21.9838 C   0  0  2  0  0  0  0  0  0  0  0  0
    7.8263  -15.5636   22.9181 N   0  0  0  0  0  0  0  0  0  0  0  0
   10.2119  -15.3918   22.5210 C   0  0  0  0  0  0  0  0  0  0  0  0
   11.2849  -15.8944   21.8272 O   0  0  0  0  0  0  0  0  0  0  0  0
   10.4279  -15.0440   23.7313 O   0  0  0  0  0  0  0  0  0  0  0  0
  2  1  1  6
  3  2  1  0
  4  2  1  0
  4  5  1  6
  6  7  2  0
  6  4  1  0
  9  8  1  0
 10  9  2  0
 11 12  2  0
 11 10  1  0
 12 18  1  0
 14 13  1  1
 13 12  1  0
 14 15  1  0
 15  6  1  0
 16 17  2  0
 16 14  1  0
 18 19  2  0
 19  9  1  0
 20 21  1  0
 21 22  1  0
 22 24  1  0
 22 23  1  6
 24 25  1  1
 25 16  1  0
 26 24  1  0
 27 26  1  0
 28 26  2  0
M  END
$$$$
