VYI.pdb
     RDKit          3D

 28 28  0  0  1  0  0  0  0  0999 V2000
    8.1490  -13.2844   18.1220 C   0  0  0  0  0  0  0  0  0  0  0  0
    7.6515  -13.7094   19.5129 C   0  0  2  0  0  0  0  0  0  0  0  0
    8.4598  -12.9309   20.4960 C   0  0  0  0  0  0  0  0  0  0  0  0
    7.8208  -15.2132   19.6208 C   0  0  2  0  0  0  0  0  0  0  0  0
    6.8822  -15.8310   18.6650 N   0  0  0  0  0  0  0  0  0  0  0  0
    7.5294  -15.7592   20.9436 C   0  0  0  0  0  0  0  0  0  0  0  0
    6.3273  -15.7591   21.3672 O   0  0  0  0  0  0  0  0  0  0  0  0
    7.8024  -19.8090   28.7869 O   0  0  0  0  0  0  0  0  0  0  0  0
    8.0011  -19.4039   27.4641 C   0  0  0  0  0  0  0  0  0  0  0  0
    6.9424  -19.3073   26.5761 C   0  0  0  0  0  0  0  0  0  0  0  0
    7.0973  -18.9122   25.2658 C   0  0  0  0  0  0  0  0  0  0  0  0
    8.3468  -18.5920   24.7856 C   0  0  0  0  0  0  0  0  0  0  0  0
    8.5771  -18.1594   23.3821 C   0  0  0  0  0  0  0  0  0  0  0  0
    8.1322  -16.7043   23.2030 C   0  0  2  0  0  0  0  0  0  0  0  0
    8.4700  -16.3137   21.8491 N   0  0  0  0  0  0  0  0  0  0  0  0
    8.7934  -15.8308   24.2059 C   0  0  0  0  0  0  0  0  0  0  0  0
    9.9900  -15.5620   24.0249 O   0  0  0  0  0  0  0  0  0  0  0  0
    9.4164  -18.6804   25.6504 C   0  0  0  0  0  0  0  0  0  0  0  0
    9.2386  -19.0786   26.9598 C   0  0  0  0  0  0  0  0  0  0  0  0
    5.9152  -11.7581   26.0621 C   0  0  0  0  0  0  0  0  0  0  0  0
    7.0559  -12.6729   25.6041 C   0  0  0  0  0  0  0  0  0  0  0  0
    7.5016  -13.4833   26.7729 C   0  0  2  0  0  0  0  0  0  0  0  0
    8.0873  -12.4880   27.7798 C   0  0  0  0  0  0  0  0  0  0  0  0
    8.5547  -14.4912   26.3659 C   0  0  2  0  0  0  0  0  0  0  0  0
    8.0836  -15.3363   25.3082 N   0  0  0  0  0  0  0  0  0  0  0  0
    9.1210  -15.2276   27.4969 C   0  0  0  0  0  0  0  0  0  0  0  0
   10.3022  -14.9249   28.1280 O   0  0  0  0  0  0  0  0  0  0  0  0
    8.4771  -16.2358   27.9455 O   0  0  0  0  0  0  0  0  0  0  0  0
  2  1  1  6
  3  2  1  0
  4  2  1  0
  4  5  1  6
  6  7  2  0
  6  4  1  0
  9  8  1  0
 10  9  2  0
 11 12  2  0
 11 10  1  0
 12 18  1  0
 14 13  1  1
 13 12  1  0
 14 15  1  0
 15  6  1  0
 16 17  2  0
 16 14  1  0
 18 19  2  0
 19  9  1  0
 20 21  1  0
 21 22  1  0
 22 24  1  0
 22 23  1  1
 24 25  1  6
 25 16  1  0
 26 24  1  0
 27 26  1  0
 28 26  2  0
M  END
$$$$
