TCN.pdb
     RDKit          3D

 22 21  0  0  1  0  0  0  0  0999 V2000
   23.3215  -23.3300  -14.1421 C   0  0  0  0  0  0  0  0  0  0  0  0
   22.2892  -22.2522  -14.1717 C   0  0  1  0  0  0  0  0  0  0  0  0
   21.0531  -22.8369  -14.4455 O   0  0  0  0  0  0  0  0  0  0  0  0
   22.1598  -21.5080  -12.8756 C   0  0  2  0  0  0  0  0  0  0  0  0
   21.0723  -20.5573  -12.9868 N   0  0  0  0  0  0  0  0  0  0  0  0
   23.3993  -20.7503  -12.5404 C   0  0  0  0  0  0  0  0  0  0  0  0
   23.6773  -19.6506  -13.1072 O   0  0  0  0  0  0  0  0  0  0  0  0
   24.3434  -21.1988  -11.5768 N   0  0  0  0  0  0  0  0  0  0  0  0
   25.6045  -20.5395  -11.3422 C   0  0  1  0  0  0  0  0  0  0  0  0
   26.2555  -20.9532  -10.0522 C   0  0  0  0  0  0  0  0  0  0  0  0
   25.1934  -20.3827   -8.6928 S   0  0  0  0  0  0  0  0  0  0  0  0
   26.5358  -20.9133  -12.4454 C   0  0  0  0  0  0  0  0  0  0  0  0
   27.1802  -21.9975  -12.4425 O   0  0  0  0  0  0  0  0  0  0  0  0
   28.8046  -21.3637  -16.9688 N   0  0  0  0  0  0  0  0  0  0  0  0
   27.6023  -22.0353  -16.6538 C   0  0  0  0  0  0  0  0  0  0  0  0
   27.2303  -22.9979  -17.3640 O   0  0  0  0  0  0  0  0  0  0  0  0
   26.8152  -21.5771  -15.4866 C   0  0  0  0  0  0  0  0  0  0  0  0
   27.5336  -20.5079  -14.6975 C   0  0  2  0  0  0  0  0  0  0  0  0
   26.7452  -20.0468  -13.5762 N   0  0  0  0  0  0  0  0  0  0  0  0
   27.8542  -19.3905  -15.6156 C   0  0  0  0  0  0  0  0  0  0  0  0
   27.2441  -18.1639  -15.5044 O   0  0  0  0  0  0  0  0  0  0  0  0
   28.7036  -19.5679  -16.5170 O   0  0  0  0  0  0  0  0  0  0  0  0
  2  1  1  1
  3  2  1  0
  4  2  1  0
  4  6  1  0
  4  5  1  6
  6  8  1  0
  6  7  2  0
  8  9  1  0
  9 12  1  0
  9 10  1  1
 11 10  1  0
 12 19  1  0
 12 13  2  0
 15 14  1  0
 15 17  1  0
 16 15  2  0
 18 17  1  6
 18 20  1  0
 19 18  1  0
 20 21  1  0
 22 20  2  0
M  END
$$$$
