TCN.pdb
     RDKit          3D

 22 21  0  0  1  0  0  0  0  0999 V2000
   23.4545  -11.4163  -18.0593 C   0  0  0  0  0  0  0  0  0  0  0  0
   22.4042  -12.2811  -18.6734 C   0  0  1  0  0  0  0  0  0  0  0  0
   22.9982  -13.4803  -19.0653 O   0  0  0  0  0  0  0  0  0  0  0  0
   21.2804  -12.6178  -17.7384 C   0  0  2  0  0  0  0  0  0  0  0  0
   20.4036  -13.5739  -18.3835 N   0  0  0  0  0  0  0  0  0  0  0  0
   20.4697  -11.4177  -17.3844 C   0  0  0  0  0  0  0  0  0  0  0  0
   19.7551  -10.8229  -18.2466 O   0  0  0  0  0  0  0  0  0  0  0  0
   20.4399  -10.8629  -16.0758 N   0  0  0  0  0  0  0  0  0  0  0  0
   19.7766   -9.6216  -15.7606 C   0  0  1  0  0  0  0  0  0  0  0  0
   18.7505   -9.7611  -14.6713 C   0  0  0  0  0  0  0  0  0  0  0  0
   17.2798  -10.5421  -15.3982 S   0  0  0  0  0  0  0  0  0  0  0  0
   20.8050   -8.6561  -15.2763 C   0  0  0  0  0  0  0  0  0  0  0  0
   21.7587   -9.0084  -14.5298 O   0  0  0  0  0  0  0  0  0  0  0  0
   23.8797   -4.6436  -14.7129 N   0  0  0  0  0  0  0  0  0  0  0  0
   23.2620   -4.4749  -15.9722 C   0  0  0  0  0  0  0  0  0  0  0  0
   23.6779   -3.5832  -16.7476 O   0  0  0  0  0  0  0  0  0  0  0  0
   22.1356   -5.3634  -16.3377 C   0  0  0  0  0  0  0  0  0  0  0  0
   21.8436   -6.3861  -15.2649 C   0  0  2  0  0  0  0  0  0  0  0  0
   20.7576   -7.2640  -15.6410 N   0  0  0  0  0  0  0  0  0  0  0  0
   21.5319   -5.6649  -14.0091 C   0  0  0  0  0  0  0  0  0  0  0  0
   22.5205   -5.2314  -13.1583 O   0  0  0  0  0  0  0  0  0  0  0  0
   20.3360   -5.4442  -13.7147 O   0  0  0  0  0  0  0  0  0  0  0  0
  2  1  1  1
  3  2  1  0
  4  2  1  0
  4  6  1  0
  4  5  1  6
  6  8  1  0
  6  7  2  0
  8  9  1  0
  9 12  1  0
  9 10  1  1
 11 10  1  0
 12 19  1  0
 12 13  2  0
 15 14  1  0
 15 17  1  0
 16 15  2  0
 18 17  1  6
 18 20  1  0
 19 18  1  0
 20 21  1  0
 22 20  2  0
M  END
$$$$
