TCN.pdb
     RDKit          3D

 22 21  0  0  1  0  0  0  0  0999 V2000
   30.3724   -9.7953  -17.7722 C   0  0  0  0  0  0  0  0  0  0  0  0
   28.8984   -9.6485  -17.5882 C   0  0  1  0  0  0  0  0  0  0  0  0
   28.3330   -9.3252  -18.8212 O   0  0  0  0  0  0  0  0  0  0  0  0
   28.2268  -10.8965  -17.0964 C   0  0  2  0  0  0  0  0  0  0  0  0
   28.4068  -11.9450  -18.0799 N   0  0  0  0  0  0  0  0  0  0  0  0
   26.7623  -10.7012  -16.8966 C   0  0  0  0  0  0  0  0  0  0  0  0
   25.9316  -10.9163  -17.8301 O   0  0  0  0  0  0  0  0  0  0  0  0
   26.2008  -10.2667  -15.6649 N   0  0  0  0  0  0  0  0  0  0  0  0
   24.7806  -10.1473  -15.4443 C   0  0  1  0  0  0  0  0  0  0  0  0
   24.3913  -10.3150  -14.0024 C   0  0  0  0  0  0  0  0  0  0  0  0
   22.5766  -10.2881  -13.9161 S   0  0  0  0  0  0  0  0  0  0  0  0
   24.3605   -8.7774  -15.8578 C   0  0  0  0  0  0  0  0  0  0  0  0
   25.0503   -7.7548  -15.5944 O   0  0  0  0  0  0  0  0  0  0  0  0
   22.7302   -4.6458  -17.9333 N   0  0  0  0  0  0  0  0  0  0  0  0
   22.7656   -5.6550  -18.9213 C   0  0  0  0  0  0  0  0  0  0  0  0
   22.8110   -5.3315  -20.1307 O   0  0  0  0  0  0  0  0  0  0  0  0
   22.7478   -7.0720  -18.4929 C   0  0  0  0  0  0  0  0  0  0  0  0
   22.7765   -7.2145  -16.9893 C   0  0  2  0  0  0  0  0  0  0  0  0
   23.1369   -8.5550  -16.5835 N   0  0  0  0  0  0  0  0  0  0  0  0
   21.4432   -6.8414  -16.4625 C   0  0  0  0  0  0  0  0  0  0  0  0
   21.2510   -5.7008  -15.7201 O   0  0  0  0  0  0  0  0  0  0  0  0
   20.4651   -7.5847  -16.7000 O   0  0  0  0  0  0  0  0  0  0  0  0
  2  1  1  6
  3  2  1  0
  4  2  1  0
  4  6  1  0
  4  5  1  6
  6  8  1  0
  6  7  2  0
  8  9  1  0
  9 12  1  0
  9 10  1  1
 11 10  1  0
 12 19  1  0
 12 13  2  0
 15 14  1  0
 15 17  1  0
 16 15  2  0
 18 17  1  6
 18 20  1  0
 19 18  1  0
 20 21  1  0
 22 20  2  0
M  END
$$$$
