TCN.pdb
     RDKit          3D

 22 21  0  0  1  0  0  0  0  0999 V2000
   11.0466   -8.6133  -11.6431 C   0  0  0  0  0  0  0  0  0  0  0  0
   10.8183   -9.5152  -10.4758 C   0  0  1  0  0  0  0  0  0  0  0  0
    9.5662  -10.1114  -10.6211 O   0  0  0  0  0  0  0  0  0  0  0  0
   11.8317  -10.6152  -10.3589 C   0  0  2  0  0  0  0  0  0  0  0  0
   11.5217  -11.4170   -9.1928 N   0  0  0  0  0  0  0  0  0  0  0  0
   13.2156  -10.0848  -10.1966 C   0  0  0  0  0  0  0  0  0  0  0  0
   13.6553   -9.7155   -9.0660 O   0  0  0  0  0  0  0  0  0  0  0  0
   14.1271   -9.9570  -11.2800 N   0  0  0  0  0  0  0  0  0  0  0  0
   15.4207   -9.3321  -11.1527 C   0  0  1  0  0  0  0  0  0  0  0  0
   16.3643   -9.6971  -12.2642 C   0  0  0  0  0  0  0  0  0  0  0  0
   17.9273   -8.8191  -11.9689 S   0  0  0  0  0  0  0  0  0  0  0  0
   15.2289   -7.8540  -11.2050 C   0  0  0  0  0  0  0  0  0  0  0  0
   14.5491   -7.2962  -12.1092 O   0  0  0  0  0  0  0  0  0  0  0  0
   15.0816   -2.8739  -10.3031 N   0  0  0  0  0  0  0  0  0  0  0  0
   15.2772   -3.4567   -9.0312 C   0  0  0  0  0  0  0  0  0  0  0  0
   15.2014   -2.7396   -8.0069 O   0  0  0  0  0  0  0  0  0  0  0  0
   15.5675   -4.9061   -8.9490 C   0  0  0  0  0  0  0  0  0  0  0  0
   15.6205   -5.5562  -10.3115 C   0  0  2  0  0  0  0  0  0  0  0  0
   15.8158   -6.9860  -10.2174 N   0  0  0  0  0  0  0  0  0  0  0  0
   16.7125   -4.9217  -11.0858 C   0  0  0  0  0  0  0  0  0  0  0  0
   17.8098   -5.6339  -11.5077 O   0  0  0  0  0  0  0  0  0  0  0  0
   16.6339   -3.7042  -11.3635 O   0  0  0  0  0  0  0  0  0  0  0  0
  2  1  1  6
  3  2  1  0
  4  2  1  0
  4  6  1  0
  4  5  1  1
  6  8  1  0
  6  7  2  0
  8  9  1  0
  9 12  1  0
  9 10  1  6
 11 10  1  0
 12 19  1  0
 12 13  2  0
 15 14  1  0
 15 17  1  0
 16 15  2  0
 18 17  1  1
 18 20  1  0
 19 18  1  0
 20 21  1  0
 22 20  2  0
M  END
$$$$
