TCN.pdb
     RDKit          3D

 22 21  0  0  1  0  0  0  0  0999 V2000
   26.4946  -10.2768  -15.1576 C   0  0  0  0  0  0  0  0  0  0  0  0
   26.4566  -11.4853  -16.0330 C   0  0  1  0  0  0  0  0  0  0  0  0
   27.4383  -12.3739  -15.5958 O   0  0  0  0  0  0  0  0  0  0  0  0
   25.1438  -12.2104  -16.0001 C   0  0  2  0  0  0  0  0  0  0  0  0
   25.2412  -13.3955  -16.8277 N   0  0  0  0  0  0  0  0  0  0  0  0
   24.0294  -11.3724  -16.5279 C   0  0  0  0  0  0  0  0  0  0  0  0
   23.8645  -11.1968  -17.7729 O   0  0  0  0  0  0  0  0  0  0  0  0
   23.0865  -10.7203  -15.6871 N   0  0  0  0  0  0  0  0  0  0  0  0
   22.0087   -9.9067  -16.1935 C   0  0  1  0  0  0  0  0  0  0  0  0
   20.6797  -10.6083  -16.1724 C   0  0  0  0  0  0  0  0  0  0  0  0
   20.5361  -11.4659  -14.5771 S   0  0  0  0  0  0  0  0  0  0  0  0
   21.8859   -8.7038  -15.3205 C   0  0  0  0  0  0  0  0  0  0  0  0
   22.0871   -8.7531  -14.0764 O   0  0  0  0  0  0  0  0  0  0  0  0
   22.9575   -3.7033  -13.6315 N   0  0  0  0  0  0  0  0  0  0  0  0
   22.0618   -3.8757  -14.7103 C   0  0  0  0  0  0  0  0  0  0  0  0
   21.1804   -3.0113  -14.9231 O   0  0  0  0  0  0  0  0  0  0  0  0
   22.1942   -5.0806  -15.5603 C   0  0  0  0  0  0  0  0  0  0  0  0
   21.4555   -6.2674  -14.9879 C   0  0  2  0  0  0  0  0  0  0  0  0
   21.5287   -7.4179  -15.8611 N   0  0  0  0  0  0  0  0  0  0  0  0
   20.0483   -5.8686  -14.7531 C   0  0  0  0  0  0  0  0  0  0  0  0
   19.6285   -5.3723  -13.5420 O   0  0  0  0  0  0  0  0  0  0  0  0
   19.2190   -5.9867  -15.6825 O   0  0  0  0  0  0  0  0  0  0  0  0
  2  1  1  1
  3  2  1  0
  4  2  1  0
  4  6  1  0
  4  5  1  6
  6  8  1  0
  6  7  2  0
  8  9  1  0
  9 12  1  0
  9 10  1  1
 11 10  1  0
 12 19  1  0
 12 13  2  0
 15 14  1  0
 15 17  1  0
 16 15  2  0
 18 17  1  6
 18 20  1  0
 19 18  1  0
 20 21  1  0
 22 20  2  0
M  END
$$$$
