TCN.pdb
     RDKit          3D

 22 21  0  0  1  0  0  0  0  0999 V2000
   22.8587  -22.7628  -15.0056 C   0  0  0  0  0  0  0  0  0  0  0  0
   21.8910  -21.7910  -14.4163 C   0  0  1  0  0  0  0  0  0  0  0  0
   20.6091  -22.3294  -14.5237 O   0  0  0  0  0  0  0  0  0  0  0  0
   22.1389  -21.5005  -12.9656 C   0  0  2  0  0  0  0  0  0  0  0  0
   21.0482  -20.6950  -12.4551 N   0  0  0  0  0  0  0  0  0  0  0  0
   23.4059  -20.7430  -12.7562 C   0  0  0  0  0  0  0  0  0  0  0  0
   23.5353  -19.5456  -13.1529 O   0  0  0  0  0  0  0  0  0  0  0  0
   24.5417  -21.2996  -12.1072 N   0  0  0  0  0  0  0  0  0  0  0  0
   25.7994  -20.6044  -11.9849 C   0  0  1  0  0  0  0  0  0  0  0  0
   26.5311  -20.9280  -10.7125 C   0  0  0  0  0  0  0  0  0  0  0  0
   25.3947  -20.6144   -9.3300 S   0  0  0  0  0  0  0  0  0  0  0  0
   26.6747  -21.0266  -13.1162 C   0  0  0  0  0  0  0  0  0  0  0  0
   26.8507  -22.2397  -13.4131 O   0  0  0  0  0  0  0  0  0  0  0  0
   27.3340  -20.5842  -18.0774 N   0  0  0  0  0  0  0  0  0  0  0  0
   26.0979  -20.7305  -17.4093 C   0  0  0  0  0  0  0  0  0  0  0  0
   25.0713  -21.0144  -18.0686 O   0  0  0  0  0  0  0  0  0  0  0  0
   26.0550  -20.5424  -15.9415 C   0  0  0  0  0  0  0  0  0  0  0  0
   27.4174  -20.2368  -15.3648 C   0  0  2  0  0  0  0  0  0  0  0  0
   27.3664  -20.0611  -13.9303 N   0  0  0  0  0  0  0  0  0  0  0  0
   27.9402  -19.0207  -16.0297 C   0  0  0  0  0  0  0  0  0  0  0  0
   27.5342  -17.7610  -15.6588 O   0  0  0  0  0  0  0  0  0  0  0  0
   28.7742  -19.1434  -16.9543 O   0  0  0  0  0  0  0  0  0  0  0  0
  2  1  1  1
  3  2  1  0
  4  2  1  0
  4  6  1  0
  4  5  1  6
  6  8  1  0
  6  7  2  0
  8  9  1  0
  9 12  1  0
  9 10  1  1
 11 10  1  0
 12 19  1  0
 12 13  2  0
 15 14  1  0
 15 17  1  0
 16 15  2  0
 18 17  1  6
 18 20  1  0
 19 18  1  0
 20 21  1  0
 22 20  2  0
M  END
$$$$
