TCN.pdb
     RDKit          3D

 22 21  0  0  1  0  0  0  0  0999 V2000
   22.8218   -9.0509  -18.4023 C   0  0  0  0  0  0  0  0  0  0  0  0
   21.5230   -9.6230  -18.8651 C   0  0  1  0  0  0  0  0  0  0  0  0
   21.7882  -10.5634  -19.8600 O   0  0  0  0  0  0  0  0  0  0  0  0
   20.7518  -10.3170  -17.7815 C   0  0  2  0  0  0  0  0  0  0  0  0
   19.5706  -10.9236  -18.3609 N   0  0  0  0  0  0  0  0  0  0  0  0
   20.3074   -9.3708  -16.7184 C   0  0  0  0  0  0  0  0  0  0  0  0
   19.5073   -8.4198  -16.9700 O   0  0  0  0  0  0  0  0  0  0  0  0
   20.7416   -9.4651  -15.3680 N   0  0  0  0  0  0  0  0  0  0  0  0
   20.3896   -8.4985  -14.3572 C   0  0  1  0  0  0  0  0  0  0  0  0
   20.6403   -8.9892  -12.9589 C   0  0  0  0  0  0  0  0  0  0  0  0
   20.1672   -7.6582  -11.8161 S   0  0  0  0  0  0  0  0  0  0  0  0
   21.2371   -7.2878  -14.5580 C   0  0  0  0  0  0  0  0  0  0  0  0
   22.4958   -7.3496  -14.6087 O   0  0  0  0  0  0  0  0  0  0  0  0
   23.7093   -3.2845  -16.8815 N   0  0  0  0  0  0  0  0  0  0  0  0
   22.3285   -3.1940  -16.5966 C   0  0  0  0  0  0  0  0  0  0  0  0
   21.7854   -2.0669  -16.5336 O   0  0  0  0  0  0  0  0  0  0  0  0
   21.5626   -4.4423  -16.3801 C   0  0  0  0  0  0  0  0  0  0  0  0
   21.5077   -4.8330  -14.9219 C   0  0  2  0  0  0  0  0  0  0  0  0
   20.6536   -5.9797  -14.7048 N   0  0  0  0  0  0  0  0  0  0  0  0
   21.0332   -3.6638  -14.1460 C   0  0  0  0  0  0  0  0  0  0  0  0
   21.8793   -2.6429  -13.7841 O   0  0  0  0  0  0  0  0  0  0  0  0
   19.8292   -3.6038  -13.8108 O   0  0  0  0  0  0  0  0  0  0  0  0
  2  1  1  1
  3  2  1  0
  4  2  1  0
  4  6  1  0
  4  5  1  6
  6  8  1  0
  6  7  2  0
  8  9  1  0
  9 12  1  0
  9 10  1  1
 11 10  1  0
 12 19  1  0
 12 13  2  0
 15 14  1  0
 15 17  1  0
 16 15  2  0
 18 17  1  6
 18 20  1  0
 19 18  1  0
 20 21  1  0
 22 20  2  0
M  END
$$$$
