TCN.pdb
     RDKit          3D

 22 21  0  0  1  0  0  0  0  0999 V2000
   20.3827  -11.0701  -20.8741 C   0  0  0  0  0  0  0  0  0  0  0  0
   20.1477  -11.8284  -19.6101 C   0  0  1  0  0  0  0  0  0  0  0  0
   20.3937  -13.1786  -19.8569 O   0  0  0  0  0  0  0  0  0  0  0  0
   21.0401  -11.4057  -18.4807 C   0  0  2  0  0  0  0  0  0  0  0  0
   20.9627  -12.3954  -17.4256 N   0  0  0  0  0  0  0  0  0  0  0  0
   20.6315  -10.0912  -17.9079 C   0  0  0  0  0  0  0  0  0  0  0  0
   20.4507   -9.0749  -18.6443 O   0  0  0  0  0  0  0  0  0  0  0  0
   20.4185   -9.8859  -16.5174 N   0  0  0  0  0  0  0  0  0  0  0  0
   19.8820   -8.6625  -15.9740 C   0  0  1  0  0  0  0  0  0  0  0  0
   18.7842   -8.8928  -14.9736 C   0  0  0  0  0  0  0  0  0  0  0  0
   17.4154   -9.7163  -15.8394 S   0  0  0  0  0  0  0  0  0  0  0  0
   20.9822   -7.9483  -15.2643 C   0  0  0  0  0  0  0  0  0  0  0  0
   21.7353   -8.5288  -14.4356 O   0  0  0  0  0  0  0  0  0  0  0  0
   23.7681   -6.9669  -16.9361 N   0  0  0  0  0  0  0  0  0  0  0  0
   23.7557   -5.5561  -16.8640 C   0  0  0  0  0  0  0  0  0  0  0  0
   24.3494   -4.8893  -17.7428 O   0  0  0  0  0  0  0  0  0  0  0  0
   23.0368   -4.9064  -15.7448 C   0  0  0  0  0  0  0  0  0  0  0  0
   22.3602   -5.9103  -14.8412 C   0  0  2  0  0  0  0  0  0  0  0  0
   21.2393   -6.5502  -15.4933 N   0  0  0  0  0  0  0  0  0  0  0  0
   21.9277   -5.2086  -13.6103 C   0  0  0  0  0  0  0  0  0  0  0  0
   20.5991   -5.0238  -13.3108 O   0  0  0  0  0  0  0  0  0  0  0  0
   22.7955   -4.7723  -12.8215 O   0  0  0  0  0  0  0  0  0  0  0  0
  2  1  1  6
  3  2  1  0
  4  2  1  0
  4  6  1  0
  4  5  1  1
  6  8  1  0
  6  7  2  0
  8  9  1  0
  9 12  1  0
  9 10  1  1
 11 10  1  0
 12 19  1  0
 12 13  2  0
 15 14  1  0
 15 17  1  0
 16 15  2  0
 18 17  1  6
 18 20  1  0
 19 18  1  0
 20 21  1  0
 22 20  2  0
M  END
$$$$
