TCN.pdb
     RDKit          3D

 22 21  0  0  1  0  0  0  0  0999 V2000
   19.3607   -9.7776  -19.8985 C   0  0  0  0  0  0  0  0  0  0  0  0
   19.0540  -11.2257  -19.7058 C   0  0  1  0  0  0  0  0  0  0  0  0
   18.7567  -11.7799  -20.9504 O   0  0  0  0  0  0  0  0  0  0  0  0
   20.1928  -12.0090  -19.1227 C   0  0  2  0  0  0  0  0  0  0  0  0
   19.7955  -13.3972  -19.0041 N   0  0  0  0  0  0  0  0  0  0  0  0
   20.5687  -11.5215  -17.7648 C   0  0  0  0  0  0  0  0  0  0  0  0
   19.8117  -11.7006  -16.7634 O   0  0  0  0  0  0  0  0  0  0  0  0
   21.7832  -10.8319  -17.4992 N   0  0  0  0  0  0  0  0  0  0  0  0
   22.1193  -10.2978  -16.2024 C   0  0  1  0  0  0  0  0  0  0  0  0
   23.4117  -10.8389  -15.6585 C   0  0  0  0  0  0  0  0  0  0  0  0
   24.6753  -10.6458  -16.9497 S   0  0  0  0  0  0  0  0  0  0  0  0
   22.2815   -8.8213  -16.3367 C   0  0  0  0  0  0  0  0  0  0  0  0
   22.7648   -8.2899  -17.3734 O   0  0  0  0  0  0  0  0  0  0  0  0
   20.4812   -3.4952  -16.0082 N   0  0  0  0  0  0  0  0  0  0  0  0
   21.4876   -4.3758  -16.4638 C   0  0  0  0  0  0  0  0  0  0  0  0
   22.5542   -3.9068  -16.9239 O   0  0  0  0  0  0  0  0  0  0  0  0
   21.2480   -5.8345  -16.3823 C   0  0  0  0  0  0  0  0  0  0  0  0
   22.1724   -6.5110  -15.3975 C   0  0  2  0  0  0  0  0  0  0  0  0
   21.8906   -7.9246  -15.2801 N   0  0  0  0  0  0  0  0  0  0  0  0
   22.0326   -5.8319  -14.0884 C   0  0  0  0  0  0  0  0  0  0  0  0
   22.6118   -4.6103  -13.8406 O   0  0  0  0  0  0  0  0  0  0  0  0
   21.3690   -6.3853  -13.1834 O   0  0  0  0  0  0  0  0  0  0  0  0
  2  1  1  6
  3  2  1  0
  4  2  1  0
  4  6  1  0
  4  5  1  1
  6  8  1  0
  6  7  2  0
  8  9  1  0
  9 12  1  0
  9 10  1  6
 11 10  1  0
 12 19  1  0
 12 13  2  0
 15 14  1  0
 15 17  1  0
 16 15  2  0
 18 17  1  6
 18 20  1  0
 19 18  1  0
 20 21  1  0
 22 20  2  0
M  END
$$$$
