TCN.pdb
     RDKit          3D

 22 21  0  0  1  0  0  0  0  0999 V2000
   15.8178  -12.0114  -18.9204 C   0  0  0  0  0  0  0  0  0  0  0  0
   16.4579  -11.1236  -17.9054 C   0  0  1  0  0  0  0  0  0  0  0  0
   15.4585  -10.6124  -17.0780 O   0  0  0  0  0  0  0  0  0  0  0  0
   17.4515  -11.8293  -17.0307 C   0  0  2  0  0  0  0  0  0  0  0  0
   16.7637  -12.8523  -16.2696 N   0  0  0  0  0  0  0  0  0  0  0  0
   18.1048  -10.9001  -16.0650 C   0  0  0  0  0  0  0  0  0  0  0  0
   17.7397  -10.8406  -14.8522 O   0  0  0  0  0  0  0  0  0  0  0  0
   19.1670  -10.0278  -16.4285 N   0  0  0  0  0  0  0  0  0  0  0  0
   19.7268   -9.0494  -15.5289 C   0  0  1  0  0  0  0  0  0  0  0  0
   21.2002   -9.2352  -15.2979 C   0  0  0  0  0  0  0  0  0  0  0  0
   21.7632   -7.8820  -14.2240 S   0  0  0  0  0  0  0  0  0  0  0  0
   19.5428   -7.7005  -16.1379 C   0  0  0  0  0  0  0  0  0  0  0  0
   20.0551   -7.3886  -17.2474 O   0  0  0  0  0  0  0  0  0  0  0  0
   17.1646   -2.1608  -15.4454 N   0  0  0  0  0  0  0  0  0  0  0  0
   17.2315   -3.3293  -16.2366 C   0  0  0  0  0  0  0  0  0  0  0  0
   17.1278   -3.2368  -17.4816 O   0  0  0  0  0  0  0  0  0  0  0  0
   17.4234   -4.6344  -15.5646 C   0  0  0  0  0  0  0  0  0  0  0  0
   18.6253   -5.3793  -16.0962 C   0  0  2  0  0  0  0  0  0  0  0  0
   18.7650   -6.6813  -15.4825 N   0  0  0  0  0  0  0  0  0  0  0  0
   19.8285   -4.5487  -15.8575 C   0  0  0  0  0  0  0  0  0  0  0  0
   20.3540   -3.7373  -16.8346 O   0  0  0  0  0  0  0  0  0  0  0  0
   20.3817   -4.5868  -14.7359 O   0  0  0  0  0  0  0  0  0  0  0  0
  2  1  1  6
  3  2  1  0
  4  2  1  0
  4  6  1  0
  4  5  1  1
  6  8  1  0
  6  7  2  0
  8  9  1  0
  9 12  1  0
  9 10  1  6
 11 10  1  0
 12 19  1  0
 12 13  2  0
 15 14  1  0
 15 17  1  0
 16 15  2  0
 18 17  1  1
 18 20  1  0
 19 18  1  0
 20 21  1  0
 22 20  2  0
M  END
$$$$
