TCN.pdb
     RDKit          3D

 22 21  0  0  1  0  0  0  0  0999 V2000
   28.2165  -17.7650  -15.5138 C   0  0  0  0  0  0  0  0  0  0  0  0
   27.1014  -18.5553  -14.9136 C   0  0  1  0  0  0  0  0  0  0  0  0
   26.0603  -18.6168  -15.8392 O   0  0  0  0  0  0  0  0  0  0  0  0
   27.4819  -19.9645  -14.5672 C   0  0  2  0  0  0  0  0  0  0  0  0
   27.7659  -20.6880  -15.7898 N   0  0  0  0  0  0  0  0  0  0  0  0
   26.3851  -20.6801  -13.8547 C   0  0  0  0  0  0  0  0  0  0  0  0
   25.6089  -21.4770  -14.4633 O   0  0  0  0  0  0  0  0  0  0  0  0
   26.1346  -20.5233  -12.4641 N   0  0  0  0  0  0  0  0  0  0  0  0
   25.0458  -21.1768  -11.7804 C   0  0  1  0  0  0  0  0  0  0  0  0
   25.1370  -21.0655  -10.2843 C   0  0  0  0  0  0  0  0  0  0  0  0
   26.8179  -21.5546   -9.7981 S   0  0  0  0  0  0  0  0  0  0  0  0
   23.7746  -20.5163  -12.1948 C   0  0  0  0  0  0  0  0  0  0  0  0
   23.5510  -19.2939  -11.9788 O   0  0  0  0  0  0  0  0  0  0  0  0
   21.4189  -21.2819  -16.9759 N   0  0  0  0  0  0  0  0  0  0  0  0
   22.0427  -21.2504  -15.7088 C   0  0  0  0  0  0  0  0  0  0  0  0
   22.8112  -22.1826  -15.3774 O   0  0  0  0  0  0  0  0  0  0  0  0
   21.7665  -20.1093  -14.8070 C   0  0  0  0  0  0  0  0  0  0  0  0
   21.5745  -20.5472  -13.3740 C   0  0  2  0  0  0  0  0  0  0  0  0
   22.7330  -21.2488  -12.8670 N   0  0  0  0  0  0  0  0  0  0  0  0
   20.3662  -21.4017  -13.3081 C   0  0  0  0  0  0  0  0  0  0  0  0
   19.1120  -20.9040  -13.5698 O   0  0  0  0  0  0  0  0  0  0  0  0
   20.4906  -22.6094  -13.0060 O   0  0  0  0  0  0  0  0  0  0  0  0
  2  1  1  6
  3  2  1  0
  4  2  1  0
  4  6  1  0
  4  5  1  6
  6  8  1  0
  6  7  2  0
  8  9  1  0
  9 12  1  0
  9 10  1  1
 11 10  1  0
 12 19  1  0
 12 13  2  0
 15 14  1  0
 15 17  1  0
 16 15  2  0
 18 17  1  6
 18 20  1  0
 19 18  1  0
 20 21  1  0
 22 20  2  0
M  END
$$$$
