TCN.pdb
     RDKit          3D

 22 21  0  0  1  0  0  0  0  0999 V2000
   26.3205  -18.8693  -15.8562 C   0  0  0  0  0  0  0  0  0  0  0  0
   27.1066  -20.0363  -16.3547 C   0  0  1  0  0  0  0  0  0  0  0  0
   28.1801  -19.5540  -17.1028 O   0  0  0  0  0  0  0  0  0  0  0  0
   27.6682  -20.8945  -15.2599 C   0  0  2  0  0  0  0  0  0  0  0  0
   28.3261  -22.0410  -15.8529 N   0  0  0  0  0  0  0  0  0  0  0  0
   26.6050  -21.3983  -14.3441 C   0  0  0  0  0  0  0  0  0  0  0  0
   25.8361  -22.3487  -14.6808 O   0  0  0  0  0  0  0  0  0  0  0  0
   26.3805  -20.8582  -13.0483 N   0  0  0  0  0  0  0  0  0  0  0  0
   25.3195  -21.3064  -12.1802 C   0  0  1  0  0  0  0  0  0  0  0  0
   25.4725  -20.8252  -10.7646 C   0  0  0  0  0  0  0  0  0  0  0  0
   26.8554  -21.7386  -10.0199 S   0  0  0  0  0  0  0  0  0  0  0  0
   24.0336  -20.7552  -12.6966 C   0  0  0  0  0  0  0  0  0  0  0  0
   23.8422  -19.5166  -12.8385 O   0  0  0  0  0  0  0  0  0  0  0  0
   19.6498  -20.0214  -15.0901 N   0  0  0  0  0  0  0  0  0  0  0  0
   20.3691  -21.0439  -15.7482 C   0  0  0  0  0  0  0  0  0  0  0  0
   19.9768  -21.4514  -16.8659 O   0  0  0  0  0  0  0  0  0  0  0  0
   21.5715  -21.6049  -15.0914 C   0  0  0  0  0  0  0  0  0  0  0  0
   21.7664  -21.0604  -13.6959 C   0  0  2  0  0  0  0  0  0  0  0  0
   22.9399  -21.6181  -13.0607 N   0  0  0  0  0  0  0  0  0  0  0  0
   20.5467  -21.3551  -12.9085 C   0  0  0  0  0  0  0  0  0  0  0  0
   20.5715  -22.1972  -11.8225 O   0  0  0  0  0  0  0  0  0  0  0  0
   19.4642  -20.8230  -13.2411 O   0  0  0  0  0  0  0  0  0  0  0  0
  2  1  1  1
  3  2  1  0
  4  2  1  0
  4  6  1  0
  4  5  1  6
  6  8  1  0
  6  7  2  0
  8  9  1  0
  9 12  1  0
  9 10  1  1
 11 10  1  0
 12 19  1  0
 12 13  2  0
 15 14  1  0
 15 17  1  0
 16 15  2  0
 18 17  1  6
 18 20  1  0
 19 18  1  0
 20 21  1  0
 22 20  2  0
M  END
$$$$
