TCN.pdb
     RDKit          3D

 22 21  0  0  1  0  0  0  0  0999 V2000
   29.4978  -26.7587  -17.6242 C   0  0  0  0  0  0  0  0  0  0  0  0
   29.1163  -25.4901  -16.9363 C   0  0  1  0  0  0  0  0  0  0  0  0
   30.0063  -24.4923  -17.3323 O   0  0  0  0  0  0  0  0  0  0  0  0
   27.7317  -25.0186  -17.2693 C   0  0  2  0  0  0  0  0  0  0  0  0
   27.4736  -23.7820  -16.5601 N   0  0  0  0  0  0  0  0  0  0  0  0
   26.6921  -26.0068  -16.8622 C   0  0  0  0  0  0  0  0  0  0  0  0
   26.4661  -26.2660  -15.6417 O   0  0  0  0  0  0  0  0  0  0  0  0
   25.8923  -26.7180  -17.7978 N   0  0  0  0  0  0  0  0  0  0  0  0
   24.9101  -27.7002  -17.4097 C   0  0  1  0  0  0  0  0  0  0  0  0
   23.7597  -27.7965  -18.3721 C   0  0  0  0  0  0  0  0  0  0  0  0
   22.4174  -26.7535  -17.7305 S   0  0  0  0  0  0  0  0  0  0  0  0
   25.5746  -29.0351  -17.3822 C   0  0  0  0  0  0  0  0  0  0  0  0
   26.2923  -29.4481  -18.3337 O   0  0  0  0  0  0  0  0  0  0  0  0
   28.3201  -32.5214  -15.2102 N   0  0  0  0  0  0  0  0  0  0  0  0
   27.1635  -32.5075  -14.3990 C   0  0  0  0  0  0  0  0  0  0  0  0
   27.2193  -32.9770  -13.2389 O   0  0  0  0  0  0  0  0  0  0  0  0
   25.9143  -31.9348  -14.9495 C   0  0  0  0  0  0  0  0  0  0  0  0
   26.1516  -31.1749  -16.2334 C   0  0  2  0  0  0  0  0  0  0  0  0
   25.4273  -29.9235  -16.2587 N   0  0  0  0  0  0  0  0  0  0  0  0
   25.7517  -32.0420  -17.3660 C   0  0  0  0  0  0  0  0  0  0  0  0
   24.4369  -32.1846  -17.7401 O   0  0  0  0  0  0  0  0  0  0  0  0
   26.6351  -32.6615  -17.9997 O   0  0  0  0  0  0  0  0  0  0  0  0
  2  1  1  6
  3  2  1  0
  4  2  1  0
  4  6  1  0
  4  5  1  1
  6  8  1  0
  6  7  2  0
  8  9  1  0
  9 12  1  0
  9 10  1  6
 11 10  1  0
 12 19  1  0
 12 13  2  0
 15 14  1  0
 15 17  1  0
 16 15  2  0
 18 17  1  1
 18 20  1  0
 19 18  1  0
 20 21  1  0
 22 20  2  0
M  END
$$$$
