YKM.pdb
     RDKit          3D

 30 30  0  0  1  0  0  0  0  0999 V2000
    8.3146  -13.0402   16.2160 O   0  0  0  0  0  0  0  0  0  0  0  0
    8.2143  -13.3863   17.5554 C   0  0  0  0  0  0  0  0  0  0  0  0
    7.1463  -12.9852   18.3027 C   0  0  0  0  0  0  0  0  0  0  0  0
    7.0490  -13.3329   19.6417 C   0  0  0  0  0  0  0  0  0  0  0  0
    8.0670  -14.0901   20.1694 C   0  0  0  0  0  0  0  0  0  0  0  0
    7.9797  -14.4712   21.6001 C   0  0  0  0  0  0  0  0  0  0  0  0
    7.5999  -15.9453   21.6312 C   0  0  2  0  0  0  0  0  0  0  0  0
    6.1913  -16.1394   21.4514 N   0  0  0  0  0  0  0  0  0  0  0  0
    8.0005  -16.4559   22.9640 C   0  0  0  0  0  0  0  0  0  0  0  0
    7.1681  -16.3895   23.9259 O   0  0  0  0  0  0  0  0  0  0  0  0
    9.1510  -14.5078   19.4459 C   0  0  0  0  0  0  0  0  0  0  0  0
    9.2142  -14.1423   18.1142 C   0  0  0  0  0  0  0  0  0  0  0  0
    9.2728  -16.9985   23.1483 N   0  0  0  0  0  0  0  0  0  0  0  0
    9.5900  -17.5786   24.5241 C   0  0  1  0  0  0  0  0  0  0  0  0
   10.4643  -18.7091   24.2390 C   0  0  0  0  0  0  0  0  0  0  0  0
   11.0330  -19.5065   25.3284 C   0  0  0  0  0  0  0  0  0  0  0  0
   11.8153  -20.6877   24.8992 C   0  0  0  0  0  0  0  0  0  0  0  0
   12.3294  -21.3651   26.1807 C   0  0  0  0  0  0  0  0  0  0  0  0
   13.0449  -22.5514   25.7747 N   0  0  0  0  0  0  0  0  0  0  0  0
   10.0210  -16.3919   25.2625 C   0  0  0  0  0  0  0  0  0  0  0  0
   10.8200  -15.5315   24.7134 O   0  0  0  0  0  0  0  0  0  0  0  0
    6.8026  -12.0563   25.6570 C   0  0  0  0  0  0  0  0  0  0  0  0
    7.2961  -12.1401   27.4218 S   0  0  0  0  0  0  0  0  0  0  0  0
    8.1934  -13.7226   27.6172 C   0  0  0  0  0  0  0  0  0  0  0  0
    9.5565  -13.6454   27.0216 C   0  0  0  0  0  0  0  0  0  0  0  0
   10.2952  -14.9615   27.2895 C   0  0  2  0  0  0  0  0  0  0  0  0
    9.6397  -16.0332   26.5791 N   0  0  0  0  0  0  0  0  0  0  0  0
   10.4374  -15.2169   28.7166 C   0  0  0  0  0  0  0  0  0  0  0  0
   11.1773  -14.3077   29.5113 O   0  0  0  0  0  0  0  0  0  0  0  0
    9.9669  -16.1840   29.3576 O   0  0  0  0  0  0  0  0  0  0  0  0
  2  1  1  0
  3  2  2  0
  4  3  1  0
  5  4  2  0
  5 11  1  0
  6  5  1  0
  7  8  1  1
  7  6  1  0
  9  7  1  0
 10  9  2  0
 11 12  2  0
 12  2  1  0
 13  9  1  0
 14 20  1  0
 14 13  1  0
 14 15  1  6
 16 15  1  0
 17 16  1  0
 18 17  1  0
 19 18  1  0
 20 27  1  0
 21 20  2  0
 22 23  1  0
 23 24  1  0
 24 25  1  0
 26 25  1  1
 26 28  1  0
 27 26  1  0
 28 30  2  0
 28 29  1  0
M  END
$$$$
