YKM.pdb
     RDKit          3D

 30 30  0  0  1  0  0  0  0  0999 V2000
    8.7288  -13.4661   16.1328 O   0  0  0  0  0  0  0  0  0  0  0  0
    8.4368  -13.8062   17.4454 C   0  0  0  0  0  0  0  0  0  0  0  0
    7.6129  -13.0266   18.2025 C   0  0  0  0  0  0  0  0  0  0  0  0
    7.3229  -13.3693   19.5147 C   0  0  0  0  0  0  0  0  0  0  0  0
    7.8987  -14.5162   20.0060 C   0  0  0  0  0  0  0  0  0  0  0  0
    7.5998  -14.8982   21.4076 C   0  0  0  0  0  0  0  0  0  0  0  0
    6.8689  -16.2323   21.3444 C   0  0  2  0  0  0  0  0  0  0  0  0
    5.5373  -16.0898   20.8337 N   0  0  0  0  0  0  0  0  0  0  0  0
    6.8105  -16.7473   22.7331 C   0  0  0  0  0  0  0  0  0  0  0  0
    5.8883  -16.3313   23.5072 O   0  0  0  0  0  0  0  0  0  0  0  0
    8.7291  -15.3189   19.2718 C   0  0  0  0  0  0  0  0  0  0  0  0
    8.9955  -14.9459   17.9676 C   0  0  0  0  0  0  0  0  0  0  0  0
    7.7572  -17.6733   23.1730 N   0  0  0  0  0  0  0  0  0  0  0  0
    7.6422  -18.1546   24.6169 C   0  0  1  0  0  0  0  0  0  0  0  0
    7.7176  -19.6063   24.5136 C   0  0  0  0  0  0  0  0  0  0  0  0
    7.7681  -20.4390   25.7178 C   0  0  0  0  0  0  0  0  0  0  0  0
    7.8134  -21.8978   25.4706 C   0  0  0  0  0  0  0  0  0  0  0  0
    7.8420  -22.5778   26.8498 C   0  0  0  0  0  0  0  0  0  0  0  0
    7.7725  -24.0016   26.6214 N   0  0  0  0  0  0  0  0  0  0  0  0
    8.6537  -17.3405   25.2903 C   0  0  0  0  0  0  0  0  0  0  0  0
    9.5794  -16.7450   24.6056 O   0  0  0  0  0  0  0  0  0  0  0  0
    6.9293  -12.2238   26.1900 C   0  0  0  0  0  0  0  0  0  0  0  0
    7.8803  -12.1060   27.7542 S   0  0  0  0  0  0  0  0  0  0  0  0
    9.0294  -13.5298   27.7510 C   0  0  0  0  0  0  0  0  0  0  0  0
    8.3586  -14.7617   27.2499 C   0  0  0  0  0  0  0  0  0  0  0  0
    9.3813  -15.9022   27.1960 C   0  0  2  0  0  0  0  0  0  0  0  0
    8.7468  -17.0922   26.6822 N   0  0  0  0  0  0  0  0  0  0  0  0
   10.0291  -16.1040   28.4850 C   0  0  0  0  0  0  0  0  0  0  0  0
   11.1213  -15.2782   28.8468 O   0  0  0  0  0  0  0  0  0  0  0  0
    9.7284  -16.9555   29.3522 O   0  0  0  0  0  0  0  0  0  0  0  0
  2  1  1  0
  3  2  2  0
  4  3  1  0
  5  4  2  0
  5 11  1  0
  6  5  1  0
  7  8  1  1
  7  6  1  0
  9  7  1  0
 10  9  2  0
 11 12  2  0
 12  2  1  0
 13  9  1  0
 14 20  1  0
 14 13  1  0
 14 15  1  6
 16 15  1  0
 17 16  1  0
 18 17  1  0
 19 18  1  0
 20 27  1  0
 21 20  2  0
 22 23  1  0
 23 24  1  0
 24 25  1  0
 26 25  1  1
 26 28  1  0
 27 26  1  0
 28 30  2  0
 28 29  1  0
M  END
$$$$
