YKM.pdb
     RDKit          3D

 30 30  0  0  1  0  0  0  0  0999 V2000
    8.3603  -12.5715   16.6974 O   0  0  0  0  0  0  0  0  0  0  0  0
    8.2466  -13.0965   17.9761 C   0  0  0  0  0  0  0  0  0  0  0  0
    7.1632  -12.8127   18.7543 C   0  0  0  0  0  0  0  0  0  0  0  0
    7.0525  -13.3392   20.0325 C   0  0  0  0  0  0  0  0  0  0  0  0
    8.0736  -14.1488   20.4688 C   0  0  0  0  0  0  0  0  0  0  0  0
    7.9721  -14.7207   21.8334 C   0  0  0  0  0  0  0  0  0  0  0  0
    8.1905  -16.2206   21.6897 C   0  0  2  0  0  0  0  0  0  0  0  0
    7.0970  -16.8592   21.0182 N   0  0  0  0  0  0  0  0  0  0  0  0
    8.3081  -16.7632   23.0641 C   0  0  0  0  0  0  0  0  0  0  0  0
    7.2466  -17.0545   23.7054 O   0  0  0  0  0  0  0  0  0  0  0  0
    9.1729  -14.4521   19.7122 C   0  0  0  0  0  0  0  0  0  0  0  0
    9.2491  -13.9093   18.4431 C   0  0  0  0  0  0  0  0  0  0  0  0
    9.5681  -16.9472   23.6348 N   0  0  0  0  0  0  0  0  0  0  0  0
    9.6262  -17.6771   24.9741 C   0  0  1  0  0  0  0  0  0  0  0  0
   10.2767  -18.9428   24.6600 C   0  0  0  0  0  0  0  0  0  0  0  0
   11.7356  -19.0275   24.5583 C   0  0  0  0  0  0  0  0  0  0  0  0
   12.2625  -20.3603   24.1880 C   0  0  0  0  0  0  0  0  0  0  0  0
   13.7961  -20.2446   24.1918 C   0  0  0  0  0  0  0  0  0  0  0  0
   14.3198  -21.5444   23.8449 N   0  0  0  0  0  0  0  0  0  0  0  0
   10.2151  -16.6628   25.8479 C   0  0  0  0  0  0  0  0  0  0  0  0
   11.3054  -16.0523   25.5032 O   0  0  0  0  0  0  0  0  0  0  0  0
    6.9475  -12.0527   26.5666 C   0  0  0  0  0  0  0  0  0  0  0  0
    8.5336  -12.4013   27.4197 S   0  0  0  0  0  0  0  0  0  0  0  0
    8.4303  -14.1400   27.9800 C   0  0  0  0  0  0  0  0  0  0  0  0
    9.6094  -14.5081   28.8123 C   0  0  0  0  0  0  0  0  0  0  0  0
   10.5106  -15.4558   28.0126 C   0  0  2  0  0  0  0  0  0  0  0  0
    9.7045  -16.2243   27.0948 N   0  0  0  0  0  0  0  0  0  0  0  0
   11.3338  -16.2798   28.8873 C   0  0  0  0  0  0  0  0  0  0  0  0
   11.0701  -17.6683   28.9789 O   0  0  0  0  0  0  0  0  0  0  0  0
   12.2881  -15.8969   29.6017 O   0  0  0  0  0  0  0  0  0  0  0  0
  2  1  1  0
  3  2  2  0
  4  3  1  0
  5  4  2  0
  5 11  1  0
  6  5  1  0
  7  8  1  1
  7  6  1  0
  9  7  1  0
 10  9  2  0
 11 12  2  0
 12  2  1  0
 13  9  1  0
 14 20  1  0
 14 13  1  0
 14 15  1  6
 16 15  1  0
 17 16  1  0
 18 17  1  0
 19 18  1  0
 20 27  1  0
 21 20  2  0
 22 23  1  0
 23 24  1  0
 24 25  1  0
 26 25  1  1
 26 28  1  0
 27 26  1  0
 28 30  2  0
 28 29  1  0
M  END
$$$$
