YKM.pdb
     RDKit          3D

 30 30  0  0  1  0  0  0  0  0999 V2000
    8.4506  -12.4615   15.7220 O   0  0  0  0  0  0  0  0  0  0  0  0
    8.1410  -13.1235   16.9008 C   0  0  0  0  0  0  0  0  0  0  0  0
    7.1733  -14.0841   16.9293 C   0  0  0  0  0  0  0  0  0  0  0  0
    6.8660  -14.7442   18.1096 C   0  0  0  0  0  0  0  0  0  0  0  0
    7.5746  -14.3873   19.2316 C   0  0  0  0  0  0  0  0  0  0  0  0
    7.2592  -15.0828   20.5030 C   0  0  0  0  0  0  0  0  0  0  0  0
    7.8015  -16.4989   20.3658 C   0  0  2  0  0  0  0  0  0  0  0  0
    6.9053  -17.3473   19.6370 N   0  0  0  0  0  0  0  0  0  0  0  0
    7.9646  -17.0231   21.7427 C   0  0  0  0  0  0  0  0  0  0  0  0
    6.9508  -17.0597   22.5131 O   0  0  0  0  0  0  0  0  0  0  0  0
    8.5508  -13.4281   19.2350 C   0  0  0  0  0  0  0  0  0  0  0  0
    8.8300  -12.7912   18.0402 C   0  0  0  0  0  0  0  0  0  0  0  0
    9.2149  -17.4665   22.1756 N   0  0  0  0  0  0  0  0  0  0  0  0
    9.3166  -17.9675   23.6138 C   0  0  1  0  0  0  0  0  0  0  0  0
   10.4163  -18.9233   23.5792 C   0  0  0  0  0  0  0  0  0  0  0  0
   10.8745  -19.5790   24.8064 C   0  0  0  0  0  0  0  0  0  0  0  0
    9.7984  -20.0097   25.7272 C   0  0  0  0  0  0  0  0  0  0  0  0
   10.4867  -20.6960   26.9191 C   0  0  0  0  0  0  0  0  0  0  0  0
   10.4781  -22.1149   26.6535 N   0  0  0  0  0  0  0  0  0  0  0  0
    9.3594  -16.7160   24.3695 C   0  0  0  0  0  0  0  0  0  0  0  0
   10.3375  -15.8818   24.2029 O   0  0  0  0  0  0  0  0  0  0  0  0
    7.0849  -10.4235   27.9070 C   0  0  0  0  0  0  0  0  0  0  0  0
    6.6572  -11.7730   26.7405 S   0  0  0  0  0  0  0  0  0  0  0  0
    7.5461  -13.2554   27.3406 C   0  0  0  0  0  0  0  0  0  0  0  0
    7.2975  -14.4271   26.4552 C   0  0  0  0  0  0  0  0  0  0  0  0
    8.6350  -15.1015   26.1298 C   0  0  2  0  0  0  0  0  0  0  0  0
    8.3990  -16.2643   25.3083 N   0  0  0  0  0  0  0  0  0  0  0  0
    9.3975  -15.3922   27.3365 C   0  0  0  0  0  0  0  0  0  0  0  0
   10.2312  -14.3880   27.8862 O   0  0  0  0  0  0  0  0  0  0  0  0
    9.4097  -16.4679   27.9770 O   0  0  0  0  0  0  0  0  0  0  0  0
  2  1  1  0
  3  2  2  0
  4  3  1  0
  5  4  2  0
  5 11  1  0
  6  5  1  0
  7  8  1  6
  7  6  1  0
  9  7  1  0
 10  9  2  0
 11 12  2  0
 12  2  1  0
 13  9  1  0
 14 20  1  0
 14 13  1  0
 14 15  1  6
 16 15  1  0
 17 16  1  0
 18 17  1  0
 19 18  1  0
 20 27  1  0
 21 20  2  0
 22 23  1  0
 23 24  1  0
 24 25  1  0
 26 25  1  1
 26 28  1  0
 27 26  1  0
 28 30  2  0
 28 29  1  0
M  END
$$$$
