YKM.pdb
     RDKit          3D

 30 30  0  0  1  0  0  0  0  0999 V2000
    8.6979  -12.7478   17.3374 O   0  0  0  0  0  0  0  0  0  0  0  0
    8.3233  -13.3069   18.5502 C   0  0  0  0  0  0  0  0  0  0  0  0
    8.1963  -14.6579   18.6873 C   0  0  0  0  0  0  0  0  0  0  0  0
    7.8215  -15.2138   19.9013 C   0  0  0  0  0  0  0  0  0  0  0  0
    7.5882  -14.3485   20.9429 C   0  0  0  0  0  0  0  0  0  0  0  0
    7.1863  -14.9254   22.2488 C   0  0  0  0  0  0  0  0  0  0  0  0
    7.1507  -16.4359   22.0602 C   0  0  2  0  0  0  0  0  0  0  0  0
    5.8291  -16.9653   22.2254 N   0  0  0  0  0  0  0  0  0  0  0  0
    8.0437  -17.0110   23.0942 C   0  0  0  0  0  0  0  0  0  0  0  0
    7.5444  -17.3724   24.2090 O   0  0  0  0  0  0  0  0  0  0  0  0
    7.7071  -12.9893   20.8368 C   0  0  0  0  0  0  0  0  0  0  0  0
    8.0826  -12.4708   19.6116 C   0  0  0  0  0  0  0  0  0  0  0  0
    9.4084  -17.1488   22.8374 N   0  0  0  0  0  0  0  0  0  0  0  0
   10.2506  -17.8458   23.9026 C   0  0  1  0  0  0  0  0  0  0  0  0
   11.0605  -18.7946   23.1492 C   0  0  0  0  0  0  0  0  0  0  0  0
   12.0781  -19.6064   23.8212 C   0  0  0  0  0  0  0  0  0  0  0  0
   12.8457  -20.5101   22.9350 C   0  0  0  0  0  0  0  0  0  0  0  0
   13.8753  -21.2286   23.8233 C   0  0  0  0  0  0  0  0  0  0  0  0
   14.6460  -22.0945   22.9628 N   0  0  0  0  0  0  0  0  0  0  0  0
   10.8111  -16.7120   24.6371 C   0  0  0  0  0  0  0  0  0  0  0  0
   12.0458  -16.7308   25.0312 O   0  0  0  0  0  0  0  0  0  0  0  0
    6.4158  -12.7190   27.1305 C   0  0  0  0  0  0  0  0  0  0  0  0
    7.8020  -12.2355   28.2303 S   0  0  0  0  0  0  0  0  0  0  0  0
    9.1341  -13.4514   27.9225 C   0  0  0  0  0  0  0  0  0  0  0  0
    9.0319  -14.0262   26.5521 C   0  0  0  0  0  0  0  0  0  0  0  0
   10.2317  -14.9477   26.3050 C   0  0  2  0  0  0  0  0  0  0  0  0
   10.1375  -15.5137   24.9807 N   0  0  0  0  0  0  0  0  0  0  0  0
   10.3639  -15.9503   27.3533 C   0  0  0  0  0  0  0  0  0  0  0  0
   11.2911  -15.7360   28.4021 O   0  0  0  0  0  0  0  0  0  0  0  0
    9.7325  -17.0274   27.4472 O   0  0  0  0  0  0  0  0  0  0  0  0
  2  1  1  0
  3  2  2  0
  4  3  1  0
  5  4  2  0
  5 11  1  0
  6  5  1  0
  7  8  1  1
  7  6  1  0
  9  7  1  0
 10  9  2  0
 11 12  2  0
 12  2  1  0
 13  9  1  0
 14 20  1  0
 14 13  1  0
 14 15  1  6
 16 15  1  0
 17 16  1  0
 18 17  1  0
 19 18  1  0
 20 27  1  0
 21 20  2  0
 22 23  1  0
 23 24  1  0
 24 25  1  0
 26 25  1  1
 26 28  1  0
 27 26  1  0
 28 30  2  0
 28 29  1  0
M  END
$$$$
