YKM.pdb
     RDKit          3D

 30 30  0  0  1  0  0  0  0  0999 V2000
    6.4904  -23.2364   28.9272 O   0  0  0  0  0  0  0  0  0  0  0  0
    6.6502  -22.1063   28.1390 C   0  0  0  0  0  0  0  0  0  0  0  0
    7.8836  -21.5569   27.9470 C   0  0  0  0  0  0  0  0  0  0  0  0
    8.0399  -20.4269   27.1584 C   0  0  0  0  0  0  0  0  0  0  0  0
    6.9072  -19.8968   26.5890 C   0  0  0  0  0  0  0  0  0  0  0  0
    7.0555  -18.6881   25.7425 C   0  0  0  0  0  0  0  0  0  0  0  0
    6.5993  -19.0822   24.3444 C   0  0  2  0  0  0  0  0  0  0  0  0
    7.0355  -20.4008   23.9905 N   0  0  0  0  0  0  0  0  0  0  0  0
    7.1999  -18.0987   23.4120 C   0  0  0  0  0  0  0  0  0  0  0  0
    8.3522  -18.3358   22.9232 O   0  0  0  0  0  0  0  0  0  0  0  0
    5.6566  -20.4247   26.7627 C   0  0  0  0  0  0  0  0  0  0  0  0
    5.5390  -21.5513   27.5553 C   0  0  0  0  0  0  0  0  0  0  0  0
    6.5032  -16.9353   23.0831 N   0  0  0  0  0  0  0  0  0  0  0  0
    7.2681  -15.8579   22.3189 C   0  0  1  0  0  0  0  0  0  0  0  0
    6.2227  -15.0146   21.7536 C   0  0  0  0  0  0  0  0  0  0  0  0
    6.5573  -13.9307   20.8267 C   0  0  0  0  0  0  0  0  0  0  0  0
    7.2815  -14.3503   19.6057 C   0  0  0  0  0  0  0  0  0  0  0  0
    7.4560  -13.0899   18.7418 C   0  0  0  0  0  0  0  0  0  0  0  0
    8.1564  -13.4907   17.5447 N   0  0  0  0  0  0  0  0  0  0  0  0
    8.2240  -15.3930   23.3236 C   0  0  0  0  0  0  0  0  0  0  0  0
    7.8343  -14.6316   24.2975 O   0  0  0  0  0  0  0  0  0  0  0  0
   11.0601  -13.5702   29.4805 C   0  0  0  0  0  0  0  0  0  0  0  0
    9.9771  -14.6047   28.4214 S   0  0  0  0  0  0  0  0  0  0  0  0
   10.7234  -14.5659   26.7514 C   0  0  0  0  0  0  0  0  0  0  0  0
    9.7912  -15.1237   25.7323 C   0  0  0  0  0  0  0  0  0  0  0  0
   10.4750  -15.0977   24.3607 C   0  0  2  0  0  0  0  0  0  0  0  0
    9.6058  -15.7013   23.3794 N   0  0  0  0  0  0  0  0  0  0  0  0
   11.7992  -15.7029   24.4091 C   0  0  0  0  0  0  0  0  0  0  0  0
   12.8829  -14.9543   24.9297 O   0  0  0  0  0  0  0  0  0  0  0  0
   12.1139  -16.8539   24.0300 O   0  0  0  0  0  0  0  0  0  0  0  0
  2  1  1  0
  3  2  2  0
  4  3  1  0
  5  4  2  0
  5 11  1  0
  6  5  1  0
  7  8  1  6
  7  6  1  0
  9  7  1  0
 10  9  2  0
 11 12  2  0
 12  2  1  0
 13  9  1  0
 14 20  1  0
 14 13  1  0
 14 15  1  1
 16 15  1  0
 17 16  1  0
 18 17  1  0
 19 18  1  0
 20 27  1  0
 21 20  2  0
 22 23  1  0
 23 24  1  0
 24 25  1  0
 26 25  1  1
 26 28  1  0
 27 26  1  0
 28 30  2  0
 28 29  1  0
M  END
$$$$
