YKM.pdb
     RDKit          3D

 30 30  0  0  1  0  0  0  0  0999 V2000
    5.5836  -10.5660   25.8586 O   0  0  0  0  0  0  0  0  0  0  0  0
    5.8582  -11.9229   25.9433 C   0  0  0  0  0  0  0  0  0  0  0  0
    7.1441  -12.3772   25.9391 C   0  0  0  0  0  0  0  0  0  0  0  0
    7.4153  -13.7346   26.0239 C   0  0  0  0  0  0  0  0  0  0  0  0
    6.3399  -14.5856   26.1111 C   0  0  0  0  0  0  0  0  0  0  0  0
    6.6111  -16.0408   26.2024 C   0  0  0  0  0  0  0  0  0  0  0  0
    6.1128  -16.6548   24.9013 C   0  0  2  0  0  0  0  0  0  0  0  0
    5.8645  -18.0603   25.0329 N   0  0  0  0  0  0  0  0  0  0  0  0
    7.1798  -16.4360   23.8959 C   0  0  0  0  0  0  0  0  0  0  0  0
    8.2024  -17.1955   23.9061 O   0  0  0  0  0  0  0  0  0  0  0  0
    5.0390  -14.1607   26.1177 C   0  0  0  0  0  0  0  0  0  0  0  0
    4.8068  -12.8006   26.0316 C   0  0  0  0  0  0  0  0  0  0  0  0
    7.0534  -15.4102   22.9583 N   0  0  0  0  0  0  0  0  0  0  0  0
    8.1368  -15.3076   21.8879 C   0  0  1  0  0  0  0  0  0  0  0  0
    7.5798  -14.3848   20.9072 C   0  0  0  0  0  0  0  0  0  0  0  0
    8.3902  -13.9120   19.7822 C   0  0  0  0  0  0  0  0  0  0  0  0
    7.8784  -14.2785   18.4424 C   0  0  0  0  0  0  0  0  0  0  0  0
    8.8948  -13.7419   17.4204 C   0  0  0  0  0  0  0  0  0  0  0  0
    8.4329  -14.1432   16.1129 N   0  0  0  0  0  0  0  0  0  0  0  0
    9.3265  -15.0143   22.6865 C   0  0  0  0  0  0  0  0  0  0  0  0
    9.2922  -14.0988   23.6035 O   0  0  0  0  0  0  0  0  0  0  0  0
   12.6564  -15.9388   28.8827 C   0  0  0  0  0  0  0  0  0  0  0  0
   11.3186  -16.2742   27.6733 S   0  0  0  0  0  0  0  0  0  0  0  0
   12.0043  -15.8400   26.0335 C   0  0  0  0  0  0  0  0  0  0  0  0
   10.9534  -15.8938   24.9793 C   0  0  0  0  0  0  0  0  0  0  0  0
   11.5798  -15.5291   23.6287 C   0  0  2  0  0  0  0  0  0  0  0  0
   10.5866  -15.6549   22.5892 N   0  0  0  0  0  0  0  0  0  0  0  0
   12.7871  -16.3021   23.3703 C   0  0  0  0  0  0  0  0  0  0  0  0
   13.9863  -15.9558   24.0394 O   0  0  0  0  0  0  0  0  0  0  0  0
   12.9031  -17.2780   22.5946 O   0  0  0  0  0  0  0  0  0  0  0  0
  2  1  1  0
  3  2  2  0
  4  3  1  0
  5  4  2  0
  5 11  1  0
  6  5  1  0
  7  8  1  1
  7  6  1  0
  9  7  1  0
 10  9  2  0
 11 12  2  0
 12  2  1  0
 13  9  1  0
 14 20  1  0
 14 13  1  0
 14 15  1  6
 16 15  1  0
 17 16  1  0
 18 17  1  0
 19 18  1  0
 20 27  1  0
 21 20  2  0
 22 23  1  0
 23 24  1  0
 24 25  1  0
 26 25  1  1
 26 28  1  0
 27 26  1  0
 28 30  2  0
 28 29  1  0
M  END
$$$$
