YKM.pdb
     RDKit          3D

 30 30  0  0  1  0  0  0  0  0999 V2000
    5.8759  -11.4153   26.4672 O   0  0  0  0  0  0  0  0  0  0  0  0
    6.0243  -12.7940   26.4357 C   0  0  0  0  0  0  0  0  0  0  0  0
    5.1447  -13.5759   25.7465 C   0  0  0  0  0  0  0  0  0  0  0  0
    5.2958  -14.9542   25.7170 C   0  0  0  0  0  0  0  0  0  0  0  0
    6.3598  -15.4841   26.4064 C   0  0  0  0  0  0  0  0  0  0  0  0
    6.5369  -16.9565   26.3859 C   0  0  0  0  0  0  0  0  0  0  0  0
    6.2313  -17.4078   24.9643 C   0  0  2  0  0  0  0  0  0  0  0  0
    6.0936  -18.8315   24.8723 N   0  0  0  0  0  0  0  0  0  0  0  0
    7.3738  -16.9692   24.1278 C   0  0  0  0  0  0  0  0  0  0  0  0
    8.4376  -17.6700   24.1199 O   0  0  0  0  0  0  0  0  0  0  0  0
    7.2589  -14.7265   27.1067 C   0  0  0  0  0  0  0  0  0  0  0  0
    7.0767  -13.3561   27.1138 C   0  0  0  0  0  0  0  0  0  0  0  0
    7.2724  -15.8048   23.3656 N   0  0  0  0  0  0  0  0  0  0  0  0
    8.3732  -15.5452   22.3405 C   0  0  1  0  0  0  0  0  0  0  0  0
    7.7749  -14.5958   21.4107 C   0  0  0  0  0  0  0  0  0  0  0  0
    8.5484  -14.0632   20.2866 C   0  0  0  0  0  0  0  0  0  0  0  0
    7.7881  -13.2005   19.3544 C   0  0  0  0  0  0  0  0  0  0  0  0
    8.7740  -12.7574   18.2603 C   0  0  0  0  0  0  0  0  0  0  0  0
    9.1973  -13.9490   17.5639 N   0  0  0  0  0  0  0  0  0  0  0  0
    9.5158  -15.2256   23.1957 C   0  0  0  0  0  0  0  0  0  0  0  0
    9.3340  -14.6805   24.3576 O   0  0  0  0  0  0  0  0  0  0  0  0
   11.6409  -14.6846   28.7910 C   0  0  0  0  0  0  0  0  0  0  0  0
   11.3204  -16.3034   27.9899 S   0  0  0  0  0  0  0  0  0  0  0  0
   12.1126  -16.2137   26.3430 C   0  0  0  0  0  0  0  0  0  0  0  0
   11.1155  -15.8968   25.2828 C   0  0  0  0  0  0  0  0  0  0  0  0
   11.8461  -15.7085   23.9485 C   0  0  2  0  0  0  0  0  0  0  0  0
   10.8814  -15.4652   22.9031 N   0  0  0  0  0  0  0  0  0  0  0  0
   12.7383  -16.8239   23.6626 C   0  0  0  0  0  0  0  0  0  0  0  0
   12.2008  -18.1299   23.5576 O   0  0  0  0  0  0  0  0  0  0  0  0
   13.9774  -16.7704   23.4914 O   0  0  0  0  0  0  0  0  0  0  0  0
  2  1  1  0
  3  2  2  0
  4  3  1  0
  5  4  2  0
  5 11  1  0
  6  5  1  0
  7  8  1  1
  7  6  1  0
  9  7  1  0
 10  9  2  0
 11 12  2  0
 12  2  1  0
 13  9  1  0
 14 20  1  0
 14 13  1  0
 14 15  1  6
 16 15  1  0
 17 16  1  0
 18 17  1  0
 19 18  1  0
 20 27  1  0
 21 20  2  0
 22 23  1  0
 23 24  1  0
 24 25  1  0
 26 25  1  1
 26 28  1  0
 27 26  1  0
 28 30  2  0
 28 29  1  0
M  END
$$$$
