YKM.pdb
     RDKit          3D

 30 30  0  0  1  0  0  0  0  0999 V2000
    4.8923   -9.9900   26.4279 O   0  0  0  0  0  0  0  0  0  0  0  0
    5.5577  -11.2006   26.3034 C   0  0  0  0  0  0  0  0  0  0  0  0
    6.6619  -11.3128   25.5109 C   0  0  0  0  0  0  0  0  0  0  0  0
    7.3249  -12.5247   25.3885 C   0  0  0  0  0  0  0  0  0  0  0  0
    6.8213  -13.5902   26.0950 C   0  0  0  0  0  0  0  0  0  0  0  0
    7.5177  -14.8942   25.9761 C   0  0  0  0  0  0  0  0  0  0  0  0
    6.8073  -15.6631   24.8704 C   0  0  2  0  0  0  0  0  0  0  0  0
    5.8566  -16.5989   25.3943 N   0  0  0  0  0  0  0  0  0  0  0  0
    7.8580  -16.3953   24.1239 C   0  0  0  0  0  0  0  0  0  0  0  0
    8.2875  -17.5012   24.5879 O   0  0  0  0  0  0  0  0  0  0  0  0
    5.7161  -13.5094   26.8981 C   0  0  0  0  0  0  0  0  0  0  0  0
    5.0809  -12.2854   26.9958 C   0  0  0  0  0  0  0  0  0  0  0  0
    8.3603  -15.8701   22.9326 N   0  0  0  0  0  0  0  0  0  0  0  0
    9.5438  -16.5944   22.2965 C   0  0  1  0  0  0  0  0  0  0  0  0
    9.4615  -16.2369   20.8861 C   0  0  0  0  0  0  0  0  0  0  0  0
   10.4767  -16.7014   19.9376 C   0  0  0  0  0  0  0  0  0  0  0  0
    9.9515  -17.4446   18.7702 C   0  0  0  0  0  0  0  0  0  0  0  0
   10.8212  -17.0457   17.5661 C   0  0  0  0  0  0  0  0  0  0  0  0
   10.2862  -17.7290   16.4124 N   0  0  0  0  0  0  0  0  0  0  0  0
   10.6489  -16.1937   23.1668 C   0  0  0  0  0  0  0  0  0  0  0  0
   10.8848  -14.9393   23.3929 O   0  0  0  0  0  0  0  0  0  0  0  0
   10.5475  -13.9624   28.5321 C   0  0  0  0  0  0  0  0  0  0  0  0
   11.9180  -15.1346   28.1969 S   0  0  0  0  0  0  0  0  0  0  0  0
   12.0495  -15.2451   26.3753 C   0  0  0  0  0  0  0  0  0  0  0  0
   12.6384  -16.5475   25.9563 C   0  0  0  0  0  0  0  0  0  0  0  0
   12.7691  -16.5696   24.4292 C   0  0  2  0  0  0  0  0  0  0  0  0
   11.5410  -17.0576   23.8492 N   0  0  0  0  0  0  0  0  0  0  0  0
   13.9455  -17.3147   24.0016 C   0  0  0  0  0  0  0  0  0  0  0  0
   15.1849  -16.6401   23.8803 O   0  0  0  0  0  0  0  0  0  0  0  0
   14.0006  -18.5319   23.7136 O   0  0  0  0  0  0  0  0  0  0  0  0
  2  1  1  0
  3  2  2  0
  4  3  1  0
  5  4  2  0
  5 11  1  0
  6  5  1  0
  7  8  1  1
  7  6  1  0
  9  7  1  0
 10  9  2  0
 11 12  2  0
 12  2  1  0
 13  9  1  0
 14 20  1  0
 14 13  1  0
 14 15  1  6
 16 15  1  0
 17 16  1  0
 18 17  1  0
 19 18  1  0
 20 27  1  0
 21 20  2  0
 22 23  1  0
 23 24  1  0
 24 25  1  0
 26 25  1  1
 26 28  1  0
 27 26  1  0
 28 30  2  0
 28 29  1  0
M  END
$$$$
