YKM.pdb
     RDKit          3D

 30 30  0  0  1  0  0  0  0  0999 V2000
    5.3955  -10.8744   26.0645 O   0  0  0  0  0  0  0  0  0  0  0  0
    5.6725  -12.2327   26.0186 C   0  0  0  0  0  0  0  0  0  0  0  0
    4.6708  -13.1536   26.1108 C   0  0  0  0  0  0  0  0  0  0  0  0
    4.9510  -14.5111   26.0647 C   0  0  0  0  0  0  0  0  0  0  0  0
    6.2683  -14.8759   25.9237 C   0  0  0  0  0  0  0  0  0  0  0  0
    6.5866  -16.3235   25.8726 C   0  0  0  0  0  0  0  0  0  0  0  0
    6.3204  -16.7734   24.4426 C   0  0  2  0  0  0  0  0  0  0  0  0
    6.1588  -18.1945   24.3495 N   0  0  0  0  0  0  0  0  0  0  0  0
    7.4984  -16.3590   23.6440 C   0  0  0  0  0  0  0  0  0  0  0  0
    8.4771  -17.1655   23.5238 O   0  0  0  0  0  0  0  0  0  0  0  0
    7.2952  -13.9763   25.8286 C   0  0  0  0  0  0  0  0  0  0  0  0
    6.9782  -12.6316   25.8783 C   0  0  0  0  0  0  0  0  0  0  0  0
    7.5220  -15.1021   23.0383 N   0  0  0  0  0  0  0  0  0  0  0  0
    8.6060  -14.8529   21.9929 C   0  0  1  0  0  0  0  0  0  0  0  0
    8.1910  -13.6182   21.3394 C   0  0  0  0  0  0  0  0  0  0  0  0
    7.8737  -13.6006   19.9094 C   0  0  0  0  0  0  0  0  0  0  0  0
    8.5192  -14.6662   19.1101 C   0  0  0  0  0  0  0  0  0  0  0  0
    8.0926  -14.4415   17.6497 C   0  0  0  0  0  0  0  0  0  0  0  0
    9.3009  -14.3437   16.8658 N   0  0  0  0  0  0  0  0  0  0  0  0
    9.8281  -14.9734   22.7875 C   0  0  0  0  0  0  0  0  0  0  0  0
   10.2464  -13.9771   23.5035 O   0  0  0  0  0  0  0  0  0  0  0  0
   11.6935  -13.6114   27.7320 C   0  0  0  0  0  0  0  0  0  0  0  0
   12.0428  -15.4098   27.8260 S   0  0  0  0  0  0  0  0  0  0  0  0
   12.4947  -15.9224   26.1287 C   0  0  0  0  0  0  0  0  0  0  0  0
   11.3515  -15.7448   25.1906 C   0  0  0  0  0  0  0  0  0  0  0  0
   11.7943  -16.1480   23.7796 C   0  0  2  0  0  0  0  0  0  0  0  0
   10.6564  -16.1182   22.8923 N   0  0  0  0  0  0  0  0  0  0  0  0
   12.4923  -17.4266   23.7805 C   0  0  0  0  0  0  0  0  0  0  0  0
   11.9121  -18.5316   23.1111 O   0  0  0  0  0  0  0  0  0  0  0  0
   13.5904  -17.6830   24.3246 O   0  0  0  0  0  0  0  0  0  0  0  0
  2  1  1  0
  3  2  2  0
  4  3  1  0
  5  4  2  0
  5 11  1  0
  6  5  1  0
  7  8  1  1
  7  6  1  0
  9  7  1  0
 10  9  2  0
 11 12  2  0
 12  2  1  0
 13  9  1  0
 14 20  1  0
 14 13  1  0
 14 15  1  1
 16 15  1  0
 17 16  1  0
 18 17  1  0
 19 18  1  0
 20 27  1  0
 21 20  2  0
 22 23  1  0
 23 24  1  0
 24 25  1  0
 26 25  1  1
 26 28  1  0
 27 26  1  0
 28 30  2  0
 28 29  1  0
M  END
$$$$
