VTR.pdb
     RDKit          3D

 26 25  0  0  1  0  0  0  0  0999 V2000
    8.3164  -17.5405   13.2951 C   0  0  0  0  0  0  0  0  0  0  0  0
    8.9946  -16.8743   14.4522 C   0  0  1  0  0  0  0  0  0  0  0  0
   10.4800  -17.0488   14.3531 C   0  0  0  0  0  0  0  0  0  0  0  0
    8.5919  -15.4216   14.6261 C   0  0  2  0  0  0  0  0  0  0  0  0
    8.9489  -14.6074   13.5174 N   0  0  0  0  0  0  0  0  0  0  0  0
    9.1619  -14.9820   15.9206 C   0  0  0  0  0  0  0  0  0  0  0  0
   10.3665  -14.5841   15.8794 O   0  0  0  0  0  0  0  0  0  0  0  0
    7.1051  -13.2225   18.9440 C   0  0  0  0  0  0  0  0  0  0  0  0
    8.1464  -14.2038   19.3958 C   0  0  1  0  0  0  0  0  0  0  0  0
    7.6004  -15.3656   19.8688 O   0  0  0  0  0  0  0  0  0  0  0  0
    9.1824  -14.4779   18.3270 C   0  0  2  0  0  0  0  0  0  0  0  0
    8.4971  -14.9705   17.1490 N   0  0  0  0  0  0  0  0  0  0  0  0
   10.2378  -15.4196   18.7776 C   0  0  0  0  0  0  0  0  0  0  0  0
   10.6221  -16.3507   18.0101 O   0  0  0  0  0  0  0  0  0  0  0  0
   15.9137  -15.9454   16.3953 N   0  0  0  0  0  0  0  0  0  0  0  0
   16.8795  -15.3788   17.2607 C   0  0  0  0  0  0  0  0  0  0  0  0
   18.1019  -15.7795   17.2400 N   0  0  0  0  0  0  0  0  0  0  0  0
   16.5471  -14.3495   18.1845 N   0  0  0  0  0  0  0  0  0  0  0  0
   15.2095  -13.8262   18.3636 C   0  0  0  0  0  0  0  0  0  0  0  0
   14.3881  -14.9421   19.0172 C   0  0  0  0  0  0  0  0  0  0  0  0
   12.9896  -14.4927   19.2870 C   0  0  0  0  0  0  0  0  0  0  0  0
   12.2842  -15.3906   20.2284 C   0  0  2  0  0  0  0  0  0  0  0  0
   10.8154  -15.2893   20.0445 N   0  0  0  0  0  0  0  0  0  0  0  0
   12.6255  -15.2158   21.6486 C   0  0  0  0  0  0  0  0  0  0  0  0
   13.6920  -15.8718   22.2307 O   0  0  0  0  0  0  0  0  0  0  0  0
   11.9181  -14.4364   22.3787 O   0  0  0  0  0  0  0  0  0  0  0  0
  2  1  1  6
  2  3  1  0
  2  4  1  0
  4  5  1  6
  6  7  2  0
  6  4  1  0
  9  8  1  6
 10  9  1  0
 11  9  1  0
 11 12  1  6
 12  6  1  0
 13 11  1  0
 14 13  2  0
 16 15  1  0
 16 17  2  0
 18 16  1  0
 19 18  1  0
 20 19  1  0
 21 20  1  0
 22 21  1  6
 22 23  1  0
 23 13  1  0
 24 22  1  0
 24 25  1  0
 26 24  2  0
M  END
$$$$
