VTR.pdb
     RDKit          3D

 26 25  0  0  1  0  0  0  0  0999 V2000
    8.7216  -13.1997   21.3711 C   0  0  0  0  0  0  0  0  0  0  0  0
    7.7499  -13.5639   20.2913 C   0  0  1  0  0  0  0  0  0  0  0  0
    7.1971  -12.3258   19.6521 C   0  0  0  0  0  0  0  0  0  0  0  0
    8.3211  -14.5353   19.2751 C   0  0  2  0  0  0  0  0  0  0  0  0
    7.4035  -14.8642   18.2409 N   0  0  0  0  0  0  0  0  0  0  0  0
    8.8231  -15.6974   20.0442 C   0  0  0  0  0  0  0  0  0  0  0  0
    7.9399  -16.5327   20.4093 O   0  0  0  0  0  0  0  0  0  0  0  0
   11.8388  -19.2467   20.9339 C   0  0  0  0  0  0  0  0  0  0  0  0
   11.3421  -18.0194   20.2280 C   0  0  1  0  0  0  0  0  0  0  0  0
   10.6924  -18.3139   19.0606 O   0  0  0  0  0  0  0  0  0  0  0  0
   10.4935  -17.1428   21.1238 C   0  0  2  0  0  0  0  0  0  0  0  0
   10.1545  -15.9404   20.3896 N   0  0  0  0  0  0  0  0  0  0  0  0
   11.1571  -16.8256   22.4132 C   0  0  0  0  0  0  0  0  0  0  0  0
   12.1654  -16.0596   22.4322 O   0  0  0  0  0  0  0  0  0  0  0  0
   10.2052  -20.2481   30.8192 N   0  0  0  0  0  0  0  0  0  0  0  0
   11.4786  -20.4160   30.2253 C   0  0  0  0  0  0  0  0  0  0  0  0
   12.3319  -21.2458   30.7140 N   0  0  0  0  0  0  0  0  0  0  0  0
   11.8708  -19.6826   29.0714 N   0  0  0  0  0  0  0  0  0  0  0  0
   11.4029  -19.9724   27.7326 C   0  0  0  0  0  0  0  0  0  0  0  0
   11.9670  -18.8740   26.8258 C   0  0  0  0  0  0  0  0  0  0  0  0
   11.0572  -18.6104   25.6711 C   0  0  0  0  0  0  0  0  0  0  0  0
   11.5786  -17.5526   24.7769 C   0  0  2  0  0  0  0  0  0  0  0  0
   10.6793  -17.3642   23.6120 N   0  0  0  0  0  0  0  0  0  0  0  0
   12.9639  -17.7360   24.3172 C   0  0  0  0  0  0  0  0  0  0  0  0
   13.9686  -16.8495   24.6504 O   0  0  0  0  0  0  0  0  0  0  0  0
   13.2593  -18.7432   23.5828 O   0  0  0  0  0  0  0  0  0  0  0  0
  2  1  1  1
  2  3  1  0
  2  4  1  0
  4  5  1  6
  6  7  2  0
  6  4  1  0
  9  8  1  1
 10  9  1  0
 11  9  1  0
 11 12  1  6
 12  6  1  0
 13 11  1  0
 14 13  2  0
 16 15  1  0
 16 17  2  0
 18 16  1  0
 19 18  1  0
 20 19  1  0
 21 20  1  0
 22 21  1  6
 22 23  1  0
 23 13  1  0
 24 22  1  0
 24 25  1  0
 26 24  2  0
M  END
$$$$
