VTR.pdb
     RDKit          3D

 26 25  0  0  1  0  0  0  0  0999 V2000
    7.3882  -12.6772   17.5017 C   0  0  0  0  0  0  0  0  0  0  0  0
    8.0547  -13.0012   18.8031 C   0  0  1  0  0  0  0  0  0  0  0  0
    7.1055  -12.7772   19.9415 C   0  0  0  0  0  0  0  0  0  0  0  0
    8.6747  -14.3860   18.8292 C   0  0  2  0  0  0  0  0  0  0  0  0
    7.7849  -15.4039   18.3912 N   0  0  0  0  0  0  0  0  0  0  0  0
    9.2052  -14.5805   20.1984 C   0  0  0  0  0  0  0  0  0  0  0  0
   10.1548  -13.8066   20.5307 O   0  0  0  0  0  0  0  0  0  0  0  0
    7.3798  -15.4106   23.6637 C   0  0  0  0  0  0  0  0  0  0  0  0
    8.5510  -16.3063   23.3860 C   0  0  1  0  0  0  0  0  0  0  0  0
    8.1700  -17.5751   23.0443 O   0  0  0  0  0  0  0  0  0  0  0  0
    9.4945  -15.7196   22.3581 C   0  0  2  0  0  0  0  0  0  0  0  0
    8.7555  -15.5218   21.1273 N   0  0  0  0  0  0  0  0  0  0  0  0
   10.7009  -16.5568   22.1413 C   0  0  0  0  0  0  0  0  0  0  0  0
   10.8089  -17.2462   21.0844 O   0  0  0  0  0  0  0  0  0  0  0  0
   16.7466  -13.2159   18.2097 N   0  0  0  0  0  0  0  0  0  0  0  0
   17.1474  -14.5300   18.5489 C   0  0  0  0  0  0  0  0  0  0  0  0
   18.1102  -15.1100   17.9228 N   0  0  0  0  0  0  0  0  0  0  0  0
   16.5109  -15.2637   19.5880 N   0  0  0  0  0  0  0  0  0  0  0  0
   15.4023  -14.7596   20.3703 C   0  0  0  0  0  0  0  0  0  0  0  0
   14.9796  -15.8937   21.3096 C   0  0  0  0  0  0  0  0  0  0  0  0
   13.5569  -15.7366   21.7360 C   0  0  0  0  0  0  0  0  0  0  0  0
   13.1381  -16.7883   22.6891 C   0  0  2  0  0  0  0  0  0  0  0  0
   11.7241  -16.5925   23.0938 N   0  0  0  0  0  0  0  0  0  0  0  0
   13.9856  -16.9377   23.8822 C   0  0  0  0  0  0  0  0  0  0  0  0
   15.2051  -17.5837   23.8369 O   0  0  0  0  0  0  0  0  0  0  0  0
   13.5904  -16.4607   25.0035 O   0  0  0  0  0  0  0  0  0  0  0  0
  2  1  1  6
  2  3  1  0
  2  4  1  0
  4  5  1  1
  6  7  2  0
  6  4  1  0
  9  8  1  6
 10  9  1  0
 11  9  1  0
 11 12  1  6
 12  6  1  0
 13 11  1  0
 14 13  2  0
 16 15  1  0
 16 17  2  0
 18 16  1  0
 19 18  1  0
 20 19  1  0
 21 20  1  0
 22 21  1  1
 22 23  1  0
 23 13  1  0
 24 22  1  0
 24 25  1  0
 26 24  2  0
M  END
$$$$
