VTR.pdb
     RDKit          3D

 26 25  0  0  1  0  0  0  0  0999 V2000
   13.5532  -16.8354   17.6414 C   0  0  0  0  0  0  0  0  0  0  0  0
   12.7348  -16.3590   18.8016 C   0  0  1  0  0  0  0  0  0  0  0  0
   13.2688  -16.9284   20.0812 C   0  0  0  0  0  0  0  0  0  0  0  0
   12.5927  -14.8491   18.8536 C   0  0  2  0  0  0  0  0  0  0  0  0
   13.8229  -14.1813   19.0995 N   0  0  0  0  0  0  0  0  0  0  0  0
   11.5293  -14.5634   19.8443 C   0  0  0  0  0  0  0  0  0  0  0  0
   11.9331  -14.3124   21.0211 O   0  0  0  0  0  0  0  0  0  0  0  0
    8.2191  -12.2489   19.5204 C   0  0  0  0  0  0  0  0  0  0  0  0
    7.9873  -13.6306   20.0574 C   0  0  1  0  0  0  0  0  0  0  0  0
    7.4377  -14.4686   19.1262 O   0  0  0  0  0  0  0  0  0  0  0  0
    9.2366  -14.2292   20.6671 C   0  0  2  0  0  0  0  0  0  0  0  0
   10.1554  -14.5483   19.5929 N   0  0  0  0  0  0  0  0  0  0  0  0
    8.9520  -15.4162   21.5118 C   0  0  0  0  0  0  0  0  0  0  0  0
    9.1778  -16.5787   21.0631 O   0  0  0  0  0  0  0  0  0  0  0  0
   10.9372  -15.4576   29.4828 N   0  0  0  0  0  0  0  0  0  0  0  0
   10.4222  -14.7236   28.3880 C   0  0  0  0  0  0  0  0  0  0  0  0
    9.7773  -13.6257   28.5727 N   0  0  0  0  0  0  0  0  0  0  0  0
   10.5920  -15.1610   27.0452 N   0  0  0  0  0  0  0  0  0  0  0  0
   10.3132  -16.5075   26.5930 C   0  0  0  0  0  0  0  0  0  0  0  0
    9.8953  -16.3966   25.1233 C   0  0  0  0  0  0  0  0  0  0  0  0
    8.4090  -16.3377   24.9900 C   0  0  0  0  0  0  0  0  0  0  0  0
    7.9682  -16.4384   23.5808 C   0  0  2  0  0  0  0  0  0  0  0  0
    8.4362  -15.2649   22.8028 N   0  0  0  0  0  0  0  0  0  0  0  0
    6.5236  -16.6304   23.3798 C   0  0  0  0  0  0  0  0  0  0  0  0
    5.9084  -17.8452   23.6083 O   0  0  0  0  0  0  0  0  0  0  0  0
    5.8043  -15.6494   22.9782 O   0  0  0  0  0  0  0  0  0  0  0  0
  2  1  1  6
  2  3  1  0
  2  4  1  0
  4  5  1  1
  6  7  2  0
  6  4  1  0
  9  8  1  6
 10  9  1  0
 11  9  1  0
 11 12  1  6
 12  6  1  0
 13 11  1  0
 14 13  2  0
 16 15  1  0
 16 17  2  0
 18 16  1  0
 19 18  1  0
 20 19  1  0
 21 20  1  0
 22 21  1  1
 22 23  1  0
 23 13  1  0
 24 22  1  0
 24 25  1  0
 26 24  2  0
M  END
$$$$
