VTR.pdb
     RDKit          3D

 26 25  0  0  1  0  0  0  0  0999 V2000
    8.8271  -12.8022   20.6738 C   0  0  0  0  0  0  0  0  0  0  0  0
    8.0243  -13.2069   19.4761 C   0  0  1  0  0  0  0  0  0  0  0  0
    7.8286  -12.0345   18.5628 C   0  0  0  0  0  0  0  0  0  0  0  0
    8.5931  -14.4149   18.7549 C   0  0  2  0  0  0  0  0  0  0  0  0
    7.8846  -14.7396   17.5665 N   0  0  0  0  0  0  0  0  0  0  0  0
    8.6528  -15.5076   19.7531 C   0  0  0  0  0  0  0  0  0  0  0  0
    7.7912  -16.4280   19.6068 O   0  0  0  0  0  0  0  0  0  0  0  0
    8.7192  -18.1619   19.6754 C   0  0  0  0  0  0  0  0  0  0  0  0
    9.8527  -17.9782   20.6411 C   0  0  1  0  0  0  0  0  0  0  0  0
   11.0628  -17.8678   20.0127 O   0  0  0  0  0  0  0  0  0  0  0  0
    9.6189  -16.8237   21.5915 C   0  0  2  0  0  0  0  0  0  0  0  0
    9.5575  -15.6030   20.8131 N   0  0  0  0  0  0  0  0  0  0  0  0
   10.6483  -16.7395   22.6577 C   0  0  0  0  0  0  0  0  0  0  0  0
   11.7603  -16.1825   22.4185 O   0  0  0  0  0  0  0  0  0  0  0  0
   10.7234  -16.9788   31.7768 N   0  0  0  0  0  0  0  0  0  0  0  0
   11.8736  -17.5734   31.2057 C   0  0  0  0  0  0  0  0  0  0  0  0
   12.7536  -18.1536   31.9436 N   0  0  0  0  0  0  0  0  0  0  0  0
   12.1081  -17.5578   29.8029 N   0  0  0  0  0  0  0  0  0  0  0  0
   11.0589  -17.4688   28.8096 C   0  0  0  0  0  0  0  0  0  0  0  0
   11.7540  -17.3106   27.4535 C   0  0  0  0  0  0  0  0  0  0  0  0
   10.7609  -17.3035   26.3381 C   0  0  0  0  0  0  0  0  0  0  0  0
   11.4049  -17.1420   25.0154 C   0  0  2  0  0  0  0  0  0  0  0  0
   10.4031  -17.2691   23.9284 N   0  0  0  0  0  0  0  0  0  0  0  0
   12.5466  -18.0316   24.7525 C   0  0  0  0  0  0  0  0  0  0  0  0
   13.8528  -17.6029   24.8813 O   0  0  0  0  0  0  0  0  0  0  0  0
   12.3359  -19.2420   24.3899 O   0  0  0  0  0  0  0  0  0  0  0  0
  2  1  1  1
  2  3  1  0
  2  4  1  0
  4  5  1  6
  6  7  2  0
  6  4  1  0
  9  8  1  6
 10  9  1  0
 11  9  1  0
 11 12  1  6
 12  6  1  0
 13 11  1  0
 14 13  2  0
 16 15  1  0
 16 17  2  0
 18 16  1  0
 19 18  1  0
 20 19  1  0
 21 20  1  0
 22 21  1  1
 22 23  1  0
 23 13  1  0
 24 22  1  0
 24 25  1  0
 26 24  2  0
M  END
$$$$
