VTR.pdb
     RDKit          3D

 26 25  0  0  1  0  0  0  0  0999 V2000
    9.4032  -12.9940   20.3914 C   0  0  0  0  0  0  0  0  0  0  0  0
    8.4025  -13.3848   19.3481 C   0  0  1  0  0  0  0  0  0  0  0  0
    7.9425  -12.1750   18.5920 C   0  0  0  0  0  0  0  0  0  0  0  0
    8.8946  -14.4891   18.4309 C   0  0  2  0  0  0  0  0  0  0  0  0
    7.9636  -14.8228   17.4104 N   0  0  0  0  0  0  0  0  0  0  0  0
    9.2782  -15.6200   19.3071 C   0  0  0  0  0  0  0  0  0  0  0  0
    8.6500  -16.7042   19.1051 O   0  0  0  0  0  0  0  0  0  0  0  0
   10.2831  -17.8968   18.6916 C   0  0  0  0  0  0  0  0  0  0  0  0
   11.2417  -17.7213   19.8325 C   0  0  1  0  0  0  0  0  0  0  0  0
   12.4737  -17.2932   19.4197 O   0  0  0  0  0  0  0  0  0  0  0  0
   10.6853  -16.8288   20.9209 C   0  0  2  0  0  0  0  0  0  0  0  0
   10.2500  -15.5889   20.3100 N   0  0  0  0  0  0  0  0  0  0  0  0
   11.6563  -16.5853   22.0169 C   0  0  0  0  0  0  0  0  0  0  0  0
   12.2483  -15.4687   22.0988 O   0  0  0  0  0  0  0  0  0  0  0  0
    5.6458  -14.1401   25.6046 N   0  0  0  0  0  0  0  0  0  0  0  0
    6.8671  -13.4262   25.6395 C   0  0  0  0  0  0  0  0  0  0  0  0
    6.8919  -12.1719   25.9250 N   0  0  0  0  0  0  0  0  0  0  0  0
    8.1123  -14.0560   25.3636 N   0  0  0  0  0  0  0  0  0  0  0  0
    8.2401  -15.4093   24.8660 C   0  0  0  0  0  0  0  0  0  0  0  0
    9.7343  -15.7464   24.8972 C   0  0  0  0  0  0  0  0  0  0  0  0
    9.9867  -17.1195   24.3666 C   0  0  0  0  0  0  0  0  0  0  0  0
   11.4267  -17.4605   24.3567 C   0  0  2  0  0  0  0  0  0  0  0  0
   11.9254  -17.5781   22.9642 N   0  0  0  0  0  0  0  0  0  0  0  0
   11.8010  -18.6568   25.1267 C   0  0  0  0  0  0  0  0  0  0  0  0
   12.5538  -18.5775   26.2814 O   0  0  0  0  0  0  0  0  0  0  0  0
   11.4256  -19.8130   24.7226 O   0  0  0  0  0  0  0  0  0  0  0  0
  2  1  1  1
  2  3  1  0
  2  4  1  0
  4  5  1  6
  6  7  2  0
  6  4  1  0
  9  8  1  6
 10  9  1  0
 11  9  1  0
 11 12  1  6
 12  6  1  0
 13 11  1  0
 14 13  2  0
 16 15  1  0
 16 17  2  0
 18 16  1  0
 19 18  1  0
 20 19  1  0
 21 20  1  0
 22 21  1  6
 22 23  1  0
 23 13  1  0
 24 22  1  0
 24 25  1  0
 26 24  2  0
M  END
$$$$
