VTR.pdb
     RDKit          3D

 26 25  0  0  1  0  0  0  0  0999 V2000
    7.8652  -15.5875   15.9485 C   0  0  0  0  0  0  0  0  0  0  0  0
    8.4071  -15.4125   17.3336 C   0  0  1  0  0  0  0  0  0  0  0  0
    9.8700  -15.7383   17.3629 C   0  0  0  0  0  0  0  0  0  0  0  0
    8.1050  -14.0487   17.9264 C   0  0  2  0  0  0  0  0  0  0  0  0
    8.6736  -12.9792   17.1831 N   0  0  0  0  0  0  0  0  0  0  0  0
    8.5294  -14.1060   19.3443 C   0  0  0  0  0  0  0  0  0  0  0  0
    9.7282  -13.7552   19.5696 O   0  0  0  0  0  0  0  0  0  0  0  0
    7.7485  -14.8085   24.1626 C   0  0  0  0  0  0  0  0  0  0  0  0
    7.2321  -14.6200   22.7665 C   0  0  1  0  0  0  0  0  0  0  0  0
    6.4675  -13.4927   22.6391 O   0  0  0  0  0  0  0  0  0  0  0  0
    8.3377  -14.6545   21.7333 C   0  0  2  0  0  0  0  0  0  0  0  0
    7.7367  -14.5041   20.4233 N   0  0  0  0  0  0  0  0  0  0  0  0
    9.1637  -15.8850   21.8164 C   0  0  0  0  0  0  0  0  0  0  0  0
    8.7705  -16.9481   21.2515 O   0  0  0  0  0  0  0  0  0  0  0  0
   15.7660  -19.3302   23.7144 N   0  0  0  0  0  0  0  0  0  0  0  0
   16.1761  -19.5806   22.3833 C   0  0  0  0  0  0  0  0  0  0  0  0
   17.2120  -20.3023   22.1353 N   0  0  0  0  0  0  0  0  0  0  0  0
   15.4691  -19.0514   21.2684 N   0  0  0  0  0  0  0  0  0  0  0  0
   14.7529  -17.7936   21.2892 C   0  0  0  0  0  0  0  0  0  0  0  0
   13.4142  -18.0651   21.9829 C   0  0  0  0  0  0  0  0  0  0  0  0
   12.5440  -16.8514   21.9654 C   0  0  0  0  0  0  0  0  0  0  0  0
   11.2207  -17.1018   22.5790 C   0  0  2  0  0  0  0  0  0  0  0  0
   10.3762  -15.8837   22.5130 N   0  0  0  0  0  0  0  0  0  0  0  0
   11.2472  -17.6204   23.9554 C   0  0  0  0  0  0  0  0  0  0  0  0
   11.6056  -18.9232   24.2394 O   0  0  0  0  0  0  0  0  0  0  0  0
   10.9277  -16.8508   24.9283 O   0  0  0  0  0  0  0  0  0  0  0  0
  2  1  1  6
  2  3  1  0
  2  4  1  0
  4  5  1  6
  6  7  2  0
  6  4  1  0
  9  8  1  1
 10  9  1  0
 11  9  1  0
 11 12  1  6
 12  6  1  0
 13 11  1  0
 14 13  2  0
 16 15  1  0
 16 17  2  0
 18 16  1  0
 19 18  1  0
 20 19  1  0
 21 20  1  0
 22 21  1  1
 22 23  1  0
 23 13  1  0
 24 22  1  0
 24 25  1  0
 26 24  2  0
M  END
$$$$
