VTR.pdb
     RDKit          3D

 26 25  0  0  1  0  0  0  0  0999 V2000
    8.3835  -12.0009   20.3621 C   0  0  0  0  0  0  0  0  0  0  0  0
    8.6095  -13.3566   20.9570 C   0  0  1  0  0  0  0  0  0  0  0  0
    7.6158  -13.6158   22.0489 C   0  0  0  0  0  0  0  0  0  0  0  0
    8.6370  -14.4667   19.9227 C   0  0  2  0  0  0  0  0  0  0  0  0
    7.4463  -14.5389   19.1502 N   0  0  0  0  0  0  0  0  0  0  0  0
    8.9719  -15.7107   20.6537 C   0  0  0  0  0  0  0  0  0  0  0  0
    7.9791  -16.3891   21.0598 O   0  0  0  0  0  0  0  0  0  0  0  0
   10.0650  -18.7756   19.5181 C   0  0  0  0  0  0  0  0  0  0  0  0
   11.0118  -18.4433   20.6336 C   0  0  1  0  0  0  0  0  0  0  0  0
   12.2336  -18.0301   20.1774 O   0  0  0  0  0  0  0  0  0  0  0  0
   10.4243  -17.4482   21.6112 C   0  0  2  0  0  0  0  0  0  0  0  0
   10.2583  -16.1834   20.9237 N   0  0  0  0  0  0  0  0  0  0  0  0
   11.2434  -17.2976   22.8400 C   0  0  0  0  0  0  0  0  0  0  0  0
   11.9599  -16.2654   22.9980 O   0  0  0  0  0  0  0  0  0  0  0  0
   11.7601  -21.7539   30.8158 N   0  0  0  0  0  0  0  0  0  0  0  0
   12.7541  -20.7576   30.6683 C   0  0  0  0  0  0  0  0  0  0  0  0
   13.5783  -20.4995   31.6220 N   0  0  0  0  0  0  0  0  0  0  0  0
   12.8874  -20.0024   29.4703 N   0  0  0  0  0  0  0  0  0  0  0  0
   11.9403  -20.0492   28.3766 C   0  0  0  0  0  0  0  0  0  0  0  0
   12.4597  -19.0821   27.3079 C   0  0  0  0  0  0  0  0  0  0  0  0
   11.5704  -19.0790   26.1080 C   0  0  0  0  0  0  0  0  0  0  0  0
   12.0380  -18.1374   25.0664 C   0  0  2  0  0  0  0  0  0  0  0  0
   11.2321  -18.2857   23.8294 N   0  0  0  0  0  0  0  0  0  0  0  0
   13.4714  -18.2091   24.7433 C   0  0  0  0  0  0  0  0  0  0  0  0
   14.3834  -17.3105   25.2602 O   0  0  0  0  0  0  0  0  0  0  0  0
   13.8984  -19.1264   23.9578 O   0  0  0  0  0  0  0  0  0  0  0  0
  2  1  1  6
  2  3  1  0
  2  4  1  0
  4  5  1  1
  6  7  2  0
  6  4  1  0
  9  8  1  6
 10  9  1  0
 11  9  1  0
 11 12  1  6
 12  6  1  0
 13 11  1  0
 14 13  2  0
 16 15  1  0
 16 17  2  0
 18 16  1  0
 19 18  1  0
 20 19  1  0
 21 20  1  0
 22 21  1  1
 22 23  1  0
 23 13  1  0
 24 22  1  0
 24 25  1  0
 26 24  2  0
M  END
$$$$
