VTR.pdb
     RDKit          3D

 26 25  0  0  1  0  0  0  0  0999 V2000
    7.8574  -11.9250   19.8813 C   0  0  0  0  0  0  0  0  0  0  0  0
    8.2723  -13.2740   20.3820 C   0  0  1  0  0  0  0  0  0  0  0  0
    7.3600  -13.7211   21.4841 C   0  0  0  0  0  0  0  0  0  0  0  0
    8.3993  -14.3085   19.2791 C   0  0  2  0  0  0  0  0  0  0  0  0
    7.1959  -14.4925   18.5459 N   0  0  0  0  0  0  0  0  0  0  0  0
    8.9245  -15.5376   19.9174 C   0  0  0  0  0  0  0  0  0  0  0  0
    8.0487  -16.3847   20.2730 O   0  0  0  0  0  0  0  0  0  0  0  0
   12.0103  -19.1163   20.6494 C   0  0  0  0  0  0  0  0  0  0  0  0
   11.5423  -17.8577   19.9800 C   0  0  1  0  0  0  0  0  0  0  0  0
   10.9756  -18.0947   18.7576 O   0  0  0  0  0  0  0  0  0  0  0  0
   10.6231  -17.0423   20.8638 C   0  0  2  0  0  0  0  0  0  0  0  0
   10.2699  -15.8304   20.1521 N   0  0  0  0  0  0  0  0  0  0  0  0
   11.2182  -16.7421   22.1901 C   0  0  0  0  0  0  0  0  0  0  0  0
   12.1171  -15.8559   22.2923 O   0  0  0  0  0  0  0  0  0  0  0  0
   11.1241  -19.8350   30.8296 N   0  0  0  0  0  0  0  0  0  0  0  0
   11.5479  -20.5541   29.6869 C   0  0  0  0  0  0  0  0  0  0  0  0
   12.1191  -21.7012   29.8019 N   0  0  0  0  0  0  0  0  0  0  0  0
   11.3638  -20.0473   28.3707 N   0  0  0  0  0  0  0  0  0  0  0  0
   10.8741  -18.7168   28.0788 C   0  0  0  0  0  0  0  0  0  0  0  0
   11.7185  -18.1864   26.9157 C   0  0  0  0  0  0  0  0  0  0  0  0
   10.9435  -18.1993   25.6391 C   0  0  0  0  0  0  0  0  0  0  0  0
   11.5521  -17.3326   24.6053 C   0  0  2  0  0  0  0  0  0  0  0  0
   10.7953  -17.4285   23.3327 N   0  0  0  0  0  0  0  0  0  0  0  0
   12.9849  -17.5531   24.3552 C   0  0  0  0  0  0  0  0  0  0  0  0
   13.9330  -16.5891   24.6348 O   0  0  0  0  0  0  0  0  0  0  0  0
   13.3772  -18.6679   23.8610 O   0  0  0  0  0  0  0  0  0  0  0  0
  2  1  1  6
  2  3  1  0
  2  4  1  0
  4  5  1  1
  6  7  2  0
  6  4  1  0
  9  8  1  1
 10  9  1  0
 11  9  1  0
 11 12  1  6
 12  6  1  0
 13 11  1  0
 14 13  2  0
 16 15  1  0
 16 17  2  0
 18 16  1  0
 19 18  1  0
 20 19  1  0
 21 20  1  0
 22 21  1  1
 22 23  1  0
 23 13  1  0
 24 22  1  0
 24 25  1  0
 26 24  2  0
M  END
$$$$
