VTR.pdb
     RDKit          3D

 26 25  0  0  1  0  0  0  0  0999 V2000
    7.1615  -18.8153   18.2784 C   0  0  0  0  0  0  0  0  0  0  0  0
    7.7351  -18.3807   16.9650 C   0  0  1  0  0  0  0  0  0  0  0  0
    7.0923  -19.1383   15.8425 C   0  0  0  0  0  0  0  0  0  0  0  0
    7.6811  -16.8787   16.7563 C   0  0  2  0  0  0  0  0  0  0  0  0
    8.1633  -16.4750   15.4819 N   0  0  0  0  0  0  0  0  0  0  0  0
    8.3938  -16.2714   17.9040 C   0  0  0  0  0  0  0  0  0  0  0  0
    9.6570  -16.2148   17.7938 O   0  0  0  0  0  0  0  0  0  0  0  0
    7.5839  -12.8854   19.4703 C   0  0  0  0  0  0  0  0  0  0  0  0
    7.8544  -13.8876   20.5536 C   0  0  1  0  0  0  0  0  0  0  0  0
    6.7168  -14.2656   21.2128 O   0  0  0  0  0  0  0  0  0  0  0  0
    8.6225  -15.0899   20.0480 C   0  0  2  0  0  0  0  0  0  0  0  0
    7.8023  -15.7696   19.0656 N   0  0  0  0  0  0  0  0  0  0  0  0
    9.0388  -16.0063   21.1390 C   0  0  0  0  0  0  0  0  0  0  0  0
    8.2578  -16.9265   21.5224 O   0  0  0  0  0  0  0  0  0  0  0  0
   13.3068  -21.3407   22.6081 N   0  0  0  0  0  0  0  0  0  0  0  0
   13.8729  -21.0897   23.8805 C   0  0  0  0  0  0  0  0  0  0  0  0
   14.1127  -22.0529   24.6992 N   0  0  0  0  0  0  0  0  0  0  0  0
   14.2003  -19.7737   24.3096 N   0  0  0  0  0  0  0  0  0  0  0  0
   13.9762  -18.5856   23.5137 C   0  0  0  0  0  0  0  0  0  0  0  0
   12.4856  -18.2535   23.6354 C   0  0  0  0  0  0  0  0  0  0  0  0
   12.1290  -17.0679   22.8001 C   0  0  0  0  0  0  0  0  0  0  0  0
   10.6887  -16.7378   22.8814 C   0  0  2  0  0  0  0  0  0  0  0  0
   10.2888  -15.8654   21.7499 N   0  0  0  0  0  0  0  0  0  0  0  0
   10.2439  -16.1463   24.1529 C   0  0  0  0  0  0  0  0  0  0  0  0
    9.9736  -16.9197   25.2643 O   0  0  0  0  0  0  0  0  0  0  0  0
   10.0967  -14.8771   24.2437 O   0  0  0  0  0  0  0  0  0  0  0  0
  2  1  1  1
  2  3  1  0
  2  4  1  0
  4  5  1  6
  6  7  2  0
  6  4  1  0
  9  8  1  6
 10  9  1  0
 11  9  1  0
 11 12  1  6
 12  6  1  0
 13 11  1  0
 14 13  2  0
 16 15  1  0
 16 17  2  0
 18 16  1  0
 19 18  1  0
 20 19  1  0
 21 20  1  0
 22 21  1  1
 22 23  1  0
 23 13  1  0
 24 22  1  0
 24 25  1  0
 26 24  2  0
M  END
$$$$
