EWD.pdb
     RDKit          3D

 32 33  0  0  1  0  0  0  0  0999 V2000
   28.6662  -22.3874  -16.4687 N   0  0  0  0  0  0  0  0  0  0  0  0
   27.4586  -21.6873  -16.7181 C   0  0  1  0  0  0  0  0  0  0  0  0
   26.7254  -22.1351  -17.9380 C   0  0  0  0  0  0  0  0  0  0  0  0
   27.4370  -21.8147  -19.1928 C   0  0  0  0  0  0  0  0  0  0  0  0
   28.6014  -22.6647  -19.4433 C   0  0  0  0  0  0  0  0  0  0  0  0
   28.6764  -23.9015  -19.4485 O   0  0  0  0  0  0  0  0  0  0  0  0
   26.5243  -21.8496  -15.5563 C   0  0  0  0  0  0  0  0  0  0  0  0
   26.4543  -22.9672  -14.9815 O   0  0  0  0  0  0  0  0  0  0  0  0
   29.8166  -21.9778  -19.7183 O   0  0  0  0  0  0  0  0  0  0  0  0
   25.7640  -20.7151  -15.1678 N   0  0  0  0  0  0  0  0  0  0  0  0
   24.9971  -20.7582  -13.9536 C   0  0  1  0  0  0  0  0  0  0  0  0
   25.3888  -19.7155  -12.9575 C   0  0  0  0  0  0  0  0  0  0  0  0
   25.9198  -20.2012  -11.6841 C   0  0  0  0  0  0  0  0  0  0  0  0
   25.2763  -20.4530  -10.5122 C   0  0  0  0  0  0  0  0  0  0  0  0
   26.1822  -20.8979   -9.6093 N   0  0  0  0  0  0  0  0  0  0  0  0
   27.3897  -20.9356  -10.1776 C   0  0  0  0  0  0  0  0  0  0  0  0
   28.6284  -21.3188   -9.6573 C   0  0  0  0  0  0  0  0  0  0  0  0
   29.7541  -21.2718  -10.4463 C   0  0  0  0  0  0  0  0  0  0  0  0
   29.6148  -20.8399  -11.7465 C   0  0  0  0  0  0  0  0  0  0  0  0
   28.3895  -20.4597  -12.2634 C   0  0  0  0  0  0  0  0  0  0  0  0
   27.2559  -20.5053  -11.4745 C   0  0  0  0  0  0  0  0  0  0  0  0
   23.5518  -20.8769  -14.2028 C   0  0  0  0  0  0  0  0  0  0  0  0
   22.9698  -20.2274  -15.1245 O   0  0  0  0  0  0  0  0  0  0  0  0
   22.7713  -21.7351  -13.4002 N   0  0  0  0  0  0  0  0  0  0  0  0
   21.3123  -21.8865  -13.5861 C   0  0  1  0  0  0  0  0  0  0  0  0
   20.9207  -23.1707  -12.9015 C   0  0  0  0  0  0  0  0  0  0  0  0
   19.4859  -23.4316  -13.0283 C   0  0  0  0  0  0  0  0  0  0  0  0
   18.6961  -23.0445  -12.1433 O   0  0  0  0  0  0  0  0  0  0  0  0
   20.6289  -20.6905  -13.0698 C   0  0  0  0  0  0  0  0  0  0  0  0
   21.0833  -20.1019  -11.8732 O   0  0  0  0  0  0  0  0  0  0  0  0
   18.9902  -24.1097  -14.1217 O   0  0  0  0  0  0  0  0  0  0  0  0
   19.6672  -20.1678  -13.6344 O   0  0  0  0  0  0  0  0  0  0  0  0
  2  1  1  1
  3  4  1  0
  3  2  1  0
  5  6  2  0
  5  4  1  0
  7  2  1  0
  7  8  2  0
  9  5  1  0
 10  7  1  0
 11 10  1  0
 11 12  1  6
 13 12  1  0
 13 14  2  0
 15 14  1  0
 16 15  1  0
 17 16  2  0
 18 17  1  0
 19 18  2  0
 19 20  1  0
 20 21  2  0
 21 16  1  0
 21 13  1  0
 22 11  1  0
 23 22  2  0
 24 22  1  0
 25 29  1  0
 25 24  1  0
 25 26  1  1
 27 26  1  0
 27 28  2  0
 29 30  1  0
 31 27  1  0
 32 29  2  0
M  END
$$$$
