EWD.pdb
     RDKit          3D

 32 33  0  0  1  0  0  0  0  0999 V2000
   27.3353  -18.0724  -19.0888 N   0  0  0  0  0  0  0  0  0  0  0  0
   26.6254  -17.5845  -17.9625 C   0  0  1  0  0  0  0  0  0  0  0  0
   25.3149  -16.9487  -18.2859 C   0  0  0  0  0  0  0  0  0  0  0  0
   25.4552  -15.6457  -18.9686 C   0  0  0  0  0  0  0  0  0  0  0  0
   26.2421  -14.6681  -18.2163 C   0  0  0  0  0  0  0  0  0  0  0  0
   27.4470  -14.3962  -18.3147 O   0  0  0  0  0  0  0  0  0  0  0  0
   26.3483  -18.7071  -17.0073 C   0  0  0  0  0  0  0  0  0  0  0  0
   25.9159  -19.7995  -17.4590 O   0  0  0  0  0  0  0  0  0  0  0  0
   25.5268  -13.9268  -17.2350 O   0  0  0  0  0  0  0  0  0  0  0  0
   26.5951  -18.4667  -15.6299 N   0  0  0  0  0  0  0  0  0  0  0  0
   26.2571  -19.4745  -14.6632 C   0  0  1  0  0  0  0  0  0  0  0  0
   27.0590  -19.3942  -13.4049 C   0  0  0  0  0  0  0  0  0  0  0  0
   26.7783  -20.4095  -12.3902 C   0  0  0  0  0  0  0  0  0  0  0  0
   26.8259  -21.7661  -12.4800 C   0  0  0  0  0  0  0  0  0  0  0  0
   26.4915  -22.2903  -11.2770 N   0  0  0  0  0  0  0  0  0  0  0  0
   26.2312  -21.2995  -10.4209 C   0  0  0  0  0  0  0  0  0  0  0  0
   25.8477  -21.3349   -9.0778 C   0  0  0  0  0  0  0  0  0  0  0  0
   25.6312  -20.1638   -8.3897 C   0  0  0  0  0  0  0  0  0  0  0  0
   25.8045  -18.9759   -9.0643 C   0  0  0  0  0  0  0  0  0  0  0  0
   26.1837  -18.9386  -10.3940 C   0  0  0  0  0  0  0  0  0  0  0  0
   26.4022  -20.1126  -11.0894 C   0  0  0  0  0  0  0  0  0  0  0  0
   24.8042  -19.6106  -14.4742 C   0  0  0  0  0  0  0  0  0  0  0  0
   24.0611  -18.6158  -14.2130 O   0  0  0  0  0  0  0  0  0  0  0  0
   24.2002  -20.8808  -14.5819 N   0  0  0  0  0  0  0  0  0  0  0  0
   22.7644  -21.1026  -14.3077 C   0  0  1  0  0  0  0  0  0  0  0  0
   22.3941  -22.4042  -14.9710 C   0  0  0  0  0  0  0  0  0  0  0  0
   23.1686  -23.5225  -14.4301 C   0  0  0  0  0  0  0  0  0  0  0  0
   23.9532  -23.3410  -13.4772 O   0  0  0  0  0  0  0  0  0  0  0  0
   22.5361  -21.0753  -12.8547 C   0  0  0  0  0  0  0  0  0  0  0  0
   23.6351  -20.9081  -11.9892 O   0  0  0  0  0  0  0  0  0  0  0  0
   23.0446  -24.7862  -14.9674 O   0  0  0  0  0  0  0  0  0  0  0  0
   21.4207  -21.1923  -12.3457 O   0  0  0  0  0  0  0  0  0  0  0  0
  2  1  1  6
  3  4  1  0
  3  2  1  0
  5  6  2  0
  5  4  1  0
  7  2  1  0
  7  8  2  0
  9  5  1  0
 10  7  1  0
 11 10  1  0
 11 12  1  1
 13 12  1  0
 13 14  2  0
 15 14  1  0
 16 15  1  0
 17 16  2  0
 18 17  1  0
 19 18  2  0
 19 20  1  0
 20 21  2  0
 21 16  1  0
 21 13  1  0
 22 11  1  0
 23 22  2  0
 24 22  1  0
 25 29  1  0
 25 24  1  0
 25 26  1  1
 27 26  1  0
 27 28  2  0
 29 30  1  0
 31 27  1  0
 32 29  2  0
M  END
$$$$
