EWD.pdb
     RDKit          3D

 32 33  0  0  1  0  0  0  0  0999 V2000
   27.7359  -21.9725  -15.1168 N   0  0  0  0  0  0  0  0  0  0  0  0
   26.8629  -20.8979  -14.8107 C   0  0  1  0  0  0  0  0  0  0  0  0
   26.0519  -20.4125  -15.9651 C   0  0  0  0  0  0  0  0  0  0  0  0
   26.8729  -19.8288  -17.0462 C   0  0  0  0  0  0  0  0  0  0  0  0
   27.5936  -18.6183  -16.6507 C   0  0  0  0  0  0  0  0  0  0  0  0
   27.1786  -17.4530  -16.5791 O   0  0  0  0  0  0  0  0  0  0  0  0
   25.9007  -21.3108  -13.7370 C   0  0  0  0  0  0  0  0  0  0  0  0
   25.1747  -22.3219  -13.9247 O   0  0  0  0  0  0  0  0  0  0  0  0
   28.9602  -18.8028  -16.3005 O   0  0  0  0  0  0  0  0  0  0  0  0
   25.8667  -20.5252  -12.5548 N   0  0  0  0  0  0  0  0  0  0  0  0
   24.9083  -20.8303  -11.5288 C   0  0  1  0  0  0  0  0  0  0  0  0
   25.3531  -20.4427  -10.1559 C   0  0  0  0  0  0  0  0  0  0  0  0
   26.7343  -20.7711   -9.8039 C   0  0  0  0  0  0  0  0  0  0  0  0
   27.6279  -21.5734  -10.4430 C   0  0  0  0  0  0  0  0  0  0  0  0
   28.7894  -21.5660   -9.7469 N   0  0  0  0  0  0  0  0  0  0  0  0
   28.6580  -20.7775   -8.6776 C   0  0  0  0  0  0  0  0  0  0  0  0
   29.5684  -20.4543   -7.6682 C   0  0  0  0  0  0  0  0  0  0  0  0
   29.1994  -19.6060   -6.6504 C   0  0  0  0  0  0  0  0  0  0  0  0
   27.9202  -19.0964   -6.6649 C   0  0  0  0  0  0  0  0  0  0  0  0
   27.0173  -19.4154   -7.6630 C   0  0  0  0  0  0  0  0  0  0  0  0
   27.3834  -20.2673   -8.6876 C   0  0  0  0  0  0  0  0  0  0  0  0
   23.5441  -20.4123  -11.8882 C   0  0  0  0  0  0  0  0  0  0  0  0
   23.3204  -19.4534  -12.6885 O   0  0  0  0  0  0  0  0  0  0  0  0
   22.4363  -21.0870  -11.3338 N   0  0  0  0  0  0  0  0  0  0  0  0
   21.1137  -21.1170  -11.9941 C   0  0  1  0  0  0  0  0  0  0  0  0
   21.2726  -21.9475  -13.2416 C   0  0  0  0  0  0  0  0  0  0  0  0
   20.8038  -21.2299  -14.4283 C   0  0  0  0  0  0  0  0  0  0  0  0
   21.0954  -20.0279  -14.5920 O   0  0  0  0  0  0  0  0  0  0  0  0
   20.1090  -21.6279  -11.0488 C   0  0  0  0  0  0  0  0  0  0  0  0
   18.7412  -21.4683  -11.3465 O   0  0  0  0  0  0  0  0  0  0  0  0
   20.0331  -21.8697  -15.3758 O   0  0  0  0  0  0  0  0  0  0  0  0
   20.4021  -22.1958   -9.9960 O   0  0  0  0  0  0  0  0  0  0  0  0
  2  1  1  6
  3  4  1  0
  3  2  1  0
  5  6  2  0
  5  4  1  0
  7  2  1  0
  7  8  2  0
  9  5  1  0
 10  7  1  0
 11 10  1  0
 11 12  1  1
 13 12  1  0
 13 14  2  0
 15 14  1  0
 16 15  1  0
 17 16  2  0
 18 17  1  0
 19 18  2  0
 19 20  1  0
 20 21  2  0
 21 16  1  0
 21 13  1  0
 22 11  1  0
 23 22  2  0
 24 22  1  0
 25 29  1  0
 25 24  1  0
 25 26  1  6
 27 26  1  0
 27 28  2  0
 29 30  1  0
 31 27  1  0
 32 29  2  0
M  END
$$$$
