EWD.pdb
     RDKit          3D

 32 33  0  0  1  0  0  0  0  0999 V2000
   26.8369  -22.0009  -14.4373 N   0  0  0  0  0  0  0  0  0  0  0  0
   26.7063  -20.8043  -13.6878 C   0  0  1  0  0  0  0  0  0  0  0  0
   25.7988  -19.7891  -14.2977 C   0  0  0  0  0  0  0  0  0  0  0  0
   24.9018  -20.3561  -15.3260 C   0  0  0  0  0  0  0  0  0  0  0  0
   25.5043  -20.4299  -16.6574 C   0  0  0  0  0  0  0  0  0  0  0  0
   25.3136  -21.2641  -17.5536 O   0  0  0  0  0  0  0  0  0  0  0  0
   26.1699  -21.1127  -12.3216 C   0  0  0  0  0  0  0  0  0  0  0  0
   25.4298  -22.1194  -12.1701 O   0  0  0  0  0  0  0  0  0  0  0  0
   26.4394  -19.4034  -16.9672 O   0  0  0  0  0  0  0  0  0  0  0  0
   26.5358  -20.2378  -11.2650 N   0  0  0  0  0  0  0  0  0  0  0  0
   25.9852  -20.4417   -9.9536 C   0  0  1  0  0  0  0  0  0  0  0  0
   26.7822  -19.8061   -8.8611 C   0  0  0  0  0  0  0  0  0  0  0  0
   26.4907  -20.2544   -7.4997 C   0  0  0  0  0  0  0  0  0  0  0  0
   25.4723  -21.0294   -7.0379 C   0  0  0  0  0  0  0  0  0  0  0  0
   25.6209  -21.1857   -5.7010 N   0  0  0  0  0  0  0  0  0  0  0  0
   26.7108  -20.5282   -5.2983 C   0  0  0  0  0  0  0  0  0  0  0  0
   27.2729  -20.3918   -4.0265 C   0  0  0  0  0  0  0  0  0  0  0  0
   28.4189  -19.6512   -3.8530 C   0  0  0  0  0  0  0  0  0  0  0  0
   28.9808  -19.0599   -4.9625 C   0  0  0  0  0  0  0  0  0  0  0  0
   28.4257  -19.1933   -6.2223 C   0  0  0  0  0  0  0  0  0  0  0  0
   27.2745  -19.9363   -6.4014 C   0  0  0  0  0  0  0  0  0  0  0  0
   24.5368  -20.1872   -9.9037 C   0  0  0  0  0  0  0  0  0  0  0  0
   24.0309  -19.0876  -10.2845 O   0  0  0  0  0  0  0  0  0  0  0  0
   23.6668  -21.1861   -9.4187 N   0  0  0  0  0  0  0  0  0  0  0  0
   22.2103  -21.1608   -9.6713 C   0  0  1  0  0  0  0  0  0  0  0  0
   21.9851  -21.8868  -10.9726 C   0  0  0  0  0  0  0  0  0  0  0  0
   21.2053  -21.0782  -11.9113 C   0  0  0  0  0  0  0  0  0  0  0  0
   20.8459  -19.9249  -11.5994 O   0  0  0  0  0  0  0  0  0  0  0  0
   21.5061  -21.7461   -8.5200 C   0  0  0  0  0  0  0  0  0  0  0  0
   20.5899  -20.9546   -7.7996 O   0  0  0  0  0  0  0  0  0  0  0  0
   20.8556  -21.5802  -13.1469 O   0  0  0  0  0  0  0  0  0  0  0  0
   21.6759  -22.9071   -8.1458 O   0  0  0  0  0  0  0  0  0  0  0  0
  2  1  1  6
  3  4  1  0
  3  2  1  0
  5  6  2  0
  5  4  1  0
  7  2  1  0
  7  8  2  0
  9  5  1  0
 10  7  1  0
 11 10  1  0
 11 12  1  1
 13 12  1  0
 13 14  2  0
 15 14  1  0
 16 15  1  0
 17 16  2  0
 18 17  1  0
 19 18  2  0
 19 20  1  0
 20 21  2  0
 21 16  1  0
 21 13  1  0
 22 11  1  0
 23 22  2  0
 24 22  1  0
 25 29  1  0
 25 24  1  0
 25 26  1  6
 27 26  1  0
 27 28  2  0
 29 30  1  0
 31 27  1  0
 32 29  2  0
M  END
$$$$
