EWD.pdb
     RDKit          3D

 32 33  0  0  1  0  0  0  0  0999 V2000
   28.5797  -21.4174  -13.1274 N   0  0  0  0  0  0  0  0  0  0  0  0
   27.5391  -20.5395  -12.7312 C   0  0  1  0  0  0  0  0  0  0  0  0
   26.6169  -20.1373  -13.8329 C   0  0  0  0  0  0  0  0  0  0  0  0
   27.3244  -19.7760  -15.0788 C   0  0  0  0  0  0  0  0  0  0  0  0
   28.1034  -18.5415  -14.9772 C   0  0  0  0  0  0  0  0  0  0  0  0
   27.8753  -17.5301  -14.2987 O   0  0  0  0  0  0  0  0  0  0  0  0
   26.7021  -21.1858  -11.6677 C   0  0  0  0  0  0  0  0  0  0  0  0
   26.5066  -22.4283  -11.7168 O   0  0  0  0  0  0  0  0  0  0  0  0
   29.2859  -18.4936  -15.7668 O   0  0  0  0  0  0  0  0  0  0  0  0
   26.1733  -20.3446  -10.6535 N   0  0  0  0  0  0  0  0  0  0  0  0
   25.0253  -20.7744   -9.9039 C   0  0  1  0  0  0  0  0  0  0  0  0
   25.0807  -20.4083   -8.4562 C   0  0  0  0  0  0  0  0  0  0  0  0
   26.3889  -20.0106   -7.9367 C   0  0  0  0  0  0  0  0  0  0  0  0
   27.3675  -19.2669   -8.5199 C   0  0  0  0  0  0  0  0  0  0  0  0
   28.3996  -19.1536   -7.6505 N   0  0  0  0  0  0  0  0  0  0  0  0
   28.1027  -19.8082   -6.5255 C   0  0  0  0  0  0  0  0  0  0  0  0
   28.8398  -19.9791   -5.3509 C   0  0  0  0  0  0  0  0  0  0  0  0
   28.3184  -20.7081   -4.3076 C   0  0  0  0  0  0  0  0  0  0  0  0
   27.0634  -21.2531   -4.4631 C   0  0  0  0  0  0  0  0  0  0  0  0
   26.3322  -21.0855   -5.6252 C   0  0  0  0  0  0  0  0  0  0  0  0
   26.8519  -20.3540   -6.6760 C   0  0  0  0  0  0  0  0  0  0  0  0
   23.7581  -20.4607  -10.5827 C   0  0  0  0  0  0  0  0  0  0  0  0
   23.5262  -19.3192  -11.0860 O   0  0  0  0  0  0  0  0  0  0  0  0
   22.7562  -21.4482  -10.6860 N   0  0  0  0  0  0  0  0  0  0  0  0
   21.4717  -21.2062  -11.3771 C   0  0  1  0  0  0  0  0  0  0  0  0
   21.3397  -22.2763  -12.4301 C   0  0  0  0  0  0  0  0  0  0  0  0
   21.1462  -21.6993  -13.7615 C   0  0  0  0  0  0  0  0  0  0  0  0
   21.9024  -22.0189  -14.7010 O   0  0  0  0  0  0  0  0  0  0  0  0
   20.3824  -21.1897  -10.3886 C   0  0  0  0  0  0  0  0  0  0  0  0
   20.3992  -22.1208   -9.3315 O   0  0  0  0  0  0  0  0  0  0  0  0
   20.1315  -20.7949  -13.9932 O   0  0  0  0  0  0  0  0  0  0  0  0
   19.4427  -20.3949  -10.4351 O   0  0  0  0  0  0  0  0  0  0  0  0
  2  1  1  6
  3  4  1  0
  3  2  1  0
  5  6  2  0
  5  4  1  0
  7  2  1  0
  7  8  2  0
  9  5  1  0
 10  7  1  0
 11 10  1  0
 11 12  1  1
 13 12  1  0
 13 14  2  0
 15 14  1  0
 16 15  1  0
 17 16  2  0
 18 17  1  0
 19 18  2  0
 19 20  1  0
 20 21  2  0
 21 16  1  0
 21 13  1  0
 22 11  1  0
 23 22  2  0
 24 22  1  0
 25 29  1  0
 25 24  1  0
 25 26  1  6
 27 26  1  0
 27 28  2  0
 29 30  1  0
 31 27  1  0
 32 29  2  0
M  END
$$$$
