EWD.pdb
     RDKit          3D

 32 33  0  0  1  0  0  0  0  0999 V2000
   28.2721  -22.3718  -15.9714 N   0  0  0  0  0  0  0  0  0  0  0  0
   27.8712  -21.1597  -15.3542 C   0  0  1  0  0  0  0  0  0  0  0  0
   26.9992  -20.2942  -16.2007 C   0  0  0  0  0  0  0  0  0  0  0  0
   27.7011  -19.7355  -17.3749 C   0  0  0  0  0  0  0  0  0  0  0  0
   28.8901  -18.9539  -17.0336 C   0  0  0  0  0  0  0  0  0  0  0  0
   28.9637  -17.8578  -16.4604 O   0  0  0  0  0  0  0  0  0  0  0  0
   27.1126  -21.4540  -14.0944 C   0  0  0  0  0  0  0  0  0  0  0  0
   26.1342  -22.2445  -14.1423 O   0  0  0  0  0  0  0  0  0  0  0  0
   30.1345  -19.5300  -17.4124 O   0  0  0  0  0  0  0  0  0  0  0  0
   27.5509  -20.8143  -12.9051 N   0  0  0  0  0  0  0  0  0  0  0  0
   26.8148  -21.0044  -11.6859 C   0  0  1  0  0  0  0  0  0  0  0  0
   27.5750  -20.6203  -10.4582 C   0  0  0  0  0  0  0  0  0  0  0  0
   26.8285  -20.6373   -9.2004 C   0  0  0  0  0  0  0  0  0  0  0  0
   25.5126  -20.8968   -8.9729 C   0  0  0  0  0  0  0  0  0  0  0  0
   25.2780  -20.8033   -7.6425 N   0  0  0  0  0  0  0  0  0  0  0  0
   26.4140  -20.4897   -7.0151 C   0  0  0  0  0  0  0  0  0  0  0  0
   26.6772  -20.2846   -5.6583 C   0  0  0  0  0  0  0  0  0  0  0  0
   27.9480  -19.9637   -5.2415 C   0  0  0  0  0  0  0  0  0  0  0  0
   28.9337  -19.8547   -6.1970 C   0  0  0  0  0  0  0  0  0  0  0  0
   28.6752  -20.0569   -7.5406 C   0  0  0  0  0  0  0  0  0  0  0  0
   27.4000  -20.3794   -7.9641 C   0  0  0  0  0  0  0  0  0  0  0  0
   25.4437  -20.4765  -11.7662 C   0  0  0  0  0  0  0  0  0  0  0  0
   25.2042  -19.2402  -11.9221 O   0  0  0  0  0  0  0  0  0  0  0  0
   24.3471  -21.3583  -11.6674 N   0  0  0  0  0  0  0  0  0  0  0  0
   22.9600  -20.9350  -11.9552 C   0  0  1  0  0  0  0  0  0  0  0  0
   22.2505  -22.1377  -12.5221 C   0  0  0  0  0  0  0  0  0  0  0  0
   20.9232  -21.7882  -13.0313 C   0  0  0  0  0  0  0  0  0  0  0  0
   20.0320  -22.6576  -13.1117 O   0  0  0  0  0  0  0  0  0  0  0  0
   22.3520  -20.3931  -10.7302 C   0  0  0  0  0  0  0  0  0  0  0  0
   21.4564  -19.3101  -10.8283 O   0  0  0  0  0  0  0  0  0  0  0  0
   20.6427  -20.4989  -13.4313 O   0  0  0  0  0  0  0  0  0  0  0  0
   22.5864  -20.8408   -9.6071 O   0  0  0  0  0  0  0  0  0  0  0  0
  2  1  1  6
  3  4  1  0
  3  2  1  0
  5  6  2  0
  5  4  1  0
  7  2  1  0
  7  8  2  0
  9  5  1  0
 10  7  1  0
 11 10  1  0
 11 12  1  1
 13 12  1  0
 13 14  2  0
 15 14  1  0
 16 15  1  0
 17 16  2  0
 18 17  1  0
 19 18  2  0
 19 20  1  0
 20 21  2  0
 21 16  1  0
 21 13  1  0
 22 11  1  0
 23 22  2  0
 24 22  1  0
 25 29  1  0
 25 24  1  0
 25 26  1  1
 27 26  1  0
 27 28  2  0
 29 30  1  0
 31 27  1  0
 32 29  2  0
M  END
$$$$
