EWD.pdb
     RDKit          3D

 32 33  0  0  1  0  0  0  0  0999 V2000
   23.1134  -21.7680  -12.7011 N   0  0  0  0  0  0  0  0  0  0  0  0
   22.9811  -20.5297  -12.0230 C   0  0  1  0  0  0  0  0  0  0  0  0
   22.0085  -20.5454  -10.8917 C   0  0  0  0  0  0  0  0  0  0  0  0
   20.6014  -20.6151  -11.3373 C   0  0  0  0  0  0  0  0  0  0  0  0
   20.1809  -21.9533  -11.7540 C   0  0  0  0  0  0  0  0  0  0  0  0
   20.8251  -23.0117  -11.7405 O   0  0  0  0  0  0  0  0  0  0  0  0
   24.3067  -20.1106  -11.4606 C   0  0  0  0  0  0  0  0  0  0  0  0
   24.3970  -19.0002  -10.8747 O   0  0  0  0  0  0  0  0  0  0  0  0
   18.8490  -22.0550  -12.2436 O   0  0  0  0  0  0  0  0  0  0  0  0
   25.3966  -21.0057  -11.6245 N   0  0  0  0  0  0  0  0  0  0  0  0
   26.6980  -20.6329  -11.1430 C   0  0  1  0  0  0  0  0  0  0  0  0
   27.1764  -21.4644   -9.9974 C   0  0  0  0  0  0  0  0  0  0  0  0
   26.7072  -21.0710   -8.6691 C   0  0  0  0  0  0  0  0  0  0  0  0
   25.4404  -21.0073   -8.1771 C   0  0  0  0  0  0  0  0  0  0  0  0
   25.4981  -20.5963   -6.8881 N   0  0  0  0  0  0  0  0  0  0  0  0
   26.7728  -20.3956   -6.5456 C   0  0  0  0  0  0  0  0  0  0  0  0
   27.3346  -19.9726   -5.3383 C   0  0  0  0  0  0  0  0  0  0  0  0
   28.6981  -19.8356   -5.2209 C   0  0  0  0  0  0  0  0  0  0  0  0
   29.4743  -20.1268   -6.3204 C   0  0  0  0  0  0  0  0  0  0  0  0
   28.9202  -20.5453   -7.5166 C   0  0  0  0  0  0  0  0  0  0  0  0
   27.5508  -20.6844   -7.6393 C   0  0  0  0  0  0  0  0  0  0  0  0
   27.6701  -20.4450  -12.2315 C   0  0  0  0  0  0  0  0  0  0  0  0
   28.8990  -20.7308  -12.0962 O   0  0  0  0  0  0  0  0  0  0  0  0
   27.2406  -19.9304  -13.4726 N   0  0  0  0  0  0  0  0  0  0  0  0
   27.7725  -20.4209  -14.7620 C   0  0  1  0  0  0  0  0  0  0  0  0
   27.5936  -21.9173  -14.7616 C   0  0  0  0  0  0  0  0  0  0  0  0
   28.0503  -22.5136  -16.0182 C   0  0  0  0  0  0  0  0  0  0  0  0
   27.2508  -23.1378  -16.7447 O   0  0  0  0  0  0  0  0  0  0  0  0
   27.0896  -19.7283  -15.8656 C   0  0  0  0  0  0  0  0  0  0  0  0
   27.8064  -18.7942  -16.6393 O   0  0  0  0  0  0  0  0  0  0  0  0
   29.3664  -22.3971  -16.4122 O   0  0  0  0  0  0  0  0  0  0  0  0
   25.9084  -19.9229  -16.1547 O   0  0  0  0  0  0  0  0  0  0  0  0
  2  1  1  1
  3  4  1  0
  3  2  1  0
  5  6  2  0
  5  4  1  0
  7  2  1  0
  7  8  2  0
  9  5  1  0
 10  7  1  0
 11 10  1  0
 11 12  1  1
 13 12  1  0
 13 14  2  0
 15 14  1  0
 16 15  1  0
 17 16  2  0
 18 17  1  0
 19 18  2  0
 19 20  1  0
 20 21  2  0
 21 16  1  0
 21 13  1  0
 22 11  1  0
 23 22  2  0
 24 22  1  0
 25 29  1  0
 25 24  1  0
 25 26  1  6
 27 26  1  0
 27 28  2  0
 29 30  1  0
 31 27  1  0
 32 29  2  0
M  END
$$$$
