EWD.pdb
     RDKit          3D

 32 33  0  0  1  0  0  0  0  0999 V2000
   28.8409  -21.0118  -16.4347 N   0  0  0  0  0  0  0  0  0  0  0  0
   27.6400  -20.2633  -16.5256 C   0  0  1  0  0  0  0  0  0  0  0  0
   26.8707  -20.4799  -17.7855 C   0  0  0  0  0  0  0  0  0  0  0  0
   27.7176  -20.4431  -18.9959 C   0  0  0  0  0  0  0  0  0  0  0  0
   28.6611  -21.5576  -19.0889 C   0  0  0  0  0  0  0  0  0  0  0  0
   28.4302  -22.7599  -19.2794 O   0  0  0  0  0  0  0  0  0  0  0  0
   26.7306  -20.6155  -15.3862 C   0  0  0  0  0  0  0  0  0  0  0  0
   25.5035  -20.7793  -15.6136 O   0  0  0  0  0  0  0  0  0  0  0  0
   30.0339  -21.2154  -18.9392 O   0  0  0  0  0  0  0  0  0  0  0  0
   27.3177  -20.7462  -14.1001 N   0  0  0  0  0  0  0  0  0  0  0  0
   26.4772  -20.9760  -12.9577 C   0  0  1  0  0  0  0  0  0  0  0  0
   27.2281  -21.0840  -11.6704 C   0  0  0  0  0  0  0  0  0  0  0  0
   26.4440  -20.9243  -10.4460 C   0  0  0  0  0  0  0  0  0  0  0  0
   25.1551  -21.2736  -10.1862 C   0  0  0  0  0  0  0  0  0  0  0  0
   24.8657  -20.9357   -8.9072 N   0  0  0  0  0  0  0  0  0  0  0  0
   25.9403  -20.3784   -8.3441 C   0  0  0  0  0  0  0  0  0  0  0  0
   26.1332  -19.8723   -7.0562 C   0  0  0  0  0  0  0  0  0  0  0  0
   27.3484  -19.3363   -6.6990 C   0  0  0  0  0  0  0  0  0  0  0  0
   28.3502  -19.3185   -7.6437 C   0  0  0  0  0  0  0  0  0  0  0  0
   28.1612  -19.8186   -8.9194 C   0  0  0  0  0  0  0  0  0  0  0  0
   26.9420  -20.3580   -9.2828 C   0  0  0  0  0  0  0  0  0  0  0  0
   25.3072  -20.0841  -12.9291 C   0  0  0  0  0  0  0  0  0  0  0  0
   25.4179  -18.8223  -13.0060 O   0  0  0  0  0  0  0  0  0  0  0  0
   24.0124  -20.6313  -12.8118 N   0  0  0  0  0  0  0  0  0  0  0  0
   22.7909  -19.8008  -12.8772 C   0  0  1  0  0  0  0  0  0  0  0  0
   22.7669  -19.1755  -14.2482 C   0  0  0  0  0  0  0  0  0  0  0  0
   21.5127  -18.4605  -14.4909 C   0  0  0  0  0  0  0  0  0  0  0  0
   21.3494  -17.3078  -14.0422 O   0  0  0  0  0  0  0  0  0  0  0  0
   21.6184  -20.6342  -12.5695 C   0  0  0  0  0  0  0  0  0  0  0  0
   20.3903  -20.0105  -12.2736 O   0  0  0  0  0  0  0  0  0  0  0  0
   20.4972  -19.0510  -15.2129 O   0  0  0  0  0  0  0  0  0  0  0  0
   21.6518  -21.8653  -12.5563 O   0  0  0  0  0  0  0  0  0  0  0  0
  2  1  1  6
  3  4  1  0
  3  2  1  0
  5  6  2  0
  5  4  1  0
  7  2  1  0
  7  8  2  0
  9  5  1  0
 10  7  1  0
 11 10  1  0
 11 12  1  1
 13 12  1  0
 13 14  2  0
 15 14  1  0
 16 15  1  0
 17 16  2  0
 18 17  1  0
 19 18  2  0
 19 20  1  0
 20 21  2  0
 21 16  1  0
 21 13  1  0
 22 11  1  0
 23 22  2  0
 24 22  1  0
 25 29  1  0
 25 24  1  0
 25 26  1  6
 27 26  1  0
 27 28  2  0
 29 30  1  0
 31 27  1  0
 32 29  2  0
M  END
$$$$
