EWD.pdb
     RDKit          3D

 32 33  0  0  1  0  0  0  0  0999 V2000
   14.6829  -21.9069    1.8119 N   0  0  0  0  0  0  0  0  0  0  0  0
   14.5346  -20.6180    2.3841 C   0  0  1  0  0  0  0  0  0  0  0  0
   13.4517  -20.5162    3.4054 C   0  0  0  0  0  0  0  0  0  0  0  0
   12.0979  -20.6669    2.8325 C   0  0  0  0  0  0  0  0  0  0  0  0
   11.7294  -19.5985    1.9030 C   0  0  0  0  0  0  0  0  0  0  0  0
   11.6199  -19.6425    0.6695 O   0  0  0  0  0  0  0  0  0  0  0  0
   15.8123  -20.2049    3.0519 C   0  0  0  0  0  0  0  0  0  0  0  0
   16.5785  -21.0946    3.5057 O   0  0  0  0  0  0  0  0  0  0  0  0
   11.4602  -18.3334    2.4955 O   0  0  0  0  0  0  0  0  0  0  0  0
   16.0856  -18.8140    3.1324 N   0  0  0  0  0  0  0  0  0  0  0  0
   17.2796  -18.3637    3.7928 C   0  0  1  0  0  0  0  0  0  0  0  0
   18.0165  -17.3009    3.0444 C   0  0  0  0  0  0  0  0  0  0  0  0
   18.9036  -17.7566    1.9745 C   0  0  0  0  0  0  0  0  0  0  0  0
   18.8003  -18.8426    1.1616 C   0  0  0  0  0  0  0  0  0  0  0  0
   19.8569  -18.8499    0.3147 N   0  0  0  0  0  0  0  0  0  0  0  0
   20.6329  -17.7936    0.5681 C   0  0  0  0  0  0  0  0  0  0  0  0
   21.8232  -17.3743   -0.0316 C   0  0  0  0  0  0  0  0  0  0  0  0
   22.4543  -16.2341    0.4079 C   0  0  0  0  0  0  0  0  0  0  0  0
   21.8773  -15.5339    1.4438 C   0  0  0  0  0  0  0  0  0  0  0  0
   20.6993  -15.9475    2.0392 C   0  0  0  0  0  0  0  0  0  0  0  0
   20.0617  -17.0924    1.6011 C   0  0  0  0  0  0  0  0  0  0  0  0
   17.0651  -18.0908    5.2227 C   0  0  0  0  0  0  0  0  0  0  0  0
   16.1081  -17.3674    5.6359 O   0  0  0  0  0  0  0  0  0  0  0  0
   17.9426  -18.6419    6.1799 N   0  0  0  0  0  0  0  0  0  0  0  0
   17.8074  -18.3738    7.6276 C   0  0  1  0  0  0  0  0  0  0  0  0
   18.7469  -19.3191    8.3313 C   0  0  0  0  0  0  0  0  0  0  0  0
   18.6125  -19.2267    9.7861 C   0  0  0  0  0  0  0  0  0  0  0  0
   18.9543  -18.1863   10.3840 O   0  0  0  0  0  0  0  0  0  0  0  0
   18.0725  -16.9501    7.8861 C   0  0  0  0  0  0  0  0  0  0  0  0
   17.3959  -16.3052    8.9401 O   0  0  0  0  0  0  0  0  0  0  0  0
   18.1118  -20.2860   10.5128 O   0  0  0  0  0  0  0  0  0  0  0  0
   18.8651  -16.2812    7.2220 O   0  0  0  0  0  0  0  0  0  0  0  0
  2  1  1  1
  3  4  1  0
  3  2  1  0
  5  6  2  0
  5  4  1  0
  7  2  1  0
  7  8  2  0
  9  5  1  0
 10  7  1  0
 11 10  1  0
 11 12  1  6
 13 12  1  0
 13 14  2  0
 15 14  1  0
 16 15  1  0
 17 16  2  0
 18 17  1  0
 19 18  2  0
 19 20  1  0
 20 21  2  0
 21 16  1  0
 21 13  1  0
 22 11  1  0
 23 22  2  0
 24 22  1  0
 25 29  1  0
 25 24  1  0
 25 26  1  1
 27 26  1  0
 27 28  2  0
 29 30  1  0
 31 27  1  0
 32 29  2  0
M  END
$$$$
