EWD.pdb
     RDKit          3D

 32 33  0  0  1  0  0  0  0  0999 V2000
   20.3198  -13.5776  -22.9274 N   0  0  0  0  0  0  0  0  0  0  0  0
   20.3708  -12.2166  -22.5330 C   0  0  1  0  0  0  0  0  0  0  0  0
   19.4531  -11.3183  -23.2927 C   0  0  0  0  0  0  0  0  0  0  0  0
   18.1057  -11.8938  -23.4848 C   0  0  0  0  0  0  0  0  0  0  0  0
   17.0351  -10.8965  -23.4956 C   0  0  0  0  0  0  0  0  0  0  0  0
   16.9189   -9.8860  -24.2034 O   0  0  0  0  0  0  0  0  0  0  0  0
   20.0117  -12.0909  -21.0823 C   0  0  0  0  0  0  0  0  0  0  0  0
   19.0515  -12.7681  -20.6309 O   0  0  0  0  0  0  0  0  0  0  0  0
   15.9816  -11.1148  -22.5649 O   0  0  0  0  0  0  0  0  0  0  0  0
   20.7890  -11.2028  -20.2930 N   0  0  0  0  0  0  0  0  0  0  0  0
   20.5653  -11.1344  -18.8754 C   0  0  1  0  0  0  0  0  0  0  0  0
   21.6765  -11.7148  -18.0624 C   0  0  0  0  0  0  0  0  0  0  0  0
   21.7527  -13.1747  -18.0155 C   0  0  0  0  0  0  0  0  0  0  0  0
   22.4862  -14.0327  -18.7750 C   0  0  0  0  0  0  0  0  0  0  0  0
   22.2366  -15.2974  -18.3604 N   0  0  0  0  0  0  0  0  0  0  0  0
   21.3603  -15.2670  -17.3537 C   0  0  0  0  0  0  0  0  0  0  0  0
   20.7990  -16.3041  -16.6045 C   0  0  0  0  0  0  0  0  0  0  0  0
   19.9018  -16.0243  -15.6003 C   0  0  0  0  0  0  0  0  0  0  0  0
   19.5841  -14.7050  -15.3660 C   0  0  0  0  0  0  0  0  0  0  0  0
   20.1383  -13.6768  -16.1068 C   0  0  0  0  0  0  0  0  0  0  0  0
   21.0401  -13.9531  -17.1167 C   0  0  0  0  0  0  0  0  0  0  0  0
   20.0957   -9.8092  -18.4414 C   0  0  0  0  0  0  0  0  0  0  0  0
   20.7170   -8.7428  -18.7359 O   0  0  0  0  0  0  0  0  0  0  0  0
   18.9189   -9.7012  -17.6710 N   0  0  0  0  0  0  0  0  0  0  0  0
   18.4744   -8.4227  -17.0762 C   0  0  1  0  0  0  0  0  0  0  0  0
   16.9977   -8.5611  -16.8090 C   0  0  0  0  0  0  0  0  0  0  0  0
   16.4621   -7.3821  -16.1263 C   0  0  0  0  0  0  0  0  0  0  0  0
   16.7539   -6.2372  -16.5271 O   0  0  0  0  0  0  0  0  0  0  0  0
   19.2830   -8.1342  -15.8816 C   0  0  0  0  0  0  0  0  0  0  0  0
   20.2420   -9.0749  -15.4570 O   0  0  0  0  0  0  0  0  0  0  0  0
   15.6339   -7.5208  -15.0327 O   0  0  0  0  0  0  0  0  0  0  0  0
   19.1659   -7.1004  -15.2226 O   0  0  0  0  0  0  0  0  0  0  0  0
  2  1  1  6
  3  4  1  0
  3  2  1  0
  5  6  2  0
  5  4  1  0
  7  2  1  0
  7  8  2  0
  9  5  1  0
 10  7  1  0
 11 10  1  0
 11 12  1  1
 13 12  1  0
 13 14  2  0
 15 14  1  0
 16 15  1  0
 17 16  2  0
 18 17  1  0
 19 18  2  0
 19 20  1  0
 20 21  2  0
 21 16  1  0
 21 13  1  0
 22 11  1  0
 23 22  2  0
 24 22  1  0
 25 29  1  0
 25 24  1  0
 25 26  1  1
 27 26  1  0
 27 28  2  0
 29 30  1  0
 31 27  1  0
 32 29  2  0
M  END
$$$$
