EWD.pdb
     RDKit          3D

 32 33  0  0  1  0  0  0  0  0999 V2000
   27.8354  -22.0511  -15.4300 N   0  0  0  0  0  0  0  0  0  0  0  0
   26.9662  -20.9860  -15.0824 C   0  0  1  0  0  0  0  0  0  0  0  0
   26.1617  -20.4491  -16.2183 C   0  0  0  0  0  0  0  0  0  0  0  0
   26.8978  -19.4616  -17.0348 C   0  0  0  0  0  0  0  0  0  0  0  0
   26.2162  -18.1726  -17.1566 C   0  0  0  0  0  0  0  0  0  0  0  0
   25.0260  -17.9419  -17.4127 O   0  0  0  0  0  0  0  0  0  0  0  0
   25.9982  -21.4389  -14.0302 C   0  0  0  0  0  0  0  0  0  0  0  0
   25.3378  -22.4932  -14.2223 O   0  0  0  0  0  0  0  0  0  0  0  0
   27.0313  -17.0242  -16.9545 O   0  0  0  0  0  0  0  0  0  0  0  0
   25.8837  -20.6395  -12.8623 N   0  0  0  0  0  0  0  0  0  0  0  0
   24.8825  -20.9570  -11.8819 C   0  0  1  0  0  0  0  0  0  0  0  0
   25.2716  -20.5941  -10.4856 C   0  0  0  0  0  0  0  0  0  0  0  0
   26.6161  -20.9862  -10.0635 C   0  0  0  0  0  0  0  0  0  0  0  0
   27.5637  -21.6999  -10.7294 C   0  0  0  0  0  0  0  0  0  0  0  0
   28.6584  -21.8062   -9.9393 N   0  0  0  0  0  0  0  0  0  0  0  0
   28.4315  -21.1770   -8.7839 C   0  0  0  0  0  0  0  0  0  0  0  0
   29.2478  -21.0124   -7.6620 C   0  0  0  0  0  0  0  0  0  0  0  0
   28.7889  -20.3138   -6.5697 C   0  0  0  0  0  0  0  0  0  0  0  0
   27.5158  -19.7917   -6.6242 C   0  0  0  0  0  0  0  0  0  0  0  0
   26.7059  -19.9539   -7.7337 C   0  0  0  0  0  0  0  0  0  0  0  0
   27.1626  -20.6550   -8.8334 C   0  0  0  0  0  0  0  0  0  0  0  0
   23.5360  -20.5267  -12.2904 C   0  0  0  0  0  0  0  0  0  0  0  0
   23.3401  -19.4684  -12.9625 O   0  0  0  0  0  0  0  0  0  0  0  0
   22.4141  -21.3027  -11.9312 N   0  0  0  0  0  0  0  0  0  0  0  0
   21.1031  -21.1591  -12.5995 C   0  0  1  0  0  0  0  0  0  0  0  0
   21.2345  -21.8098  -13.9524 C   0  0  0  0  0  0  0  0  0  0  0  0
   20.5005  -21.0681  -14.9792 C   0  0  0  0  0  0  0  0  0  0  0  0
   20.5419  -19.8214  -15.0043 O   0  0  0  0  0  0  0  0  0  0  0  0
   20.0552  -21.7398  -11.7458 C   0  0  0  0  0  0  0  0  0  0  0  0
   20.1957  -23.0657  -11.2907 O   0  0  0  0  0  0  0  0  0  0  0  0
   19.7530  -21.7351  -15.9265 O   0  0  0  0  0  0  0  0  0  0  0  0
   19.0470  -21.1216  -11.4021 O   0  0  0  0  0  0  0  0  0  0  0  0
  2  1  1  6
  3  4  1  0
  3  2  1  0
  5  6  2  0
  5  4  1  0
  7  2  1  0
  7  8  2  0
  9  5  1  0
 10  7  1  0
 11 10  1  0
 11 12  1  1
 13 12  1  0
 13 14  2  0
 15 14  1  0
 16 15  1  0
 17 16  2  0
 18 17  1  0
 19 18  2  0
 19 20  1  0
 20 21  2  0
 21 16  1  0
 21 13  1  0
 22 11  1  0
 23 22  2  0
 24 22  1  0
 25 29  1  0
 25 24  1  0
 25 26  1  6
 27 26  1  0
 27 28  2  0
 29 30  1  0
 31 27  1  0
 32 29  2  0
M  END
$$$$
