EWD.pdb
     RDKit          3D

 32 33  0  0  1  0  0  0  0  0999 V2000
   26.4038  -20.2890  -16.4334 N   0  0  0  0  0  0  0  0  0  0  0  0
   26.5030  -21.6998  -16.3317 C   0  0  1  0  0  0  0  0  0  0  0  0
   27.8992  -22.2249  -16.3622 C   0  0  0  0  0  0  0  0  0  0  0  0
   28.6181  -21.8891  -17.6088 C   0  0  0  0  0  0  0  0  0  0  0  0
   27.7919  -21.9940  -18.8119 C   0  0  0  0  0  0  0  0  0  0  0  0
   27.3621  -21.0905  -19.5429 O   0  0  0  0  0  0  0  0  0  0  0  0
   25.8838  -22.1647  -15.0473 C   0  0  0  0  0  0  0  0  0  0  0  0
   25.8998  -23.3928  -14.7720 O   0  0  0  0  0  0  0  0  0  0  0  0
   27.4303  -23.3151  -19.1965 O   0  0  0  0  0  0  0  0  0  0  0  0
   25.3089  -21.1762  -14.2056 N   0  0  0  0  0  0  0  0  0  0  0  0
   24.7025  -21.5688  -12.9637 C   0  0  1  0  0  0  0  0  0  0  0  0
   25.4861  -21.1644  -11.7574 C   0  0  0  0  0  0  0  0  0  0  0  0
   26.7701  -20.5099  -12.0067 C   0  0  0  0  0  0  0  0  0  0  0  0
   27.0817  -19.5049  -12.8692 C   0  0  0  0  0  0  0  0  0  0  0  0
   28.4001  -19.2220  -12.7440 N   0  0  0  0  0  0  0  0  0  0  0  0
   28.9378  -20.0234  -11.8215 C   0  0  0  0  0  0  0  0  0  0  0  0
   30.2487  -20.1125  -11.3465 C   0  0  0  0  0  0  0  0  0  0  0  0
   30.5713  -21.0329  -10.3766 C   0  0  0  0  0  0  0  0  0  0  0  0
   29.5693  -21.8485   -9.9002 C   0  0  0  0  0  0  0  0  0  0  0  0
   28.2710  -21.7622  -10.3694 C   0  0  0  0  0  0  0  0  0  0  0  0
   27.9422  -20.8392  -11.3437 C   0  0  0  0  0  0  0  0  0  0  0  0
   23.2657  -21.2555  -12.9131 C   0  0  0  0  0  0  0  0  0  0  0  0
   22.5482  -21.5373  -11.9052 O   0  0  0  0  0  0  0  0  0  0  0  0
   22.6482  -20.6222  -14.0120 N   0  0  0  0  0  0  0  0  0  0  0  0
   21.1994  -20.3293  -14.0477 C   0  0  1  0  0  0  0  0  0  0  0  0
   21.0644  -18.8446  -14.2681 C   0  0  0  0  0  0  0  0  0  0  0  0
   20.1888  -18.2302  -13.2687 C   0  0  0  0  0  0  0  0  0  0  0  0
   19.6918  -18.9229  -12.3577 O   0  0  0  0  0  0  0  0  0  0  0  0
   20.5606  -21.1571  -15.0825 C   0  0  0  0  0  0  0  0  0  0  0  0
   21.0243  -21.0767  -16.4104 O   0  0  0  0  0  0  0  0  0  0  0  0
   19.8994  -16.8832  -13.3230 O   0  0  0  0  0  0  0  0  0  0  0  0
   19.6291  -21.9279  -14.8482 O   0  0  0  0  0  0  0  0  0  0  0  0
  2  1  1  1
  3  4  1  0
  3  2  1  0
  5  6  2  0
  5  4  1  0
  7  2  1  0
  7  8  2  0
  9  5  1  0
 10  7  1  0
 11 10  1  0
 11 12  1  1
 13 12  1  0
 13 14  2  0
 15 14  1  0
 16 15  1  0
 17 16  2  0
 18 17  1  0
 19 18  2  0
 19 20  1  0
 20 21  2  0
 21 16  1  0
 21 13  1  0
 22 11  1  0
 23 22  2  0
 24 22  1  0
 25 29  1  0
 25 24  1  0
 25 26  1  6
 27 26  1  0
 27 28  2  0
 29 30  1  0
 31 27  1  0
 32 29  2  0
M  END
$$$$
