EWD.pdb
     RDKit          3D

 32 33  0  0  1  0  0  0  0  0999 V2000
   27.9534  -22.0668  -15.0483 N   0  0  0  0  0  0  0  0  0  0  0  0
   27.6043  -20.9138  -14.3005 C   0  0  1  0  0  0  0  0  0  0  0  0
   27.0858  -19.7796  -15.1196 C   0  0  0  0  0  0  0  0  0  0  0  0
   26.2491  -20.2193  -16.2554 C   0  0  0  0  0  0  0  0  0  0  0  0
   24.8870  -19.6855  -16.2251 C   0  0  0  0  0  0  0  0  0  0  0  0
   24.4027  -18.8285  -15.4725 O   0  0  0  0  0  0  0  0  0  0  0  0
   26.5428  -21.2567  -13.2980 C   0  0  0  0  0  0  0  0  0  0  0  0
   25.8752  -22.3124  -13.4537 O   0  0  0  0  0  0  0  0  0  0  0  0
   23.9934  -20.2247  -17.1919 O   0  0  0  0  0  0  0  0  0  0  0  0
   26.3525  -20.3567  -12.2165 N   0  0  0  0  0  0  0  0  0  0  0  0
   25.3749  -20.6581  -11.2077 C   0  0  1  0  0  0  0  0  0  0  0  0
   25.7050  -20.0959   -9.8632 C   0  0  0  0  0  0  0  0  0  0  0  0
   26.9723  -20.5261   -9.2729 C   0  0  0  0  0  0  0  0  0  0  0  0
   27.9070  -21.3903   -9.7529 C   0  0  0  0  0  0  0  0  0  0  0  0
   28.9205  -21.4703   -8.8584 N   0  0  0  0  0  0  0  0  0  0  0  0
   28.6545  -20.6773   -7.8179 C   0  0  0  0  0  0  0  0  0  0  0  0
   29.3876  -20.4248   -6.6557 C   0  0  0  0  0  0  0  0  0  0  0  0
   28.9022  -19.5545   -5.7076 C   0  0  0  0  0  0  0  0  0  0  0  0
   27.6868  -18.9520   -5.9447 C   0  0  0  0  0  0  0  0  0  0  0  0
   26.9593  -19.2009   -7.0945 C   0  0  0  0  0  0  0  0  0  0  0  0
   27.4429  -20.0745   -8.0497 C   0  0  0  0  0  0  0  0  0  0  0  0
   23.9976  -20.4194  -11.6670 C   0  0  0  0  0  0  0  0  0  0  0  0
   23.6957  -19.4410  -12.4165 O   0  0  0  0  0  0  0  0  0  0  0  0
   22.9656  -21.2956  -11.2705 N   0  0  0  0  0  0  0  0  0  0  0  0
   21.5610  -21.1103  -11.6935 C   0  0  1  0  0  0  0  0  0  0  0  0
   20.8228  -22.3641  -11.3006 C   0  0  0  0  0  0  0  0  0  0  0  0
   19.4250  -22.3228  -11.7332 C   0  0  0  0  0  0  0  0  0  0  0  0
   18.9880  -21.3321  -12.3532 O   0  0  0  0  0  0  0  0  0  0  0  0
   21.0292  -19.8786  -11.0903 C   0  0  0  0  0  0  0  0  0  0  0  0
   20.1041  -19.1020  -11.8155 O   0  0  0  0  0  0  0  0  0  0  0  0
   18.5745  -23.3728  -11.4588 O   0  0  0  0  0  0  0  0  0  0  0  0
   21.3528  -19.4832   -9.9698 O   0  0  0  0  0  0  0  0  0  0  0  0
  2  1  1  6
  3  4  1  0
  3  2  1  0
  5  6  2  0
  5  4  1  0
  7  2  1  0
  7  8  2  0
  9  5  1  0
 10  7  1  0
 11 10  1  0
 11 12  1  1
 13 12  1  0
 13 14  2  0
 15 14  1  0
 16 15  1  0
 17 16  2  0
 18 17  1  0
 19 18  2  0
 19 20  1  0
 20 21  2  0
 21 16  1  0
 21 13  1  0
 22 11  1  0
 23 22  2  0
 24 22  1  0
 25 29  1  0
 25 24  1  0
 25 26  1  1
 27 26  1  0
 27 28  2  0
 29 30  1  0
 31 27  1  0
 32 29  2  0
M  END
$$$$
