EWD.pdb
     RDKit          3D

 32 33  0  0  1  0  0  0  0  0999 V2000
   21.6936  -20.7064  -10.2097 N   0  0  0  0  0  0  0  0  0  0  0  0
   22.6247  -21.5545  -10.8611 C   0  0  1  0  0  0  0  0  0  0  0  0
   22.0521  -22.3551  -11.9824 C   0  0  0  0  0  0  0  0  0  0  0  0
   21.1806  -21.5629  -12.8748 C   0  0  0  0  0  0  0  0  0  0  0  0
   21.4375  -21.7849  -14.2982 C   0  0  0  0  0  0  0  0  0  0  0  0
   21.5299  -22.8553  -14.9154 O   0  0  0  0  0  0  0  0  0  0  0  0
   23.7485  -20.7395  -11.4288 C   0  0  0  0  0  0  0  0  0  0  0  0
   23.5276  -19.5466  -11.7645 O   0  0  0  0  0  0  0  0  0  0  0  0
   21.6056  -20.6104  -15.0833 O   0  0  0  0  0  0  0  0  0  0  0  0
   25.0135  -21.3717  -11.5543 N   0  0  0  0  0  0  0  0  0  0  0  0
   26.1309  -20.6258  -12.0635 C   0  0  1  0  0  0  0  0  0  0  0  0
   27.4184  -20.9183  -11.3639 C   0  0  0  0  0  0  0  0  0  0  0  0
   27.5090  -20.4948   -9.9668 C   0  0  0  0  0  0  0  0  0  0  0  0
   26.6185  -19.7999   -9.2086 C   0  0  0  0  0  0  0  0  0  0  0  0
   27.1349  -19.6491   -7.9659 N   0  0  0  0  0  0  0  0  0  0  0  0
   28.3350  -20.2316   -7.9130 C   0  0  0  0  0  0  0  0  0  0  0  0
   29.2479  -20.3404   -6.8610 C   0  0  0  0  0  0  0  0  0  0  0  0
   30.4419  -20.9973   -7.0470 C   0  0  0  0  0  0  0  0  0  0  0  0
   30.6979  -21.5343   -8.2889 C   0  0  0  0  0  0  0  0  0  0  0  0
   29.7957  -21.4274   -9.3319 C   0  0  0  0  0  0  0  0  0  0  0  0
   28.5949  -20.7683   -9.1497 C   0  0  0  0  0  0  0  0  0  0  0  0
   26.1974  -20.6415  -13.5333 C   0  0  0  0  0  0  0  0  0  0  0  0
   26.2236  -21.7229  -14.1966 O   0  0  0  0  0  0  0  0  0  0  0  0
   26.2351  -19.4244  -14.2455 N   0  0  0  0  0  0  0  0  0  0  0  0
   26.2530  -19.3696  -15.7229 C   0  0  1  0  0  0  0  0  0  0  0  0
   25.3658  -18.2191  -16.1231 C   0  0  0  0  0  0  0  0  0  0  0  0
   25.3988  -17.9925  -17.5690 C   0  0  0  0  0  0  0  0  0  0  0  0
   24.9237  -18.8422  -18.3493 O   0  0  0  0  0  0  0  0  0  0  0  0
   27.6435  -19.2545  -16.1890 C   0  0  0  0  0  0  0  0  0  0  0  0
   28.0261  -19.9063  -17.3780 O   0  0  0  0  0  0  0  0  0  0  0  0
   25.9570  -16.8427  -18.0861 O   0  0  0  0  0  0  0  0  0  0  0  0
   28.5042  -18.6102  -15.5882 O   0  0  0  0  0  0  0  0  0  0  0  0
  2  1  1  6
  3  4  1  0
  3  2  1  0
  5  6  2  0
  5  4  1  0
  7  2  1  0
  7  8  2  0
  9  5  1  0
 10  7  1  0
 11 10  1  0
 11 12  1  1
 13 12  1  0
 13 14  2  0
 15 14  1  0
 16 15  1  0
 17 16  2  0
 18 17  1  0
 19 18  2  0
 19 20  1  0
 20 21  2  0
 21 16  1  0
 21 13  1  0
 22 11  1  0
 23 22  2  0
 24 22  1  0
 25 29  1  0
 25 24  1  0
 25 26  1  1
 27 26  1  0
 27 28  2  0
 29 30  1  0
 31 27  1  0
 32 29  2  0
M  END
$$$$
