EWD.pdb
     RDKit          3D

 32 33  0  0  1  0  0  0  0  0999 V2000
   24.8935  -36.2021  -14.5504 N   0  0  0  0  0  0  0  0  0  0  0  0
   23.5790  -35.9005  -14.1124 C   0  0  1  0  0  0  0  0  0  0  0  0
   22.8460  -37.0554  -13.5165 C   0  0  0  0  0  0  0  0  0  0  0  0
   23.7417  -38.0507  -12.8914 C   0  0  0  0  0  0  0  0  0  0  0  0
   23.5600  -39.4098  -13.4023 C   0  0  0  0  0  0  0  0  0  0  0  0
   23.7396  -40.4903  -12.8230 O   0  0  0  0  0  0  0  0  0  0  0  0
   23.6218  -34.8202  -13.0729 C   0  0  0  0  0  0  0  0  0  0  0  0
   24.6276  -34.7373  -12.3207 O   0  0  0  0  0  0  0  0  0  0  0  0
   23.1169  -39.5058  -14.7508 O   0  0  0  0  0  0  0  0  0  0  0  0
   22.5087  -33.9419  -12.9995 N   0  0  0  0  0  0  0  0  0  0  0  0
   22.5266  -32.8522  -12.0633 C   0  0  1  0  0  0  0  0  0  0  0  0
   21.4160  -31.8720  -12.2598 C   0  0  0  0  0  0  0  0  0  0  0  0
   21.5102  -30.6239  -11.5029 C   0  0  0  0  0  0  0  0  0  0  0  0
   22.5803  -29.8095  -11.2972 C   0  0  0  0  0  0  0  0  0  0  0  0
   22.1850  -28.7611  -10.5366 N   0  0  0  0  0  0  0  0  0  0  0  0
   20.8868  -28.8874  -10.2517 C   0  0  0  0  0  0  0  0  0  0  0  0
   20.0356  -28.0692   -9.5048 C   0  0  0  0  0  0  0  0  0  0  0  0
   18.7128  -28.4106   -9.3451 C   0  0  0  0  0  0  0  0  0  0  0  0
   18.2680  -29.5701   -9.9400 C   0  0  0  0  0  0  0  0  0  0  0  0
   19.1091  -30.3819  -10.6795 C   0  0  0  0  0  0  0  0  0  0  0  0
   20.4388  -30.0429  -10.8426 C   0  0  0  0  0  0  0  0  0  0  0  0
   22.7289  -33.3022  -10.6771 C   0  0  0  0  0  0  0  0  0  0  0  0
   22.1367  -34.3199  -10.2043 O   0  0  0  0  0  0  0  0  0  0  0  0
   23.6052  -32.5908   -9.8309 N   0  0  0  0  0  0  0  0  0  0  0  0
   23.8066  -32.9534   -8.4118 C   0  0  1  0  0  0  0  0  0  0  0  0
   25.1682  -32.4373   -8.0233 C   0  0  0  0  0  0  0  0  0  0  0  0
   25.5734  -32.9285   -6.7052 C   0  0  0  0  0  0  0  0  0  0  0  0
   25.2258  -34.0644   -6.3237 O   0  0  0  0  0  0  0  0  0  0  0  0
   22.7000  -32.4108   -7.6087 C   0  0  0  0  0  0  0  0  0  0  0  0
   22.3822  -33.0176   -6.3776 O   0  0  0  0  0  0  0  0  0  0  0  0
   26.3385  -32.1434   -5.8689 O   0  0  0  0  0  0  0  0  0  0  0  0
   22.0263  -31.4410   -7.9585 O   0  0  0  0  0  0  0  0  0  0  0  0
  2  1  1  1
  3  4  1  0
  3  2  1  0
  5  6  2  0
  5  4  1  0
  7  2  1  0
  7  8  2  0
  9  5  1  0
 10  7  1  0
 11 10  1  0
 11 12  1  1
 13 12  1  0
 13 14  2  0
 15 14  1  0
 16 15  1  0
 17 16  2  0
 18 17  1  0
 19 18  2  0
 19 20  1  0
 20 21  2  0
 21 16  1  0
 21 13  1  0
 22 11  1  0
 23 22  2  0
 24 22  1  0
 25 29  1  0
 25 24  1  0
 25 26  1  1
 27 26  1  0
 27 28  2  0
 29 30  1  0
 31 27  1  0
 32 29  2  0
M  END
$$$$
