ADK.pdb
     RDKit          3D

 23 22  0  0  1  0  0  0  0  0999 V2000
   20.3249  -12.3968  -18.6063 C   0  0  0  0  0  0  0  0  0  0  0  0
   20.9103  -11.0395  -18.9212 C   0  0  2  0  0  0  0  0  0  0  0  0
   22.3490  -11.1304  -18.8393 N   0  0  0  0  0  0  0  0  0  0  0  0
   20.3784  -10.0261  -17.9565 C   0  0  0  0  0  0  0  0  0  0  0  0
   19.1610   -9.7552  -17.9175 O   0  0  0  0  0  0  0  0  0  0  0  0
   21.2409   -9.3405  -17.0541 N   0  0  0  0  0  0  0  0  0  0  0  0
   20.8199   -8.2544  -16.1967 C   0  0  1  0  0  0  0  0  0  0  0  0
   21.1723   -8.4515  -14.7654 C   0  0  0  0  0  0  0  0  0  0  0  0
   20.5988   -7.3856  -13.9177 C   0  0  0  0  0  0  0  0  0  0  0  0
   20.5827   -6.1627  -14.2120 O   0  0  0  0  0  0  0  0  0  0  0  0
   21.2989   -6.9380  -16.7436 C   0  0  0  0  0  0  0  0  0  0  0  0
   22.5051   -6.7741  -16.9753 O   0  0  0  0  0  0  0  0  0  0  0  0
   20.0298   -7.7377  -12.6986 O   0  0  0  0  0  0  0  0  0  0  0  0
   20.3355   -5.9198  -16.9748 N   0  0  0  0  0  0  0  0  0  0  0  0
   20.7111   -4.6357  -17.5285 C   0  0  1  0  0  0  0  0  0  0  0  0
   20.1386   -4.4331  -18.9121 C   0  0  0  0  0  0  0  0  0  0  0  0
   20.5443   -3.1102  -19.5051 C   0  0  0  0  0  0  0  0  0  0  0  0
   19.9792   -2.9249  -20.8856 C   0  0  0  0  0  0  0  0  0  0  0  0
   20.3309   -1.5829  -21.4938 C   0  0  0  0  0  0  0  0  0  0  0  0
   19.8769   -1.5263  -22.8928 N   0  0  0  0  0  0  0  0  0  0  0  0
   20.3412   -3.5209  -16.6165 C   0  0  0  0  0  0  0  0  0  0  0  0
   19.2826   -3.5835  -15.9423 O   0  0  0  0  0  0  0  0  0  0  0  0
   21.1190   -2.3804  -16.4608 O   0  0  0  0  0  0  0  0  0  0  0  0
  2  1  1  1
  2  3  1  0
  4  6  1  0
  4  2  1  0
  5  4  2  0
  7 11  1  0
  7  6  1  0
  7  8  1  1
  9 10  2  0
  9  8  1  0
 11 14  1  0
 12 11  2  0
 13  9  1  0
 14 15  1  0
 15 21  1  0
 15 16  1  6
 17 16  1  0
 18 19  1  0
 18 17  1  0
 20 19  1  0
 21 23  1  0
 22 21  2  0
M  END
$$$$
