ADK.pdb
     RDKit          3D

 23 22  0  0  1  0  0  0  0  0999 V2000
   18.6067  -14.1044  -19.1466 C   0  0  0  0  0  0  0  0  0  0  0  0
   19.5495  -13.7212  -18.0292 C   0  0  2  0  0  0  0  0  0  0  0  0
   19.3786  -14.6577  -16.9437 N   0  0  0  0  0  0  0  0  0  0  0  0
   19.2596  -12.3216  -17.5844 C   0  0  0  0  0  0  0  0  0  0  0  0
   19.4606  -11.3526  -18.3446 O   0  0  0  0  0  0  0  0  0  0  0  0
   18.7465  -12.0505  -16.2838 N   0  0  0  0  0  0  0  0  0  0  0  0
   18.4784  -10.7222  -15.7782 C   0  0  1  0  0  0  0  0  0  0  0  0
   17.5297  -10.6986  -14.6332 C   0  0  0  0  0  0  0  0  0  0  0  0
   16.2180  -11.2662  -15.0086 C   0  0  0  0  0  0  0  0  0  0  0  0
   15.4501  -10.7871  -15.8823 O   0  0  0  0  0  0  0  0  0  0  0  0
   19.7658  -10.0008  -15.4893 C   0  0  0  0  0  0  0  0  0  0  0  0
   20.8202  -10.6448  -15.3942 O   0  0  0  0  0  0  0  0  0  0  0  0
   15.7790  -12.4151  -14.3599 O   0  0  0  0  0  0  0  0  0  0  0  0
   19.7208   -8.5894  -15.3333 N   0  0  0  0  0  0  0  0  0  0  0  0
   20.9196   -7.7814  -15.4151 C   0  0  1  0  0  0  0  0  0  0  0  0
   21.6579   -8.0043  -16.7144 C   0  0  0  0  0  0  0  0  0  0  0  0
   22.8765   -7.1282  -16.8314 C   0  0  0  0  0  0  0  0  0  0  0  0
   23.5808   -7.3304  -18.1438 C   0  0  0  0  0  0  0  0  0  0  0  0
   24.8120   -6.4609  -18.2948 C   0  0  0  0  0  0  0  0  0  0  0  0
   25.5905   -6.8852  -19.4697 N   0  0  0  0  0  0  0  0  0  0  0  0
   20.6207   -6.3411  -15.1977 C   0  0  0  0  0  0  0  0  0  0  0  0
   19.5806   -5.8329  -15.6868 O   0  0  0  0  0  0  0  0  0  0  0  0
   21.4470   -5.4987  -14.4646 O   0  0  0  0  0  0  0  0  0  0  0  0
  2  1  1  6
  2  3  1  0
  4  6  1  0
  4  2  1  0
  5  4  2  0
  7 11  1  0
  7  6  1  0
  7  8  1  1
  9 10  2  0
  9  8  1  0
 11 14  1  0
 12 11  2  0
 13  9  1  0
 14 15  1  0
 15 21  1  0
 15 16  1  6
 17 16  1  0
 18 19  1  0
 18 17  1  0
 20 19  1  0
 21 23  1  0
 22 21  2  0
M  END
$$$$
