ADK.pdb
     RDKit          3D

 23 22  0  0  1  0  0  0  0  0999 V2000
   15.2088  -14.8971    8.0333 C   0  0  0  0  0  0  0  0  0  0  0  0
   16.4821  -14.4485    7.3537 C   0  0  2  0  0  0  0  0  0  0  0  0
   16.1705  -14.0816    5.9924 N   0  0  0  0  0  0  0  0  0  0  0  0
   17.4913  -15.5531    7.3967 C   0  0  0  0  0  0  0  0  0  0  0  0
   17.6386  -16.3251    6.4274 O   0  0  0  0  0  0  0  0  0  0  0  0
   18.3141  -15.7586    8.5408 N   0  0  0  0  0  0  0  0  0  0  0  0
   19.3438  -16.7706    8.6283 C   0  0  1  0  0  0  0  0  0  0  0  0
   20.5532  -16.3302    9.3733 C   0  0  0  0  0  0  0  0  0  0  0  0
   21.6424  -17.3232    9.2676 C   0  0  0  0  0  0  0  0  0  0  0  0
   22.6171  -17.4090   10.0582 O   0  0  0  0  0  0  0  0  0  0  0  0
   18.7701  -18.0595    9.1489 C   0  0  0  0  0  0  0  0  0  0  0  0
   18.1735  -18.0692   10.2350 O   0  0  0  0  0  0  0  0  0  0  0  0
   21.6083  -18.2407    8.2232 O   0  0  0  0  0  0  0  0  0  0  0  0
   18.9387  -19.2315    8.3640 N   0  0  0  0  0  0  0  0  0  0  0  0
   18.3694  -20.5001    8.7682 C   0  0  1  0  0  0  0  0  0  0  0  0
   17.5495  -21.1238    7.6628 C   0  0  0  0  0  0  0  0  0  0  0  0
   16.1331  -21.3974    8.0931 C   0  0  0  0  0  0  0  0  0  0  0  0
   15.3320  -22.0331    6.9914 C   0  0  0  0  0  0  0  0  0  0  0  0
   13.8792  -22.2464    7.3635 C   0  0  0  0  0  0  0  0  0  0  0  0
   13.1385  -22.7977    6.2173 N   0  0  0  0  0  0  0  0  0  0  0  0
   19.4161  -21.4329    9.2637 C   0  0  0  0  0  0  0  0  0  0  0  0
   20.5956  -21.3381    8.8406 O   0  0  0  0  0  0  0  0  0  0  0  0
   19.1603  -22.4325   10.1939 O   0  0  0  0  0  0  0  0  0  0  0  0
  2  1  1  6
  2  3  1  0
  4  6  1  0
  4  2  1  0
  5  4  2  0
  7 11  1  0
  7  6  1  0
  7  8  1  1
  9 10  2  0
  9  8  1  0
 11 14  1  0
 12 11  2  0
 13  9  1  0
 14 15  1  0
 15 21  1  0
 15 16  1  6
 17 16  1  0
 18 19  1  0
 18 17  1  0
 20 19  1  0
 21 23  1  0
 22 21  2  0
M  END
$$$$
