ADK.pdb
     RDKit          3D

 23 22  0  0  1  0  0  0  0  0999 V2000
   19.3638  -12.3923  -17.4441 C   0  0  0  0  0  0  0  0  0  0  0  0
   19.5162  -11.0929  -18.2008 C   0  0  2  0  0  0  0  0  0  0  0  0
   20.8408  -11.0486  -18.7737 N   0  0  0  0  0  0  0  0  0  0  0  0
   19.2918   -9.9407  -17.2721 C   0  0  0  0  0  0  0  0  0  0  0  0
   18.1903   -9.7760  -16.7092 O   0  0  0  0  0  0  0  0  0  0  0  0
   20.3241   -8.9979  -17.0007 N   0  0  0  0  0  0  0  0  0  0  0  0
   20.1871   -7.8857  -16.0863 C   0  0  1  0  0  0  0  0  0  0  0  0
   21.4352   -7.5645  -15.3443 C   0  0  0  0  0  0  0  0  0  0  0  0
   21.7651   -8.6189  -14.3630 C   0  0  0  0  0  0  0  0  0  0  0  0
   22.7030   -9.4483  -14.4860 O   0  0  0  0  0  0  0  0  0  0  0  0
   19.6005   -6.6946  -16.7925 C   0  0  0  0  0  0  0  0  0  0  0  0
   19.9982   -6.3998  -17.9285 O   0  0  0  0  0  0  0  0  0  0  0  0
   20.9940   -8.7212  -13.2104 O   0  0  0  0  0  0  0  0  0  0  0  0
   18.6005   -5.9435  -16.1187 N   0  0  0  0  0  0  0  0  0  0  0  0
   18.0183   -4.7576  -16.7114 C   0  0  1  0  0  0  0  0  0  0  0  0
   16.5083   -4.8103  -16.7022 C   0  0  0  0  0  0  0  0  0  0  0  0
   15.8962   -3.6503  -17.4411 C   0  0  0  0  0  0  0  0  0  0  0  0
   14.3944   -3.6927  -17.3930 C   0  0  0  0  0  0  0  0  0  0  0  0
   13.7452   -2.5747  -18.1826 C   0  0  0  0  0  0  0  0  0  0  0  0
   12.2803   -2.6569  -18.0661 N   0  0  0  0  0  0  0  0  0  0  0  0
   18.5248   -3.5198  -16.0614 C   0  0  0  0  0  0  0  0  0  0  0  0
   18.7238   -3.4960  -14.8208 O   0  0  0  0  0  0  0  0  0  0  0  0
   18.7995   -2.3535  -16.7645 O   0  0  0  0  0  0  0  0  0  0  0  0
  2  1  1  1
  2  3  1  0
  4  6  1  0
  4  2  1  0
  5  4  2  0
  7 11  1  0
  7  6  1  0
  7  8  1  6
  9 10  2  0
  9  8  1  0
 11 14  1  0
 12 11  2  0
 13  9  1  0
 14 15  1  0
 15 21  1  0
 15 16  1  1
 17 16  1  0
 18 19  1  0
 18 17  1  0
 20 19  1  0
 21 23  1  0
 22 21  2  0
M  END
$$$$
