ADK.pdb
     RDKit          3D

 23 22  0  0  1  0  0  0  0  0999 V2000
   18.7410  -12.8083  -18.5928 C   0  0  0  0  0  0  0  0  0  0  0  0
   20.0811  -12.2842  -18.1306 C   0  0  2  0  0  0  0  0  0  0  0  0
   20.9122  -13.4076  -17.7673 N   0  0  0  0  0  0  0  0  0  0  0  0
   19.8864  -11.3599  -16.9694 C   0  0  0  0  0  0  0  0  0  0  0  0
   19.1357  -11.6699  -16.0220 O   0  0  0  0  0  0  0  0  0  0  0  0
   20.5493  -10.1010  -16.9073 N   0  0  0  0  0  0  0  0  0  0  0  0
   20.3558   -9.1335  -15.8497 C   0  0  1  0  0  0  0  0  0  0  0  0
   21.6220   -8.5412  -15.3422 C   0  0  0  0  0  0  0  0  0  0  0  0
   21.3754   -7.6466  -14.1922 C   0  0  0  0  0  0  0  0  0  0  0  0
   20.6465   -7.9268  -13.2060 O   0  0  0  0  0  0  0  0  0  0  0  0
   19.3473   -8.0977  -16.2638 C   0  0  0  0  0  0  0  0  0  0  0  0
   19.4856   -7.5066  -17.3441 O   0  0  0  0  0  0  0  0  0  0  0  0
   21.9835   -6.3961  -14.1785 O   0  0  0  0  0  0  0  0  0  0  0  0
   18.2615   -7.8336  -15.3866 N   0  0  0  0  0  0  0  0  0  0  0  0
   17.1982   -6.9218  -15.7534 C   0  0  1  0  0  0  0  0  0  0  0  0
   15.8932   -7.2846  -15.0839 C   0  0  0  0  0  0  0  0  0  0  0  0
   14.7770   -6.3536  -15.4758 C   0  0  0  0  0  0  0  0  0  0  0  0
   13.4921   -6.7043  -14.7789 C   0  0  0  0  0  0  0  0  0  0  0  0
   12.3460   -5.7878  -15.1546 C   0  0  0  0  0  0  0  0  0  0  0  0
   11.1087   -6.2248  -14.4879 N   0  0  0  0  0  0  0  0  0  0  0  0
   17.5756   -5.5091  -15.4831 C   0  0  0  0  0  0  0  0  0  0  0  0
   18.1813   -5.2107  -14.4233 O   0  0  0  0  0  0  0  0  0  0  0  0
   17.2900   -4.4685  -16.3582 O   0  0  0  0  0  0  0  0  0  0  0  0
  2  1  1  1
  2  3  1  0
  4  6  1  0
  4  2  1  0
  5  4  2  0
  7 11  1  0
  7  6  1  0
  7  8  1  6
  9 10  2  0
  9  8  1  0
 11 14  1  0
 12 11  2  0
 13  9  1  0
 14 15  1  0
 15 21  1  0
 15 16  1  1
 17 16  1  0
 18 19  1  0
 18 17  1  0
 20 19  1  0
 21 23  1  0
 22 21  2  0
M  END
$$$$
