ADK.pdb
     RDKit          3D

 23 22  0  0  1  0  0  0  0  0999 V2000
   17.3879  -12.3515  -15.8452 C   0  0  0  0  0  0  0  0  0  0  0  0
   16.4236  -11.8227  -14.8084 C   0  0  2  0  0  0  0  0  0  0  0  0
   15.2294  -11.3697  -15.4817 N   0  0  0  0  0  0  0  0  0  0  0  0
   17.0677  -10.7080  -14.0448 C   0  0  0  0  0  0  0  0  0  0  0  0
   17.9847  -10.9353  -13.2296 O   0  0  0  0  0  0  0  0  0  0  0  0
   16.6570   -9.3560  -14.2228 N   0  0  0  0  0  0  0  0  0  0  0  0
   17.3128   -8.2216  -13.6102 C   0  0  1  0  0  0  0  0  0  0  0  0
   17.9274   -7.2860  -14.5892 C   0  0  0  0  0  0  0  0  0  0  0  0
   18.5318   -6.1193  -13.9130 C   0  0  0  0  0  0  0  0  0  0  0  0
   17.9604   -5.4191  -13.0380 O   0  0  0  0  0  0  0  0  0  0  0  0
   16.3843   -7.5364  -12.6459 C   0  0  0  0  0  0  0  0  0  0  0  0
   15.3627   -6.9788  -13.0714 O   0  0  0  0  0  0  0  0  0  0  0  0
   19.8280   -5.7490  -14.2544 O   0  0  0  0  0  0  0  0  0  0  0  0
   16.7212   -7.5549  -11.2659 N   0  0  0  0  0  0  0  0  0  0  0  0
   15.9258   -6.8476  -10.2843 C   0  0  1  0  0  0  0  0  0  0  0  0
   15.4187   -7.7724   -9.2024 C   0  0  0  0  0  0  0  0  0  0  0  0
   13.9291   -7.6620   -9.0147 C   0  0  0  0  0  0  0  0  0  0  0  0
   13.4411   -8.5604   -7.9127 C   0  0  0  0  0  0  0  0  0  0  0  0
   11.9316   -8.5760   -7.7867 C   0  0  0  0  0  0  0  0  0  0  0  0
   11.5172   -9.5737   -6.7870 N   0  0  0  0  0  0  0  0  0  0  0  0
   16.6685   -5.6937   -9.7115 C   0  0  0  0  0  0  0  0  0  0  0  0
   17.8903   -5.5429   -9.9642 O   0  0  0  0  0  0  0  0  0  0  0  0
   16.0749   -4.7442   -8.8893 O   0  0  0  0  0  0  0  0  0  0  0  0
  2  1  1  6
  2  3  1  0
  4  6  1  0
  4  2  1  0
  5  4  2  0
  7 11  1  0
  7  6  1  0
  7  8  1  6
  9 10  2  0
  9  8  1  0
 11 14  1  0
 12 11  2  0
 13  9  1  0
 14 15  1  0
 15 21  1  0
 15 16  1  1
 17 16  1  0
 18 19  1  0
 18 17  1  0
 20 19  1  0
 21 23  1  0
 22 21  2  0
M  END
$$$$
