ADK.pdb
     RDKit          3D

 23 22  0  0  1  0  0  0  0  0999 V2000
   23.5934  -13.0860  -19.4931 C   0  0  0  0  0  0  0  0  0  0  0  0
   22.6981  -11.8883  -19.7129 C   0  0  2  0  0  0  0  0  0  0  0  0
   22.9175  -11.3912  -21.0506 N   0  0  0  0  0  0  0  0  0  0  0  0
   23.0031  -10.8381  -18.6909 C   0  0  0  0  0  0  0  0  0  0  0  0
   22.8669  -11.0705  -17.4724 O   0  0  0  0  0  0  0  0  0  0  0  0
   23.4573   -9.5437  -19.0736 N   0  0  0  0  0  0  0  0  0  0  0  0
   23.6125   -8.4349  -18.1580 C   0  0  1  0  0  0  0  0  0  0  0  0
   24.7072   -7.5000  -18.5313 C   0  0  0  0  0  0  0  0  0  0  0  0
   26.0297   -8.1518  -18.4316 C   0  0  0  0  0  0  0  0  0  0  0  0
   26.8166   -8.3341  -19.3961 O   0  0  0  0  0  0  0  0  0  0  0  0
   22.2952   -7.7416  -17.9450 C   0  0  0  0  0  0  0  0  0  0  0  0
   21.7358   -7.1838  -18.8997 O   0  0  0  0  0  0  0  0  0  0  0  0
   26.4565   -8.6062  -17.1886 O   0  0  0  0  0  0  0  0  0  0  0  0
   21.7373   -7.7531  -16.6385 N   0  0  0  0  0  0  0  0  0  0  0  0
   20.4981   -7.0660  -16.3399 C   0  0  1  0  0  0  0  0  0  0  0  0
   19.3863   -8.0343  -16.0094 C   0  0  0  0  0  0  0  0  0  0  0  0
   18.0844   -7.6449  -16.6572 C   0  0  0  0  0  0  0  0  0  0  0  0
   16.9616   -8.5497  -16.2328 C   0  0  0  0  0  0  0  0  0  0  0  0
   15.6161   -8.1199  -16.7804 C   0  0  0  0  0  0  0  0  0  0  0  0
   14.5967   -9.1366  -16.4745 N   0  0  0  0  0  0  0  0  0  0  0  0
   20.6813   -6.0575  -15.2626 C   0  0  0  0  0  0  0  0  0  0  0  0
   19.8188   -5.1608  -15.0860 O   0  0  0  0  0  0  0  0  0  0  0  0
   21.7816   -6.0471  -14.4145 O   0  0  0  0  0  0  0  0  0  0  0  0
  2  1  1  1
  2  3  1  0
  4  6  1  0
  4  2  1  0
  5  4  2  0
  7 11  1  0
  7  6  1  0
  7  8  1  6
  9 10  2  0
  9  8  1  0
 11 14  1  0
 12 11  2  0
 13  9  1  0
 14 15  1  0
 15 21  1  0
 15 16  1  1
 17 16  1  0
 18 19  1  0
 18 17  1  0
 20 19  1  0
 21 23  1  0
 22 21  2  0
M  END
$$$$
