ADK.pdb
     RDKit          3D

 23 22  0  0  1  0  0  0  0  0999 V2000
   20.0743  -13.4150  -16.9081 C   0  0  0  0  0  0  0  0  0  0  0  0
   19.5202  -12.1982  -17.6126 C   0  0  2  0  0  0  0  0  0  0  0  0
   20.3794  -11.8840  -18.7296 N   0  0  0  0  0  0  0  0  0  0  0  0
   19.4438  -11.0524  -16.6524 C   0  0  0  0  0  0  0  0  0  0  0  0
   18.6996  -11.1027  -15.6520 O   0  0  0  0  0  0  0  0  0  0  0  0
   20.2153   -9.8713  -16.8478 N   0  0  0  0  0  0  0  0  0  0  0  0
   20.2174   -8.7445  -15.9410 C   0  0  1  0  0  0  0  0  0  0  0  0
   21.5670   -8.1624  -15.7139 C   0  0  0  0  0  0  0  0  0  0  0  0
   22.4286   -9.0840  -14.9446 C   0  0  0  0  0  0  0  0  0  0  0  0
   22.1891   -9.4873  -13.7773 O   0  0  0  0  0  0  0  0  0  0  0  0
   19.2018   -7.7225  -16.3714 C   0  0  0  0  0  0  0  0  0  0  0  0
   19.2425   -7.2665  -17.5229 O   0  0  0  0  0  0  0  0  0  0  0  0
   23.5973   -9.5525  -15.5350 O   0  0  0  0  0  0  0  0  0  0  0  0
   18.2229   -7.3137  -15.4264 N   0  0  0  0  0  0  0  0  0  0  0  0
   17.1782   -6.3749  -15.7784 C   0  0  1  0  0  0  0  0  0  0  0  0
   15.8718   -6.7089  -15.0967 C   0  0  0  0  0  0  0  0  0  0  0  0
   14.7463   -5.8254  -15.5647 C   0  0  0  0  0  0  0  0  0  0  0  0
   13.4481   -6.1799  -14.8949 C   0  0  0  0  0  0  0  0  0  0  0  0
   12.2567   -5.4642  -15.4974 C   0  0  0  0  0  0  0  0  0  0  0  0
   11.0415   -5.7630  -14.7226 N   0  0  0  0  0  0  0  0  0  0  0  0
   17.5925   -4.9729  -15.5065 C   0  0  0  0  0  0  0  0  0  0  0  0
   17.3065   -4.0618  -16.3234 O   0  0  0  0  0  0  0  0  0  0  0  0
   18.2979   -4.5990  -14.3695 O   0  0  0  0  0  0  0  0  0  0  0  0
  2  1  1  1
  2  3  1  0
  4  6  1  0
  4  2  1  0
  5  4  2  0
  7 11  1  0
  7  6  1  0
  7  8  1  6
  9 10  2  0
  9  8  1  0
 11 14  1  0
 12 11  2  0
 13  9  1  0
 14 15  1  0
 15 21  1  0
 15 16  1  1
 17 16  1  0
 18 19  1  0
 18 17  1  0
 20 19  1  0
 21 23  1  0
 22 21  2  0
M  END
$$$$
