ADK.pdb
     RDKit          3D

 23 22  0  0  1  0  0  0  0  0999 V2000
   23.4724  -10.3170  -15.1721 C   0  0  0  0  0  0  0  0  0  0  0  0
   22.4539   -9.6557  -16.0719 C   0  0  2  0  0  0  0  0  0  0  0  0
   23.1550   -8.8522  -17.0453 N   0  0  0  0  0  0  0  0  0  0  0  0
   21.5251   -8.8179  -15.2497 C   0  0  0  0  0  0  0  0  0  0  0  0
   20.8391   -9.3260  -14.3395 O   0  0  0  0  0  0  0  0  0  0  0  0
   21.3944   -7.4182  -15.4777 N   0  0  0  0  0  0  0  0  0  0  0  0
   20.4516   -6.5680  -14.7847 C   0  0  1  0  0  0  0  0  0  0  0  0
   20.9823   -5.2132  -14.4771 C   0  0  0  0  0  0  0  0  0  0  0  0
   22.0484   -5.2714  -13.4554 C   0  0  0  0  0  0  0  0  0  0  0  0
   23.1926   -4.7636  -13.5798 O   0  0  0  0  0  0  0  0  0  0  0  0
   19.1394   -6.5322  -15.5182 C   0  0  0  0  0  0  0  0  0  0  0  0
   19.1214   -6.2610  -16.7272 O   0  0  0  0  0  0  0  0  0  0  0  0
   21.7899   -5.9325  -12.2597 O   0  0  0  0  0  0  0  0  0  0  0  0
   17.9556   -6.8135  -14.7848 N   0  0  0  0  0  0  0  0  0  0  0  0
   16.6644   -6.8926  -15.4353 C   0  0  1  0  0  0  0  0  0  0  0  0
   15.9941   -8.2242  -15.1896 C   0  0  0  0  0  0  0  0  0  0  0  0
   14.6897   -8.3474  -15.9311 C   0  0  0  0  0  0  0  0  0  0  0  0
   13.9819   -9.6310  -15.5981 C   0  0  0  0  0  0  0  0  0  0  0  0
   12.7313   -9.8488  -16.4247 C   0  0  0  0  0  0  0  0  0  0  0  0
   12.1038  -11.1308  -16.0656 N   0  0  0  0  0  0  0  0  0  0  0  0
   15.7864   -5.7590  -15.0413 C   0  0  0  0  0  0  0  0  0  0  0  0
   15.8783   -5.2614  -13.8910 O   0  0  0  0  0  0  0  0  0  0  0  0
   14.8426   -5.2006  -15.8941 O   0  0  0  0  0  0  0  0  0  0  0  0
  2  1  1  1
  2  3  1  0
  4  6  1  0
  4  2  1  0
  5  4  2  0
  7 11  1  0
  7  6  1  0
  7  8  1  6
  9 10  2  0
  9  8  1  0
 11 14  1  0
 12 11  2  0
 13  9  1  0
 14 15  1  0
 15 21  1  0
 15 16  1  1
 17 16  1  0
 18 19  1  0
 18 17  1  0
 20 19  1  0
 21 23  1  0
 22 21  2  0
M  END
$$$$
