ADK.pdb
     RDKit          3D

 23 22  0  0  1  0  0  0  0  0999 V2000
   19.0257  -12.3570  -16.2589 C   0  0  0  0  0  0  0  0  0  0  0  0
   18.6782  -11.1702  -17.1278 C   0  0  2  0  0  0  0  0  0  0  0  0
   19.5992  -11.1303  -18.2392 N   0  0  0  0  0  0  0  0  0  0  0  0
   18.7561   -9.9139  -16.3179 C   0  0  0  0  0  0  0  0  0  0  0  0
   18.0165   -9.7427  -15.3274 O   0  0  0  0  0  0  0  0  0  0  0  0
   19.6735   -8.8763  -16.6492 N   0  0  0  0  0  0  0  0  0  0  0  0
   19.8416   -7.6649  -15.8770 C   0  0  1  0  0  0  0  0  0  0  0  0
   21.2064   -7.5024  -15.3091 C   0  0  0  0  0  0  0  0  0  0  0  0
   21.3825   -8.3166  -14.0886 C   0  0  0  0  0  0  0  0  0  0  0  0
   20.8252   -8.0876  -12.9843 O   0  0  0  0  0  0  0  0  0  0  0  0
   19.3892   -6.4699  -16.6699 C   0  0  0  0  0  0  0  0  0  0  0  0
   19.7513   -6.3447  -17.8484 O   0  0  0  0  0  0  0  0  0  0  0  0
   22.2233   -9.4229  -14.1413 O   0  0  0  0  0  0  0  0  0  0  0  0
   18.5539   -5.5179  -16.0264 N   0  0  0  0  0  0  0  0  0  0  0  0
   18.0229   -4.3745  -16.7388 C   0  0  1  0  0  0  0  0  0  0  0  0
   16.7729   -3.8365  -16.0823 C   0  0  0  0  0  0  0  0  0  0  0  0
   15.5960   -4.7574  -16.2642 C   0  0  0  0  0  0  0  0  0  0  0  0
   14.3745   -4.2425  -15.5554 C   0  0  0  0  0  0  0  0  0  0  0  0
   13.1619   -5.1303  -15.7453 C   0  0  0  0  0  0  0  0  0  0  0  0
   11.9747   -4.5015  -15.1439 N   0  0  0  0  0  0  0  0  0  0  0  0
   19.0507   -3.3131  -16.9070 C   0  0  0  0  0  0  0  0  0  0  0  0
   19.8809   -3.0893  -15.9905 O   0  0  0  0  0  0  0  0  0  0  0  0
   19.1510   -2.5309  -18.0507 O   0  0  0  0  0  0  0  0  0  0  0  0
  2  1  1  1
  2  3  1  0
  4  6  1  0
  4  2  1  0
  5  4  2  0
  7 11  1  0
  7  6  1  0
  7  8  1  6
  9 10  2  0
  9  8  1  0
 11 14  1  0
 12 11  2  0
 13  9  1  0
 14 15  1  0
 15 21  1  0
 15 16  1  1
 17 16  1  0
 18 19  1  0
 18 17  1  0
 20 19  1  0
 21 23  1  0
 22 21  2  0
M  END
$$$$
