ADK.pdb
     RDKit          3D

 23 22  0  0  1  0  0  0  0  0999 V2000
   18.0015  -13.8284  -16.5004 C   0  0  0  0  0  0  0  0  0  0  0  0
   18.9315  -12.7461  -16.9982 C   0  0  2  0  0  0  0  0  0  0  0  0
   20.2428  -13.3199  -17.1883 N   0  0  0  0  0  0  0  0  0  0  0  0
   18.9726  -11.6238  -16.0085 C   0  0  0  0  0  0  0  0  0  0  0  0
   18.4895  -11.7586  -14.8658 O   0  0  0  0  0  0  0  0  0  0  0  0
   19.5625  -10.3698  -16.3368 N   0  0  0  0  0  0  0  0  0  0  0  0
   19.6665   -9.2571  -15.4186 C   0  0  1  0  0  0  0  0  0  0  0  0
   21.0543   -8.7509  -15.2475 C   0  0  0  0  0  0  0  0  0  0  0  0
   21.0975   -7.5995  -14.3223 C   0  0  0  0  0  0  0  0  0  0  0  0
   20.9857   -6.3948  -14.6670 O   0  0  0  0  0  0  0  0  0  0  0  0
   18.6888   -8.1767  -15.7904 C   0  0  0  0  0  0  0  0  0  0  0  0
   18.6956   -7.7144  -16.9401 O   0  0  0  0  0  0  0  0  0  0  0  0
   21.2751   -7.8421  -12.9646 O   0  0  0  0  0  0  0  0  0  0  0  0
   17.7843   -7.7218  -14.7938 N   0  0  0  0  0  0  0  0  0  0  0  0
   16.8493   -6.6475  -15.0553 C   0  0  1  0  0  0  0  0  0  0  0  0
   15.6279   -6.7399  -14.1706 C   0  0  0  0  0  0  0  0  0  0  0  0
   14.3666   -6.9469  -14.9658 C   0  0  0  0  0  0  0  0  0  0  0  0
   13.3816   -7.8101  -14.2281 C   0  0  0  0  0  0  0  0  0  0  0  0
   12.0951   -8.0300  -14.9972 C   0  0  0  0  0  0  0  0  0  0  0  0
   11.1924   -8.9068  -14.2338 N   0  0  0  0  0  0  0  0  0  0  0  0
   17.5043   -5.3171  -14.9437 C   0  0  0  0  0  0  0  0  0  0  0  0
   17.3725   -4.4711  -15.8635 O   0  0  0  0  0  0  0  0  0  0  0  0
   18.2759   -4.9426  -13.8509 O   0  0  0  0  0  0  0  0  0  0  0  0
  2  1  1  1
  2  3  1  0
  4  6  1  0
  4  2  1  0
  5  4  2  0
  7 11  1  0
  7  6  1  0
  7  8  1  6
  9 10  2  0
  9  8  1  0
 11 14  1  0
 12 11  2  0
 13  9  1  0
 14 15  1  0
 15 21  1  0
 15 16  1  1
 17 16  1  0
 18 19  1  0
 18 17  1  0
 20 19  1  0
 21 23  1  0
 22 21  2  0
M  END
$$$$
