ADK.pdb
     RDKit          3D

 23 22  0  0  1  0  0  0  0  0999 V2000
   14.1711  -12.5226  -14.8088 C   0  0  0  0  0  0  0  0  0  0  0  0
   15.5109  -12.0656  -15.3383 C   0  0  2  0  0  0  0  0  0  0  0  0
   16.2580  -13.2271  -15.7593 N   0  0  0  0  0  0  0  0  0  0  0  0
   16.2425  -11.3115  -14.2721 C   0  0  0  0  0  0  0  0  0  0  0  0
   16.3045  -11.7490  -13.1051 O   0  0  0  0  0  0  0  0  0  0  0  0
   16.8899  -10.0746  -14.5532 N   0  0  0  0  0  0  0  0  0  0  0  0
   17.5697   -9.2709  -13.5612 C   0  0  1  0  0  0  0  0  0  0  0  0
   18.6531   -8.4199  -14.1213 C   0  0  0  0  0  0  0  0  0  0  0  0
   19.3033   -7.6129  -13.0679 C   0  0  0  0  0  0  0  0  0  0  0  0
   18.9106   -6.4815  -12.6829 O   0  0  0  0  0  0  0  0  0  0  0  0
   16.5750   -8.4933  -12.7442 C   0  0  0  0  0  0  0  0  0  0  0  0
   15.7186   -7.8043  -13.3164 O   0  0  0  0  0  0  0  0  0  0  0  0
   20.4360   -8.1222  -12.4422 O   0  0  0  0  0  0  0  0  0  0  0  0
   16.6591   -8.5801  -11.3287 N   0  0  0  0  0  0  0  0  0  0  0  0
   15.7608   -7.8355  -10.4712 C   0  0  1  0  0  0  0  0  0  0  0  0
   14.6387   -8.7019   -9.9485 C   0  0  0  0  0  0  0  0  0  0  0  0
   13.6575   -7.9183   -9.1181 C   0  0  0  0  0  0  0  0  0  0  0  0
   12.5454   -8.7897   -8.6049 C   0  0  0  0  0  0  0  0  0  0  0  0
   11.5677   -8.0425   -7.7215 C   0  0  0  0  0  0  0  0  0  0  0  0
   10.6016   -8.9812   -7.1284 N   0  0  0  0  0  0  0  0  0  0  0  0
   16.4948   -7.1670   -9.3643 C   0  0  0  0  0  0  0  0  0  0  0  0
   17.6621   -7.5300   -9.0730 O   0  0  0  0  0  0  0  0  0  0  0  0
   15.9512   -6.1344   -8.6105 O   0  0  0  0  0  0  0  0  0  0  0  0
  2  1  1  1
  2  3  1  0
  4  6  1  0
  4  2  1  0
  5  4  2  0
  7 11  1  0
  7  6  1  0
  7  8  1  6
  9 10  2  0
  9  8  1  0
 11 14  1  0
 12 11  2  0
 13  9  1  0
 14 15  1  0
 15 21  1  0
 15 16  1  1
 17 16  1  0
 18 19  1  0
 18 17  1  0
 20 19  1  0
 21 23  1  0
 22 21  2  0
M  END
$$$$
