ADK.pdb
     RDKit          3D

 23 22  0  0  1  0  0  0  0  0999 V2000
   19.4013  -10.8129  -15.2903 C   0  0  0  0  0  0  0  0  0  0  0  0
   18.4533   -9.6516  -15.0984 C   0  0  2  0  0  0  0  0  0  0  0  0
   18.7069   -8.6769  -16.1330 N   0  0  0  0  0  0  0  0  0  0  0  0
   18.6530   -9.0586  -13.7386 C   0  0  0  0  0  0  0  0  0  0  0  0
   18.5177   -9.7526  -12.7103 O   0  0  0  0  0  0  0  0  0  0  0  0
   19.0031   -7.6881  -13.5738 N   0  0  0  0  0  0  0  0  0  0  0  0
   19.1282   -7.0313  -12.2912 C   0  0  1  0  0  0  0  0  0  0  0  0
   20.0654   -5.8766  -12.2996 C   0  0  0  0  0  0  0  0  0  0  0  0
   21.4413   -6.3020  -12.6305 C   0  0  0  0  0  0  0  0  0  0  0  0
   21.9936   -7.3481  -12.2025 O   0  0  0  0  0  0  0  0  0  0  0  0
   17.7710   -6.6823  -11.7456 C   0  0  0  0  0  0  0  0  0  0  0  0
   16.9379   -6.1347  -12.4817 O   0  0  0  0  0  0  0  0  0  0  0  0
   22.2012   -5.5009  -13.4758 O   0  0  0  0  0  0  0  0  0  0  0  0
   17.4948   -6.9977  -10.3883 N   0  0  0  0  0  0  0  0  0  0  0  0
   16.2216   -6.6716   -9.7806 C   0  0  1  0  0  0  0  0  0  0  0  0
   15.5121   -7.9043   -9.2707 C   0  0  0  0  0  0  0  0  0  0  0  0
   14.1143   -7.6004   -8.8016 C   0  0  0  0  0  0  0  0  0  0  0  0
   13.3891   -8.8465   -8.3762 C   0  0  0  0  0  0  0  0  0  0  0  0
   11.9233   -8.6059   -8.0792 C   0  0  0  0  0  0  0  0  0  0  0  0
   11.2974   -9.8424   -7.5836 N   0  0  0  0  0  0  0  0  0  0  0  0
   16.3749   -5.6492   -8.7118 C   0  0  0  0  0  0  0  0  0  0  0  0
   17.3947   -5.6537   -7.9775 O   0  0  0  0  0  0  0  0  0  0  0  0
   15.4301   -4.6601   -8.4692 O   0  0  0  0  0  0  0  0  0  0  0  0
  2  1  1  6
  2  3  1  0
  4  6  1  0
  4  2  1  0
  5  4  2  0
  7 11  1  0
  7  6  1  0
  7  8  1  6
  9 10  2  0
  9  8  1  0
 11 14  1  0
 12 11  2  0
 13  9  1  0
 14 15  1  0
 15 21  1  0
 15 16  1  1
 17 16  1  0
 18 19  1  0
 18 17  1  0
 20 19  1  0
 21 23  1  0
 22 21  2  0
M  END
$$$$
