KLR.pdb
     RDKit          3D

 29 28  0  0  1  0  0  0  0  0999 V2000
   27.8464  -22.4263  -16.5163 N   0  0  0  0  0  0  0  0  0  0  0  0
   27.5397  -21.2482  -15.7588 C   0  0  1  0  0  0  0  0  0  0  0  0
   26.9310  -20.1587  -16.6529 C   0  0  0  0  0  0  0  0  0  0  0  0
   27.8605  -19.8753  -17.7926 C   0  0  0  0  0  0  0  0  0  0  0  0
   27.4375  -18.7908  -18.7140 C   0  0  0  0  0  0  0  0  0  0  0  0
   28.3533  -18.4929  -19.8541 C   0  0  0  0  0  0  0  0  0  0  0  0
   29.3261  -17.4742  -19.6154 N   0  0  0  0  0  0  0  0  0  0  0  0
   26.6138  -21.5291  -14.6530 C   0  0  0  0  0  0  0  0  0  0  0  0
   25.6350  -22.3010  -14.8179 O   0  0  0  0  0  0  0  0  0  0  0  0
   24.5782  -19.5024   -9.6119 C   0  0  0  0  0  0  0  0  0  0  0  0
   25.2473  -20.8704   -9.8434 C   0  0  2  0  0  0  0  0  0  0  0  0
   25.8685  -21.2751   -8.5426 C   0  0  0  0  0  0  0  0  0  0  0  0
   26.2095  -20.6587  -10.9685 C   0  0  0  0  0  0  0  0  0  0  0  0
   25.7658  -21.0988  -12.3122 C   0  0  2  0  0  0  0  0  0  0  0  0
   26.7653  -20.9539  -13.3478 N   0  0  0  0  0  0  0  0  0  0  0  0
   24.4987  -20.4064  -12.6973 C   0  0  0  0  0  0  0  0  0  0  0  0
   24.4889  -19.1807  -12.9342 O   0  0  0  0  0  0  0  0  0  0  0  0
   19.4728  -20.1198  -19.5224 N   0  0  0  0  0  0  0  0  0  0  0  0
   18.8421  -19.3337  -18.4974 C   0  0  0  0  0  0  0  0  0  0  0  0
   17.8550  -18.5766  -18.8097 N   0  0  0  0  0  0  0  0  0  0  0  0
   19.2825  -19.3733  -17.1597 N   0  0  0  0  0  0  0  0  0  0  0  0
   20.3812  -20.1524  -16.6928 C   0  0  0  0  0  0  0  0  0  0  0  0
   20.6251  -20.0708  -15.2180 C   0  0  0  0  0  0  0  0  0  0  0  0
   21.9270  -20.7613  -14.8201 C   0  0  0  0  0  0  0  0  0  0  0  0
   22.0727  -20.5988  -13.3334 C   0  0  2  0  0  0  0  0  0  0  0  0
   23.2895  -21.1125  -12.8033 N   0  0  0  0  0  0  0  0  0  0  0  0
   20.9388  -21.2568  -12.6461 C   0  0  0  0  0  0  0  0  0  0  0  0
   21.0386  -22.5848  -12.2698 O   0  0  0  0  0  0  0  0  0  0  0  0
   19.8565  -20.6666  -12.3739 O   0  0  0  0  0  0  0  0  0  0  0  0
  2  8  1  0
  2  1  1  6
  3  2  1  0
  4  5  1  0
  4  3  1  0
  5  6  1  0
  7  6  1  0
  8  9  2  0
 11 13  1  0
 11 10  1  1
 12 11  1  0
 14 13  1  1
 15 14  1  0
 15  8  1  0
 16 14  1  0
 16 17  2  0
 19 18  1  0
 20 19  2  0
 21 19  1  0
 22 21  1  0
 23 22  1  0
 23 24  1  0
 25 24  1  6
 25 26  1  0
 25 27  1  0
 26 16  1  0
 27 28  1  0
 29 27  2  0
M  END
$$$$
