KLR.pdb
     RDKit          3D

 29 28  0  0  1  0  0  0  0  0999 V2000
   28.5386  -21.6378  -14.0250 N   0  0  0  0  0  0  0  0  0  0  0  0
   28.6920  -20.6174  -13.0295 C   0  0  1  0  0  0  0  0  0  0  0  0
   28.2009  -19.2590  -13.5496 C   0  0  0  0  0  0  0  0  0  0  0  0
   27.9720  -19.3465  -15.0271 C   0  0  0  0  0  0  0  0  0  0  0  0
   26.6734  -19.9331  -15.4439 C   0  0  0  0  0  0  0  0  0  0  0  0
   26.3022  -19.7720  -16.8803 C   0  0  0  0  0  0  0  0  0  0  0  0
   25.0236  -20.2912  -17.2501 N   0  0  0  0  0  0  0  0  0  0  0  0
   27.9710  -20.9423  -11.7912 C   0  0  0  0  0  0  0  0  0  0  0  0
   26.9606  -21.6903  -11.8160 O   0  0  0  0  0  0  0  0  0  0  0  0
   27.8065  -18.8086   -5.9915 C   0  0  0  0  0  0  0  0  0  0  0  0
   27.1967  -19.8785   -6.9168 C   0  0  2  0  0  0  0  0  0  0  0  0
   27.1304  -21.1485   -6.1265 C   0  0  0  0  0  0  0  0  0  0  0  0
   28.0877  -19.9227   -8.1171 C   0  0  0  0  0  0  0  0  0  0  0  0
   27.5324  -20.5648   -9.3317 C   0  0  2  0  0  0  0  0  0  0  0  0
   28.3654  -20.4381  -10.5076 N   0  0  0  0  0  0  0  0  0  0  0  0
   26.1512  -20.0628   -9.6036 C   0  0  0  0  0  0  0  0  0  0  0  0
   25.9230  -18.8382   -9.6865 O   0  0  0  0  0  0  0  0  0  0  0  0
   19.8463  -23.1654  -13.8344 N   0  0  0  0  0  0  0  0  0  0  0  0
   19.9383  -21.8871  -14.4854 C   0  0  0  0  0  0  0  0  0  0  0  0
   18.8911  -21.3883  -15.0331 N   0  0  0  0  0  0  0  0  0  0  0  0
   21.1500  -21.1700  -14.5378 N   0  0  0  0  0  0  0  0  0  0  0  0
   22.3441  -21.5492  -13.8578 C   0  0  0  0  0  0  0  0  0  0  0  0
   22.4991  -20.9621  -12.4894 C   0  0  0  0  0  0  0  0  0  0  0  0
   23.8107  -21.3886  -11.8353 C   0  0  0  0  0  0  0  0  0  0  0  0
   23.8887  -20.6847  -10.5100 C   0  0  2  0  0  0  0  0  0  0  0  0
   25.0769  -20.9510   -9.7731 N   0  0  0  0  0  0  0  0  0  0  0  0
   22.7205  -21.0540   -9.6793 C   0  0  0  0  0  0  0  0  0  0  0  0
   22.9138  -21.6504   -8.4456 O   0  0  0  0  0  0  0  0  0  0  0  0
   21.5260  -20.8536  -10.0352 O   0  0  0  0  0  0  0  0  0  0  0  0
  2  8  1  0
  2  1  1  6
  3  2  1  0
  4  5  1  0
  4  3  1  0
  5  6  1  0
  7  6  1  0
  8  9  2  0
 11 13  1  0
 11 10  1  1
 12 11  1  0
 14 13  1  1
 15 14  1  0
 15  8  1  0
 16 14  1  0
 16 17  2  0
 19 18  1  0
 20 19  2  0
 21 19  1  0
 22 21  1  0
 23 22  1  0
 23 24  1  0
 25 24  1  6
 25 26  1  0
 25 27  1  0
 26 16  1  0
 27 28  1  0
 29 27  2  0
M  END
$$$$
