KLR.pdb
     RDKit          3D

 29 28  0  0  1  0  0  0  0  0999 V2000
   28.2122  -20.6734  -15.3172 N   0  0  0  0  0  0  0  0  0  0  0  0
   27.4074  -19.7696  -14.5484 C   0  0  1  0  0  0  0  0  0  0  0  0
   26.7629  -18.7032  -15.4453 C   0  0  0  0  0  0  0  0  0  0  0  0
   27.8145  -17.7426  -15.9085 C   0  0  0  0  0  0  0  0  0  0  0  0
   28.5625  -18.1449  -17.1263 C   0  0  0  0  0  0  0  0  0  0  0  0
   29.5244  -17.1449  -17.6756 C   0  0  0  0  0  0  0  0  0  0  0  0
   30.2750  -17.5703  -18.8144 N   0  0  0  0  0  0  0  0  0  0  0  0
   26.3505  -20.4686  -13.8047 C   0  0  0  0  0  0  0  0  0  0  0  0
   25.7563  -21.4544  -14.3108 O   0  0  0  0  0  0  0  0  0  0  0  0
   26.3308  -22.0407   -9.5563 C   0  0  0  0  0  0  0  0  0  0  0  0
   26.0254  -20.5313   -9.5915 C   0  0  2  0  0  0  0  0  0  0  0  0
   25.9645  -20.0679   -8.1690 C   0  0  0  0  0  0  0  0  0  0  0  0
   24.7479  -20.4004  -10.3578 C   0  0  0  0  0  0  0  0  0  0  0  0
   24.8140  -20.6847  -11.8106 C   0  0  2  0  0  0  0  0  0  0  0  0
   25.9404  -20.0790  -12.4866 N   0  0  0  0  0  0  0  0  0  0  0  0
   23.5304  -20.3070  -12.4763 C   0  0  0  0  0  0  0  0  0  0  0  0
   23.3046  -19.1226  -12.7997 O   0  0  0  0  0  0  0  0  0  0  0  0
   24.6582  -24.6868  -15.1468 N   0  0  0  0  0  0  0  0  0  0  0  0
   23.5916  -25.6313  -15.3382 C   0  0  0  0  0  0  0  0  0  0  0  0
   23.8031  -26.8713  -15.0876 N   0  0  0  0  0  0  0  0  0  0  0  0
   22.3212  -25.2287  -15.7953 N   0  0  0  0  0  0  0  0  0  0  0  0
   21.8953  -23.8732  -15.9103 C   0  0  0  0  0  0  0  0  0  0  0  0
   21.7576  -23.1472  -14.6084 C   0  0  0  0  0  0  0  0  0  0  0  0
   21.2672  -21.7154  -14.8074 C   0  0  0  0  0  0  0  0  0  0  0  0
   21.3373  -21.0380  -13.4680 C   0  0  2  0  0  0  0  0  0  0  0  0
   22.5473  -21.2701  -12.7554 N   0  0  0  0  0  0  0  0  0  0  0  0
   20.1991  -21.4740  -12.6280 C   0  0  0  0  0  0  0  0  0  0  0  0
   18.9064  -21.1421  -12.9939 O   0  0  0  0  0  0  0  0  0  0  0  0
   20.3371  -22.1484  -11.5698 O   0  0  0  0  0  0  0  0  0  0  0  0
  2  8  1  0
  2  1  1  6
  3  2  1  0
  4  5  1  0
  4  3  1  0
  5  6  1  0
  7  6  1  0
  8  9  2  0
 11 13  1  0
 11 10  1  1
 12 11  1  0
 14 13  1  1
 15 14  1  0
 15  8  1  0
 16 14  1  0
 16 17  2  0
 19 18  1  0
 20 19  2  0
 21 19  1  0
 22 21  1  0
 23 22  1  0
 23 24  1  0
 25 24  1  6
 25 26  1  0
 25 27  1  0
 26 16  1  0
 27 28  1  0
 29 27  2  0
M  END
$$$$
