KLR.pdb
     RDKit          3D

 29 28  0  0  1  0  0  0  0  0999 V2000
   25.5050  -19.3079  -17.9134 N   0  0  0  0  0  0  0  0  0  0  0  0
   24.8521  -18.9503  -16.6880 C   0  0  1  0  0  0  0  0  0  0  0  0
   23.3964  -18.5318  -16.9387 C   0  0  0  0  0  0  0  0  0  0  0  0
   23.3438  -17.5912  -18.1030 C   0  0  0  0  0  0  0  0  0  0  0  0
   21.9899  -17.1209  -18.4902 C   0  0  0  0  0  0  0  0  0  0  0  0
   21.9079  -16.2629  -19.7085 C   0  0  0  0  0  0  0  0  0  0  0  0
   20.5879  -15.9351  -20.1458 N   0  0  0  0  0  0  0  0  0  0  0  0
   24.8706  -20.0488  -15.7124 C   0  0  0  0  0  0  0  0  0  0  0  0
   25.1384  -21.2226  -16.0749 O   0  0  0  0  0  0  0  0  0  0  0  0
   24.9714  -20.7911   -9.6040 C   0  0  0  0  0  0  0  0  0  0  0  0
   25.1589  -21.5393  -10.9373 C   0  0  2  0  0  0  0  0  0  0  0  0
   26.4555  -22.2817  -10.8394 C   0  0  0  0  0  0  0  0  0  0  0  0
   25.1086  -20.4852  -11.9970 C   0  0  0  0  0  0  0  0  0  0  0  0
   24.6893  -20.9236  -13.3490 C   0  0  2  0  0  0  0  0  0  0  0  0
   24.5907  -19.8550  -14.3190 N   0  0  0  0  0  0  0  0  0  0  0  0
   23.4104  -21.6933  -13.2759 C   0  0  0  0  0  0  0  0  0  0  0  0
   23.3256  -22.7234  -12.5756 O   0  0  0  0  0  0  0  0  0  0  0  0
   16.9868  -24.0816   -9.9962 N   0  0  0  0  0  0  0  0  0  0  0  0
   16.8963  -24.5287  -11.3594 C   0  0  0  0  0  0  0  0  0  0  0  0
   15.8088  -25.0728  -11.7672 N   0  0  0  0  0  0  0  0  0  0  0  0
   17.9726  -24.3852  -12.2571 N   0  0  0  0  0  0  0  0  0  0  0  0
   19.1580  -23.6413  -11.9862 C   0  0  0  0  0  0  0  0  0  0  0  0
   19.0624  -22.1782  -12.2885 C   0  0  0  0  0  0  0  0  0  0  0  0
   20.4398  -21.5253  -12.3695 C   0  0  0  0  0  0  0  0  0  0  0  0
   20.9442  -21.7383  -13.7688 C   0  0  2  0  0  0  0  0  0  0  0  0
   22.2736  -21.2806  -13.9896 N   0  0  0  0  0  0  0  0  0  0  0  0
   20.0432  -21.0659  -14.7318 C   0  0  0  0  0  0  0  0  0  0  0  0
   19.1034  -21.8059  -15.4277 O   0  0  0  0  0  0  0  0  0  0  0  0
   20.0790  -19.8256  -14.9645 O   0  0  0  0  0  0  0  0  0  0  0  0
  2  8  1  0
  2  1  1  6
  3  2  1  0
  4  5  1  0
  4  3  1  0
  5  6  1  0
  7  6  1  0
  8  9  2  0
 11 13  1  0
 11 10  1  1
 12 11  1  0
 14 13  1  1
 15 14  1  0
 15  8  1  0
 16 14  1  0
 16 17  2  0
 19 18  1  0
 20 19  2  0
 21 19  1  0
 22 21  1  0
 23 22  1  0
 23 24  1  0
 25 24  1  1
 25 26  1  0
 25 27  1  0
 26 16  1  0
 27 28  1  0
 29 27  2  0
M  END
$$$$
