KLR.pdb
     RDKit          3D

 29 28  0  0  1  0  0  0  0  0999 V2000
   23.5554  -15.2223  -16.5118 N   0  0  0  0  0  0  0  0  0  0  0  0
   23.0461  -14.1368  -17.2979 C   0  0  1  0  0  0  0  0  0  0  0  0
   21.5563  -14.3332  -17.6126 C   0  0  0  0  0  0  0  0  0  0  0  0
   21.2094  -15.7846  -17.4858 C   0  0  0  0  0  0  0  0  0  0  0  0
   20.1270  -16.2684  -18.3795 C   0  0  0  0  0  0  0  0  0  0  0  0
   19.7603  -17.7099  -18.2586 C   0  0  0  0  0  0  0  0  0  0  0  0
   18.6453  -18.1320  -19.0458 N   0  0  0  0  0  0  0  0  0  0  0  0
   23.2249  -12.8406  -16.6296 C   0  0  0  0  0  0  0  0  0  0  0  0
   22.4604  -12.4917  -15.6942 O   0  0  0  0  0  0  0  0  0  0  0  0
   26.8703  -11.3837  -14.5870 C   0  0  0  0  0  0  0  0  0  0  0  0
   26.9592  -11.0994  -16.0983 C   0  0  2  0  0  0  0  0  0  0  0  0
   28.3382  -10.5786  -16.3612 C   0  0  0  0  0  0  0  0  0  0  0  0
   25.8508  -10.1386  -16.3894 C   0  0  0  0  0  0  0  0  0  0  0  0
   24.4706  -10.6688  -16.2903 C   0  0  2  0  0  0  0  0  0  0  0  0
   24.2579  -11.9146  -16.9940 N   0  0  0  0  0  0  0  0  0  0  0  0
   23.4816   -9.6372  -16.7274 C   0  0  0  0  0  0  0  0  0  0  0  0
   23.2224   -9.4752  -17.9379 O   0  0  0  0  0  0  0  0  0  0  0  0
   15.3528   -8.5340  -17.6604 N   0  0  0  0  0  0  0  0  0  0  0  0
   15.7829   -7.6645  -16.5996 C   0  0  0  0  0  0  0  0  0  0  0  0
   14.9054   -7.1559  -15.8144 N   0  0  0  0  0  0  0  0  0  0  0  0
   17.1435   -7.3563  -16.4025 N   0  0  0  0  0  0  0  0  0  0  0  0
   18.2029   -7.7947  -17.2495 C   0  0  0  0  0  0  0  0  0  0  0  0
   19.5633   -7.3131  -16.8516 C   0  0  0  0  0  0  0  0  0  0  0  0
   20.4714   -8.4656  -16.4304 C   0  0  0  0  0  0  0  0  0  0  0  0
   21.8086   -7.8691  -16.0930 C   0  0  2  0  0  0  0  0  0  0  0  0
   22.8190   -8.8254  -15.7926 N   0  0  0  0  0  0  0  0  0  0  0  0
   21.6683   -6.9477  -14.9430 C   0  0  0  0  0  0  0  0  0  0  0  0
   20.9764   -5.7587  -15.0938 O   0  0  0  0  0  0  0  0  0  0  0  0
   22.1532   -7.1848  -13.8018 O   0  0  0  0  0  0  0  0  0  0  0  0
  2  8  1  0
  2  1  1  1
  3  2  1  0
  4  5  1  0
  4  3  1  0
  5  6  1  0
  7  6  1  0
  8  9  2  0
 11 13  1  0
 11 10  1  1
 12 11  1  0
 14 13  1  6
 15 14  1  0
 15  8  1  0
 16 14  1  0
 16 17  2  0
 19 18  1  0
 20 19  2  0
 21 19  1  0
 22 21  1  0
 23 22  1  0
 23 24  1  0
 25 24  1  1
 25 26  1  0
 25 27  1  0
 26 16  1  0
 27 28  1  0
 29 27  2  0
M  END
$$$$
