KLR.pdb
     RDKit          3D

 29 28  0  0  1  0  0  0  0  0999 V2000
   29.4531  -22.3582  -17.0743 N   0  0  0  0  0  0  0  0  0  0  0  0
   29.3479  -21.1789  -16.2656 C   0  0  1  0  0  0  0  0  0  0  0  0
   28.5018  -20.1040  -16.9626 C   0  0  0  0  0  0  0  0  0  0  0  0
   29.2355  -19.5981  -18.1663 C   0  0  0  0  0  0  0  0  0  0  0  0
   30.3451  -18.6504  -17.8928 C   0  0  0  0  0  0  0  0  0  0  0  0
   30.9965  -18.0290  -19.0830 C   0  0  0  0  0  0  0  0  0  0  0  0
   32.0949  -17.1595  -18.8027 N   0  0  0  0  0  0  0  0  0  0  0  0
   28.7640  -21.4643  -14.9478 C   0  0  0  0  0  0  0  0  0  0  0  0
   27.7316  -22.1746  -14.8452 O   0  0  0  0  0  0  0  0  0  0  0  0
   30.5198  -23.0880  -10.8889 C   0  0  0  0  0  0  0  0  0  0  0  0
   30.8906  -21.6271  -11.2067 C   0  0  2  0  0  0  0  0  0  0  0  0
   31.8194  -21.1703  -10.1247 C   0  0  0  0  0  0  0  0  0  0  0  0
   29.5903  -20.8922  -11.2802 C   0  0  0  0  0  0  0  0  0  0  0  0
   28.7160  -21.2054  -12.4350 C   0  0  2  0  0  0  0  0  0  0  0  0
   29.3222  -20.9620  -13.7257 N   0  0  0  0  0  0  0  0  0  0  0  0
   27.4135  -20.4824  -12.3160 C   0  0  0  0  0  0  0  0  0  0  0  0
   27.3121  -19.2895  -12.6699 O   0  0  0  0  0  0  0  0  0  0  0  0
   19.6823  -22.4112  -11.1749 N   0  0  0  0  0  0  0  0  0  0  0  0
   19.4954  -21.8938  -12.5030 C   0  0  0  0  0  0  0  0  0  0  0  0
   18.3330  -21.4806  -12.8543 N   0  0  0  0  0  0  0  0  0  0  0  0
   20.5564  -21.8311  -13.4277 N   0  0  0  0  0  0  0  0  0  0  0  0
   21.9204  -22.1005  -13.1129 C   0  0  0  0  0  0  0  0  0  0  0  0
   22.6687  -20.9436  -12.5276 C   0  0  0  0  0  0  0  0  0  0  0  0
   24.1246  -20.9207  -12.9856 C   0  0  0  0  0  0  0  0  0  0  0  0
   24.9573  -20.5792  -11.7822 C   0  0  2  0  0  0  0  0  0  0  0  0
   26.2726  -21.1223  -11.8053 N   0  0  0  0  0  0  0  0  0  0  0  0
   24.2727  -21.0421  -10.5541 C   0  0  0  0  0  0  0  0  0  0  0  0
   24.8737  -21.9924   -9.7473 O   0  0  0  0  0  0  0  0  0  0  0  0
   23.1440  -20.6127  -10.1861 O   0  0  0  0  0  0  0  0  0  0  0  0
  2  8  1  0
  2  1  1  6
  3  2  1  0
  4  5  1  0
  4  3  1  0
  5  6  1  0
  7  6  1  0
  8  9  2  0
 11 13  1  0
 11 10  1  1
 12 11  1  0
 14 13  1  1
 15 14  1  0
 15  8  1  0
 16 14  1  0
 16 17  2  0
 19 18  1  0
 20 19  2  0
 21 19  1  0
 22 21  1  0
 23 22  1  0
 23 24  1  0
 25 24  1  6
 25 26  1  0
 25 27  1  0
 26 16  1  0
 27 28  1  0
 29 27  2  0
M  END
$$$$
