KLR.pdb
     RDKit          3D

 29 28  0  0  1  0  0  0  0  0999 V2000
   27.7238  -19.0947  -15.6369 N   0  0  0  0  0  0  0  0  0  0  0  0
   26.6323  -18.4960  -14.9255 C   0  0  1  0  0  0  0  0  0  0  0  0
   25.8479  -17.5314  -15.8263 C   0  0  0  0  0  0  0  0  0  0  0  0
   26.7144  -16.3600  -16.1725 C   0  0  0  0  0  0  0  0  0  0  0  0
   26.7880  -15.2883  -15.1476 C   0  0  0  0  0  0  0  0  0  0  0  0
   27.5909  -14.0820  -15.5043 C   0  0  0  0  0  0  0  0  0  0  0  0
   28.1118  -14.0575  -16.8344 N   0  0  0  0  0  0  0  0  0  0  0  0
   25.7076  -19.5022  -14.3859 C   0  0  0  0  0  0  0  0  0  0  0  0
   25.3871  -20.5085  -15.0683 O   0  0  0  0  0  0  0  0  0  0  0  0
   26.3632  -22.0579  -11.0327 C   0  0  0  0  0  0  0  0  0  0  0  0
   25.8102  -20.7047  -10.5474 C   0  0  2  0  0  0  0  0  0  0  0  0
   25.9314  -20.6967   -9.0550 C   0  0  0  0  0  0  0  0  0  0  0  0
   24.4114  -20.6340  -11.0717 C   0  0  0  0  0  0  0  0  0  0  0  0
   24.2601  -20.4219  -12.5305 C   0  0  2  0  0  0  0  0  0  0  0  0
   25.1268  -19.4015  -13.0783 N   0  0  0  0  0  0  0  0  0  0  0  0
   22.8321  -20.1449  -12.8733 C   0  0  0  0  0  0  0  0  0  0  0  0
   22.1374  -19.3975  -12.1540 O   0  0  0  0  0  0  0  0  0  0  0  0
   17.9308  -24.5751  -16.9159 N   0  0  0  0  0  0  0  0  0  0  0  0
   17.5934  -25.4018  -15.7893 C   0  0  0  0  0  0  0  0  0  0  0  0
   16.4595  -26.0011  -15.7719 N   0  0  0  0  0  0  0  0  0  0  0  0
   18.4764  -25.5683  -14.7041 N   0  0  0  0  0  0  0  0  0  0  0  0
   19.7628  -24.9617  -14.6079 C   0  0  0  0  0  0  0  0  0  0  0  0
   19.7424  -23.4832  -14.3745 C   0  0  0  0  0  0  0  0  0  0  0  0
   21.1517  -22.9088  -14.2563 C   0  0  0  0  0  0  0  0  0  0  0  0
   21.0050  -21.4307  -14.0290 C   0  0  2  0  0  0  0  0  0  0  0  0
   22.2350  -20.7150  -14.0092 N   0  0  0  0  0  0  0  0  0  0  0  0
   20.2937  -21.1902  -12.7533 C   0  0  0  0  0  0  0  0  0  0  0  0
   19.2392  -20.2950  -12.7110 O   0  0  0  0  0  0  0  0  0  0  0  0
   20.5968  -21.7663  -11.6716 O   0  0  0  0  0  0  0  0  0  0  0  0
  2  8  1  0
  2  1  1  6
  3  2  1  0
  4  5  1  0
  4  3  1  0
  5  6  1  0
  7  6  1  0
  8  9  2  0
 11 13  1  0
 11 10  1  1
 12 11  1  0
 14 13  1  1
 15 14  1  0
 15  8  1  0
 16 14  1  0
 16 17  2  0
 19 18  1  0
 20 19  2  0
 21 19  1  0
 22 21  1  0
 23 22  1  0
 23 24  1  0
 25 24  1  1
 25 26  1  0
 25 27  1  0
 26 16  1  0
 27 28  1  0
 29 27  2  0
M  END
$$$$
