KLR.pdb
     RDKit          3D

 29 28  0  0  1  0  0  0  0  0999 V2000
   20.9423  -20.2838  -10.1885 N   0  0  0  0  0  0  0  0  0  0  0  0
   21.9782  -21.0074  -10.8660 C   0  0  1  0  0  0  0  0  0  0  0  0
   21.6565  -21.1663  -12.3588 C   0  0  0  0  0  0  0  0  0  0  0  0
   20.5587  -22.1712  -12.5257 C   0  0  0  0  0  0  0  0  0  0  0  0
   20.1667  -22.4699  -13.9262 C   0  0  0  0  0  0  0  0  0  0  0  0
   19.0698  -23.4647  -14.1112 C   0  0  0  0  0  0  0  0  0  0  0  0
   18.6238  -23.6498  -15.4558 N   0  0  0  0  0  0  0  0  0  0  0  0
   23.2875  -20.3551  -10.7277 C   0  0  0  0  0  0  0  0  0  0  0  0
   23.3985  -19.1090  -10.8542 O   0  0  0  0  0  0  0  0  0  0  0  0
   26.4950  -18.8717   -7.9485 C   0  0  0  0  0  0  0  0  0  0  0  0
   26.2652  -20.3944   -7.9132 C   0  0  2  0  0  0  0  0  0  0  0  0
   27.0924  -20.9319   -6.7868 C   0  0  0  0  0  0  0  0  0  0  0  0
   26.6461  -20.8870   -9.2728 C   0  0  0  0  0  0  0  0  0  0  0  0
   25.7912  -20.4480  -10.4008 C   0  0  2  0  0  0  0  0  0  0  0  0
   24.4917  -21.0819  -10.4467 N   0  0  0  0  0  0  0  0  0  0  0  0
   26.5107  -20.6185  -11.6995 C   0  0  0  0  0  0  0  0  0  0  0  0
   27.6986  -21.0014  -11.7244 O   0  0  0  0  0  0  0  0  0  0  0  0
   27.6157  -26.1512  -16.0838 N   0  0  0  0  0  0  0  0  0  0  0  0
   27.3066  -25.3060  -17.2048 C   0  0  0  0  0  0  0  0  0  0  0  0
   26.5241  -25.7455  -18.1212 N   0  0  0  0  0  0  0  0  0  0  0  0
   27.8431  -24.0086  -17.3221 N   0  0  0  0  0  0  0  0  0  0  0  0
   27.8607  -23.0429  -16.2737 C   0  0  0  0  0  0  0  0  0  0  0  0
   26.5155  -22.5092  -15.8908 C   0  0  0  0  0  0  0  0  0  0  0  0
   26.4145  -22.2518  -14.3896 C   0  0  0  0  0  0  0  0  0  0  0  0
   26.3357  -20.7627  -14.2046 C   0  0  2  0  0  0  0  0  0  0  0  0
   25.8729  -20.3541  -12.9223 N   0  0  0  0  0  0  0  0  0  0  0  0
   25.4523  -20.1775  -15.2382 C   0  0  0  0  0  0  0  0  0  0  0  0
   25.8843  -20.1019  -16.5508 O   0  0  0  0  0  0  0  0  0  0  0  0
   24.2978  -19.7307  -14.9910 O   0  0  0  0  0  0  0  0  0  0  0  0
  2  8  1  0
  2  1  1  1
  3  2  1  0
  4  5  1  0
  4  3  1  0
  5  6  1  0
  7  6  1  0
  8  9  2  0
 11 13  1  0
 11 10  1  6
 12 11  1  0
 14 13  1  1
 15 14  1  0
 15  8  1  0
 16 14  1  0
 16 17  2  0
 19 18  1  0
 20 19  2  0
 21 19  1  0
 22 21  1  0
 23 22  1  0
 23 24  1  0
 25 24  1  1
 25 26  1  0
 25 27  1  0
 26 16  1  0
 27 28  1  0
 29 27  2  0
M  END
$$$$
