KLR.pdb
     RDKit          3D

 29 28  0  0  1  0  0  0  0  0999 V2000
   26.6928  -21.5609  -15.2858 N   0  0  0  0  0  0  0  0  0  0  0  0
   25.8197  -20.6293  -14.6334 C   0  0  1  0  0  0  0  0  0  0  0  0
   24.6681  -20.2099  -15.5580 C   0  0  0  0  0  0  0  0  0  0  0  0
   25.2299  -19.6726  -16.8381 C   0  0  0  0  0  0  0  0  0  0  0  0
   24.2348  -19.1560  -17.8113 C   0  0  0  0  0  0  0  0  0  0  0  0
   24.7792  -18.5814  -19.0764 C   0  0  0  0  0  0  0  0  0  0  0  0
   23.8060  -18.1103  -20.0102 N   0  0  0  0  0  0  0  0  0  0  0  0
   25.2577  -21.1773  -13.3912 C   0  0  0  0  0  0  0  0  0  0  0  0
   25.0249  -22.4081  -13.2822 O   0  0  0  0  0  0  0  0  0  0  0  0
   26.8322  -21.5661   -9.2058 C   0  0  0  0  0  0  0  0  0  0  0  0
   26.4205  -20.1270   -9.5697 C   0  0  2  0  0  0  0  0  0  0  0  0
   26.8576  -19.2512   -8.4366 C   0  0  0  0  0  0  0  0  0  0  0  0
   24.9436  -20.1803   -9.7986 C   0  0  0  0  0  0  0  0  0  0  0  0
   24.4849  -20.9169  -10.9999 C   0  0  2  0  0  0  0  0  0  0  0  0
   24.9471  -20.3615  -12.2531 N   0  0  0  0  0  0  0  0  0  0  0  0
   22.9963  -21.0492  -10.9954 C   0  0  0  0  0  0  0  0  0  0  0  0
   22.2887  -20.3108  -11.7113 O   0  0  0  0  0  0  0  0  0  0  0  0
   15.7099  -24.4136   -7.6863 N   0  0  0  0  0  0  0  0  0  0  0  0
   16.8103  -25.3363   -7.7503 C   0  0  0  0  0  0  0  0  0  0  0  0
   16.5725  -26.5777   -7.9685 N   0  0  0  0  0  0  0  0  0  0  0  0
   18.1423  -24.9109   -7.5778 N   0  0  0  0  0  0  0  0  0  0  0  0
   18.5447  -23.5511   -7.4332 C   0  0  0  0  0  0  0  0  0  0  0  0
   19.0486  -22.9099   -8.6885 C   0  0  0  0  0  0  0  0  0  0  0  0
   20.5700  -22.7867   -8.6903 C   0  0  0  0  0  0  0  0  0  0  0  0
   20.9523  -22.0960   -9.9689 C   0  0  2  0  0  0  0  0  0  0  0  0
   22.3553  -22.0040  -10.1896 N   0  0  0  0  0  0  0  0  0  0  0  0
   20.3767  -20.7324   -9.9908 C   0  0  0  0  0  0  0  0  0  0  0  0
   21.0294  -19.6989   -9.3419 O   0  0  0  0  0  0  0  0  0  0  0  0
   19.2981  -20.4448  -10.5805 O   0  0  0  0  0  0  0  0  0  0  0  0
  2  8  1  0
  2  1  1  6
  3  2  1  0
  4  5  1  0
  4  3  1  0
  5  6  1  0
  7  6  1  0
  8  9  2  0
 11 13  1  0
 11 10  1  1
 12 11  1  0
 14 13  1  1
 15 14  1  0
 15  8  1  0
 16 14  1  0
 16 17  2  0
 19 18  1  0
 20 19  2  0
 21 19  1  0
 22 21  1  0
 23 22  1  0
 23 24  1  0
 25 24  1  1
 25 26  1  0
 25 27  1  0
 26 16  1  0
 27 28  1  0
 29 27  2  0
M  END
$$$$
