KLR.pdb
     RDKit          3D

 29 28  0  0  1  0  0  0  0  0999 V2000
   25.5457  -21.1544  -18.9052 N   0  0  0  0  0  0  0  0  0  0  0  0
   24.6923  -20.4126  -18.0236 C   0  0  1  0  0  0  0  0  0  0  0  0
   23.4601  -21.2366  -17.6237 C   0  0  0  0  0  0  0  0  0  0  0  0
   22.2949  -20.8310  -18.4728 C   0  0  0  0  0  0  0  0  0  0  0  0
   21.3969  -19.8047  -17.8859 C   0  0  0  0  0  0  0  0  0  0  0  0
   20.1721  -19.4676  -18.6690 C   0  0  0  0  0  0  0  0  0  0  0  0
   19.3513  -18.4358  -18.1188 N   0  0  0  0  0  0  0  0  0  0  0  0
   25.3950  -19.9852  -16.8061 C   0  0  0  0  0  0  0  0  0  0  0  0
   26.1025  -20.7969  -16.1568 O   0  0  0  0  0  0  0  0  0  0  0  0
   28.0687  -16.4166  -16.2814 C   0  0  0  0  0  0  0  0  0  0  0  0
   26.6001  -15.9917  -16.0937 C   0  0  2  0  0  0  0  0  0  0  0  0
   26.5975  -14.5042  -15.9222 C   0  0  0  0  0  0  0  0  0  0  0  0
   26.1076  -16.7683  -14.9144 C   0  0  0  0  0  0  0  0  0  0  0  0
   25.9988  -18.2362  -15.0856 C   0  0  2  0  0  0  0  0  0  0  0  0
   25.3193  -18.6473  -16.2946 N   0  0  0  0  0  0  0  0  0  0  0  0
   25.3646  -18.8573  -13.8834 C   0  0  0  0  0  0  0  0  0  0  0  0
   24.1567  -18.6684  -13.6307 O   0  0  0  0  0  0  0  0  0  0  0  0
   19.7815  -21.0508  -10.9074 N   0  0  0  0  0  0  0  0  0  0  0  0
   19.8410  -21.0783  -12.3434 C   0  0  0  0  0  0  0  0  0  0  0  0
   18.8532  -20.6156  -13.0183 N   0  0  0  0  0  0  0  0  0  0  0  0
   20.9561  -21.6020  -13.0270 N   0  0  0  0  0  0  0  0  0  0  0  0
   22.2121  -21.8956  -12.4199 C   0  0  0  0  0  0  0  0  0  0  0  0
   23.3397  -21.0121  -12.8545 C   0  0  0  0  0  0  0  0  0  0  0  0
   24.6985  -21.6248  -12.5254 C   0  0  0  0  0  0  0  0  0  0  0  0
   25.5647  -20.5143  -12.0014 C   0  0  2  0  0  0  0  0  0  0  0  0
   26.1067  -19.6674  -13.0087 N   0  0  0  0  0  0  0  0  0  0  0  0
   26.6775  -21.0817  -11.2072 C   0  0  0  0  0  0  0  0  0  0  0  0
   27.9276  -21.2305  -11.7817 O   0  0  0  0  0  0  0  0  0  0  0  0
   26.5546  -21.4486  -10.0055 O   0  0  0  0  0  0  0  0  0  0  0  0
  2  8  1  0
  2  1  1  6
  3  2  1  0
  4  5  1  0
  4  3  1  0
  5  6  1  0
  7  6  1  0
  8  9  2  0
 11 13  1  0
 11 10  1  1
 12 11  1  0
 14 13  1  1
 15 14  1  0
 15  8  1  0
 16 14  1  0
 16 17  2  0
 19 18  1  0
 20 19  2  0
 21 19  1  0
 22 21  1  0
 23 22  1  0
 23 24  1  0
 25 24  1  6
 25 26  1  0
 25 27  1  0
 26 16  1  0
 27 28  1  0
 29 27  2  0
M  END
$$$$
