EPI.pdb
     RDKit          3D

 25 25  0  0  1  0  0  0  0  0999 V2000
   11.3429  -16.3994   18.7469 N   0  0  0  0  0  0  0  0  0  0  0  0
   10.8574  -16.9090   19.9688 C   0  0  1  0  0  0  0  0  0  0  0  0
   11.8614  -17.6067   20.8470 C   0  0  0  0  0  0  0  0  0  0  0  0
   12.1547  -19.0208   20.5422 C   0  0  0  0  0  0  0  0  0  0  0  0
   13.3065  -19.5971   21.2397 C   0  0  0  0  0  0  0  0  0  0  0  0
   14.4266  -18.9943   21.1239 O   0  0  0  0  0  0  0  0  0  0  0  0
    9.9006  -16.0956   20.7290 C   0  0  0  0  0  0  0  0  0  0  0  0
   10.3195  -14.8909   20.9688 O   0  0  0  0  0  0  0  0  0  0  0  0
   13.3210  -20.7323   22.0220 O   0  0  0  0  0  0  0  0  0  0  0  0
    8.6397  -16.4054   21.2284 N   0  0  0  0  0  0  0  0  0  0  0  0
    7.9220  -17.6379   21.1678 C   0  0  0  0  0  0  0  0  0  0  0  0
    6.4673  -17.2226   21.2280 C   0  0  0  0  0  0  0  0  0  0  0  0
    6.4476  -15.7370   21.3972 C   0  0  0  0  0  0  0  0  0  0  0  0
    7.8099  -15.4794   21.9822 C   0  0  1  0  0  0  0  0  0  0  0  0
    7.8098  -15.7893   23.4250 C   0  0  0  0  0  0  0  0  0  0  0  0
    8.0995  -16.8826   23.9466 O   0  0  0  0  0  0  0  0  0  0  0  0
    5.8292  -11.9203   27.1101 C   0  0  0  0  0  0  0  0  0  0  0  0
    6.1437  -13.1557   26.2854 C   0  0  0  0  0  0  0  0  0  0  0  0
    7.6597  -13.3217   26.3009 C   0  0  2  0  0  0  0  0  0  0  0  0
    8.2677  -12.1361   25.5736 C   0  0  0  0  0  0  0  0  0  0  0  0
    8.0461  -14.6299   25.6254 C   0  0  2  0  0  0  0  0  0  0  0  0
    7.4415  -14.7285   24.3071 N   0  0  0  0  0  0  0  0  0  0  0  0
    7.4280  -15.7232   26.4615 C   0  0  0  0  0  0  0  0  0  0  0  0
    8.0075  -16.1341   27.6530 O   0  0  0  0  0  0  0  0  0  0  0  0
    6.3682  -16.2984   26.1075 O   0  0  0  0  0  0  0  0  0  0  0  0
  2  7  1  0
  2  1  1  6
  3  2  1  0
  4  3  1  0
  5  9  1  0
  5  4  1  0
  6  5  2  0
  7  8  2  0
 10 14  1  0
 10  7  1  0
 11 10  1  0
 12 11  1  0
 12 13  1  0
 13 14  1  0
 15 22  1  0
 14 15  1  1
 16 15  2  0
 17 18  1  0
 19 18  1  0
 19 20  1  6
 21 22  1  6
 21 19  1  0
 23 21  1  0
 24 23  1  0
 25 23  2  0
M  END
$$$$
