EPI.pdb
     RDKit          3D

 25 25  0  0  1  0  0  0  0  0999 V2000
    9.3850  -17.5685   18.7154 N   0  0  0  0  0  0  0  0  0  0  0  0
    9.4912  -18.1460   19.9976 C   0  0  1  0  0  0  0  0  0  0  0  0
   10.8684  -18.5815   20.4214 C   0  0  0  0  0  0  0  0  0  0  0  0
   11.9297  -17.5556   20.4181 C   0  0  0  0  0  0  0  0  0  0  0  0
   13.1123  -17.8600   21.2268 C   0  0  0  0  0  0  0  0  0  0  0  0
   13.5103  -19.0734   21.2540 O   0  0  0  0  0  0  0  0  0  0  0  0
    8.7175  -17.5502   21.0936 C   0  0  0  0  0  0  0  0  0  0  0  0
    8.2366  -16.3783   20.8117 O   0  0  0  0  0  0  0  0  0  0  0  0
   13.8596  -16.9729   21.9723 O   0  0  0  0  0  0  0  0  0  0  0  0
    8.4254  -18.0310   22.3660 N   0  0  0  0  0  0  0  0  0  0  0  0
    8.9855  -19.1449   23.0612 C   0  0  0  0  0  0  0  0  0  0  0  0
    7.8879  -19.5796   24.0091 C   0  0  0  0  0  0  0  0  0  0  0  0
    6.7613  -18.6108   23.8408 C   0  0  0  0  0  0  0  0  0  0  0  0
    7.4730  -17.4123   23.2739 C   0  0  1  0  0  0  0  0  0  0  0  0
    8.1468  -16.6644   24.3530 C   0  0  0  0  0  0  0  0  0  0  0  0
    9.3426  -16.7640   24.6867 O   0  0  0  0  0  0  0  0  0  0  0  0
    6.4076  -11.2053   26.6717 C   0  0  0  0  0  0  0  0  0  0  0  0
    7.5054  -12.2460   26.5406 C   0  0  0  0  0  0  0  0  0  0  0  0
    6.8951  -13.4411   25.8157 C   0  0  2  0  0  0  0  0  0  0  0  0
    5.7271  -13.9445   26.6444 C   0  0  0  0  0  0  0  0  0  0  0  0
    7.9431  -14.5303   25.6360 C   0  0  2  0  0  0  0  0  0  0  0  0
    7.3460  -15.7352   25.0839 N   0  0  0  0  0  0  0  0  0  0  0  0
    8.4116  -14.8842   27.0258 C   0  0  0  0  0  0  0  0  0  0  0  0
    8.0566  -16.0856   27.6218 O   0  0  0  0  0  0  0  0  0  0  0  0
    9.1385  -14.1038   27.6904 O   0  0  0  0  0  0  0  0  0  0  0  0
  2  7  1  0
  2  1  1  6
  3  2  1  0
  4  3  1  0
  5  9  1  0
  5  4  1  0
  6  5  2  0
  7  8  2  0
 10 14  1  0
 10  7  1  0
 11 10  1  0
 12 11  1  0
 12 13  1  0
 13 14  1  0
 15 22  1  0
 14 15  1  1
 16 15  2  0
 17 18  1  0
 19 18  1  0
 19 20  1  1
 21 22  1  1
 21 19  1  0
 23 21  1  0
 24 23  1  0
 25 23  2  0
M  END
$$$$
