EPI.pdb
     RDKit          3D

 25 25  0  0  1  0  0  0  0  0999 V2000
   12.3661  -16.9376   20.2208 N   0  0  0  0  0  0  0  0  0  0  0  0
   11.0088  -17.1521   20.5375 C   0  0  1  0  0  0  0  0  0  0  0  0
   10.6179  -18.5659   20.8762 C   0  0  0  0  0  0  0  0  0  0  0  0
   11.2241  -19.1612   22.0833 C   0  0  0  0  0  0  0  0  0  0  0  0
   10.7708  -20.5116   22.4238 C   0  0  0  0  0  0  0  0  0  0  0  0
   10.7607  -20.8349   23.6595 O   0  0  0  0  0  0  0  0  0  0  0  0
   10.3237  -16.1549   21.3688 C   0  0  0  0  0  0  0  0  0  0  0  0
   11.1299  -15.4443   22.0964 O   0  0  0  0  0  0  0  0  0  0  0  0
   10.3441  -21.4895   21.5505 O   0  0  0  0  0  0  0  0  0  0  0  0
    8.9713  -15.8573   21.5021 N   0  0  0  0  0  0  0  0  0  0  0  0
    7.8413  -16.5121   20.9259 C   0  0  0  0  0  0  0  0  0  0  0  0
    6.7883  -15.4275   20.8414 C   0  0  0  0  0  0  0  0  0  0  0  0
    7.3787  -14.2013   21.4610 C   0  0  0  0  0  0  0  0  0  0  0  0
    8.4489  -14.7898   22.3399 C   0  0  1  0  0  0  0  0  0  0  0  0
    7.8537  -15.3093   23.5864 C   0  0  0  0  0  0  0  0  0  0  0  0
    7.5909  -16.5000   23.8402 O   0  0  0  0  0  0  0  0  0  0  0  0
    5.5847  -11.9942   27.5004 C   0  0  0  0  0  0  0  0  0  0  0  0
    6.0105  -13.0542   26.5002 C   0  0  0  0  0  0  0  0  0  0  0  0
    7.4219  -13.4836   26.8874 C   0  0  2  0  0  0  0  0  0  0  0  0
    8.3330  -12.2775   26.7471 C   0  0  0  0  0  0  0  0  0  0  0  0
    7.8841  -14.6213   25.9879 C   0  0  2  0  0  0  0  0  0  0  0  0
    7.5510  -14.3494   24.5993 N   0  0  0  0  0  0  0  0  0  0  0  0
    7.0696  -15.8244   26.3946 C   0  0  0  0  0  0  0  0  0  0  0  0
    7.4044  -16.5776   27.5105 O   0  0  0  0  0  0  0  0  0  0  0  0
    6.0612  -16.1853   25.7372 O   0  0  0  0  0  0  0  0  0  0  0  0
  2  7  1  0
  2  1  1  1
  3  2  1  0
  4  3  1  0
  5  9  1  0
  5  4  1  0
  6  5  2  0
  7  8  2  0
 10 14  1  0
 10  7  1  0
 11 10  1  0
 12 11  1  0
 12 13  1  0
 13 14  1  0
 15 22  1  0
 14 15  1  1
 16 15  2  0
 17 18  1  0
 19 18  1  0
 19 20  1  6
 21 22  1  6
 21 19  1  0
 23 21  1  0
 24 23  1  0
 25 23  2  0
M  END
$$$$
