EPI.pdb
     RDKit          3D

 25 25  0  0  1  0  0  0  0  0999 V2000
   10.9811  -17.3780   18.9385 N   0  0  0  0  0  0  0  0  0  0  0  0
    9.6814  -17.2024   19.4568 C   0  0  1  0  0  0  0  0  0  0  0  0
    8.8305  -18.4400   19.5583 C   0  0  0  0  0  0  0  0  0  0  0  0
    7.5170  -18.3018   20.2174 C   0  0  0  0  0  0  0  0  0  0  0  0
    6.7150  -19.5243   20.3020 C   0  0  0  0  0  0  0  0  0  0  0  0
    6.7492  -20.1758   21.4001 O   0  0  0  0  0  0  0  0  0  0  0  0
    9.5050  -16.2925   20.5952 C   0  0  0  0  0  0  0  0  0  0  0  0
   10.4379  -16.3962   21.4914 O   0  0  0  0  0  0  0  0  0  0  0  0
    5.9119  -20.0608   19.3180 O   0  0  0  0  0  0  0  0  0  0  0  0
    8.5126  -15.3554   20.8643 N   0  0  0  0  0  0  0  0  0  0  0  0
    7.2567  -15.1581   20.2152 C   0  0  0  0  0  0  0  0  0  0  0  0
    6.9524  -13.6915   20.4355 C   0  0  0  0  0  0  0  0  0  0  0  0
    8.0540  -13.1434   21.2854 C   0  0  0  0  0  0  0  0  0  0  0  0
    8.5744  -14.3895   21.9494 C   0  0  1  0  0  0  0  0  0  0  0  0
    7.6986  -14.7688   23.0749 C   0  0  0  0  0  0  0  0  0  0  0  0
    6.6547  -15.4445   23.0045 O   0  0  0  0  0  0  0  0  0  0  0  0
    9.0326  -12.6148   28.1501 C   0  0  0  0  0  0  0  0  0  0  0  0
    8.2749  -13.0399   26.9049 C   0  0  0  0  0  0  0  0  0  0  0  0
    8.4377  -14.5515   26.7846 C   0  0  2  0  0  0  0  0  0  0  0  0
    9.9214  -14.8559   26.6841 C   0  0  0  0  0  0  0  0  0  0  0  0
    7.6947  -15.0581   25.5564 C   0  0  2  0  0  0  0  0  0  0  0  0
    8.0900  -14.3152   24.3711 N   0  0  0  0  0  0  0  0  0  0  0  0
    6.2396  -14.7388   25.7948 C   0  0  0  0  0  0  0  0  0  0  0  0
    5.4668  -15.5006   26.6591 O   0  0  0  0  0  0  0  0  0  0  0  0
    5.6782  -13.7729   25.2193 O   0  0  0  0  0  0  0  0  0  0  0  0
  2  7  1  0
  2  1  1  1
  3  2  1  0
  4  3  1  0
  5  9  1  0
  5  4  1  0
  6  5  2  0
  7  8  2  0
 10 14  1  0
 10  7  1  0
 11 10  1  0
 12 11  1  0
 12 13  1  0
 13 14  1  0
 15 22  1  0
 14 15  1  1
 16 15  2  0
 17 18  1  0
 19 18  1  0
 19 20  1  6
 21 22  1  6
 21 19  1  0
 23 21  1  0
 24 23  1  0
 25 23  2  0
M  END
$$$$
