EPI.pdb
     RDKit          3D

 25 25  0  0  1  0  0  0  0  0999 V2000
   11.9950  -17.0564   19.6237 N   0  0  0  0  0  0  0  0  0  0  0  0
   10.6902  -17.2839   20.1080 C   0  0  1  0  0  0  0  0  0  0  0  0
   10.3824  -18.6853   20.5635 C   0  0  0  0  0  0  0  0  0  0  0  0
   11.1651  -19.2114   21.6990 C   0  0  0  0  0  0  0  0  0  0  0  0
   10.8051  -20.5568   22.1519 C   0  0  0  0  0  0  0  0  0  0  0  0
    9.8433  -21.1429   21.5494 O   0  0  0  0  0  0  0  0  0  0  0  0
   10.0775  -16.2581   20.9606 C   0  0  0  0  0  0  0  0  0  0  0  0
   10.9420  -15.5214   21.5884 O   0  0  0  0  0  0  0  0  0  0  0  0
   11.3959  -21.2770   23.1684 O   0  0  0  0  0  0  0  0  0  0  0  0
    8.7410  -15.9568   21.2023 N   0  0  0  0  0  0  0  0  0  0  0  0
    7.5672  -16.6358   20.7564 C   0  0  0  0  0  0  0  0  0  0  0  0
    6.5056  -15.5568   20.7228 C   0  0  0  0  0  0  0  0  0  0  0  0
    7.1431  -14.3057   21.2370 C   0  0  0  0  0  0  0  0  0  0  0  0
    8.2905  -14.8568   22.0397 C   0  0  1  0  0  0  0  0  0  0  0  0
    7.8115  -15.3258   23.3544 C   0  0  0  0  0  0  0  0  0  0  0  0
    7.6060  -16.5081   23.6878 O   0  0  0  0  0  0  0  0  0  0  0  0
    5.8698  -11.7172   27.2142 C   0  0  0  0  0  0  0  0  0  0  0  0
    6.1667  -12.8689   26.2703 C   0  0  0  0  0  0  0  0  0  0  0  0
    7.5824  -13.3417   26.5838 C   0  0  2  0  0  0  0  0  0  0  0  0
    8.5325  -12.1910   26.3054 C   0  0  0  0  0  0  0  0  0  0  0  0
    7.9281  -14.5512   25.7267 C   0  0  2  0  0  0  0  0  0  0  0  0
    7.5606  -14.3226   24.3390 N   0  0  0  0  0  0  0  0  0  0  0  0
    7.0480  -15.6720   26.2223 C   0  0  0  0  0  0  0  0  0  0  0  0
    7.3726  -16.3929   27.3622 O   0  0  0  0  0  0  0  0  0  0  0  0
    5.9919  -15.9906   25.6202 O   0  0  0  0  0  0  0  0  0  0  0  0
  2  7  1  0
  2  1  1  1
  3  2  1  0
  4  3  1  0
  5  9  1  0
  5  4  1  0
  6  5  2  0
  7  8  2  0
 10 14  1  0
 10  7  1  0
 11 10  1  0
 12 11  1  0
 12 13  1  0
 13 14  1  0
 15 22  1  0
 14 15  1  1
 16 15  2  0
 17 18  1  0
 19 18  1  0
 19 20  1  6
 21 22  1  6
 21 19  1  0
 23 21  1  0
 24 23  1  0
 25 23  2  0
M  END
$$$$
