EPI.pdb
     RDKit          3D

 25 25  0  0  1  0  0  0  0  0999 V2000
   12.1101  -16.9919   19.7208 N   0  0  0  0  0  0  0  0  0  0  0  0
   10.8028  -17.2647   20.1740 C   0  0  1  0  0  0  0  0  0  0  0  0
   10.5213  -18.6857   20.5833 C   0  0  0  0  0  0  0  0  0  0  0  0
   11.0606  -19.1314   21.8830 C   0  0  0  0  0  0  0  0  0  0  0  0
   10.2049  -20.0393   22.6501 C   0  0  0  0  0  0  0  0  0  0  0  0
   10.6417  -20.4465   23.7792 O   0  0  0  0  0  0  0  0  0  0  0  0
   10.1498  -16.2791   21.0441 C   0  0  0  0  0  0  0  0  0  0  0  0
   10.9843  -15.5534   21.7232 O   0  0  0  0  0  0  0  0  0  0  0  0
    8.9604  -20.5110   22.2896 O   0  0  0  0  0  0  0  0  0  0  0  0
    8.8024  -16.0058   21.2565 N   0  0  0  0  0  0  0  0  0  0  0  0
    7.6533  -16.7220   20.8046 C   0  0  0  0  0  0  0  0  0  0  0  0
    6.5669  -15.6702   20.7306 C   0  0  0  0  0  0  0  0  0  0  0  0
    7.1650  -14.3938   21.2298 C   0  0  0  0  0  0  0  0  0  0  0  0
    8.3109  -14.9005   22.0633 C   0  0  1  0  0  0  0  0  0  0  0  0
    7.8201  -15.3545   23.3789 C   0  0  0  0  0  0  0  0  0  0  0  0
    7.5882  -16.5308   23.7159 O   0  0  0  0  0  0  0  0  0  0  0  0
    5.8840  -11.7117   27.1616 C   0  0  0  0  0  0  0  0  0  0  0  0
    6.2201  -12.8378   26.2001 C   0  0  0  0  0  0  0  0  0  0  0  0
    7.5880  -13.3734   26.6098 C   0  0  2  0  0  0  0  0  0  0  0  0
    8.5990  -12.2537   26.4402 C   0  0  0  0  0  0  0  0  0  0  0  0
    7.9560  -14.5728   25.7479 C   0  0  2  0  0  0  0  0  0  0  0  0
    7.5903  -14.3427   24.3599 N   0  0  0  0  0  0  0  0  0  0  0  0
    7.0916  -15.7098   26.2342 C   0  0  0  0  0  0  0  0  0  0  0  0
    6.0308  -16.1838   25.4762 O   0  0  0  0  0  0  0  0  0  0  0  0
    7.3027  -16.2657   27.3413 O   0  0  0  0  0  0  0  0  0  0  0  0
  2  7  1  0
  2  1  1  1
  3  2  1  0
  4  3  1  0
  5  9  1  0
  5  4  1  0
  6  5  2  0
  7  8  2  0
 10 14  1  0
 10  7  1  0
 11 10  1  0
 12 11  1  0
 12 13  1  0
 13 14  1  0
 15 22  1  0
 14 15  1  1
 16 15  2  0
 17 18  1  0
 19 18  1  0
 19 20  1  6
 21 22  1  6
 21 19  1  0
 23 21  1  0
 24 23  1  0
 25 23  2  0
M  END
$$$$
