EPI.pdb
     RDKit          3D

 25 25  0  0  1  0  0  0  0  0999 V2000
   10.5874  -17.9332   19.6745 N   0  0  0  0  0  0  0  0  0  0  0  0
    9.3814  -17.2627   19.9651 C   0  0  1  0  0  0  0  0  0  0  0  0
    8.1336  -18.1048   19.9680 C   0  0  0  0  0  0  0  0  0  0  0  0
    7.8148  -18.8316   21.2126 C   0  0  0  0  0  0  0  0  0  0  0  0
    6.5246  -19.5246   21.2328 C   0  0  0  0  0  0  0  0  0  0  0  0
    5.8319  -19.5102   20.1598 O   0  0  0  0  0  0  0  0  0  0  0  0
    9.3891  -16.2487   21.0264 C   0  0  0  0  0  0  0  0  0  0  0  0
   10.3633  -16.3904   21.8721 O   0  0  0  0  0  0  0  0  0  0  0  0
    5.9633  -20.2041   22.2931 O   0  0  0  0  0  0  0  0  0  0  0  0
    8.5316  -15.1804   21.2690 N   0  0  0  0  0  0  0  0  0  0  0  0
    7.2978  -14.8499   20.6317 C   0  0  0  0  0  0  0  0  0  0  0  0
    7.1895  -13.3482   20.7907 C   0  0  0  0  0  0  0  0  0  0  0  0
    8.3706  -12.9117   21.5974 C   0  0  0  0  0  0  0  0  0  0  0  0
    8.7406  -14.1853   22.3084 C   0  0  1  0  0  0  0  0  0  0  0  0
    7.8479  -14.3998   23.4636 C   0  0  0  0  0  0  0  0  0  0  0  0
    6.8137  -15.0937   23.4803 O   0  0  0  0  0  0  0  0  0  0  0  0
   10.5628  -13.6836   28.3469 C   0  0  0  0  0  0  0  0  0  0  0  0
    9.8143  -14.3232   27.1909 C   0  0  0  0  0  0  0  0  0  0  0  0
    8.4525  -13.6406   27.1163 C   0  0  2  0  0  0  0  0  0  0  0  0
    7.7327  -13.8875   28.4299 C   0  0  0  0  0  0  0  0  0  0  0  0
    7.6547  -14.1990   25.9464 C   0  0  2  0  0  0  0  0  0  0  0  0
    8.2087  -13.7464   24.6810 N   0  0  0  0  0  0  0  0  0  0  0  0
    6.2807  -13.5852   26.0548 C   0  0  0  0  0  0  0  0  0  0  0  0
    5.2450  -14.2461   26.6990 O   0  0  0  0  0  0  0  0  0  0  0  0
    6.0276  -12.4555   25.5658 O   0  0  0  0  0  0  0  0  0  0  0  0
  2  7  1  0
  2  1  1  1
  3  2  1  0
  4  3  1  0
  5  9  1  0
  5  4  1  0
  6  5  2  0
  7  8  2  0
 10 14  1  0
 10  7  1  0
 11 10  1  0
 12 11  1  0
 12 13  1  0
 13 14  1  0
 15 22  1  0
 14 15  1  1
 16 15  2  0
 17 18  1  0
 19 18  1  0
 19 20  1  1
 21 22  1  6
 21 19  1  0
 23 21  1  0
 24 23  1  0
 25 23  2  0
M  END
$$$$
