EPI.pdb
     RDKit          3D

 25 25  0  0  1  0  0  0  0  0999 V2000
    7.1775  -18.5958   19.8195 N   0  0  0  0  0  0  0  0  0  0  0  0
    6.7499  -17.2864   20.1211 C   0  0  1  0  0  0  0  0  0  0  0  0
    5.3395  -17.1451   20.6281 C   0  0  0  0  0  0  0  0  0  0  0  0
    4.9191  -18.0558   21.7110 C   0  0  0  0  0  0  0  0  0  0  0  0
    3.5482  -18.5632   21.6202 C   0  0  0  0  0  0  0  0  0  0  0  0
    3.2977  -19.4221   20.7087 O   0  0  0  0  0  0  0  0  0  0  0  0
    7.6928  -16.3861   20.7958 C   0  0  0  0  0  0  0  0  0  0  0  0
    8.6480  -17.0069   21.4175 O   0  0  0  0  0  0  0  0  0  0  0  0
    2.4796  -18.2171   22.4199 O   0  0  0  0  0  0  0  0  0  0  0  0
    7.7237  -14.9977   20.8773 N   0  0  0  0  0  0  0  0  0  0  0  0
    6.7488  -14.0460   20.4513 C   0  0  0  0  0  0  0  0  0  0  0  0
    7.5533  -12.7968   20.1606 C   0  0  0  0  0  0  0  0  0  0  0  0
    8.9725  -13.1021   20.5195 C   0  0  0  0  0  0  0  0  0  0  0  0
    8.8027  -14.2396   21.4900 C   0  0  1  0  0  0  0  0  0  0  0  0
    8.4258  -13.7211   22.8192 C   0  0  0  0  0  0  0  0  0  0  0  0
    8.0865  -12.5534   23.0885 O   0  0  0  0  0  0  0  0  0  0  0  0
    5.7558  -12.8877   26.7347 C   0  0  0  0  0  0  0  0  0  0  0  0
    6.6096  -13.8659   25.9475 C   0  0  0  0  0  0  0  0  0  0  0  0
    8.0097  -13.2661   25.8710 C   0  0  2  0  0  0  0  0  0  0  0  0
    7.9224  -11.9732   25.0803 C   0  0  0  0  0  0  0  0  0  0  0  0
    8.9602  -14.2489   25.2020 C   0  0  2  0  0  0  0  0  0  0  0  0
    8.4534  -14.6529   23.9008 N   0  0  0  0  0  0  0  0  0  0  0  0
    8.9498  -15.4852   26.0667 C   0  0  0  0  0  0  0  0  0  0  0  0
    9.5165  -15.4837   27.3330 O   0  0  0  0  0  0  0  0  0  0  0  0
    8.4280  -16.5575   25.6702 O   0  0  0  0  0  0  0  0  0  0  0  0
  2  7  1  0
  2  1  1  1
  3  2  1  0
  4  3  1  0
  5  9  1  0
  5  4  1  0
  6  5  2  0
  7  8  2  0
 10 14  1  0
 10  7  1  0
 11 10  1  0
 12 11  1  0
 12 13  1  0
 13 14  1  0
 15 22  1  0
 14 15  1  1
 16 15  2  0
 17 18  1  0
 19 18  1  0
 19 20  1  6
 21 22  1  6
 21 19  1  0
 23 21  1  0
 24 23  1  0
 25 23  2  0
M  END
$$$$
