EPI.pdb
     RDKit          3D

 25 25  0  0  1  0  0  0  0  0999 V2000
    8.9538  -12.9170   18.0937 N   0  0  0  0  0  0  0  0  0  0  0  0
    9.1155  -14.1125   18.8240 C   0  0  1  0  0  0  0  0  0  0  0  0
   10.5154  -14.6600   18.9064 C   0  0  0  0  0  0  0  0  0  0  0  0
   11.5211  -13.8346   19.6034 C   0  0  0  0  0  0  0  0  0  0  0  0
   12.8349  -14.4543   19.7903 C   0  0  0  0  0  0  0  0  0  0  0  0
   13.7903  -14.0434   19.0487 O   0  0  0  0  0  0  0  0  0  0  0  0
    8.3664  -14.2675   20.0768 C   0  0  0  0  0  0  0  0  0  0  0  0
    8.0513  -13.1394   20.6357 O   0  0  0  0  0  0  0  0  0  0  0  0
   13.1658  -15.4445   20.6910 O   0  0  0  0  0  0  0  0  0  0  0  0
    7.9504  -15.4109   20.7514 N   0  0  0  0  0  0  0  0  0  0  0  0
    8.3120  -16.7735   20.5275 C   0  0  0  0  0  0  0  0  0  0  0  0
    7.1212  -17.5603   21.0325 C   0  0  0  0  0  0  0  0  0  0  0  0
    6.1546  -16.5688   21.5970 C   0  0  0  0  0  0  0  0  0  0  0  0
    7.0566  -15.4025   21.8982 C   0  0  1  0  0  0  0  0  0  0  0  0
    7.7810  -15.6341   23.1628 C   0  0  0  0  0  0  0  0  0  0  0  0
    8.8964  -16.1741   23.2879 O   0  0  0  0  0  0  0  0  0  0  0  0
    5.7658  -11.7769   26.6009 C   0  0  0  0  0  0  0  0  0  0  0  0
    6.6818  -12.5448   25.6646 C   0  0  0  0  0  0  0  0  0  0  0  0
    7.0802  -13.8257   26.3903 C   0  0  2  0  0  0  0  0  0  0  0  0
    7.8552  -13.4360   27.6360 C   0  0  0  0  0  0  0  0  0  0  0  0
    7.9262  -14.6998   25.4753 C   0  0  2  0  0  0  0  0  0  0  0  0
    7.1372  -15.1938   24.3589 N   0  0  0  0  0  0  0  0  0  0  0  0
    8.3073  -15.9070   26.2961 C   0  0  0  0  0  0  0  0  0  0  0  0
    9.4834  -15.9366   27.0312 O   0  0  0  0  0  0  0  0  0  0  0  0
    7.5732  -16.9260   26.3419 O   0  0  0  0  0  0  0  0  0  0  0  0
  2  7  1  0
  2  1  1  1
  3  2  1  0
  4  3  1  0
  5  9  1  0
  5  4  1  0
  6  5  2  0
  7  8  2  0
 10 14  1  0
 10  7  1  0
 11 10  1  0
 12 11  1  0
 12 13  1  0
 13 14  1  0
 15 22  1  0
 14 15  1  1
 16 15  2  0
 17 18  1  0
 19 18  1  0
 19 20  1  1
 21 22  1  6
 21 19  1  0
 23 21  1  0
 24 23  1  0
 25 23  2  0
M  END
$$$$
