EPI.pdb
     RDKit          3D

 25 25  0  0  1  0  0  0  0  0999 V2000
   10.6625  -15.4048   19.0880 N   0  0  0  0  0  0  0  0  0  0  0  0
    9.5507  -15.8026   19.8589 C   0  0  1  0  0  0  0  0  0  0  0  0
    9.0479  -17.2032   19.6319 C   0  0  0  0  0  0  0  0  0  0  0  0
    9.7561  -18.2942   20.3297 C   0  0  0  0  0  0  0  0  0  0  0  0
    8.9750  -19.5096   20.5696 C   0  0  0  0  0  0  0  0  0  0  0  0
    7.9019  -19.6625   19.8938 O   0  0  0  0  0  0  0  0  0  0  0  0
    9.5045  -15.4003   21.2699 C   0  0  0  0  0  0  0  0  0  0  0  0
   10.6503  -15.0058   21.7345 O   0  0  0  0  0  0  0  0  0  0  0  0
    9.2702  -20.5259   21.4534 O   0  0  0  0  0  0  0  0  0  0  0  0
    8.4479  -15.3784   22.1746 N   0  0  0  0  0  0  0  0  0  0  0  0
    7.1239  -15.8918   22.0295 C   0  0  0  0  0  0  0  0  0  0  0  0
    6.2892  -15.0292   22.9522 C   0  0  0  0  0  0  0  0  0  0  0  0
    7.2313  -14.0952   23.6422 C   0  0  0  0  0  0  0  0  0  0  0  0
    8.5363  -14.8346   23.5202 C   0  0  1  0  0  0  0  0  0  0  0  0
    8.6145  -15.8983   24.5400 C   0  0  0  0  0  0  0  0  0  0  0  0
    8.6260  -17.1257   24.3290 O   0  0  0  0  0  0  0  0  0  0  0  0
    9.8526  -12.9975   29.1441 C   0  0  0  0  0  0  0  0  0  0  0  0
    9.9861  -13.7099   27.8099 C   0  0  0  0  0  0  0  0  0  0  0  0
    9.7703  -15.1954   28.0802 C   0  0  2  0  0  0  0  0  0  0  0  0
   10.9017  -15.6784   28.9695 C   0  0  0  0  0  0  0  0  0  0  0  0
    9.7455  -15.9643   26.7667 C   0  0  2  0  0  0  0  0  0  0  0  0
    8.6845  -15.4749   25.9019 N   0  0  0  0  0  0  0  0  0  0  0  0
    9.3819  -17.3834   27.1273 C   0  0  0  0  0  0  0  0  0  0  0  0
   10.3440  -18.3811   27.1864 O   0  0  0  0  0  0  0  0  0  0  0  0
    8.1963  -17.7101   27.3863 O   0  0  0  0  0  0  0  0  0  0  0  0
  2  7  1  0
  2  1  1  1
  3  2  1  0
  4  3  1  0
  5  9  1  0
  5  4  1  0
  6  5  2  0
  7  8  2  0
 10 14  1  0
 10  7  1  0
 11 10  1  0
 12 11  1  0
 12 13  1  0
 13 14  1  0
 15 22  1  0
 14 15  1  1
 16 15  2  0
 17 18  1  0
 19 18  1  0
 19 20  1  1
 21 22  1  6
 21 19  1  0
 23 21  1  0
 24 23  1  0
 25 23  2  0
M  END
$$$$
