EPI.pdb
     RDKit          3D

 25 25  0  0  1  0  0  0  0  0999 V2000
    8.7064  -12.9310   18.0050 N   0  0  0  0  0  0  0  0  0  0  0  0
    9.2227  -13.8856   18.9054 C   0  0  1  0  0  0  0  0  0  0  0  0
   10.7225  -13.9615   19.0102 C   0  0  0  0  0  0  0  0  0  0  0  0
   11.2820  -14.9326   19.9708 C   0  0  0  0  0  0  0  0  0  0  0  0
   12.7406  -14.9294   20.1032 C   0  0  0  0  0  0  0  0  0  0  0  0
   13.4154  -14.3833   19.1663 O   0  0  0  0  0  0  0  0  0  0  0  0
    8.5500  -14.0548   20.1991 C   0  0  0  0  0  0  0  0  0  0  0  0
    8.2825  -12.9334   20.7951 O   0  0  0  0  0  0  0  0  0  0  0  0
   13.4817  -15.4540   21.1409 O   0  0  0  0  0  0  0  0  0  0  0  0
    8.1633  -15.2053   20.8788 N   0  0  0  0  0  0  0  0  0  0  0  0
    8.5908  -16.5539   20.6879 C   0  0  0  0  0  0  0  0  0  0  0  0
    7.4202  -17.3849   21.1687 C   0  0  0  0  0  0  0  0  0  0  0  0
    6.3941  -16.4287   21.6874 C   0  0  0  0  0  0  0  0  0  0  0  0
    7.2345  -15.2196   21.9974 C   0  0  1  0  0  0  0  0  0  0  0  0
    7.9285  -15.4006   23.2872 C   0  0  0  0  0  0  0  0  0  0  0  0
    8.9786  -16.0425   23.4782 O   0  0  0  0  0  0  0  0  0  0  0  0
    5.4801  -12.4019   27.4089 C   0  0  0  0  0  0  0  0  0  0  0  0
    6.0270  -13.4974   26.5110 C   0  0  0  0  0  0  0  0  0  0  0  0
    7.5008  -13.1816   26.2784 C   0  0  2  0  0  0  0  0  0  0  0  0
    7.5830  -11.8940   25.4785 C   0  0  0  0  0  0  0  0  0  0  0  0
    8.1665  -14.3287   25.5313 C   0  0  2  0  0  0  0  0  0  0  0  0
    7.3351  -14.7764   24.4261 N   0  0  0  0  0  0  0  0  0  0  0  0
    8.2297  -15.4754   26.5097 C   0  0  0  0  0  0  0  0  0  0  0  0
    7.4800  -16.6271   26.3197 O   0  0  0  0  0  0  0  0  0  0  0  0
    8.9629  -15.4267   27.5292 O   0  0  0  0  0  0  0  0  0  0  0  0
  2  7  1  0
  2  1  1  1
  3  2  1  0
  4  3  1  0
  5  9  1  0
  5  4  1  0
  6  5  2  0
  7  8  2  0
 10 14  1  0
 10  7  1  0
 11 10  1  0
 12 11  1  0
 12 13  1  0
 13 14  1  0
 15 22  1  0
 14 15  1  1
 16 15  2  0
 17 18  1  0
 19 18  1  0
 19 20  1  6
 21 22  1  6
 21 19  1  0
 23 21  1  0
 24 23  1  0
 25 23  2  0
M  END
$$$$
