EPI.pdb
     RDKit          3D

 25 25  0  0  1  0  0  0  0  0999 V2000
   12.1202  -17.3275   19.8639 N   0  0  0  0  0  0  0  0  0  0  0  0
   10.8063  -17.5154   20.3403 C   0  0  1  0  0  0  0  0  0  0  0  0
   10.5080  -18.8520   20.9655 C   0  0  0  0  0  0  0  0  0  0  0  0
   11.3677  -19.9858   20.5730 C   0  0  0  0  0  0  0  0  0  0  0  0
   11.4556  -21.0829   21.5393 C   0  0  0  0  0  0  0  0  0  0  0  0
   10.6209  -22.0421   21.4182 O   0  0  0  0  0  0  0  0  0  0  0  0
   10.1543  -16.4001   21.0372 C   0  0  0  0  0  0  0  0  0  0  0  0
   10.9895  -15.5714   21.5849 O   0  0  0  0  0  0  0  0  0  0  0  0
   12.3516  -21.2032   22.5803 O   0  0  0  0  0  0  0  0  0  0  0  0
    8.8070  -16.0963   21.2049 N   0  0  0  0  0  0  0  0  0  0  0  0
    7.6568  -16.8221   20.7714 C   0  0  0  0  0  0  0  0  0  0  0  0
    6.5879  -15.7616   20.6132 C   0  0  0  0  0  0  0  0  0  0  0  0
    7.1946  -14.4665   21.0495 C   0  0  0  0  0  0  0  0  0  0  0  0
    8.3157  -14.9389   21.9351 C   0  0  1  0  0  0  0  0  0  0  0  0
    7.7918  -15.3082   23.2643 C   0  0  0  0  0  0  0  0  0  0  0  0
    7.7540  -16.4535   23.7523 O   0  0  0  0  0  0  0  0  0  0  0  0
    6.8938  -11.4737   28.0819 C   0  0  0  0  0  0  0  0  0  0  0  0
    7.5227  -12.7434   27.5361 C   0  0  0  0  0  0  0  0  0  0  0  0
    7.0746  -12.8678   26.0836 C   0  0  2  0  0  0  0  0  0  0  0  0
    5.5630  -13.0068   26.0705 C   0  0  0  0  0  0  0  0  0  0  0  0
    7.7370  -14.0762   25.4371 C   0  0  2  0  0  0  0  0  0  0  0  0
    7.2790  -14.2450   24.0678 N   0  0  0  0  0  0  0  0  0  0  0  0
    7.2410  -15.2770   26.2042 C   0  0  0  0  0  0  0  0  0  0  0  0
    6.2644  -16.1126   25.6821 O   0  0  0  0  0  0  0  0  0  0  0  0
    7.6948  -15.5610   27.3412 O   0  0  0  0  0  0  0  0  0  0  0  0
  2  7  1  0
  2  1  1  1
  3  2  1  0
  4  3  1  0
  5  9  1  0
  5  4  1  0
  6  5  2  0
  7  8  2  0
 10 14  1  0
 10  7  1  0
 11 10  1  0
 12 11  1  0
 12 13  1  0
 13 14  1  0
 15 22  1  0
 14 15  1  1
 16 15  2  0
 17 18  1  0
 19 18  1  0
 19 20  1  1
 21 22  1  6
 21 19  1  0
 23 21  1  0
 24 23  1  0
 25 23  2  0
M  END
$$$$
