EPI.pdb
     RDKit          3D

 25 25  0  0  1  0  0  0  0  0999 V2000
   12.0504  -17.1886   19.7017 N   0  0  0  0  0  0  0  0  0  0  0  0
   10.6679  -17.2427   19.9743 C   0  0  1  0  0  0  0  0  0  0  0  0
   10.0723  -18.6161   20.1332 C   0  0  0  0  0  0  0  0  0  0  0  0
   10.3441  -19.3256   21.3987 C   0  0  0  0  0  0  0  0  0  0  0  0
    9.6952  -20.6298   21.5498 C   0  0  0  0  0  0  0  0  0  0  0  0
    9.9236  -21.2797   22.6254 O   0  0  0  0  0  0  0  0  0  0  0  0
   10.1066  -16.2641   20.9135 C   0  0  0  0  0  0  0  0  0  0  0  0
   10.9948  -15.7191   21.6870 O   0  0  0  0  0  0  0  0  0  0  0  0
    8.8503  -21.2463   20.6514 O   0  0  0  0  0  0  0  0  0  0  0  0
    8.7966  -15.8373   21.1064 N   0  0  0  0  0  0  0  0  0  0  0  0
    7.5930  -16.3167   20.5070 C   0  0  0  0  0  0  0  0  0  0  0  0
    6.6618  -15.1235   20.5409 C   0  0  0  0  0  0  0  0  0  0  0  0
    7.3913  -14.0244   21.2451 C   0  0  0  0  0  0  0  0  0  0  0  0
    8.4066  -14.7964   22.0437 C   0  0  1  0  0  0  0  0  0  0  0  0
    7.7800  -15.3548   23.2574 C   0  0  0  0  0  0  0  0  0  0  0  0
    7.5389  -16.5564   23.4792 O   0  0  0  0  0  0  0  0  0  0  0  0
    5.5330  -11.8602   26.9278 C   0  0  0  0  0  0  0  0  0  0  0  0
    6.0428  -12.8765   25.9216 C   0  0  0  0  0  0  0  0  0  0  0  0
    7.2313  -13.5796   26.5690 C   0  0  2  0  0  0  0  0  0  0  0  0
    8.3218  -12.5472   26.7908 C   0  0  0  0  0  0  0  0  0  0  0  0
    7.7231  -14.7044   25.6690 C   0  0  2  0  0  0  0  0  0  0  0  0
    7.4163  -14.4228   24.2763 N   0  0  0  0  0  0  0  0  0  0  0  0
    6.9120  -15.9190   26.0476 C   0  0  0  0  0  0  0  0  0  0  0  0
    7.2411  -16.6892   27.1535 O   0  0  0  0  0  0  0  0  0  0  0  0
    5.9118  -16.2743   25.3748 O   0  0  0  0  0  0  0  0  0  0  0  0
  2  7  1  0
  2  1  1  1
  3  2  1  0
  4  3  1  0
  5  9  1  0
  5  4  1  0
  6  5  2  0
  7  8  2  0
 10 14  1  0
 10  7  1  0
 11 10  1  0
 12 11  1  0
 12 13  1  0
 13 14  1  0
 15 22  1  0
 14 15  1  1
 16 15  2  0
 17 18  1  0
 19 18  1  0
 19 20  1  6
 21 22  1  6
 21 19  1  0
 23 21  1  0
 24 23  1  0
 25 23  2  0
M  END
$$$$
