EPI.pdb
     RDKit          3D

 25 25  0  0  1  0  0  0  0  0999 V2000
    9.9760  -17.2118   18.9396 N   0  0  0  0  0  0  0  0  0  0  0  0
    9.8278  -17.9098   20.1560 C   0  0  1  0  0  0  0  0  0  0  0  0
   11.0705  -18.5514   20.7129 C   0  0  0  0  0  0  0  0  0  0  0  0
   12.2888  -17.7202   20.7719 C   0  0  0  0  0  0  0  0  0  0  0  0
   13.4547  -18.3428   21.4029 C   0  0  0  0  0  0  0  0  0  0  0  0
   14.0175  -17.7066   22.3568 O   0  0  0  0  0  0  0  0  0  0  0  0
    8.9739  -17.3210   21.1947 C   0  0  0  0  0  0  0  0  0  0  0  0
    8.8279  -16.0366   21.0796 O   0  0  0  0  0  0  0  0  0  0  0  0
   14.0228  -19.5576   21.0827 O   0  0  0  0  0  0  0  0  0  0  0  0
    8.3103  -17.9090   22.2668 N   0  0  0  0  0  0  0  0  0  0  0  0
    8.4358  -19.2305   22.7916 C   0  0  0  0  0  0  0  0  0  0  0  0
    7.0889  -19.5065   23.4256 C   0  0  0  0  0  0  0  0  0  0  0  0
    6.2782  -18.2583   23.2812 C   0  0  0  0  0  0  0  0  0  0  0  0
    7.3511  -17.2167   23.1122 C   0  0  1  0  0  0  0  0  0  0  0  0
    7.9273  -16.8638   24.4241 C   0  0  0  0  0  0  0  0  0  0  0  0
    8.9423  -17.3638   24.9446 O   0  0  0  0  0  0  0  0  0  0  0  0
    5.6660  -12.0174   25.9472 C   0  0  0  0  0  0  0  0  0  0  0  0
    6.8024  -12.9030   25.4677 C   0  0  0  0  0  0  0  0  0  0  0  0
    7.1179  -13.8691   26.6048 C   0  0  2  0  0  0  0  0  0  0  0  0
    7.8275  -13.0901   27.6975 C   0  0  0  0  0  0  0  0  0  0  0  0
    7.9912  -15.0061   26.0935 C   0  0  2  0  0  0  0  0  0  0  0  0
    7.2524  -15.8480   25.1669 N   0  0  0  0  0  0  0  0  0  0  0  0
    8.2980  -15.8628   27.2969 C   0  0  0  0  0  0  0  0  0  0  0  0
    9.4278  -15.6404   28.0707 O   0  0  0  0  0  0  0  0  0  0  0  0
    7.5417  -16.8062   27.6392 O   0  0  0  0  0  0  0  0  0  0  0  0
  2  7  1  0
  2  1  1  6
  3  2  1  0
  4  3  1  0
  5  9  1  0
  5  4  1  0
  6  5  2  0
  7  8  2  0
 10 14  1  0
 10  7  1  0
 11 10  1  0
 12 11  1  0
 12 13  1  0
 13 14  1  0
 15 22  1  0
 14 15  1  1
 16 15  2  0
 17 18  1  0
 19 18  1  0
 19 20  1  1
 21 22  1  6
 21 19  1  0
 23 21  1  0
 24 23  1  0
 25 23  2  0
M  END
$$$$
