EPI.pdb
     RDKit          3D

 25 25  0  0  1  0  0  0  0  0999 V2000
   12.0446  -17.1649   19.8034 N   0  0  0  0  0  0  0  0  0  0  0  0
   10.6834  -17.2984   20.1470 C   0  0  1  0  0  0  0  0  0  0  0  0
   10.1919  -18.6996   20.3946 C   0  0  0  0  0  0  0  0  0  0  0  0
   10.4300  -19.2694   21.7353 C   0  0  0  0  0  0  0  0  0  0  0  0
    9.9409  -20.6342   21.9433 C   0  0  0  0  0  0  0  0  0  0  0  0
    9.3120  -21.1873   20.9790 O   0  0  0  0  0  0  0  0  0  0  0  0
   10.1008  -16.3168   21.0699 C   0  0  0  0  0  0  0  0  0  0  0  0
   10.9787  -15.7287   21.8235 O   0  0  0  0  0  0  0  0  0  0  0  0
   10.0856  -21.4047   23.0775 O   0  0  0  0  0  0  0  0  0  0  0  0
    8.7803  -15.9253   21.2654 N   0  0  0  0  0  0  0  0  0  0  0  0
    7.5818  -16.4965   20.7408 C   0  0  0  0  0  0  0  0  0  0  0  0
    6.6051  -15.3402   20.7059 C   0  0  0  0  0  0  0  0  0  0  0  0
    7.3081  -14.1612   21.2992 C   0  0  0  0  0  0  0  0  0  0  0  0
    8.3732  -14.8274   22.1275 C   0  0  1  0  0  0  0  0  0  0  0  0
    7.8003  -15.3091   23.3993 C   0  0  0  0  0  0  0  0  0  0  0  0
    7.5189  -16.4885   23.6839 O   0  0  0  0  0  0  0  0  0  0  0  0
    5.9912  -11.6793   27.3213 C   0  0  0  0  0  0  0  0  0  0  0  0
    6.2956  -12.7368   26.2752 C   0  0  0  0  0  0  0  0  0  0  0  0
    7.6430  -13.3479   26.6455 C   0  0  2  0  0  0  0  0  0  0  0  0
    8.7110  -12.2906   26.4312 C   0  0  0  0  0  0  0  0  0  0  0  0
    7.9118  -14.5740   25.7844 C   0  0  2  0  0  0  0  0  0  0  0  0
    7.5455  -14.3232   24.4002 N   0  0  0  0  0  0  0  0  0  0  0  0
    6.9740  -15.6436   26.2871 C   0  0  0  0  0  0  0  0  0  0  0  0
    7.2209  -16.3190   27.4734 O   0  0  0  0  0  0  0  0  0  0  0  0
    5.9383  -15.9591   25.6491 O   0  0  0  0  0  0  0  0  0  0  0  0
  2  7  1  0
  2  1  1  1
  3  2  1  0
  4  3  1  0
  5  9  1  0
  5  4  1  0
  6  5  2  0
  7  8  2  0
 10 14  1  0
 10  7  1  0
 11 10  1  0
 12 11  1  0
 12 13  1  0
 13 14  1  0
 15 22  1  0
 14 15  1  1
 16 15  2  0
 17 18  1  0
 19 18  1  0
 19 20  1  6
 21 22  1  6
 21 19  1  0
 23 21  1  0
 24 23  1  0
 25 23  2  0
M  END
$$$$
