MVE.pdb
     RDKit          3D

 25 24  0  0  1  0  0  0  0  0999 V2000
   10.0051  -13.1750   27.9177 C   0  0  0  0  0  0  0  0  0  0  0  0
    9.7215  -14.5464   28.9921 S   0  0  0  0  0  0  0  0  0  0  0  0
    8.7267  -15.8841   28.3882 C   0  0  0  0  0  0  0  0  0  0  0  0
    7.9431  -15.5792   27.1838 C   0  0  0  0  0  0  0  0  0  0  0  0
    7.0668  -16.6137   26.6095 C   0  0  2  0  0  0  0  0  0  0  0  0
    6.9582  -17.8513   27.2971 N   0  0  0  0  0  0  0  0  0  0  0  0
    7.3717  -16.8189   25.1788 C   0  0  0  0  0  0  0  0  0  0  0  0
    7.4061  -17.9512   24.6083 O   0  0  0  0  0  0  0  0  0  0  0  0
    8.0777  -14.5816   20.7852 C   0  0  0  0  0  0  0  0  0  0  0  0
    7.6613  -14.6242   22.2319 C   0  0  1  0  0  0  0  0  0  0  0  0
    6.1729  -14.4593   22.2966 C   0  0  0  0  0  0  0  0  0  0  0  0
    8.0963  -15.8941   22.9321 C   0  0  2  0  0  0  0  0  0  0  0  0
    7.6538  -15.7082   24.3291 N   0  0  0  0  0  0  0  0  0  0  0  0
    9.5570  -16.0411   22.9595 C   0  0  0  0  0  0  0  0  0  0  0  0
   10.2402  -15.2006   23.6452 O   0  0  0  0  0  0  0  0  0  0  0  0
   10.2945  -17.0388   22.2913 N   0  0  0  0  0  0  0  0  0  0  0  0
   11.7406  -17.1427   22.4758 C   0  0  1  0  0  0  0  0  0  0  0  0
   12.0676  -18.5058   23.0029 C   0  0  0  0  0  0  0  0  0  0  0  0
   12.9996  -18.5489   24.1607 C   0  0  0  0  0  0  0  0  0  0  0  0
   12.3611  -19.3137   25.2950 C   0  0  0  0  0  0  0  0  0  0  0  0
   11.4326  -20.1211   25.0525 O   0  0  0  0  0  0  0  0  0  0  0  0
   12.4633  -16.7529   21.2572 C   0  0  0  0  0  0  0  0  0  0  0  0
   11.8891  -16.8163   20.1423 O   0  0  0  0  0  0  0  0  0  0  0  0
   12.7617  -19.1605   26.6110 O   0  0  0  0  0  0  0  0  0  0  0  0
   13.7684  -16.3115   21.2870 O   0  0  0  0  0  0  0  0  0  0  0  0
  2  1  1  0
  3  2  1  0
  4  3  1  0
  5  7  1  0
  5  4  1  0
  5  6  1  1
  7  8  2  0
 10 12  1  0
 10  9  1  6
 11 10  1  0
 12 13  1  1
 13  7  1  0
 14 15  2  0
 14 12  1  0
 16 14  1  0
 17 22  1  0
 17 16  1  0
 17 18  1  6
 19 18  1  0
 20 19  1  0
 21 20  2  0
 22 25  1  0
 23 22  2  0
 24 20  1  0
M  END
$$$$
