MVE.pdb
     RDKit          3D

 25 24  0  0  1  0  0  0  0  0999 V2000
    8.7075  -21.7641   19.4212 C   0  0  0  0  0  0  0  0  0  0  0  0
    7.3836  -21.3229   18.3403 S   0  0  0  0  0  0  0  0  0  0  0  0
    7.5401  -19.8272   17.4011 C   0  0  0  0  0  0  0  0  0  0  0  0
    8.1073  -18.6896   18.1371 C   0  0  0  0  0  0  0  0  0  0  0  0
    8.2308  -17.3839   17.4680 C   0  0  2  0  0  0  0  0  0  0  0  0
    8.8311  -17.3489   16.1817 N   0  0  0  0  0  0  0  0  0  0  0  0
    8.8429  -16.3904   18.3737 C   0  0  0  0  0  0  0  0  0  0  0  0
   10.0672  -16.0596   18.3529 O   0  0  0  0  0  0  0  0  0  0  0  0
    7.8335  -13.0683   21.9777 C   0  0  0  0  0  0  0  0  0  0  0  0
    7.4775  -13.9571   20.8152 C   0  0  1  0  0  0  0  0  0  0  0  0
    6.9077  -13.0992   19.7261 C   0  0  0  0  0  0  0  0  0  0  0  0
    8.6547  -14.7635   20.3092 C   0  0  2  0  0  0  0  0  0  0  0  0
    8.0559  -15.7229   19.3588 N   0  0  0  0  0  0  0  0  0  0  0  0
    9.2874  -15.5515   21.3745 C   0  0  0  0  0  0  0  0  0  0  0  0
    8.7238  -16.6433   21.7401 O   0  0  0  0  0  0  0  0  0  0  0  0
   10.4798  -15.2158   22.0463 N   0  0  0  0  0  0  0  0  0  0  0  0
   11.1478  -16.1908   22.9060 C   0  0  1  0  0  0  0  0  0  0  0  0
   12.6153  -16.1784   22.6077 C   0  0  0  0  0  0  0  0  0  0  0  0
   13.4566  -17.0743   23.4447 C   0  0  0  0  0  0  0  0  0  0  0  0
   14.8960  -16.9764   23.0002 C   0  0  0  0  0  0  0  0  0  0  0  0
   15.4820  -15.8682   23.0378 O   0  0  0  0  0  0  0  0  0  0  0  0
   10.7944  -15.9878   24.3178 C   0  0  0  0  0  0  0  0  0  0  0  0
   11.1460  -16.8320   25.1783 O   0  0  0  0  0  0  0  0  0  0  0  0
   15.6084  -18.0729   22.5461 O   0  0  0  0  0  0  0  0  0  0  0  0
   10.0811  -14.8889   24.7454 O   0  0  0  0  0  0  0  0  0  0  0  0
  2  1  1  0
  3  2  1  0
  4  3  1  0
  5  7  1  0
  5  4  1  0
  5  6  1  6
  7  8  2  0
 10 12  1  0
 10  9  1  1
 11 10  1  0
 12 13  1  6
 13  7  1  0
 14 15  2  0
 14 12  1  0
 16 14  1  0
 17 22  1  0
 17 16  1  0
 17 18  1  1
 19 18  1  0
 20 19  1  0
 21 20  2  0
 22 25  1  0
 23 22  2  0
 24 20  1  0
M  END
$$$$
