MVE.pdb
     RDKit          3D

 25 24  0  0  1  0  0  0  0  0999 V2000
    5.1207  -12.2800   27.1789 C   0  0  0  0  0  0  0  0  0  0  0  0
    6.2783  -13.0125   26.0658 S   0  0  0  0  0  0  0  0  0  0  0  0
    7.3480  -14.2796   26.6933 C   0  0  0  0  0  0  0  0  0  0  0  0
    6.7332  -15.6086   26.8092 C   0  0  0  0  0  0  0  0  0  0  0  0
    6.1510  -16.2432   25.6150 C   0  0  2  0  0  0  0  0  0  0  0  0
    5.3981  -17.4338   25.7937 N   0  0  0  0  0  0  0  0  0  0  0  0
    7.1733  -16.4071   24.5615 C   0  0  0  0  0  0  0  0  0  0  0  0
    7.9816  -17.3821   24.4922 O   0  0  0  0  0  0  0  0  0  0  0  0
    8.9170  -14.3954   20.3131 C   0  0  0  0  0  0  0  0  0  0  0  0
    7.9399  -14.4902   21.4552 C   0  0  1  0  0  0  0  0  0  0  0  0
    6.5611  -14.6257   20.8830 C   0  0  0  0  0  0  0  0  0  0  0  0
    8.2485  -15.6323   22.4000 C   0  0  2  0  0  0  0  0  0  0  0  0
    7.3095  -15.4377   23.5236 N   0  0  0  0  0  0  0  0  0  0  0  0
    9.6056  -15.5443   22.9534 C   0  0  0  0  0  0  0  0  0  0  0  0
    9.9001  -14.5331   23.6843 O   0  0  0  0  0  0  0  0  0  0  0  0
   10.6360  -16.4848   22.7548 N   0  0  0  0  0  0  0  0  0  0  0  0
   11.9448  -16.2957   23.3772 C   0  0  1  0  0  0  0  0  0  0  0  0
   11.9519  -16.9745   24.7122 C   0  0  0  0  0  0  0  0  0  0  0  0
   12.9576  -18.0556   24.8865 C   0  0  0  0  0  0  0  0  0  0  0  0
   12.5126  -18.9867   25.9885 C   0  0  0  0  0  0  0  0  0  0  0  0
   11.9713  -20.0794   25.6954 O   0  0  0  0  0  0  0  0  0  0  0  0
   13.0298  -16.6907   22.4685 C   0  0  0  0  0  0  0  0  0  0  0  0
   12.7672  -17.3377   21.4249 O   0  0  0  0  0  0  0  0  0  0  0  0
   12.6784  -18.6827   27.3285 O   0  0  0  0  0  0  0  0  0  0  0  0
   14.3478  -16.3741   22.7173 O   0  0  0  0  0  0  0  0  0  0  0  0
  2  1  1  0
  3  2  1  0
  4  3  1  0
  5  7  1  0
  5  4  1  0
  5  6  1  1
  7  8  2  0
 10 12  1  0
 10  9  1  6
 11 10  1  0
 12 13  1  1
 13  7  1  0
 14 15  2  0
 14 12  1  0
 16 14  1  0
 17 22  1  0
 17 16  1  0
 17 18  1  1
 19 18  1  0
 20 19  1  0
 21 20  2  0
 22 25  1  0
 23 22  2  0
 24 20  1  0
M  END
$$$$
