MVE.pdb
     RDKit          3D

 25 24  0  0  1  0  0  0  0  0999 V2000
    7.4062  -21.0628   19.2228 C   0  0  0  0  0  0  0  0  0  0  0  0
    8.0533  -21.0475   17.5807 S   0  0  0  0  0  0  0  0  0  0  0  0
    8.2807  -19.4764   16.7910 C   0  0  0  0  0  0  0  0  0  0  0  0
    9.0268  -18.4879   17.5809 C   0  0  0  0  0  0  0  0  0  0  0  0
    9.1354  -17.1035   17.0915 C   0  0  2  0  0  0  0  0  0  0  0  0
    9.8878  -16.8720   15.9098 N   0  0  0  0  0  0  0  0  0  0  0  0
    9.5533  -16.1974   18.1808 C   0  0  0  0  0  0  0  0  0  0  0  0
   10.7448  -15.8063   18.3706 O   0  0  0  0  0  0  0  0  0  0  0  0
    7.8581  -13.1842   21.7836 C   0  0  0  0  0  0  0  0  0  0  0  0
    7.7258  -14.0322   20.5460 C   0  0  1  0  0  0  0  0  0  0  0  0
    7.3211  -13.1430   19.4092 C   0  0  0  0  0  0  0  0  0  0  0  0
    8.9931  -14.7914   20.2148 C   0  0  2  0  0  0  0  0  0  0  0  0
    8.5987  -15.6934   19.1135 N   0  0  0  0  0  0  0  0  0  0  0  0
    9.4392  -15.6399   21.3270 C   0  0  0  0  0  0  0  0  0  0  0  0
    8.7825  -16.7126   21.5750 O   0  0  0  0  0  0  0  0  0  0  0  0
   10.5433  -15.3831   22.1641 N   0  0  0  0  0  0  0  0  0  0  0  0
   10.9367  -16.3458   23.1911 C   0  0  1  0  0  0  0  0  0  0  0  0
   12.4176  -16.2605   23.3969 C   0  0  0  0  0  0  0  0  0  0  0  0
   13.2582  -16.5884   22.2151 C   0  0  0  0  0  0  0  0  0  0  0  0
   14.7173  -16.4943   22.5912 C   0  0  0  0  0  0  0  0  0  0  0  0
   15.1668  -15.4243   23.0666 O   0  0  0  0  0  0  0  0  0  0  0  0
   10.1260  -16.1902   24.4067 C   0  0  0  0  0  0  0  0  0  0  0  0
    9.3863  -15.1843   24.5407 O   0  0  0  0  0  0  0  0  0  0  0  0
   15.5941  -17.5534   22.4320 O   0  0  0  0  0  0  0  0  0  0  0  0
   10.1425  -17.1194   25.4242 O   0  0  0  0  0  0  0  0  0  0  0  0
  2  1  1  0
  3  2  1  0
  4  3  1  0
  5  7  1  0
  5  4  1  0
  5  6  1  6
  7  8  2  0
 10 12  1  0
 10  9  1  1
 11 10  1  0
 12 13  1  6
 13  7  1  0
 14 15  2  0
 14 12  1  0
 16 14  1  0
 17 22  1  0
 17 16  1  0
 17 18  1  1
 19 18  1  0
 20 19  1  0
 21 20  2  0
 22 25  1  0
 23 22  2  0
 24 20  1  0
M  END
$$$$
