MVE.pdb
     RDKit          3D

 25 24  0  0  1  0  0  0  0  0999 V2000
    6.4423  -10.7158   25.7068 C   0  0  0  0  0  0  0  0  0  0  0  0
    6.0657  -12.3323   26.3074 S   0  0  0  0  0  0  0  0  0  0  0  0
    5.3993  -13.5106   25.1622 C   0  0  0  0  0  0  0  0  0  0  0  0
    6.3785  -14.1008   24.2400 C   0  0  0  0  0  0  0  0  0  0  0  0
    6.9655  -15.4147   24.5515 C   0  0  2  0  0  0  0  0  0  0  0  0
    6.2497  -16.2731   25.4271 N   0  0  0  0  0  0  0  0  0  0  0  0
    8.3735  -15.2690   24.9738 C   0  0  0  0  0  0  0  0  0  0  0  0
    9.2598  -14.6478   24.3126 O   0  0  0  0  0  0  0  0  0  0  0  0
   11.4135  -15.1715   28.8167 C   0  0  0  0  0  0  0  0  0  0  0  0
   10.0885  -15.2506   28.1050 C   0  0  1  0  0  0  0  0  0  0  0  0
    9.4208  -13.9125   28.2067 C   0  0  0  0  0  0  0  0  0  0  0  0
   10.2220  -15.6806   26.6596 C   0  0  2  0  0  0  0  0  0  0  0  0
    8.8279  -15.8423   26.1987 N   0  0  0  0  0  0  0  0  0  0  0  0
   10.8734  -16.9898   26.5272 C   0  0  0  0  0  0  0  0  0  0  0  0
   10.1900  -17.9638   26.0499 O   0  0  0  0  0  0  0  0  0  0  0  0
   12.2055  -17.2837   26.8808 N   0  0  0  0  0  0  0  0  0  0  0  0
   12.9929  -18.2279   26.0905 C   0  0  1  0  0  0  0  0  0  0  0  0
   13.0108  -17.7726   24.6639 C   0  0  0  0  0  0  0  0  0  0  0  0
   13.7682  -18.6324   23.7164 C   0  0  0  0  0  0  0  0  0  0  0  0
   13.6553  -18.0678   22.3208 C   0  0  0  0  0  0  0  0  0  0  0  0
   13.8034  -18.8253   21.3322 O   0  0  0  0  0  0  0  0  0  0  0  0
   14.3144  -18.4547   26.6916 C   0  0  0  0  0  0  0  0  0  0  0  0
   14.9229  -17.5039   27.2416 O   0  0  0  0  0  0  0  0  0  0  0  0
   13.3913  -16.7305   22.0808 O   0  0  0  0  0  0  0  0  0  0  0  0
   14.9249  -19.6901   26.6781 O   0  0  0  0  0  0  0  0  0  0  0  0
  2  1  1  0
  3  2  1  0
  4  3  1  0
  5  7  1  0
  5  4  1  0
  5  6  1  1
  7  8  2  0
 10 12  1  0
 10  9  1  6
 11 10  1  0
 12 13  1  1
 13  7  1  0
 14 15  2  0
 14 12  1  0
 16 14  1  0
 17 22  1  0
 17 16  1  0
 17 18  1  6
 19 18  1  0
 20 19  1  0
 21 20  2  0
 22 25  1  0
 23 22  2  0
 24 20  1  0
M  END
$$$$
