MVE.pdb
     RDKit          3D

 25 24  0  0  1  0  0  0  0  0999 V2000
    7.9790  -11.3808   19.1533 C   0  0  0  0  0  0  0  0  0  0  0  0
    7.3124  -12.8760   18.4933 S   0  0  0  0  0  0  0  0  0  0  0  0
    7.2581  -14.2995   19.5489 C   0  0  0  0  0  0  0  0  0  0  0  0
    7.9997  -14.1650   20.8096 C   0  0  0  0  0  0  0  0  0  0  0  0
    7.9644  -15.2623   21.7907 C   0  0  2  0  0  0  0  0  0  0  0  0
    6.7358  -15.9491   21.9777 N   0  0  0  0  0  0  0  0  0  0  0  0
    8.5381  -14.8266   23.0803 C   0  0  0  0  0  0  0  0  0  0  0  0
    9.7579  -14.5274   23.2579 O   0  0  0  0  0  0  0  0  0  0  0  0
    7.4757  -13.0798   27.5999 C   0  0  0  0  0  0  0  0  0  0  0  0
    7.1124  -13.6065   26.2365 C   0  0  1  0  0  0  0  0  0  0  0  0
    6.6003  -12.4634   25.4132 C   0  0  0  0  0  0  0  0  0  0  0  0
    8.2693  -14.2962   25.5450 C   0  0  2  0  0  0  0  0  0  0  0  0
    7.7157  -14.7137   24.2406 N   0  0  0  0  0  0  0  0  0  0  0  0
    8.6874  -15.5170   26.2455 C   0  0  0  0  0  0  0  0  0  0  0  0
    7.8161  -16.4379   26.4357 O   0  0  0  0  0  0  0  0  0  0  0  0
    9.9816  -15.7789   26.7377 N   0  0  0  0  0  0  0  0  0  0  0  0
   10.3075  -17.0815   27.3147 C   0  0  1  0  0  0  0  0  0  0  0  0
   11.4332  -17.6907   26.5373 C   0  0  0  0  0  0  0  0  0  0  0  0
   12.0104  -18.9402   27.0996 C   0  0  0  0  0  0  0  0  0  0  0  0
   13.1670  -19.3934   26.2415 C   0  0  0  0  0  0  0  0  0  0  0  0
   13.6260  -18.6240   25.3639 O   0  0  0  0  0  0  0  0  0  0  0  0
   10.5292  -16.9827   28.7639 C   0  0  0  0  0  0  0  0  0  0  0  0
   10.6364  -18.0269   29.4529 O   0  0  0  0  0  0  0  0  0  0  0  0
   13.7521  -20.6397   26.3832 O   0  0  0  0  0  0  0  0  0  0  0  0
   10.6275  -15.7697   29.4105 O   0  0  0  0  0  0  0  0  0  0  0  0
  2  1  1  0
  3  2  1  0
  4  3  1  0
  5  7  1  0
  5  4  1  0
  5  6  1  1
  7  8  2  0
 10 12  1  0
 10  9  1  1
 11 10  1  0
 12 13  1  6
 13  7  1  0
 14 15  2  0
 14 12  1  0
 16 14  1  0
 17 22  1  0
 17 16  1  0
 17 18  1  6
 19 18  1  0
 20 19  1  0
 21 20  2  0
 22 25  1  0
 23 22  2  0
 24 20  1  0
M  END
$$$$
