MVE.pdb
     RDKit          3D

 25 24  0  0  1  0  0  0  0  0999 V2000
    8.6683  -11.6707   19.0388 C   0  0  0  0  0  0  0  0  0  0  0  0
    7.4064  -12.8605   18.7111 S   0  0  0  0  0  0  0  0  0  0  0  0
    7.3132  -14.2851   19.7626 C   0  0  0  0  0  0  0  0  0  0  0  0
    7.9742  -14.1377   21.0660 C   0  0  0  0  0  0  0  0  0  0  0  0
    8.0253  -15.2865   21.9855 C   0  0  2  0  0  0  0  0  0  0  0  0
    6.8403  -16.0474   22.1672 N   0  0  0  0  0  0  0  0  0  0  0  0
    8.6135  -14.8906   23.2814 C   0  0  0  0  0  0  0  0  0  0  0  0
    9.8089  -14.4953   23.4354 O   0  0  0  0  0  0  0  0  0  0  0  0
    7.5519  -13.3581   27.8604 C   0  0  0  0  0  0  0  0  0  0  0  0
    7.2009  -13.8803   26.4921 C   0  0  1  0  0  0  0  0  0  0  0  0
    6.6170  -12.7530   25.6953 C   0  0  0  0  0  0  0  0  0  0  0  0
    8.3849  -14.4937   25.7751 C   0  0  2  0  0  0  0  0  0  0  0  0
    7.8351  -14.9327   24.4762 N   0  0  0  0  0  0  0  0  0  0  0  0
    8.8871  -15.6931   26.4571 C   0  0  0  0  0  0  0  0  0  0  0  0
    8.0935  -16.6900   26.5979 O   0  0  0  0  0  0  0  0  0  0  0  0
   10.1849  -15.8568   26.9814 N   0  0  0  0  0  0  0  0  0  0  0  0
   10.5742  -17.1110   27.6227 C   0  0  1  0  0  0  0  0  0  0  0  0
   11.8583  -17.5891   27.0182 C   0  0  0  0  0  0  0  0  0  0  0  0
   11.7839  -18.0340   25.6014 C   0  0  0  0  0  0  0  0  0  0  0  0
   13.1538  -18.4635   25.1341 C   0  0  0  0  0  0  0  0  0  0  0  0
   14.1588  -17.7860   25.4563 O   0  0  0  0  0  0  0  0  0  0  0  0
   10.5816  -16.9819   29.0864 C   0  0  0  0  0  0  0  0  0  0  0  0
   10.8221  -17.9855   29.8017 O   0  0  0  0  0  0  0  0  0  0  0  0
   13.3521  -19.5893   24.3539 O   0  0  0  0  0  0  0  0  0  0  0  0
   10.3323  -15.7832   29.7190 O   0  0  0  0  0  0  0  0  0  0  0  0
  2  1  1  0
  3  2  1  0
  4  3  1  0
  5  7  1  0
  5  4  1  0
  5  6  1  1
  7  8  2  0
 10 12  1  0
 10  9  1  1
 11 10  1  0
 12 13  1  6
 13  7  1  0
 14 15  2  0
 14 12  1  0
 16 14  1  0
 17 22  1  0
 17 16  1  0
 17 18  1  6
 19 18  1  0
 20 19  1  0
 21 20  2  0
 22 25  1  0
 23 22  2  0
 24 20  1  0
M  END
$$$$
