MVE.pdb
     RDKit          3D

 25 24  0  0  1  0  0  0  0  0999 V2000
    6.1891  -10.7658   26.3194 C   0  0  0  0  0  0  0  0  0  0  0  0
    7.4495  -11.7997   26.9962 S   0  0  0  0  0  0  0  0  0  0  0  0
    7.0077  -13.4519   27.4639 C   0  0  0  0  0  0  0  0  0  0  0  0
    6.6595  -14.3401   26.3471 C   0  0  0  0  0  0  0  0  0  0  0  0
    7.6897  -15.2244   25.7773 C   0  0  2  0  0  0  0  0  0  0  0  0
    9.0501  -14.9260   26.0534 N   0  0  0  0  0  0  0  0  0  0  0  0
    7.4654  -15.4205   24.3305 C   0  0  0  0  0  0  0  0  0  0  0  0
    6.3921  -15.8699   23.8257 O   0  0  0  0  0  0  0  0  0  0  0  0
    8.3876  -13.9466   19.8270 C   0  0  0  0  0  0  0  0  0  0  0  0
    8.5445  -13.9519   21.3249 C   0  0  1  0  0  0  0  0  0  0  0  0
    7.6112  -12.9284   21.8978 C   0  0  0  0  0  0  0  0  0  0  0  0
    8.2964  -15.3139   21.9375 C   0  0  2  0  0  0  0  0  0  0  0  0
    8.4863  -15.1002   23.3868 N   0  0  0  0  0  0  0  0  0  0  0  0
    9.2948  -16.3038   21.5142 C   0  0  0  0  0  0  0  0  0  0  0  0
    9.9278  -16.0990   20.4184 O   0  0  0  0  0  0  0  0  0  0  0  0
    9.6312  -17.4809   22.2121 N   0  0  0  0  0  0  0  0  0  0  0  0
   11.0236  -17.9139   22.3106 C   0  0  1  0  0  0  0  0  0  0  0  0
   11.9168  -16.7691   21.9436 C   0  0  0  0  0  0  0  0  0  0  0  0
   13.3696  -16.9751   22.1836 C   0  0  0  0  0  0  0  0  0  0  0  0
   14.1300  -15.7371   21.7732 C   0  0  0  0  0  0  0  0  0  0  0  0
   14.2137  -15.4356   20.5587 O   0  0  0  0  0  0  0  0  0  0  0  0
   11.2997  -18.5297   23.6158 C   0  0  0  0  0  0  0  0  0  0  0  0
   10.5184  -18.3317   24.5787 O   0  0  0  0  0  0  0  0  0  0  0  0
   14.7481  -14.9074   22.6926 O   0  0  0  0  0  0  0  0  0  0  0  0
   12.3998  -19.3313   23.8316 O   0  0  0  0  0  0  0  0  0  0  0  0
  2  1  1  0
  3  2  1  0
  4  3  1  0
  5  7  1  0
  5  4  1  0
  5  6  1  6
  7  8  2  0
 10 12  1  0
 10  9  1  6
 11 10  1  0
 12 13  1  1
 13  7  1  0
 14 15  2  0
 14 12  1  0
 16 14  1  0
 17 22  1  0
 17 16  1  0
 17 18  1  1
 19 18  1  0
 20 19  1  0
 21 20  2  0
 22 25  1  0
 23 22  2  0
 24 20  1  0
M  END
$$$$
