MVE.pdb
     RDKit          3D

 25 24  0  0  1  0  0  0  0  0999 V2000
    5.7003  -10.9465   26.5452 C   0  0  0  0  0  0  0  0  0  0  0  0
    6.4654  -12.1236   27.6151 S   0  0  0  0  0  0  0  0  0  0  0  0
    6.2969  -13.8429   27.2161 C   0  0  0  0  0  0  0  0  0  0  0  0
    6.3462  -14.1541   25.7814 C   0  0  0  0  0  0  0  0  0  0  0  0
    6.1291  -15.5398   25.3335 C   0  0  2  0  0  0  0  0  0  0  0  0
    5.9150  -16.5340   26.3243 N   0  0  0  0  0  0  0  0  0  0  0  0
    7.1800  -15.9493   24.3795 C   0  0  0  0  0  0  0  0  0  0  0  0
    7.8834  -16.9985   24.4946 O   0  0  0  0  0  0  0  0  0  0  0  0
    9.2568  -14.8051   19.9607 C   0  0  0  0  0  0  0  0  0  0  0  0
    8.3593  -14.5242   21.1371 C   0  0  1  0  0  0  0  0  0  0  0  0
    6.9609  -14.3448   20.6280 C   0  0  0  0  0  0  0  0  0  0  0  0
    8.4163  -15.6083   22.1924 C   0  0  2  0  0  0  0  0  0  0  0  0
    7.4693  -15.1539   23.2311 N   0  0  0  0  0  0  0  0  0  0  0  0
    9.7380  -15.6987   22.8253 C   0  0  0  0  0  0  0  0  0  0  0  0
   10.1528  -14.6995   23.5130 O   0  0  0  0  0  0  0  0  0  0  0  0
   10.6116  -16.8018   22.7483 N   0  0  0  0  0  0  0  0  0  0  0  0
   11.8787  -16.7983   23.4766 C   0  0  1  0  0  0  0  0  0  0  0  0
   11.9996  -18.0750   24.2499 C   0  0  0  0  0  0  0  0  0  0  0  0
   13.2945  -18.2926   24.9475 C   0  0  0  0  0  0  0  0  0  0  0  0
   13.2522  -19.6044   25.6937 C   0  0  0  0  0  0  0  0  0  0  0  0
   13.5870  -20.6615   25.1077 O   0  0  0  0  0  0  0  0  0  0  0  0
   13.0064  -16.4984   22.5835 C   0  0  0  0  0  0  0  0  0  0  0  0
   12.9069  -16.7252   21.3525 O   0  0  0  0  0  0  0  0  0  0  0  0
   12.8542  -19.6929   27.0163 O   0  0  0  0  0  0  0  0  0  0  0  0
   14.1902  -15.9678   23.0484 O   0  0  0  0  0  0  0  0  0  0  0  0
  2  1  1  0
  3  2  1  0
  4  3  1  0
  5  7  1  0
  5  4  1  0
  5  6  1  1
  7  8  2  0
 10 12  1  0
 10  9  1  6
 11 10  1  0
 12 13  1  1
 13  7  1  0
 14 15  2  0
 14 12  1  0
 16 14  1  0
 17 22  1  0
 17 16  1  0
 17 18  1  6
 19 18  1  0
 20 19  1  0
 21 20  2  0
 22 25  1  0
 23 22  2  0
 24 20  1  0
M  END
$$$$
