MVE.pdb
     RDKit          3D

 25 24  0  0  1  0  0  0  0  0999 V2000
    0.8472  -26.4677   29.4590 C   0  0  0  0  0  0  0  0  0  0  0  0
   -0.1304  -26.1663   30.8973 S   0  0  0  0  0  0  0  0  0  0  0  0
    0.7107  -25.9331   32.4407 C   0  0  0  0  0  0  0  0  0  0  0  0
   -0.1676  -25.7428   33.6026 C   0  0  0  0  0  0  0  0  0  0  0  0
    0.4268  -25.4747   34.9228 C   0  0  2  0  0  0  0  0  0  0  0  0
    1.5637  -26.2332   35.3076 N   0  0  0  0  0  0  0  0  0  0  0  0
   -0.6109  -25.4908   35.9740 C   0  0  0  0  0  0  0  0  0  0  0  0
   -0.7887  -26.4443   36.7913 O   0  0  0  0  0  0  0  0  0  0  0  0
   -3.6250  -22.7599   38.7203 C   0  0  0  0  0  0  0  0  0  0  0  0
   -2.4093  -23.1321   37.9131 C   0  0  1  0  0  0  0  0  0  0  0  0
   -1.2418  -23.2417   38.8468 C   0  0  0  0  0  0  0  0  0  0  0  0
   -2.5951  -24.4121   37.1261 C   0  0  2  0  0  0  0  0  0  0  0  0
   -1.5029  -24.3887   36.1318 N   0  0  0  0  0  0  0  0  0  0  0  0
   -3.8581  -24.4257   36.3775 C   0  0  0  0  0  0  0  0  0  0  0  0
   -4.0882  -23.4694   35.5553 O   0  0  0  0  0  0  0  0  0  0  0  0
   -4.8614  -25.4102   36.4776 N   0  0  0  0  0  0  0  0  0  0  0  0
   -6.0870  -25.3048   35.6884 C   0  0  1  0  0  0  0  0  0  0  0  0
   -6.0297  -26.2940   34.5654 C   0  0  0  0  0  0  0  0  0  0  0  0
   -7.2282  -26.3510   33.6873 C   0  0  0  0  0  0  0  0  0  0  0  0
   -7.0326  -27.4146   32.6339 C   0  0  0  0  0  0  0  0  0  0  0  0
   -5.9714  -28.0828   32.6177 O   0  0  0  0  0  0  0  0  0  0  0  0
   -7.2801  -25.3948   36.5413 C   0  0  0  0  0  0  0  0  0  0  0  0
   -7.2246  -26.0161   37.6311 O   0  0  0  0  0  0  0  0  0  0  0  0
   -7.9878  -27.6890   31.6705 O   0  0  0  0  0  0  0  0  0  0  0  0
   -8.4795  -24.8141   36.1898 O   0  0  0  0  0  0  0  0  0  0  0  0
  2  1  1  0
  3  2  1  0
  4  3  1  0
  5  7  1  0
  5  4  1  0
  5  6  1  1
  7  8  2  0
 10 12  1  0
 10  9  1  1
 11 10  1  0
 12 13  1  6
 13  7  1  0
 14 15  2  0
 14 12  1  0
 16 14  1  0
 17 22  1  0
 17 16  1  0
 17 18  1  6
 19 18  1  0
 20 19  1  0
 21 20  2  0
 22 25  1  0
 23 22  2  0
 24 20  1  0
M  END
$$$$
