MVE.pdb
     RDKit          3D

 25 24  0  0  1  0  0  0  0  0999 V2000
    5.8919  -21.0248   20.6127 C   0  0  0  0  0  0  0  0  0  0  0  0
    5.2582  -20.8444   18.9752 S   0  0  0  0  0  0  0  0  0  0  0  0
    5.8616  -19.4967   17.9937 C   0  0  0  0  0  0  0  0  0  0  0  0
    6.7793  -18.5852   18.6898 C   0  0  0  0  0  0  0  0  0  0  0  0
    7.2924  -17.3980   17.9860 C   0  0  2  0  0  0  0  0  0  0  0  0
    7.7453  -17.5599   16.6501 N   0  0  0  0  0  0  0  0  0  0  0  0
    8.2956  -16.6959   18.8122 C   0  0  0  0  0  0  0  0  0  0  0  0
    9.5503  -16.8335   18.6874 O   0  0  0  0  0  0  0  0  0  0  0  0
    7.6319  -12.9782   19.9155 C   0  0  0  0  0  0  0  0  0  0  0  0
    8.1300  -13.7958   21.0780 C   0  0  1  0  0  0  0  0  0  0  0  0
    6.9568  -14.1444   21.9434 C   0  0  0  0  0  0  0  0  0  0  0  0
    8.8728  -15.0421   20.6452 C   0  0  2  0  0  0  0  0  0  0  0  0
    7.8886  -15.7882   19.8347 N   0  0  0  0  0  0  0  0  0  0  0  0
    9.2310  -15.8986   21.7827 C   0  0  0  0  0  0  0  0  0  0  0  0
    8.3588  -16.7332   22.2142 O   0  0  0  0  0  0  0  0  0  0  0  0
   10.4676  -15.8916   22.4585 N   0  0  0  0  0  0  0  0  0  0  0  0
   10.7979  -16.9469   23.4142 C   0  0  1  0  0  0  0  0  0  0  0  0
   12.1631  -17.4772   23.1014 C   0  0  0  0  0  0  0  0  0  0  0  0
   13.2938  -16.5403   23.3347 C   0  0  0  0  0  0  0  0  0  0  0  0
   14.3003  -16.6750   22.2175 C   0  0  0  0  0  0  0  0  0  0  0  0
   14.4023  -15.7633   21.3623 O   0  0  0  0  0  0  0  0  0  0  0  0
   10.6049  -16.4927   24.7982 C   0  0  0  0  0  0  0  0  0  0  0  0
   10.7829  -17.2926   25.7496 O   0  0  0  0  0  0  0  0  0  0  0  0
   15.1281  -17.7773   22.0937 O   0  0  0  0  0  0  0  0  0  0  0  0
   10.2311  -15.2015   25.1019 O   0  0  0  0  0  0  0  0  0  0  0  0
  2  1  1  0
  3  2  1  0
  4  3  1  0
  5  7  1  0
  5  4  1  0
  5  6  1  6
  7  8  2  0
 10 12  1  0
 10  9  1  6
 11 10  1  0
 12 13  1  6
 13  7  1  0
 14 15  2  0
 14 12  1  0
 16 14  1  0
 17 22  1  0
 17 16  1  0
 17 18  1  1
 19 18  1  0
 20 19  1  0
 21 20  2  0
 22 25  1  0
 23 22  2  0
 24 20  1  0
M  END
$$$$
