MVE.pdb
     RDKit          3D

 25 24  0  0  1  0  0  0  0  0999 V2000
    5.0059  -19.6027   23.3634 C   0  0  0  0  0  0  0  0  0  0  0  0
    4.8103  -19.1148   21.6784 S   0  0  0  0  0  0  0  0  0  0  0  0
    5.2652  -17.4598   21.2336 C   0  0  0  0  0  0  0  0  0  0  0  0
    5.9944  -16.7175   22.2704 C   0  0  0  0  0  0  0  0  0  0  0  0
    6.3901  -15.3219   22.0183 C   0  0  2  0  0  0  0  0  0  0  0  0
    6.8350  -14.9813   20.7136 N   0  0  0  0  0  0  0  0  0  0  0  0
    7.3402  -14.8557   23.0488 C   0  0  0  0  0  0  0  0  0  0  0  0
    8.5970  -14.7933   22.8896 O   0  0  0  0  0  0  0  0  0  0  0  0
    7.6591  -12.9091   27.6511 C   0  0  0  0  0  0  0  0  0  0  0  0
    6.9326  -13.2675   26.3815 C   0  0  1  0  0  0  0  0  0  0  0  0
    6.3896  -12.0067   25.7798 C   0  0  0  0  0  0  0  0  0  0  0  0
    7.8078  -14.0066   25.3916 C   0  0  2  0  0  0  0  0  0  0  0  0
    6.8742  -14.4328   24.3291 N   0  0  0  0  0  0  0  0  0  0  0  0
    8.3903  -15.2255   25.9667 C   0  0  0  0  0  0  0  0  0  0  0  0
    7.6215  -16.2320   26.1652 O   0  0  0  0  0  0  0  0  0  0  0  0
    9.7414  -15.3986   26.3278 N   0  0  0  0  0  0  0  0  0  0  0  0
   10.2516  -16.7209   26.6845 C   0  0  1  0  0  0  0  0  0  0  0  0
   11.4292  -17.0392   25.8159 C   0  0  0  0  0  0  0  0  0  0  0  0
   12.2060  -18.2500   26.1918 C   0  0  0  0  0  0  0  0  0  0  0  0
   13.3662  -18.4213   25.2411 C   0  0  0  0  0  0  0  0  0  0  0  0
   13.2893  -19.2639   24.3153 O   0  0  0  0  0  0  0  0  0  0  0  0
   10.4931  -16.8273   28.1300 C   0  0  0  0  0  0  0  0  0  0  0  0
   10.5121  -15.7910   28.8389 O   0  0  0  0  0  0  0  0  0  0  0  0
   14.5288  -17.6778   25.3479 O   0  0  0  0  0  0  0  0  0  0  0  0
   10.7023  -18.0389   28.7523 O   0  0  0  0  0  0  0  0  0  0  0  0
  2  1  1  0
  3  2  1  0
  4  3  1  0
  5  7  1  0
  5  4  1  0
  5  6  1  6
  7  8  2  0
 10 12  1  0
 10  9  1  1
 11 10  1  0
 12 13  1  6
 13  7  1  0
 14 15  2  0
 14 12  1  0
 16 14  1  0
 17 22  1  0
 17 16  1  0
 17 18  1  6
 19 18  1  0
 20 19  1  0
 21 20  2  0
 22 25  1  0
 23 22  2  0
 24 20  1  0
M  END
$$$$
