MVE.pdb
     RDKit          3D

 25 24  0  0  1  0  0  0  0  0999 V2000
    6.8022  -11.2510   25.8065 C   0  0  0  0  0  0  0  0  0  0  0  0
    6.5876  -12.1543   27.3077 S   0  0  0  0  0  0  0  0  0  0  0  0
    6.4606  -13.9198   27.2050 C   0  0  0  0  0  0  0  0  0  0  0  0
    7.1465  -14.5248   26.0556 C   0  0  0  0  0  0  0  0  0  0  0  0
    6.4313  -15.5026   25.2187 C   0  0  2  0  0  0  0  0  0  0  0  0
    5.7845  -16.5875   25.8674 N   0  0  0  0  0  0  0  0  0  0  0  0
    7.2935  -15.9730   24.1153 C   0  0  0  0  0  0  0  0  0  0  0  0
    7.8653  -17.1048   24.0848 O   0  0  0  0  0  0  0  0  0  0  0  0
    6.6146  -14.7062   20.3139 C   0  0  0  0  0  0  0  0  0  0  0  0
    8.0597  -14.6404   20.7331 C   0  0  1  0  0  0  0  0  0  0  0  0
    8.3719  -13.2265   21.1205 C   0  0  0  0  0  0  0  0  0  0  0  0
    8.3892  -15.5960   21.8602 C   0  0  2  0  0  0  0  0  0  0  0  0
    7.5368  -15.1451   22.9793 N   0  0  0  0  0  0  0  0  0  0  0  0
    9.7832  -15.4719   22.3043 C   0  0  0  0  0  0  0  0  0  0  0  0
   10.0288  -14.7697   23.3483 O   0  0  0  0  0  0  0  0  0  0  0  0
   10.8995  -16.0638   21.6803 N   0  0  0  0  0  0  0  0  0  0  0  0
   12.0663  -16.4602   22.4661 C   0  0  1  0  0  0  0  0  0  0  0  0
   11.6320  -17.4145   23.5355 C   0  0  0  0  0  0  0  0  0  0  0  0
   12.7226  -18.0598   24.3133 C   0  0  0  0  0  0  0  0  0  0  0  0
   12.1296  -19.0342   25.3022 C   0  0  0  0  0  0  0  0  0  0  0  0
   11.4791  -18.6022   26.2836 O   0  0  0  0  0  0  0  0  0  0  0  0
   13.1531  -16.9412   21.6020 C   0  0  0  0  0  0  0  0  0  0  0  0
   12.8922  -17.3808   20.4551 O   0  0  0  0  0  0  0  0  0  0  0  0
   12.2745  -20.4045   25.1713 O   0  0  0  0  0  0  0  0  0  0  0  0
   14.4711  -16.9286   22.0041 O   0  0  0  0  0  0  0  0  0  0  0  0
  2  1  1  0
  3  2  1  0
  4  3  1  0
  5  7  1  0
  5  4  1  0
  5  6  1  1
  7  8  2  0
 10 12  1  0
 10  9  1  1
 11 10  1  0
 12 13  1  1
 13  7  1  0
 14 15  2  0
 14 12  1  0
 16 14  1  0
 17 22  1  0
 17 16  1  0
 17 18  1  1
 19 18  1  0
 20 19  1  0
 21 20  2  0
 22 25  1  0
 23 22  2  0
 24 20  1  0
M  END
$$$$
