IQV.pdb
     RDKit          3D

 25 24  0  0  1  0  0  0  0  0999 V2000
    7.6243  -11.9076   19.4297 C   0  0  0  0  0  0  0  0  0  0  0  0
    7.4368  -13.3963   19.5026 C   0  0  0  0  0  0  0  0  0  0  0  0
    8.7611  -14.0809   19.3403 C   0  0  2  0  0  0  0  0  0  0  0  0
    9.3653  -13.5969   18.0463 C   0  0  0  0  0  0  0  0  0  0  0  0
    8.6216  -15.5487   19.4364 C   0  0  2  0  0  0  0  0  0  0  0  0
    7.8858  -16.1265   18.3363 N   0  0  0  0  0  0  0  0  0  0  0  0
    8.0794  -16.0417   20.7025 C   0  0  0  0  0  0  0  0  0  0  0  0
    6.8861  -16.4276   20.8570 O   0  0  0  0  0  0  0  0  0  0  0  0
   10.1560  -20.4991   23.2744 N   0  0  0  0  0  0  0  0  0  0  0  0
   10.8048  -19.3606   23.8277 C   0  0  0  0  0  0  0  0  0  0  0  0
   11.7182  -19.5763   24.6726 O   0  0  0  0  0  0  0  0  0  0  0  0
   10.4026  -17.9993   23.4097 C   0  0  0  0  0  0  0  0  0  0  0  0
    8.8943  -17.9079   23.4920 C   0  0  0  0  0  0  0  0  0  0  0  0
    8.4173  -16.5128   23.1461 C   0  0  2  0  0  0  0  0  0  0  0  0
    8.9175  -16.1010   21.8411 N   0  0  0  0  0  0  0  0  0  0  0  0
    8.8005  -15.5306   24.1672 C   0  0  0  0  0  0  0  0  0  0  0  0
    9.9306  -14.9595   24.0941 O   0  0  0  0  0  0  0  0  0  0  0  0
    7.2554  -12.3642   27.6278 C   0  0  0  0  0  0  0  0  0  0  0  0
    7.0364  -13.4366   26.6120 C   0  0  1  0  0  0  0  0  0  0  0  0
    6.3064  -12.9879   25.3861 C   0  0  0  0  0  0  0  0  0  0  0  0
    8.3584  -14.0983   26.1987 C   0  0  2  0  0  0  0  0  0  0  0  0
    7.9861  -15.1543   25.2649 N   0  0  0  0  0  0  0  0  0  0  0  0
    9.0197  -14.6407   27.3998 C   0  0  0  0  0  0  0  0  0  0  0  0
    8.8795  -15.8510   27.6572 O   0  0  0  0  0  0  0  0  0  0  0  0
    9.7914  -13.8733   28.2601 O   0  0  0  0  0  0  0  0  0  0  0  0
  2  1  1  0
  3  2  1  0
  3  5  1  0
  3  4  1  6
  5  6  1  6
  7  5  1  0
  7  8  2  0
 10  9  1  0
 10 12  1  0
 11 10  2  0
 13 12  1  0
 14 13  1  1
 15 14  1  0
 15  7  1  0
 16 14  1  0
 17 16  2  0
 19 18  1  1
 19 21  1  0
 20 19  1  0
 21 22  1  6
 21 23  1  0
 22 16  1  0
 23 25  1  0
 24 23  2  0
M  END
$$$$
