IQV.pdb
     RDKit          3D

 25 24  0  0  1  0  0  0  0  0999 V2000
    7.9470  -12.4173   18.4907 C   0  0  0  0  0  0  0  0  0  0  0  0
    7.9393  -13.8933   18.7704 C   0  0  0  0  0  0  0  0  0  0  0  0
    7.5808  -14.1335   20.2065 C   0  0  2  0  0  0  0  0  0  0  0  0
    8.6237  -13.4496   21.0540 C   0  0  0  0  0  0  0  0  0  0  0  0
    7.4189  -15.5755   20.4851 C   0  0  2  0  0  0  0  0  0  0  0  0
    6.5309  -16.2404   19.5604 N   0  0  0  0  0  0  0  0  0  0  0  0
    7.0354  -15.9059   21.8576 C   0  0  0  0  0  0  0  0  0  0  0  0
    5.8677  -15.7622   22.3186 O   0  0  0  0  0  0  0  0  0  0  0  0
    7.0005  -20.4555   25.1126 N   0  0  0  0  0  0  0  0  0  0  0  0
    7.1824  -19.5930   26.2289 C   0  0  0  0  0  0  0  0  0  0  0  0
    6.7952  -20.0208   27.3522 O   0  0  0  0  0  0  0  0  0  0  0  0
    7.8007  -18.2610   26.0464 C   0  0  0  0  0  0  0  0  0  0  0  0
    8.0455  -18.0542   24.5674 C   0  0  0  0  0  0  0  0  0  0  0  0
    7.7277  -16.6306   24.1605 C   0  0  2  0  0  0  0  0  0  0  0  0
    8.0094  -16.4188   22.7468 N   0  0  0  0  0  0  0  0  0  0  0  0
    8.4561  -15.6495   24.9736 C   0  0  0  0  0  0  0  0  0  0  0  0
    9.6966  -15.4716   24.7781 O   0  0  0  0  0  0  0  0  0  0  0  0
    7.3760  -11.9672   25.7486 C   0  0  0  0  0  0  0  0  0  0  0  0
    7.6571  -12.7158   27.0096 C   0  0  1  0  0  0  0  0  0  0  0  0
    6.4386  -13.2266   27.7107 C   0  0  0  0  0  0  0  0  0  0  0  0
    8.6262  -13.8814   26.7677 C   0  0  2  0  0  0  0  0  0  0  0  0
    7.8698  -14.8579   25.9930 N   0  0  0  0  0  0  0  0  0  0  0  0
    9.0522  -14.4294   28.0686 C   0  0  0  0  0  0  0  0  0  0  0  0
    8.6163  -15.5440   28.4129 O   0  0  0  0  0  0  0  0  0  0  0  0
    9.9144  -13.7685   28.9313 O   0  0  0  0  0  0  0  0  0  0  0  0
  2  1  1  0
  3  2  1  0
  3  5  1  0
  3  4  1  1
  5  6  1  6
  7  5  1  0
  7  8  2  0
 10  9  1  0
 10 12  1  0
 11 10  2  0
 13 12  1  0
 14 13  1  1
 15 14  1  0
 15  7  1  0
 16 14  1  0
 17 16  2  0
 19 18  1  6
 19 21  1  0
 20 19  1  0
 21 22  1  6
 21 23  1  0
 22 16  1  0
 23 25  1  0
 24 23  2  0
M  END
$$$$
