IQV.pdb
     RDKit          3D

 25 24  0  0  1  0  0  0  0  0999 V2000
    7.8503  -12.4271   18.5412 C   0  0  0  0  0  0  0  0  0  0  0  0
    7.8540  -13.9155   18.7450 C   0  0  0  0  0  0  0  0  0  0  0  0
    7.4598  -14.2332   20.1565 C   0  0  2  0  0  0  0  0  0  0  0  0
    8.3762  -13.4567   21.0681 C   0  0  0  0  0  0  0  0  0  0  0  0
    7.4534  -15.6911   20.3966 C   0  0  2  0  0  0  0  0  0  0  0  0
    6.7148  -16.4314   19.4006 N   0  0  0  0  0  0  0  0  0  0  0  0
    7.0220  -16.1008   21.7330 C   0  0  0  0  0  0  0  0  0  0  0  0
    5.8230  -16.0636   22.1302 O   0  0  0  0  0  0  0  0  0  0  0  0
    6.8973  -20.0574   26.0823 N   0  0  0  0  0  0  0  0  0  0  0  0
    6.5020  -20.1311   24.7179 C   0  0  0  0  0  0  0  0  0  0  0  0
    5.6198  -20.9850   24.4226 O   0  0  0  0  0  0  0  0  0  0  0  0
    7.1173  -19.2326   23.7159 C   0  0  0  0  0  0  0  0  0  0  0  0
    7.9949  -18.2412   24.4487 C   0  0  0  0  0  0  0  0  0  0  0  0
    7.6498  -16.8199   24.0560 C   0  0  2  0  0  0  0  0  0  0  0  0
    7.9826  -16.5710   22.6595 N   0  0  0  0  0  0  0  0  0  0  0  0
    8.3132  -15.8339   24.9172 C   0  0  0  0  0  0  0  0  0  0  0  0
    9.5643  -15.6528   24.8136 O   0  0  0  0  0  0  0  0  0  0  0  0
    7.8474  -11.9398   27.9497 C   0  0  0  0  0  0  0  0  0  0  0  0
    7.2747  -13.0288   27.1036 C   0  0  1  0  0  0  0  0  0  0  0  0
    6.5749  -12.5515   25.8709 C   0  0  0  0  0  0  0  0  0  0  0  0
    8.3444  -14.0573   26.7107 C   0  0  2  0  0  0  0  0  0  0  0  0
    7.6507  -15.0404   25.8874 N   0  0  0  0  0  0  0  0  0  0  0  0
    8.8987  -14.6647   27.9347 C   0  0  0  0  0  0  0  0  0  0  0  0
    8.4385  -15.7580   28.3137 O   0  0  0  0  0  0  0  0  0  0  0  0
    9.9074  -14.0823   28.6880 O   0  0  0  0  0  0  0  0  0  0  0  0
  2  1  1  0
  3  2  1  0
  3  5  1  0
  3  4  1  1
  5  6  1  6
  7  5  1  0
  7  8  2  0
 10  9  1  0
 10 12  1  0
 11 10  2  0
 13 12  1  0
 14 13  1  1
 15 14  1  0
 15  7  1  0
 16 14  1  0
 17 16  2  0
 19 18  1  6
 19 21  1  0
 20 19  1  0
 21 22  1  6
 21 23  1  0
 22 16  1  0
 23 25  1  0
 24 23  2  0
M  END
$$$$
