IQV.pdb
     RDKit          3D

 25 24  0  0  1  0  0  0  0  0999 V2000
    5.9862  -11.0209   26.9009 C   0  0  0  0  0  0  0  0  0  0  0  0
    5.6109  -12.2280   26.0892 C   0  0  0  0  0  0  0  0  0  0  0  0
    6.8058  -13.1195   25.9274 C   0  0  2  0  0  0  0  0  0  0  0  0
    7.8635  -12.3308   25.1974 C   0  0  0  0  0  0  0  0  0  0  0  0
    6.4396  -14.3950   25.2776 C   0  0  2  0  0  0  0  0  0  0  0  0
    5.2035  -14.9545   25.7723 N   0  0  0  0  0  0  0  0  0  0  0  0
    7.4819  -15.4214   25.2878 C   0  0  0  0  0  0  0  0  0  0  0  0
    7.6660  -16.2314   26.2400 O   0  0  0  0  0  0  0  0  0  0  0  0
   11.0113  -16.9665   20.2916 N   0  0  0  0  0  0  0  0  0  0  0  0
   11.6335  -17.7263   21.3206 C   0  0  0  0  0  0  0  0  0  0  0  0
   12.5992  -18.4662   20.9820 O   0  0  0  0  0  0  0  0  0  0  0  0
   11.1456  -17.6303   22.7144 C   0  0  0  0  0  0  0  0  0  0  0  0
    9.9724  -16.6747   22.7377 C   0  0  0  0  0  0  0  0  0  0  0  0
    9.4278  -16.5211   24.1424 C   0  0  2  0  0  0  0  0  0  0  0  0
    8.3526  -15.5384   24.1785 N   0  0  0  0  0  0  0  0  0  0  0  0
   10.4763  -16.1585   25.1032 C   0  0  0  0  0  0  0  0  0  0  0  0
   11.4603  -15.4554   24.7209 O   0  0  0  0  0  0  0  0  0  0  0  0
   11.0228  -13.8794   27.4903 C   0  0  0  0  0  0  0  0  0  0  0  0
   11.1943  -15.1467   28.2612 C   0  0  1  0  0  0  0  0  0  0  0  0
    9.9932  -15.5573   29.0522 C   0  0  0  0  0  0  0  0  0  0  0  0
   11.6190  -16.3064   27.3496 C   0  0  2  0  0  0  0  0  0  0  0  0
   10.4816  -16.5411   26.4683 N   0  0  0  0  0  0  0  0  0  0  0  0
   11.9168  -17.4868   28.1817 C   0  0  0  0  0  0  0  0  0  0  0  0
   11.1274  -18.4493   28.1478 O   0  0  0  0  0  0  0  0  0  0  0  0
   13.0316  -17.5825   29.0018 O   0  0  0  0  0  0  0  0  0  0  0  0
  2  1  1  0
  3  2  1  0
  3  5  1  0
  3  4  1  6
  5  6  1  1
  7  5  1  0
  7  8  2  0
 10  9  1  0
 10 12  1  0
 11 10  2  0
 13 12  1  0
 14 13  1  6
 15 14  1  0
 15  7  1  0
 16 14  1  0
 17 16  2  0
 19 18  1  6
 19 21  1  0
 20 19  1  0
 21 22  1  6
 21 23  1  0
 22 16  1  0
 23 25  1  0
 24 23  2  0
M  END
$$$$
