IQV.pdb
     RDKit          3D

 25 24  0  0  1  0  0  0  0  0999 V2000
    7.7583  -12.1939   18.2857 C   0  0  0  0  0  0  0  0  0  0  0  0
    7.9296  -13.6665   18.5277 C   0  0  0  0  0  0  0  0  0  0  0  0
    7.7623  -13.9614   19.9884 C   0  0  2  0  0  0  0  0  0  0  0  0
    8.8286  -13.1954   20.7299 C   0  0  0  0  0  0  0  0  0  0  0  0
    7.7664  -15.4163   20.2460 C   0  0  2  0  0  0  0  0  0  0  0  0
    6.7974  -16.1395   19.4565 N   0  0  0  0  0  0  0  0  0  0  0  0
    7.6395  -15.8006   21.6518 C   0  0  0  0  0  0  0  0  0  0  0  0
    6.5375  -15.8827   22.2647 O   0  0  0  0  0  0  0  0  0  0  0  0
   11.1407  -19.8958   24.4858 N   0  0  0  0  0  0  0  0  0  0  0  0
   10.4471  -19.3719   25.6117 C   0  0  0  0  0  0  0  0  0  0  0  0
   10.6260  -19.9557   26.7170 O   0  0  0  0  0  0  0  0  0  0  0  0
    9.5636  -18.1947   25.4589 C   0  0  0  0  0  0  0  0  0  0  0  0
    9.5821  -17.7778   24.0043 C   0  0  0  0  0  0  0  0  0  0  0  0
    8.7385  -16.5392   23.7859 C   0  0  2  0  0  0  0  0  0  0  0  0
    8.8036  -16.1042   22.3969 N   0  0  0  0  0  0  0  0  0  0  0  0
    9.1299  -15.4416   24.6781 C   0  0  0  0  0  0  0  0  0  0  0  0
   10.2615  -14.8880   24.5309 O   0  0  0  0  0  0  0  0  0  0  0  0
    7.3139  -12.2078   25.5504 C   0  0  0  0  0  0  0  0  0  0  0  0
    7.6027  -12.9425   26.8179 C   0  0  1  0  0  0  0  0  0  0  0  0
    6.4351  -13.6894   27.3800 C   0  0  0  0  0  0  0  0  0  0  0  0
    8.7861  -13.9060   26.6524 C   0  0  2  0  0  0  0  0  0  0  0  0
    8.3223  -14.9315   25.7256 N   0  0  0  0  0  0  0  0  0  0  0  0
    9.1292  -14.4754   27.9686 C   0  0  0  0  0  0  0  0  0  0  0  0
    8.8037  -15.6535   28.2069 O   0  0  0  0  0  0  0  0  0  0  0  0
    9.7966  -13.7675   28.9574 O   0  0  0  0  0  0  0  0  0  0  0  0
  2  1  1  0
  3  2  1  0
  3  5  1  0
  3  4  1  1
  5  6  1  6
  7  5  1  0
  7  8  2  0
 10  9  1  0
 10 12  1  0
 11 10  2  0
 13 12  1  0
 14 13  1  6
 15 14  1  0
 15  7  1  0
 16 14  1  0
 17 16  2  0
 19 18  1  6
 19 21  1  0
 20 19  1  0
 21 22  1  6
 21 23  1  0
 22 16  1  0
 23 25  1  0
 24 23  2  0
M  END
$$$$
