IQV.pdb
     RDKit          3D

 25 24  0  0  1  0  0  0  0  0999 V2000
    7.6825  -12.0756   18.3351 C   0  0  0  0  0  0  0  0  0  0  0  0
    7.9591  -13.5355   18.5556 C   0  0  0  0  0  0  0  0  0  0  0  0
    7.8194  -13.8619   20.0125 C   0  0  2  0  0  0  0  0  0  0  0  0
    8.7994  -12.9983   20.7658 C   0  0  0  0  0  0  0  0  0  0  0  0
    7.9726  -15.3113   20.2548 C   0  0  2  0  0  0  0  0  0  0  0  0
    7.1483  -16.1255   19.3927 N   0  0  0  0  0  0  0  0  0  0  0  0
    7.7960  -15.7330   21.6444 C   0  0  0  0  0  0  0  0  0  0  0  0
    6.6706  -15.8845   22.1988 O   0  0  0  0  0  0  0  0  0  0  0  0
   11.1765  -19.8945   24.2970 N   0  0  0  0  0  0  0  0  0  0  0  0
   10.1635  -19.9600   23.3005 C   0  0  0  0  0  0  0  0  0  0  0  0
   10.0758  -21.0344   22.6428 O   0  0  0  0  0  0  0  0  0  0  0  0
    9.2701  -18.8027   23.0713 C   0  0  0  0  0  0  0  0  0  0  0  0
    9.6673  -17.7037   24.0328 C   0  0  0  0  0  0  0  0  0  0  0  0
    8.8242  -16.4645   23.8159 C   0  0  2  0  0  0  0  0  0  0  0  0
    8.9357  -15.9940   22.4415 N   0  0  0  0  0  0  0  0  0  0  0  0
    9.1769  -15.3879   24.7490 C   0  0  0  0  0  0  0  0  0  0  0  0
   10.2815  -14.7792   24.6143 O   0  0  0  0  0  0  0  0  0  0  0  0
    7.1223  -12.3442   25.8648 C   0  0  0  0  0  0  0  0  0  0  0  0
    7.5517  -13.1017   27.0779 C   0  0  1  0  0  0  0  0  0  0  0  0
    6.4860  -13.9614   27.6800 C   0  0  0  0  0  0  0  0  0  0  0  0
    8.7926  -13.9598   26.7951 C   0  0  2  0  0  0  0  0  0  0  0  0
    8.3592  -14.9571   25.8240 N   0  0  0  0  0  0  0  0  0  0  0  0
    9.2420  -14.5834   28.0535 C   0  0  0  0  0  0  0  0  0  0  0  0
    9.0531  -15.8043   28.2096 O   0  0  0  0  0  0  0  0  0  0  0  0
    9.8650  -13.8813   29.0749 O   0  0  0  0  0  0  0  0  0  0  0  0
  2  1  1  0
  3  2  1  0
  3  5  1  0
  3  4  1  1
  5  6  1  6
  7  5  1  0
  7  8  2  0
 10  9  1  0
 10 12  1  0
 11 10  2  0
 13 12  1  0
 14 13  1  6
 15 14  1  0
 15  7  1  0
 16 14  1  0
 17 16  2  0
 19 18  1  6
 19 21  1  0
 20 19  1  0
 21 22  1  6
 21 23  1  0
 22 16  1  0
 23 25  1  0
 24 23  2  0
M  END
$$$$
