IQV.pdb
     RDKit          3D

 25 24  0  0  1  0  0  0  0  0999 V2000
    8.2055  -12.5701   18.2446 C   0  0  0  0  0  0  0  0  0  0  0  0
    8.2901  -14.0318   18.5804 C   0  0  0  0  0  0  0  0  0  0  0  0
    7.6924  -14.2746   19.9341 C   0  0  2  0  0  0  0  0  0  0  0  0
    8.4948  -13.4791   20.9325 C   0  0  0  0  0  0  0  0  0  0  0  0
    7.6085  -15.7194   20.2323 C   0  0  2  0  0  0  0  0  0  0  0  0
    6.9328  -16.4769   19.2052 N   0  0  0  0  0  0  0  0  0  0  0  0
    7.0451  -16.0541   21.5402 C   0  0  0  0  0  0  0  0  0  0  0  0
    5.8099  -16.0257   21.8051 O   0  0  0  0  0  0  0  0  0  0  0  0
    8.0943  -20.4390   25.4643 N   0  0  0  0  0  0  0  0  0  0  0  0
    7.3586  -19.5504   26.2965 C   0  0  0  0  0  0  0  0  0  0  0  0
    6.9050  -20.0211   27.3769 O   0  0  0  0  0  0  0  0  0  0  0  0
    7.1530  -18.1442   25.8841 C   0  0  0  0  0  0  0  0  0  0  0  0
    7.6543  -17.9918   24.4644 C   0  0  0  0  0  0  0  0  0  0  0  0
    7.4409  -16.5784   23.9642 C   0  0  2  0  0  0  0  0  0  0  0  0
    7.9107  -16.4360   22.5924 N   0  0  0  0  0  0  0  0  0  0  0  0
    8.0908  -15.5847   24.8269 C   0  0  0  0  0  0  0  0  0  0  0  0
    9.3460  -15.4175   24.7542 O   0  0  0  0  0  0  0  0  0  0  0  0
    7.4878  -11.7087   27.8945 C   0  0  0  0  0  0  0  0  0  0  0  0
    6.9490  -12.8631   27.1154 C   0  0  1  0  0  0  0  0  0  0  0  0
    6.0073  -12.4829   26.0174 C   0  0  0  0  0  0  0  0  0  0  0  0
    8.0782  -13.7264   26.5359 C   0  0  2  0  0  0  0  0  0  0  0  0
    7.4106  -14.7691   25.7659 N   0  0  0  0  0  0  0  0  0  0  0  0
    8.8693  -14.2899   27.6453 C   0  0  0  0  0  0  0  0  0  0  0  0
    8.6385  -15.4604   28.0023 O   0  0  0  0  0  0  0  0  0  0  0  0
    9.8590  -13.5845   28.3141 O   0  0  0  0  0  0  0  0  0  0  0  0
  2  1  1  0
  3  2  1  0
  3  5  1  0
  3  4  1  1
  5  6  1  6
  7  5  1  0
  7  8  2  0
 10  9  1  0
 10 12  1  0
 11 10  2  0
 13 12  1  0
 14 13  1  1
 15 14  1  0
 15  7  1  0
 16 14  1  0
 17 16  2  0
 19 18  1  6
 19 21  1  0
 20 19  1  0
 21 22  1  1
 21 23  1  0
 22 16  1  0
 23 25  1  0
 24 23  2  0
M  END
$$$$
