IQV.pdb
     RDKit          3D

 25 24  0  0  1  0  0  0  0  0999 V2000
    5.7375  -11.2669   26.3224 C   0  0  0  0  0  0  0  0  0  0  0  0
    5.5237  -12.5430   25.5593 C   0  0  0  0  0  0  0  0  0  0  0  0
    6.7897  -13.3469   25.5542 C   0  0  2  0  0  0  0  0  0  0  0  0
    7.8518  -12.5144   24.8814 C   0  0  0  0  0  0  0  0  0  0  0  0
    6.5790  -14.6757   24.9434 C   0  0  2  0  0  0  0  0  0  0  0  0
    5.3766  -15.3314   25.4014 N   0  0  0  0  0  0  0  0  0  0  0  0
    7.7109  -15.5965   25.0487 C   0  0  0  0  0  0  0  0  0  0  0  0
    7.8823  -16.3975   26.0109 O   0  0  0  0  0  0  0  0  0  0  0  0
   10.0417  -18.9753   21.4839 N   0  0  0  0  0  0  0  0  0  0  0  0
   11.3216  -18.8119   22.0827 C   0  0  0  0  0  0  0  0  0  0  0  0
   12.1074  -19.7990   22.0328 O   0  0  0  0  0  0  0  0  0  0  0  0
   11.6830  -17.5293   22.7264 C   0  0  0  0  0  0  0  0  0  0  0  0
   10.4707  -16.6244   22.6863 C   0  0  0  0  0  0  0  0  0  0  0  0
    9.8070  -16.5490   24.0454 C   0  0  2  0  0  0  0  0  0  0  0  0
    8.6898  -15.6139   24.0271 N   0  0  0  0  0  0  0  0  0  0  0  0
   10.7564  -16.1815   25.1026 C   0  0  0  0  0  0  0  0  0  0  0  0
   11.7776  -15.4871   24.8136 O   0  0  0  0  0  0  0  0  0  0  0  0
   11.1938  -13.8856   27.5740 C   0  0  0  0  0  0  0  0  0  0  0  0
   11.1915  -15.1766   28.3244 C   0  0  1  0  0  0  0  0  0  0  0  0
    9.8724  -15.5380   28.9300 C   0  0  0  0  0  0  0  0  0  0  0  0
   11.6795  -16.3379   27.4473 C   0  0  2  0  0  0  0  0  0  0  0  0
   10.6231  -16.5501   26.4650 N   0  0  0  0  0  0  0  0  0  0  0  0
   11.8827  -17.5272   28.2949 C   0  0  0  0  0  0  0  0  0  0  0  0
   11.0617  -18.4599   28.2129 O   0  0  0  0  0  0  0  0  0  0  0  0
   12.9417  -17.6629   29.1806 O   0  0  0  0  0  0  0  0  0  0  0  0
  2  1  1  0
  3  2  1  0
  3  5  1  0
  3  4  1  6
  5  6  1  1
  7  5  1  0
  7  8  2  0
 10  9  1  0
 10 12  1  0
 11 10  2  0
 13 12  1  0
 14 13  1  6
 15 14  1  0
 15  7  1  0
 16 14  1  0
 17 16  2  0
 19 18  1  6
 19 21  1  0
 20 19  1  0
 21 22  1  6
 21 23  1  0
 22 16  1  0
 23 25  1  0
 24 23  2  0
M  END
$$$$
