IQV.pdb
     RDKit          3D

 25 24  0  0  1  0  0  0  0  0999 V2000
    7.6568  -12.3224   18.9751 C   0  0  0  0  0  0  0  0  0  0  0  0
    7.4774  -13.7956   19.2075 C   0  0  0  0  0  0  0  0  0  0  0  0
    7.3971  -14.0689   20.6797 C   0  0  2  0  0  0  0  0  0  0  0  0
    8.7082  -13.6437   21.2912 C   0  0  0  0  0  0  0  0  0  0  0  0
    7.0283  -15.4748   20.9452 C   0  0  2  0  0  0  0  0  0  0  0  0
    5.9086  -15.9311   20.1554 N   0  0  0  0  0  0  0  0  0  0  0  0
    6.8035  -15.8051   22.3525 C   0  0  0  0  0  0  0  0  0  0  0  0
    5.7809  -15.4528   23.0058 O   0  0  0  0  0  0  0  0  0  0  0  0
    8.1825  -21.0045   25.7486 N   0  0  0  0  0  0  0  0  0  0  0  0
    7.2096  -20.1352   26.3152 C   0  0  0  0  0  0  0  0  0  0  0  0
    6.2500  -20.6751   26.9335 O   0  0  0  0  0  0  0  0  0  0  0  0
    7.3466  -18.6691   26.1678 C   0  0  0  0  0  0  0  0  0  0  0  0
    7.4932  -18.3557   24.6946 C   0  0  0  0  0  0  0  0  0  0  0  0
    7.6386  -16.8651   24.4706 C   0  0  2  0  0  0  0  0  0  0  0  0
    7.7724  -16.5633   23.0515 N   0  0  0  0  0  0  0  0  0  0  0  0
    8.7718  -16.3040   25.2158 C   0  0  0  0  0  0  0  0  0  0  0  0
    9.9525  -16.4821   24.7881 O   0  0  0  0  0  0  0  0  0  0  0  0
    7.8869  -13.5285   27.6494 C   0  0  0  0  0  0  0  0  0  0  0  0
    9.3689  -13.6976   27.7196 C   0  0  1  0  0  0  0  0  0  0  0  0
    9.9466  -13.5304   29.0891 C   0  0  0  0  0  0  0  0  0  0  0  0
    9.8079  -15.0532   27.1486 C   0  0  2  0  0  0  0  0  0  0  0  0
    8.6531  -15.5546   26.4133 N   0  0  0  0  0  0  0  0  0  0  0  0
   10.1753  -15.9469   28.2623 C   0  0  0  0  0  0  0  0  0  0  0  0
    9.3949  -16.8695   28.5631 O   0  0  0  0  0  0  0  0  0  0  0  0
   11.3462  -15.8147   28.9945 O   0  0  0  0  0  0  0  0  0  0  0  0
  2  1  1  0
  3  2  1  0
  3  5  1  0
  3  4  1  1
  5  6  1  6
  7  5  1  0
  7  8  2  0
 10  9  1  0
 10 12  1  0
 11 10  2  0
 13 12  1  0
 14 13  1  6
 15 14  1  0
 15  7  1  0
 16 14  1  0
 17 16  2  0
 19 18  1  1
 19 21  1  0
 20 19  1  0
 21 22  1  1
 21 23  1  0
 22 16  1  0
 23 25  1  0
 24 23  2  0
M  END
$$$$
