IQV.pdb
     RDKit          3D

 25 24  0  0  1  0  0  0  0  0999 V2000
    7.4549  -11.9807   18.3009 C   0  0  0  0  0  0  0  0  0  0  0  0
    7.9867  -13.3736   18.4846 C   0  0  0  0  0  0  0  0  0  0  0  0
    7.7798  -13.8104   19.9041 C   0  0  2  0  0  0  0  0  0  0  0  0
    8.5619  -12.8698   20.7857 C   0  0  0  0  0  0  0  0  0  0  0  0
    8.1204  -15.2371   20.0816 C   0  0  2  0  0  0  0  0  0  0  0  0
    7.4553  -16.1054   19.1386 N   0  0  0  0  0  0  0  0  0  0  0  0
    7.9421  -15.7565   21.4375 C   0  0  0  0  0  0  0  0  0  0  0  0
    6.8320  -16.1334   21.9089 O   0  0  0  0  0  0  0  0  0  0  0  0
   11.3587  -19.6381   24.4508 N   0  0  0  0  0  0  0  0  0  0  0  0
   10.6157  -19.1283   25.5515 C   0  0  0  0  0  0  0  0  0  0  0  0
   10.7715  -19.7052   26.6639 O   0  0  0  0  0  0  0  0  0  0  0  0
    9.7101  -17.9727   25.3660 C   0  0  0  0  0  0  0  0  0  0  0  0
    9.8338  -17.5031   23.9327 C   0  0  0  0  0  0  0  0  0  0  0  0
    8.9386  -16.3090   23.6757 C   0  0  2  0  0  0  0  0  0  0  0  0
    9.0620  -15.8540   22.2970 N   0  0  0  0  0  0  0  0  0  0  0  0
    9.2164  -15.2031   24.5997 C   0  0  0  0  0  0  0  0  0  0  0  0
   10.3071  -14.5633   24.5009 O   0  0  0  0  0  0  0  0  0  0  0  0
    7.1842  -12.0966   25.4308 C   0  0  0  0  0  0  0  0  0  0  0  0
    7.4399  -12.8476   26.6959 C   0  0  1  0  0  0  0  0  0  0  0  0
    6.2893  -13.6804   27.1646 C   0  0  0  0  0  0  0  0  0  0  0  0
    8.6897  -13.7315   26.5824 C   0  0  2  0  0  0  0  0  0  0  0  0
    8.3385  -14.7759   25.6276 N   0  0  0  0  0  0  0  0  0  0  0  0
    9.0047  -14.2902   27.9102 C   0  0  0  0  0  0  0  0  0  0  0  0
    9.4211  -13.5178   28.7938 O   0  0  0  0  0  0  0  0  0  0  0  0
    8.8618  -15.6328   28.2282 O   0  0  0  0  0  0  0  0  0  0  0  0
  2  1  1  0
  3  2  1  0
  3  5  1  0
  3  4  1  1
  5  6  1  6
  7  5  1  0
  7  8  2  0
 10  9  1  0
 10 12  1  0
 11 10  2  0
 13 12  1  0
 14 13  1  1
 15 14  1  0
 15  7  1  0
 16 14  1  0
 17 16  2  0
 19 18  1  6
 19 21  1  0
 20 19  1  0
 21 22  1  6
 21 23  1  0
 22 16  1  0
 23 25  1  0
 24 23  2  0
M  END
$$$$
