IQV.pdb
     RDKit          3D

 25 24  0  0  1  0  0  0  0  0999 V2000
    7.8272  -12.3119   18.3513 C   0  0  0  0  0  0  0  0  0  0  0  0
    7.9723  -13.7781   18.6444 C   0  0  0  0  0  0  0  0  0  0  0  0
    7.7236  -14.0291   20.1018 C   0  0  2  0  0  0  0  0  0  0  0  0
    8.7538  -13.2482   20.8779 C   0  0  0  0  0  0  0  0  0  0  0  0
    7.7026  -15.4759   20.4011 C   0  0  2  0  0  0  0  0  0  0  0  0
    6.8173  -16.2251   19.5406 N   0  0  0  0  0  0  0  0  0  0  0  0
    7.4365  -15.8195   21.7979 C   0  0  0  0  0  0  0  0  0  0  0  0
    6.2860  -15.8111   22.3204 O   0  0  0  0  0  0  0  0  0  0  0  0
   10.0180  -20.1847   25.0833 N   0  0  0  0  0  0  0  0  0  0  0  0
    9.3300  -19.4952   26.1199 C   0  0  0  0  0  0  0  0  0  0  0  0
    9.2825  -20.0587   27.2490 O   0  0  0  0  0  0  0  0  0  0  0  0
    8.7095  -18.1786   25.8526 C   0  0  0  0  0  0  0  0  0  0  0  0
    8.9561  -17.8279   24.4013 C   0  0  0  0  0  0  0  0  0  0  0  0
    8.3166  -16.5011   24.0493 C   0  0  2  0  0  0  0  0  0  0  0  0
    8.5126  -16.1871   22.6401 N   0  0  0  0  0  0  0  0  0  0  0  0
    8.8223  -15.4066   24.8861 C   0  0  0  0  0  0  0  0  0  0  0  0
   10.0238  -15.0220   24.7555 O   0  0  0  0  0  0  0  0  0  0  0  0
    7.2729  -11.8964   25.5707 C   0  0  0  0  0  0  0  0  0  0  0  0
    7.4983  -12.6288   26.8522 C   0  0  1  0  0  0  0  0  0  0  0  0
    6.2760  -13.2817   27.4152 C   0  0  0  0  0  0  0  0  0  0  0  0
    8.6115  -13.6766   26.7128 C   0  0  2  0  0  0  0  0  0  0  0  0
    8.0547  -14.7204   25.8607 N   0  0  0  0  0  0  0  0  0  0  0  0
    8.9564  -14.1914   28.0509 C   0  0  0  0  0  0  0  0  0  0  0  0
    8.5985  -15.3456   28.3514 O   0  0  0  0  0  0  0  0  0  0  0  0
    9.6597  -13.4572   28.9946 O   0  0  0  0  0  0  0  0  0  0  0  0
  2  1  1  0
  3  2  1  0
  3  5  1  0
  3  4  1  1
  5  6  1  6
  7  5  1  0
  7  8  2  0
 10  9  1  0
 10 12  1  0
 11 10  2  0
 13 12  1  0
 14 13  1  1
 15 14  1  0
 15  7  1  0
 16 14  1  0
 17 16  2  0
 19 18  1  6
 19 21  1  0
 20 19  1  0
 21 22  1  6
 21 23  1  0
 22 16  1  0
 23 25  1  0
 24 23  2  0
M  END
$$$$
