IQV.pdb
     RDKit          3D

 25 24  0  0  1  0  0  0  0  0999 V2000
    8.2199  -12.3610   19.5249 C   0  0  0  0  0  0  0  0  0  0  0  0
    7.7371  -13.7794   19.6336 C   0  0  0  0  0  0  0  0  0  0  0  0
    7.6154  -14.1624   21.0783 C   0  0  2  0  0  0  0  0  0  0  0  0
    8.9680  -13.9642   21.7146 C   0  0  0  0  0  0  0  0  0  0  0  0
    7.0654  -15.5256   21.2275 C   0  0  2  0  0  0  0  0  0  0  0  0
    5.8681  -15.7473   20.4512 N   0  0  0  0  0  0  0  0  0  0  0  0
    6.8441  -15.9608   22.6065 C   0  0  0  0  0  0  0  0  0  0  0  0
    5.8265  -15.6530   23.2894 O   0  0  0  0  0  0  0  0  0  0  0  0
    6.5483  -21.0412   25.2671 N   0  0  0  0  0  0  0  0  0  0  0  0
    7.0392  -20.3427   26.4048 C   0  0  0  0  0  0  0  0  0  0  0  0
    6.7936  -20.8467   27.5363 O   0  0  0  0  0  0  0  0  0  0  0  0
    7.7999  -19.0848   26.2339 C   0  0  0  0  0  0  0  0  0  0  0  0
    7.7171  -18.6786   24.7785 C   0  0  0  0  0  0  0  0  0  0  0  0
    7.6891  -17.1710   24.6386 C   0  0  2  0  0  0  0  0  0  0  0  0
    7.8108  -16.7763   23.2413 N   0  0  0  0  0  0  0  0  0  0  0  0
    8.7348  -16.5238   25.4396 C   0  0  0  0  0  0  0  0  0  0  0  0
    9.9479  -16.6210   25.0821 O   0  0  0  0  0  0  0  0  0  0  0  0
    9.8476  -13.6020   29.3307 C   0  0  0  0  0  0  0  0  0  0  0  0
    8.8666  -14.2579   28.4158 C   0  0  1  0  0  0  0  0  0  0  0  0
    7.9795  -13.3078   27.6758 C   0  0  0  0  0  0  0  0  0  0  0  0
    9.5666  -15.1824   27.4101 C   0  0  2  0  0  0  0  0  0  0  0  0
    8.4946  -15.7741   26.6186 N   0  0  0  0  0  0  0  0  0  0  0  0
   10.3280  -16.2066   28.1489 C   0  0  0  0  0  0  0  0  0  0  0  0
    9.7232  -17.2177   28.5519 O   0  0  0  0  0  0  0  0  0  0  0  0
   11.6846  -16.1036   28.4194 O   0  0  0  0  0  0  0  0  0  0  0  0
  2  1  1  0
  3  2  1  0
  3  5  1  0
  3  4  1  6
  5  6  1  6
  7  5  1  0
  7  8  2  0
 10  9  1  0
 10 12  1  0
 11 10  2  0
 13 12  1  0
 14 13  1  6
 15 14  1  0
 15  7  1  0
 16 14  1  0
 17 16  2  0
 19 18  1  6
 19 21  1  0
 20 19  1  0
 21 22  1  6
 21 23  1  0
 22 16  1  0
 23 25  1  0
 24 23  2  0
M  END
$$$$
