IQV.pdb
     RDKit          3D

 25 24  0  0  1  0  0  0  0  0999 V2000
    5.8740  -11.0603   26.6929 C   0  0  0  0  0  0  0  0  0  0  0  0
    5.5446  -12.2451   25.8301 C   0  0  0  0  0  0  0  0  0  0  0  0
    6.6841  -13.2197   25.8537 C   0  0  2  0  0  0  0  0  0  0  0  0
    7.8946  -12.5143   25.2962 C   0  0  0  0  0  0  0  0  0  0  0  0
    6.3329  -14.4728   25.1542 C   0  0  2  0  0  0  0  0  0  0  0  0
    5.0588  -15.0172   25.5613 N   0  0  0  0  0  0  0  0  0  0  0  0
    7.3526  -15.5206   25.2029 C   0  0  0  0  0  0  0  0  0  0  0  0
    7.4235  -16.3952   26.1122 O   0  0  0  0  0  0  0  0  0  0  0  0
   10.0996  -19.2915   22.3219 N   0  0  0  0  0  0  0  0  0  0  0  0
    9.1732  -18.5185   21.5685 C   0  0  0  0  0  0  0  0  0  0  0  0
    8.4607  -19.1368   20.7290 O   0  0  0  0  0  0  0  0  0  0  0  0
    9.0749  -17.0578   21.7842 C   0  0  0  0  0  0  0  0  0  0  0  0
   10.0748  -16.6713   22.8523 C   0  0  0  0  0  0  0  0  0  0  0  0
    9.4063  -16.5690   24.2073 C   0  0  2  0  0  0  0  0  0  0  0  0
    8.3329  -15.5840   24.1843 N   0  0  0  0  0  0  0  0  0  0  0  0
   10.3645  -16.2475   25.2715 C   0  0  0  0  0  0  0  0  0  0  0  0
   11.0953  -15.2163   25.1659 O   0  0  0  0  0  0  0  0  0  0  0  0
   11.7918  -14.1695   27.7433 C   0  0  0  0  0  0  0  0  0  0  0  0
   10.9257  -15.3362   28.0877 C   0  0  1  0  0  0  0  0  0  0  0  0
    9.4939  -15.1849   27.6825 C   0  0  0  0  0  0  0  0  0  0  0  0
   11.4812  -16.6415   27.5013 C   0  0  2  0  0  0  0  0  0  0  0  0
   10.5478  -17.0189   26.4468 N   0  0  0  0  0  0  0  0  0  0  0  0
   11.5408  -17.6592   28.5666 C   0  0  0  0  0  0  0  0  0  0  0  0
   10.7147  -18.5907   28.5424 O   0  0  0  0  0  0  0  0  0  0  0  0
   12.4697  -17.6345   29.5966 O   0  0  0  0  0  0  0  0  0  0  0  0
  2  1  1  0
  3  2  1  0
  3  5  1  0
  3  4  1  6
  5  6  1  1
  7  5  1  0
  7  8  2  0
 10  9  1  0
 10 12  1  0
 11 10  2  0
 13 12  1  0
 14 13  1  6
 15 14  1  0
 15  7  1  0
 16 14  1  0
 17 16  2  0
 19 18  1  6
 19 21  1  0
 20 19  1  0
 21 22  1  6
 21 23  1  0
 22 16  1  0
 23 25  1  0
 24 23  2  0
M  END
$$$$
