IQV.pdb
     RDKit          3D

 25 24  0  0  1  0  0  0  0  0999 V2000
    7.4812  -12.0913   18.3523 C   0  0  0  0  0  0  0  0  0  0  0  0
    7.9286  -13.5179   18.4983 C   0  0  0  0  0  0  0  0  0  0  0  0
    7.7934  -13.9459   19.9292 C   0  0  2  0  0  0  0  0  0  0  0  0
    8.6646  -13.0362   20.7580 C   0  0  0  0  0  0  0  0  0  0  0  0
    8.0887  -15.3847   20.0891 C   0  0  2  0  0  0  0  0  0  0  0  0
    7.3495  -16.2251   19.1765 N   0  0  0  0  0  0  0  0  0  0  0  0
    7.9535  -15.9011   21.4511 C   0  0  0  0  0  0  0  0  0  0  0  0
    6.8452  -16.1458   22.0067 O   0  0  0  0  0  0  0  0  0  0  0  0
   11.9497  -19.4888   24.4060 N   0  0  0  0  0  0  0  0  0  0  0  0
   11.0501  -19.7719   23.3412 C   0  0  0  0  0  0  0  0  0  0  0  0
   11.2084  -20.8676   22.7338 O   0  0  0  0  0  0  0  0  0  0  0  0
    9.9882  -18.8038   22.9878 C   0  0  0  0  0  0  0  0  0  0  0  0
   10.1119  -17.6113   23.9112 C   0  0  0  0  0  0  0  0  0  0  0  0
    9.0451  -16.5800   23.6087 C   0  0  2  0  0  0  0  0  0  0  0  0
    9.1161  -16.1512   22.2180 N   0  0  0  0  0  0  0  0  0  0  0  0
    9.1333  -15.4180   24.5010 C   0  0  0  0  0  0  0  0  0  0  0  0
   10.0664  -14.5741   24.3401 O   0  0  0  0  0  0  0  0  0  0  0  0
    6.8978  -12.3337   27.5940 C   0  0  0  0  0  0  0  0  0  0  0  0
    6.9693  -13.3820   26.5329 C   0  0  1  0  0  0  0  0  0  0  0  0
    6.5508  -12.9170   25.1744 C   0  0  0  0  0  0  0  0  0  0  0  0
    8.3722  -13.9989   26.4454 C   0  0  2  0  0  0  0  0  0  0  0  0
    8.2329  -15.1511   25.5630 N   0  0  0  0  0  0  0  0  0  0  0  0
    8.8068  -14.3967   27.7972 C   0  0  0  0  0  0  0  0  0  0  0  0
    9.0680  -13.5015   28.6224 O   0  0  0  0  0  0  0  0  0  0  0  0
    8.9405  -15.7176   28.1995 O   0  0  0  0  0  0  0  0  0  0  0  0
  2  1  1  0
  3  2  1  0
  3  5  1  0
  3  4  1  1
  5  6  1  6
  7  5  1  0
  7  8  2  0
 10  9  1  0
 10 12  1  0
 11 10  2  0
 13 12  1  0
 14 13  1  1
 15 14  1  0
 15  7  1  0
 16 14  1  0
 17 16  2  0
 19 18  1  1
 19 21  1  0
 20 19  1  0
 21 22  1  6
 21 23  1  0
 22 16  1  0
 23 25  1  0
 24 23  2  0
M  END
$$$$
