IQV.pdb
     RDKit          3D

 25 24  0  0  1  0  0  0  0  0999 V2000
    7.9276  -12.3749   18.1672 C   0  0  0  0  0  0  0  0  0  0  0  0
    8.1875  -13.8049   18.5468 C   0  0  0  0  0  0  0  0  0  0  0  0
    7.6792  -14.0598   19.9343 C   0  0  2  0  0  0  0  0  0  0  0  0
    8.3822  -13.0973   20.8579 C   0  0  0  0  0  0  0  0  0  0  0  0
    7.8282  -15.4816   20.3076 C   0  0  2  0  0  0  0  0  0  0  0  0
    7.2542  -16.3895   19.3423 N   0  0  0  0  0  0  0  0  0  0  0  0
    7.3552  -15.8269   21.6482 C   0  0  0  0  0  0  0  0  0  0  0  0
    6.1373  -15.9749   21.9508 O   0  0  0  0  0  0  0  0  0  0  0  0
    7.2238  -20.3876   25.4381 N   0  0  0  0  0  0  0  0  0  0  0  0
    7.6320  -20.0026   24.1310 C   0  0  0  0  0  0  0  0  0  0  0  0
    8.2235  -20.8749   23.4355 O   0  0  0  0  0  0  0  0  0  0  0  0
    7.3598  -18.6333   23.6403 C   0  0  0  0  0  0  0  0  0  0  0  0
    8.1487  -17.6625   24.4918 C   0  0  0  0  0  0  0  0  0  0  0  0
    7.8820  -16.2327   24.0700 C   0  0  2  0  0  0  0  0  0  0  0  0
    8.2945  -16.0122   22.6901 N   0  0  0  0  0  0  0  0  0  0  0  0
    8.5410  -15.2651   24.9553 C   0  0  0  0  0  0  0  0  0  0  0  0
    9.8015  -15.1318   24.9097 O   0  0  0  0  0  0  0  0  0  0  0  0
    7.3830  -11.5950   25.7955 C   0  0  0  0  0  0  0  0  0  0  0  0
    7.6075  -12.3765   27.0479 C   0  0  1  0  0  0  0  0  0  0  0  0
    6.3570  -12.8797   27.6960 C   0  0  0  0  0  0  0  0  0  0  0  0
    8.5631  -13.5545   26.8120 C   0  0  2  0  0  0  0  0  0  0  0  0
    7.8640  -14.4395   25.8880 N   0  0  0  0  0  0  0  0  0  0  0  0
    8.8356  -14.2170   28.1008 C   0  0  0  0  0  0  0  0  0  0  0  0
    8.3021  -15.3199   28.3239 O   0  0  0  0  0  0  0  0  0  0  0  0
    9.6560  -13.6764   29.0800 O   0  0  0  0  0  0  0  0  0  0  0  0
  2  1  1  0
  3  2  1  0
  3  5  1  0
  3  4  1  1
  5  6  1  6
  7  5  1  0
  7  8  2  0
 10  9  1  0
 10 12  1  0
 11 10  2  0
 13 12  1  0
 14 13  1  1
 15 14  1  0
 15  7  1  0
 16 14  1  0
 17 16  2  0
 19 18  1  6
 19 21  1  0
 20 19  1  0
 21 22  1  6
 21 23  1  0
 22 16  1  0
 23 25  1  0
 24 23  2  0
M  END
$$$$
