KLK.pdb
     RDKit          3D

 27 26  0  0  1  0  0  0  0  0999 V2000
   17.4521  -10.5593  -14.9190 N   0  0  0  0  0  0  0  0  0  0  0  0
   17.2574   -9.1307  -14.8319 C   0  0  1  0  0  0  0  0  0  0  0  0
   15.7945   -8.8704  -15.1119 C   0  0  0  0  0  0  0  0  0  0  0  0
   15.4582   -9.4779  -16.4507 C   0  0  0  0  0  0  0  0  0  0  0  0
   14.0142   -9.3089  -16.8189 C   0  0  0  0  0  0  0  0  0  0  0  0
   13.7007   -9.9813  -18.1382 C   0  0  0  0  0  0  0  0  0  0  0  0
   12.2915   -9.9926  -18.4268 N   0  0  0  0  0  0  0  0  0  0  0  0
   17.6361   -8.6952  -13.4600 C   0  0  0  0  0  0  0  0  0  0  0  0
   17.4752   -9.5103  -12.5202 O   0  0  0  0  0  0  0  0  0  0  0  0
   21.3483   -7.7508  -11.3265 C   0  0  0  0  0  0  0  0  0  0  0  0
   21.0296   -6.8184  -12.5090 C   0  0  2  0  0  0  0  0  0  0  0  0
   22.1569   -5.8623  -12.7299 C   0  0  0  0  0  0  0  0  0  0  0  0
   19.7739   -6.0883  -12.1882 C   0  0  0  0  0  0  0  0  0  0  0  0
   18.5659   -6.9093  -11.9489 C   0  0  2  0  0  0  0  0  0  0  0  0
   18.1505   -7.4101  -13.2732 N   0  0  0  0  0  0  0  0  0  0  0  0
   17.3803   -6.2186  -11.4050 C   0  0  0  0  0  0  0  0  0  0  0  0
   16.6369   -5.4812  -12.1510 O   0  0  0  0  0  0  0  0  0  0  0  0
   16.9957   -6.3298  -10.0497 N   0  0  0  0  0  0  0  0  0  0  0  0
   15.7810   -5.6132   -9.6056 C   0  0  1  0  0  0  0  0  0  0  0  0
   15.3271   -6.2019   -8.2870 C   0  0  0  0  0  0  0  0  0  0  0  0
   14.1608   -5.4661   -7.7542 C   0  0  0  0  0  0  0  0  0  0  0  0
   12.8608   -6.1908   -7.7303 C   0  0  0  0  0  0  0  0  0  0  0  0
   11.7077   -5.4903   -7.1161 C   0  0  0  0  0  0  0  0  0  0  0  0
   10.5180   -6.3066   -7.0630 N   0  0  0  0  0  0  0  0  0  0  0  0
   16.1006   -4.1792   -9.5604 C   0  0  0  0  0  0  0  0  0  0  0  0
   15.2602   -3.1554   -9.9149 O   0  0  0  0  0  0  0  0  0  0  0  0
   17.2623   -3.8051   -9.1608 O   0  0  0  0  0  0  0  0  0  0  0  0
  2  1  1  1
  2  3  1  0
  4  3  1  0
  4  5  1  0
  5  6  1  0
  6  7  1  0
  8  2  1  0
  9  8  2  0
 11 10  1  1
 12 11  1  0
 13 11  1  0
 14 13  1  6
 14 15  1  0
 15  8  1  0
 16 14  1  0
 16 17  2  0
 18 16  1  0
 19 18  1  0
 19 20  1  1
 21 20  1  0
 22 21  1  0
 22 23  1  0
 24 23  1  0
 25 26  1  0
 25 19  1  0
 27 25  2  0
M  END
$$$$
