KLK.pdb
     RDKit          3D

 27 26  0  0  1  0  0  0  0  0999 V2000
   28.3576  -21.4584  -15.2386 N   0  0  0  0  0  0  0  0  0  0  0  0
   27.6700  -20.3667  -14.5891 C   0  0  1  0  0  0  0  0  0  0  0  0
   27.2284  -19.4169  -15.6795 C   0  0  0  0  0  0  0  0  0  0  0  0
   28.3235  -19.3497  -16.7144 C   0  0  0  0  0  0  0  0  0  0  0  0
   28.0716  -18.3039  -17.7594 C   0  0  0  0  0  0  0  0  0  0  0  0
   29.1991  -18.2514  -18.7679 C   0  0  0  0  0  0  0  0  0  0  0  0
   28.9674  -17.2757  -19.7992 N   0  0  0  0  0  0  0  0  0  0  0  0
   26.5062  -20.9277  -13.8500 C   0  0  0  0  0  0  0  0  0  0  0  0
   25.9945  -21.9892  -14.2798 O   0  0  0  0  0  0  0  0  0  0  0  0
   26.1103  -22.0543   -9.5054 C   0  0  0  0  0  0  0  0  0  0  0  0
   26.2108  -20.5351   -9.7317 C   0  0  2  0  0  0  0  0  0  0  0  0
   26.1915  -19.8164   -8.4214 C   0  0  0  0  0  0  0  0  0  0  0  0
   25.0580  -20.1228  -10.5765 C   0  0  0  0  0  0  0  0  0  0  0  0
   24.9266  -20.7815  -11.8954 C   0  0  2  0  0  0  0  0  0  0  0  0
   26.0335  -20.2583  -12.7189 N   0  0  0  0  0  0  0  0  0  0  0  0
   23.7007  -20.5007  -12.6681 C   0  0  0  0  0  0  0  0  0  0  0  0
   23.4921  -19.3454  -13.1919 O   0  0  0  0  0  0  0  0  0  0  0  0
   22.6992  -21.4753  -12.8779 N   0  0  0  0  0  0  0  0  0  0  0  0
   21.6110  -21.1671  -13.8305 C   0  0  1  0  0  0  0  0  0  0  0  0
   21.9178  -21.8424  -15.1500 C   0  0  0  0  0  0  0  0  0  0  0  0
   21.3281  -23.1973  -15.1989 C   0  0  0  0  0  0  0  0  0  0  0  0
   22.2476  -24.3204  -15.5291 C   0  0  0  0  0  0  0  0  0  0  0  0
   21.6469  -25.6693  -15.6605 C   0  0  0  0  0  0  0  0  0  0  0  0
   22.6261  -26.6969  -15.9244 N   0  0  0  0  0  0  0  0  0  0  0  0
   20.3444  -21.5797  -13.2092 C   0  0  0  0  0  0  0  0  0  0  0  0
   19.0902  -21.3698  -13.7221 O   0  0  0  0  0  0  0  0  0  0  0  0
   20.3666  -22.1939  -12.0817 O   0  0  0  0  0  0  0  0  0  0  0  0
  2  1  1  6
  2  3  1  0
  4  3  1  0
  4  5  1  0
  5  6  1  0
  6  7  1  0
  8  2  1  0
  9  8  2  0
 11 10  1  1
 12 11  1  0
 13 11  1  0
 14 13  1  1
 14 15  1  0
 15  8  1  0
 16 14  1  0
 16 17  2  0
 18 16  1  0
 19 18  1  0
 19 20  1  6
 21 20  1  0
 22 21  1  0
 22 23  1  0
 24 23  1  0
 25 26  1  0
 25 19  1  0
 27 25  2  0
M  END
$$$$
