KLK.pdb
     RDKit          3D

 27 26  0  0  1  0  0  0  0  0999 V2000
   28.3221  -23.7386  -19.1858 N   0  0  0  0  0  0  0  0  0  0  0  0
   29.1098  -24.0640  -18.0196 C   0  0  1  0  0  0  0  0  0  0  0  0
   28.2052  -24.8278  -17.0793 C   0  0  0  0  0  0  0  0  0  0  0  0
   27.2653  -23.8430  -16.4300 C   0  0  0  0  0  0  0  0  0  0  0  0
   25.8222  -24.1665  -16.6793 C   0  0  0  0  0  0  0  0  0  0  0  0
   24.9108  -23.1332  -16.0528 C   0  0  0  0  0  0  0  0  0  0  0  0
   23.5260  -23.5192  -16.1055 N   0  0  0  0  0  0  0  0  0  0  0  0
   30.2652  -24.8932  -18.4587 C   0  0  0  0  0  0  0  0  0  0  0  0
   30.0996  -25.6582  -19.4390 O   0  0  0  0  0  0  0  0  0  0  0  0
   35.9727  -23.5941  -17.8979 C   0  0  0  0  0  0  0  0  0  0  0  0
   34.8806  -24.3770  -18.6486 C   0  0  2  0  0  0  0  0  0  0  0  0
   34.3038  -23.5371  -19.7422 C   0  0  0  0  0  0  0  0  0  0  0  0
   33.8314  -24.7540  -17.6639 C   0  0  0  0  0  0  0  0  0  0  0  0
   32.6831  -25.5345  -18.1766 C   0  0  2  0  0  0  0  0  0  0  0  0
   31.4761  -24.7893  -17.7705 N   0  0  0  0  0  0  0  0  0  0  0  0
   32.5000  -26.8956  -17.6358 C   0  0  0  0  0  0  0  0  0  0  0  0
   31.7279  -27.1165  -16.6319 O   0  0  0  0  0  0  0  0  0  0  0  0
   33.1519  -28.0221  -18.1863 N   0  0  0  0  0  0  0  0  0  0  0  0
   32.8056  -29.3590  -17.6578 C   0  0  1  0  0  0  0  0  0  0  0  0
   31.3520  -29.6414  -17.9716 C   0  0  0  0  0  0  0  0  0  0  0  0
   31.0050  -31.0418  -17.6488 C   0  0  0  0  0  0  0  0  0  0  0  0
   30.3514  -31.2878  -16.3343 C   0  0  0  0  0  0  0  0  0  0  0  0
   29.0388  -31.9766  -16.3506 C   0  0  0  0  0  0  0  0  0  0  0  0
   28.5131  -32.2150  -15.0272 N   0  0  0  0  0  0  0  0  0  0  0  0
   33.7560  -30.3241  -18.2289 C   0  0  0  0  0  0  0  0  0  0  0  0
   34.5672  -30.1097  -19.3134 O   0  0  0  0  0  0  0  0  0  0  0  0
   33.8684  -31.4874  -17.6970 O   0  0  0  0  0  0  0  0  0  0  0  0
  2  1  1  6
  2  3  1  0
  4  3  1  0
  4  5  1  0
  5  6  1  0
  6  7  1  0
  8  2  1  0
  9  8  2  0
 11 10  1  1
 12 11  1  0
 13 11  1  0
 14 13  1  1
 14 15  1  0
 15  8  1  0
 16 14  1  0
 16 17  2  0
 18 16  1  0
 19 18  1  0
 19 20  1  6
 21 20  1  0
 22 21  1  0
 22 23  1  0
 24 23  1  0
 25 26  1  0
 25 19  1  0
 27 25  2  0
M  END
$$$$
