KLK.pdb
     RDKit          3D

 27 26  0  0  1  0  0  0  0  0999 V2000
   15.4341  -10.8298  -13.3821 N   0  0  0  0  0  0  0  0  0  0  0  0
   16.4505   -9.9738  -12.8158 C   0  0  1  0  0  0  0  0  0  0  0  0
   17.5196   -9.8058  -13.8717 C   0  0  0  0  0  0  0  0  0  0  0  0
   17.8983  -11.1754  -14.3772 C   0  0  0  0  0  0  0  0  0  0  0  0
   18.9402  -11.1291  -15.4549 C   0  0  0  0  0  0  0  0  0  0  0  0
   19.2308  -12.5114  -15.9987 C   0  0  0  0  0  0  0  0  0  0  0  0
   20.3093  -13.1595  -15.3014 N   0  0  0  0  0  0  0  0  0  0  0  0
   15.8178   -8.6721  -12.4683 C   0  0  0  0  0  0  0  0  0  0  0  0
   14.8301   -8.3002  -13.1463 O   0  0  0  0  0  0  0  0  0  0  0  0
   13.5110   -6.5456   -8.9219 C   0  0  0  0  0  0  0  0  0  0  0  0
   14.8205   -7.3028   -8.6373 C   0  0  2  0  0  0  0  0  0  0  0  0
   15.1545   -7.2264   -7.1825 C   0  0  0  0  0  0  0  0  0  0  0  0
   15.8941   -6.6816   -9.4583 C   0  0  0  0  0  0  0  0  0  0  0  0
   15.7006   -6.6862  -10.9257 C   0  0  2  0  0  0  0  0  0  0  0  0
   16.3418   -7.9227  -11.4125 N   0  0  0  0  0  0  0  0  0  0  0  0
   16.3325   -5.5934  -11.6907 C   0  0  0  0  0  0  0  0  0  0  0  0
   17.6105   -5.5068  -11.7988 O   0  0  0  0  0  0  0  0  0  0  0  0
   15.5778   -4.5934  -12.3444 N   0  0  0  0  0  0  0  0  0  0  0  0
   16.3043   -3.5438  -13.0909 C   0  0  1  0  0  0  0  0  0  0  0  0
   15.8293   -3.5558  -14.5280 C   0  0  0  0  0  0  0  0  0  0  0  0
   16.4160   -2.4309  -15.2870 C   0  0  0  0  0  0  0  0  0  0  0  0
   16.0287   -2.3100  -16.7191 C   0  0  0  0  0  0  0  0  0  0  0  0
   16.6821   -1.2384  -17.5079 C   0  0  0  0  0  0  0  0  0  0  0  0
   16.3724    0.0853  -17.0218 N   0  0  0  0  0  0  0  0  0  0  0  0
   16.0969   -2.2707  -12.3860 C   0  0  0  0  0  0  0  0  0  0  0  0
   15.0583   -1.9790  -11.5396 O   0  0  0  0  0  0  0  0  0  0  0  0
   16.9394   -1.3155  -12.5498 O   0  0  0  0  0  0  0  0  0  0  0  0
  2  1  1  6
  2  3  1  0
  4  3  1  0
  4  5  1  0
  5  6  1  0
  6  7  1  0
  8  2  1  0
  9  8  2  0
 11 10  1  1
 12 11  1  0
 13 11  1  0
 14 13  1  1
 14 15  1  0
 15  8  1  0
 16 14  1  0
 16 17  2  0
 18 16  1  0
 19 18  1  0
 19 20  1  6
 21 20  1  0
 22 21  1  0
 22 23  1  0
 24 23  1  0
 25 26  1  0
 25 19  1  0
 27 25  2  0
M  END
$$$$
