KLK.pdb
     RDKit          3D

 27 26  0  0  1  0  0  0  0  0999 V2000
   23.7378  -22.2815  -16.0920 N   0  0  0  0  0  0  0  0  0  0  0  0
   22.3353  -22.3796  -15.7606 C   0  0  1  0  0  0  0  0  0  0  0  0
   21.9265  -23.8141  -16.0072 C   0  0  0  0  0  0  0  0  0  0  0  0
   22.0094  -24.0767  -17.4901 C   0  0  0  0  0  0  0  0  0  0  0  0
   21.6174  -25.4777  -17.8546 C   0  0  0  0  0  0  0  0  0  0  0  0
   21.6827  -25.6954  -19.3511 C   0  0  0  0  0  0  0  0  0  0  0  0
   23.0141  -25.5337  -19.8712 N   0  0  0  0  0  0  0  0  0  0  0  0
   22.1709  -22.0038  -14.3298 C   0  0  0  0  0  0  0  0  0  0  0  0
   23.1089  -22.2716  -13.5412 O   0  0  0  0  0  0  0  0  0  0  0  0
   19.1592  -17.5981  -11.6738 C   0  0  0  0  0  0  0  0  0  0  0  0
   19.7760  -18.9656  -11.3294 C   0  0  2  0  0  0  0  0  0  0  0  0
   20.8683  -18.7997  -10.3229 C   0  0  0  0  0  0  0  0  0  0  0  0
   20.3038  -19.5577  -12.5878 C   0  0  0  0  0  0  0  0  0  0  0  0
   20.7537  -20.9664  -12.5263 C   0  0  2  0  0  0  0  0  0  0  0  0
   20.9918  -21.3744  -13.9242 N   0  0  0  0  0  0  0  0  0  0  0  0
   19.7975  -21.9549  -11.9903 C   0  0  0  0  0  0  0  0  0  0  0  0
   18.9087  -22.4996  -12.7427 O   0  0  0  0  0  0  0  0  0  0  0  0
   19.8063  -22.3582  -10.6360 N   0  0  0  0  0  0  0  0  0  0  0  0
   18.7668  -23.3063  -10.1810 C   0  0  1  0  0  0  0  0  0  0  0  0
   19.1540  -23.8292   -8.8144 C   0  0  0  0  0  0  0  0  0  0  0  0
   18.1478  -24.7891   -8.3122 C   0  0  0  0  0  0  0  0  0  0  0  0
   18.4272  -25.4324   -6.9993 C   0  0  0  0  0  0  0  0  0  0  0  0
   17.4430  -26.4279   -6.5115 C   0  0  0  0  0  0  0  0  0  0  0  0
   17.8634  -27.0845   -5.2963 N   0  0  0  0  0  0  0  0  0  0  0  0
   17.4746  -22.6073  -10.2278 C   0  0  0  0  0  0  0  0  0  0  0  0
   17.2627  -21.2859   -9.9289 O   0  0  0  0  0  0  0  0  0  0  0  0
   16.4205  -23.2545  -10.5727 O   0  0  0  0  0  0  0  0  0  0  0  0
  2  1  1  1
  2  3  1  0
  4  3  1  0
  4  5  1  0
  5  6  1  0
  6  7  1  0
  8  2  1  0
  9  8  2  0
 11 10  1  6
 12 11  1  0
 13 11  1  0
 14 13  1  6
 14 15  1  0
 15  8  1  0
 16 14  1  0
 16 17  2  0
 18 16  1  0
 19 18  1  0
 19 20  1  1
 21 20  1  0
 22 21  1  0
 22 23  1  0
 24 23  1  0
 25 26  1  0
 25 19  1  0
 27 25  2  0
M  END
$$$$
