KLK.pdb
     RDKit          3D

 27 26  0  0  1  0  0  0  0  0999 V2000
   28.5547  -21.8805  -15.4610 N   0  0  0  0  0  0  0  0  0  0  0  0
   27.6466  -20.7864  -15.2069 C   0  0  1  0  0  0  0  0  0  0  0  0
   27.0438  -20.3994  -16.5384 C   0  0  0  0  0  0  0  0  0  0  0  0
   28.1220  -19.7515  -17.3704 C   0  0  0  0  0  0  0  0  0  0  0  0
   28.0628  -18.2534  -17.3333 C   0  0  0  0  0  0  0  0  0  0  0  0
   28.9566  -17.6413  -18.3904 C   0  0  0  0  0  0  0  0  0  0  0  0
   29.0012  -16.2059  -18.3069 N   0  0  0  0  0  0  0  0  0  0  0  0
   26.6060  -21.2609  -14.2543 C   0  0  0  0  0  0  0  0  0  0  0  0
   26.1142  -22.3995  -14.4418 O   0  0  0  0  0  0  0  0  0  0  0  0
   25.3072  -22.0107   -9.5061 C   0  0  0  0  0  0  0  0  0  0  0  0
   26.1955  -20.8117   -9.8835 C   0  0  2  0  0  0  0  0  0  0  0  0
   26.4041  -19.9302   -8.6946 C   0  0  0  0  0  0  0  0  0  0  0  0
   25.5169  -20.0683  -10.9786 C   0  0  0  0  0  0  0  0  0  0  0  0
   25.2035  -20.8294  -12.2088 C   0  0  2  0  0  0  0  0  0  0  0  0
   26.2211  -20.4298  -13.1998 N   0  0  0  0  0  0  0  0  0  0  0  0
   23.9043  -20.5582  -12.8547 C   0  0  0  0  0  0  0  0  0  0  0  0
   23.7089  -19.4860  -13.5365 O   0  0  0  0  0  0  0  0  0  0  0  0
   22.8141  -21.4530  -12.7655 N   0  0  0  0  0  0  0  0  0  0  0  0
   21.6657  -21.2501  -13.6746 C   0  0  1  0  0  0  0  0  0  0  0  0
   21.5579  -22.4488  -14.5925 C   0  0  0  0  0  0  0  0  0  0  0  0
   20.3935  -22.3198  -15.4944 C   0  0  0  0  0  0  0  0  0  0  0  0
   20.1489  -23.4405  -16.4429 C   0  0  0  0  0  0  0  0  0  0  0  0
   18.9778  -23.3200  -17.3439 C   0  0  0  0  0  0  0  0  0  0  0  0
   18.7154  -24.5286  -18.0887 N   0  0  0  0  0  0  0  0  0  0  0  0
   20.4780  -21.0033  -12.8445 C   0  0  0  0  0  0  0  0  0  0  0  0
   19.3208  -20.3935  -13.2559 O   0  0  0  0  0  0  0  0  0  0  0  0
   20.4808  -21.3739  -11.6150 O   0  0  0  0  0  0  0  0  0  0  0  0
  2  1  1  6
  2  3  1  0
  4  3  1  0
  4  5  1  0
  5  6  1  0
  6  7  1  0
  8  2  1  0
  9  8  2  0
 11 10  1  1
 12 11  1  0
 13 11  1  0
 14 13  1  1
 14 15  1  0
 15  8  1  0
 16 14  1  0
 16 17  2  0
 18 16  1  0
 19 18  1  0
 19 20  1  1
 21 20  1  0
 22 21  1  0
 22 23  1  0
 24 23  1  0
 25 26  1  0
 25 19  1  0
 27 25  2  0
M  END
$$$$
