KLK.pdb
     RDKit          3D

 27 26  0  0  1  0  0  0  0  0999 V2000
   18.3728  -24.0712   -7.7258 N   0  0  0  0  0  0  0  0  0  0  0  0
   19.0865  -24.2351   -8.9708 C   0  0  1  0  0  0  0  0  0  0  0  0
   18.1757  -25.0060   -9.8994 C   0  0  0  0  0  0  0  0  0  0  0  0
   17.9899  -26.3906   -9.3309 C   0  0  0  0  0  0  0  0  0  0  0  0
   18.2500  -27.4714  -10.3375 C   0  0  0  0  0  0  0  0  0  0  0  0
   18.0355  -28.8445   -9.7379 C   0  0  0  0  0  0  0  0  0  0  0  0
   18.2709  -29.9000  -10.6865 N   0  0  0  0  0  0  0  0  0  0  0  0
   19.3950  -22.8820   -9.5086 C   0  0  0  0  0  0  0  0  0  0  0  0
   18.5275  -21.9858   -9.3754 O   0  0  0  0  0  0  0  0  0  0  0  0
   22.1647  -19.6511   -8.5208 C   0  0  0  0  0  0  0  0  0  0  0  0
   22.8102  -20.9698   -8.9825 C   0  0  2  0  0  0  0  0  0  0  0  0
   24.2949  -20.8997   -8.8253 C   0  0  0  0  0  0  0  0  0  0  0  0
   22.4402  -21.1842  -10.4071 C   0  0  0  0  0  0  0  0  0  0  0  0
   21.0007  -21.3565  -10.7051 C   0  0  2  0  0  0  0  0  0  0  0  0
   20.6248  -22.6639  -10.1339 N   0  0  0  0  0  0  0  0  0  0  0  0
   20.6122  -21.4274  -12.1274 C   0  0  0  0  0  0  0  0  0  0  0  0
   20.6847  -22.5298  -12.7847 O   0  0  0  0  0  0  0  0  0  0  0  0
   20.1398  -20.3018  -12.8393 N   0  0  0  0  0  0  0  0  0  0  0  0
   19.8057  -20.4680  -14.2701 C   0  0  1  0  0  0  0  0  0  0  0  0
   19.0280  -19.2533  -14.7293 C   0  0  0  0  0  0  0  0  0  0  0  0
   18.6254  -19.3890  -16.1454 C   0  0  0  0  0  0  0  0  0  0  0  0
   17.7976  -18.2925  -16.7183 C   0  0  0  0  0  0  0  0  0  0  0  0
   17.2982  -18.4750  -18.1021 C   0  0  0  0  0  0  0  0  0  0  0  0
   16.4167  -17.4130  -18.5257 N   0  0  0  0  0  0  0  0  0  0  0  0
   21.0614  -20.7041  -14.9967 C   0  0  0  0  0  0  0  0  0  0  0  0
   22.2997  -20.2375  -14.6370 O   0  0  0  0  0  0  0  0  0  0  0  0
   21.0443  -21.4042  -16.0731 O   0  0  0  0  0  0  0  0  0  0  0  0
  2  1  1  1
  2  3  1  0
  4  3  1  0
  4  5  1  0
  5  6  1  0
  6  7  1  0
  8  2  1  0
  9  8  2  0
 11 10  1  6
 12 11  1  0
 13 11  1  0
 14 13  1  6
 14 15  1  0
 15  8  1  0
 16 14  1  0
 16 17  2  0
 18 16  1  0
 19 18  1  0
 19 20  1  6
 21 20  1  0
 22 21  1  0
 22 23  1  0
 24 23  1  0
 25 26  1  0
 25 19  1  0
 27 25  2  0
M  END
$$$$
