KLK.pdb
     RDKit          3D

 27 26  0  0  1  0  0  0  0  0999 V2000
   28.0715  -20.6278  -15.1081 N   0  0  0  0  0  0  0  0  0  0  0  0
   27.0570  -21.5831  -15.4887 C   0  0  1  0  0  0  0  0  0  0  0  0
   27.7785  -22.8418  -15.9140 C   0  0  0  0  0  0  0  0  0  0  0  0
   28.4161  -22.5857  -17.2566 C   0  0  0  0  0  0  0  0  0  0  0  0
   29.8202  -22.0710  -17.1440 C   0  0  0  0  0  0  0  0  0  0  0  0
   30.4310  -21.8359  -18.5089 C   0  0  0  0  0  0  0  0  0  0  0  0
   30.6055  -23.0569  -19.2492 N   0  0  0  0  0  0  0  0  0  0  0  0
   26.1851  -21.8268  -14.3073 C   0  0  0  0  0  0  0  0  0  0  0  0
   25.3179  -22.7290  -14.3942 O   0  0  0  0  0  0  0  0  0  0  0  0
   26.4176  -19.5067   -8.6638 C   0  0  0  0  0  0  0  0  0  0  0  0
   25.5278  -20.3674   -9.5785 C   0  0  2  0  0  0  0  0  0  0  0  0
   25.2024  -21.6637   -8.9097 C   0  0  0  0  0  0  0  0  0  0  0  0
   26.2684  -20.5998  -10.8474 C   0  0  0  0  0  0  0  0  0  0  0  0
   25.5043  -21.1911  -11.9686 C   0  0  2  0  0  0  0  0  0  0  0  0
   26.3635  -21.0506  -13.1599 N   0  0  0  0  0  0  0  0  0  0  0  0
   24.2292  -20.5411  -12.3301 C   0  0  0  0  0  0  0  0  0  0  0  0
   24.1365  -19.2628  -12.4291 O   0  0  0  0  0  0  0  0  0  0  0  0
   23.0516  -21.2781  -12.5892 N   0  0  0  0  0  0  0  0  0  0  0  0
   21.8123  -20.5322  -12.8961 C   0  0  1  0  0  0  0  0  0  0  0  0
   21.0223  -21.3101  -13.9266 C   0  0  0  0  0  0  0  0  0  0  0  0
   19.7260  -20.6549  -14.2024 C   0  0  0  0  0  0  0  0  0  0  0  0
   18.7792  -21.3826  -15.0911 C   0  0  0  0  0  0  0  0  0  0  0  0
   17.5093  -20.6976  -15.4311 C   0  0  0  0  0  0  0  0  0  0  0  0
   16.6913  -21.4541  -16.3491 N   0  0  0  0  0  0  0  0  0  0  0  0
   21.1061  -20.2999  -11.6279 C   0  0  0  0  0  0  0  0  0  0  0  0
   21.0941  -21.1433  -10.5469 O   0  0  0  0  0  0  0  0  0  0  0  0
   20.4238  -19.2228  -11.4751 O   0  0  0  0  0  0  0  0  0  0  0  0
  2  1  1  1
  2  3  1  0
  4  3  1  0
  4  5  1  0
  5  6  1  0
  6  7  1  0
  8  2  1  0
  9  8  2  0
 11 10  1  1
 12 11  1  0
 13 11  1  0
 14 13  1  1
 14 15  1  0
 15  8  1  0
 16 14  1  0
 16 17  2  0
 18 16  1  0
 19 18  1  0
 19 20  1  6
 21 20  1  0
 22 21  1  0
 22 23  1  0
 24 23  1  0
 25 26  1  0
 25 19  1  0
 27 25  2  0
M  END
$$$$
