KLK.pdb
     RDKit          3D

 27 26  0  0  1  0  0  0  0  0999 V2000
   28.2651  -21.3186  -15.8731 N   0  0  0  0  0  0  0  0  0  0  0  0
   27.1122  -20.4510  -15.8071 C   0  0  1  0  0  0  0  0  0  0  0  0
   26.6093  -20.2825  -17.2230 C   0  0  0  0  0  0  0  0  0  0  0  0
   27.6828  -19.5870  -18.0220 C   0  0  0  0  0  0  0  0  0  0  0  0
   27.8022  -18.1295  -17.6891 C   0  0  0  0  0  0  0  0  0  0  0  0
   28.7938  -17.4370  -18.5991 C   0  0  0  0  0  0  0  0  0  0  0  0
   28.9676  -16.0486  -18.2653 N   0  0  0  0  0  0  0  0  0  0  0  0
   26.0926  -21.1020  -14.9399 C   0  0  0  0  0  0  0  0  0  0  0  0
   25.7901  -22.2946  -15.1838 O   0  0  0  0  0  0  0  0  0  0  0  0
   25.8611  -22.2905  -10.6639 C   0  0  0  0  0  0  0  0  0  0  0  0
   26.0097  -20.7754  -10.8908 C   0  0  2  0  0  0  0  0  0  0  0  0
   26.1154  -20.0657   -9.5798 C   0  0  0  0  0  0  0  0  0  0  0  0
   24.8178  -20.3089  -11.6486 C   0  0  0  0  0  0  0  0  0  0  0  0
   24.5560  -20.9618  -12.9508 C   0  0  2  0  0  0  0  0  0  0  0  0
   25.5180  -20.3685  -13.8994 N   0  0  0  0  0  0  0  0  0  0  0  0
   23.2279  -20.7445  -13.5571 C   0  0  0  0  0  0  0  0  0  0  0  0
   22.9082  -19.6124  -14.0757 O   0  0  0  0  0  0  0  0  0  0  0  0
   22.2439  -21.7576  -13.6058 N   0  0  0  0  0  0  0  0  0  0  0  0
   20.9196  -21.4208  -14.1708 C   0  0  1  0  0  0  0  0  0  0  0  0
   20.2318  -22.7029  -14.5883 C   0  0  0  0  0  0  0  0  0  0  0  0
   18.8862  -22.4259  -15.1348 C   0  0  0  0  0  0  0  0  0  0  0  0
   18.0629  -23.6027  -15.5259 C   0  0  0  0  0  0  0  0  0  0  0  0
   16.7578  -23.3292  -16.1738 C   0  0  0  0  0  0  0  0  0  0  0  0
   15.9224  -24.5026  -16.2716 N   0  0  0  0  0  0  0  0  0  0  0  0
   20.1928  -20.6333  -13.1647 C   0  0  0  0  0  0  0  0  0  0  0  0
   19.2505  -19.6711  -13.4224 O   0  0  0  0  0  0  0  0  0  0  0  0
   20.4318  -20.8294  -11.9184 O   0  0  0  0  0  0  0  0  0  0  0  0
  2  1  1  6
  2  3  1  0
  4  3  1  0
  4  5  1  0
  5  6  1  0
  6  7  1  0
  8  2  1  0
  9  8  2  0
 11 10  1  1
 12 11  1  0
 13 11  1  0
 14 13  1  1
 14 15  1  0
 15  8  1  0
 16 14  1  0
 16 17  2  0
 18 16  1  0
 19 18  1  0
 19 20  1  1
 21 20  1  0
 22 21  1  0
 22 23  1  0
 24 23  1  0
 25 26  1  0
 25 19  1  0
 27 25  2  0
M  END
$$$$
