KLK.pdb
     RDKit          3D

 27 26  0  0  1  0  0  0  0  0999 V2000
   29.5404  -25.5518  -19.4317 N   0  0  0  0  0  0  0  0  0  0  0  0
   29.3896  -26.4188  -18.2863 C   0  0  1  0  0  0  0  0  0  0  0  0
   27.9987  -26.1864  -17.7413 C   0  0  0  0  0  0  0  0  0  0  0  0
   27.9280  -24.7709  -17.2252 C   0  0  0  0  0  0  0  0  0  0  0  0
   26.5982  -24.4408  -16.6153 C   0  0  0  0  0  0  0  0  0  0  0  0
   26.5777  -23.0281  -16.0723 C   0  0  0  0  0  0  0  0  0  0  0  0
   25.3359  -22.7093  -15.4199 N   0  0  0  0  0  0  0  0  0  0  0  0
   29.5686  -27.8240  -18.7433 C   0  0  0  0  0  0  0  0  0  0  0  0
   29.1638  -28.1235  -19.8922 O   0  0  0  0  0  0  0  0  0  0  0  0
   33.9167  -31.6243  -18.3374 C   0  0  0  0  0  0  0  0  0  0  0  0
   32.4548  -31.4968  -18.8020 C   0  0  2  0  0  0  0  0  0  0  0  0
   32.4042  -31.1352  -20.2512 C   0  0  0  0  0  0  0  0  0  0  0  0
   31.8031  -30.4474  -17.9734 C   0  0  0  0  0  0  0  0  0  0  0  0
   30.3803  -30.1574  -18.2599 C   0  0  2  0  0  0  0  0  0  0  0  0
   30.1737  -28.7453  -17.8854 N   0  0  0  0  0  0  0  0  0  0  0  0
   29.3720  -30.9146  -17.4927 C   0  0  0  0  0  0  0  0  0  0  0  0
   29.2913  -30.8121  -16.2138 O   0  0  0  0  0  0  0  0  0  0  0  0
   28.4451  -31.7827  -18.1127 N   0  0  0  0  0  0  0  0  0  0  0  0
   27.4309  -32.4452  -17.2648 C   0  0  1  0  0  0  0  0  0  0  0  0
   26.2619  -31.5012  -17.0823 C   0  0  0  0  0  0  0  0  0  0  0  0
   25.1411  -32.1763  -16.3938 C   0  0  0  0  0  0  0  0  0  0  0  0
   23.9133  -31.3693  -16.1551 C   0  0  0  0  0  0  0  0  0  0  0  0
   22.8143  -32.0180  -15.4008 C   0  0  0  0  0  0  0  0  0  0  0  0
   21.7868  -31.0886  -14.9946 N   0  0  0  0  0  0  0  0  0  0  0  0
   27.0914  -33.7285  -17.8960 C   0  0  0  0  0  0  0  0  0  0  0  0
   26.5769  -34.8281  -17.2584 O   0  0  0  0  0  0  0  0  0  0  0  0
   27.2793  -33.8793  -19.1573 O   0  0  0  0  0  0  0  0  0  0  0  0
  2  1  1  6
  2  3  1  0
  4  3  1  0
  4  5  1  0
  5  6  1  0
  6  7  1  0
  8  2  1  0
  9  8  2  0
 11 10  1  1
 12 11  1  0
 13 11  1  0
 14 13  1  1
 14 15  1  0
 15  8  1  0
 16 14  1  0
 16 17  2  0
 18 16  1  0
 19 18  1  0
 19 20  1  6
 21 20  1  0
 22 21  1  0
 22 23  1  0
 24 23  1  0
 25 26  1  0
 25 19  1  0
 27 25  2  0
M  END
$$$$
