KLK.pdb
     RDKit          3D

 27 26  0  0  1  0  0  0  0  0999 V2000
   24.3145  -13.2924  -19.4488 N   0  0  0  0  0  0  0  0  0  0  0  0
   23.0317  -13.1676  -18.7966 C   0  0  1  0  0  0  0  0  0  0  0  0
   22.7474  -14.4955  -18.1320 C   0  0  0  0  0  0  0  0  0  0  0  0
   22.5291  -15.5237  -19.2136 C   0  0  0  0  0  0  0  0  0  0  0  0
   23.8126  -16.0855  -19.7485 C   0  0  0  0  0  0  0  0  0  0  0  0
   23.5562  -17.0868  -20.8542 C   0  0  0  0  0  0  0  0  0  0  0  0
   24.7700  -17.6764  -21.3526 N   0  0  0  0  0  0  0  0  0  0  0  0
   23.1256  -12.0672  -17.7987 C   0  0  0  0  0  0  0  0  0  0  0  0
   22.1971  -11.9520  -16.9633 O   0  0  0  0  0  0  0  0  0  0  0  0
   26.5084  -11.2067  -14.9164 C   0  0  0  0  0  0  0  0  0  0  0  0
   26.7817  -10.9364  -16.4069 C   0  0  2  0  0  0  0  0  0  0  0  0
   28.2122  -10.5530  -16.6075 C   0  0  0  0  0  0  0  0  0  0  0  0
   25.8756   -9.8412  -16.8451 C   0  0  0  0  0  0  0  0  0  0  0  0
   24.4247  -10.1335  -16.8447 C   0  0  2  0  0  0  0  0  0  0  0  0
   24.2313  -11.2144  -17.8302 N   0  0  0  0  0  0  0  0  0  0  0  0
   23.5201   -9.0492  -17.2744 C   0  0  0  0  0  0  0  0  0  0  0  0
   23.6587   -8.4784  -18.4179 O   0  0  0  0  0  0  0  0  0  0  0  0
   22.4592   -8.5841  -16.4649 N   0  0  0  0  0  0  0  0  0  0  0  0
   21.5933   -7.5091  -16.9952 C   0  0  1  0  0  0  0  0  0  0  0  0
   20.2119   -8.0773  -17.2399 C   0  0  0  0  0  0  0  0  0  0  0  0
   19.2789   -7.0215  -17.6877 C   0  0  0  0  0  0  0  0  0  0  0  0
   17.8420   -7.3946  -17.7967 C   0  0  0  0  0  0  0  0  0  0  0  0
   16.9085   -6.3524  -18.2867 C   0  0  0  0  0  0  0  0  0  0  0  0
   15.5301   -6.7816  -18.2729 N   0  0  0  0  0  0  0  0  0  0  0  0
   21.6375   -6.3904  -16.0427 C   0  0  0  0  0  0  0  0  0  0  0  0
   21.3542   -5.0792  -16.3271 O   0  0  0  0  0  0  0  0  0  0  0  0
   21.9685   -6.6148  -14.8224 O   0  0  0  0  0  0  0  0  0  0  0  0
  2  1  1  1
  2  3  1  0
  4  3  1  0
  4  5  1  0
  5  6  1  0
  6  7  1  0
  8  2  1  0
  9  8  2  0
 11 10  1  1
 12 11  1  0
 13 11  1  0
 14 13  1  6
 14 15  1  0
 15  8  1  0
 16 14  1  0
 16 17  2  0
 18 16  1  0
 19 18  1  0
 19 20  1  1
 21 20  1  0
 22 21  1  0
 22 23  1  0
 24 23  1  0
 25 26  1  0
 25 19  1  0
 27 25  2  0
M  END
$$$$
