KLK.pdb
     RDKit          3D

 27 26  0  0  1  0  0  0  0  0999 V2000
   27.9366  -21.3200  -15.7463 N   0  0  0  0  0  0  0  0  0  0  0  0
   27.1848  -20.2629  -15.1110 C   0  0  1  0  0  0  0  0  0  0  0  0
   26.6191  -19.4019  -16.2176 C   0  0  0  0  0  0  0  0  0  0  0  0
   27.7590  -18.6442  -16.8512 C   0  0  0  0  0  0  0  0  0  0  0  0
   28.8507  -19.5451  -17.3469 C   0  0  0  0  0  0  0  0  0  0  0  0
   29.3804  -19.0815  -18.6868 C   0  0  0  0  0  0  0  0  0  0  0  0
   30.3963  -19.9567  -19.2076 N   0  0  0  0  0  0  0  0  0  0  0  0
   26.1047  -20.8872  -14.2993 C   0  0  0  0  0  0  0  0  0  0  0  0
   25.6486  -21.9920  -14.6799 O   0  0  0  0  0  0  0  0  0  0  0  0
   26.0840  -22.1349  -10.0881 C   0  0  0  0  0  0  0  0  0  0  0  0
   26.0944  -20.6046  -10.2536 C   0  0  2  0  0  0  0  0  0  0  0  0
   26.1958  -19.9423   -8.9177 C   0  0  0  0  0  0  0  0  0  0  0  0
   24.8361  -20.2121  -10.9428 C   0  0  0  0  0  0  0  0  0  0  0  0
   24.5994  -20.7923  -12.2837 C   0  0  2  0  0  0  0  0  0  0  0  0
   25.6451  -20.2266  -13.1576 N   0  0  0  0  0  0  0  0  0  0  0  0
   23.3209  -20.4618  -12.9433 C   0  0  0  0  0  0  0  0  0  0  0  0
   23.0497  -19.2595  -13.3086 O   0  0  0  0  0  0  0  0  0  0  0  0
   22.3344  -21.4373  -13.2121 N   0  0  0  0  0  0  0  0  0  0  0  0
   21.0526  -20.9932  -13.8004 C   0  0  1  0  0  0  0  0  0  0  0  0
   20.6840  -21.9368  -14.9250 C   0  0  0  0  0  0  0  0  0  0  0  0
   20.5073  -21.2007  -16.1949 C   0  0  0  0  0  0  0  0  0  0  0  0
   19.3754  -21.6212  -17.0653 C   0  0  0  0  0  0  0  0  0  0  0  0
   19.3216  -21.0445  -18.4299 C   0  0  0  0  0  0  0  0  0  0  0  0
   19.9211  -19.7336  -18.5097 N   0  0  0  0  0  0  0  0  0  0  0  0
   20.0657  -20.9174  -12.7137 C   0  0  0  0  0  0  0  0  0  0  0  0
   20.0512  -21.6939  -11.5837 O   0  0  0  0  0  0  0  0  0  0  0  0
   19.1111  -20.0617  -12.7884 O   0  0  0  0  0  0  0  0  0  0  0  0
  2  1  1  6
  2  3  1  0
  4  3  1  0
  4  5  1  0
  5  6  1  0
  6  7  1  0
  8  2  1  0
  9  8  2  0
 11 10  1  1
 12 11  1  0
 13 11  1  0
 14 13  1  1
 14 15  1  0
 15  8  1  0
 16 14  1  0
 16 17  2  0
 18 16  1  0
 19 18  1  0
 19 20  1  6
 21 20  1  0
 22 21  1  0
 22 23  1  0
 24 23  1  0
 25 26  1  0
 25 19  1  0
 27 25  2  0
M  END
$$$$
