KLK.pdb
     RDKit          3D

 27 26  0  0  1  0  0  0  0  0999 V2000
   28.6264  -22.8806  -16.8968 N   0  0  0  0  0  0  0  0  0  0  0  0
   27.4975  -22.1624  -17.4410 C   0  0  1  0  0  0  0  0  0  0  0  0
   26.6630  -23.1690  -18.2003 C   0  0  0  0  0  0  0  0  0  0  0  0
   27.5211  -23.7634  -19.2888 C   0  0  0  0  0  0  0  0  0  0  0  0
   26.7602  -24.6948  -20.1847 C   0  0  0  0  0  0  0  0  0  0  0  0
   27.6565  -25.2869  -21.2511 C   0  0  0  0  0  0  0  0  0  0  0  0
   26.9432  -26.1602  -22.1443 N   0  0  0  0  0  0  0  0  0  0  0  0
   26.7376  -21.5680  -16.3076 C   0  0  0  0  0  0  0  0  0  0  0  0
   26.9595  -22.0117  -15.1555 O   0  0  0  0  0  0  0  0  0  0  0  0
   27.0666  -18.0704  -13.8398 C   0  0  0  0  0  0  0  0  0  0  0  0
   26.9537  -17.9362  -15.3690 C   0  0  2  0  0  0  0  0  0  0  0  0
   27.2251  -16.5263  -15.7842 C   0  0  0  0  0  0  0  0  0  0  0  0
   25.5792  -18.3466  -15.7624 C   0  0  0  0  0  0  0  0  0  0  0  0
   25.1979  -19.7510  -15.4922 C   0  0  2  0  0  0  0  0  0  0  0  0
   25.8168  -20.5503  -16.5670 N   0  0  0  0  0  0  0  0  0  0  0  0
   23.7596  -20.0789  -15.5428 C   0  0  0  0  0  0  0  0  0  0  0  0
   23.0702  -19.8937  -16.6119 O   0  0  0  0  0  0  0  0  0  0  0  0
   23.0663  -20.6132  -14.4333 N   0  0  0  0  0  0  0  0  0  0  0  0
   21.6072  -20.8208  -14.5534 C   0  0  1  0  0  0  0  0  0  0  0  0
   21.1582  -21.7497  -13.4458 C   0  0  0  0  0  0  0  0  0  0  0  0
   19.7349  -22.1152  -13.6083 C   0  0  0  0  0  0  0  0  0  0  0  0
   19.1341  -22.9706  -12.5486 C   0  0  0  0  0  0  0  0  0  0  0  0
   17.7447  -23.4399  -12.7658 C   0  0  0  0  0  0  0  0  0  0  0  0
   17.2879  -24.3396  -11.7333 N   0  0  0  0  0  0  0  0  0  0  0  0
   20.9662  -19.4980  -14.5433 C   0  0  0  0  0  0  0  0  0  0  0  0
   21.3694  -18.4137  -13.8072 O   0  0  0  0  0  0  0  0  0  0  0  0
   19.9299  -19.2947  -15.2738 O   0  0  0  0  0  0  0  0  0  0  0  0
  2  1  1  1
  2  3  1  0
  4  3  1  0
  4  5  1  0
  5  6  1  0
  6  7  1  0
  8  2  1  0
  9  8  2  0
 11 10  1  1
 12 11  1  0
 13 11  1  0
 14 13  1  6
 14 15  1  0
 15  8  1  0
 16 14  1  0
 16 17  2  0
 18 16  1  0
 19 18  1  0
 19 20  1  1
 21 20  1  0
 22 21  1  0
 22 23  1  0
 24 23  1  0
 25 26  1  0
 25 19  1  0
 27 25  2  0
M  END
$$$$
