TTG.pdb
     RDKit          3D

 19 18  0  0  1  0  0  0  0  0999 V2000
   16.7966   -9.7876  -19.6083 C   0  0  0  0  0  0  0  0  0  0  0  0
   17.8983   -9.5453  -18.5902 C   0  0  1  0  0  0  0  0  0  0  0  0
   17.4592   -9.7159  -17.2990 O   0  0  0  0  0  0  0  0  0  0  0  0
   19.1377  -10.3435  -18.9225 C   0  0  2  0  0  0  0  0  0  0  0  0
   18.7884  -11.7545  -18.8583 N   0  0  0  0  0  0  0  0  0  0  0  0
   20.2506  -10.1141  -17.9945 C   0  0  0  0  0  0  0  0  0  0  0  0
   20.5908  -10.9078  -17.0821 O   0  0  0  0  0  0  0  0  0  0  0  0
   22.7734   -6.9123  -18.8809 C   0  0  0  0  0  0  0  0  0  0  0  0
   23.2278   -8.1054  -18.0622 C   0  0  1  0  0  0  0  0  0  0  0  0
   24.3712   -7.8220  -17.3515 O   0  0  0  0  0  0  0  0  0  0  0  0
   22.0813   -8.5941  -17.2004 C   0  0  2  0  0  0  0  0  0  0  0  0
   21.0086   -8.9197  -18.1183 N   0  0  0  0  0  0  0  0  0  0  0  0
   21.7035   -7.4962  -16.2796 C   0  0  0  0  0  0  0  0  0  0  0  0
   20.9013   -6.5940  -16.6650 O   0  0  0  0  0  0  0  0  0  0  0  0
   22.1948   -7.3832  -14.9528 N   0  0  0  0  0  0  0  0  0  0  0  0
   21.7282   -6.3769  -14.0227 C   0  0  0  0  0  0  0  0  0  0  0  0
   22.2844   -5.0503  -14.2713 C   0  0  0  0  0  0  0  0  0  0  0  0
   23.1004   -4.8895  -15.2025 O   0  0  0  0  0  0  0  0  0  0  0  0
   21.9317   -3.9623  -13.5017 O   0  0  0  0  0  0  0  0  0  0  0  0
  2  4  1  0
  2  3  1  0
  2  1  1  6
  4  5  1  1
  6  4  1  0
  6 12  1  0
  7  6  2  0
  9  8  1  1
 10  9  1  0
 11 12  1  6
 11  9  1  0
 13 14  2  0
 13 11  1  0
 15 13  1  0
 16 15  1  0
 16 17  1  0
 17 19  1  0
 18 17  2  0
M  END
$$$$
