TTG.pdb
     RDKit          3D

 19 18  0  0  1  0  0  0  0  0999 V2000
   16.3129   -9.1135  -15.1588 C   0  0  0  0  0  0  0  0  0  0  0  0
   16.6987  -10.5783  -15.0378 C   0  0  1  0  0  0  0  0  0  0  0  0
   15.6329  -11.4164  -15.2629 O   0  0  0  0  0  0  0  0  0  0  0  0
   17.9128  -10.8972  -15.8792 C   0  0  2  0  0  0  0  0  0  0  0  0
   18.1513  -12.3298  -15.7907 N   0  0  0  0  0  0  0  0  0  0  0  0
   19.1315  -10.2112  -15.4358 C   0  0  0  0  0  0  0  0  0  0  0  0
   19.7847  -10.5158  -14.4068 O   0  0  0  0  0  0  0  0  0  0  0  0
   22.0636   -9.6891  -17.5847 C   0  0  0  0  0  0  0  0  0  0  0  0
   21.6422   -8.3057  -17.1277 C   0  0  1  0  0  0  0  0  0  0  0  0
   20.9948   -7.6202  -18.1297 O   0  0  0  0  0  0  0  0  0  0  0  0
   20.8367   -8.4185  -15.8492 C   0  0  2  0  0  0  0  0  0  0  0  0
   19.6242   -9.1260  -16.2078 N   0  0  0  0  0  0  0  0  0  0  0  0
   20.5514   -7.0463  -15.3680 C   0  0  0  0  0  0  0  0  0  0  0  0
   19.5645   -6.4033  -15.8359 O   0  0  0  0  0  0  0  0  0  0  0  0
   21.3332   -6.3821  -14.3872 N   0  0  0  0  0  0  0  0  0  0  0  0
   21.0859   -5.0170  -13.9739 C   0  0  0  0  0  0  0  0  0  0  0  0
   22.0972   -4.4913  -13.0619 C   0  0  0  0  0  0  0  0  0  0  0  0
   22.9260   -5.2702  -12.5467 O   0  0  0  0  0  0  0  0  0  0  0  0
   22.1637   -3.1500  -12.7511 O   0  0  0  0  0  0  0  0  0  0  0  0
  2  4  1  0
  2  3  1  0
  2  1  1  6
  4  5  1  1
  6  4  1  0
  6 12  1  0
  7  6  2  0
  9  8  1  6
 10  9  1  0
 11 12  1  6
 11  9  1  0
 13 14  2  0
 13 11  1  0
 15 13  1  0
 16 15  1  0
 16 17  1  0
 17 19  1  0
 18 17  2  0
M  END
$$$$
