TTG.pdb
     RDKit          3D

 19 18  0  0  1  0  0  0  0  0999 V2000
   23.7016  -21.0848   -8.0022 C   0  0  0  0  0  0  0  0  0  0  0  0
   24.0166  -20.5389   -9.3849 C   0  0  1  0  0  0  0  0  0  0  0  0
   23.5455  -19.2593   -9.5578 O   0  0  0  0  0  0  0  0  0  0  0  0
   25.4821  -20.6986   -9.7171 C   0  0  2  0  0  0  0  0  0  0  0  0
   26.2432  -19.9069   -8.7627 N   0  0  0  0  0  0  0  0  0  0  0  0
   25.8328  -20.2361  -11.0645 C   0  0  0  0  0  0  0  0  0  0  0  0
   26.4424  -19.1661  -11.3129 O   0  0  0  0  0  0  0  0  0  0  0  0
   26.5979  -21.2991  -15.7096 C   0  0  0  0  0  0  0  0  0  0  0  0
   26.3862  -21.6869  -14.2586 C   0  0  1  0  0  0  0  0  0  0  0  0
   27.5711  -22.0371  -13.6534 O   0  0  0  0  0  0  0  0  0  0  0  0
   25.6414  -20.5788  -13.5420 C   0  0  2  0  0  0  0  0  0  0  0  0
   25.4680  -21.0374  -12.1787 N   0  0  0  0  0  0  0  0  0  0  0  0
   24.3417  -20.3863  -14.2275 C   0  0  0  0  0  0  0  0  0  0  0  0
   23.3852  -21.1884  -14.0085 O   0  0  0  0  0  0  0  0  0  0  0  0
   24.0874  -19.3308  -15.1416 N   0  0  0  0  0  0  0  0  0  0  0  0
   22.7602  -19.0035  -15.6180 C   0  0  0  0  0  0  0  0  0  0  0  0
   22.3085  -19.8531  -16.7158 C   0  0  0  0  0  0  0  0  0  0  0  0
   23.0745  -20.7263  -17.1737 O   0  0  0  0  0  0  0  0  0  0  0  0
   21.0514  -19.7179  -17.2650 O   0  0  0  0  0  0  0  0  0  0  0  0
  2  4  1  0
  2  3  1  0
  2  1  1  1
  4  5  1  1
  6  4  1  0
  6 12  1  0
  7  6  2  0
  9  8  1  6
 10  9  1  0
 11 12  1  1
 11  9  1  0
 13 14  2  0
 13 11  1  0
 15 13  1  0
 16 15  1  0
 16 17  1  0
 17 19  1  0
 18 17  2  0
M  END
$$$$
