TTG.pdb
     RDKit          3D

 19 18  0  0  1  0  0  0  0  0999 V2000
   27.5434  -18.6067  -13.9984 C   0  0  0  0  0  0  0  0  0  0  0  0
   27.4153  -20.1045  -13.7768 C   0  0  1  0  0  0  0  0  0  0  0  0
   28.2054  -20.5461  -12.7424 O   0  0  0  0  0  0  0  0  0  0  0  0
   25.9671  -20.5196  -13.6571 C   0  0  2  0  0  0  0  0  0  0  0  0
   25.9362  -21.9383  -13.3362 N   0  0  0  0  0  0  0  0  0  0  0  0
   25.1955  -20.3213  -14.8890 C   0  0  0  0  0  0  0  0  0  0  0  0
   25.5304  -20.7623  -16.0167 O   0  0  0  0  0  0  0  0  0  0  0  0
   22.3602  -21.7422  -15.8054 C   0  0  0  0  0  0  0  0  0  0  0  0
   21.9313  -20.2880  -15.7644 C   0  0  1  0  0  0  0  0  0  0  0  0
   21.2374  -20.0003  -14.6117 O   0  0  0  0  0  0  0  0  0  0  0  0
   23.1374  -19.3980  -15.9865 C   0  0  2  0  0  0  0  0  0  0  0  0
   23.9839  -19.5835  -14.8253 N   0  0  0  0  0  0  0  0  0  0  0  0
   22.6576  -18.0006  -16.1004 C   0  0  0  0  0  0  0  0  0  0  0  0
   22.4422  -17.3176  -15.0548 O   0  0  0  0  0  0  0  0  0  0  0  0
   22.4154  -17.3546  -17.3407 N   0  0  0  0  0  0  0  0  0  0  0  0
   21.9895  -15.9746  -17.4406 C   0  0  0  0  0  0  0  0  0  0  0  0
   20.5460  -15.7990  -17.3127 C   0  0  0  0  0  0  0  0  0  0  0  0
   19.8197  -16.7953  -17.1161 O   0  0  0  0  0  0  0  0  0  0  0  0
   19.9577  -14.5556  -17.4036 O   0  0  0  0  0  0  0  0  0  0  0  0
  2  4  1  0
  2  3  1  0
  2  1  1  1
  4  5  1  6
  6  4  1  0
  6 12  1  0
  7  6  2  0
  9  8  1  1
 10  9  1  0
 11 12  1  1
 11  9  1  0
 13 14  2  0
 13 11  1  0
 15 13  1  0
 16 15  1  0
 16 17  1  0
 17 19  1  0
 18 17  2  0
M  END
$$$$
