TTG.pdb
     RDKit          3D

 19 18  0  0  1  0  0  0  0  0999 V2000
   14.4921  -12.0476  -10.8857 C   0  0  0  0  0  0  0  0  0  0  0  0
   13.0148  -11.8286  -10.6052 C   0  0  1  0  0  0  0  0  0  0  0  0
   12.3635  -13.0015  -10.3062 O   0  0  0  0  0  0  0  0  0  0  0  0
   12.8067  -10.7380   -9.5801 C   0  0  2  0  0  0  0  0  0  0  0  0
   11.3735  -10.5683   -9.3960 N   0  0  0  0  0  0  0  0  0  0  0  0
   13.3643   -9.4414   -9.9805 C   0  0  0  0  0  0  0  0  0  0  0  0
   12.8372   -8.6693  -10.8198 O   0  0  0  0  0  0  0  0  0  0  0  0
   16.3712   -5.8282   -8.7067 C   0  0  0  0  0  0  0  0  0  0  0  0
   15.5859   -7.0962   -8.4313 C   0  0  1  0  0  0  0  0  0  0  0  0
   14.5180   -6.8557   -7.5980 O   0  0  0  0  0  0  0  0  0  0  0  0
   15.1988   -7.7470   -9.7439 C   0  0  2  0  0  0  0  0  0  0  0  0
   14.5822   -9.0098   -9.3916 N   0  0  0  0  0  0  0  0  0  0  0  0
   16.4347   -7.9405  -10.5383 C   0  0  0  0  0  0  0  0  0  0  0  0
   17.3567   -8.6928  -10.1022 O   0  0  0  0  0  0  0  0  0  0  0  0
   16.6631   -7.3209  -11.7946 N   0  0  0  0  0  0  0  0  0  0  0  0
   17.8769   -7.5137  -12.5594 C   0  0  0  0  0  0  0  0  0  0  0  0
   17.9230   -6.7274  -13.7885 C   0  0  0  0  0  0  0  0  0  0  0  0
   16.9271   -6.0545  -14.1264 O   0  0  0  0  0  0  0  0  0  0  0  0
   19.0427   -6.7067  -14.5923 O   0  0  0  0  0  0  0  0  0  0  0  0
  2  4  1  0
  2  3  1  0
  2  1  1  1
  4  5  1  6
  6  4  1  0
  6 12  1  0
  7  6  2  0
  9  8  1  6
 10  9  1  0
 11 12  1  1
 11  9  1  0
 13 14  2  0
 13 11  1  0
 15 13  1  0
 16 15  1  0
 16 17  1  0
 17 19  1  0
 18 17  2  0
M  END
$$$$
