TTG.pdb
     RDKit          3D

 19 18  0  0  1  0  0  0  0  0999 V2000
   15.5686  -10.8298  -15.0755 C   0  0  0  0  0  0  0  0  0  0  0  0
   17.0487  -11.0125  -15.3670 C   0  0  1  0  0  0  0  0  0  0  0  0
   17.2727  -11.9419  -16.3546 O   0  0  0  0  0  0  0  0  0  0  0  0
   17.7271   -9.6851  -15.6145 C   0  0  2  0  0  0  0  0  0  0  0  0
   18.1774   -9.6669  -16.9979 N   0  0  0  0  0  0  0  0  0  0  0  0
   18.8965   -9.4545  -14.7591 C   0  0  0  0  0  0  0  0  0  0  0  0
   18.8808   -9.5066  -13.5040 O   0  0  0  0  0  0  0  0  0  0  0  0
   23.7525   -9.4167  -14.5456 C   0  0  0  0  0  0  0  0  0  0  0  0
   22.4265   -9.7359  -15.2091 C   0  0  1  0  0  0  0  0  0  0  0  0
   22.1607  -11.0854  -15.1788 O   0  0  0  0  0  0  0  0  0  0  0  0
   21.3341   -8.8867  -14.5913 C   0  0  2  0  0  0  0  0  0  0  0  0
   20.1414   -9.1500  -15.3706 N   0  0  0  0  0  0  0  0  0  0  0  0
   21.7515   -7.4680  -14.6862 C   0  0  0  0  0  0  0  0  0  0  0  0
   21.7728   -6.8879  -15.8129 O   0  0  0  0  0  0  0  0  0  0  0  0
   22.1414   -6.6899  -13.5651 N   0  0  0  0  0  0  0  0  0  0  0  0
   22.5525   -5.3059  -13.6709 C   0  0  0  0  0  0  0  0  0  0  0  0
   21.4479   -4.3587  -13.5538 C   0  0  0  0  0  0  0  0  0  0  0  0
   20.2844   -4.7856  -13.4023 O   0  0  0  0  0  0  0  0  0  0  0  0
   21.6543   -2.9968  -13.6061 O   0  0  0  0  0  0  0  0  0  0  0  0
  2  4  1  0
  2  3  1  0
  2  1  1  6
  4  5  1  6
  6  4  1  0
  6 12  1  0
  7  6  2  0
  9  8  1  1
 10  9  1  0
 11 12  1  6
 11  9  1  0
 13 14  2  0
 13 11  1  0
 15 13  1  0
 16 15  1  0
 16 17  1  0
 17 19  1  0
 18 17  2  0
M  END
$$$$
