TTG.pdb
     RDKit          3D

 19 18  0  0  1  0  0  0  0  0999 V2000
   17.0347   -9.7344  -14.7574 C   0  0  0  0  0  0  0  0  0  0  0  0
   17.2820  -11.2256  -14.9129 C   0  0  1  0  0  0  0  0  0  0  0  0
   16.1166  -11.9529  -14.8685 O   0  0  0  0  0  0  0  0  0  0  0  0
   18.1358  -11.5167  -16.1253 C   0  0  2  0  0  0  0  0  0  0  0  0
   18.3310  -12.9567  -16.1964 N   0  0  0  0  0  0  0  0  0  0  0  0
   19.4596  -10.8863  -16.0767 C   0  0  0  0  0  0  0  0  0  0  0  0
   20.4674  -11.3903  -15.5211 O   0  0  0  0  0  0  0  0  0  0  0  0
   22.3524   -7.5530  -18.1635 C   0  0  0  0  0  0  0  0  0  0  0  0
   21.0041   -8.2361  -18.0378 C   0  0  1  0  0  0  0  0  0  0  0  0
   20.7539   -9.0573  -19.1129 O   0  0  0  0  0  0  0  0  0  0  0  0
   20.9172   -8.9422  -16.6998 C   0  0  2  0  0  0  0  0  0  0  0  0
   19.6365   -9.6195  -16.6934 N   0  0  0  0  0  0  0  0  0  0  0  0
   21.0015   -7.9141  -15.6360 C   0  0  0  0  0  0  0  0  0  0  0  0
   20.0849   -7.0467  -15.5192 O   0  0  0  0  0  0  0  0  0  0  0  0
   22.0733   -7.8324  -14.7092 N   0  0  0  0  0  0  0  0  0  0  0  0
   22.0878   -6.9012  -13.6010 C   0  0  0  0  0  0  0  0  0  0  0  0
   22.3560   -5.5230  -14.0006 C   0  0  0  0  0  0  0  0  0  0  0  0
   22.5985   -5.2654  -15.1980 O   0  0  0  0  0  0  0  0  0  0  0  0
   22.3492   -4.4906  -13.0871 O   0  0  0  0  0  0  0  0  0  0  0  0
  2  4  1  0
  2  3  1  0
  2  1  1  6
  4  5  1  1
  6  4  1  0
  6 12  1  0
  7  6  2  0
  9  8  1  6
 10  9  1  0
 11 12  1  6
 11  9  1  0
 13 14  2  0
 13 11  1  0
 15 13  1  0
 16 15  1  0
 16 17  1  0
 17 19  1  0
 18 17  2  0
M  END
$$$$
