TTG.pdb
     RDKit          3D

 19 18  0  0  1  0  0  0  0  0999 V2000
   16.1380  -10.5482  -17.8250 C   0  0  0  0  0  0  0  0  0  0  0  0
   17.1355  -10.1336  -16.7563 C   0  0  1  0  0  0  0  0  0  0  0  0
   16.5334   -9.9166  -15.5400 O   0  0  0  0  0  0  0  0  0  0  0  0
   18.3038  -11.0901  -16.6955 C   0  0  2  0  0  0  0  0  0  0  0  0
   17.7951  -12.3874  -16.2772 N   0  0  0  0  0  0  0  0  0  0  0  0
   19.3438  -10.6874  -15.7423 C   0  0  0  0  0  0  0  0  0  0  0  0
   19.3969  -11.0662  -14.5457 O   0  0  0  0  0  0  0  0  0  0  0  0
   22.7439   -8.7502  -17.2379 C   0  0  0  0  0  0  0  0  0  0  0  0
   22.6907   -9.4545  -15.8957 C   0  0  1  0  0  0  0  0  0  0  0  0
   23.7421   -9.0825  -15.0902 O   0  0  0  0  0  0  0  0  0  0  0  0
   21.3317   -9.2347  -15.2623 C   0  0  2  0  0  0  0  0  0  0  0  0
   20.3704   -9.8099  -16.1811 N   0  0  0  0  0  0  0  0  0  0  0  0
   21.1346   -7.7748  -15.1021 C   0  0  0  0  0  0  0  0  0  0  0  0
   20.6338   -7.0956  -16.0477 O   0  0  0  0  0  0  0  0  0  0  0  0
   21.4796   -7.0628  -13.9237 N   0  0  0  0  0  0  0  0  0  0  0  0
   21.1898   -5.6565  -13.7393 C   0  0  0  0  0  0  0  0  0  0  0  0
   22.0383   -4.7766  -14.5373 C   0  0  0  0  0  0  0  0  0  0  0  0
   22.9284   -5.2698  -15.2608 O   0  0  0  0  0  0  0  0  0  0  0  0
   21.8837   -3.4070  -14.5146 O   0  0  0  0  0  0  0  0  0  0  0  0
  2  4  1  0
  2  3  1  0
  2  1  1  6
  4  5  1  1
  6  4  1  0
  6 12  1  0
  7  6  2  0
  9  8  1  6
 10  9  1  0
 11 12  1  6
 11  9  1  0
 13 14  2  0
 13 11  1  0
 15 13  1  0
 16 15  1  0
 16 17  1  0
 17 19  1  0
 18 17  2  0
M  END
$$$$
