TTG.pdb
     RDKit          3D

 19 18  0  0  1  0  0  0  0  0999 V2000
   17.4048  -13.2536  -16.8712 C   0  0  0  0  0  0  0  0  0  0  0  0
   18.4273  -12.6507  -15.9225 C   0  0  1  0  0  0  0  0  0  0  0  0
   19.5445  -13.4407  -15.7928 O   0  0  0  0  0  0  0  0  0  0  0  0
   18.7344  -11.2164  -16.2861 C   0  0  2  0  0  0  0  0  0  0  0  0
   19.3413  -11.2130  -17.6084 N   0  0  0  0  0  0  0  0  0  0  0  0
   19.6681  -10.5632  -15.3621 C   0  0  0  0  0  0  0  0  0  0  0  0
   19.5311  -10.5362  -14.1136 O   0  0  0  0  0  0  0  0  0  0  0  0
   23.3164  -11.0661  -15.1360 C   0  0  0  0  0  0  0  0  0  0  0  0
   23.1185   -9.6013  -15.4763 C   0  0  1  0  0  0  0  0  0  0  0  0
   23.3980   -9.3500  -16.7997 O   0  0  0  0  0  0  0  0  0  0  0  0
   21.7293   -9.1670  -15.0548 C   0  0  2  0  0  0  0  0  0  0  0  0
   20.8118   -9.9107  -15.8939 N   0  0  0  0  0  0  0  0  0  0  0  0
   21.6208   -7.7064  -15.2802 C   0  0  0  0  0  0  0  0  0  0  0  0
   21.2089   -7.2664  -16.3951 O   0  0  0  0  0  0  0  0  0  0  0  0
   21.9574   -6.7359  -14.3009 N   0  0  0  0  0  0  0  0  0  0  0  0
   21.7802   -5.3140  -14.5069 C   0  0  0  0  0  0  0  0  0  0  0  0
   22.2582   -4.4993  -13.3939 C   0  0  0  0  0  0  0  0  0  0  0  0
   22.6960   -5.0572  -12.3662 O   0  0  0  0  0  0  0  0  0  0  0  0
   22.2398   -3.1219  -13.4455 O   0  0  0  0  0  0  0  0  0  0  0  0
  2  4  1  0
  2  3  1  0
  2  1  1  6
  4  5  1  6
  6  4  1  0
  6 12  1  0
  7  6  2  0
  9  8  1  6
 10  9  1  0
 11 12  1  6
 11  9  1  0
 13 14  2  0
 13 11  1  0
 15 13  1  0
 16 15  1  0
 16 17  1  0
 17 19  1  0
 18 17  2  0
M  END
$$$$
