TTG.pdb
     RDKit          3D

 19 18  0  0  1  0  0  0  0  0999 V2000
   15.2524  -11.4616  -16.8639 C   0  0  0  0  0  0  0  0  0  0  0  0
   16.5145  -10.8279  -16.3030 C   0  0  1  0  0  0  0  0  0  0  0  0
   16.3187  -10.3037  -15.0476 O   0  0  0  0  0  0  0  0  0  0  0  0
   17.6895  -11.7740  -16.3916 C   0  0  2  0  0  0  0  0  0  0  0  0
   17.3910  -12.9325  -15.5636 N   0  0  0  0  0  0  0  0  0  0  0  0
   18.9489  -11.1930  -15.9132 C   0  0  0  0  0  0  0  0  0  0  0  0
   19.4843  -11.4662  -14.8100 O   0  0  0  0  0  0  0  0  0  0  0  0
   23.1999   -9.3835  -17.2576 C   0  0  0  0  0  0  0  0  0  0  0  0
   21.8441  -10.0110  -17.5191 C   0  0  1  0  0  0  0  0  0  0  0  0
   21.9554  -11.3554  -17.7891 O   0  0  0  0  0  0  0  0  0  0  0  0
   20.9105   -9.6970  -16.3676 C   0  0  2  0  0  0  0  0  0  0  0  0
   19.6259  -10.2556  -16.7375 N   0  0  0  0  0  0  0  0  0  0  0  0
   20.8482   -8.2237  -16.2204 C   0  0  0  0  0  0  0  0  0  0  0  0
   20.3338   -7.5166  -17.1378 O   0  0  0  0  0  0  0  0  0  0  0  0
   21.3413   -7.5287  -15.0854 N   0  0  0  0  0  0  0  0  0  0  0  0
   21.3422   -6.0846  -14.9845 C   0  0  0  0  0  0  0  0  0  0  0  0
   21.8977   -5.5880  -13.7293 C   0  0  0  0  0  0  0  0  0  0  0  0
   22.2407   -6.3992  -12.8442 O   0  0  0  0  0  0  0  0  0  0  0  0
   22.0555   -4.2393  -13.4915 O   0  0  0  0  0  0  0  0  0  0  0  0
  2  4  1  0
  2  3  1  0
  2  1  1  1
  4  5  1  1
  6  4  1  0
  6 12  1  0
  7  6  2  0
  9  8  1  1
 10  9  1  0
 11 12  1  6
 11  9  1  0
 13 14  2  0
 13 11  1  0
 15 13  1  0
 16 15  1  0
 16 17  1  0
 17 19  1  0
 18 17  2  0
M  END
$$$$
