MLK.pdb
     RDKit          3D

 26 25  0  0  1  0  0  0  0  0999 V2000
    5.2042  -20.2922   22.8610 C   0  0  0  0  0  0  0  0  0  0  0  0
    5.5255  -19.8489   21.1324 S   0  0  0  0  0  0  0  0  0  0  0  0
    5.7300  -18.0552   20.9439 C   0  0  0  0  0  0  0  0  0  0  0  0
    6.7024  -17.5838   22.0265 C   0  0  0  0  0  0  0  0  0  0  0  0
    6.7992  -16.0812   21.8648 C   0  0  2  0  0  0  0  0  0  0  0  0
    7.3008  -15.7498   20.5443 N   0  0  0  0  0  0  0  0  0  0  0  0
    7.6619  -15.4644   22.9201 C   0  0  0  0  0  0  0  0  0  0  0  0
    8.9085  -15.3425   22.7593 O   0  0  0  0  0  0  0  0  0  0  0  0
    5.7361  -11.6267   26.5220 C   0  0  0  0  0  0  0  0  0  0  0  0
    6.5954  -12.4159   25.5564 C   0  0  1  0  0  0  0  0  0  0  0  0
    7.7834  -11.4707   25.2495 C   0  0  0  0  0  0  0  0  0  0  0  0
    7.1806  -13.6344   26.1444 C   0  0  0  0  0  0  0  0  0  0  0  0
    8.0095  -14.4888   25.2299 C   0  0  2  0  0  0  0  0  0  0  0  0
    7.1257  -14.9915   24.1400 N   0  0  0  0  0  0  0  0  0  0  0  0
    8.4589  -15.6851   25.9651 C   0  0  0  0  0  0  0  0  0  0  0  0
    7.5742  -16.6020   26.1357 O   0  0  0  0  0  0  0  0  0  0  0  0
    9.7442  -15.9171   26.4836 N   0  0  0  0  0  0  0  0  0  0  0  0
   10.0190  -17.2383   27.1576 C   0  0  1  0  0  0  0  0  0  0  0  0
   11.1373  -17.7918   26.3441 C   0  0  0  0  0  0  0  0  0  0  0  0
   11.8642  -18.9961   26.6940 C   0  0  0  0  0  0  0  0  0  0  0  0
   13.0161  -19.4842   25.9161 C   0  0  0  0  0  0  0  0  0  0  0  0
   13.5871  -20.7342   26.6480 C   0  0  0  0  0  0  0  0  0  0  0  0
   14.6403  -21.3272   25.8416 N   0  0  0  0  0  0  0  0  0  0  0  0
   10.3546  -16.8536   28.5386 C   0  0  0  0  0  0  0  0  0  0  0  0
   10.5542  -17.8811   29.4883 O   0  0  0  0  0  0  0  0  0  0  0  0
   10.4785  -15.6476   28.9501 O   0  0  0  0  0  0  0  0  0  0  0  0
  2  1  1  0
  3  2  1  0
  4  3  1  0
  4  5  1  0
  5  6  1  6
  7  5  1  0
  7  8  2  0
 10 11  1  1
 10  9  1  0
 12 10  1  0
 13 12  1  1
 13 14  1  0
 14  7  1  0
 15 13  1  0
 16 15  2  0
 17 15  1  0
 18 24  1  0
 18 17  1  0
 18 19  1  6
 20 19  1  0
 21 20  1  0
 22 21  1  0
 23 22  1  0
 24 25  1  0
 26 24  2  0
M  END
$$$$
