MLK.pdb
     RDKit          3D

 26 25  0  0  1  0  0  0  0  0999 V2000
    7.4429  -20.0753   21.2067 C   0  0  0  0  0  0  0  0  0  0  0  0
    7.1202  -19.3797   19.5636 S   0  0  0  0  0  0  0  0  0  0  0  0
    7.5117  -17.6080   19.5145 C   0  0  0  0  0  0  0  0  0  0  0  0
    7.9348  -17.1882   20.9232 C   0  0  0  0  0  0  0  0  0  0  0  0
    8.2389  -15.7072   20.8359 C   0  0  2  0  0  0  0  0  0  0  0  0
    9.2621  -15.4629   19.8366 N   0  0  0  0  0  0  0  0  0  0  0  0
    8.6584  -15.1484   22.1589 C   0  0  0  0  0  0  0  0  0  0  0  0
    9.8563  -15.2225   22.5518 O   0  0  0  0  0  0  0  0  0  0  0  0
    8.2331  -11.6902   26.5305 C   0  0  0  0  0  0  0  0  0  0  0  0
    7.1862  -12.7679   26.3398 C   0  0  1  0  0  0  0  0  0  0  0  0
    5.8550  -12.0717   26.7167 C   0  0  0  0  0  0  0  0  0  0  0  0
    7.0381  -13.2086   24.9409 C   0  0  0  0  0  0  0  0  0  0  0  0
    8.1508  -14.0458   24.3802 C   0  0  2  0  0  0  0  0  0  0  0  0
    7.7394  -14.5144   23.0264 N   0  0  0  0  0  0  0  0  0  0  0  0
    8.2962  -15.2635   25.1986 C   0  0  0  0  0  0  0  0  0  0  0  0
    7.4292  -16.1881   24.9846 O   0  0  0  0  0  0  0  0  0  0  0  0
    9.2811  -15.5078   26.1707 N   0  0  0  0  0  0  0  0  0  0  0  0
    9.5147  -16.9304   26.6145 C   0  0  1  0  0  0  0  0  0  0  0  0
   10.3816  -17.4709   25.5304 C   0  0  0  0  0  0  0  0  0  0  0  0
   11.0796  -18.7381   25.6182 C   0  0  0  0  0  0  0  0  0  0  0  0
   11.9314  -19.2539   24.5325 C   0  0  0  0  0  0  0  0  0  0  0  0
   12.5433  -20.6035   25.0103 C   0  0  0  0  0  0  0  0  0  0  0  0
   13.4576  -21.1048   23.9985 N   0  0  0  0  0  0  0  0  0  0  0  0
   10.1513  -16.7763   27.9332 C   0  0  0  0  0  0  0  0  0  0  0  0
   10.2545  -17.9163   28.7621 O   0  0  0  0  0  0  0  0  0  0  0  0
   10.6210  -15.6774   28.3923 O   0  0  0  0  0  0  0  0  0  0  0  0
  2  1  1  0
  3  2  1  0
  4  3  1  0
  4  5  1  0
  5  6  1  6
  7  5  1  0
  7  8  2  0
 10 11  1  6
 10  9  1  0
 12 10  1  0
 13 12  1  1
 13 14  1  0
 14  7  1  0
 15 13  1  0
 16 15  2  0
 17 15  1  0
 18 24  1  0
 18 17  1  0
 18 19  1  6
 20 19  1  0
 21 20  1  0
 22 21  1  0
 23 22  1  0
 24 25  1  0
 26 24  2  0
M  END
$$$$
