MLK.pdb
     RDKit          3D

 26 25  0  0  1  0  0  0  0  0999 V2000
    8.2704  -11.6992   18.9499 C   0  0  0  0  0  0  0  0  0  0  0  0
    7.5844  -13.1459   18.0989 S   0  0  0  0  0  0  0  0  0  0  0  0
    7.3474  -14.5302   19.2488 C   0  0  0  0  0  0  0  0  0  0  0  0
    8.5917  -14.6144   20.1347 C   0  0  0  0  0  0  0  0  0  0  0  0
    8.3077  -15.7132   21.1373 C   0  0  2  0  0  0  0  0  0  0  0  0
    6.9400  -16.1774   20.9993 N   0  0  0  0  0  0  0  0  0  0  0  0
    8.5665  -15.2637   22.5407 C   0  0  0  0  0  0  0  0  0  0  0  0
    9.7429  -15.1102   22.9735 O   0  0  0  0  0  0  0  0  0  0  0  0
    7.7853  -12.3079   27.0117 C   0  0  0  0  0  0  0  0  0  0  0  0
    6.6608  -13.2773   26.7123 C   0  0  1  0  0  0  0  0  0  0  0  0
    5.3748  -12.4419   26.9293 C   0  0  0  0  0  0  0  0  0  0  0  0
    6.6261  -13.7289   25.3095 C   0  0  0  0  0  0  0  0  0  0  0  0
    7.7862  -14.5596   24.8435 C   0  0  2  0  0  0  0  0  0  0  0  0
    7.5129  -14.9908   23.4431 N   0  0  0  0  0  0  0  0  0  0  0  0
    7.8419  -15.7986   25.6406 C   0  0  0  0  0  0  0  0  0  0  0  0
    6.7199  -16.4004   25.8179 O   0  0  0  0  0  0  0  0  0  0  0  0
    8.9881  -16.3783   26.2106 N   0  0  0  0  0  0  0  0  0  0  0  0
    8.8366  -17.6744   26.9673 C   0  0  1  0  0  0  0  0  0  0  0  0
    8.8782  -18.6920   25.8803 C   0  0  0  0  0  0  0  0  0  0  0  0
   10.0204  -18.8901   25.0102 C   0  0  0  0  0  0  0  0  0  0  0  0
   10.0452  -19.9133   23.9505 C   0  0  0  0  0  0  0  0  0  0  0  0
   11.4424  -19.8534   23.2661 C   0  0  0  0  0  0  0  0  0  0  0  0
   11.4632  -20.7586   22.1299 N   0  0  0  0  0  0  0  0  0  0  0  0
    9.9848  -17.6677   27.8889 C   0  0  0  0  0  0  0  0  0  0  0  0
   10.8247  -16.5311   27.9009 O   0  0  0  0  0  0  0  0  0  0  0  0
   10.2854  -18.6228   28.6866 O   0  0  0  0  0  0  0  0  0  0  0  0
  2  1  1  0
  3  2  1  0
  4  3  1  0
  4  5  1  0
  5  6  1  1
  7  5  1  0
  7  8  2  0
 10 11  1  6
 10  9  1  0
 12 10  1  0
 13 12  1  1
 13 14  1  0
 14  7  1  0
 15 13  1  0
 16 15  2  0
 17 15  1  0
 18 24  1  0
 18 17  1  0
 18 19  1  6
 20 19  1  0
 21 20  1  0
 22 21  1  0
 23 22  1  0
 24 25  1  0
 26 24  2  0
M  END
$$$$
