MLK.pdb
     RDKit          3D

 26 25  0  0  1  0  0  0  0  0999 V2000
    8.7762  -12.1169   26.0355 C   0  0  0  0  0  0  0  0  0  0  0  0
    7.4535  -12.7750   27.0869 S   0  0  0  0  0  0  0  0  0  0  0  0
    7.2600  -14.5645   26.8521 C   0  0  0  0  0  0  0  0  0  0  0  0
    8.0074  -14.9471   25.5735 C   0  0  0  0  0  0  0  0  0  0  0  0
    7.0835  -15.8833   24.8229 C   0  0  2  0  0  0  0  0  0  0  0  0
    6.7791  -17.0462   25.6354 N   0  0  0  0  0  0  0  0  0  0  0  0
    7.6660  -16.3025   23.5101 C   0  0  0  0  0  0  0  0  0  0  0  0
    7.8669  -17.5198   23.2408 O   0  0  0  0  0  0  0  0  0  0  0  0
    8.0718  -12.1380   20.1039 C   0  0  0  0  0  0  0  0  0  0  0  0
    7.6384  -13.4533   20.7172 C   0  0  1  0  0  0  0  0  0  0  0  0
    6.1984  -13.6610   20.1861 C   0  0  0  0  0  0  0  0  0  0  0  0
    8.4207  -14.6114   20.2484 C   0  0  0  0  0  0  0  0  0  0  0  0
    8.4780  -15.7978   21.1663 C   0  0  2  0  0  0  0  0  0  0  0  0
    8.0166  -15.3615   22.5148 N   0  0  0  0  0  0  0  0  0  0  0  0
    9.8841  -16.2069   21.3368 C   0  0  0  0  0  0  0  0  0  0  0  0
   10.4582  -16.6852   20.2909 O   0  0  0  0  0  0  0  0  0  0  0  0
   10.6461  -16.1190   22.5143 N   0  0  0  0  0  0  0  0  0  0  0  0
   12.0904  -16.5520   22.4689 C   0  0  1  0  0  0  0  0  0  0  0  0
   12.7375  -15.4461   21.7093 C   0  0  0  0  0  0  0  0  0  0  0  0
   14.1515  -15.4107   21.3924 C   0  0  0  0  0  0  0  0  0  0  0  0
   14.7752  -14.2938   20.6619 C   0  0  0  0  0  0  0  0  0  0  0  0
   16.2856  -14.6279   20.4843 C   0  0  0  0  0  0  0  0  0  0  0  0
   16.7247  -14.1957   19.1686 N   0  0  0  0  0  0  0  0  0  0  0  0
   12.4589  -16.6604   23.8902 C   0  0  0  0  0  0  0  0  0  0  0  0
   11.4843  -16.3322   24.8596 O   0  0  0  0  0  0  0  0  0  0  0  0
   13.6068  -17.0304   24.3199 O   0  0  0  0  0  0  0  0  0  0  0  0
  2  1  1  0
  3  2  1  0
  4  3  1  0
  4  5  1  0
  5  6  1  1
  7  5  1  0
  7  8  2  0
 10 11  1  6
 10  9  1  0
 12 10  1  0
 13 12  1  6
 13 14  1  0
 14  7  1  0
 15 13  1  0
 16 15  2  0
 17 15  1  0
 18 24  1  0
 18 17  1  0
 18 19  1  6
 20 19  1  0
 21 20  1  0
 22 21  1  0
 23 22  1  0
 24 25  1  0
 26 24  2  0
M  END
$$$$
