MLK.pdb
     RDKit          3D

 26 25  0  0  1  0  0  0  0  0999 V2000
    8.0534  -11.5154   19.2007 C   0  0  0  0  0  0  0  0  0  0  0  0
    7.3875  -12.9817   18.3673 S   0  0  0  0  0  0  0  0  0  0  0  0
    7.8376  -14.4998   19.2546 C   0  0  0  0  0  0  0  0  0  0  0  0
    8.1614  -14.1133   20.6988 C   0  0  0  0  0  0  0  0  0  0  0  0
    8.4410  -15.4157   21.4191 C   0  0  2  0  0  0  0  0  0  0  0  0
    7.2688  -16.2701   21.3845 N   0  0  0  0  0  0  0  0  0  0  0  0
    8.8767  -15.1856   22.8318 C   0  0  0  0  0  0  0  0  0  0  0  0
   10.0953  -15.0313   23.1252 O   0  0  0  0  0  0  0  0  0  0  0  0
    5.7136  -12.3657   26.5064 C   0  0  0  0  0  0  0  0  0  0  0  0
    6.9149  -12.8877   25.7460 C   0  0  1  0  0  0  0  0  0  0  0  0
    8.0948  -12.0333   26.2720 C   0  0  0  0  0  0  0  0  0  0  0  0
    7.2504  -14.2887   26.0584 C   0  0  0  0  0  0  0  0  0  0  0  0
    8.3984  -14.8886   25.2997 C   0  0  2  0  0  0  0  0  0  0  0  0
    7.9505  -15.1299   23.8987 N   0  0  0  0  0  0  0  0  0  0  0  0
    8.7015  -16.2189   25.8582 C   0  0  0  0  0  0  0  0  0  0  0  0
    7.8019  -17.1194   25.6781 O   0  0  0  0  0  0  0  0  0  0  0  0
    9.8651  -16.5917   26.5523 N   0  0  0  0  0  0  0  0  0  0  0  0
   10.0215  -18.0328   26.9699 C   0  0  1  0  0  0  0  0  0  0  0  0
   10.9528  -18.5705   25.9393 C   0  0  0  0  0  0  0  0  0  0  0  0
   11.5114  -19.9074   25.9822 C   0  0  0  0  0  0  0  0  0  0  0  0
   12.4695  -20.4018   24.9783 C   0  0  0  0  0  0  0  0  0  0  0  0
   12.9352  -21.8188   25.4248 C   0  0  0  0  0  0  0  0  0  0  0  0
   13.9884  -22.2830   24.5382 N   0  0  0  0  0  0  0  0  0  0  0  0
   10.5590  -17.9353   28.3372 C   0  0  0  0  0  0  0  0  0  0  0  0
   10.5610  -19.0996   29.1384 O   0  0  0  0  0  0  0  0  0  0  0  0
   11.0271  -16.8657   28.8623 O   0  0  0  0  0  0  0  0  0  0  0  0
  2  1  1  0
  3  2  1  0
  4  3  1  0
  4  5  1  0
  5  6  1  1
  7  5  1  0
  7  8  2  0
 10 11  1  1
 10  9  1  0
 12 10  1  0
 13 12  1  1
 13 14  1  0
 14  7  1  0
 15 13  1  0
 16 15  2  0
 17 15  1  0
 18 24  1  0
 18 17  1  0
 18 19  1  6
 20 19  1  0
 21 20  1  0
 22 21  1  0
 23 22  1  0
 24 25  1  0
 26 24  2  0
M  END
$$$$
