MLK.pdb
     RDKit          3D

 26 25  0  0  1  0  0  0  0  0999 V2000
    9.6515  -13.5527   29.2428 C   0  0  0  0  0  0  0  0  0  0  0  0
   11.1220  -14.5233   29.6709 S   0  0  0  0  0  0  0  0  0  0  0  0
   11.2802  -15.9793   28.5986 C   0  0  0  0  0  0  0  0  0  0  0  0
    9.8806  -16.5651   28.4040 C   0  0  0  0  0  0  0  0  0  0  0  0
    9.7768  -16.8987   26.9305 C   0  0  2  0  0  0  0  0  0  0  0  0
   10.9069  -16.3435   26.2094 N   0  0  0  0  0  0  0  0  0  0  0  0
    8.4914  -16.4106   26.3407 C   0  0  0  0  0  0  0  0  0  0  0  0
    7.3814  -16.9004   26.6913 O   0  0  0  0  0  0  0  0  0  0  0  0
    7.4033  -11.4026   25.9074 C   0  0  0  0  0  0  0  0  0  0  0  0
    7.2351  -12.9052   25.9950 C   0  0  1  0  0  0  0  0  0  0  0  0
    5.9169  -13.0918   26.7864 C   0  0  0  0  0  0  0  0  0  0  0  0
    7.0256  -13.5548   24.6884 C   0  0  0  0  0  0  0  0  0  0  0  0
    7.2008  -15.0450   24.6445 C   0  0  2  0  0  0  0  0  0  0  0  0
    8.4585  -15.3839   25.3691 N   0  0  0  0  0  0  0  0  0  0  0  0
    7.4181  -15.4630   23.2475 C   0  0  0  0  0  0  0  0  0  0  0  0
    6.3840  -15.4244   22.4848 O   0  0  0  0  0  0  0  0  0  0  0  0
    8.6308  -15.8872   22.6780 N   0  0  0  0  0  0  0  0  0  0  0  0
    8.6442  -16.2680   21.2185 C   0  0  1  0  0  0  0  0  0  0  0  0
    8.6061  -14.9441   20.5368 C   0  0  0  0  0  0  0  0  0  0  0  0
    8.2522  -14.7699   19.1421 C   0  0  0  0  0  0  0  0  0  0  0  0
    8.6831  -13.6038   18.3517 C   0  0  0  0  0  0  0  0  0  0  0  0
    7.9914  -13.6926   16.9596 C   0  0  0  0  0  0  0  0  0  0  0  0
    8.4231  -12.5781   16.1335 N   0  0  0  0  0  0  0  0  0  0  0  0
    9.8955  -17.0309   21.0765 C   0  0  0  0  0  0  0  0  0  0  0  0
   10.7756  -17.0816   22.1811 O   0  0  0  0  0  0  0  0  0  0  0  0
   10.2523  -17.6561   20.0178 O   0  0  0  0  0  0  0  0  0  0  0  0
  2  1  1  0
  3  2  1  0
  4  3  1  0
  4  5  1  0
  5  6  1  6
  7  5  1  0
  7  8  2  0
 10 11  1  1
 10  9  1  0
 12 10  1  0
 13 12  1  6
 13 14  1  0
 14  7  1  0
 15 13  1  0
 16 15  2  0
 17 15  1  0
 18 24  1  0
 18 17  1  0
 18 19  1  6
 20 19  1  0
 21 20  1  0
 22 21  1  0
 23 22  1  0
 24 25  1  0
 26 24  2  0
M  END
$$$$
