MLK.pdb
     RDKit          3D

 26 25  0  0  1  0  0  0  0  0999 V2000
    5.3544  -11.4334   26.2752 C   0  0  0  0  0  0  0  0  0  0  0  0
    7.1096  -11.7848   26.5644 S   0  0  0  0  0  0  0  0  0  0  0  0
    7.3599  -13.5178   27.0430 C   0  0  0  0  0  0  0  0  0  0  0  0
    6.5770  -14.3877   26.0580 C   0  0  0  0  0  0  0  0  0  0  0  0
    7.4341  -15.6140   25.8230 C   0  0  2  0  0  0  0  0  0  0  0  0
    8.7516  -15.4236   26.4001 N   0  0  0  0  0  0  0  0  0  0  0  0
    7.5450  -15.9422   24.3675 C   0  0  0  0  0  0  0  0  0  0  0  0
    6.6759  -16.6514   23.7873 O   0  0  0  0  0  0  0  0  0  0  0  0
    6.6050  -14.0626   20.7936 C   0  0  0  0  0  0  0  0  0  0  0  0
    8.0632  -13.8809   20.4272 C   0  0  1  0  0  0  0  0  0  0  0  0
    8.2524  -12.3443   20.3822 C   0  0  0  0  0  0  0  0  0  0  0  0
    8.9979  -14.3805   21.4518 C   0  0  0  0  0  0  0  0  0  0  0  0
    8.6448  -15.6865   22.1020 C   0  0  2  0  0  0  0  0  0  0  0  0
    8.6211  -15.4766   23.5775 N   0  0  0  0  0  0  0  0  0  0  0  0
    9.7267  -16.6564   21.8525 C   0  0  0  0  0  0  0  0  0  0  0  0
   10.7822  -16.5144   22.5724 O   0  0  0  0  0  0  0  0  0  0  0  0
    9.7114  -17.7087   20.9213 N   0  0  0  0  0  0  0  0  0  0  0  0
   10.9090  -18.6233   20.8514 C   0  0  1  0  0  0  0  0  0  0  0  0
   10.2866  -19.9566   20.6198 C   0  0  0  0  0  0  0  0  0  0  0  0
    9.6036  -20.7129   21.6506 C   0  0  0  0  0  0  0  0  0  0  0  0
    9.0522  -22.0588   21.4162 C   0  0  0  0  0  0  0  0  0  0  0  0
    8.3806  -22.5330   22.7385 C   0  0  0  0  0  0  0  0  0  0  0  0
    7.8588  -23.8772   22.5605 N   0  0  0  0  0  0  0  0  0  0  0  0
   11.6929  -18.0741   19.7326 C   0  0  0  0  0  0  0  0  0  0  0  0
   13.0776  -18.3530   19.6873 O   0  0  0  0  0  0  0  0  0  0  0  0
   11.2122  -17.3540   18.7895 O   0  0  0  0  0  0  0  0  0  0  0  0
  2  1  1  0
  3  2  1  0
  4  3  1  0
  4  5  1  0
  5  6  1  6
  7  5  1  0
  7  8  2  0
 10 11  1  1
 10  9  1  0
 12 10  1  0
 13 12  1  6
 13 14  1  0
 14  7  1  0
 15 13  1  0
 16 15  2  0
 17 15  1  0
 18 24  1  0
 18 17  1  0
 18 19  1  6
 20 19  1  0
 21 20  1  0
 22 21  1  0
 23 22  1  0
 24 25  1  0
 26 24  2  0
M  END
$$$$
