MLK.pdb
     RDKit          3D

 26 25  0  0  1  0  0  0  0  0999 V2000
    5.5603  -20.0384   22.4936 C   0  0  0  0  0  0  0  0  0  0  0  0
    5.0897  -19.4201   20.8553 S   0  0  0  0  0  0  0  0  0  0  0  0
    5.4352  -17.6448   20.7017 C   0  0  0  0  0  0  0  0  0  0  0  0
    6.4759  -17.2822   21.7625 C   0  0  0  0  0  0  0  0  0  0  0  0
    6.6629  -15.7830   21.6581 C   0  0  2  0  0  0  0  0  0  0  0  0
    7.1649  -15.4302   20.3434 N   0  0  0  0  0  0  0  0  0  0  0  0
    7.5772  -15.2629   22.7221 C   0  0  0  0  0  0  0  0  0  0  0  0
    8.8234  -15.1828   22.5341 O   0  0  0  0  0  0  0  0  0  0  0  0
    5.8324  -11.7267   26.8211 C   0  0  0  0  0  0  0  0  0  0  0  0
    6.6013  -12.4059   25.7070 C   0  0  1  0  0  0  0  0  0  0  0  0
    7.7731  -11.4370   25.4122 C   0  0  0  0  0  0  0  0  0  0  0  0
    7.2157  -13.6851   26.1058 C   0  0  0  0  0  0  0  0  0  0  0  0
    8.0220  -14.3971   25.0588 C   0  0  2  0  0  0  0  0  0  0  0  0
    7.0923  -14.8387   23.9807 N   0  0  0  0  0  0  0  0  0  0  0  0
    8.5793  -15.6329   25.6384 C   0  0  0  0  0  0  0  0  0  0  0  0
    7.7359  -16.5781   25.8568 O   0  0  0  0  0  0  0  0  0  0  0  0
    9.9249  -15.8738   25.9638 N   0  0  0  0  0  0  0  0  0  0  0  0
   10.3180  -17.2591   26.4131 C   0  0  1  0  0  0  0  0  0  0  0  0
   11.4962  -17.5579   25.5521 C   0  0  0  0  0  0  0  0  0  0  0  0
   12.3046  -18.7537   25.6855 C   0  0  0  0  0  0  0  0  0  0  0  0
   13.4648  -19.0300   24.8208 C   0  0  0  0  0  0  0  0  0  0  0  0
   14.0039  -20.4438   25.1881 C   0  0  0  0  0  0  0  0  0  0  0  0
   15.1782  -20.7370   24.3845 N   0  0  0  0  0  0  0  0  0  0  0  0
   10.5953  -17.0863   27.8488 C   0  0  0  0  0  0  0  0  0  0  0  0
   10.8638  -18.2394   28.6205 O   0  0  0  0  0  0  0  0  0  0  0  0
   10.6096  -15.9606   28.4585 O   0  0  0  0  0  0  0  0  0  0  0  0
  2  1  1  0
  3  2  1  0
  4  3  1  0
  4  5  1  0
  5  6  1  6
  7  5  1  0
  7  8  2  0
 10 11  1  1
 10  9  1  0
 12 10  1  0
 13 12  1  1
 13 14  1  0
 14  7  1  0
 15 13  1  0
 16 15  2  0
 17 15  1  0
 18 24  1  0
 18 17  1  0
 18 19  1  6
 20 19  1  0
 21 20  1  0
 22 21  1  0
 23 22  1  0
 24 25  1  0
 26 24  2  0
M  END
$$$$
