MLK.pdb
     RDKit          3D

 26 25  0  0  1  0  0  0  0  0999 V2000
    6.5950  -21.4839   25.6306 C   0  0  0  0  0  0  0  0  0  0  0  0
    5.4430  -21.6726   24.2431 S   0  0  0  0  0  0  0  0  0  0  0  0
    5.4754  -20.2144   23.1626 C   0  0  0  0  0  0  0  0  0  0  0  0
    6.4469  -19.2049   23.7765 C   0  0  0  0  0  0  0  0  0  0  0  0
    6.3515  -17.9655   22.9114 C   0  0  2  0  0  0  0  0  0  0  0  0
    6.7665  -18.2675   21.5543 N   0  0  0  0  0  0  0  0  0  0  0  0
    7.1637  -16.8382   23.4663 C   0  0  0  0  0  0  0  0  0  0  0  0
    8.3646  -16.6618   23.1179 O   0  0  0  0  0  0  0  0  0  0  0  0
    8.0667  -11.9017   25.7991 C   0  0  0  0  0  0  0  0  0  0  0  0
    7.2626  -12.9047   26.5998 C   0  0  1  0  0  0  0  0  0  0  0  0
    6.1308  -12.0596   27.2353 C   0  0  0  0  0  0  0  0  0  0  0  0
    6.5972  -13.9266   25.7715 C   0  0  0  0  0  0  0  0  0  0  0  0
    7.4911  -14.9084   25.0713 C   0  0  2  0  0  0  0  0  0  0  0  0
    6.6284  -15.9223   24.4011 N   0  0  0  0  0  0  0  0  0  0  0  0
    8.2731  -15.6498   26.0775 C   0  0  0  0  0  0  0  0  0  0  0  0
    7.5933  -16.3845   26.8840 O   0  0  0  0  0  0  0  0  0  0  0  0
    9.6698  -15.6345   26.2321 N   0  0  0  0  0  0  0  0  0  0  0  0
   10.2915  -16.5741   27.2351 C   0  0  1  0  0  0  0  0  0  0  0  0
   11.4835  -17.0874   26.5042 C   0  0  0  0  0  0  0  0  0  0  0  0
   11.4020  -17.8812   25.2942 C   0  0  0  0  0  0  0  0  0  0  0  0
   12.5953  -18.3631   24.5770 C   0  0  0  0  0  0  0  0  0  0  0  0
   12.1099  -19.1573   23.3289 C   0  0  0  0  0  0  0  0  0  0  0  0
   13.2607  -19.6037   22.5626 N   0  0  0  0  0  0  0  0  0  0  0  0
   10.5683  -15.7048   28.3908 C   0  0  0  0  0  0  0  0  0  0  0  0
   10.9045  -16.3155   29.6202 O   0  0  0  0  0  0  0  0  0  0  0  0
   10.5250  -14.4255   28.3682 O   0  0  0  0  0  0  0  0  0  0  0  0
  2  1  1  0
  3  2  1  0
  4  3  1  0
  4  5  1  0
  5  6  1  6
  7  5  1  0
  7  8  2  0
 10 11  1  6
 10  9  1  0
 12 10  1  0
 13 12  1  1
 13 14  1  0
 14  7  1  0
 15 13  1  0
 16 15  2  0
 17 15  1  0
 18 24  1  0
 18 17  1  0
 18 19  1  6
 20 19  1  0
 21 20  1  0
 22 21  1  0
 23 22  1  0
 24 25  1  0
 26 24  2  0
M  END
$$$$
