MLK.pdb
     RDKit          3D

 26 25  0  0  1  0  0  0  0  0999 V2000
    2.6956  -18.0628   19.3088 C   0  0  0  0  0  0  0  0  0  0  0  0
    3.8550  -18.9791   18.2581 S   0  0  0  0  0  0  0  0  0  0  0  0
    5.3905  -19.3545   19.1503 C   0  0  0  0  0  0  0  0  0  0  0  0
    6.2958  -18.1255   19.0512 C   0  0  0  0  0  0  0  0  0  0  0  0
    7.5753  -18.4996   19.7698 C   0  0  2  0  0  0  0  0  0  0  0  0
    7.2819  -18.9399   21.1208 N   0  0  0  0  0  0  0  0  0  0  0  0
    8.5509  -17.3655   19.7914 C   0  0  0  0  0  0  0  0  0  0  0  0
    9.4918  -17.2938   18.9521 O   0  0  0  0  0  0  0  0  0  0  0  0
    6.8197  -12.4839   21.3312 C   0  0  0  0  0  0  0  0  0  0  0  0
    7.5888  -13.5704   20.6089 C   0  0  1  0  0  0  0  0  0  0  0  0
    8.0587  -12.8923   19.2981 C   0  0  0  0  0  0  0  0  0  0  0  0
    8.8119  -13.9977   21.3121 C   0  0  0  0  0  0  0  0  0  0  0  0
    9.4830  -15.2378   20.7973 C   0  0  2  0  0  0  0  0  0  0  0  0
    8.4661  -16.3264   20.7465 N   0  0  0  0  0  0  0  0  0  0  0  0
   10.4940  -15.6792   21.7754 C   0  0  0  0  0  0  0  0  0  0  0  0
   11.4398  -14.8431   22.0181 O   0  0  0  0  0  0  0  0  0  0  0  0
   10.5180  -16.9054   22.4613 N   0  0  0  0  0  0  0  0  0  0  0  0
   11.6413  -17.1618   23.4349 C   0  0  1  0  0  0  0  0  0  0  0  0
   10.9156  -17.5911   24.6628 C   0  0  0  0  0  0  0  0  0  0  0  0
   11.5698  -18.1654   25.8217 C   0  0  0  0  0  0  0  0  0  0  0  0
   10.8223  -18.7324   26.9576 C   0  0  0  0  0  0  0  0  0  0  0  0
   11.8581  -19.1846   28.0285 C   0  0  0  0  0  0  0  0  0  0  0  0
   11.1575  -19.7328   29.1772 N   0  0  0  0  0  0  0  0  0  0  0  0
   12.4441  -18.1980   22.7644 C   0  0  0  0  0  0  0  0  0  0  0  0
   13.8052  -18.3245   23.1233 O   0  0  0  0  0  0  0  0  0  0  0  0
   12.0002  -18.9997   21.8704 O   0  0  0  0  0  0  0  0  0  0  0  0
  2  1  1  0
  3  2  1  0
  4  3  1  0
  4  5  1  0
  5  6  1  1
  7  5  1  0
  7  8  2  0
 10 11  1  6
 10  9  1  0
 12 10  1  0
 13 12  1  1
 13 14  1  0
 14  7  1  0
 15 13  1  0
 16 15  2  0
 17 15  1  0
 18 24  1  0
 18 17  1  0
 18 19  1  1
 20 19  1  0
 21 20  1  0
 22 21  1  0
 23 22  1  0
 24 25  1  0
 26 24  2  0
M  END
$$$$
