MLK.pdb
     RDKit          3D

 26 25  0  0  1  0  0  0  0  0999 V2000
    9.0302  -11.1655   19.6375 C   0  0  0  0  0  0  0  0  0  0  0  0
    7.8211  -12.2231   20.4786 S   0  0  0  0  0  0  0  0  0  0  0  0
    7.6266  -13.8085   19.6164 C   0  0  0  0  0  0  0  0  0  0  0  0
    6.5503  -14.6073   20.3535 C   0  0  0  0  0  0  0  0  0  0  0  0
    7.2844  -15.7233   21.0671 C   0  0  2  0  0  0  0  0  0  0  0  0
    6.3777  -16.8204   21.3492 N   0  0  0  0  0  0  0  0  0  0  0  0
    7.9310  -15.2440   22.3282 C   0  0  0  0  0  0  0  0  0  0  0  0
    9.1572  -14.9441   22.3633 O   0  0  0  0  0  0  0  0  0  0  0  0
    5.2892  -12.4902   26.6127 C   0  0  0  0  0  0  0  0  0  0  0  0
    6.3486  -12.8897   25.6067 C   0  0  1  0  0  0  0  0  0  0  0  0
    7.5477  -11.9658   25.9345 C   0  0  0  0  0  0  0  0  0  0  0  0
    6.8352  -14.2708   25.7760 C   0  0  0  0  0  0  0  0  0  0  0  0
    7.8835  -14.7359   24.8076 C   0  0  2  0  0  0  0  0  0  0  0  0
    7.2043  -15.1044   23.5330 N   0  0  0  0  0  0  0  0  0  0  0  0
    8.4879  -15.9816   25.3142 C   0  0  0  0  0  0  0  0  0  0  0  0
    7.6751  -16.9578   25.5111 O   0  0  0  0  0  0  0  0  0  0  0  0
    9.8478  -16.2013   25.5920 N   0  0  0  0  0  0  0  0  0  0  0  0
   10.2656  -17.5560   26.1075 C   0  0  1  0  0  0  0  0  0  0  0  0
   11.2692  -17.9928   25.0972 C   0  0  0  0  0  0  0  0  0  0  0  0
   11.3810  -19.3550   24.6145 C   0  0  0  0  0  0  0  0  0  0  0  0
   12.3295  -19.7494   23.5586 C   0  0  0  0  0  0  0  0  0  0  0  0
   12.0609  -21.2439   23.2140 C   0  0  0  0  0  0  0  0  0  0  0  0
   12.9132  -21.6455   22.1080 N   0  0  0  0  0  0  0  0  0  0  0  0
   10.7892  -17.2628   27.4520 C   0  0  0  0  0  0  0  0  0  0  0  0
   10.7507  -15.9251   27.9065 O   0  0  0  0  0  0  0  0  0  0  0  0
   11.2840  -18.1348   28.2481 O   0  0  0  0  0  0  0  0  0  0  0  0
  2  1  1  0
  3  2  1  0
  4  3  1  0
  4  5  1  0
  5  6  1  1
  7  5  1  0
  7  8  2  0
 10 11  1  1
 10  9  1  0
 12 10  1  0
 13 12  1  1
 13 14  1  0
 14  7  1  0
 15 13  1  0
 16 15  2  0
 17 15  1  0
 18 24  1  0
 18 17  1  0
 18 19  1  6
 20 19  1  0
 21 20  1  0
 22 21  1  0
 23 22  1  0
 24 25  1  0
 26 24  2  0
M  END
$$$$
