MLK.pdb
     RDKit          3D

 26 25  0  0  1  0  0  0  0  0999 V2000
    6.5795  -10.8267   26.1036 C   0  0  0  0  0  0  0  0  0  0  0  0
    5.7656  -11.9399   27.2810 S   0  0  0  0  0  0  0  0  0  0  0  0
    6.5897  -13.5563   27.3305 C   0  0  0  0  0  0  0  0  0  0  0  0
    6.0122  -14.4053   26.1966 C   0  0  0  0  0  0  0  0  0  0  0  0
    7.0204  -15.5095   25.9565 C   0  0  2  0  0  0  0  0  0  0  0  0
    8.2471  -15.2354   26.6812 N   0  0  0  0  0  0  0  0  0  0  0  0
    7.3057  -15.6925   24.4992 C   0  0  0  0  0  0  0  0  0  0  0  0
    6.5229  -16.3468   23.7550 O   0  0  0  0  0  0  0  0  0  0  0  0
    6.6854  -14.0490   20.6941 C   0  0  0  0  0  0  0  0  0  0  0  0
    8.1697  -13.7805   20.5581 C   0  0  1  0  0  0  0  0  0  0  0  0
    8.2546  -12.2573   20.2908 C   0  0  0  0  0  0  0  0  0  0  0  0
    8.9313  -14.0237   21.7966 C   0  0  0  0  0  0  0  0  0  0  0  0
    8.7474  -15.3653   22.4445 C   0  0  2  0  0  0  0  0  0  0  0  0
    8.4579  -15.1446   23.8899 N   0  0  0  0  0  0  0  0  0  0  0  0
   10.0244  -16.1007   22.3993 C   0  0  0  0  0  0  0  0  0  0  0  0
   10.9461  -15.6696   23.1848 O   0  0  0  0  0  0  0  0  0  0  0  0
   10.3227  -17.2144   21.5960 N   0  0  0  0  0  0  0  0  0  0  0  0
   11.6685  -17.8764   21.7575 C   0  0  1  0  0  0  0  0  0  0  0  0
   11.3044  -19.3045   21.9738 C   0  0  0  0  0  0  0  0  0  0  0  0
   11.7418  -20.0794   23.1180 C   0  0  0  0  0  0  0  0  0  0  0  0
   11.4537  -21.5169   23.2622 C   0  0  0  0  0  0  0  0  0  0  0  0
   12.1339  -22.0076   24.5740 C   0  0  0  0  0  0  0  0  0  0  0  0
   11.9768  -23.4473   24.6906 N   0  0  0  0  0  0  0  0  0  0  0  0
   12.3537  -17.5700   20.4909 C   0  0  0  0  0  0  0  0  0  0  0  0
   13.7659  -17.6202   20.4665 O   0  0  0  0  0  0  0  0  0  0  0  0
   11.7628  -17.2560   19.3994 O   0  0  0  0  0  0  0  0  0  0  0  0
  2  1  1  0
  3  2  1  0
  4  3  1  0
  4  5  1  0
  5  6  1  1
  7  5  1  0
  7  8  2  0
 10 11  1  1
 10  9  1  0
 12 10  1  0
 13 12  1  6
 13 14  1  0
 14  7  1  0
 15 13  1  0
 16 15  2  0
 17 15  1  0
 18 24  1  0
 18 17  1  0
 18 19  1  6
 20 19  1  0
 21 20  1  0
 22 21  1  0
 23 22  1  0
 24 25  1  0
 26 24  2  0
M  END
$$$$
