LAH.pdb
     RDKit          3D

 24 24  0  0  1  0  0  0  0  0999 V2000
    5.4624  -12.8860   27.0681 C   0  0  0  0  0  0  0  0  0  0  0  0
    6.9686  -12.8820   27.0157 C   0  0  2  0  0  0  0  0  0  0  0  0
    7.5283  -11.4836   26.8925 C   0  0  0  0  0  0  0  0  0  0  0  0
    7.3788  -13.7554   25.8466 C   0  0  0  0  0  0  0  0  0  0  0  0
    6.9618  -15.1666   26.1932 C   0  0  2  0  0  0  0  0  0  0  0  0
    7.6455  -15.5243   27.4187 N   0  0  0  0  0  0  0  0  0  0  0  0
    7.3578  -16.1402   25.1498 C   0  0  0  0  0  0  0  0  0  0  0  0
    8.5113  -16.6438   25.1978 O   0  0  0  0  0  0  0  0  0  0  0  0
    5.7493  -17.8979   22.1885 C   0  0  0  0  0  0  0  0  0  0  0  0
    6.9402  -17.5202   23.0801 C   0  0  2  0  0  0  0  0  0  0  0  0
    6.5181  -16.5510   24.0856 N   0  0  0  0  0  0  0  0  0  0  0  0
    7.9266  -16.8678   22.1959 C   0  0  0  0  0  0  0  0  0  0  0  0
    7.5394  -16.2529   21.1775 O   0  0  0  0  0  0  0  0  0  0  0  0
    9.3458  -16.8914   22.4321 N   0  0  0  0  0  0  0  0  0  0  0  0
   10.2478  -16.1219   21.5982 C   0  0  1  0  0  0  0  0  0  0  0  0
    9.9704  -14.6675   21.5419 C   0  0  0  0  0  0  0  0  0  0  0  0
    9.1198  -14.2167   20.4240 C   0  0  0  0  0  0  0  0  0  0  0  0
    8.5210  -14.8961   19.3995 C   0  0  0  0  0  0  0  0  0  0  0  0
    7.8302  -13.9689   18.6798 N   0  0  0  0  0  0  0  0  0  0  0  0
    7.9858  -12.7609   19.2258 C   0  0  0  0  0  0  0  0  0  0  0  0
    8.7664  -12.8989   20.2850 N   0  0  0  0  0  0  0  0  0  0  0  0
   11.6688  -16.3851   21.9680 C   0  0  0  0  0  0  0  0  0  0  0  0
   12.0147  -17.2018   23.0265 O   0  0  0  0  0  0  0  0  0  0  0  0
   12.5563  -15.8339   21.2777 O   0  0  0  0  0  0  0  0  0  0  0  0
  2  1  1  6
  3  2  1  0
  4  5  1  0
  4  2  1  0
  5  6  1  1
  5  7  1  0
  7  8  2  0
 10  9  1  6
 10 12  1  0
 11  7  1  0
 11 10  1  0
 12 14  1  0
 13 12  2  0
 14 15  1  0
 15 22  1  0
 15 16  1  1
 17 16  1  0
 18 17  2  0
 19 18  1  0
 20 19  1  0
 20 21  2  0
 21 17  1  0
 22 23  1  0
 24 22  2  0
M  END
$$$$
