LAH.pdb
     RDKit          3D

 24 24  0  0  1  0  0  0  0  0999 V2000
    6.1204  -12.0383   24.4859 C   0  0  0  0  0  0  0  0  0  0  0  0
    6.2797  -12.6548   25.8519 C   0  0  2  0  0  0  0  0  0  0  0  0
    6.6160  -11.6235   26.9041 C   0  0  0  0  0  0  0  0  0  0  0  0
    7.3566  -13.7159   25.7419 C   0  0  0  0  0  0  0  0  0  0  0  0
    6.8220  -14.7808   24.8115 C   0  0  2  0  0  0  0  0  0  0  0  0
    5.7676  -15.4758   25.5203 N   0  0  0  0  0  0  0  0  0  0  0  0
    7.8565  -15.7751   24.4446 C   0  0  0  0  0  0  0  0  0  0  0  0
    8.1403  -16.6855   25.2675 O   0  0  0  0  0  0  0  0  0  0  0  0
   10.0710  -16.5608   21.4539 C   0  0  0  0  0  0  0  0  0  0  0  0
    9.5927  -16.7550   22.8995 C   0  0  2  0  0  0  0  0  0  0  0  0
    8.5597  -15.7743   23.2150 N   0  0  0  0  0  0  0  0  0  0  0  0
   10.7620  -16.4867   23.7602 C   0  0  0  0  0  0  0  0  0  0  0  0
   11.3434  -15.3809   23.6943 O   0  0  0  0  0  0  0  0  0  0  0  0
   11.2952  -17.4388   24.6983 N   0  0  0  0  0  0  0  0  0  0  0  0
   11.6126  -17.0420   26.0558 C   0  0  1  0  0  0  0  0  0  0  0  0
   10.5900  -16.2038   26.7246 C   0  0  0  0  0  0  0  0  0  0  0  0
   10.8422  -15.8894   28.1437 C   0  0  0  0  0  0  0  0  0  0  0  0
   11.8745  -16.2098   28.9812 C   0  0  0  0  0  0  0  0  0  0  0  0
   11.5906  -15.6238   30.1774 N   0  0  0  0  0  0  0  0  0  0  0  0
   10.4331  -14.9639   30.0974 C   0  0  0  0  0  0  0  0  0  0  0  0
    9.9698  -15.1179   28.8678 N   0  0  0  0  0  0  0  0  0  0  0  0
   11.9643  -18.2288   26.8883 C   0  0  0  0  0  0  0  0  0  0  0  0
   11.8696  -19.5197   26.4068 O   0  0  0  0  0  0  0  0  0  0  0  0
   12.3558  -18.0172   28.0587 O   0  0  0  0  0  0  0  0  0  0  0  0
  2  1  1  6
  3  2  1  0
  4  5  1  0
  4  2  1  0
  5  6  1  1
  5  7  1  0
  7  8  2  0
 10  9  1  6
 10 12  1  0
 11  7  1  0
 11 10  1  0
 12 14  1  0
 13 12  2  0
 14 15  1  0
 15 22  1  0
 15 16  1  1
 17 16  1  0
 18 17  2  0
 19 18  1  0
 20 19  1  0
 20 21  2  0
 21 17  1  0
 22 23  1  0
 24 22  2  0
M  END
$$$$
