LAH.pdb
     RDKit          3D

 24 24  0  0  1  0  0  0  0  0999 V2000
    9.3568  -13.0542   18.9926 C   0  0  0  0  0  0  0  0  0  0  0  0
    7.9149  -13.4512   19.1790 C   0  0  2  0  0  0  0  0  0  0  0  0
    6.9646  -12.3716   18.7151 C   0  0  0  0  0  0  0  0  0  0  0  0
    7.7248  -13.7726   20.6481 C   0  0  0  0  0  0  0  0  0  0  0  0
    8.7058  -14.8736   20.9810 C   0  0  2  0  0  0  0  0  0  0  0  0
    8.3386  -16.0266   20.1853 N   0  0  0  0  0  0  0  0  0  0  0  0
    8.6444  -15.2664   22.4076 C   0  0  0  0  0  0  0  0  0  0  0  0
    8.9009  -14.4007   23.2858 O   0  0  0  0  0  0  0  0  0  0  0  0
    7.2085  -17.8931   24.6005 C   0  0  0  0  0  0  0  0  0  0  0  0
    8.3712  -16.9477   24.2679 C   0  0  2  0  0  0  0  0  0  0  0  0
    8.3124  -16.5667   22.8609 N   0  0  0  0  0  0  0  0  0  0  0  0
    9.6085  -17.7239   24.4845 C   0  0  0  0  0  0  0  0  0  0  0  0
    9.6898  -18.8978   24.0597 O   0  0  0  0  0  0  0  0  0  0  0  0
   10.7625  -17.2071   25.1716 N   0  0  0  0  0  0  0  0  0  0  0  0
   10.8810  -17.3253   26.6113 C   0  0  1  0  0  0  0  0  0  0  0  0
    9.7582  -16.7483   27.3872 C   0  0  0  0  0  0  0  0  0  0  0  0
    9.9168  -15.3412   27.8009 C   0  0  0  0  0  0  0  0  0  0  0  0
   10.9107  -14.4292   27.5765 C   0  0  0  0  0  0  0  0  0  0  0  0
   10.5088  -13.2730   28.1737 N   0  0  0  0  0  0  0  0  0  0  0  0
    9.3163  -13.4479   28.7475 C   0  0  0  0  0  0  0  0  0  0  0  0
    8.9471  -14.6992   28.5276 N   0  0  0  0  0  0  0  0  0  0  0  0
   11.1399  -18.7394   27.0094 C   0  0  0  0  0  0  0  0  0  0  0  0
   10.1818  -19.7261   26.8851 O   0  0  0  0  0  0  0  0  0  0  0  0
   12.2728  -19.0116   27.4680 O   0  0  0  0  0  0  0  0  0  0  0  0
  2  1  1  1
  3  2  1  0
  4  5  1  0
  4  2  1  0
  5  6  1  6
  5  7  1  0
  7  8  2  0
 10  9  1  6
 10 12  1  0
 11  7  1  0
 11 10  1  0
 12 14  1  0
 13 12  2  0
 14 15  1  0
 15 22  1  0
 15 16  1  1
 17 16  1  0
 18 17  2  0
 19 18  1  0
 20 19  1  0
 20 21  2  0
 21 17  1  0
 22 23  1  0
 24 22  2  0
M  END
$$$$
