LAH.pdb
     RDKit          3D

 24 24  0  0  1  0  0  0  0  0999 V2000
    8.4083  -15.1340   18.3794 C   0  0  0  0  0  0  0  0  0  0  0  0
    7.3935  -14.2884   19.1050 C   0  0  2  0  0  0  0  0  0  0  0  0
    6.7065  -13.3093   18.1814 C   0  0  0  0  0  0  0  0  0  0  0  0
    8.1220  -13.5811   20.2306 C   0  0  0  0  0  0  0  0  0  0  0  0
    8.5358  -14.6494   21.2171 C   0  0  2  0  0  0  0  0  0  0  0  0
    7.5338  -15.6934   21.1600 N   0  0  0  0  0  0  0  0  0  0  0  0
    8.5844  -14.1401   22.6069 C   0  0  0  0  0  0  0  0  0  0  0  0
    9.3033  -13.1372   22.8597 O   0  0  0  0  0  0  0  0  0  0  0  0
    6.7797  -14.7702   25.8825 C   0  0  0  0  0  0  0  0  0  0  0  0
    7.8959  -14.1462   25.0334 C   0  0  2  0  0  0  0  0  0  0  0  0
    7.8685  -14.7100   23.6882 N   0  0  0  0  0  0  0  0  0  0  0  0
    9.1680  -14.5383   25.6724 C   0  0  0  0  0  0  0  0  0  0  0  0
    9.4540  -14.1030   26.8098 O   0  0  0  0  0  0  0  0  0  0  0  0
   10.1308  -15.4137   25.0579 N   0  0  0  0  0  0  0  0  0  0  0  0
   11.2802  -15.8886   25.8024 C   0  0  1  0  0  0  0  0  0  0  0  0
   10.9648  -16.6713   27.0203 C   0  0  0  0  0  0  0  0  0  0  0  0
   10.3741  -15.9123   28.1390 C   0  0  0  0  0  0  0  0  0  0  0  0
   10.3344  -14.5737   28.4150 C   0  0  0  0  0  0  0  0  0  0  0  0
    9.6274  -14.4440   29.5717 N   0  0  0  0  0  0  0  0  0  0  0  0
    9.2388  -15.6454   30.0047 C   0  0  0  0  0  0  0  0  0  0  0  0
    9.6861  -16.5442   29.1430 N   0  0  0  0  0  0  0  0  0  0  0  0
   12.2198  -16.6314   24.9133 C   0  0  0  0  0  0  0  0  0  0  0  0
   13.4338  -17.1122   25.3631 O   0  0  0  0  0  0  0  0  0  0  0  0
   11.8696  -16.8105   23.7245 O   0  0  0  0  0  0  0  0  0  0  0  0
  2  1  1  6
  3  2  1  0
  4  5  1  0
  4  2  1  0
  5  6  1  1
  5  7  1  0
  7  8  2  0
 10  9  1  1
 10 12  1  0
 11  7  1  0
 11 10  1  0
 12 14  1  0
 13 12  2  0
 14 15  1  0
 15 22  1  0
 15 16  1  1
 17 16  1  0
 18 17  2  0
 19 18  1  0
 20 19  1  0
 20 21  2  0
 21 17  1  0
 22 23  1  0
 24 22  2  0
M  END
$$$$
