LAH.pdb
     RDKit          3D

 24 24  0  0  1  0  0  0  0  0999 V2000
    8.6707  -12.2524   18.0419 C   0  0  0  0  0  0  0  0  0  0  0  0
    8.2513  -13.1529   19.1753 C   0  0  2  0  0  0  0  0  0  0  0  0
    7.6047  -12.3820   20.3029 C   0  0  0  0  0  0  0  0  0  0  0  0
    9.4891  -13.8943   19.6403 C   0  0  0  0  0  0  0  0  0  0  0  0
   10.0292  -14.6327   18.4367 C   0  0  2  0  0  0  0  0  0  0  0  0
    9.0393  -15.6219   18.0641 N   0  0  0  0  0  0  0  0  0  0  0  0
   11.2933  -15.3437   18.7363 C   0  0  0  0  0  0  0  0  0  0  0  0
   11.2452  -16.4073   19.4093 O   0  0  0  0  0  0  0  0  0  0  0  0
   14.9791  -15.0356   17.8737 C   0  0  0  0  0  0  0  0  0  0  0  0
   13.8028  -15.5933   18.6871 C   0  0  2  0  0  0  0  0  0  0  0  0
   12.5719  -14.9051   18.3130 N   0  0  0  0  0  0  0  0  0  0  0  0
   14.0944  -15.2814   20.1006 C   0  0  0  0  0  0  0  0  0  0  0  0
   14.0891  -14.0926   20.4901 O   0  0  0  0  0  0  0  0  0  0  0  0
   14.3935  -16.2815   21.0911 N   0  0  0  0  0  0  0  0  0  0  0  0
   14.5320  -15.9211   22.4882 C   0  0  1  0  0  0  0  0  0  0  0  0
   13.7421  -16.7435   23.4343 C   0  0  0  0  0  0  0  0  0  0  0  0
   12.2803  -16.7286   23.2358 C   0  0  0  0  0  0  0  0  0  0  0  0
   11.4214  -15.7397   22.8434 C   0  0  0  0  0  0  0  0  0  0  0  0
   10.1825  -16.3040   22.8052 N   0  0  0  0  0  0  0  0  0  0  0  0
   10.2571  -17.5896   23.1567 C   0  0  0  0  0  0  0  0  0  0  0  0
   11.5254  -17.8586   23.4201 N   0  0  0  0  0  0  0  0  0  0  0  0
   15.9691  -15.8745   22.8855 C   0  0  0  0  0  0  0  0  0  0  0  0
   16.9849  -16.2159   22.0144 O   0  0  0  0  0  0  0  0  0  0  0  0
   16.2334  -15.5096   24.0538 O   0  0  0  0  0  0  0  0  0  0  0  0
  2  1  1  6
  3  2  1  0
  4  5  1  0
  4  2  1  0
  5  6  1  1
  5  7  1  0
  7  8  2  0
 10  9  1  6
 10 12  1  0
 11  7  1  0
 11 10  1  0
 12 14  1  0
 13 12  2  0
 14 15  1  0
 15 22  1  0
 15 16  1  1
 17 16  1  0
 18 17  2  0
 19 18  1  0
 20 19  1  0
 20 21  2  0
 21 17  1  0
 22 23  1  0
 24 22  2  0
M  END
$$$$
