LAH.pdb
     RDKit          3D

 24 24  0  0  1  0  0  0  0  0999 V2000
    9.2762  -12.3905   19.2617 C   0  0  0  0  0  0  0  0  0  0  0  0
    8.3966  -13.3984   18.5675 C   0  0  2  0  0  0  0  0  0  0  0  0
    7.2289  -12.7444   17.8656 C   0  0  0  0  0  0  0  0  0  0  0  0
    7.9361  -14.3900   19.6175 C   0  0  0  0  0  0  0  0  0  0  0  0
    9.1620  -14.7807   20.4113 C   0  0  2  0  0  0  0  0  0  0  0  0
   10.0813  -15.4163   19.4903 N   0  0  0  0  0  0  0  0  0  0  0  0
    8.8485  -15.7516   21.4848 C   0  0  0  0  0  0  0  0  0  0  0  0
    7.8747  -15.5169   22.2483 O   0  0  0  0  0  0  0  0  0  0  0  0
   10.0801  -19.1641   22.6230 C   0  0  0  0  0  0  0  0  0  0  0  0
    9.1877  -17.9197   22.7285 C   0  0  2  0  0  0  0  0  0  0  0  0
    9.5778  -16.9436   21.7168 N   0  0  0  0  0  0  0  0  0  0  0  0
    9.4505  -17.3355   24.0589 C   0  0  0  0  0  0  0  0  0  0  0  0
   10.4497  -16.6027   24.2311 O   0  0  0  0  0  0  0  0  0  0  0  0
    8.6106  -17.5579   25.2060 N   0  0  0  0  0  0  0  0  0  0  0  0
    8.9545  -16.9926   26.4957 C   0  0  1  0  0  0  0  0  0  0  0  0
    7.8865  -16.1930   27.1402 C   0  0  0  0  0  0  0  0  0  0  0  0
    7.5682  -14.9047   26.4956 C   0  0  0  0  0  0  0  0  0  0  0  0
    8.3523  -13.9830   25.8589 C   0  0  0  0  0  0  0  0  0  0  0  0
    7.5136  -12.9978   25.4338 N   0  0  0  0  0  0  0  0  0  0  0  0
    6.2585  -13.2855   25.7858 C   0  0  0  0  0  0  0  0  0  0  0  0
    6.2795  -14.4405   26.4306 N   0  0  0  0  0  0  0  0  0  0  0  0
    9.4691  -18.0461   27.4179 C   0  0  0  0  0  0  0  0  0  0  0  0
   10.0574  -17.7404   28.6293 O   0  0  0  0  0  0  0  0  0  0  0  0
    9.3500  -19.2388   27.0555 O   0  0  0  0  0  0  0  0  0  0  0  0
  2  1  1  1
  3  2  1  0
  4  5  1  0
  4  2  1  0
  5  6  1  6
  5  7  1  0
  7  8  2  0
 10  9  1  6
 10 12  1  0
 11  7  1  0
 11 10  1  0
 12 14  1  0
 13 12  2  0
 14 15  1  0
 15 22  1  0
 15 16  1  1
 17 16  1  0
 18 17  2  0
 19 18  1  0
 20 19  1  0
 20 21  2  0
 21 17  1  0
 22 23  1  0
 24 22  2  0
M  END
$$$$
