LAH.pdb
     RDKit          3D

 24 24  0  0  1  0  0  0  0  0999 V2000
    8.7387  -13.1305   18.2457 C   0  0  0  0  0  0  0  0  0  0  0  0
    7.8302  -13.2921   19.4373 C   0  0  2  0  0  0  0  0  0  0  0  0
    6.9518  -12.0808   19.6494 C   0  0  0  0  0  0  0  0  0  0  0  0
    8.7122  -13.5629   20.6400 C   0  0  0  0  0  0  0  0  0  0  0  0
    9.4808  -14.8291   20.3370 C   0  0  2  0  0  0  0  0  0  0  0  0
    8.5074  -15.8512   20.0129 N   0  0  0  0  0  0  0  0  0  0  0  0
   10.2657  -15.3003   21.5012 C   0  0  0  0  0  0  0  0  0  0  0  0
   11.0288  -14.4869   22.0864 O   0  0  0  0  0  0  0  0  0  0  0  0
   10.5484  -18.4156   23.6460 C   0  0  0  0  0  0  0  0  0  0  0  0
   11.0589  -17.0688   23.1152 C   0  0  2  0  0  0  0  0  0  0  0  0
   10.2178  -16.6212   22.0104 N   0  0  0  0  0  0  0  0  0  0  0  0
   12.4157  -17.3205   22.5897 C   0  0  0  0  0  0  0  0  0  0  0  0
   12.5700  -17.6364   21.3891 O   0  0  0  0  0  0  0  0  0  0  0  0
   13.6091  -17.2244   23.3880 N   0  0  0  0  0  0  0  0  0  0  0  0
   14.7691  -16.5043   22.9012 C   0  0  1  0  0  0  0  0  0  0  0  0
   14.4796  -15.2026   22.2552 C   0  0  0  0  0  0  0  0  0  0  0  0
   14.4500  -15.2077   20.7803 C   0  0  0  0  0  0  0  0  0  0  0  0
   14.5571  -16.2203   19.8676 C   0  0  0  0  0  0  0  0  0  0  0  0
   14.4292  -15.6426   18.6409 N   0  0  0  0  0  0  0  0  0  0  0  0
   14.2492  -14.3267   18.7742 C   0  0  0  0  0  0  0  0  0  0  0  0
   14.2599  -14.0513   20.0682 N   0  0  0  0  0  0  0  0  0  0  0  0
   15.7927  -16.3561   23.9761 C   0  0  0  0  0  0  0  0  0  0  0  0
   15.4993  -16.5773   25.3073 O   0  0  0  0  0  0  0  0  0  0  0  0
   16.9481  -16.0191   23.6303 O   0  0  0  0  0  0  0  0  0  0  0  0
  2  1  1  6
  3  2  1  0
  4  5  1  0
  4  2  1  0
  5  6  1  1
  5  7  1  0
  7  8  2  0
 10  9  1  6
 10 12  1  0
 11  7  1  0
 11 10  1  0
 12 14  1  0
 13 12  2  0
 14 15  1  0
 15 22  1  0
 15 16  1  1
 17 16  1  0
 18 17  2  0
 19 18  1  0
 20 19  1  0
 20 21  2  0
 21 17  1  0
 22 23  1  0
 24 22  2  0
M  END
$$$$
