LAH.pdb
     RDKit          3D

 24 24  0  0  1  0  0  0  0  0999 V2000
    6.4150  -15.1732   18.2173 C   0  0  0  0  0  0  0  0  0  0  0  0
    7.2951  -14.1243   18.8470 C   0  0  2  0  0  0  0  0  0  0  0  0
    8.3444  -13.6132   17.8871 C   0  0  0  0  0  0  0  0  0  0  0  0
    7.9186  -14.7445   20.0816 C   0  0  0  0  0  0  0  0  0  0  0  0
    8.5238  -13.6105   20.8773 C   0  0  2  0  0  0  0  0  0  0  0  0
    9.7353  -13.2087   20.1931 N   0  0  0  0  0  0  0  0  0  0  0  0
    8.8922  -14.0239   22.2509 C   0  0  0  0  0  0  0  0  0  0  0  0
   10.0163  -14.5593   22.4413 O   0  0  0  0  0  0  0  0  0  0  0  0
    7.3907  -13.8212   25.7404 C   0  0  0  0  0  0  0  0  0  0  0  0
    8.4859  -14.2007   24.7340 C   0  0  2  0  0  0  0  0  0  0  0  0
    8.0568  -13.8571   23.3826 N   0  0  0  0  0  0  0  0  0  0  0  0
    8.6285  -15.6682   24.8138 C   0  0  0  0  0  0  0  0  0  0  0  0
    7.6918  -16.4065   24.4363 O   0  0  0  0  0  0  0  0  0  0  0  0
    9.8068  -16.3277   25.3112 N   0  0  0  0  0  0  0  0  0  0  0  0
    9.8181  -17.7613   25.5246 C   0  0  1  0  0  0  0  0  0  0  0  0
   10.8634  -18.5026   24.7808 C   0  0  0  0  0  0  0  0  0  0  0  0
   10.8296  -18.3649   23.3124 C   0  0  0  0  0  0  0  0  0  0  0  0
    9.8075  -18.4595   22.4089 C   0  0  0  0  0  0  0  0  0  0  0  0
   10.3548  -18.2104   21.1870 N   0  0  0  0  0  0  0  0  0  0  0  0
   11.6615  -17.9693   21.3143 C   0  0  0  0  0  0  0  0  0  0  0  0
   11.9609  -18.0602   22.5998 N   0  0  0  0  0  0  0  0  0  0  0  0
    9.8637  -18.0819   26.9807 C   0  0  0  0  0  0  0  0  0  0  0  0
    9.8408  -19.3807   27.4494 O   0  0  0  0  0  0  0  0  0  0  0  0
    9.9247  -17.1213   27.7815 O   0  0  0  0  0  0  0  0  0  0  0  0
  2  1  1  6
  3  2  1  0
  4  5  1  0
  4  2  1  0
  5  6  1  6
  5  7  1  0
  7  8  2  0
 10  9  1  1
 10 12  1  0
 11  7  1  0
 11 10  1  0
 12 14  1  0
 13 12  2  0
 14 15  1  0
 15 22  1  0
 15 16  1  6
 17 16  1  0
 18 17  2  0
 19 18  1  0
 20 19  1  0
 20 21  2  0
 21 17  1  0
 22 23  1  0
 24 22  2  0
M  END
$$$$
