LAH.pdb
     RDKit          3D

 24 24  0  0  1  0  0  0  0  0999 V2000
    9.9883  -21.4916   19.8311 C   0  0  0  0  0  0  0  0  0  0  0  0
    9.1673  -20.3724   19.2441 C   0  0  2  0  0  0  0  0  0  0  0  0
    9.0622  -20.4743   17.7400 C   0  0  0  0  0  0  0  0  0  0  0  0
    9.8124  -19.0699   19.6743 C   0  0  0  0  0  0  0  0  0  0  0  0
    9.2683  -18.7502   21.0481 C   0  0  2  0  0  0  0  0  0  0  0  0
    7.8243  -18.8171   20.9608 N   0  0  0  0  0  0  0  0  0  0  0  0
    9.6351  -17.3859   21.4926 C   0  0  0  0  0  0  0  0  0  0  0  0
   10.8184  -16.9903   21.3200 O   0  0  0  0  0  0  0  0  0  0  0  0
    7.9456  -14.2694   22.8069 C   0  0  0  0  0  0  0  0  0  0  0  0
    9.1605  -15.1938   22.6466 C   0  0  2  0  0  0  0  0  0  0  0  0
    8.7353  -16.4811   22.1074 N   0  0  0  0  0  0  0  0  0  0  0  0
    9.6919  -15.4158   24.0062 C   0  0  0  0  0  0  0  0  0  0  0  0
    8.9098  -15.6878   24.9439 O   0  0  0  0  0  0  0  0  0  0  0  0
   11.0903  -15.3385   24.3369 N   0  0  0  0  0  0  0  0  0  0  0  0
   11.5785  -15.8338   25.6086 C   0  0  1  0  0  0  0  0  0  0  0  0
   10.5363  -16.3435   26.5304 C   0  0  0  0  0  0  0  0  0  0  0  0
   10.0424  -15.3853   27.5375 C   0  0  0  0  0  0  0  0  0  0  0  0
    9.5433  -14.1173   27.4249 C   0  0  0  0  0  0  0  0  0  0  0  0
    9.2162  -13.7232   28.6869 N   0  0  0  0  0  0  0  0  0  0  0  0
    9.4956  -14.6980   29.5548 C   0  0  0  0  0  0  0  0  0  0  0  0
    9.9975  -15.7118   28.8687 N   0  0  0  0  0  0  0  0  0  0  0  0
   12.6590  -16.8423   25.4071 C   0  0  0  0  0  0  0  0  0  0  0  0
   12.4091  -18.0927   24.8766 O   0  0  0  0  0  0  0  0  0  0  0  0
   13.8217  -16.5166   25.7388 O   0  0  0  0  0  0  0  0  0  0  0  0
  2  1  1  6
  3  2  1  0
  4  5  1  0
  4  2  1  0
  5  6  1  6
  5  7  1  0
  7  8  2  0
 10  9  1  1
 10 12  1  0
 11  7  1  0
 11 10  1  0
 12 14  1  0
 13 12  2  0
 14 15  1  0
 15 22  1  0
 15 16  1  6
 17 16  1  0
 18 17  2  0
 19 18  1  0
 20 19  1  0
 20 21  2  0
 21 17  1  0
 22 23  1  0
 24 22  2  0
M  END
$$$$
