LAH.pdb
     RDKit          3D

 24 24  0  0  1  0  0  0  0  0999 V2000
    8.0137  -20.9108   18.8959 C   0  0  0  0  0  0  0  0  0  0  0  0
    7.3959  -19.6433   18.3640 C   0  0  2  0  0  0  0  0  0  0  0  0
    7.0807  -19.7412   16.8892 C   0  0  0  0  0  0  0  0  0  0  0  0
    8.3651  -18.5151   18.6567 C   0  0  0  0  0  0  0  0  0  0  0  0
    8.3074  -18.2706   20.1475 C   0  0  2  0  0  0  0  0  0  0  0  0
    6.9093  -18.2665   20.5249 N   0  0  0  0  0  0  0  0  0  0  0  0
    8.8844  -16.9594   20.5230 C   0  0  0  0  0  0  0  0  0  0  0  0
   10.1291  -16.7942   20.4225 O   0  0  0  0  0  0  0  0  0  0  0  0
    7.6302  -13.4928   21.3825 C   0  0  0  0  0  0  0  0  0  0  0  0
    8.7219  -14.5696   21.3136 C   0  0  2  0  0  0  0  0  0  0  0  0
    8.1237  -15.8614   20.9944 N   0  0  0  0  0  0  0  0  0  0  0  0
    9.3047  -14.6530   22.6678 C   0  0  0  0  0  0  0  0  0  0  0  0
    9.8640  -13.6520   23.1680 O   0  0  0  0  0  0  0  0  0  0  0  0
    9.2725  -15.8429   23.4764 N   0  0  0  0  0  0  0  0  0  0  0  0
    9.7262  -15.8147   24.8528 C   0  0  1  0  0  0  0  0  0  0  0  0
    8.6564  -15.9161   25.8730 C   0  0  0  0  0  0  0  0  0  0  0  0
    7.6068  -14.8813   25.8109 C   0  0  0  0  0  0  0  0  0  0  0  0
    7.5862  -13.5751   26.2148 C   0  0  0  0  0  0  0  0  0  0  0  0
    6.3580  -13.0917   25.8788 N   0  0  0  0  0  0  0  0  0  0  0  0
    5.6378  -14.0489   25.2899 C   0  0  0  0  0  0  0  0  0  0  0  0
    6.3855  -15.1394   25.2431 N   0  0  0  0  0  0  0  0  0  0  0  0
   10.7887  -16.8360   25.0836 C   0  0  0  0  0  0  0  0  0  0  0  0
   11.1792  -17.7263   24.1027 O   0  0  0  0  0  0  0  0  0  0  0  0
   11.3272  -16.8634   26.2137 O   0  0  0  0  0  0  0  0  0  0  0  0
  2  1  1  6
  3  2  1  0
  4  5  1  0
  4  2  1  0
  5  6  1  6
  5  7  1  0
  7  8  2  0
 10  9  1  1
 10 12  1  0
 11  7  1  0
 11 10  1  0
 12 14  1  0
 13 12  2  0
 14 15  1  0
 15 22  1  0
 15 16  1  1
 17 16  1  0
 18 17  2  0
 19 18  1  0
 20 19  1  0
 20 21  2  0
 21 17  1  0
 22 23  1  0
 24 22  2  0
M  END
$$$$
