LFV.pdb
     RDKit          3D

 27 27  0  0  1  0  0  0  0  0999 V2000
    8.1625  -12.9720   18.2520 C   0  0  0  0  0  0  0  0  0  0  0  0
    8.3731  -14.3709   18.7802 C   0  0  1  0  0  0  0  0  0  0  0  0
    8.0753  -15.4036   17.7130 C   0  0  0  0  0  0  0  0  0  0  0  0
    9.7944  -14.5849   19.2588 C   0  0  0  0  0  0  0  0  0  0  0  0
    9.7542  -15.6793   20.2965 C   0  0  2  0  0  0  0  0  0  0  0  0
    8.6646  -16.5534   19.9945 N   0  0  0  0  0  0  0  0  0  0  0  0
    9.7063  -15.1441   21.6806 C   0  0  0  0  0  0  0  0  0  0  0  0
   10.5991  -14.3604   22.0970 O   0  0  0  0  0  0  0  0  0  0  0  0
    8.6768  -15.4720   22.6036 N   0  0  0  0  0  0  0  0  0  0  0  0
    8.4953  -14.7696   23.8751 C   0  0  1  0  0  0  0  0  0  0  0  0
    7.0829  -14.4222   24.1447 C   0  0  0  0  0  0  0  0  0  0  0  0
    6.8150  -13.4961   25.2371 C   0  0  0  0  0  0  0  0  0  0  0  0
    7.2659  -12.1959   25.1729 C   0  0  0  0  0  0  0  0  0  0  0  0
    7.0250  -11.2928   26.2120 C   0  0  0  0  0  0  0  0  0  0  0  0
    6.3268  -11.7023   27.3196 C   0  0  0  0  0  0  0  0  0  0  0  0
    5.8689  -12.9892   27.4055 C   0  0  0  0  0  0  0  0  0  0  0  0
    6.1176  -13.8682   26.3665 C   0  0  0  0  0  0  0  0  0  0  0  0
    9.1888  -15.5578   24.9163 C   0  0  0  0  0  0  0  0  0  0  0  0
    9.3774  -16.8192   24.7803 O   0  0  0  0  0  0  0  0  0  0  0  0
   11.8406  -15.7863   29.1927 C   0  0  0  0  0  0  0  0  0  0  0  0
   11.1998  -14.9414   28.1100 C   0  0  2  0  0  0  0  0  0  0  0  0
   10.1876  -14.0572   28.8077 C   0  0  0  0  0  0  0  0  0  0  0  0
   10.5071  -15.7478   27.0761 C   0  0  2  0  0  0  0  0  0  0  0  0
    9.7060  -15.0300   26.1333 N   0  0  0  0  0  0  0  0  0  0  0  0
    9.6553  -16.7756   27.7758 C   0  0  0  0  0  0  0  0  0  0  0  0
   10.3124  -17.7446   28.5116 O   0  0  0  0  0  0  0  0  0  0  0  0
    8.3910  -16.7591   27.6989 O   0  0  0  0  0  0  0  0  0  0  0  0
  2  1  1  6
  3  2  1  0
  4  2  1  0
  5  4  1  0
  5  6  1  6
  7  8  2  0
  7  5  1  0
  9  7  1  0
 10  9  1  0
 11 12  1  0
 10 11  1  1
 12 17  2  0
 12 13  1  0
 13 14  2  0
 14 15  1  0
 16 15  2  0
 17 16  1  0
 18 19  2  0
 18 10  1  0
 21 20  1  1
 22 21  1  0
 23 21  1  0
 23 24  1  1
 24 18  1  0
 25 23  1  0
 26 25  1  0
 27 25  2  0
M  END
$$$$
