LFV.pdb
     RDKit          3D

 27 27  0  0  1  0  0  0  0  0999 V2000
   13.7771  -19.4459   20.0026 C   0  0  0  0  0  0  0  0  0  0  0  0
   12.4377  -18.7689   19.8353 C   0  0  1  0  0  0  0  0  0  0  0  0
   11.3102  -19.7790   19.8835 C   0  0  0  0  0  0  0  0  0  0  0  0
   12.1898  -17.7349   20.9143 C   0  0  0  0  0  0  0  0  0  0  0  0
   10.8472  -17.1081   20.6296 C   0  0  2  0  0  0  0  0  0  0  0  0
   10.8883  -16.5146   19.3302 N   0  0  0  0  0  0  0  0  0  0  0  0
   10.4304  -16.1583   21.6919 C   0  0  0  0  0  0  0  0  0  0  0  0
   10.8746  -14.9805   21.7104 O   0  0  0  0  0  0  0  0  0  0  0  0
    9.5261  -16.5057   22.7315 N   0  0  0  0  0  0  0  0  0  0  0  0
    9.1183  -15.5666   23.7778 C   0  0  1  0  0  0  0  0  0  0  0  0
    7.6687  -15.2728   23.7549 C   0  0  0  0  0  0  0  0  0  0  0  0
    7.1736  -14.2584   24.6762 C   0  0  0  0  0  0  0  0  0  0  0  0
    6.3166  -14.6054   25.6975 C   0  0  0  0  0  0  0  0  0  0  0  0
    5.8252  -13.6475   26.5887 C   0  0  0  0  0  0  0  0  0  0  0  0
    6.1996  -12.3351   26.4497 C   0  0  0  0  0  0  0  0  0  0  0  0
    7.0502  -11.9668   25.4426 C   0  0  0  0  0  0  0  0  0  0  0  0
    7.5257  -12.9297   24.5705 C   0  0  0  0  0  0  0  0  0  0  0  0
    9.6678  -16.0662   25.0563 C   0  0  0  0  0  0  0  0  0  0  0  0
    9.9703  -17.3028   25.2122 O   0  0  0  0  0  0  0  0  0  0  0  0
    9.3663  -14.3123   29.1264 C   0  0  0  0  0  0  0  0  0  0  0  0
   10.6850  -14.7196   28.5007 C   0  0  2  0  0  0  0  0  0  0  0  0
   11.2871  -13.4555   27.9238 C   0  0  0  0  0  0  0  0  0  0  0  0
   10.5307  -15.7205   27.4174 C   0  0  2  0  0  0  0  0  0  0  0  0
    9.9155  -15.2670   26.2083 N   0  0  0  0  0  0  0  0  0  0  0  0
    9.7530  -16.8891   27.9661 C   0  0  0  0  0  0  0  0  0  0  0  0
    8.4983  -17.1187   27.4321 O   0  0  0  0  0  0  0  0  0  0  0  0
   10.2218  -17.6345   28.8768 O   0  0  0  0  0  0  0  0  0  0  0  0
  2  1  1  1
  3  2  1  0
  4  2  1  0
  5  4  1  0
  5  6  1  6
  7  8  2  0
  7  5  1  0
  9  7  1  0
 10  9  1  0
 11 12  1  0
 10 11  1  1
 12 17  2  0
 12 13  1  0
 13 14  2  0
 14 15  1  0
 16 15  2  0
 17 16  1  0
 18 19  2  0
 18 10  1  0
 21 20  1  6
 22 21  1  0
 23 21  1  0
 23 24  1  6
 24 18  1  0
 25 23  1  0
 26 25  1  0
 27 25  2  0
M  END
$$$$
