LFV.pdb
     RDKit          3D

 27 27  0  0  1  0  0  0  0  0999 V2000
    7.6117  -11.9965   18.6849 C   0  0  0  0  0  0  0  0  0  0  0  0
    7.6822  -13.4207   19.1820 C   0  0  1  0  0  0  0  0  0  0  0  0
    8.4643  -14.2919   18.2212 C   0  0  0  0  0  0  0  0  0  0  0  0
    8.3418  -13.5110   20.5428 C   0  0  0  0  0  0  0  0  0  0  0  0
    8.2765  -14.9555   20.9736 C   0  0  2  0  0  0  0  0  0  0  0  0
    6.9419  -15.4285   20.7799 N   0  0  0  0  0  0  0  0  0  0  0  0
    8.7707  -15.1546   22.3595 C   0  0  0  0  0  0  0  0  0  0  0  0
    9.9467  -14.8339   22.6739 O   0  0  0  0  0  0  0  0  0  0  0  0
    7.9706  -15.7060   23.3963 N   0  0  0  0  0  0  0  0  0  0  0  0
    8.4047  -15.7587   24.7933 C   0  0  1  0  0  0  0  0  0  0  0  0
    7.3344  -15.3849   25.7435 C   0  0  0  0  0  0  0  0  0  0  0  0
    7.1427  -13.9665   26.0163 C   0  0  0  0  0  0  0  0  0  0  0  0
    5.9391  -13.3600   25.7309 C   0  0  0  0  0  0  0  0  0  0  0  0
    5.7357  -11.9998   25.9792 C   0  0  0  0  0  0  0  0  0  0  0  0
    6.7496  -11.2485   26.5174 C   0  0  0  0  0  0  0  0  0  0  0  0
    7.9540  -11.8295   26.8094 C   0  0  0  0  0  0  0  0  0  0  0  0
    8.1358  -13.1774   26.5562 C   0  0  0  0  0  0  0  0  0  0  0  0
    9.0429  -17.0753   25.0066 C   0  0  0  0  0  0  0  0  0  0  0  0
    8.3551  -18.1579   24.9923 O   0  0  0  0  0  0  0  0  0  0  0  0
   13.0299  -20.0063   24.6337 C   0  0  0  0  0  0  0  0  0  0  0  0
   12.3692  -18.6480   24.5101 C   0  0  2  0  0  0  0  0  0  0  0  0
   13.3511  -17.6471   25.0822 C   0  0  0  0  0  0  0  0  0  0  0  0
   11.0909  -18.5527   25.2556 C   0  0  2  0  0  0  0  0  0  0  0  0
   10.4321  -17.2832   25.2390 N   0  0  0  0  0  0  0  0  0  0  0  0
   11.3483  -18.9637   26.6826 C   0  0  0  0  0  0  0  0  0  0  0  0
   11.7820  -20.2590   26.8977 O   0  0  0  0  0  0  0  0  0  0  0  0
   11.1780  -18.1627   27.6491 O   0  0  0  0  0  0  0  0  0  0  0  0
  2  1  1  6
  3  2  1  0
  4  2  1  0
  5  4  1  0
  5  6  1  1
  7  8  2  0
  7  5  1  0
  9  7  1  0
 10  9  1  0
 11 12  1  0
 10 11  1  1
 12 17  2  0
 12 13  1  0
 13 14  2  0
 14 15  1  0
 16 15  2  0
 17 16  1  0
 18 19  2  0
 18 10  1  0
 21 20  1  1
 22 21  1  0
 23 21  1  0
 23 24  1  1
 24 18  1  0
 25 23  1  0
 26 25  1  0
 27 25  2  0
M  END
$$$$
