LFV.pdb
     RDKit          3D

 27 27  0  0  1  0  0  0  0  0999 V2000
    9.2508  -21.4160   19.7659 C   0  0  0  0  0  0  0  0  0  0  0  0
    8.4335  -20.2172   20.1842 C   0  0  1  0  0  0  0  0  0  0  0  0
    7.1807  -20.6455   20.9197 C   0  0  0  0  0  0  0  0  0  0  0  0
    9.2166  -19.2889   21.0895 C   0  0  0  0  0  0  0  0  0  0  0  0
    8.3676  -18.0611   21.3092 C   0  0  2  0  0  0  0  0  0  0  0  0
    8.0827  -17.4714   20.0390 N   0  0  0  0  0  0  0  0  0  0  0  0
    8.9857  -17.1109   22.2682 C   0  0  0  0  0  0  0  0  0  0  0  0
    9.8703  -16.2999   21.8882 O   0  0  0  0  0  0  0  0  0  0  0  0
    8.6296  -17.0548   23.6427 N   0  0  0  0  0  0  0  0  0  0  0  0
    9.3501  -16.2347   24.6180 C   0  0  1  0  0  0  0  0  0  0  0  0
    8.5232  -15.8746   25.7906 C   0  0  0  0  0  0  0  0  0  0  0  0
    9.1827  -15.1866   26.8927 C   0  0  0  0  0  0  0  0  0  0  0  0
    9.2511  -13.8107   26.9121 C   0  0  0  0  0  0  0  0  0  0  0  0
    9.8839  -13.1309   27.9564 C   0  0  0  0  0  0  0  0  0  0  0  0
   10.4495  -13.8410   28.9849 C   0  0  0  0  0  0  0  0  0  0  0  0
   10.3936  -15.2086   28.9871 C   0  0  0  0  0  0  0  0  0  0  0  0
    9.7629  -15.8632   27.9443 C   0  0  0  0  0  0  0  0  0  0  0  0
   10.6329  -16.9133   24.9016 C   0  0  0  0  0  0  0  0  0  0  0  0
   10.6663  -18.1286   25.3101 O   0  0  0  0  0  0  0  0  0  0  0  0
   15.4258  -17.3458   23.6645 C   0  0  0  0  0  0  0  0  0  0  0  0
   14.1201  -16.5768   23.6428 C   0  0  2  0  0  0  0  0  0  0  0  0
   14.4777  -15.1299   23.9107 C   0  0  0  0  0  0  0  0  0  0  0  0
   13.1570  -17.0362   24.6724 C   0  0  2  0  0  0  0  0  0  0  0  0
   11.9203  -16.3226   24.7575 N   0  0  0  0  0  0  0  0  0  0  0  0
   13.8484  -16.9993   26.0111 C   0  0  0  0  0  0  0  0  0  0  0  0
   14.9024  -17.8741   26.2012 O   0  0  0  0  0  0  0  0  0  0  0  0
   13.4864  -16.2036   26.9279 O   0  0  0  0  0  0  0  0  0  0  0  0
  2  1  1  1
  3  2  1  0
  4  2  1  0
  5  4  1  0
  5  6  1  6
  7  8  2  0
  7  5  1  0
  9  7  1  0
 10  9  1  0
 11 12  1  0
 10 11  1  1
 12 17  2  0
 12 13  1  0
 13 14  2  0
 14 15  1  0
 16 15  2  0
 17 16  1  0
 18 19  2  0
 18 10  1  0
 21 20  1  1
 22 21  1  0
 23 21  1  0
 23 24  1  1
 24 18  1  0
 25 23  1  0
 26 25  1  0
 27 25  2  0
M  END
$$$$
