LFV.pdb
     RDKit          3D

 27 27  0  0  1  0  0  0  0  0999 V2000
    6.8794  -13.5187   18.2014 C   0  0  0  0  0  0  0  0  0  0  0  0
    8.0221  -14.3968   17.7504 C   0  0  1  0  0  0  0  0  0  0  0  0
    8.5707  -13.9302   16.4180 C   0  0  0  0  0  0  0  0  0  0  0  0
    9.1587  -14.4018   18.7518 C   0  0  0  0  0  0  0  0  0  0  0  0
    8.9017  -15.5379   19.7107 C   0  0  2  0  0  0  0  0  0  0  0  0
    7.6027  -16.0720   19.4461 N   0  0  0  0  0  0  0  0  0  0  0  0
    9.0894  -15.1351   21.1274 C   0  0  0  0  0  0  0  0  0  0  0  0
   10.2176  -14.7647   21.5453 O   0  0  0  0  0  0  0  0  0  0  0  0
    8.0361  -15.1406   22.0812 N   0  0  0  0  0  0  0  0  0  0  0  0
    8.2204  -14.7229   23.4720 C   0  0  1  0  0  0  0  0  0  0  0  0
    7.0784  -13.9415   23.9949 C   0  0  0  0  0  0  0  0  0  0  0  0
    7.1869  -13.4167   25.3498 C   0  0  0  0  0  0  0  0  0  0  0  0
    6.4742  -13.9934   26.3781 C   0  0  0  0  0  0  0  0  0  0  0  0
    6.5591  -13.5023   27.6838 C   0  0  0  0  0  0  0  0  0  0  0  0
    7.3658  -12.4260   27.9535 C   0  0  0  0  0  0  0  0  0  0  0  0
    8.0834  -11.8368   26.9480 C   0  0  0  0  0  0  0  0  0  0  0  0
    7.9859  -12.3375   25.6620 C   0  0  0  0  0  0  0  0  0  0  0  0
    8.6046  -15.9234   24.2449 C   0  0  0  0  0  0  0  0  0  0  0  0
    7.8674  -16.9730   24.2533 O   0  0  0  0  0  0  0  0  0  0  0  0
   12.0562  -18.9599   25.9711 C   0  0  0  0  0  0  0  0  0  0  0  0
   11.5894  -17.7390   25.2040 C   0  0  2  0  0  0  0  0  0  0  0  0
   12.6177  -16.6583   25.4638 C   0  0  0  0  0  0  0  0  0  0  0  0
   10.2568  -17.2538   25.6374 C   0  0  2  0  0  0  0  0  0  0  0  0
    9.7853  -16.0473   25.0309 N   0  0  0  0  0  0  0  0  0  0  0  0
   10.2841  -17.0831   27.1346 C   0  0  0  0  0  0  0  0  0  0  0  0
   10.4322  -18.2269   27.8976 O   0  0  0  0  0  0  0  0  0  0  0  0
   10.1774  -15.9442   27.6788 O   0  0  0  0  0  0  0  0  0  0  0  0
  2  1  1  1
  3  2  1  0
  4  2  1  0
  5  4  1  0
  5  6  1  1
  7  8  2  0
  7  5  1  0
  9  7  1  0
 10  9  1  0
 11 12  1  0
 10 11  1  1
 12 17  2  0
 12 13  1  0
 13 14  2  0
 14 15  1  0
 16 15  2  0
 17 16  1  0
 18 19  2  0
 18 10  1  0
 21 20  1  1
 22 21  1  0
 23 21  1  0
 23 24  1  6
 24 18  1  0
 25 23  1  0
 26 25  1  0
 27 25  2  0
M  END
$$$$
