LFV.pdb
     RDKit          3D

 27 27  0  0  1  0  0  0  0  0999 V2000
    7.7131  -20.1727   19.0080 C   0  0  0  0  0  0  0  0  0  0  0  0
    8.0319  -18.6988   18.9290 C   0  0  1  0  0  0  0  0  0  0  0  0
    6.8393  -17.9127   18.4253 C   0  0  0  0  0  0  0  0  0  0  0  0
    8.4318  -18.1353   20.2771 C   0  0  0  0  0  0  0  0  0  0  0  0
    8.6977  -16.6630   20.0826 C   0  0  2  0  0  0  0  0  0  0  0  0
    9.7839  -16.5138   19.1659 N   0  0  0  0  0  0  0  0  0  0  0  0
    8.9179  -15.9538   21.3684 C   0  0  0  0  0  0  0  0  0  0  0  0
   10.0763  -15.8369   21.8468 O   0  0  0  0  0  0  0  0  0  0  0  0
    7.8635  -15.3750   22.1250 N   0  0  0  0  0  0  0  0  0  0  0  0
    8.0808  -14.7030   23.4072 C   0  0  1  0  0  0  0  0  0  0  0  0
    7.0047  -13.7459   23.7455 C   0  0  0  0  0  0  0  0  0  0  0  0
    7.0362  -13.1394   25.0699 C   0  0  0  0  0  0  0  0  0  0  0  0
    6.1791  -13.5771   26.0557 C   0  0  0  0  0  0  0  0  0  0  0  0
    6.1885  -13.0054   27.3310 C   0  0  0  0  0  0  0  0  0  0  0  0
    7.0655  -11.9890   27.6133 C   0  0  0  0  0  0  0  0  0  0  0  0
    7.9265  -11.5378   26.6497 C   0  0  0  0  0  0  0  0  0  0  0  0
    7.9018  -12.1165   25.3934 C   0  0  0  0  0  0  0  0  0  0  0  0
    8.3682  -15.7507   24.4102 C   0  0  0  0  0  0  0  0  0  0  0  0
    7.4858  -16.6249   24.7302 O   0  0  0  0  0  0  0  0  0  0  0  0
   12.4011  -16.9778   25.4658 C   0  0  0  0  0  0  0  0  0  0  0  0
   11.1321  -17.8008   25.5603 C   0  0  2  0  0  0  0  0  0  0  0  0
   10.9009  -18.3807   24.1807 C   0  0  0  0  0  0  0  0  0  0  0  0
    9.9473  -17.0005   25.9539 C   0  0  2  0  0  0  0  0  0  0  0  0
    9.6028  -15.9039   25.1026 N   0  0  0  0  0  0  0  0  0  0  0  0
   10.1681  -16.4944   27.3563 C   0  0  0  0  0  0  0  0  0  0  0  0
   10.2950  -17.4412   28.3561 O   0  0  0  0  0  0  0  0  0  0  0  0
   10.2365  -15.2565   27.6163 O   0  0  0  0  0  0  0  0  0  0  0  0
  2  1  1  1
  3  2  1  0
  4  2  1  0
  5  4  1  0
  5  6  1  6
  7  8  2  0
  7  5  1  0
  9  7  1  0
 10  9  1  0
 11 12  1  0
 10 11  1  1
 12 17  2  0
 12 13  1  0
 13 14  2  0
 14 15  1  0
 16 15  2  0
 17 16  1  0
 18 19  2  0
 18 10  1  0
 21 20  1  6
 22 21  1  0
 23 21  1  0
 23 24  1  6
 24 18  1  0
 25 23  1  0
 26 25  1  0
 27 25  2  0
M  END
$$$$
