LFV.pdb
     RDKit          3D

 27 27  0  0  1  0  0  0  0  0999 V2000
    7.7018  -13.3941   16.6368 C   0  0  0  0  0  0  0  0  0  0  0  0
    8.0921  -14.5555   17.5196 C   0  0  1  0  0  0  0  0  0  0  0  0
    9.2070  -15.3642   16.8895 C   0  0  0  0  0  0  0  0  0  0  0  0
    8.5589  -14.0941   18.8849 C   0  0  0  0  0  0  0  0  0  0  0  0
    8.6638  -15.3207   19.7570 C   0  0  2  0  0  0  0  0  0  0  0  0
    7.4972  -16.1219   19.5580 N   0  0  0  0  0  0  0  0  0  0  0  0
    8.9024  -14.9817   21.1827 C   0  0  0  0  0  0  0  0  0  0  0  0
    9.9965  -14.4777   21.5483 O   0  0  0  0  0  0  0  0  0  0  0  0
    7.9373  -15.1976   22.2031 N   0  0  0  0  0  0  0  0  0  0  0  0
    8.1316  -14.7611   23.5868 C   0  0  1  0  0  0  0  0  0  0  0  0
    6.9345  -14.1055   24.1574 C   0  0  0  0  0  0  0  0  0  0  0  0
    7.0397  -13.5732   25.5096 C   0  0  0  0  0  0  0  0  0  0  0  0
    7.3444  -12.2451   25.7124 C   0  0  0  0  0  0  0  0  0  0  0  0
    7.4558  -11.7152   27.0009 C   0  0  0  0  0  0  0  0  0  0  0  0
    7.2590  -12.5276   28.0887 C   0  0  0  0  0  0  0  0  0  0  0  0
    6.9551  -13.8504   27.9117 C   0  0  0  0  0  0  0  0  0  0  0  0
    6.8494  -14.3560   26.6283 C   0  0  0  0  0  0  0  0  0  0  0  0
    8.6723  -15.9128   24.3400 C   0  0  0  0  0  0  0  0  0  0  0  0
    8.0456  -17.0310   24.3856 O   0  0  0  0  0  0  0  0  0  0  0  0
   12.8168  -16.1918   25.7047 C   0  0  0  0  0  0  0  0  0  0  0  0
   11.8816  -17.3532   25.4342 C   0  0  2  0  0  0  0  0  0  0  0  0
   12.0136  -17.6671   23.9586 C   0  0  0  0  0  0  0  0  0  0  0  0
   10.4640  -17.0417   25.7380 C   0  0  2  0  0  0  0  0  0  0  0  0
    9.8971  -15.9135   25.0660 N   0  0  0  0  0  0  0  0  0  0  0  0
   10.3341  -16.8533   27.2277 C   0  0  0  0  0  0  0  0  0  0  0  0
    9.8494  -15.6361   27.6699 O   0  0  0  0  0  0  0  0  0  0  0  0
   10.6523  -17.7662   28.0463 O   0  0  0  0  0  0  0  0  0  0  0  0
  2  1  1  6
  3  2  1  0
  4  2  1  0
  5  4  1  0
  5  6  1  1
  7  8  2  0
  7  5  1  0
  9  7  1  0
 10  9  1  0
 11 12  1  0
 10 11  1  1
 12 17  2  0
 12 13  1  0
 13 14  2  0
 14 15  1  0
 16 15  2  0
 17 16  1  0
 18 19  2  0
 18 10  1  0
 21 20  1  6
 22 21  1  0
 23 21  1  0
 23 24  1  6
 24 18  1  0
 25 23  1  0
 26 25  1  0
 27 25  2  0
M  END
$$$$
