LFV.pdb
     RDKit          3D

 27 27  0  0  1  0  0  0  0  0999 V2000
    8.0495  -20.9356   18.8413 C   0  0  0  0  0  0  0  0  0  0  0  0
    7.8565  -19.4419   18.7323 C   0  0  1  0  0  0  0  0  0  0  0  0
    6.3879  -19.0930   18.6080 C   0  0  0  0  0  0  0  0  0  0  0  0
    8.4134  -18.7120   19.9373 C   0  0  0  0  0  0  0  0  0  0  0  0
    8.1519  -17.2412   19.7263 C   0  0  2  0  0  0  0  0  0  0  0  0
    8.8161  -16.8276   18.5304 N   0  0  0  0  0  0  0  0  0  0  0  0
    8.5218  -16.4259   20.9108 C   0  0  0  0  0  0  0  0  0  0  0  0
    9.7132  -16.0628   21.0935 O   0  0  0  0  0  0  0  0  0  0  0  0
    7.5806  -16.0118   21.8917 N   0  0  0  0  0  0  0  0  0  0  0  0
    7.9490  -15.2068   23.0575 C   0  0  1  0  0  0  0  0  0  0  0  0
    6.8420  -14.3529   23.5408 C   0  0  0  0  0  0  0  0  0  0  0  0
    7.0540  -13.6138   24.7785 C   0  0  0  0  0  0  0  0  0  0  0  0
    6.4658  -14.0365   25.9503 C   0  0  0  0  0  0  0  0  0  0  0  0
    6.6512  -13.3393   27.1473 C   0  0  0  0  0  0  0  0  0  0  0  0
    7.4327  -12.2119   27.1626 C   0  0  0  0  0  0  0  0  0  0  0  0
    8.0274  -11.7731   26.0106 C   0  0  0  0  0  0  0  0  0  0  0  0
    7.8317  -12.4769   24.8359 C   0  0  0  0  0  0  0  0  0  0  0  0
    8.5561  -16.1202   24.0492 C   0  0  0  0  0  0  0  0  0  0  0  0
    7.9269  -17.1541   24.4736 O   0  0  0  0  0  0  0  0  0  0  0  0
   12.3500  -17.4580   23.8007 C   0  0  0  0  0  0  0  0  0  0  0  0
   11.9858  -17.0739   25.2208 C   0  0  2  0  0  0  0  0  0  0  0  0
   12.5065  -18.1867   26.1060 C   0  0  0  0  0  0  0  0  0  0  0  0
   10.5244  -16.9332   25.4290 C   0  0  2  0  0  0  0  0  0  0  0  0
    9.8516  -15.9650   24.6190 N   0  0  0  0  0  0  0  0  0  0  0  0
   10.2859  -16.6202   26.8838 C   0  0  0  0  0  0  0  0  0  0  0  0
    9.8809  -15.3350   27.1946 O   0  0  0  0  0  0  0  0  0  0  0  0
   10.4465  -17.4914   27.7892 O   0  0  0  0  0  0  0  0  0  0  0  0
  2  1  1  1
  3  2  1  0
  4  2  1  0
  5  4  1  0
  5  6  1  6
  7  8  2  0
  7  5  1  0
  9  7  1  0
 10  9  1  0
 11 12  1  0
 10 11  1  1
 12 17  2  0
 12 13  1  0
 13 14  2  0
 14 15  1  0
 16 15  2  0
 17 16  1  0
 18 19  2  0
 18 10  1  0
 21 20  1  6
 22 21  1  0
 23 21  1  0
 23 24  1  6
 24 18  1  0
 25 23  1  0
 26 25  1  0
 27 25  2  0
M  END
$$$$
