NDF.pdb
     RDKit          3D

 28 28  0  0  1  0  0  0  0  0999 V2000
   22.0246  -13.8930  -16.6517 N   0  0  0  0  0  0  0  0  0  0  0  0
   20.9769  -12.9940  -16.3659 C   0  0  0  0  0  0  0  0  0  0  0  0
   20.0149  -13.4126  -15.6788 O   0  0  0  0  0  0  0  0  0  0  0  0
   21.0757  -11.6108  -16.8939 C   0  0  0  0  0  0  0  0  0  0  0  0
   19.7133  -10.9472  -16.9490 C   0  0  2  0  0  0  0  0  0  0  0  0
   18.9195  -11.4695  -18.0393 N   0  0  0  0  0  0  0  0  0  0  0  0
   19.9431   -9.5050  -17.1905 C   0  0  0  0  0  0  0  0  0  0  0  0
   21.0178   -9.1488  -17.7289 O   0  0  0  0  0  0  0  0  0  0  0  0
   19.0053   -8.5039  -16.8420 N   0  0  0  0  0  0  0  0  0  0  0  0
   19.3085   -7.1326  -17.1194 C   0  0  1  0  0  0  0  0  0  0  0  0
   18.0514   -6.4257  -17.5551 C   0  0  0  0  0  0  0  0  0  0  0  0
   18.3669   -5.0307  -17.9109 C   0  0  0  0  0  0  0  0  0  0  0  0
   19.3895   -4.7814  -18.5841 O   0  0  0  0  0  0  0  0  0  0  0  0
   19.7988   -6.4687  -15.8538 C   0  0  0  0  0  0  0  0  0  0  0  0
   19.1959   -6.7106  -14.7858 O   0  0  0  0  0  0  0  0  0  0  0  0
   17.5793   -3.9518  -17.5351 O   0  0  0  0  0  0  0  0  0  0  0  0
   20.9059   -5.5961  -15.8589 N   0  0  0  0  0  0  0  0  0  0  0  0
   21.3772   -4.9782  -14.6173 C   0  0  1  0  0  0  0  0  0  0  0  0
   22.7615   -5.4059  -14.2788 C   0  0  0  0  0  0  0  0  0  0  0  0
   22.9863   -6.8615  -14.3625 C   0  0  0  0  0  0  0  0  0  0  0  0
   22.4724   -7.7317  -13.4202 C   0  0  0  0  0  0  0  0  0  0  0  0
   22.6709   -9.1082  -13.5025 C   0  0  0  0  0  0  0  0  0  0  0  0
   23.4056   -9.5971  -14.5649 C   0  0  0  0  0  0  0  0  0  0  0  0
   23.9331   -8.7599  -15.5230 C   0  0  0  0  0  0  0  0  0  0  0  0
   23.7052   -7.4166  -15.3894 C   0  0  0  0  0  0  0  0  0  0  0  0
   21.1579   -3.5240  -14.6174 C   0  0  0  0  0  0  0  0  0  0  0  0
   20.7104   -2.9563  -15.6271 O   0  0  0  0  0  0  0  0  0  0  0  0
   21.4506   -2.7874  -13.4948 O   0  0  0  0  0  0  0  0  0  0  0  0
  1  2  1  0
  2  3  2  0
  2  4  1  0
  4  5  1  0
  5  7  1  0
  5  6  1  6
  7  8  2  0
  9 10  1  0
  9  7  1  0
 10 11  1  1
 12 11  1  0
 13 12  2  0
 14 15  2  0
 14 10  1  0
 16 12  1  0
 17 14  1  0
 18 17  1  0
 18 26  1  0
 18 19  1  6
 20 19  1  0
 21 20  2  0
 22 21  1  0
 23 22  2  0
 23 24  1  0
 24 25  2  0
 25 20  1  0
 26 28  1  0
 27 26  2  0
M  END
$$$$
