NDF.pdb
     RDKit          3D

 28 28  0  0  1  0  0  0  0  0999 V2000
   22.3781  -14.6683  -18.6503 N   0  0  0  0  0  0  0  0  0  0  0  0
   21.4095  -14.0287  -17.8500 C   0  0  0  0  0  0  0  0  0  0  0  0
   20.7465  -14.7349  -17.0535 O   0  0  0  0  0  0  0  0  0  0  0  0
   21.2339  -12.5627  -17.9982 C   0  0  0  0  0  0  0  0  0  0  0  0
   20.0193  -12.0766  -17.2314 C   0  0  2  0  0  0  0  0  0  0  0  0
   18.7937  -12.5512  -17.8349 N   0  0  0  0  0  0  0  0  0  0  0  0
   20.0280  -10.5979  -17.2980 C   0  0  0  0  0  0  0  0  0  0  0  0
   20.6540  -10.0413  -18.2307 O   0  0  0  0  0  0  0  0  0  0  0  0
   19.3616   -9.7779  -16.3564 N   0  0  0  0  0  0  0  0  0  0  0  0
   19.4172   -8.3549  -16.5030 C   0  0  1  0  0  0  0  0  0  0  0  0
   18.0169   -7.7997  -16.4825 C   0  0  0  0  0  0  0  0  0  0  0  0
   18.0662   -6.3304  -16.5883 C   0  0  0  0  0  0  0  0  0  0  0  0
   17.8336   -5.6308  -15.5796 O   0  0  0  0  0  0  0  0  0  0  0  0
   20.1666   -7.7658  -15.3306 C   0  0  0  0  0  0  0  0  0  0  0  0
   19.9758   -8.2581  -14.1975 O   0  0  0  0  0  0  0  0  0  0  0  0
   18.3620   -5.6609  -17.7672 O   0  0  0  0  0  0  0  0  0  0  0  0
   21.0616   -6.6889  -15.4922 N   0  0  0  0  0  0  0  0  0  0  0  0
   21.8745   -6.2166  -14.3688 C   0  0  1  0  0  0  0  0  0  0  0  0
   23.2343   -6.8203  -14.3793 C   0  0  0  0  0  0  0  0  0  0  0  0
   24.0375   -6.4904  -15.5719 C   0  0  0  0  0  0  0  0  0  0  0  0
   24.2322   -7.4018  -16.5920 C   0  0  0  0  0  0  0  0  0  0  0  0
   24.9788   -7.0900  -17.7262 C   0  0  0  0  0  0  0  0  0  0  0  0
   25.5320   -5.8276  -17.8140 C   0  0  0  0  0  0  0  0  0  0  0  0
   25.3590   -4.8933  -16.8169 C   0  0  0  0  0  0  0  0  0  0  0  0
   24.6156   -5.2569  -15.7264 C   0  0  0  0  0  0  0  0  0  0  0  0
   21.8456   -4.7505  -14.2564 C   0  0  0  0  0  0  0  0  0  0  0  0
   21.3108   -4.0631  -15.1416 O   0  0  0  0  0  0  0  0  0  0  0  0
   22.4144   -4.1360  -13.1668 O   0  0  0  0  0  0  0  0  0  0  0  0
  1  2  1  0
  2  3  2  0
  2  4  1  0
  4  5  1  0
  5  7  1  0
  5  6  1  6
  7  8  2  0
  9 10  1  0
  9  7  1  0
 10 11  1  1
 12 11  1  0
 13 12  2  0
 14 15  2  0
 14 10  1  0
 16 12  1  0
 17 14  1  0
 18 17  1  0
 18 26  1  0
 18 19  1  6
 20 19  1  0
 21 20  2  0
 22 21  1  0
 23 22  2  0
 23 24  1  0
 24 25  2  0
 25 20  1  0
 26 28  1  0
 27 26  2  0
M  END
$$$$
