NDF.pdb
     RDKit          3D

 28 28  0  0  1  0  0  0  0  0999 V2000
   15.9122  -13.0848  -15.6473 N   0  0  0  0  0  0  0  0  0  0  0  0
   16.9729  -12.7409  -14.7846 C   0  0  0  0  0  0  0  0  0  0  0  0
   17.0806  -13.3714  -13.7059 O   0  0  0  0  0  0  0  0  0  0  0  0
   17.8951  -11.6567  -15.2041 C   0  0  0  0  0  0  0  0  0  0  0  0
   17.4487  -11.0341  -16.5128 C   0  0  2  0  0  0  0  0  0  0  0  0
   17.8892  -11.8198  -17.6443 N   0  0  0  0  0  0  0  0  0  0  0  0
   18.0846   -9.7002  -16.5973 C   0  0  0  0  0  0  0  0  0  0  0  0
   19.1131   -9.5674  -17.3018 O   0  0  0  0  0  0  0  0  0  0  0  0
   17.5866   -8.5622  -15.9190 N   0  0  0  0  0  0  0  0  0  0  0  0
   18.2114   -7.2915  -16.1300 C   0  0  1  0  0  0  0  0  0  0  0  0
   17.1497   -6.2544  -16.3886 C   0  0  0  0  0  0  0  0  0  0  0  0
   17.7783   -4.9293  -16.5347 C   0  0  0  0  0  0  0  0  0  0  0  0
   17.7023   -4.1036  -15.6001 O   0  0  0  0  0  0  0  0  0  0  0  0
   18.9546   -6.8915  -14.8767 C   0  0  0  0  0  0  0  0  0  0  0  0
   18.4176   -7.1194  -13.7711 O   0  0  0  0  0  0  0  0  0  0  0  0
   18.4655   -4.5334  -17.6734 O   0  0  0  0  0  0  0  0  0  0  0  0
   20.2216   -6.2763  -14.9342 N   0  0  0  0  0  0  0  0  0  0  0  0
   20.9491   -5.9457  -13.7066 C   0  0  1  0  0  0  0  0  0  0  0  0
   21.5601   -7.1518  -13.0854 C   0  0  0  0  0  0  0  0  0  0  0  0
   22.6080   -7.7925  -13.9025 C   0  0  0  0  0  0  0  0  0  0  0  0
   23.1091   -9.0423  -13.5921 C   0  0  0  0  0  0  0  0  0  0  0  0
   24.0891   -9.6569  -14.3686 C   0  0  0  0  0  0  0  0  0  0  0  0
   24.5602   -8.9804  -15.4767 C   0  0  0  0  0  0  0  0  0  0  0  0
   24.0843   -7.7335  -15.8167 C   0  0  0  0  0  0  0  0  0  0  0  0
   23.1216   -7.1798  -15.0162 C   0  0  0  0  0  0  0  0  0  0  0  0
   21.8690   -4.8161  -13.9082 C   0  0  0  0  0  0  0  0  0  0  0  0
   22.0310   -4.3324  -15.0404 O   0  0  0  0  0  0  0  0  0  0  0  0
   22.5549   -4.2925  -12.8388 O   0  0  0  0  0  0  0  0  0  0  0  0
  1  2  1  0
  2  3  2  0
  2  4  1  0
  4  5  1  0
  5  7  1  0
  5  6  1  6
  7  8  2  0
  9 10  1  0
  9  7  1  0
 10 11  1  1
 12 11  1  0
 13 12  2  0
 14 15  2  0
 14 10  1  0
 16 12  1  0
 17 14  1  0
 18 17  1  0
 18 26  1  0
 18 19  1  6
 20 19  1  0
 21 20  2  0
 22 21  1  0
 23 22  2  0
 23 24  1  0
 24 25  2  0
 25 20  1  0
 26 28  1  0
 27 26  2  0
M  END
$$$$
