NDF.pdb
     RDKit          3D

 28 28  0  0  1  0  0  0  0  0999 V2000
   33.1362  -14.9597  -19.0337 N   0  0  0  0  0  0  0  0  0  0  0  0
   33.1853  -13.5821  -18.7381 C   0  0  0  0  0  0  0  0  0  0  0  0
   34.2090  -13.1408  -18.1637 O   0  0  0  0  0  0  0  0  0  0  0  0
   32.0258  -12.7401  -19.1237 C   0  0  0  0  0  0  0  0  0  0  0  0
   31.9100  -12.6249  -20.6313 C   0  0  2  0  0  0  0  0  0  0  0  0
   32.9591  -11.7914  -21.1755 N   0  0  0  0  0  0  0  0  0  0  0  0
   30.6086  -11.9808  -20.9180 C   0  0  0  0  0  0  0  0  0  0  0  0
   30.5856  -10.7499  -21.1551 O   0  0  0  0  0  0  0  0  0  0  0  0
   29.3833  -12.6890  -20.9378 N   0  0  0  0  0  0  0  0  0  0  0  0
   28.1781  -11.9950  -21.2775 C   0  0  1  0  0  0  0  0  0  0  0  0
   27.3356  -12.8718  -22.1668 C   0  0  0  0  0  0  0  0  0  0  0  0
   27.9711  -12.9878  -23.4916 C   0  0  0  0  0  0  0  0  0  0  0  0
   27.9397  -12.0177  -24.2784 O   0  0  0  0  0  0  0  0  0  0  0  0
   27.3921  -11.7225  -20.0162 C   0  0  0  0  0  0  0  0  0  0  0  0
   27.1025  -12.6888  -19.2780 O   0  0  0  0  0  0  0  0  0  0  0  0
   28.6172  -14.1354  -23.9289 O   0  0  0  0  0  0  0  0  0  0  0  0
   26.9875  -10.4185  -19.6656 N   0  0  0  0  0  0  0  0  0  0  0  0
   26.2307  -10.1753  -18.4353 C   0  0  1  0  0  0  0  0  0  0  0  0
   27.0767   -9.5547  -17.3804 C   0  0  0  0  0  0  0  0  0  0  0  0
   28.2152  -10.3862  -16.9458 C   0  0  0  0  0  0  0  0  0  0  0  0
   28.0450  -11.4686  -16.1040 C   0  0  0  0  0  0  0  0  0  0  0  0
   29.1154  -12.2647  -15.7018 C   0  0  0  0  0  0  0  0  0  0  0  0
   30.3751  -11.9456  -16.1694 C   0  0  0  0  0  0  0  0  0  0  0  0
   30.5826  -10.8743  -17.0097 C   0  0  0  0  0  0  0  0  0  0  0  0
   29.4928  -10.1285  -17.3708 C   0  0  0  0  0  0  0  0  0  0  0  0
   24.9637   -9.4795  -18.7059 C   0  0  0  0  0  0  0  0  0  0  0  0
   24.6790   -9.1191  -19.8596 O   0  0  0  0  0  0  0  0  0  0  0  0
   24.0891   -9.2248  -17.6770 O   0  0  0  0  0  0  0  0  0  0  0  0
  1  2  1  0
  2  3  2  0
  2  4  1  0
  4  5  1  0
  5  7  1  0
  5  6  1  1
  7  8  2  0
  9 10  1  0
  9  7  1  0
 10 11  1  6
 12 11  1  0
 13 12  2  0
 14 15  2  0
 14 10  1  0
 16 12  1  0
 17 14  1  0
 18 17  1  0
 18 26  1  0
 18 19  1  1
 20 19  1  0
 21 20  2  0
 22 21  1  0
 23 22  2  0
 23 24  1  0
 24 25  2  0
 25 20  1  0
 26 28  1  0
 27 26  2  0
M  END
$$$$
