NDF.pdb
     RDKit          3D

 28 28  0  0  1  0  0  0  0  0999 V2000
   13.5621  -12.0716   -9.1090 N   0  0  0  0  0  0  0  0  0  0  0  0
   14.6595  -12.0712   -9.9941 C   0  0  0  0  0  0  0  0  0  0  0  0
   15.2137  -13.1683  -10.2428 O   0  0  0  0  0  0  0  0  0  0  0  0
   15.0909  -10.7762  -10.5761 C   0  0  0  0  0  0  0  0  0  0  0  0
   14.2395   -9.6329  -10.0591 C   0  0  2  0  0  0  0  0  0  0  0  0
   12.9246   -9.6444  -10.6611 N   0  0  0  0  0  0  0  0  0  0  0  0
   14.9182   -8.3765  -10.4487 C   0  0  0  0  0  0  0  0  0  0  0  0
   14.8004   -7.9699  -11.6288 O   0  0  0  0  0  0  0  0  0  0  0  0
   15.6970   -7.6081   -9.5508 N   0  0  0  0  0  0  0  0  0  0  0  0
   16.3028   -6.3949  -10.0098 C   0  0  1  0  0  0  0  0  0  0  0  0
   16.2452   -5.3660   -8.9109 C   0  0  0  0  0  0  0  0  0  0  0  0
   16.8302   -4.1001   -9.3881 C   0  0  0  0  0  0  0  0  0  0  0  0
   16.6661   -3.7538  -10.5772 O   0  0  0  0  0  0  0  0  0  0  0  0
   17.7573   -6.6566  -10.3241 C   0  0  0  0  0  0  0  0  0  0  0  0
   18.4007   -7.4138   -9.5656 O   0  0  0  0  0  0  0  0  0  0  0  0
   17.5694   -3.2494   -8.5784 O   0  0  0  0  0  0  0  0  0  0  0  0
   18.3887   -6.0702  -11.4397 N   0  0  0  0  0  0  0  0  0  0  0  0
   19.6800   -6.5705  -11.9172 C   0  0  1  0  0  0  0  0  0  0  0  0
   19.6004   -7.9977  -12.3304 C   0  0  0  0  0  0  0  0  0  0  0  0
   20.8559   -8.5429  -12.8806 C   0  0  0  0  0  0  0  0  0  0  0  0
   21.7437   -9.2554  -12.0974 C   0  0  0  0  0  0  0  0  0  0  0  0
   22.9241   -9.7836  -12.6158 C   0  0  0  0  0  0  0  0  0  0  0  0
   23.1961   -9.5778  -13.9542 C   0  0  0  0  0  0  0  0  0  0  0  0
   22.3346   -8.8727  -14.7652 C   0  0  0  0  0  0  0  0  0  0  0  0
   21.1903   -8.3776  -14.1997 C   0  0  0  0  0  0  0  0  0  0  0  0
   20.2779   -5.6674  -12.9120 C   0  0  0  0  0  0  0  0  0  0  0  0
   19.5633   -5.0973  -13.7524 O   0  0  0  0  0  0  0  0  0  0  0  0
   21.6353   -5.4530  -12.9136 O   0  0  0  0  0  0  0  0  0  0  0  0
  1  2  1  0
  2  3  2  0
  2  4  1  0
  4  5  1  0
  5  7  1  0
  5  6  1  6
  7  8  2  0
  9 10  1  0
  9  7  1  0
 10 11  1  1
 12 11  1  0
 13 12  2  0
 14 15  2  0
 14 10  1  0
 16 12  1  0
 17 14  1  0
 18 17  1  0
 18 26  1  0
 18 19  1  6
 20 19  1  0
 21 20  2  0
 22 21  1  0
 23 22  2  0
 23 24  1  0
 24 25  2  0
 25 20  1  0
 26 28  1  0
 27 26  2  0
M  END
$$$$
