NDF.pdb
     RDKit          3D

 28 28  0  0  1  0  0  0  0  0999 V2000
   29.5540  -21.1285  -19.9002 N   0  0  0  0  0  0  0  0  0  0  0  0
   28.1461  -21.0653  -19.8624 C   0  0  0  0  0  0  0  0  0  0  0  0
   27.5071  -21.6613  -20.7619 O   0  0  0  0  0  0  0  0  0  0  0  0
   27.5074  -20.2994  -18.7635 C   0  0  0  0  0  0  0  0  0  0  0  0
   26.6298  -19.1892  -19.3082 C   0  0  2  0  0  0  0  0  0  0  0  0
   27.4200  -18.0493  -19.7178 N   0  0  0  0  0  0  0  0  0  0  0  0
   25.7359  -18.7639  -18.2076 C   0  0  0  0  0  0  0  0  0  0  0  0
   25.6718  -17.5451  -17.9213 O   0  0  0  0  0  0  0  0  0  0  0  0
   24.9466  -19.6696  -17.4592 N   0  0  0  0  0  0  0  0  0  0  0  0
   24.0738  -19.1644  -16.4431 C   0  0  1  0  0  0  0  0  0  0  0  0
   22.6442  -19.3962  -16.8579 C   0  0  0  0  0  0  0  0  0  0  0  0
   21.8601  -18.1680  -16.6366 C   0  0  0  0  0  0  0  0  0  0  0  0
   22.1741  -17.1184  -17.2372 O   0  0  0  0  0  0  0  0  0  0  0  0
   24.3139  -19.9269  -15.1610 C   0  0  0  0  0  0  0  0  0  0  0  0
   24.5796  -21.1460  -15.2374 O   0  0  0  0  0  0  0  0  0  0  0  0
   20.7688  -18.1045  -15.7818 O   0  0  0  0  0  0  0  0  0  0  0  0
   24.2442  -19.2958  -13.9024 N   0  0  0  0  0  0  0  0  0  0  0  0
   24.5565  -20.0345  -12.6767 C   0  0  1  0  0  0  0  0  0  0  0  0
   25.6595  -19.3930  -11.9115 C   0  0  0  0  0  0  0  0  0  0  0  0
   25.9699  -20.0478  -10.6266 C   0  0  0  0  0  0  0  0  0  0  0  0
   26.9880  -20.9748  -10.5105 C   0  0  0  0  0  0  0  0  0  0  0  0
   27.2933  -21.5857   -9.2961 C   0  0  0  0  0  0  0  0  0  0  0  0
   26.5445  -21.2409   -8.1880 C   0  0  0  0  0  0  0  0  0  0  0  0
   25.5223  -20.3211   -8.2660 C   0  0  0  0  0  0  0  0  0  0  0  0
   25.2686  -19.7538   -9.4859 C   0  0  0  0  0  0  0  0  0  0  0  0
   23.3453  -20.3266  -11.8954 C   0  0  0  0  0  0  0  0  0  0  0  0
   22.3244  -19.6339  -12.0367 O   0  0  0  0  0  0  0  0  0  0  0  0
   23.3419  -21.3711  -11.0024 O   0  0  0  0  0  0  0  0  0  0  0  0
  1  2  1  0
  2  3  2  0
  2  4  1  0
  4  5  1  0
  5  7  1  0
  5  6  1  1
  7  8  2  0
  9 10  1  0
  9  7  1  0
 10 11  1  6
 12 11  1  0
 13 12  2  0
 14 15  2  0
 14 10  1  0
 16 12  1  0
 17 14  1  0
 18 17  1  0
 18 26  1  0
 18 19  1  1
 20 19  1  0
 21 20  2  0
 22 21  1  0
 23 22  2  0
 23 24  1  0
 24 25  2  0
 25 20  1  0
 26 28  1  0
 27 26  2  0
M  END
$$$$
