NDF.pdb
     RDKit          3D

 28 28  0  0  1  0  0  0  0  0999 V2000
   29.4140  -21.5723  -16.9713 N   0  0  0  0  0  0  0  0  0  0  0  0
   28.4659  -20.7483  -16.3312 C   0  0  0  0  0  0  0  0  0  0  0  0
   28.8192  -19.5900  -16.0054 O   0  0  0  0  0  0  0  0  0  0  0  0
   27.1111  -21.3002  -16.0823 C   0  0  0  0  0  0  0  0  0  0  0  0
   26.9652  -22.6849  -16.6829 C   0  0  2  0  0  0  0  0  0  0  0  0
   27.1038  -22.6495  -18.1221 N   0  0  0  0  0  0  0  0  0  0  0  0
   25.5999  -23.1562  -16.3589 C   0  0  0  0  0  0  0  0  0  0  0  0
   24.6577  -22.8431  -17.1243 O   0  0  0  0  0  0  0  0  0  0  0  0
   25.3045  -23.9464  -15.2224 N   0  0  0  0  0  0  0  0  0  0  0  0
   23.9545  -24.3619  -14.9896 C   0  0  1  0  0  0  0  0  0  0  0  0
   23.9608  -25.6723  -14.2463 C   0  0  0  0  0  0  0  0  0  0  0  0
   22.5815  -26.1768  -14.1224 C   0  0  0  0  0  0  0  0  0  0  0  0
   21.6402  -25.5317  -14.6310 O   0  0  0  0  0  0  0  0  0  0  0  0
   23.2651  -23.3381  -14.1182 C   0  0  0  0  0  0  0  0  0  0  0  0
   23.8856  -22.8850  -13.1320 O   0  0  0  0  0  0  0  0  0  0  0  0
   22.2567  -27.3520  -13.4597 O   0  0  0  0  0  0  0  0  0  0  0  0
   21.9563  -22.8938  -14.3952 N   0  0  0  0  0  0  0  0  0  0  0  0
   21.3368  -21.8409  -13.5870 C   0  0  1  0  0  0  0  0  0  0  0  0
   22.2087  -20.6397  -13.4833 C   0  0  0  0  0  0  0  0  0  0  0  0
   21.6077  -19.5135  -12.7438 C   0  0  0  0  0  0  0  0  0  0  0  0
   20.8723  -18.5339  -13.3833 C   0  0  0  0  0  0  0  0  0  0  0  0
   20.2917  -17.4759  -12.6871 C   0  0  0  0  0  0  0  0  0  0  0  0
   20.4683  -17.4231  -11.3183 C   0  0  0  0  0  0  0  0  0  0  0  0
   21.1948  -18.3816  -10.6473 C   0  0  0  0  0  0  0  0  0  0  0  0
   21.7417  -19.3974  -11.3844 C   0  0  0  0  0  0  0  0  0  0  0  0
   19.9552  -21.5718  -14.0127 C   0  0  0  0  0  0  0  0  0  0  0  0
   19.1670  -20.9849  -13.2535 O   0  0  0  0  0  0  0  0  0  0  0  0
   19.5318  -21.9725  -15.2572 O   0  0  0  0  0  0  0  0  0  0  0  0
  1  2  1  0
  2  3  2  0
  2  4  1  0
  4  5  1  0
  5  7  1  0
  5  6  1  6
  7  8  2  0
  9 10  1  0
  9  7  1  0
 10 11  1  1
 12 11  1  0
 13 12  2  0
 14 15  2  0
 14 10  1  0
 16 12  1  0
 17 14  1  0
 18 17  1  0
 18 26  1  0
 18 19  1  6
 20 19  1  0
 21 20  2  0
 22 21  1  0
 23 22  2  0
 23 24  1  0
 24 25  2  0
 25 20  1  0
 26 28  1  0
 27 26  2  0
M  END
$$$$
