NDF.pdb
     RDKit          3D

 28 28  0  0  1  0  0  0  0  0999 V2000
   22.8158  -14.8785  -18.3948 N   0  0  0  0  0  0  0  0  0  0  0  0
   21.6272  -14.1229  -18.3328 C   0  0  0  0  0  0  0  0  0  0  0  0
   20.5385  -14.7435  -18.2861 O   0  0  0  0  0  0  0  0  0  0  0  0
   21.7362  -12.6430  -18.3267 C   0  0  0  0  0  0  0  0  0  0  0  0
   20.6554  -12.0109  -19.1821 C   0  0  2  0  0  0  0  0  0  0  0  0
   20.9170  -12.2115  -20.5903 N   0  0  0  0  0  0  0  0  0  0  0  0
   20.6803  -10.5566  -18.9072 C   0  0  0  0  0  0  0  0  0  0  0  0
   21.3224   -9.8087  -19.6818 O   0  0  0  0  0  0  0  0  0  0  0  0
   20.0119   -9.9663  -17.8082 N   0  0  0  0  0  0  0  0  0  0  0  0
   20.0312   -8.5426  -17.6587 C   0  0  1  0  0  0  0  0  0  0  0  0
   18.6329   -8.0079  -17.8266 C   0  0  0  0  0  0  0  0  0  0  0  0
   18.6320   -6.5499  -17.6105 C   0  0  0  0  0  0  0  0  0  0  0  0
   19.4211   -5.8295  -18.2580 O   0  0  0  0  0  0  0  0  0  0  0  0
   20.4947   -8.1982  -16.2625 C   0  0  0  0  0  0  0  0  0  0  0  0
   20.0891   -8.9025  -15.3127 O   0  0  0  0  0  0  0  0  0  0  0  0
   17.7886   -5.9136  -16.7109 O   0  0  0  0  0  0  0  0  0  0  0  0
   21.3621   -7.1141  -16.0188 N   0  0  0  0  0  0  0  0  0  0  0  0
   21.8439   -6.8311  -14.6648 C   0  0  1  0  0  0  0  0  0  0  0  0
   22.5459   -8.0018  -14.0728 C   0  0  0  0  0  0  0  0  0  0  0  0
   23.7807   -8.3921  -14.7793 C   0  0  0  0  0  0  0  0  0  0  0  0
   24.2757   -7.6558  -15.8386 C   0  0  0  0  0  0  0  0  0  0  0  0
   25.4487   -8.0131  -16.5000 C   0  0  0  0  0  0  0  0  0  0  0  0
   26.1213   -9.1397  -16.0689 C   0  0  0  0  0  0  0  0  0  0  0  0
   25.6578   -9.8979  -15.0166 C   0  0  0  0  0  0  0  0  0  0  0  0
   24.5000   -9.4977  -14.4054 C   0  0  0  0  0  0  0  0  0  0  0  0
   22.5893   -5.5646  -14.6074 C   0  0  0  0  0  0  0  0  0  0  0  0
   23.0698   -5.1667  -13.5337 O   0  0  0  0  0  0  0  0  0  0  0  0
   22.7550   -4.8154  -15.7474 O   0  0  0  0  0  0  0  0  0  0  0  0
  1  2  1  0
  2  3  2  0
  2  4  1  0
  4  5  1  0
  5  7  1  0
  5  6  1  6
  7  8  2  0
  9 10  1  0
  9  7  1  0
 10 11  1  1
 12 11  1  0
 13 12  2  0
 14 15  2  0
 14 10  1  0
 16 12  1  0
 17 14  1  0
 18 17  1  0
 18 26  1  0
 18 19  1  6
 20 19  1  0
 21 20  2  0
 22 21  1  0
 23 22  2  0
 23 24  1  0
 24 25  2  0
 25 20  1  0
 26 28  1  0
 27 26  2  0
M  END
$$$$
