NDF.pdb
     RDKit          3D

 28 28  0  0  1  0  0  0  0  0999 V2000
   15.5420  -12.2184  -11.4130 N   0  0  0  0  0  0  0  0  0  0  0  0
   16.7822  -11.6859  -11.8204 C   0  0  0  0  0  0  0  0  0  0  0  0
   17.6975  -12.4901  -12.1177 O   0  0  0  0  0  0  0  0  0  0  0  0
   16.9289  -10.2102  -11.8727 C   0  0  0  0  0  0  0  0  0  0  0  0
   15.6613   -9.5174  -11.4118 C   0  0  2  0  0  0  0  0  0  0  0  0
   14.6176   -9.6167  -12.4080 N   0  0  0  0  0  0  0  0  0  0  0  0
   15.9923   -8.0866  -11.2263 C   0  0  0  0  0  0  0  0  0  0  0  0
   16.0135   -7.3386  -12.2322 O   0  0  0  0  0  0  0  0  0  0  0  0
   16.2872   -7.5188   -9.9639 N   0  0  0  0  0  0  0  0  0  0  0  0
   16.6586   -6.1384   -9.8858 C   0  0  1  0  0  0  0  0  0  0  0  0
   16.1619   -5.5647   -8.5843 C   0  0  0  0  0  0  0  0  0  0  0  0
   14.6945   -5.4340   -8.6299 C   0  0  0  0  0  0  0  0  0  0  0  0
   14.1511   -4.9233   -9.6323 O   0  0  0  0  0  0  0  0  0  0  0  0
   18.1656   -6.0304   -9.8949 C   0  0  0  0  0  0  0  0  0  0  0  0
   18.7945   -6.4310   -8.8916 O   0  0  0  0  0  0  0  0  0  0  0  0
   13.8600   -5.8533   -7.6035 O   0  0  0  0  0  0  0  0  0  0  0  0
   18.8608   -5.4943  -10.9978 N   0  0  0  0  0  0  0  0  0  0  0  0
   20.3128   -5.6490  -11.1140 C   0  0  1  0  0  0  0  0  0  0  0  0
   20.7189   -7.0802  -11.0908 C   0  0  0  0  0  0  0  0  0  0  0  0
   20.5653   -7.7774  -12.3818 C   0  0  0  0  0  0  0  0  0  0  0  0
   19.6382   -8.7869  -12.5569 C   0  0  0  0  0  0  0  0  0  0  0  0
   19.4805   -9.4388  -13.7780 C   0  0  0  0  0  0  0  0  0  0  0  0
   20.2842   -9.0498  -14.8317 C   0  0  0  0  0  0  0  0  0  0  0  0
   21.2189   -8.0477  -14.6941 C   0  0  0  0  0  0  0  0  0  0  0  0
   21.3285   -7.4434  -13.4705 C   0  0  0  0  0  0  0  0  0  0  0  0
   20.8540   -4.8669  -12.2356 C   0  0  0  0  0  0  0  0  0  0  0  0
   20.0951   -4.4052  -13.1034 O   0  0  0  0  0  0  0  0  0  0  0  0
   22.2073   -4.6459  -12.3263 O   0  0  0  0  0  0  0  0  0  0  0  0
  1  2  1  0
  2  3  2  0
  2  4  1  0
  4  5  1  0
  5  7  1  0
  5  6  1  6
  7  8  2  0
  9 10  1  0
  9  7  1  0
 10 11  1  1
 12 11  1  0
 13 12  2  0
 14 15  2  0
 14 10  1  0
 16 12  1  0
 17 14  1  0
 18 17  1  0
 18 26  1  0
 18 19  1  6
 20 19  1  0
 21 20  2  0
 22 21  1  0
 23 22  2  0
 23 24  1  0
 24 25  2  0
 25 20  1  0
 26 28  1  0
 27 26  2  0
M  END
$$$$
