NDF.pdb
     RDKit          3D

 28 28  0  0  1  0  0  0  0  0999 V2000
   14.3778  -15.0394  -14.5658 N   0  0  0  0  0  0  0  0  0  0  0  0
   14.6609  -13.7607  -15.0875 C   0  0  0  0  0  0  0  0  0  0  0  0
   14.3560  -13.5332  -16.2825 O   0  0  0  0  0  0  0  0  0  0  0  0
   15.3007  -12.7641  -14.1935 C   0  0  0  0  0  0  0  0  0  0  0  0
   16.4634  -12.0768  -14.8830 C   0  0  2  0  0  0  0  0  0  0  0  0
   17.6206  -12.9419  -14.9468 N   0  0  0  0  0  0  0  0  0  0  0  0
   16.8128  -10.8926  -14.0666 C   0  0  0  0  0  0  0  0  0  0  0  0
   17.4759  -11.0603  -13.0159 O   0  0  0  0  0  0  0  0  0  0  0  0
   16.4334   -9.5743  -14.4152 N   0  0  0  0  0  0  0  0  0  0  0  0
   16.9663   -8.4723  -13.6729 C   0  0  1  0  0  0  0  0  0  0  0  0
   17.1900   -7.3096  -14.6044 C   0  0  0  0  0  0  0  0  0  0  0  0
   17.7629   -6.1780  -13.8536 C   0  0  0  0  0  0  0  0  0  0  0  0
   18.5979   -6.3961  -12.9502 O   0  0  0  0  0  0  0  0  0  0  0  0
   15.9591   -8.0445  -12.6311 C   0  0  0  0  0  0  0  0  0  0  0  0
   14.7479   -8.0493  -12.9405 O   0  0  0  0  0  0  0  0  0  0  0  0
   17.4237   -4.8541  -14.0944 O   0  0  0  0  0  0  0  0  0  0  0  0
   16.3571   -7.6471  -11.3385 N   0  0  0  0  0  0  0  0  0  0  0  0
   15.3723   -7.1636  -10.3679 C   0  0  1  0  0  0  0  0  0  0  0  0
   15.5225   -7.8346   -9.0484 C   0  0  0  0  0  0  0  0  0  0  0  0
   14.5138   -7.4401   -8.0468 C   0  0  0  0  0  0  0  0  0  0  0  0
   14.7741   -6.4728   -7.0951 C   0  0  0  0  0  0  0  0  0  0  0  0
   13.8199   -6.0877   -6.1558 C   0  0  0  0  0  0  0  0  0  0  0  0
   12.5840   -6.7030   -6.1940 C   0  0  0  0  0  0  0  0  0  0  0  0
   12.2889   -7.6711   -7.1282 C   0  0  0  0  0  0  0  0  0  0  0  0
   13.2662   -8.0082   -8.0257 C   0  0  0  0  0  0  0  0  0  0  0  0
   15.3353   -5.6943  -10.3180 C   0  0  0  0  0  0  0  0  0  0  0  0
   16.3560   -5.0316  -10.5649 O   0  0  0  0  0  0  0  0  0  0  0  0
   14.1655   -5.0495   -9.9952 O   0  0  0  0  0  0  0  0  0  0  0  0
  1  2  1  0
  2  3  2  0
  2  4  1  0
  4  5  1  0
  5  7  1  0
  5  6  1  1
  7  8  2  0
  9 10  1  0
  9  7  1  0
 10 11  1  6
 12 11  1  0
 13 12  2  0
 14 15  2  0
 14 10  1  0
 16 12  1  0
 17 14  1  0
 18 17  1  0
 18 26  1  0
 18 19  1  1
 20 19  1  0
 21 20  2  0
 22 21  1  0
 23 22  2  0
 23 24  1  0
 24 25  2  0
 25 20  1  0
 26 28  1  0
 27 26  2  0
M  END
$$$$
