WIE.pdb
     RDKit          3D

 32 33  0  0  1  0  0  0  0  0999 V2000
    6.2975  -17.2423   25.4526 N   0  0  0  0  0  0  0  0  0  0  0  0
    6.9953  -16.1087   24.9119 C   0  0  1  0  0  0  0  0  0  0  0  0
    8.2153  -15.7475   25.7333 C   0  0  0  0  0  0  0  0  0  0  0  0
    7.9189  -14.7218   26.7583 C   0  0  0  0  0  0  0  0  0  0  0  0
    7.7950  -14.8849   28.1320 C   0  0  0  0  0  0  0  0  0  0  0  0
    7.5150  -13.7015   28.7098 N   0  0  0  0  0  0  0  0  0  0  0  0
    7.4478  -12.7478   27.7595 C   0  0  0  0  0  0  0  0  0  0  0  0
    7.1942  -11.3900   27.8284 C   0  0  0  0  0  0  0  0  0  0  0  0
    7.2010  -10.6878   26.6405 C   0  0  0  0  0  0  0  0  0  0  0  0
    7.4498  -11.2978   25.4124 C   0  0  0  0  0  0  0  0  0  0  0  0
    7.6984  -12.6451   25.3696 C   0  0  0  0  0  0  0  0  0  0  0  0
    7.6961  -13.3686   26.5503 C   0  0  0  0  0  0  0  0  0  0  0  0
    7.4885  -16.4311   23.5540 C   0  0  0  0  0  0  0  0  0  0  0  0
    7.5196  -17.6324   23.1980 O   0  0  0  0  0  0  0  0  0  0  0  0
    7.0302  -12.7648   19.6314 C   0  0  0  0  0  0  0  0  0  0  0  0
    6.9722  -14.0643   20.4158 C   0  0  0  0  0  0  0  0  0  0  0  0
    8.3497  -14.6509   20.4335 C   0  0  2  0  0  0  0  0  0  0  0  0
    8.8957  -14.9116   19.0513 C   0  0  0  0  0  0  0  0  0  0  0  0
    8.5073  -15.8444   21.3381 C   0  0  2  0  0  0  0  0  0  0  0  0
    7.9292  -15.4474   22.6307 N   0  0  0  0  0  0  0  0  0  0  0  0
    9.8875  -16.2911   21.5367 C   0  0  0  0  0  0  0  0  0  0  0  0
   10.6878  -15.5610   22.1673 O   0  0  0  0  0  0  0  0  0  0  0  0
   10.3295  -17.5444   21.0214 N   0  0  0  0  0  0  0  0  0  0  0  0
   11.7565  -17.8913   21.2238 C   0  0  1  0  0  0  0  0  0  0  0  0
   11.8306  -19.2325   21.8288 C   0  0  0  0  0  0  0  0  0  0  0  0
   11.0409  -19.5248   23.0501 C   0  0  0  0  0  0  0  0  0  0  0  0
   11.2636  -20.8425   23.6757 C   0  0  0  0  0  0  0  0  0  0  0  0
   10.3146  -21.6352   23.9207 O   0  0  0  0  0  0  0  0  0  0  0  0
   12.5463  -17.5682   20.0561 C   0  0  0  0  0  0  0  0  0  0  0  0
   11.9198  -17.4440   18.9372 O   0  0  0  0  0  0  0  0  0  0  0  0
   12.5440  -21.2483   24.0106 O   0  0  0  0  0  0  0  0  0  0  0  0
   13.9024  -17.3645   19.9702 O   0  0  0  0  0  0  0  0  0  0  0  0
  2  1  1  1
  2  3  1  0
  3  4  1  0
  4  5  2  0
  6  5  1  0
  7  6  1  0
  8  7  2  0
  9  8  1  0
 10  9  2  0
 10 11  1  0
 11 12  2  0
 12  7  1  0
 12  4  1  0
 13 14  2  0
 13  2  1  0
 15 16  1  0
 16 17  1  0
 17 19  1  0
 17 18  1  6
 19 20  1  1
 19 21  1  0
 20 13  1  0
 21 23  1  0
 22 21  2  0
 23 24  1  0
 24 25  1  6
 24 29  1  0
 26 25  1  0
 27 26  1  0
 28 27  2  0
 29 30  2  0
 29 32  1  0
 31 27  1  0
M  END
$$$$
