WIE.pdb
     RDKit          3D

 32 33  0  0  1  0  0  0  0  0999 V2000
    6.0086  -17.4689   25.0997 N   0  0  0  0  0  0  0  0  0  0  0  0
    6.8836  -16.3500   24.8839 C   0  0  1  0  0  0  0  0  0  0  0  0
    8.0201  -16.3159   25.8842 C   0  0  0  0  0  0  0  0  0  0  0  0
    7.8472  -15.2488   26.8951 C   0  0  0  0  0  0  0  0  0  0  0  0
    8.0230  -15.3261   28.2706 C   0  0  0  0  0  0  0  0  0  0  0  0
    7.7598  -14.1316   28.8333 N   0  0  0  0  0  0  0  0  0  0  0  0
    7.4120  -13.2540   27.8710 C   0  0  0  0  0  0  0  0  0  0  0  0
    7.0544  -11.9190   27.9224 C   0  0  0  0  0  0  0  0  0  0  0  0
    6.7531  -11.3020   26.7255 C   0  0  0  0  0  0  0  0  0  0  0  0
    6.7999  -11.9736   25.5052 C   0  0  0  0  0  0  0  0  0  0  0  0
    7.1570  -13.2967   25.4797 C   0  0  0  0  0  0  0  0  0  0  0  0
    7.4633  -13.9351   26.6698 C   0  0  0  0  0  0  0  0  0  0  0  0
    7.5092  -16.4598   23.5469 C   0  0  0  0  0  0  0  0  0  0  0  0
    7.6547  -17.5994   23.0459 O   0  0  0  0  0  0  0  0  0  0  0  0
    7.1260  -12.2790   20.2010 C   0  0  0  0  0  0  0  0  0  0  0  0
    7.0826  -13.7428   20.6041 C   0  0  0  0  0  0  0  0  0  0  0  0
    8.4937  -14.2119   20.7800 C   0  0  2  0  0  0  0  0  0  0  0  0
    9.2847  -14.1913   19.4955 C   0  0  0  0  0  0  0  0  0  0  0  0
    8.6283  -15.5243   21.5061 C   0  0  2  0  0  0  0  0  0  0  0  0
    7.9542  -15.3381   22.7999 N   0  0  0  0  0  0  0  0  0  0  0  0
   10.0055  -15.9669   21.7319 C   0  0  0  0  0  0  0  0  0  0  0  0
   10.7170  -15.3665   22.5713 O   0  0  0  0  0  0  0  0  0  0  0  0
   10.5444  -17.0706   21.0087 N   0  0  0  0  0  0  0  0  0  0  0  0
   11.9268  -17.4872   21.3455 C   0  0  1  0  0  0  0  0  0  0  0  0
   11.9524  -18.9535   21.4854 C   0  0  0  0  0  0  0  0  0  0  0  0
   12.0077  -19.8001   20.2686 C   0  0  0  0  0  0  0  0  0  0  0  0
   11.1971  -21.0329   20.2896 C   0  0  0  0  0  0  0  0  0  0  0  0
   10.6209  -21.4718   19.2579 O   0  0  0  0  0  0  0  0  0  0  0  0
   12.8966  -16.8124   20.5113 C   0  0  0  0  0  0  0  0  0  0  0  0
   14.1340  -16.8979   20.8594 O   0  0  0  0  0  0  0  0  0  0  0  0
   11.0514  -21.7521   21.4634 O   0  0  0  0  0  0  0  0  0  0  0  0
   12.6800  -16.0800   19.3691 O   0  0  0  0  0  0  0  0  0  0  0  0
  2  1  1  1
  2  3  1  0
  3  4  1  0
  4  5  2  0
  6  5  1  0
  7  6  1  0
  8  7  2  0
  9  8  1  0
 10  9  2  0
 10 11  1  0
 11 12  2  0
 12  7  1  0
 12  4  1  0
 13 14  2  0
 13  2  1  0
 15 16  1  0
 16 17  1  0
 17 19  1  0
 17 18  1  6
 19 20  1  1
 19 21  1  0
 20 13  1  0
 21 23  1  0
 22 21  2  0
 23 24  1  0
 24 25  1  6
 24 29  1  0
 26 25  1  0
 27 26  1  0
 28 27  2  0
 29 30  2  0
 29 32  1  0
 31 27  1  0
M  END
$$$$
