WIE.pdb
     RDKit          3D

 32 33  0  0  1  0  0  0  0  0999 V2000
    5.7981  -18.1490   24.4884 N   0  0  0  0  0  0  0  0  0  0  0  0
    6.3367  -16.8245   24.3471 C   0  0  1  0  0  0  0  0  0  0  0  0
    7.0653  -16.3711   25.5948 C   0  0  0  0  0  0  0  0  0  0  0  0
    6.5504  -15.0824   26.1092 C   0  0  0  0  0  0  0  0  0  0  0  0
    5.2435  -14.7432   26.4348 C   0  0  0  0  0  0  0  0  0  0  0  0
    5.1950  -13.4678   26.8633 N   0  0  0  0  0  0  0  0  0  0  0  0
    6.4358  -12.9416   26.8340 C   0  0  0  0  0  0  0  0  0  0  0  0
    6.9173  -11.6894   27.1696 C   0  0  0  0  0  0  0  0  0  0  0  0
    8.2724  -11.4758   27.0203 C   0  0  0  0  0  0  0  0  0  0  0  0
    9.1383  -12.4631   26.5536 C   0  0  0  0  0  0  0  0  0  0  0  0
    8.6374  -13.6966   26.2272 C   0  0  0  0  0  0  0  0  0  0  0  0
    7.2802  -13.9319   26.3695 C   0  0  0  0  0  0  0  0  0  0  0  0
    7.3343  -16.8086   23.2536 C   0  0  0  0  0  0  0  0  0  0  0  0
    7.9643  -17.8627   23.0028 O   0  0  0  0  0  0  0  0  0  0  0  0
    7.2553  -12.5562   19.7741 C   0  0  0  0  0  0  0  0  0  0  0  0
    7.2020  -13.9951   20.2578 C   0  0  0  0  0  0  0  0  0  0  0  0
    8.5750  -14.3748   20.7190 C   0  0  2  0  0  0  0  0  0  0  0  0
    9.6150  -14.2528   19.6327 C   0  0  0  0  0  0  0  0  0  0  0  0
    8.6499  -15.7017   21.4271 C   0  0  2  0  0  0  0  0  0  0  0  0
    7.6155  -15.6582   22.4715 N   0  0  0  0  0  0  0  0  0  0  0  0
    9.9466  -16.0047   22.0360 C   0  0  0  0  0  0  0  0  0  0  0  0
   10.3441  -15.3255   23.0116 O   0  0  0  0  0  0  0  0  0  0  0  0
   10.7597  -17.0612   21.5318 N   0  0  0  0  0  0  0  0  0  0  0  0
   12.1059  -17.2211   22.1317 C   0  0  1  0  0  0  0  0  0  0  0  0
   12.3061  -18.6435   22.4592 C   0  0  0  0  0  0  0  0  0  0  0  0
   11.1778  -19.4276   23.0182 C   0  0  0  0  0  0  0  0  0  0  0  0
   11.3954  -20.8800   23.1614 C   0  0  0  0  0  0  0  0  0  0  0  0
   11.4690  -21.4370   24.2898 O   0  0  0  0  0  0  0  0  0  0  0  0
   13.1051  -16.4930   21.3813 C   0  0  0  0  0  0  0  0  0  0  0  0
   12.7778  -16.0884   20.2028 O   0  0  0  0  0  0  0  0  0  0  0  0
   11.5219  -21.6804   22.0390 O   0  0  0  0  0  0  0  0  0  0  0  0
   14.3832  -16.1587   21.7589 O   0  0  0  0  0  0  0  0  0  0  0  0
  2  1  1  1
  2  3  1  0
  3  4  1  0
  4  5  2  0
  6  5  1  0
  7  6  1  0
  8  7  2  0
  9  8  1  0
 10  9  2  0
 10 11  1  0
 11 12  2  0
 12  7  1  0
 12  4  1  0
 13 14  2  0
 13  2  1  0
 15 16  1  0
 16 17  1  0
 17 19  1  0
 17 18  1  6
 19 20  1  1
 19 21  1  0
 20 13  1  0
 21 23  1  0
 22 21  2  0
 23 24  1  0
 24 25  1  6
 24 29  1  0
 26 25  1  0
 27 26  1  0
 28 27  2  0
 29 30  2  0
 29 32  1  0
 31 27  1  0
M  END
$$$$
