WIE.pdb
     RDKit          3D

 32 33  0  0  1  0  0  0  0  0999 V2000
    5.8116  -18.4255   24.5076 N   0  0  0  0  0  0  0  0  0  0  0  0
    6.3291  -17.0876   24.4273 C   0  0  1  0  0  0  0  0  0  0  0  0
    7.0760  -16.6907   25.6834 C   0  0  0  0  0  0  0  0  0  0  0  0
    6.7019  -15.3390   26.1562 C   0  0  0  0  0  0  0  0  0  0  0  0
    5.4360  -14.7740   26.2416 C   0  0  0  0  0  0  0  0  0  0  0  0
    5.5266  -13.5186   26.7193 N   0  0  0  0  0  0  0  0  0  0  0  0
    6.8208  -13.2258   26.9571 C   0  0  0  0  0  0  0  0  0  0  0  0
    7.4368  -12.0876   27.4445 C   0  0  0  0  0  0  0  0  0  0  0  0
    8.8106  -12.1208   27.5702 C   0  0  0  0  0  0  0  0  0  0  0  0
    9.5662  -13.2406   27.2276 C   0  0  0  0  0  0  0  0  0  0  0  0
    8.9329  -14.3569   26.7464 C   0  0  0  0  0  0  0  0  0  0  0  0
    7.5547  -14.3446   26.6123 C   0  0  0  0  0  0  0  0  0  0  0  0
    7.3045  -16.9987   23.3174 C   0  0  0  0  0  0  0  0  0  0  0  0
    7.9318  -18.0324   22.9876 O   0  0  0  0  0  0  0  0  0  0  0  0
    6.8156  -12.8514   19.8459 C   0  0  0  0  0  0  0  0  0  0  0  0
    6.9588  -14.2970   20.2900 C   0  0  0  0  0  0  0  0  0  0  0  0
    8.3572  -14.4861   20.7911 C   0  0  2  0  0  0  0  0  0  0  0  0
    9.3996  -14.2627   19.7235 C   0  0  0  0  0  0  0  0  0  0  0  0
    8.5820  -15.7727   21.5406 C   0  0  2  0  0  0  0  0  0  0  0  0
    7.5673  -15.7999   22.6047 N   0  0  0  0  0  0  0  0  0  0  0  0
    9.9137  -15.9188   22.1315 C   0  0  0  0  0  0  0  0  0  0  0  0
   10.2075  -15.2655   23.1601 O   0  0  0  0  0  0  0  0  0  0  0  0
   10.8771  -16.7939   21.5505 N   0  0  0  0  0  0  0  0  0  0  0  0
   12.1548  -16.9708   22.2812 C   0  0  1  0  0  0  0  0  0  0  0  0
   12.2608  -18.3781   22.7040 C   0  0  0  0  0  0  0  0  0  0  0  0
   13.4890  -18.8397   23.3959 C   0  0  0  0  0  0  0  0  0  0  0  0
   13.5815  -20.2860   23.6736 C   0  0  0  0  0  0  0  0  0  0  0  0
   13.2898  -21.1532   22.8064 O   0  0  0  0  0  0  0  0  0  0  0  0
   13.2495  -16.3281   21.5883 C   0  0  0  0  0  0  0  0  0  0  0  0
   13.0917  -16.0880   20.3324 O   0  0  0  0  0  0  0  0  0  0  0  0
   14.0025  -20.7327   24.9143 O   0  0  0  0  0  0  0  0  0  0  0  0
   14.4611  -15.9223   22.0935 O   0  0  0  0  0  0  0  0  0  0  0  0
  2  1  1  1
  2  3  1  0
  3  4  1  0
  4  5  2  0
  6  5  1  0
  7  6  1  0
  8  7  2  0
  9  8  1  0
 10  9  2  0
 10 11  1  0
 11 12  2  0
 12  7  1  0
 12  4  1  0
 13 14  2  0
 13  2  1  0
 15 16  1  0
 16 17  1  0
 17 19  1  0
 17 18  1  6
 19 20  1  1
 19 21  1  0
 20 13  1  0
 21 23  1  0
 22 21  2  0
 23 24  1  0
 24 25  1  6
 24 29  1  0
 26 25  1  0
 27 26  1  0
 28 27  2  0
 29 30  2  0
 29 32  1  0
 31 27  1  0
M  END
$$$$
