WIE.pdb
     RDKit          3D

 32 33  0  0  1  0  0  0  0  0999 V2000
    6.4416  -16.8400   25.6552 N   0  0  0  0  0  0  0  0  0  0  0  0
    7.0006  -15.7992   24.8375 C   0  0  1  0  0  0  0  0  0  0  0  0
    8.3364  -15.3181   25.3643 C   0  0  0  0  0  0  0  0  0  0  0  0
    8.1913  -14.4466   26.5516 C   0  0  0  0  0  0  0  0  0  0  0  0
    8.6286  -14.6763   27.8497 C   0  0  0  0  0  0  0  0  0  0  0  0
    8.2932  -13.6363   28.6362 N   0  0  0  0  0  0  0  0  0  0  0  0
    7.6422  -12.7139   27.8998 C   0  0  0  0  0  0  0  0  0  0  0  0
    7.0989  -11.4849   28.2269 C   0  0  0  0  0  0  0  0  0  0  0  0
    6.4896  -10.7762   27.2116 C   0  0  0  0  0  0  0  0  0  0  0  0
    6.4126  -11.2568   25.9057 C   0  0  0  0  0  0  0  0  0  0  0  0
    6.9585  -12.4779   25.6059 C   0  0  0  0  0  0  0  0  0  0  0  0
    7.5744  -13.2055   26.6102 C   0  0  0  0  0  0  0  0  0  0  0  0
    7.2537  -16.3204   23.4753 C   0  0  0  0  0  0  0  0  0  0  0  0
    6.6836  -17.3799   23.1244 O   0  0  0  0  0  0  0  0  0  0  0  0
    8.2488  -12.3681   20.2528 C   0  0  0  0  0  0  0  0  0  0  0  0
    7.5236  -13.6307   20.6855 C   0  0  0  0  0  0  0  0  0  0  0  0
    8.4011  -14.7988   20.3569 C   0  0  2  0  0  0  0  0  0  0  0  0
    8.5139  -15.0507   18.8736 C   0  0  0  0  0  0  0  0  0  0  0  0
    8.0779  -16.0555   21.1210 C   0  0  2  0  0  0  0  0  0  0  0  0
    8.1110  -15.6805   22.5427 N   0  0  0  0  0  0  0  0  0  0  0  0
    8.9953  -17.1727   20.8890 C   0  0  0  0  0  0  0  0  0  0  0  0
    9.0620  -17.6901   19.7491 O   0  0  0  0  0  0  0  0  0  0  0  0
    9.8112  -17.6772   21.9432 N   0  0  0  0  0  0  0  0  0  0  0  0
   11.1887  -18.0954   21.5888 C   0  0  1  0  0  0  0  0  0  0  0  0
   11.4609  -17.6811   20.2015 C   0  0  0  0  0  0  0  0  0  0  0  0
   12.6578  -16.8546   19.9102 C   0  0  0  0  0  0  0  0  0  0  0  0
   13.6638  -17.4510   19.0104 C   0  0  0  0  0  0  0  0  0  0  0  0
   13.5597  -17.3876   17.7557 O   0  0  0  0  0  0  0  0  0  0  0  0
   12.1225  -17.7775   22.6465 C   0  0  0  0  0  0  0  0  0  0  0  0
   11.7766  -16.8592   23.4813 O   0  0  0  0  0  0  0  0  0  0  0  0
   14.7681  -18.1022   19.5327 O   0  0  0  0  0  0  0  0  0  0  0  0
   13.3537  -18.3340   22.8963 O   0  0  0  0  0  0  0  0  0  0  0  0
  2  1  1  1
  2  3  1  0
  3  4  1  0
  4  5  2  0
  6  5  1  0
  7  6  1  0
  8  7  2  0
  9  8  1  0
 10  9  2  0
 10 11  1  0
 11 12  2  0
 12  7  1  0
 12  4  1  0
 13 14  2  0
 13  2  1  0
 15 16  1  0
 16 17  1  0
 17 19  1  0
 17 18  1  6
 19 20  1  1
 19 21  1  0
 20 13  1  0
 21 23  1  0
 22 21  2  0
 23 24  1  0
 24 25  1  6
 24 29  1  0
 26 25  1  0
 27 26  1  0
 28 27  2  0
 29 30  2  0
 29 32  1  0
 31 27  1  0
M  END
$$$$
