WIE.pdb
     RDKit          3D

 32 33  0  0  1  0  0  0  0  0999 V2000
    5.4582  -18.1920   23.2098 N   0  0  0  0  0  0  0  0  0  0  0  0
    6.2542  -18.0685   24.3995 C   0  0  1  0  0  0  0  0  0  0  0  0
    7.2523  -19.1992   24.5357 C   0  0  0  0  0  0  0  0  0  0  0  0
    6.5947  -20.5039   24.7718 C   0  0  0  0  0  0  0  0  0  0  0  0
    6.2494  -21.4772   23.8431 C   0  0  0  0  0  0  0  0  0  0  0  0
    5.6624  -22.5163   24.4661 N   0  0  0  0  0  0  0  0  0  0  0  0
    5.6047  -22.2661   25.7895 C   0  0  0  0  0  0  0  0  0  0  0  0
    5.1067  -23.0025   26.8489 C   0  0  0  0  0  0  0  0  0  0  0  0
    5.2090  -22.4437   28.1065 C   0  0  0  0  0  0  0  0  0  0  0  0
    5.7848  -21.1935   28.3248 C   0  0  0  0  0  0  0  0  0  0  0  0
    6.2713  -20.4824   27.2588 C   0  0  0  0  0  0  0  0  0  0  0  0
    6.1785  -21.0249   25.9881 C   0  0  0  0  0  0  0  0  0  0  0  0
    7.0461  -16.8193   24.3392 C   0  0  0  0  0  0  0  0  0  0  0  0
    7.5447  -16.4792   23.2408 O   0  0  0  0  0  0  0  0  0  0  0  0
    5.5743  -12.2674   26.4553 C   0  0  0  0  0  0  0  0  0  0  0  0
    6.2039  -13.2760   25.5101 C   0  0  0  0  0  0  0  0  0  0  0  0
    7.5082  -13.7093   26.1046 C   0  0  2  0  0  0  0  0  0  0  0  0
    8.4473  -12.5575   26.3648 C   0  0  0  0  0  0  0  0  0  0  0  0
    8.1849  -14.8356   25.3689 C   0  0  2  0  0  0  0  0  0  0  0  0
    7.2707  -15.9836   25.4642 N   0  0  0  0  0  0  0  0  0  0  0  0
    9.4994  -15.2131   25.8917 C   0  0  0  0  0  0  0  0  0  0  0  0
   10.4356  -14.3798   25.8682 O   0  0  0  0  0  0  0  0  0  0  0  0
    9.7253  -16.5153   26.4253 N   0  0  0  0  0  0  0  0  0  0  0  0
   10.9779  -16.7226   27.1907 C   0  0  1  0  0  0  0  0  0  0  0  0
   12.1074  -16.7343   26.2449 C   0  0  0  0  0  0  0  0  0  0  0  0
   11.8619  -17.0741   24.8220 C   0  0  0  0  0  0  0  0  0  0  0  0
   12.9932  -16.8760   23.8955 C   0  0  0  0  0  0  0  0  0  0  0  0
   13.7522  -17.8231   23.5552 O   0  0  0  0  0  0  0  0  0  0  0  0
   11.0169  -15.8867   28.3704 C   0  0  0  0  0  0  0  0  0  0  0  0
   10.0573  -15.0412   28.5252 O   0  0  0  0  0  0  0  0  0  0  0  0
   13.2495  -15.6233   23.3653 O   0  0  0  0  0  0  0  0  0  0  0  0
   11.9524  -15.8705   29.3766 O   0  0  0  0  0  0  0  0  0  0  0  0
  2  1  1  6
  2  3  1  0
  3  4  1  0
  4  5  2  0
  6  5  1  0
  7  6  1  0
  8  7  2  0
  9  8  1  0
 10  9  2  0
 10 11  1  0
 11 12  2  0
 12  7  1  0
 12  4  1  0
 13 14  2  0
 13  2  1  0
 15 16  1  0
 16 17  1  0
 17 19  1  0
 17 18  1  6
 19 20  1  1
 19 21  1  0
 20 13  1  0
 21 23  1  0
 22 21  2  0
 23 24  1  0
 24 25  1  6
 24 29  1  0
 26 25  1  0
 27 26  1  0
 28 27  2  0
 29 30  2  0
 29 32  1  0
 31 27  1  0
M  END
$$$$
