WIE.pdb
     RDKit          3D

 32 33  0  0  1  0  0  0  0  0999 V2000
    6.2759  -17.5704   24.9912 N   0  0  0  0  0  0  0  0  0  0  0  0
    6.9233  -16.3057   24.7772 C   0  0  1  0  0  0  0  0  0  0  0  0
    8.0333  -16.0589   25.7774 C   0  0  0  0  0  0  0  0  0  0  0  0
    7.6315  -15.1105   26.8402 C   0  0  0  0  0  0  0  0  0  0  0  0
    7.4197  -15.3648   28.1891 C   0  0  0  0  0  0  0  0  0  0  0  0
    7.0591  -14.2301   28.8175 N   0  0  0  0  0  0  0  0  0  0  0  0
    7.0234  -13.2201   27.9254 C   0  0  0  0  0  0  0  0  0  0  0  0
    6.7179  -11.8780   28.0598 C   0  0  0  0  0  0  0  0  0  0  0  0
    6.7811  -11.1014   26.9209 C   0  0  0  0  0  0  0  0  0  0  0  0
    7.1348  -11.6237   25.6781 C   0  0  0  0  0  0  0  0  0  0  0  0
    7.4332  -12.9572   25.5700 C   0  0  0  0  0  0  0  0  0  0  0  0
    7.3757  -13.7544   26.7007 C   0  0  0  0  0  0  0  0  0  0  0  0
    7.5577  -16.2930   23.4398 C   0  0  0  0  0  0  0  0  0  0  0  0
    7.7120  -17.3827   22.8402 O   0  0  0  0  0  0  0  0  0  0  0  0
    6.3384  -14.3821   19.8940 C   0  0  0  0  0  0  0  0  0  0  0  0
    7.0721  -13.3538   20.7376 C   0  0  0  0  0  0  0  0  0  0  0  0
    8.4935  -13.8040   20.8755 C   0  0  2  0  0  0  0  0  0  0  0  0
    9.2846  -13.6530   19.5997 C   0  0  0  0  0  0  0  0  0  0  0  0
    8.6579  -15.1715   21.4843 C   0  0  2  0  0  0  0  0  0  0  0  0
    8.0016  -15.1071   22.7988 N   0  0  0  0  0  0  0  0  0  0  0  0
   10.0446  -15.6107   21.6514 C   0  0  0  0  0  0  0  0  0  0  0  0
   10.8192  -14.9457   22.3787 O   0  0  0  0  0  0  0  0  0  0  0  0
   10.5218  -16.7836   20.9972 N   0  0  0  0  0  0  0  0  0  0  0  0
   11.9038  -17.2172   21.3132 C   0  0  1  0  0  0  0  0  0  0  0  0
   11.8910  -18.6671   21.5741 C   0  0  0  0  0  0  0  0  0  0  0  0
   13.1763  -19.3863   21.7507 C   0  0  0  0  0  0  0  0  0  0  0  0
   13.0935  -20.8527   21.8923 C   0  0  0  0  0  0  0  0  0  0  0  0
   12.0021  -21.4421   22.1170 O   0  0  0  0  0  0  0  0  0  0  0  0
   12.8578  -16.6462   20.3882 C   0  0  0  0  0  0  0  0  0  0  0  0
   14.0192  -16.3401   20.8541 O   0  0  0  0  0  0  0  0  0  0  0  0
   14.2328  -21.6303   21.7753 O   0  0  0  0  0  0  0  0  0  0  0  0
   12.6986  -16.3829   19.0491 O   0  0  0  0  0  0  0  0  0  0  0  0
  2  1  1  1
  2  3  1  0
  3  4  1  0
  4  5  2  0
  6  5  1  0
  7  6  1  0
  8  7  2  0
  9  8  1  0
 10  9  2  0
 10 11  1  0
 11 12  2  0
 12  7  1  0
 12  4  1  0
 13 14  2  0
 13  2  1  0
 15 16  1  0
 16 17  1  0
 17 19  1  0
 17 18  1  6
 19 20  1  1
 19 21  1  0
 20 13  1  0
 21 23  1  0
 22 21  2  0
 23 24  1  0
 24 25  1  6
 24 29  1  0
 26 25  1  0
 27 26  1  0
 28 27  2  0
 29 30  2  0
 29 32  1  0
 31 27  1  0
M  END
$$$$
