WIE.pdb
     RDKit          3D

 32 33  0  0  1  0  0  0  0  0999 V2000
    5.9425  -18.0049   24.3737 N   0  0  0  0  0  0  0  0  0  0  0  0
    6.5308  -16.7034   24.2183 C   0  0  1  0  0  0  0  0  0  0  0  0
    7.2625  -16.2575   25.4670 C   0  0  0  0  0  0  0  0  0  0  0  0
    6.6186  -15.0895   26.1086 C   0  0  0  0  0  0  0  0  0  0  0  0
    5.3896  -15.0269   26.7525 C   0  0  0  0  0  0  0  0  0  0  0  0
    5.1682  -13.7748   27.1950 N   0  0  0  0  0  0  0  0  0  0  0  0
    6.2170  -12.9948   26.8651 C   0  0  0  0  0  0  0  0  0  0  0  0
    6.4785  -11.6548   27.0859 C   0  0  0  0  0  0  0  0  0  0  0  0
    7.6746  -11.1603   26.6076 C   0  0  0  0  0  0  0  0  0  0  0  0
    8.5952  -11.9564   25.9287 C   0  0  0  0  0  0  0  0  0  0  0  0
    8.3136  -13.2819   25.7218 C   0  0  0  0  0  0  0  0  0  0  0  0
    7.1185  -13.7984   26.1937 C   0  0  0  0  0  0  0  0  0  0  0  0
    7.5397  -16.7409   23.1358 C   0  0  0  0  0  0  0  0  0  0  0  0
    7.8345  -17.8493   22.6305 O   0  0  0  0  0  0  0  0  0  0  0  0
    7.2959  -12.3246   20.1063 C   0  0  0  0  0  0  0  0  0  0  0  0
    7.2872  -13.7999   20.4676 C   0  0  0  0  0  0  0  0  0  0  0  0
    8.6963  -14.2060   20.7704 C   0  0  2  0  0  0  0  0  0  0  0  0
    9.6422  -13.9474   19.6238 C   0  0  0  0  0  0  0  0  0  0  0  0
    8.8389  -15.6018   21.3173 C   0  0  2  0  0  0  0  0  0  0  0  0
    8.1927  -15.5832   22.6383 N   0  0  0  0  0  0  0  0  0  0  0  0
   10.2181  -16.0736   21.4546 C   0  0  0  0  0  0  0  0  0  0  0  0
   10.9237  -16.2246   20.4297 O   0  0  0  0  0  0  0  0  0  0  0  0
   10.7654  -16.3626   22.7386 N   0  0  0  0  0  0  0  0  0  0  0  0
   12.0803  -17.0463   22.7728 C   0  0  1  0  0  0  0  0  0  0  0  0
   11.9005  -18.4300   22.2999 C   0  0  0  0  0  0  0  0  0  0  0  0
   13.0932  -19.2817   22.0707 C   0  0  0  0  0  0  0  0  0  0  0  0
   12.8354  -20.6708   21.6448 C   0  0  0  0  0  0  0  0  0  0  0  0
   13.7335  -21.3896   21.1293 O   0  0  0  0  0  0  0  0  0  0  0  0
   13.1216  -16.2103   22.2175 C   0  0  0  0  0  0  0  0  0  0  0  0
   12.8699  -15.6198   21.1005 O   0  0  0  0  0  0  0  0  0  0  0  0
   11.5792  -21.2289   21.8084 O   0  0  0  0  0  0  0  0  0  0  0  0
   14.3695  -15.9458   22.7280 O   0  0  0  0  0  0  0  0  0  0  0  0
  2  1  1  1
  2  3  1  0
  3  4  1  0
  4  5  2  0
  6  5  1  0
  7  6  1  0
  8  7  2  0
  9  8  1  0
 10  9  2  0
 10 11  1  0
 11 12  2  0
 12  7  1  0
 12  4  1  0
 13 14  2  0
 13  2  1  0
 15 16  1  0
 16 17  1  0
 17 19  1  0
 17 18  1  6
 19 20  1  1
 19 21  1  0
 20 13  1  0
 21 23  1  0
 22 21  2  0
 23 24  1  0
 24 25  1  6
 24 29  1  0
 26 25  1  0
 27 26  1  0
 28 27  2  0
 29 30  2  0
 29 32  1  0
 31 27  1  0
M  END
$$$$
