WIE.pdb
     RDKit          3D

 32 33  0  0  1  0  0  0  0  0999 V2000
    6.0179  -18.0971   24.8280 N   0  0  0  0  0  0  0  0  0  0  0  0
    6.4977  -16.7736   24.5411 C   0  0  1  0  0  0  0  0  0  0  0  0
    7.2440  -16.1728   25.7139 C   0  0  0  0  0  0  0  0  0  0  0  0
    6.5812  -14.9581   26.2389 C   0  0  0  0  0  0  0  0  0  0  0  0
    5.2780  -14.8156   26.6976 C   0  0  0  0  0  0  0  0  0  0  0  0
    5.0660  -13.5439   27.0853 N   0  0  0  0  0  0  0  0  0  0  0  0
    6.1933  -12.8286   26.8991 C   0  0  0  0  0  0  0  0  0  0  0  0
    6.4950  -11.4998   27.1360 C   0  0  0  0  0  0  0  0  0  0  0  0
    7.7732  -11.0806   26.8283 C   0  0  0  0  0  0  0  0  0  0  0  0
    8.7356  -11.9398   26.3010 C   0  0  0  0  0  0  0  0  0  0  0  0
    8.4127  -13.2526   26.0749 C   0  0  0  0  0  0  0  0  0  0  0  0
    7.1353  -13.6939   26.3766 C   0  0  0  0  0  0  0  0  0  0  0  0
    7.4611  -16.8276   23.4184 C   0  0  0  0  0  0  0  0  0  0  0  0
    8.1494  -17.8643   23.2697 O   0  0  0  0  0  0  0  0  0  0  0  0
    8.3396  -12.3679   19.9329 C   0  0  0  0  0  0  0  0  0  0  0  0
    8.6693  -13.3961   21.0013 C   0  0  0  0  0  0  0  0  0  0  0  0
    8.3199  -14.7478   20.4600 C   0  0  2  0  0  0  0  0  0  0  0  0
    6.9181  -14.8152   19.9062 C   0  0  0  0  0  0  0  0  0  0  0  0
    8.6131  -15.8893   21.3973 C   0  0  2  0  0  0  0  0  0  0  0  0
    7.6463  -15.7630   22.4984 N   0  0  0  0  0  0  0  0  0  0  0  0
    9.9726  -15.9090   21.9407 C   0  0  0  0  0  0  0  0  0  0  0  0
   10.2288  -15.2664   22.9859 O   0  0  0  0  0  0  0  0  0  0  0  0
   11.0052  -16.6493   21.2948 N   0  0  0  0  0  0  0  0  0  0  0  0
   12.3493  -16.6179   21.9195 C   0  0  1  0  0  0  0  0  0  0  0  0
   12.6533  -17.9610   22.4428 C   0  0  0  0  0  0  0  0  0  0  0  0
   14.0251  -18.2632   22.9197 C   0  0  0  0  0  0  0  0  0  0  0  0
   14.2962  -19.6648   23.2929 C   0  0  0  0  0  0  0  0  0  0  0  0
   14.1131  -20.0920   24.4647 O   0  0  0  0  0  0  0  0  0  0  0  0
   13.3019  -15.9237   21.0813 C   0  0  0  0  0  0  0  0  0  0  0  0
   12.9790  -15.7435   19.8473 O   0  0  0  0  0  0  0  0  0  0  0  0
   14.7623  -20.5610   22.3465 O   0  0  0  0  0  0  0  0  0  0  0  0
   14.5298  -15.4119   21.4249 O   0  0  0  0  0  0  0  0  0  0  0  0
  2  1  1  1
  2  3  1  0
  3  4  1  0
  4  5  2  0
  6  5  1  0
  7  6  1  0
  8  7  2  0
  9  8  1  0
 10  9  2  0
 10 11  1  0
 11 12  2  0
 12  7  1  0
 12  4  1  0
 13 14  2  0
 13  2  1  0
 15 16  1  0
 16 17  1  0
 17 19  1  0
 17 18  1  1
 19 20  1  1
 19 21  1  0
 20 13  1  0
 21 23  1  0
 22 21  2  0
 23 24  1  0
 24 25  1  6
 24 29  1  0
 26 25  1  0
 27 26  1  0
 28 27  2  0
 29 30  2  0
 29 32  1  0
 31 27  1  0
M  END
$$$$
