WIE.pdb
     RDKit          3D

 32 33  0  0  1  0  0  0  0  0999 V2000
    6.6607  -17.4020   23.2425 N   0  0  0  0  0  0  0  0  0  0  0  0
    7.5019  -16.3454   22.7520 C   0  0  1  0  0  0  0  0  0  0  0  0
    6.7038  -15.2527   22.0719 C   0  0  0  0  0  0  0  0  0  0  0  0
    7.0074  -15.1516   20.6269 C   0  0  0  0  0  0  0  0  0  0  0  0
    6.8613  -16.1222   19.6441 C   0  0  0  0  0  0  0  0  0  0  0  0
    7.2554  -15.6312   18.4541 N   0  0  0  0  0  0  0  0  0  0  0  0
    7.6622  -14.3558   18.6122 C   0  0  0  0  0  0  0  0  0  0  0  0
    8.1505  -13.4230   17.7154 C   0  0  0  0  0  0  0  0  0  0  0  0
    8.4792  -12.1802   18.2170 C   0  0  0  0  0  0  0  0  0  0  0  0
    8.3343  -11.8553   19.5645 C   0  0  0  0  0  0  0  0  0  0  0  0
    7.8484  -12.7967   20.4342 C   0  0  0  0  0  0  0  0  0  0  0  0
    7.5125  -14.0504   19.9515 C   0  0  0  0  0  0  0  0  0  0  0  0
    8.2042  -15.7035   23.8859 C   0  0  0  0  0  0  0  0  0  0  0  0
    9.2358  -15.0325   23.6484 O   0  0  0  0  0  0  0  0  0  0  0  0
    6.5336  -12.2417   26.6970 C   0  0  0  0  0  0  0  0  0  0  0  0
    7.4367  -13.2075   25.9493 C   0  0  0  0  0  0  0  0  0  0  0  0
    7.9937  -14.1779   26.9445 C   0  0  2  0  0  0  0  0  0  0  0  0
    8.8728  -13.5198   27.9791 C   0  0  0  0  0  0  0  0  0  0  0  0
    8.6478  -15.3894   26.3347 C   0  0  2  0  0  0  0  0  0  0  0  0
    7.7688  -15.8082   25.2326 N   0  0  0  0  0  0  0  0  0  0  0  0
    8.8478  -16.5117   27.2536 C   0  0  0  0  0  0  0  0  0  0  0  0
    8.0165  -17.4497   27.2724 O   0  0  0  0  0  0  0  0  0  0  0  0
    9.9751  -16.5486   28.1250 N   0  0  0  0  0  0  0  0  0  0  0  0
   10.8244  -17.7628   28.0781 C   0  0  1  0  0  0  0  0  0  0  0  0
   11.2173  -18.0050   26.6790 C   0  0  0  0  0  0  0  0  0  0  0  0
   12.0160  -19.2096   26.3453 C   0  0  0  0  0  0  0  0  0  0  0  0
   12.3738  -19.3869   24.9248 C   0  0  0  0  0  0  0  0  0  0  0  0
   13.4048  -18.8618   24.4245 O   0  0  0  0  0  0  0  0  0  0  0  0
   11.8190  -17.7489   29.1280 C   0  0  0  0  0  0  0  0  0  0  0  0
   12.5163  -18.8195   29.2929 O   0  0  0  0  0  0  0  0  0  0  0  0
   11.5731  -20.1517   24.0940 O   0  0  0  0  0  0  0  0  0  0  0  0
   12.1371  -16.7285   29.9915 O   0  0  0  0  0  0  0  0  0  0  0  0
  2  1  1  1
  2  3  1  0
  3  4  1  0
  4  5  2  0
  6  5  1  0
  7  6  1  0
  8  7  2  0
  9  8  1  0
 10  9  2  0
 10 11  1  0
 11 12  2  0
 12  7  1  0
 12  4  1  0
 13 14  2  0
 13  2  1  0
 15 16  1  0
 16 17  1  0
 17 19  1  0
 17 18  1  6
 19 20  1  6
 19 21  1  0
 20 13  1  0
 21 23  1  0
 22 21  2  0
 23 24  1  0
 24 25  1  6
 24 29  1  0
 26 25  1  0
 27 26  1  0
 28 27  2  0
 29 30  2  0
 29 32  1  0
 31 27  1  0
M  END
$$$$
