WIE.pdb
     RDKit          3D

 32 33  0  0  1  0  0  0  0  0999 V2000
    6.3258  -17.2753   25.3940 N   0  0  0  0  0  0  0  0  0  0  0  0
    7.0463  -16.1085   24.9651 C   0  0  1  0  0  0  0  0  0  0  0  0
    8.2264  -15.8066   25.8649 C   0  0  0  0  0  0  0  0  0  0  0  0
    7.9146  -14.7663   26.8705 C   0  0  0  0  0  0  0  0  0  0  0  0
    8.0836  -14.8192   28.2480 C   0  0  0  0  0  0  0  0  0  0  0  0
    7.6716  -13.6644   28.8041 N   0  0  0  0  0  0  0  0  0  0  0  0
    7.2304  -12.8371   27.8355 C   0  0  0  0  0  0  0  0  0  0  0  0
    6.7131  -11.5552   27.8790 C   0  0  0  0  0  0  0  0  0  0  0  0
    6.3522  -10.9816   26.6770 C   0  0  0  0  0  0  0  0  0  0  0  0
    6.4932  -11.6448   25.4594 C   0  0  0  0  0  0  0  0  0  0  0  0
    7.0083  -12.9150   25.4418 C   0  0  0  0  0  0  0  0  0  0  0  0
    7.3767  -13.5092   26.6371 C   0  0  0  0  0  0  0  0  0  0  0  0
    7.6022  -16.3380   23.6125 C   0  0  0  0  0  0  0  0  0  0  0  0
    7.7265  -17.5180   23.2088 O   0  0  0  0  0  0  0  0  0  0  0  0
    7.3282  -12.3213   19.9936 C   0  0  0  0  0  0  0  0  0  0  0  0
    7.1914  -13.7465   20.5011 C   0  0  0  0  0  0  0  0  0  0  0  0
    8.5691  -14.3120   20.6564 C   0  0  2  0  0  0  0  0  0  0  0  0
    9.3106  -14.4223   19.3471 C   0  0  0  0  0  0  0  0  0  0  0  0
    8.6326  -15.5893   21.4515 C   0  0  2  0  0  0  0  0  0  0  0  0
    8.0030  -15.2879   22.7460 N   0  0  0  0  0  0  0  0  0  0  0  0
    9.9820  -16.1119   21.6744 C   0  0  0  0  0  0  0  0  0  0  0  0
   10.7338  -15.5465   22.5028 O   0  0  0  0  0  0  0  0  0  0  0  0
   10.4487  -17.2539   20.9606 N   0  0  0  0  0  0  0  0  0  0  0  0
   11.8108  -17.7414   21.2845 C   0  0  1  0  0  0  0  0  0  0  0  0
   11.8428  -19.2018   21.0927 C   0  0  0  0  0  0  0  0  0  0  0  0
   13.1233  -19.9307   21.2644 C   0  0  0  0  0  0  0  0  0  0  0  0
   13.0884  -21.3852   21.0184 C   0  0  0  0  0  0  0  0  0  0  0  0
   13.2198  -22.2241   21.9501 O   0  0  0  0  0  0  0  0  0  0  0  0
   12.8252  -16.9004   20.6884 C   0  0  0  0  0  0  0  0  0  0  0  0
   12.5459  -16.3533   19.5560 O   0  0  0  0  0  0  0  0  0  0  0  0
   12.9028  -21.8715   19.7357 O   0  0  0  0  0  0  0  0  0  0  0  0
   14.0728  -16.5904   21.1736 O   0  0  0  0  0  0  0  0  0  0  0  0
  2  1  1  1
  2  3  1  0
  3  4  1  0
  4  5  2  0
  6  5  1  0
  7  6  1  0
  8  7  2  0
  9  8  1  0
 10  9  2  0
 10 11  1  0
 11 12  2  0
 12  7  1  0
 12  4  1  0
 13 14  2  0
 13  2  1  0
 15 16  1  0
 16 17  1  0
 17 19  1  0
 17 18  1  6
 19 20  1  1
 19 21  1  0
 20 13  1  0
 21 23  1  0
 22 21  2  0
 23 24  1  0
 24 25  1  6
 24 29  1  0
 26 25  1  0
 27 26  1  0
 28 27  2  0
 29 30  2  0
 29 32  1  0
 31 27  1  0
M  END
$$$$
