WIE.pdb
     RDKit          3D

 32 33  0  0  1  0  0  0  0  0999 V2000
    6.4704  -15.7058   22.1725 N   0  0  0  0  0  0  0  0  0  0  0  0
    7.6695  -16.4177   22.5187 C   0  0  1  0  0  0  0  0  0  0  0  0
    8.6466  -16.4808   21.3634 C   0  0  0  0  0  0  0  0  0  0  0  0
    8.1002  -15.8696   20.1312 C   0  0  0  0  0  0  0  0  0  0  0  0
    7.6153  -16.5040   18.9948 C   0  0  0  0  0  0  0  0  0  0  0  0
    7.2144  -15.5866   18.0946 N   0  0  0  0  0  0  0  0  0  0  0  0
    7.4174  -14.3524   18.5973 C   0  0  0  0  0  0  0  0  0  0  0  0
    7.1769  -13.0924   18.0804 C   0  0  0  0  0  0  0  0  0  0  0  0
    7.5064  -12.0132   18.8748 C   0  0  0  0  0  0  0  0  0  0  0  0
    8.0584  -12.1611   20.1459 C   0  0  0  0  0  0  0  0  0  0  0  0
    8.2877  -13.4203   20.6366 C   0  0  0  0  0  0  0  0  0  0  0  0
    7.9643  -14.5170   19.8555 C   0  0  0  0  0  0  0  0  0  0  0  0
    8.3673  -15.7103   23.6158 C   0  0  0  0  0  0  0  0  0  0  0  0
    9.4974  -15.2188   23.3877 O   0  0  0  0  0  0  0  0  0  0  0  0
    6.2572  -12.1947   26.5822 C   0  0  0  0  0  0  0  0  0  0  0  0
    7.3136  -12.9685   25.8125 C   0  0  0  0  0  0  0  0  0  0  0  0
    7.8676  -14.0191   26.7244 C   0  0  2  0  0  0  0  0  0  0  0  0
    8.6067  -13.4418   27.9062 C   0  0  0  0  0  0  0  0  0  0  0  0
    8.6634  -15.0916   26.0287 C   0  0  2  0  0  0  0  0  0  0  0  0
    7.8214  -15.5589   24.9171 N   0  0  0  0  0  0  0  0  0  0  0  0
    9.0356  -16.2296   26.8715 C   0  0  0  0  0  0  0  0  0  0  0  0
    8.1389  -16.9676   27.3432 O   0  0  0  0  0  0  0  0  0  0  0  0
   10.4036  -16.5060   27.1608 N   0  0  0  0  0  0  0  0  0  0  0  0
   10.6945  -17.7407   27.9280 C   0  0  1  0  0  0  0  0  0  0  0  0
   11.6409  -18.5612   27.1525 C   0  0  0  0  0  0  0  0  0  0  0  0
   12.9767  -18.0104   26.8170 C   0  0  0  0  0  0  0  0  0  0  0  0
   13.8097  -18.8183   25.9055 C   0  0  0  0  0  0  0  0  0  0  0  0
   13.4174  -19.9243   25.4451 O   0  0  0  0  0  0  0  0  0  0  0  0
   10.9489  -17.4459   29.3209 C   0  0  0  0  0  0  0  0  0  0  0  0
   11.1430  -18.4465   30.1088 O   0  0  0  0  0  0  0  0  0  0  0  0
   15.0628  -18.3704   25.5242 O   0  0  0  0  0  0  0  0  0  0  0  0
   11.0201  -16.2195   29.9364 O   0  0  0  0  0  0  0  0  0  0  0  0
  2  1  1  6
  2  3  1  0
  3  4  1  0
  4  5  2  0
  6  5  1  0
  7  6  1  0
  8  7  2  0
  9  8  1  0
 10  9  2  0
 10 11  1  0
 11 12  2  0
 12  7  1  0
 12  4  1  0
 13 14  2  0
 13  2  1  0
 15 16  1  0
 16 17  1  0
 17 19  1  0
 17 18  1  1
 19 20  1  6
 19 21  1  0
 20 13  1  0
 21 23  1  0
 22 21  2  0
 23 24  1  0
 24 25  1  6
 24 29  1  0
 26 25  1  0
 27 26  1  0
 28 27  2  0
 29 30  2  0
 29 32  1  0
 31 27  1  0
M  END
$$$$
