WIE.pdb
     RDKit          3D

 32 33  0  0  1  0  0  0  0  0999 V2000
    5.6736  -17.7316   24.1818 N   0  0  0  0  0  0  0  0  0  0  0  0
    6.3677  -16.4832   24.0263 C   0  0  1  0  0  0  0  0  0  0  0  0
    7.2014  -16.1409   25.2432 C   0  0  0  0  0  0  0  0  0  0  0  0
    6.6497  -14.9934   25.9977 C   0  0  0  0  0  0  0  0  0  0  0  0
    5.4275  -14.8969   26.6506 C   0  0  0  0  0  0  0  0  0  0  0  0
    5.3041  -13.6799   27.2129 N   0  0  0  0  0  0  0  0  0  0  0  0
    6.4120  -12.9566   26.9548 C   0  0  0  0  0  0  0  0  0  0  0  0
    6.7774  -11.6689   27.3026 C   0  0  0  0  0  0  0  0  0  0  0  0
    8.0101  -11.2259   26.8685 C   0  0  0  0  0  0  0  0  0  0  0  0
    8.8671  -12.0227   26.1115 C   0  0  0  0  0  0  0  0  0  0  0  0
    8.4826  -13.2957   25.7790 C   0  0  0  0  0  0  0  0  0  0  0  0
    7.2494  -13.7599   26.2046 C   0  0  0  0  0  0  0  0  0  0  0  0
    7.3106  -16.5781   22.8891 C   0  0  0  0  0  0  0  0  0  0  0  0
    7.7392  -17.7088   22.5597 O   0  0  0  0  0  0  0  0  0  0  0  0
    7.4136  -12.3654   19.5771 C   0  0  0  0  0  0  0  0  0  0  0  0
    7.3398  -13.8574   19.8528 C   0  0  0  0  0  0  0  0  0  0  0  0
    8.6978  -14.3099   20.2926 C   0  0  2  0  0  0  0  0  0  0  0  0
    9.7146  -14.2874   19.1782 C   0  0  0  0  0  0  0  0  0  0  0  0
    8.7073  -15.6169   21.0404 C   0  0  2  0  0  0  0  0  0  0  0  0
    7.7559  -15.4515   22.1496 N   0  0  0  0  0  0  0  0  0  0  0  0
   10.0123  -16.0153   21.5715 C   0  0  0  0  0  0  0  0  0  0  0  0
   10.4785  -15.4222   22.5726 O   0  0  0  0  0  0  0  0  0  0  0  0
   10.7565  -17.0677   20.9632 N   0  0  0  0  0  0  0  0  0  0  0  0
   12.0554  -17.4215   21.5841 C   0  0  1  0  0  0  0  0  0  0  0  0
   12.1831  -18.8891   21.5977 C   0  0  0  0  0  0  0  0  0  0  0  0
   13.4675  -19.5043   22.0127 C   0  0  0  0  0  0  0  0  0  0  0  0
   13.5782  -20.9665   21.8481 C   0  0  0  0  0  0  0  0  0  0  0  0
   12.9118  -21.7709   22.5537 O   0  0  0  0  0  0  0  0  0  0  0  0
   13.1258  -16.5963   21.0691 C   0  0  0  0  0  0  0  0  0  0  0  0
   12.9994  -16.1502   19.8672 O   0  0  0  0  0  0  0  0  0  0  0  0
   14.4288  -21.4988   20.8945 O   0  0  0  0  0  0  0  0  0  0  0  0
   14.2837  -16.2068   21.6978 O   0  0  0  0  0  0  0  0  0  0  0  0
  2  1  1  1
  2  3  1  0
  3  4  1  0
  4  5  2  0
  6  5  1  0
  7  6  1  0
  8  7  2  0
  9  8  1  0
 10  9  2  0
 10 11  1  0
 11 12  2  0
 12  7  1  0
 12  4  1  0
 13 14  2  0
 13  2  1  0
 15 16  1  0
 16 17  1  0
 17 19  1  0
 17 18  1  6
 19 20  1  1
 19 21  1  0
 20 13  1  0
 21 23  1  0
 22 21  2  0
 23 24  1  0
 24 25  1  6
 24 29  1  0
 26 25  1  0
 27 26  1  0
 28 27  2  0
 29 30  2  0
 29 32  1  0
 31 27  1  0
M  END
$$$$
