WIE.pdb
     RDKit          3D

 32 33  0  0  1  0  0  0  0  0999 V2000
    6.4584  -18.3488   25.2625 N   0  0  0  0  0  0  0  0  0  0  0  0
    6.6663  -16.9963   24.8243 C   0  0  1  0  0  0  0  0  0  0  0  0
    7.3598  -16.1578   25.8775 C   0  0  0  0  0  0  0  0  0  0  0  0
    6.5728  -14.9613   26.2511 C   0  0  0  0  0  0  0  0  0  0  0  0
    5.1943  -14.8361   26.3658 C   0  0  0  0  0  0  0  0  0  0  0  0
    4.8775  -13.5774   26.7234 N   0  0  0  0  0  0  0  0  0  0  0  0
    6.0077  -12.8541   26.8520 C   0  0  0  0  0  0  0  0  0  0  0  0
    6.2255  -11.5325   27.1966 C   0  0  0  0  0  0  0  0  0  0  0  0
    7.5356  -11.1009   27.2376 C   0  0  0  0  0  0  0  0  0  0  0  0
    8.6093  -11.9412   26.9487 C   0  0  0  0  0  0  0  0  0  0  0  0
    8.3681  -13.2472   26.6095 C   0  0  0  0  0  0  0  0  0  0  0  0
    7.0606  -13.7007   26.5623 C   0  0  0  0  0  0  0  0  0  0  0  0
    7.5514  -16.9897   23.6378 C   0  0  0  0  0  0  0  0  0  0  0  0
    8.2495  -18.0045   23.4061 O   0  0  0  0  0  0  0  0  0  0  0  0
    8.1034  -12.5084   19.9811 C   0  0  0  0  0  0  0  0  0  0  0  0
    8.5402  -13.4482   21.0917 C   0  0  0  0  0  0  0  0  0  0  0  0
    8.1787  -14.8421   20.6813 C   0  0  2  0  0  0  0  0  0  0  0  0
    6.7239  -14.9869   20.3087 C   0  0  0  0  0  0  0  0  0  0  0  0
    8.6249  -15.9107   21.6439 C   0  0  2  0  0  0  0  0  0  0  0  0
    7.6510  -15.8904   22.7457 N   0  0  0  0  0  0  0  0  0  0  0  0
    9.9750  -15.7330   22.1818 C   0  0  0  0  0  0  0  0  0  0  0  0
   10.1878  -14.8363   23.0315 O   0  0  0  0  0  0  0  0  0  0  0  0
   11.0474  -16.5668   21.7502 N   0  0  0  0  0  0  0  0  0  0  0  0
   12.3946  -16.2672   22.2917 C   0  0  1  0  0  0  0  0  0  0  0  0
   12.6478  -17.1596   23.4362 C   0  0  0  0  0  0  0  0  0  0  0  0
   13.2425  -18.4976   23.1983 C   0  0  0  0  0  0  0  0  0  0  0  0
   12.8980  -19.5513   24.1721 C   0  0  0  0  0  0  0  0  0  0  0  0
   12.9969  -20.7769   23.8940 O   0  0  0  0  0  0  0  0  0  0  0  0
   13.3699  -16.1383   21.2316 C   0  0  0  0  0  0  0  0  0  0  0  0
   14.5352  -15.6934   21.5542 O   0  0  0  0  0  0  0  0  0  0  0  0
   12.4540  -19.2124   25.4388 O   0  0  0  0  0  0  0  0  0  0  0  0
   13.2278  -16.4358   19.8977 O   0  0  0  0  0  0  0  0  0  0  0  0
  2  1  1  1
  2  3  1  0
  3  4  1  0
  4  5  2  0
  6  5  1  0
  7  6  1  0
  8  7  2  0
  9  8  1  0
 10  9  2  0
 10 11  1  0
 11 12  2  0
 12  7  1  0
 12  4  1  0
 13 14  2  0
 13  2  1  0
 15 16  1  0
 16 17  1  0
 17 19  1  0
 17 18  1  1
 19 20  1  1
 19 21  1  0
 20 13  1  0
 21 23  1  0
 22 21  2  0
 23 24  1  0
 24 25  1  1
 24 29  1  0
 26 25  1  0
 27 26  1  0
 28 27  2  0
 29 30  2  0
 29 32  1  0
 31 27  1  0
M  END
$$$$
