VFH.pdb
     RDKit          3D

 29 30  0  0  1  0  0  0  0  0999 V2000
   24.0074  -24.1716  -17.5294 C   0  0  0  0  0  0  0  0  0  0  0  0
   25.0947  -23.1684  -17.2262 C   0  0  2  0  0  0  0  0  0  0  0  0
   26.2358  -23.4213  -18.1782 C   0  0  0  0  0  0  0  0  0  0  0  0
   25.6332  -23.3292  -15.8220 C   0  0  2  0  0  0  0  0  0  0  0  0
   26.1951  -24.6377  -15.7105 N   0  0  0  0  0  0  0  0  0  0  0  0
   24.5992  -23.0550  -14.7921 C   0  0  0  0  0  0  0  0  0  0  0  0
   24.1005  -23.9127  -14.0544 O   0  0  0  0  0  0  0  0  0  0  0  0
   24.1595  -21.7190  -14.6509 N   0  0  0  0  0  0  0  0  0  0  0  0
   23.1980  -21.2745  -13.6562 C   0  0  1  0  0  0  0  0  0  0  0  0
   23.6455  -20.0943  -12.8880 C   0  0  0  0  0  0  0  0  0  0  0  0
   24.4316  -20.4600  -11.6880 C   0  0  0  0  0  0  0  0  0  0  0  0
   25.7464  -20.8701  -11.7925 C   0  0  0  0  0  0  0  0  0  0  0  0
   26.4915  -21.2134  -10.6868 C   0  0  0  0  0  0  0  0  0  0  0  0
   25.9179  -21.1474   -9.4552 C   0  0  0  0  0  0  0  0  0  0  0  0
   24.6100  -20.7455   -9.2875 C   0  0  0  0  0  0  0  0  0  0  0  0
   23.8888  -20.4085  -10.4073 C   0  0  0  0  0  0  0  0  0  0  0  0
   21.8966  -21.1897  -14.3169 C   0  0  0  0  0  0  0  0  0  0  0  0
   21.7808  -20.4899  -15.3828 O   0  0  0  0  0  0  0  0  0  0  0  0
   20.7244  -21.8261  -13.8753 N   0  0  0  0  0  0  0  0  0  0  0  0
   19.4885  -21.7821  -14.6892 C   0  0  1  0  0  0  0  0  0  0  0  0
   18.6416  -22.9047  -14.2099 C   0  0  0  0  0  0  0  0  0  0  0  0
   17.3427  -22.9937  -14.9120 C   0  0  0  0  0  0  0  0  0  0  0  0
   16.6876  -22.0604  -15.6509 C   0  0  0  0  0  0  0  0  0  0  0  0
   15.5588  -22.6269  -16.1560 N   0  0  0  0  0  0  0  0  0  0  0  0
   15.5071  -23.8881  -15.7445 C   0  0  0  0  0  0  0  0  0  0  0  0
   16.5863  -24.1210  -14.9885 N   0  0  0  0  0  0  0  0  0  0  0  0
   18.8508  -20.4765  -14.3039 C   0  0  0  0  0  0  0  0  0  0  0  0
   18.0570  -19.7292  -15.1222 O   0  0  0  0  0  0  0  0  0  0  0  0
   19.0628  -20.0360  -13.1329 O   0  0  0  0  0  0  0  0  0  0  0  0
  2  1  1  6
  2  3  1  0
  4  2  1  0
  4  5  1  6
  6  7  2  0
  6  4  1  0
  8  6  1  0
  9  8  1  0
  9 10  1  6
 10 11  1  0
 11 16  1  0
 11 12  2  0
 12 13  1  0
 13 14  2  0
 15 14  1  0
 16 15  2  0
 17  9  1  0
 18 17  2  0
 19 17  1  0
 20 21  1  1
 20 19  1  0
 22 21  1  0
 22 26  1  0
 23 24  1  0
 23 22  2  0
 24 25  1  0
 25 26  2  0
 27 28  1  0
 27 20  1  0
 29 27  2  0
M  END
$$$$
