VFH.pdb
     RDKit          3D

 29 30  0  0  1  0  0  0  0  0999 V2000
   29.4220  -19.6923  -12.3739 C   0  0  0  0  0  0  0  0  0  0  0  0
   28.6849  -20.4492  -13.4528 C   0  0  2  0  0  0  0  0  0  0  0  0
   28.9611  -19.7662  -14.7680 C   0  0  0  0  0  0  0  0  0  0  0  0
   27.1883  -20.4241  -13.2358 C   0  0  2  0  0  0  0  0  0  0  0  0
   26.7457  -19.0716  -13.3592 N   0  0  0  0  0  0  0  0  0  0  0  0
   26.8006  -21.0429  -11.9428 C   0  0  0  0  0  0  0  0  0  0  0  0
   26.7679  -22.2605  -11.7308 O   0  0  0  0  0  0  0  0  0  0  0  0
   26.4456  -20.1738  -10.8859 N   0  0  0  0  0  0  0  0  0  0  0  0
   25.5775  -20.5417   -9.7803 C   0  0  1  0  0  0  0  0  0  0  0  0
   25.6413  -19.6026   -8.6413 C   0  0  0  0  0  0  0  0  0  0  0  0
   26.8302  -19.8230   -7.7870 C   0  0  0  0  0  0  0  0  0  0  0  0
   27.3543  -21.0877   -7.6039 C   0  0  0  0  0  0  0  0  0  0  0  0
   28.4593  -21.3098   -6.8131 C   0  0  0  0  0  0  0  0  0  0  0  0
   29.0532  -20.2546   -6.1935 C   0  0  0  0  0  0  0  0  0  0  0  0
   28.5760  -18.9694   -6.3381 C   0  0  0  0  0  0  0  0  0  0  0  0
   27.4721  -18.7754   -7.1327 C   0  0  0  0  0  0  0  0  0  0  0  0
   24.2574  -20.8267  -10.3403 C   0  0  0  0  0  0  0  0  0  0  0  0
   23.4078  -21.4784   -9.6385 O   0  0  0  0  0  0  0  0  0  0  0  0
   23.8222  -20.4386  -11.6186 N   0  0  0  0  0  0  0  0  0  0  0  0
   22.4024  -20.0968  -11.8616 C   0  0  1  0  0  0  0  0  0  0  0  0
   22.3979  -19.1575  -13.0127 C   0  0  0  0  0  0  0  0  0  0  0  0
   21.0361  -18.8074  -13.4719 C   0  0  0  0  0  0  0  0  0  0  0  0
   19.8319  -19.0601  -12.8953 C   0  0  0  0  0  0  0  0  0  0  0  0
   18.8624  -18.4810  -13.6535 N   0  0  0  0  0  0  0  0  0  0  0  0
   19.4450  -17.8769  -14.6823 C   0  0  0  0  0  0  0  0  0  0  0  0
   20.7653  -18.0690  -14.5810 N   0  0  0  0  0  0  0  0  0  0  0  0
   21.7851  -21.4018  -12.2805 C   0  0  0  0  0  0  0  0  0  0  0  0
   22.4321  -22.3777  -12.9786 O   0  0  0  0  0  0  0  0  0  0  0  0
   20.5755  -21.6148  -11.9617 O   0  0  0  0  0  0  0  0  0  0  0  0
  2  1  1  1
  2  3  1  0
  4  2  1  0
  4  5  1  1
  6  7  2  0
  6  4  1  0
  8  6  1  0
  9  8  1  0
  9 10  1  1
 10 11  1  0
 11 16  1  0
 11 12  2  0
 12 13  1  0
 13 14  2  0
 15 14  1  0
 16 15  2  0
 17  9  1  0
 18 17  2  0
 19 17  1  0
 20 21  1  6
 20 19  1  0
 22 21  1  0
 22 26  1  0
 23 24  1  0
 23 22  2  0
 24 25  1  0
 25 26  2  0
 27 28  1  0
 27 20  1  0
 29 27  2  0
M  END
$$$$
