VFH.pdb
     RDKit          3D

 29 30  0  0  1  0  0  0  0  0999 V2000
   26.0269  -20.4469  -18.2585 C   0  0  0  0  0  0  0  0  0  0  0  0
   27.4172  -20.1486  -17.7501 C   0  0  2  0  0  0  0  0  0  0  0  0
   28.3213  -19.9847  -18.9452 C   0  0  0  0  0  0  0  0  0  0  0  0
   27.9685  -21.2854  -16.9188 C   0  0  2  0  0  0  0  0  0  0  0  0
   28.1093  -22.4263  -17.7667 N   0  0  0  0  0  0  0  0  0  0  0  0
   27.1353  -21.5563  -15.7198 C   0  0  0  0  0  0  0  0  0  0  0  0
   26.1748  -22.3343  -15.6955 O   0  0  0  0  0  0  0  0  0  0  0  0
   27.4690  -20.8738  -14.5277 N   0  0  0  0  0  0  0  0  0  0  0  0
   26.7204  -20.9799  -13.2869 C   0  0  1  0  0  0  0  0  0  0  0  0
   27.4807  -20.5404  -12.0986 C   0  0  0  0  0  0  0  0  0  0  0  0
   26.6795  -20.6000  -10.8552 C   0  0  0  0  0  0  0  0  0  0  0  0
   26.4187  -21.8038  -10.2300 C   0  0  0  0  0  0  0  0  0  0  0  0
   25.6756  -21.8767   -9.0731 C   0  0  0  0  0  0  0  0  0  0  0  0
   25.1835  -20.7314   -8.5289 C   0  0  0  0  0  0  0  0  0  0  0  0
   25.4104  -19.5007   -9.1069 C   0  0  0  0  0  0  0  0  0  0  0  0
   26.1549  -19.4559  -10.2607 C   0  0  0  0  0  0  0  0  0  0  0  0
   25.4147  -20.3623  -13.5128 C   0  0  0  0  0  0  0  0  0  0  0  0
   25.3529  -19.2302  -14.1076 O   0  0  0  0  0  0  0  0  0  0  0  0
   24.1826  -20.9148  -13.1246 N   0  0  0  0  0  0  0  0  0  0  0  0
   22.9157  -20.1955  -13.3878 C   0  0  1  0  0  0  0  0  0  0  0  0
   22.5259  -20.5465  -14.7777 C   0  0  0  0  0  0  0  0  0  0  0  0
   21.1920  -20.0304  -15.1553 C   0  0  0  0  0  0  0  0  0  0  0  0
   20.3001  -19.3096  -14.4265 C   0  0  0  0  0  0  0  0  0  0  0  0
   19.2406  -19.0050  -15.2233 N   0  0  0  0  0  0  0  0  0  0  0  0
   19.4630  -19.5218  -16.4257 C   0  0  0  0  0  0  0  0  0  0  0  0
   20.6459  -20.1464  -16.3951 N   0  0  0  0  0  0  0  0  0  0  0  0
   21.9428  -20.8169  -12.4250 C   0  0  0  0  0  0  0  0  0  0  0  0
   22.1464  -21.9931  -11.7668 O   0  0  0  0  0  0  0  0  0  0  0  0
   20.8533  -20.2046  -12.2051 O   0  0  0  0  0  0  0  0  0  0  0  0
  2  1  1  6
  2  3  1  0
  4  2  1  0
  4  5  1  6
  6  7  2  0
  6  4  1  0
  8  6  1  0
  9  8  1  0
  9 10  1  1
 10 11  1  0
 11 16  1  0
 11 12  2  0
 12 13  1  0
 13 14  2  0
 15 14  1  0
 16 15  2  0
 17  9  1  0
 18 17  2  0
 19 17  1  0
 20 21  1  6
 20 19  1  0
 22 21  1  0
 22 26  1  0
 23 24  1  0
 23 22  2  0
 24 25  1  0
 25 26  2  0
 27 28  1  0
 27 20  1  0
 29 27  2  0
M  END
$$$$
