VFH.pdb
     RDKit          3D

 29 30  0  0  1  0  0  0  0  0999 V2000
   24.3887  -12.2657  -17.8548 C   0  0  0  0  0  0  0  0  0  0  0  0
   22.8938  -12.4134  -18.0091 C   0  0  2  0  0  0  0  0  0  0  0  0
   22.6388  -13.3918  -19.1273 C   0  0  0  0  0  0  0  0  0  0  0  0
   22.2358  -11.1068  -18.3928 C   0  0  2  0  0  0  0  0  0  0  0  0
   22.8188  -10.6604  -19.6181 N   0  0  0  0  0  0  0  0  0  0  0  0
   22.3258  -10.0961  -17.3085 C   0  0  0  0  0  0  0  0  0  0  0  0
   21.9323  -10.2745  -16.1502 O   0  0  0  0  0  0  0  0  0  0  0  0
   22.9024   -8.8462  -17.6303 N   0  0  0  0  0  0  0  0  0  0  0  0
   22.9419   -7.7069  -16.7292 C   0  0  1  0  0  0  0  0  0  0  0  0
   24.3071   -7.2033  -16.4730 C   0  0  0  0  0  0  0  0  0  0  0  0
   25.2138   -8.2528  -15.9552 C   0  0  0  0  0  0  0  0  0  0  0  0
   26.3749   -8.5880  -16.6242 C   0  0  0  0  0  0  0  0  0  0  0  0
   27.2290   -9.5613  -16.1563 C   0  0  0  0  0  0  0  0  0  0  0  0
   26.9222  -10.2125  -15.0022 C   0  0  0  0  0  0  0  0  0  0  0  0
   25.7779   -9.9219  -14.2904 C   0  0  0  0  0  0  0  0  0  0  0  0
   24.9429   -8.9466  -14.7792 C   0  0  0  0  0  0  0  0  0  0  0  0
   21.9503   -6.7429  -17.2036 C   0  0  0  0  0  0  0  0  0  0  0  0
   21.5427   -6.8101  -18.4154 O   0  0  0  0  0  0  0  0  0  0  0  0
   21.3860   -5.7172  -16.4267 N   0  0  0  0  0  0  0  0  0  0  0  0
   20.3809   -4.7971  -17.0056 C   0  0  1  0  0  0  0  0  0  0  0  0
   19.2481   -5.6515  -17.4458 C   0  0  0  0  0  0  0  0  0  0  0  0
   18.0840   -4.8732  -17.9222 C   0  0  0  0  0  0  0  0  0  0  0  0
   16.9946   -4.4322  -17.2403 C   0  0  0  0  0  0  0  0  0  0  0  0
   16.2253   -3.6975  -18.0880 N   0  0  0  0  0  0  0  0  0  0  0  0
   16.8192   -3.6766  -19.2752 C   0  0  0  0  0  0  0  0  0  0  0  0
   17.9491   -4.3876  -19.1850 N   0  0  0  0  0  0  0  0  0  0  0  0
   19.9473   -3.9573  -15.8367 C   0  0  0  0  0  0  0  0  0  0  0  0
   19.5868   -2.6450  -15.9152 O   0  0  0  0  0  0  0  0  0  0  0  0
   19.9113   -4.5064  -14.6932 O   0  0  0  0  0  0  0  0  0  0  0  0
  2  1  1  6
  2  3  1  0
  4  2  1  0
  4  5  1  6
  6  7  2  0
  6  4  1  0
  8  6  1  0
  9  8  1  0
  9 10  1  6
 10 11  1  0
 11 16  1  0
 11 12  2  0
 12 13  1  0
 13 14  2  0
 15 14  1  0
 16 15  2  0
 17  9  1  0
 18 17  2  0
 19 17  1  0
 20 21  1  1
 20 19  1  0
 22 21  1  0
 22 26  1  0
 23 24  1  0
 23 22  2  0
 24 25  1  0
 25 26  2  0
 27 28  1  0
 27 20  1  0
 29 27  2  0
M  END
$$$$
