VFH.pdb
     RDKit          3D

 29 30  0  0  1  0  0  0  0  0999 V2000
   32.0021  -28.2278  -21.9188 C   0  0  0  0  0  0  0  0  0  0  0  0
   31.2574  -29.1485  -20.9818 C   0  0  2  0  0  0  0  0  0  0  0  0
   29.7948  -29.0909  -21.3422 C   0  0  0  0  0  0  0  0  0  0  0  0
   31.3855  -28.7085  -19.5404 C   0  0  2  0  0  0  0  0  0  0  0  0
   32.7430  -28.8984  -19.1385 N   0  0  0  0  0  0  0  0  0  0  0  0
   30.4182  -29.4056  -18.6552 C   0  0  0  0  0  0  0  0  0  0  0  0
   30.4734  -30.6061  -18.3652 O   0  0  0  0  0  0  0  0  0  0  0  0
   29.3642  -28.6372  -18.1102 N   0  0  0  0  0  0  0  0  0  0  0  0
   28.3823  -29.1466  -17.1681 C   0  0  1  0  0  0  0  0  0  0  0  0
   28.2756  -28.3423  -15.9332 C   0  0  0  0  0  0  0  0  0  0  0  0
   27.9109  -26.9327  -16.2009 C   0  0  0  0  0  0  0  0  0  0  0  0
   26.5997  -26.5059  -16.1195 C   0  0  0  0  0  0  0  0  0  0  0  0
   26.2436  -25.1988  -16.3651 C   0  0  0  0  0  0  0  0  0  0  0  0
   27.2094  -24.3006  -16.6976 C   0  0  0  0  0  0  0  0  0  0  0  0
   28.5348  -24.6669  -16.7945 C   0  0  0  0  0  0  0  0  0  0  0  0
   28.8631  -25.9773  -16.5444 C   0  0  0  0  0  0  0  0  0  0  0  0
   27.1502  -29.3936  -17.9152 C   0  0  0  0  0  0  0  0  0  0  0  0
   26.9419  -28.7565  -19.0061 O   0  0  0  0  0  0  0  0  0  0  0  0
   26.1418  -30.2945  -17.5336 N   0  0  0  0  0  0  0  0  0  0  0  0
   24.9001  -30.4200  -18.3299 C   0  0  1  0  0  0  0  0  0  0  0  0
   24.2575  -31.6855  -17.8910 C   0  0  0  0  0  0  0  0  0  0  0  0
   23.0628  -32.0380  -18.6887 C   0  0  0  0  0  0  0  0  0  0  0  0
   22.5331  -31.4244  -19.7793 C   0  0  0  0  0  0  0  0  0  0  0  0
   21.4702  -32.1558  -20.2100 N   0  0  0  0  0  0  0  0  0  0  0  0
   21.3365  -33.2058  -19.4086 C   0  0  0  0  0  0  0  0  0  0  0  0
   22.2993  -33.1437  -18.4814 N   0  0  0  0  0  0  0  0  0  0  0  0
   24.0648  -29.2542  -17.8793 C   0  0  0  0  0  0  0  0  0  0  0  0
   23.1725  -28.5887  -18.6661 O   0  0  0  0  0  0  0  0  0  0  0  0
   24.1958  -28.8594  -16.6804 O   0  0  0  0  0  0  0  0  0  0  0  0
  2  1  1  6
  2  3  1  0
  4  2  1  0
  4  5  1  1
  6  7  2  0
  6  4  1  0
  8  6  1  0
  9  8  1  0
  9 10  1  1
 10 11  1  0
 11 16  1  0
 11 12  2  0
 12 13  1  0
 13 14  2  0
 15 14  1  0
 16 15  2  0
 17  9  1  0
 18 17  2  0
 19 17  1  0
 20 21  1  1
 20 19  1  0
 22 21  1  0
 22 26  1  0
 23 24  1  0
 23 22  2  0
 24 25  1  0
 25 26  2  0
 27 28  1  0
 27 20  1  0
 29 27  2  0
M  END
$$$$
