VFH.pdb
     RDKit          3D

 29 30  0  0  1  0  0  0  0  0999 V2000
   26.2867  -20.2173  -18.5978 C   0  0  0  0  0  0  0  0  0  0  0  0
   27.6316  -19.9602  -17.9611 C   0  0  2  0  0  0  0  0  0  0  0  0
   28.6233  -19.6963  -19.0655 C   0  0  0  0  0  0  0  0  0  0  0  0
   28.1266  -21.1612  -17.1865 C   0  0  2  0  0  0  0  0  0  0  0  0
   28.2481  -22.2556  -18.0965 N   0  0  0  0  0  0  0  0  0  0  0  0
   27.2587  -21.4718  -16.0223 C   0  0  0  0  0  0  0  0  0  0  0  0
   26.3424  -22.3018  -16.0333 O   0  0  0  0  0  0  0  0  0  0  0  0
   27.5026  -20.7659  -14.8221 N   0  0  0  0  0  0  0  0  0  0  0  0
   26.7456  -20.9508  -13.5956 C   0  0  1  0  0  0  0  0  0  0  0  0
   27.4589  -20.4909  -12.3861 C   0  0  0  0  0  0  0  0  0  0  0  0
   26.6256  -20.5776  -11.1655 C   0  0  0  0  0  0  0  0  0  0  0  0
   26.4782  -21.7699  -10.4839 C   0  0  0  0  0  0  0  0  0  0  0  0
   25.7072  -21.8676   -9.3474 C   0  0  0  0  0  0  0  0  0  0  0  0
   25.0718  -20.7592   -8.8808 C   0  0  0  0  0  0  0  0  0  0  0  0
   25.1809  -19.5415   -9.5178 C   0  0  0  0  0  0  0  0  0  0  0  0
   25.9563  -19.4714  -10.6498 C   0  0  0  0  0  0  0  0  0  0  0  0
   25.4052  -20.4151  -13.8271 C   0  0  0  0  0  0  0  0  0  0  0  0
   25.2777  -19.2392  -14.3172 O   0  0  0  0  0  0  0  0  0  0  0  0
   24.2062  -21.0941  -13.5524 N   0  0  0  0  0  0  0  0  0  0  0  0
   22.9033  -20.3991  -13.6579 C   0  0  1  0  0  0  0  0  0  0  0  0
   22.1836  -21.0459  -14.7852 C   0  0  0  0  0  0  0  0  0  0  0  0
   22.5077  -20.4503  -16.0998 C   0  0  0  0  0  0  0  0  0  0  0  0
   22.3384  -19.1771  -16.5434 C   0  0  0  0  0  0  0  0  0  0  0  0
   22.8519  -19.0879  -17.7998 N   0  0  0  0  0  0  0  0  0  0  0  0
   23.3340  -20.2781  -18.1370 C   0  0  0  0  0  0  0  0  0  0  0  0
   23.1302  -21.1126  -17.1110 N   0  0  0  0  0  0  0  0  0  0  0  0
   22.2113  -20.7349  -12.3663 C   0  0  0  0  0  0  0  0  0  0  0  0
   21.0663  -20.1429  -11.9226 O   0  0  0  0  0  0  0  0  0  0  0  0
   22.7260  -21.6348  -11.6345 O   0  0  0  0  0  0  0  0  0  0  0  0
  2  1  1  6
  2  3  1  0
  4  2  1  0
  4  5  1  6
  6  7  2  0
  6  4  1  0
  8  6  1  0
  9  8  1  0
  9 10  1  1
 10 11  1  0
 11 16  1  0
 11 12  2  0
 12 13  1  0
 13 14  2  0
 15 14  1  0
 16 15  2  0
 17  9  1  0
 18 17  2  0
 19 17  1  0
 20 21  1  6
 20 19  1  0
 22 21  1  0
 22 26  1  0
 23 24  1  0
 23 22  2  0
 24 25  1  0
 25 26  2  0
 27 28  1  0
 27 20  1  0
 29 27  2  0
M  END
$$$$
