VFH.pdb
     RDKit          3D

 29 30  0  0  1  0  0  0  0  0999 V2000
   25.4659  -20.4857  -17.6625 C   0  0  0  0  0  0  0  0  0  0  0  0
   26.8608  -20.0143  -17.3272 C   0  0  2  0  0  0  0  0  0  0  0  0
   27.5864  -19.7581  -18.6235 C   0  0  0  0  0  0  0  0  0  0  0  0
   27.6434  -21.0646  -16.5710 C   0  0  2  0  0  0  0  0  0  0  0  0
   27.8114  -22.1945  -17.4287 N   0  0  0  0  0  0  0  0  0  0  0  0
   27.0054  -21.4124  -15.2760 C   0  0  0  0  0  0  0  0  0  0  0  0
   26.1464  -22.2898  -15.1316 O   0  0  0  0  0  0  0  0  0  0  0  0
   27.4130  -20.6861  -14.1338 N   0  0  0  0  0  0  0  0  0  0  0  0
   26.8000  -20.8113  -12.8224 C   0  0  1  0  0  0  0  0  0  0  0  0
   27.6590  -20.3309  -11.7203 C   0  0  0  0  0  0  0  0  0  0  0  0
   26.9635  -20.3327  -10.4134 C   0  0  0  0  0  0  0  0  0  0  0  0
   26.2588  -19.2277   -9.9772 C   0  0  0  0  0  0  0  0  0  0  0  0
   25.6064  -19.2129   -8.7649 C   0  0  0  0  0  0  0  0  0  0  0  0
   25.6562  -20.3174   -7.9726 C   0  0  0  0  0  0  0  0  0  0  0  0
   26.3433  -21.4501   -8.3537 C   0  0  0  0  0  0  0  0  0  0  0  0
   26.9856  -21.4385   -9.5682 C   0  0  0  0  0  0  0  0  0  0  0  0
   25.4538  -20.2490  -12.9163 C   0  0  0  0  0  0  0  0  0  0  0  0
   25.2856  -19.1238  -13.5035 O   0  0  0  0  0  0  0  0  0  0  0  0
   24.2909  -20.8494  -12.4051 N   0  0  0  0  0  0  0  0  0  0  0  0
   22.9689  -20.2069  -12.5816 C   0  0  1  0  0  0  0  0  0  0  0  0
   22.3904  -20.7921  -13.8185 C   0  0  0  0  0  0  0  0  0  0  0  0
   21.0479  -20.2607  -14.1402 C   0  0  0  0  0  0  0  0  0  0  0  0
   20.2395  -19.4434  -13.4157 C   0  0  0  0  0  0  0  0  0  0  0  0
   19.1306  -19.1706  -14.1549 N   0  0  0  0  0  0  0  0  0  0  0  0
   19.2412  -19.8013  -15.3179 C   0  0  0  0  0  0  0  0  0  0  0  0
   20.4025  -20.4660  -15.3192 N   0  0  0  0  0  0  0  0  0  0  0  0
   22.1795  -20.6761  -11.3915 C   0  0  0  0  0  0  0  0  0  0  0  0
   21.1289  -20.0030  -10.8426 O   0  0  0  0  0  0  0  0  0  0  0  0
   22.5109  -21.7786  -10.8576 O   0  0  0  0  0  0  0  0  0  0  0  0
  2  1  1  6
  2  3  1  0
  4  2  1  0
  4  5  1  6
  6  7  2  0
  6  4  1  0
  8  6  1  0
  9  8  1  0
  9 10  1  1
 10 11  1  0
 11 16  1  0
 11 12  2  0
 12 13  1  0
 13 14  2  0
 15 14  1  0
 16 15  2  0
 17  9  1  0
 18 17  2  0
 19 17  1  0
 20 21  1  6
 20 19  1  0
 22 21  1  0
 22 26  1  0
 23 24  1  0
 23 22  2  0
 24 25  1  0
 25 26  2  0
 27 28  1  0
 27 20  1  0
 29 27  2  0
M  END
$$$$
