VFH.pdb
     RDKit          3D

 29 30  0  0  1  0  0  0  0  0999 V2000
   26.4390  -19.5727  -16.7536 C   0  0  0  0  0  0  0  0  0  0  0  0
   27.2976  -18.8847  -15.7193 C   0  0  2  0  0  0  0  0  0  0  0  0
   28.3377  -18.0723  -16.4478 C   0  0  0  0  0  0  0  0  0  0  0  0
   28.0305  -19.8779  -14.8452 C   0  0  2  0  0  0  0  0  0  0  0  0
   28.8407  -20.6972  -15.6894 N   0  0  0  0  0  0  0  0  0  0  0  0
   27.1023  -20.6654  -13.9947 C   0  0  0  0  0  0  0  0  0  0  0  0
   26.7306  -21.8178  -14.2442 O   0  0  0  0  0  0  0  0  0  0  0  0
   26.6139  -20.0484  -12.8203 N   0  0  0  0  0  0  0  0  0  0  0  0
   25.6523  -20.6558  -11.9160 C   0  0  1  0  0  0  0  0  0  0  0  0
   25.7117  -20.1168  -10.5415 C   0  0  0  0  0  0  0  0  0  0  0  0
   26.9184  -20.5600   -9.8072 C   0  0  0  0  0  0  0  0  0  0  0  0
   28.0138  -21.0717  -10.4751 C   0  0  0  0  0  0  0  0  0  0  0  0
   29.1437  -21.4881   -9.8075 C   0  0  0  0  0  0  0  0  0  0  0  0
   29.1841  -21.3936   -8.4512 C   0  0  0  0  0  0  0  0  0  0  0  0
   28.1222  -20.8916   -7.7296 C   0  0  0  0  0  0  0  0  0  0  0  0
   27.0070  -20.4831   -8.4201 C   0  0  0  0  0  0  0  0  0  0  0  0
   24.3535  -20.6383  -12.5868 C   0  0  0  0  0  0  0  0  0  0  0  0
   23.9342  -19.5473  -13.1095 O   0  0  0  0  0  0  0  0  0  0  0  0
   23.4962  -21.7441  -12.7144 N   0  0  0  0  0  0  0  0  0  0  0  0
   22.1953  -21.6151  -13.4093 C   0  0  1  0  0  0  0  0  0  0  0  0
   21.8267  -22.9860  -13.8475 C   0  0  0  0  0  0  0  0  0  0  0  0
   20.5230  -23.0428  -14.5441 C   0  0  0  0  0  0  0  0  0  0  0  0
   19.6684  -22.0390  -14.8734 C   0  0  0  0  0  0  0  0  0  0  0  0
   18.6287  -22.5712  -15.5704 N   0  0  0  0  0  0  0  0  0  0  0  0
   18.8268  -23.8796  -15.6776 C   0  0  0  0  0  0  0  0  0  0  0  0
   19.9750  -24.1761  -15.0577 N   0  0  0  0  0  0  0  0  0  0  0  0
   21.2528  -21.1672  -12.3274 C   0  0  0  0  0  0  0  0  0  0  0  0
   21.5311  -21.1994  -10.9933 O   0  0  0  0  0  0  0  0  0  0  0  0
   20.1159  -20.7249  -12.6772 O   0  0  0  0  0  0  0  0  0  0  0  0
  2  1  1  6
  2  3  1  0
  4  2  1  0
  4  5  1  6
  6  7  2  0
  6  4  1  0
  8  6  1  0
  9  8  1  0
  9 10  1  1
 10 11  1  0
 11 16  1  0
 11 12  2  0
 12 13  1  0
 13 14  2  0
 15 14  1  0
 16 15  2  0
 17  9  1  0
 18 17  2  0
 19 17  1  0
 20 21  1  1
 20 19  1  0
 22 21  1  0
 22 26  1  0
 23 24  1  0
 23 22  2  0
 24 25  1  0
 25 26  2  0
 27 28  1  0
 27 20  1  0
 29 27  2  0
M  END
$$$$
