VFH.pdb
     RDKit          3D

 29 30  0  0  1  0  0  0  0  0999 V2000
   27.4455  -36.5461   -2.2542 C   0  0  0  0  0  0  0  0  0  0  0  0
   26.9497  -35.2421   -2.8321 C   0  0  2  0  0  0  0  0  0  0  0  0
   26.7059  -35.4520   -4.3049 C   0  0  0  0  0  0  0  0  0  0  0  0
   27.9763  -34.1397   -2.6965 C   0  0  2  0  0  0  0  0  0  0  0  0
   29.1546  -34.5436   -3.3957 N   0  0  0  0  0  0  0  0  0  0  0  0
   28.2380  -33.7914   -1.2769 C   0  0  0  0  0  0  0  0  0  0  0  0
   29.2481  -34.1271   -0.6480 O   0  0  0  0  0  0  0  0  0  0  0  0
   27.2605  -33.0228   -0.6045 N   0  0  0  0  0  0  0  0  0  0  0  0
   27.3246  -32.6670    0.8028 C   0  0  1  0  0  0  0  0  0  0  0  0
   26.7186  -31.3546    1.1087 C   0  0  0  0  0  0  0  0  0  0  0  0
   26.6398  -31.0882    2.5629 C   0  0  0  0  0  0  0  0  0  0  0  0
   27.7785  -31.0381    3.3431 C   0  0  0  0  0  0  0  0  0  0  0  0
   27.7228  -30.7914    4.6965 C   0  0  0  0  0  0  0  0  0  0  0  0
   26.5124  -30.5910    5.2838 C   0  0  0  0  0  0  0  0  0  0  0  0
   25.3413  -30.6289    4.5575 C   0  0  0  0  0  0  0  0  0  0  0  0
   25.4250  -30.8770    3.2088 C   0  0  0  0  0  0  0  0  0  0  0  0
   26.8466  -33.8195    1.5648 C   0  0  0  0  0  0  0  0  0  0  0  0
   25.8025  -34.4437    1.1656 O   0  0  0  0  0  0  0  0  0  0  0  0
   27.4472  -34.3206    2.7320 N   0  0  0  0  0  0  0  0  0  0  0  0
   26.8299  -35.4404    3.4782 C   0  0  1  0  0  0  0  0  0  0  0  0
   27.9370  -36.3762    3.8032 C   0  0  0  0  0  0  0  0  0  0  0  0
   27.5014  -37.5311    4.6185 C   0  0  0  0  0  0  0  0  0  0  0  0
   26.5522  -37.6026    5.5882 C   0  0  0  0  0  0  0  0  0  0  0  0
   26.4586  -38.8945    6.0035 N   0  0  0  0  0  0  0  0  0  0  0  0
   27.3284  -39.6181    5.3090 C   0  0  0  0  0  0  0  0  0  0  0  0
   27.9667  -38.7994    4.4647 N   0  0  0  0  0  0  0  0  0  0  0  0
   26.3321  -34.7983    4.7430 C   0  0  0  0  0  0  0  0  0  0  0  0
   25.0763  -34.9537    5.2500 O   0  0  0  0  0  0  0  0  0  0  0  0
   27.1364  -34.0591    5.3888 O   0  0  0  0  0  0  0  0  0  0  0  0
  2  1  1  6
  2  3  1  0
  4  2  1  0
  4  5  1  1
  6  7  2  0
  6  4  1  0
  8  6  1  0
  9  8  1  0
  9 10  1  6
 10 11  1  0
 11 16  1  0
 11 12  2  0
 12 13  1  0
 13 14  2  0
 15 14  1  0
 16 15  2  0
 17  9  1  0
 18 17  2  0
 19 17  1  0
 20 21  1  1
 20 19  1  0
 22 21  1  0
 22 26  1  0
 23 24  1  0
 23 22  2  0
 24 25  1  0
 25 26  2  0
 27 28  1  0
 27 20  1  0
 29 27  2  0
M  END
$$$$
