VFH.pdb
     RDKit          3D

 29 30  0  0  1  0  0  0  0  0999 V2000
   29.8622  -22.1923  -16.5120 C   0  0  0  0  0  0  0  0  0  0  0  0
   28.9515  -22.4963  -17.6776 C   0  0  2  0  0  0  0  0  0  0  0  0
   29.6056  -21.9631  -18.9268 C   0  0  0  0  0  0  0  0  0  0  0  0
   27.6119  -21.8079  -17.5397 C   0  0  2  0  0  0  0  0  0  0  0  0
   27.8069  -20.4107  -17.7641 N   0  0  0  0  0  0  0  0  0  0  0  0
   26.9659  -22.0985  -16.2345 C   0  0  0  0  0  0  0  0  0  0  0  0
   26.7079  -23.2335  -15.8179 O   0  0  0  0  0  0  0  0  0  0  0  0
   26.6253  -20.9965  -15.4173 N   0  0  0  0  0  0  0  0  0  0  0  0
   25.8928  -21.1004  -14.1667 C   0  0  1  0  0  0  0  0  0  0  0  0
   26.4432  -20.2543  -13.0876 C   0  0  0  0  0  0  0  0  0  0  0  0
   25.7329  -20.4371  -11.8016 C   0  0  0  0  0  0  0  0  0  0  0  0
   24.4874  -19.8797  -11.5874 C   0  0  0  0  0  0  0  0  0  0  0  0
   23.8133  -20.0403  -10.3977 C   0  0  0  0  0  0  0  0  0  0  0  0
   24.3890  -20.7685   -9.4035 C   0  0  0  0  0  0  0  0  0  0  0  0
   25.6297  -21.3491   -9.5581 C   0  0  0  0  0  0  0  0  0  0  0  0
   26.2809  -21.1734  -10.7550 C   0  0  0  0  0  0  0  0  0  0  0  0
   24.4732  -20.9470  -14.4802 C   0  0  0  0  0  0  0  0  0  0  0  0
   24.0842  -19.9145  -15.1298 O   0  0  0  0  0  0  0  0  0  0  0  0
   23.4647  -21.8576  -14.1226 N   0  0  0  0  0  0  0  0  0  0  0  0
   22.0470  -21.5802  -14.4463 C   0  0  1  0  0  0  0  0  0  0  0  0
   21.4889  -22.8538  -14.9694 C   0  0  0  0  0  0  0  0  0  0  0  0
   20.0591  -22.7551  -15.3352 C   0  0  0  0  0  0  0  0  0  0  0  0
   19.4214  -21.8414  -16.1130 C   0  0  0  0  0  0  0  0  0  0  0  0
   18.1143  -22.2034  -16.2173 N   0  0  0  0  0  0  0  0  0  0  0  0
   17.9358  -23.3200  -15.5217 C   0  0  0  0  0  0  0  0  0  0  0  0
   19.1111  -23.6637  -14.9823 N   0  0  0  0  0  0  0  0  0  0  0  0
   21.4267  -21.2748  -13.1116 C   0  0  0  0  0  0  0  0  0  0  0  0
   20.3781  -20.4253  -12.9192 O   0  0  0  0  0  0  0  0  0  0  0  0
   21.9101  -21.8486  -12.0881 O   0  0  0  0  0  0  0  0  0  0  0  0
  2  1  1  1
  2  3  1  0
  4  2  1  0
  4  5  1  1
  6  7  2  0
  6  4  1  0
  8  6  1  0
  9  8  1  0
  9 10  1  1
 10 11  1  0
 11 16  1  0
 11 12  2  0
 12 13  1  0
 13 14  2  0
 15 14  1  0
 16 15  2  0
 17  9  1  0
 18 17  2  0
 19 17  1  0
 20 21  1  1
 20 19  1  0
 22 21  1  0
 22 26  1  0
 23 24  1  0
 23 22  2  0
 24 25  1  0
 25 26  2  0
 27 28  1  0
 27 20  1  0
 29 27  2  0
M  END
$$$$
