VFH.pdb
     RDKit          3D

 29 30  0  0  1  0  0  0  0  0999 V2000
   26.4843  -21.5156  -19.0808 C   0  0  0  0  0  0  0  0  0  0  0  0
   27.6185  -20.6327  -18.6179 C   0  0  2  0  0  0  0  0  0  0  0  0
   28.5002  -20.3505  -19.8076 C   0  0  0  0  0  0  0  0  0  0  0  0
   28.4733  -21.3155  -17.5736 C   0  0  2  0  0  0  0  0  0  0  0  0
   29.0964  -22.4475  -18.1825 N   0  0  0  0  0  0  0  0  0  0  0  0
   27.6958  -21.6684  -16.3586 C   0  0  0  0  0  0  0  0  0  0  0  0
   27.1553  -22.7635  -16.1663 O   0  0  0  0  0  0  0  0  0  0  0  0
   27.5692  -20.6790  -15.3569 N   0  0  0  0  0  0  0  0  0  0  0  0
   26.8258  -20.8560  -14.1210 C   0  0  1  0  0  0  0  0  0  0  0  0
   27.4067  -20.1295  -12.9729 C   0  0  0  0  0  0  0  0  0  0  0  0
   26.6359  -20.3270  -11.7245 C   0  0  0  0  0  0  0  0  0  0  0  0
   25.5731  -19.5054  -11.4031 C   0  0  0  0  0  0  0  0  0  0  0  0
   24.8459  -19.6756  -10.2464 C   0  0  0  0  0  0  0  0  0  0  0  0
   25.1823  -20.6812   -9.3945 C   0  0  0  0  0  0  0  0  0  0  0  0
   26.2327  -21.5333   -9.6610 C   0  0  0  0  0  0  0  0  0  0  0  0
   26.9419  -21.3416  -10.8220 C   0  0  0  0  0  0  0  0  0  0  0  0
   25.4161  -20.6138  -14.4231 C   0  0  0  0  0  0  0  0  0  0  0  0
   25.0938  -19.5955  -15.1291 O   0  0  0  0  0  0  0  0  0  0  0  0
   24.3489  -21.4218  -13.9962 N   0  0  0  0  0  0  0  0  0  0  0  0
   22.9481  -21.0343  -14.2784 C   0  0  1  0  0  0  0  0  0  0  0  0
   22.3355  -22.1922  -14.9792 C   0  0  0  0  0  0  0  0  0  0  0  0
   20.9086  -21.9836  -15.3086 C   0  0  0  0  0  0  0  0  0  0  0  0
   20.1030  -20.9202  -15.0511 C   0  0  0  0  0  0  0  0  0  0  0  0
   18.8856  -21.1582  -15.6094 N   0  0  0  0  0  0  0  0  0  0  0  0
   18.9266  -22.3438  -16.2054 C   0  0  0  0  0  0  0  0  0  0  0  0
   20.1512  -22.8534  -16.0287 N   0  0  0  0  0  0  0  0  0  0  0  0
   22.3323  -20.8943  -12.9143 C   0  0  0  0  0  0  0  0  0  0  0  0
   21.3243  -20.0311  -12.6027 O   0  0  0  0  0  0  0  0  0  0  0  0
   22.7791  -21.6323  -11.9836 O   0  0  0  0  0  0  0  0  0  0  0  0
  2  1  1  6
  2  3  1  0
  4  2  1  0
  4  5  1  6
  6  7  2  0
  6  4  1  0
  8  6  1  0
  9  8  1  0
  9 10  1  1
 10 11  1  0
 11 16  1  0
 11 12  2  0
 12 13  1  0
 13 14  2  0
 15 14  1  0
 16 15  2  0
 17  9  1  0
 18 17  2  0
 19 17  1  0
 20 21  1  6
 20 19  1  0
 22 21  1  0
 22 26  1  0
 23 24  1  0
 23 22  2  0
 24 25  1  0
 25 26  2  0
 27 28  1  0
 27 20  1  0
 29 27  2  0
M  END
$$$$
