VFH.pdb
     RDKit          3D

 29 30  0  0  1  0  0  0  0  0999 V2000
   18.7593  -36.7777  -11.7056 C   0  0  0  0  0  0  0  0  0  0  0  0
   20.1245  -36.4582  -11.1449 C   0  0  2  0  0  0  0  0  0  0  0  0
   20.2307  -37.1069   -9.7883 C   0  0  0  0  0  0  0  0  0  0  0  0
   20.3196  -34.9710  -10.9513 C   0  0  2  0  0  0  0  0  0  0  0  0
   20.4015  -34.3635  -12.2415 N   0  0  0  0  0  0  0  0  0  0  0  0
   21.4944  -34.6682  -10.0949 C   0  0  0  0  0  0  0  0  0  0  0  0
   22.6698  -34.7197  -10.4744 O   0  0  0  0  0  0  0  0  0  0  0  0
   21.2438  -34.2962   -8.7543 N   0  0  0  0  0  0  0  0  0  0  0  0
   22.2752  -33.9166   -7.8038 C   0  0  1  0  0  0  0  0  0  0  0  0
   22.0439  -32.5993   -7.1757 C   0  0  0  0  0  0  0  0  0  0  0  0
   22.1811  -31.4791   -8.1339 C   0  0  0  0  0  0  0  0  0  0  0  0
   23.4177  -31.1015   -8.6198 C   0  0  0  0  0  0  0  0  0  0  0  0
   23.5627  -30.0624   -9.5113 C   0  0  0  0  0  0  0  0  0  0  0  0
   22.4575  -29.3871   -9.9267 C   0  0  0  0  0  0  0  0  0  0  0  0
   21.1969  -29.7176   -9.4771 C   0  0  0  0  0  0  0  0  0  0  0  0
   21.0801  -30.7584   -8.5879 C   0  0  0  0  0  0  0  0  0  0  0  0
   22.4856  -35.0561   -6.9124 C   0  0  0  0  0  0  0  0  0  0  0  0
   21.4956  -35.5199   -6.2460 O   0  0  0  0  0  0  0  0  0  0  0  0
   23.7135  -35.7094   -6.7139 N   0  0  0  0  0  0  0  0  0  0  0  0
   23.7852  -36.9587   -5.9228 C   0  0  1  0  0  0  0  0  0  0  0  0
   25.0610  -37.6153   -6.3078 C   0  0  0  0  0  0  0  0  0  0  0  0
   25.2439  -38.9427   -5.6811 C   0  0  0  0  0  0  0  0  0  0  0  0
   24.4065  -39.6469   -4.8754 C   0  0  0  0  0  0  0  0  0  0  0  0
   24.9814  -40.8496   -4.6044 N   0  0  0  0  0  0  0  0  0  0  0  0
   26.1527  -40.8998   -5.2273 C   0  0  0  0  0  0  0  0  0  0  0  0
   26.3215  -39.7465   -5.8844 N   0  0  0  0  0  0  0  0  0  0  0  0
   23.8804  -36.4791   -4.5013 C   0  0  0  0  0  0  0  0  0  0  0  0
   23.3766  -37.1432   -3.4227 O   0  0  0  0  0  0  0  0  0  0  0  0
   24.4730  -35.3779   -4.2857 O   0  0  0  0  0  0  0  0  0  0  0  0
  2  1  1  1
  2  3  1  0
  4  2  1  0
  4  5  1  6
  6  7  2  0
  6  4  1  0
  8  6  1  0
  9  8  1  0
  9 10  1  1
 10 11  1  0
 11 16  1  0
 11 12  2  0
 12 13  1  0
 13 14  2  0
 15 14  1  0
 16 15  2  0
 17  9  1  0
 18 17  2  0
 19 17  1  0
 20 21  1  6
 20 19  1  0
 22 21  1  0
 22 26  1  0
 23 24  1  0
 23 22  2  0
 24 25  1  0
 25 26  2  0
 27 28  1  0
 27 20  1  0
 29 27  2  0
M  END
$$$$
