VFH.pdb
     RDKit          3D

 29 30  0  0  1  0  0  0  0  0999 V2000
   29.3151  -22.0901  -15.7476 C   0  0  0  0  0  0  0  0  0  0  0  0
   28.3148  -22.0996  -16.8788 C   0  0  2  0  0  0  0  0  0  0  0  0
   28.9900  -21.5248  -18.0980 C   0  0  0  0  0  0  0  0  0  0  0  0
   27.1139  -21.2316  -16.5757 C   0  0  2  0  0  0  0  0  0  0  0  0
   27.5304  -19.8662  -16.6264 N   0  0  0  0  0  0  0  0  0  0  0  0
   26.4748  -21.5929  -15.2849 C   0  0  0  0  0  0  0  0  0  0  0  0
   26.1434  -22.7399  -14.9641 O   0  0  0  0  0  0  0  0  0  0  0  0
   26.2317  -20.5480  -14.3642 N   0  0  0  0  0  0  0  0  0  0  0  0
   25.5664  -20.7233  -13.0843 C   0  0  1  0  0  0  0  0  0  0  0  0
   26.1684  -19.9307  -11.9922 C   0  0  0  0  0  0  0  0  0  0  0  0
   27.5309  -20.3898  -11.6391 C   0  0  0  0  0  0  0  0  0  0  0  0
   27.7487  -21.2100  -10.5493 C   0  0  0  0  0  0  0  0  0  0  0  0
   29.0091  -21.6460  -10.2073 C   0  0  0  0  0  0  0  0  0  0  0  0
   30.0716  -21.2589  -10.9633 C   0  0  0  0  0  0  0  0  0  0  0  0
   29.9170  -20.4414  -12.0624 C   0  0  0  0  0  0  0  0  0  0  0  0
   28.6488  -20.0205  -12.3818 C   0  0  0  0  0  0  0  0  0  0  0  0
   24.1315  -20.5645  -13.3149 C   0  0  0  0  0  0  0  0  0  0  0  0
   23.7067  -19.5159  -13.9143 O   0  0  0  0  0  0  0  0  0  0  0  0
   23.1450  -21.4864  -12.9267 N   0  0  0  0  0  0  0  0  0  0  0  0
   21.7191  -21.2456  -13.2443 C   0  0  1  0  0  0  0  0  0  0  0  0
   21.2197  -22.4996  -13.8648 C   0  0  0  0  0  0  0  0  0  0  0  0
   19.7697  -22.4669  -14.1555 C   0  0  0  0  0  0  0  0  0  0  0  0
   18.7146  -22.7610  -13.3514 C   0  0  0  0  0  0  0  0  0  0  0  0
   17.5677  -22.5159  -14.0405 N   0  0  0  0  0  0  0  0  0  0  0  0
   17.8955  -22.0763  -15.2496 C   0  0  0  0  0  0  0  0  0  0  0  0
   19.2308  -22.0426  -15.3294 N   0  0  0  0  0  0  0  0  0  0  0  0
   21.0765  -21.0652  -11.8975 C   0  0  0  0  0  0  0  0  0  0  0  0
   19.9360  -20.3538  -11.6707 O   0  0  0  0  0  0  0  0  0  0  0  0
   21.6316  -21.6147  -10.8973 O   0  0  0  0  0  0  0  0  0  0  0  0
  2  1  1  1
  2  3  1  0
  4  2  1  0
  4  5  1  1
  6  7  2  0
  6  4  1  0
  8  6  1  0
  9  8  1  0
  9 10  1  1
 10 11  1  0
 11 16  1  0
 11 12  2  0
 12 13  1  0
 13 14  2  0
 15 14  1  0
 16 15  2  0
 17  9  1  0
 18 17  2  0
 19 17  1  0
 20 21  1  1
 20 19  1  0
 22 21  1  0
 22 26  1  0
 23 24  1  0
 23 22  2  0
 24 25  1  0
 25 26  2  0
 27 28  1  0
 27 20  1  0
 29 27  2  0
M  END
$$$$
