VFH.pdb
     RDKit          3D

 29 30  0  0  1  0  0  0  0  0999 V2000
   29.1592  -22.8062  -16.1905 C   0  0  0  0  0  0  0  0  0  0  0  0
   28.1406  -22.7093  -17.3010 C   0  0  2  0  0  0  0  0  0  0  0  0
   28.8457  -22.1998  -18.5321 C   0  0  0  0  0  0  0  0  0  0  0  0
   27.0398  -21.7259  -16.9709 C   0  0  2  0  0  0  0  0  0  0  0  0
   27.5702  -20.4064  -17.1047 N   0  0  0  0  0  0  0  0  0  0  0  0
   26.4485  -21.9776  -15.6322 C   0  0  0  0  0  0  0  0  0  0  0  0
   25.9099  -23.0373  -15.2923 O   0  0  0  0  0  0  0  0  0  0  0  0
   26.5092  -20.9288  -14.6863 N   0  0  0  0  0  0  0  0  0  0  0  0
   25.9196  -20.9881  -13.3596 C   0  0  1  0  0  0  0  0  0  0  0  0
   26.8034  -20.4665  -12.2965 C   0  0  0  0  0  0  0  0  0  0  0  0
   26.1655  -20.4938  -10.9608 C   0  0  0  0  0  0  0  0  0  0  0  0
   25.4188  -19.4256  -10.5034 C   0  0  0  0  0  0  0  0  0  0  0  0
   24.8189  -19.4349   -9.2642 C   0  0  0  0  0  0  0  0  0  0  0  0
   24.9647  -20.5266   -8.4660 C   0  0  0  0  0  0  0  0  0  0  0  0
   25.6978  -21.6229   -8.8674 C   0  0  0  0  0  0  0  0  0  0  0  0
   26.2860  -21.5878  -10.1085 C   0  0  0  0  0  0  0  0  0  0  0  0
   24.5771  -20.4172  -13.4546 C   0  0  0  0  0  0  0  0  0  0  0  0
   24.4383  -19.2081  -13.8521 O   0  0  0  0  0  0  0  0  0  0  0  0
   23.3876  -21.0955  -13.1397 N   0  0  0  0  0  0  0  0  0  0  0  0
   22.0761  -20.4215  -13.2718 C   0  0  1  0  0  0  0  0  0  0  0  0
   21.6711  -20.5870  -14.6915 C   0  0  0  0  0  0  0  0  0  0  0  0
   20.3062  -20.0885  -14.9685 C   0  0  0  0  0  0  0  0  0  0  0  0
   19.4181  -19.4790  -14.1402 C   0  0  0  0  0  0  0  0  0  0  0  0
   18.3185  -19.1384  -14.8649 N   0  0  0  0  0  0  0  0  0  0  0  0
   18.5126  -19.5241  -16.1203 C   0  0  0  0  0  0  0  0  0  0  0  0
   19.7172  -20.1021  -16.1939 N   0  0  0  0  0  0  0  0  0  0  0  0
   21.1645  -21.2341  -12.3952 C   0  0  0  0  0  0  0  0  0  0  0  0
   19.9479  -20.8173  -11.9431 O   0  0  0  0  0  0  0  0  0  0  0  0
   21.5512  -22.3926  -12.0505 O   0  0  0  0  0  0  0  0  0  0  0  0
  2  1  1  1
  2  3  1  0
  4  2  1  0
  4  5  1  1
  6  7  2  0
  6  4  1  0
  8  6  1  0
  9  8  1  0
  9 10  1  1
 10 11  1  0
 11 16  1  0
 11 12  2  0
 12 13  1  0
 13 14  2  0
 15 14  1  0
 16 15  2  0
 17  9  1  0
 18 17  2  0
 19 17  1  0
 20 21  1  6
 20 19  1  0
 22 21  1  0
 22 26  1  0
 23 24  1  0
 23 22  2  0
 24 25  1  0
 25 26  2  0
 27 28  1  0
 27 20  1  0
 29 27  2  0
M  END
$$$$
