VFH.pdb
     RDKit          3D

 29 30  0  0  1  0  0  0  0  0999 V2000
   22.2854  -17.3143  -18.4811 C   0  0  0  0  0  0  0  0  0  0  0  0
   20.8492  -16.9326  -18.2129 C   0  0  2  0  0  0  0  0  0  0  0  0
   19.9904  -17.6018  -19.2556 C   0  0  0  0  0  0  0  0  0  0  0  0
   20.6306  -15.4412  -18.3364 C   0  0  2  0  0  0  0  0  0  0  0  0
   20.8597  -15.0713  -19.6970 N   0  0  0  0  0  0  0  0  0  0  0  0
   21.4675  -14.6726  -17.3803 C   0  0  0  0  0  0  0  0  0  0  0  0
   21.4350  -14.8114  -16.1523 O   0  0  0  0  0  0  0  0  0  0  0  0
   22.3607  -13.7182  -17.9186 N   0  0  0  0  0  0  0  0  0  0  0  0
   23.2059  -12.8467  -17.1202 C   0  0  1  0  0  0  0  0  0  0  0  0
   24.5439  -12.6229  -17.7058 C   0  0  0  0  0  0  0  0  0  0  0  0
   25.3861  -11.7299  -16.8781 C   0  0  0  0  0  0  0  0  0  0  0  0
   26.1581  -12.2287  -15.8470 C   0  0  0  0  0  0  0  0  0  0  0  0
   26.9469  -11.4122  -15.0680 C   0  0  0  0  0  0  0  0  0  0  0  0
   26.9678  -10.0757  -15.3197 C   0  0  0  0  0  0  0  0  0  0  0  0
   26.2191   -9.5194  -16.3348 C   0  0  0  0  0  0  0  0  0  0  0  0
   25.4407  -10.3563  -17.0970 C   0  0  0  0  0  0  0  0  0  0  0  0
   22.4156  -11.6637  -16.7836 C   0  0  0  0  0  0  0  0  0  0  0  0
   21.6183  -11.1748  -17.6580 O   0  0  0  0  0  0  0  0  0  0  0  0
   22.4521  -10.9931  -15.5495 N   0  0  0  0  0  0  0  0  0  0  0  0
   21.5247   -9.8734  -15.2706 C   0  0  1  0  0  0  0  0  0  0  0  0
   20.8298  -10.2221  -14.0046 C   0  0  0  0  0  0  0  0  0  0  0  0
   19.9768   -9.1289  -13.4896 C   0  0  0  0  0  0  0  0  0  0  0  0
   19.6775   -7.9247  -14.0433 C   0  0  0  0  0  0  0  0  0  0  0  0
   18.7950   -7.2849  -13.2296 N   0  0  0  0  0  0  0  0  0  0  0  0
   18.5448   -8.0705  -12.1890 C   0  0  0  0  0  0  0  0  0  0  0  0
   19.2575   -9.1932  -12.3376 N   0  0  0  0  0  0  0  0  0  0  0  0
   22.4366   -8.7023  -15.0326 C   0  0  0  0  0  0  0  0  0  0  0  0
   22.1190   -7.4042  -15.3014 O   0  0  0  0  0  0  0  0  0  0  0  0
   23.5849   -8.9346  -14.5449 O   0  0  0  0  0  0  0  0  0  0  0  0
  2  1  1  6
  2  3  1  0
  4  2  1  0
  4  5  1  6
  6  7  2  0
  6  4  1  0
  8  6  1  0
  9  8  1  0
  9 10  1  6
 10 11  1  0
 11 16  1  0
 11 12  2  0
 12 13  1  0
 13 14  2  0
 15 14  1  0
 16 15  2  0
 17  9  1  0
 18 17  2  0
 19 17  1  0
 20 21  1  1
 20 19  1  0
 22 21  1  0
 22 26  1  0
 23 24  1  0
 23 22  2  0
 24 25  1  0
 25 26  2  0
 27 28  1  0
 27 20  1  0
 29 27  2  0
M  END
$$$$
