VFH.pdb
     RDKit          3D

 29 30  0  0  1  0  0  0  0  0999 V2000
   27.8658  -22.1130  -20.9933 C   0  0  0  0  0  0  0  0  0  0  0  0
   27.8083  -23.6061  -20.7746 C   0  0  2  0  0  0  0  0  0  0  0  0
   26.3916  -23.9652  -20.4053 C   0  0  0  0  0  0  0  0  0  0  0  0
   28.6978  -24.0422  -19.6317 C   0  0  2  0  0  0  0  0  0  0  0  0
   30.0436  -23.6937  -19.9602 N   0  0  0  0  0  0  0  0  0  0  0  0
   28.5353  -25.4840  -19.3158 C   0  0  0  0  0  0  0  0  0  0  0  0
   28.7170  -26.4028  -20.1229 O   0  0  0  0  0  0  0  0  0  0  0  0
   28.1459  -25.8221  -17.9996 N   0  0  0  0  0  0  0  0  0  0  0  0
   27.8718  -27.1761  -17.5494 C   0  0  1  0  0  0  0  0  0  0  0  0
   28.7870  -27.6422  -16.4872 C   0  0  0  0  0  0  0  0  0  0  0  0
   28.7319  -29.1085  -16.2904 C   0  0  0  0  0  0  0  0  0  0  0  0
   27.9121  -29.6707  -15.3313 C   0  0  0  0  0  0  0  0  0  0  0  0
   27.8489  -31.0321  -15.1356 C   0  0  0  0  0  0  0  0  0  0  0  0
   28.6151  -31.8484  -15.9080 C   0  0  0  0  0  0  0  0  0  0  0  0
   29.4525  -31.3462  -16.8810 C   0  0  0  0  0  0  0  0  0  0  0  0
   29.4967  -29.9842  -17.0557 C   0  0  0  0  0  0  0  0  0  0  0  0
   26.4369  -27.2638  -17.2835 C   0  0  0  0  0  0  0  0  0  0  0  0
   25.8866  -26.3896  -16.5269 O   0  0  0  0  0  0  0  0  0  0  0  0
   25.5795  -28.2505  -17.7983 N   0  0  0  0  0  0  0  0  0  0  0  0
   24.1443  -28.2686  -17.4352 C   0  0  1  0  0  0  0  0  0  0  0  0
   23.4198  -28.7250  -18.6492 C   0  0  0  0  0  0  0  0  0  0  0  0
   22.1092  -28.0627  -18.8273 C   0  0  0  0  0  0  0  0  0  0  0  0
   21.5300  -27.0711  -18.1010 C   0  0  0  0  0  0  0  0  0  0  0  0
   20.3491  -26.7408  -18.6899 N   0  0  0  0  0  0  0  0  0  0  0  0
   20.1913  -27.5068  -19.7626 C   0  0  0  0  0  0  0  0  0  0  0  0
   21.2551  -28.3131  -19.8552 N   0  0  0  0  0  0  0  0  0  0  0  0
   24.0557  -29.3289  -16.3734 C   0  0  0  0  0  0  0  0  0  0  0  0
   24.7458  -30.5043  -16.3907 O   0  0  0  0  0  0  0  0  0  0  0  0
   23.2852  -29.1175  -15.3874 O   0  0  0  0  0  0  0  0  0  0  0  0
  2  1  1  1
  2  3  1  0
  4  2  1  0
  4  5  1  6
  6  7  2  0
  6  4  1  0
  8  6  1  0
  9  8  1  0
  9 10  1  1
 10 11  1  0
 11 16  1  0
 11 12  2  0
 12 13  1  0
 13 14  2  0
 15 14  1  0
 16 15  2  0
 17  9  1  0
 18 17  2  0
 19 17  1  0
 20 21  1  6
 20 19  1  0
 22 21  1  0
 22 26  1  0
 23 24  1  0
 23 22  2  0
 24 25  1  0
 25 26  2  0
 27 28  1  0
 27 20  1  0
 29 27  2  0
M  END
$$$$
