FYE.pdb
     RDKit          3D

 33 34  0  0  1  0  0  0  0  0999 V2000
   33.3340  -35.0859   -4.0010 N   0  0  0  0  0  0  0  0  0  0  0  0
   32.0766  -35.2081   -4.6833 C   0  0  1  0  0  0  0  0  0  0  0  0
   31.9117  -36.5502   -5.3315 C   0  0  0  0  0  0  0  0  0  0  0  0
   32.9063  -36.6982   -6.4154 C   0  0  0  0  0  0  0  0  0  0  0  0
   33.8624  -37.6875   -6.3571 C   0  0  0  0  0  0  0  0  0  0  0  0
   34.8073  -37.8381   -7.3503 C   0  0  0  0  0  0  0  0  0  0  0  0
   34.7900  -36.9800   -8.4188 C   0  0  0  0  0  0  0  0  0  0  0  0
   33.8324  -35.9824   -8.4863 C   0  0  0  0  0  0  0  0  0  0  0  0
   32.8925  -35.8406   -7.4880 C   0  0  0  0  0  0  0  0  0  0  0  0
   30.9625  -34.8167   -3.7945 C   0  0  0  0  0  0  0  0  0  0  0  0
   31.1085  -34.7314   -2.5352 O   0  0  0  0  0  0  0  0  0  0  0  0
   25.8059  -32.0835   -9.1723 O   0  0  0  0  0  0  0  0  0  0  0  0
   26.3803  -32.2368   -7.9149 C   0  0  0  0  0  0  0  0  0  0  0  0
   27.7346  -32.4220   -7.7464 C   0  0  0  0  0  0  0  0  0  0  0  0
   28.3179  -32.5751   -6.5116 C   0  0  0  0  0  0  0  0  0  0  0  0
   27.5452  -32.5495   -5.3375 C   0  0  0  0  0  0  0  0  0  0  0  0
   28.1506  -32.6917   -4.0154 C   0  0  0  0  0  0  0  0  0  0  0  0
   28.5522  -34.0967   -3.6394 C   0  0  2  0  0  0  0  0  0  0  0  0
   29.6949  -34.5344   -4.3832 N   0  0  0  0  0  0  0  0  0  0  0  0
   27.4519  -35.0783   -3.7519 C   0  0  0  0  0  0  0  0  0  0  0  0
   27.2507  -35.8070   -4.7585 O   0  0  0  0  0  0  0  0  0  0  0  0
   26.1986  -32.3647   -5.5070 C   0  0  0  0  0  0  0  0  0  0  0  0
   25.6122  -32.2096   -6.7718 C   0  0  0  0  0  0  0  0  0  0  0  0
   26.5080  -35.2719   -2.6827 N   0  0  0  0  0  0  0  0  0  0  0  0
   26.2864  -36.5691   -2.0522 C   0  0  1  0  0  0  0  0  0  0  0  0
   27.6493  -37.1585   -1.8109 C   0  0  0  0  0  0  0  0  0  0  0  0
   27.6557  -38.5065   -1.1783 C   0  0  0  0  0  0  0  0  0  0  0  0
   28.9685  -39.0472   -0.8288 C   0  0  0  0  0  0  0  0  0  0  0  0
   29.4061  -38.7532    0.3359 O   0  0  0  0  0  0  0  0  0  0  0  0
   25.5285  -36.3927   -0.7905 C   0  0  0  0  0  0  0  0  0  0  0  0
   24.7434  -37.2790   -0.3871 O   0  0  0  0  0  0  0  0  0  0  0  0
   29.7237  -39.8257   -1.6640 O   0  0  0  0  0  0  0  0  0  0  0  0
   25.6703  -35.2447   -0.0278 O   0  0  0  0  0  0  0  0  0  0  0  0
  2  1  1  1
  3  2  1  0
  4  5  2  0
  4  3  1  0
  6  5  1  0
  7  6  2  0
  8  7  1  0
  8  9  2  0
  9  4  1  0
 10  2  1  0
 11 10  2  0
 13 12  1  0
 13 14  2  0
 15 14  1  0
 16 15  2  0
 17 16  1  0
 18 17  1  6
 18 19  1  0
 19 10  1  0
 20 18  1  0
 21 20  2  0
 22 23  2  0
 22 16  1  0
 23 13  1  0
 24 20  1  0
 25 24  1  0
 26 27  1  0
 25 26  1  1
 27 28  1  0
 28 32  1  0
 28 29  2  0
 30 25  1  0
 30 33  1  0
 31 30  2  0
M  END
$$$$
