FYE.pdb
     RDKit          3D

 33 34  0  0  1  0  0  0  0  0999 V2000
   27.6378  -12.0017  -18.9306 N   0  0  0  0  0  0  0  0  0  0  0  0
   27.3694  -11.6838  -17.5563 C   0  0  1  0  0  0  0  0  0  0  0  0
   28.2486  -10.5806  -17.0478 C   0  0  0  0  0  0  0  0  0  0  0  0
   29.6653  -10.9359  -17.2768 C   0  0  0  0  0  0  0  0  0  0  0  0
   30.5118  -10.0587  -17.9174 C   0  0  0  0  0  0  0  0  0  0  0  0
   31.8341  -10.3723  -18.1522 C   0  0  0  0  0  0  0  0  0  0  0  0
   32.3123  -11.5874  -17.7360 C   0  0  0  0  0  0  0  0  0  0  0  0
   31.4689  -12.4758  -17.0908 C   0  0  0  0  0  0  0  0  0  0  0  0
   30.1488  -12.1524  -16.8612 C   0  0  0  0  0  0  0  0  0  0  0  0
   25.9235  -11.4600  -17.3472 C   0  0  0  0  0  0  0  0  0  0  0  0
   25.1387  -11.2046  -18.3131 O   0  0  0  0  0  0  0  0  0  0  0  0
   23.0520  -17.7097  -16.4532 O   0  0  0  0  0  0  0  0  0  0  0  0
   23.1819  -16.4000  -16.0033 C   0  0  0  0  0  0  0  0  0  0  0  0
   24.2194  -16.0055  -15.1879 C   0  0  0  0  0  0  0  0  0  0  0  0
   24.3621  -14.7161  -14.7347 C   0  0  0  0  0  0  0  0  0  0  0  0
   23.4380  -13.7177  -15.0884 C   0  0  0  0  0  0  0  0  0  0  0  0
   23.5844  -12.3377  -14.6313 C   0  0  0  0  0  0  0  0  0  0  0  0
   24.0319  -11.3548  -15.6850 C   0  0  2  0  0  0  0  0  0  0  0  0
   25.4134  -11.5325  -16.0177 N   0  0  0  0  0  0  0  0  0  0  0  0
   23.7593   -9.9444  -15.3345 C   0  0  0  0  0  0  0  0  0  0  0  0
   24.4982   -9.2401  -14.5978 O   0  0  0  0  0  0  0  0  0  0  0  0
   22.4072  -14.1117  -15.8998 C   0  0  0  0  0  0  0  0  0  0  0  0
   22.2696  -15.4306  -16.3573 C   0  0  0  0  0  0  0  0  0  0  0  0
   22.5931   -9.2611  -15.8292 N   0  0  0  0  0  0  0  0  0  0  0  0
   22.3453   -7.8445  -15.5820 C   0  0  1  0  0  0  0  0  0  0  0  0
   22.2079   -7.1987  -16.9338 C   0  0  0  0  0  0  0  0  0  0  0  0
   21.9933   -5.7252  -16.9152 C   0  0  0  0  0  0  0  0  0  0  0  0
   21.8557   -5.0784  -18.2192 C   0  0  0  0  0  0  0  0  0  0  0  0
   21.9210   -5.8475  -19.2384 O   0  0  0  0  0  0  0  0  0  0  0  0
   21.1193   -7.6830  -14.7644 C   0  0  0  0  0  0  0  0  0  0  0  0
   20.9762   -6.6910  -14.0161 O   0  0  0  0  0  0  0  0  0  0  0  0
   21.6677   -3.7334  -18.3915 O   0  0  0  0  0  0  0  0  0  0  0  0
   20.1034   -8.6242  -14.8085 O   0  0  0  0  0  0  0  0  0  0  0  0
  2  1  1  6
  3  2  1  0
  4  5  2  0
  4  3  1  0
  6  5  1  0
  7  6  2  0
  8  7  1  0
  8  9  2  0
  9  4  1  0
 10  2  1  0
 11 10  2  0
 13 12  1  0
 13 14  2  0
 15 14  1  0
 16 15  2  0
 17 16  1  0
 18 17  1  1
 18 19  1  0
 19 10  1  0
 20 18  1  0
 21 20  2  0
 22 23  2  0
 22 16  1  0
 23 13  1  0
 24 20  1  0
 25 24  1  0
 26 27  1  0
 25 26  1  6
 27 28  1  0
 28 32  1  0
 28 29  2  0
 30 25  1  0
 30 33  1  0
 31 30  2  0
M  END
$$$$
