FYE.pdb
     RDKit          3D

 33 34  0  0  1  0  0  0  0  0999 V2000
   27.8634  -19.6327  -17.1798 N   0  0  0  0  0  0  0  0  0  0  0  0
   27.0396  -18.8140  -16.3355 C   0  0  1  0  0  0  0  0  0  0  0  0
   26.2655  -17.7941  -17.1161 C   0  0  0  0  0  0  0  0  0  0  0  0
   27.2005  -16.8091  -17.7005 C   0  0  0  0  0  0  0  0  0  0  0  0
   27.6152  -16.9286  -19.0081 C   0  0  0  0  0  0  0  0  0  0  0  0
   28.4953  -16.0288  -19.5719 C   0  0  0  0  0  0  0  0  0  0  0  0
   28.9653  -14.9925  -18.8081 C   0  0  0  0  0  0  0  0  0  0  0  0
   28.5538  -14.8639  -17.4924 C   0  0  0  0  0  0  0  0  0  0  0  0
   27.6738  -15.7689  -16.9387 C   0  0  0  0  0  0  0  0  0  0  0  0
   26.2162  -19.6537  -15.4403 C   0  0  0  0  0  0  0  0  0  0  0  0
   25.7441  -20.7715  -15.8172 O   0  0  0  0  0  0  0  0  0  0  0  0
   21.9269  -21.7815   -7.8855 O   0  0  0  0  0  0  0  0  0  0  0  0
   22.7591  -21.1943   -8.8328 C   0  0  0  0  0  0  0  0  0  0  0  0
   24.0912  -21.5260   -8.9431 C   0  0  0  0  0  0  0  0  0  0  0  0
   24.9267  -20.9554   -9.8729 C   0  0  0  0  0  0  0  0  0  0  0  0
   24.4528  -19.9864  -10.7743 C   0  0  0  0  0  0  0  0  0  0  0  0
   25.3222  -19.3829  -11.7817 C   0  0  0  0  0  0  0  0  0  0  0  0
   25.0792  -19.8405  -13.1988 C   0  0  2  0  0  0  0  0  0  0  0  0
   25.9510  -19.1789  -14.1223 N   0  0  0  0  0  0  0  0  0  0  0  0
   23.6708  -19.7116  -13.6304 C   0  0  0  0  0  0  0  0  0  0  0  0
   23.1284  -18.6274  -13.9694 O   0  0  0  0  0  0  0  0  0  0  0  0
   23.1277  -19.6580  -10.6634 C   0  0  0  0  0  0  0  0  0  0  0  0
   22.2824  -20.2458   -9.7107 C   0  0  0  0  0  0  0  0  0  0  0  0
   22.7988  -20.8550  -13.6942 N   0  0  0  0  0  0  0  0  0  0  0  0
   21.3877  -20.7513  -14.0509 C   0  0  1  0  0  0  0  0  0  0  0  0
   21.2647  -21.2986  -15.4468 C   0  0  0  0  0  0  0  0  0  0  0  0
   19.8758  -21.3791  -15.9777 C   0  0  0  0  0  0  0  0  0  0  0  0
   19.7398  -21.8495  -17.3554 C   0  0  0  0  0  0  0  0  0  0  0  0
   20.7908  -22.3475  -17.8863 O   0  0  0  0  0  0  0  0  0  0  0  0
   20.5660  -21.5156  -13.0824 C   0  0  0  0  0  0  0  0  0  0  0  0
   21.0212  -22.5391  -12.5257 O   0  0  0  0  0  0  0  0  0  0  0  0
   18.5784  -21.7819  -18.0771 O   0  0  0  0  0  0  0  0  0  0  0  0
   19.2765  -21.1167  -12.7698 O   0  0  0  0  0  0  0  0  0  0  0  0
  2  1  1  6
  3  2  1  0
  4  5  2  0
  4  3  1  0
  6  5  1  0
  7  6  2  0
  8  7  1  0
  8  9  2  0
  9  4  1  0
 10  2  1  0
 11 10  2  0
 13 12  1  0
 13 14  2  0
 15 14  1  0
 16 15  2  0
 17 16  1  0
 18 17  1  1
 18 19  1  0
 19 10  1  0
 20 18  1  0
 21 20  2  0
 22 23  2  0
 22 16  1  0
 23 13  1  0
 24 20  1  0
 25 24  1  0
 26 27  1  0
 25 26  1  6
 27 28  1  0
 28 32  1  0
 28 29  2  0
 30 25  1  0
 30 33  1  0
 31 30  2  0
M  END
$$$$
