FYE.pdb
     RDKit          3D

 33 34  0  0  1  0  0  0  0  0999 V2000
   26.3954  -10.2328  -18.9417 N   0  0  0  0  0  0  0  0  0  0  0  0
   25.6198  -10.1709  -17.7350 C   0  0  1  0  0  0  0  0  0  0  0  0
   26.3871   -9.5640  -16.5986 C   0  0  0  0  0  0  0  0  0  0  0  0
   27.5794  -10.3907  -16.3136 C   0  0  0  0  0  0  0  0  0  0  0  0
   28.8333   -9.9625  -16.6885 C   0  0  0  0  0  0  0  0  0  0  0  0
   29.9587  -10.7210  -16.4435 C   0  0  0  0  0  0  0  0  0  0  0  0
   29.8204  -11.9292  -15.8114 C   0  0  0  0  0  0  0  0  0  0  0  0
   28.5637  -12.3680  -15.4305 C   0  0  0  0  0  0  0  0  0  0  0  0
   27.4454  -11.6020  -15.6802 C   0  0  0  0  0  0  0  0  0  0  0  0
   24.3072   -9.5420  -17.9922 C   0  0  0  0  0  0  0  0  0  0  0  0
   24.1944   -8.4926  -18.6995 O   0  0  0  0  0  0  0  0  0  0  0  0
   15.4593   -9.4618  -18.9285 O   0  0  0  0  0  0  0  0  0  0  0  0
   16.7700   -9.8049  -18.6136 C   0  0  0  0  0  0  0  0  0  0  0  0
   17.7427   -9.9428  -19.5788 C   0  0  0  0  0  0  0  0  0  0  0  0
   19.0417  -10.2813  -19.2846 C   0  0  0  0  0  0  0  0  0  0  0  0
   19.4484  -10.5076  -17.9582 C   0  0  0  0  0  0  0  0  0  0  0  0
   20.8293  -10.8498  -17.6253 C   0  0  0  0  0  0  0  0  0  0  0  0
   21.8101   -9.7052  -17.6926 C   0  0  2  0  0  0  0  0  0  0  0  0
   23.1467  -10.1406  -17.4196 N   0  0  0  0  0  0  0  0  0  0  0  0
   21.4487   -8.5627  -16.8261 C   0  0  0  0  0  0  0  0  0  0  0  0
   21.7045   -8.4961  -15.5954 O   0  0  0  0  0  0  0  0  0  0  0  0
   18.4799  -10.3696  -16.9997 C   0  0  0  0  0  0  0  0  0  0  0  0
   17.1561  -10.0239  -17.3096 C   0  0  0  0  0  0  0  0  0  0  0  0
   20.7585   -7.4135  -17.3502 N   0  0  0  0  0  0  0  0  0  0  0  0
   20.4847   -6.2251  -16.5488 C   0  0  1  0  0  0  0  0  0  0  0  0
   20.3532   -5.0834  -17.5196 C   0  0  0  0  0  0  0  0  0  0  0  0
   19.9902   -3.7726  -16.9136 C   0  0  0  0  0  0  0  0  0  0  0  0
   19.9144   -2.6378  -17.8323 C   0  0  0  0  0  0  0  0  0  0  0  0
   20.2329   -2.8754  -19.0475 O   0  0  0  0  0  0  0  0  0  0  0  0
   19.2465   -6.4251  -15.7587 C   0  0  0  0  0  0  0  0  0  0  0  0
   18.3515   -7.2018  -16.1588 O   0  0  0  0  0  0  0  0  0  0  0  0
   19.5322   -1.3764  -17.4623 O   0  0  0  0  0  0  0  0  0  0  0  0
   19.0499   -5.7587  -14.5600 O   0  0  0  0  0  0  0  0  0  0  0  0
  2  1  1  6
  3  2  1  0
  4  5  2  0
  4  3  1  0
  6  5  1  0
  7  6  2  0
  8  7  1  0
  8  9  2  0
  9  4  1  0
 10  2  1  0
 11 10  2  0
 13 12  1  0
 13 14  2  0
 15 14  1  0
 16 15  2  0
 17 16  1  0
 18 17  1  1
 18 19  1  0
 19 10  1  0
 20 18  1  0
 21 20  2  0
 22 23  2  0
 22 16  1  0
 23 13  1  0
 24 20  1  0
 25 24  1  0
 26 27  1  0
 25 26  1  6
 27 28  1  0
 28 32  1  0
 28 29  2  0
 30 25  1  0
 30 33  1  0
 31 30  2  0
M  END
$$$$
