FYE.pdb
     RDKit          3D

 33 34  0  0  1  0  0  0  0  0999 V2000
   25.2031  -21.6568  -19.9872 N   0  0  0  0  0  0  0  0  0  0  0  0
   25.0149  -20.6033  -19.0300 C   0  0  1  0  0  0  0  0  0  0  0  0
   24.1009  -19.5299  -19.5410 C   0  0  0  0  0  0  0  0  0  0  0  0
   24.7275  -18.8627  -20.7021 C   0  0  0  0  0  0  0  0  0  0  0  0
   25.7390  -17.9461  -20.5203 C   0  0  0  0  0  0  0  0  0  0  0  0
   26.3310  -17.3027  -21.5868 C   0  0  0  0  0  0  0  0  0  0  0  0
   25.8986  -17.5859  -22.8562 C   0  0  0  0  0  0  0  0  0  0  0  0
   24.8823  -18.5062  -23.0490 C   0  0  0  0  0  0  0  0  0  0  0  0
   24.2974  -19.1436  -21.9759 C   0  0  0  0  0  0  0  0  0  0  0  0
   24.6320  -21.1581  -17.7146 C   0  0  0  0  0  0  0  0  0  0  0  0
   23.8913  -22.1851  -17.6108 O   0  0  0  0  0  0  0  0  0  0  0  0
   23.9417  -21.1212   -8.7897 O   0  0  0  0  0  0  0  0  0  0  0  0
   24.3583  -20.9236  -10.1020 C   0  0  0  0  0  0  0  0  0  0  0  0
   25.1423  -21.8401  -10.7670 C   0  0  0  0  0  0  0  0  0  0  0  0
   25.5625  -21.6601  -12.0630 C   0  0  0  0  0  0  0  0  0  0  0  0
   25.2052  -20.5093  -12.7869 C   0  0  0  0  0  0  0  0  0  0  0  0
   25.6271  -20.3101  -14.1715 C   0  0  0  0  0  0  0  0  0  0  0  0
   24.6685  -20.8250  -15.2167 C   0  0  2  0  0  0  0  0  0  0  0  0
   25.1130  -20.5077  -16.5404 N   0  0  0  0  0  0  0  0  0  0  0  0
   23.2741  -20.3758  -15.0152 C   0  0  0  0  0  0  0  0  0  0  0  0
   22.8789  -19.1918  -15.1782 O   0  0  0  0  0  0  0  0  0  0  0  0
   24.4252  -19.5992  -12.1241 C   0  0  0  0  0  0  0  0  0  0  0  0
   24.0013  -19.7915  -10.8008 C   0  0  0  0  0  0  0  0  0  0  0  0
   22.2428  -21.2931  -14.6067 N   0  0  0  0  0  0  0  0  0  0  0  0
   20.8745  -20.8683  -14.3298 C   0  0  1  0  0  0  0  0  0  0  0  0
   20.0119  -21.5165  -15.3780 C   0  0  0  0  0  0  0  0  0  0  0  0
   18.5481  -21.2901  -15.2254 C   0  0  0  0  0  0  0  0  0  0  0  0
   17.6819  -22.0515  -16.1242 C   0  0  0  0  0  0  0  0  0  0  0  0
   16.4297  -21.8082  -16.0388 O   0  0  0  0  0  0  0  0  0  0  0  0
   20.4863  -21.2821  -12.9603 C   0  0  0  0  0  0  0  0  0  0  0  0
   19.7531  -20.5534  -12.2561 O   0  0  0  0  0  0  0  0  0  0  0  0
   18.1358  -22.9813  -17.0206 O   0  0  0  0  0  0  0  0  0  0  0  0
   20.9244  -22.4835  -12.4270 O   0  0  0  0  0  0  0  0  0  0  0  0
  2  1  1  6
  3  2  1  0
  4  5  2  0
  4  3  1  0
  6  5  1  0
  7  6  2  0
  8  7  1  0
  8  9  2  0
  9  4  1  0
 10  2  1  0
 11 10  2  0
 13 12  1  0
 13 14  2  0
 15 14  1  0
 16 15  2  0
 17 16  1  0
 18 17  1  1
 18 19  1  0
 19 10  1  0
 20 18  1  0
 21 20  2  0
 22 23  2  0
 22 16  1  0
 23 13  1  0
 24 20  1  0
 25 24  1  0
 26 27  1  0
 25 26  1  6
 27 28  1  0
 28 32  1  0
 28 29  2  0
 30 25  1  0
 30 33  1  0
 31 30  2  0
M  END
$$$$
