FYE.pdb
     RDKit          3D

 33 34  0  0  1  0  0  0  0  0999 V2000
   22.9108  -12.4393  -17.8315 N   0  0  0  0  0  0  0  0  0  0  0  0
   22.9946  -11.2926  -18.6916 C   0  0  1  0  0  0  0  0  0  0  0  0
   22.0283  -11.3706  -19.8356 C   0  0  0  0  0  0  0  0  0  0  0  0
   22.2937  -12.5952  -20.6205 C   0  0  0  0  0  0  0  0  0  0  0  0
   21.4837  -13.7008  -20.4869 C   0  0  0  0  0  0  0  0  0  0  0  0
   21.7178  -14.8580  -21.1997 C   0  0  0  0  0  0  0  0  0  0  0  0
   22.7833  -14.9034  -22.0606 C   0  0  0  0  0  0  0  0  0  0  0  0
   23.6031  -13.7967  -22.2018 C   0  0  0  0  0  0  0  0  0  0  0  0
   23.3602  -12.6450  -21.4844 C   0  0  0  0  0  0  0  0  0  0  0  0
   22.9112  -10.0447  -17.9040 C   0  0  0  0  0  0  0  0  0  0  0  0
   22.0314   -9.8792  -17.0024 O   0  0  0  0  0  0  0  0  0  0  0  0
   25.6643   -1.7206  -15.9614 O   0  0  0  0  0  0  0  0  0  0  0  0
   25.5692   -3.0725  -16.2747 C   0  0  0  0  0  0  0  0  0  0  0  0
   25.0685   -3.9967  -15.3848 C   0  0  0  0  0  0  0  0  0  0  0  0
   24.9680   -5.3354  -15.6784 C   0  0  0  0  0  0  0  0  0  0  0  0
   25.3795   -5.8361  -16.9258 C   0  0  0  0  0  0  0  0  0  0  0  0
   25.2626   -7.2532  -17.2620 C   0  0  0  0  0  0  0  0  0  0  0  0
   23.8566   -7.7421  -17.5086 C   0  0  2  0  0  0  0  0  0  0  0  0
   23.8494   -9.0070  -18.1798 N   0  0  0  0  0  0  0  0  0  0  0  0
   23.0073   -6.7678  -18.2271 C   0  0  0  0  0  0  0  0  0  0  0  0
   23.1303   -6.4826  -19.4470 O   0  0  0  0  0  0  0  0  0  0  0  0
   25.8768   -4.9155  -17.8097 C   0  0  0  0  0  0  0  0  0  0  0  0
   25.9758   -3.5507  -17.5008 C   0  0  0  0  0  0  0  0  0  0  0  0
   21.9490   -6.0588  -17.5572 N   0  0  0  0  0  0  0  0  0  0  0  0
   21.1122   -5.0711  -18.2308 C   0  0  1  0  0  0  0  0  0  0  0  0
   19.7397   -5.2009  -17.6286 C   0  0  0  0  0  0  0  0  0  0  0  0
   18.7383   -4.2095  -18.1100 C   0  0  0  0  0  0  0  0  0  0  0  0
   17.3981   -4.7278  -18.3802 C   0  0  0  0  0  0  0  0  0  0  0  0
   17.1960   -5.9523  -18.0732 O   0  0  0  0  0  0  0  0  0  0  0  0
   21.6769   -3.7147  -18.0341 C   0  0  0  0  0  0  0  0  0  0  0  0
   22.1256   -3.3645  -16.9202 O   0  0  0  0  0  0  0  0  0  0  0  0
   16.3862   -3.9870  -18.9290 O   0  0  0  0  0  0  0  0  0  0  0  0
   21.7221   -2.8029  -19.0762 O   0  0  0  0  0  0  0  0  0  0  0  0
  2  1  1  1
  3  2  1  0
  4  5  2  0
  4  3  1  0
  6  5  1  0
  7  6  2  0
  8  7  1  0
  8  9  2  0
  9  4  1  0
 10  2  1  0
 11 10  2  0
 13 12  1  0
 13 14  2  0
 15 14  1  0
 16 15  2  0
 17 16  1  0
 18 17  1  6
 18 19  1  0
 19 10  1  0
 20 18  1  0
 21 20  2  0
 22 23  2  0
 22 16  1  0
 23 13  1  0
 24 20  1  0
 25 24  1  0
 26 27  1  0
 25 26  1  1
 27 28  1  0
 28 32  1  0
 28 29  2  0
 30 25  1  0
 30 33  1  0
 31 30  2  0
M  END
$$$$
