FYE.pdb
     RDKit          3D

 33 34  0  0  1  0  0  0  0  0999 V2000
   24.7274  -16.3543  -17.2530 N   0  0  0  0  0  0  0  0  0  0  0  0
   23.4196  -16.1891  -17.8221 C   0  0  1  0  0  0  0  0  0  0  0  0
   22.9954  -17.3832  -18.6238 C   0  0  0  0  0  0  0  0  0  0  0  0
   23.8434  -17.4918  -19.8301 C   0  0  0  0  0  0  0  0  0  0  0  0
   24.8665  -18.4118  -19.8855 C   0  0  0  0  0  0  0  0  0  0  0  0
   25.6777  -18.5241  -20.9951 C   0  0  0  0  0  0  0  0  0  0  0  0
   25.4561  -17.6978  -22.0658 C   0  0  0  0  0  0  0  0  0  0  0  0
   24.4296  -16.7698  -22.0195 C   0  0  0  0  0  0  0  0  0  0  0  0
   23.6247  -16.6659  -20.9054 C   0  0  0  0  0  0  0  0  0  0  0  0
   22.4509  -15.7715  -16.7868 C   0  0  0  0  0  0  0  0  0  0  0  0
   22.6100  -16.0688  -15.5618 O   0  0  0  0  0  0  0  0  0  0  0  0
   15.3551  -11.4405  -13.5100 O   0  0  0  0  0  0  0  0  0  0  0  0
   16.4177  -11.8790  -14.2930 C   0  0  0  0  0  0  0  0  0  0  0  0
   17.7218  -11.5314  -14.0184 C   0  0  0  0  0  0  0  0  0  0  0  0
   18.7827  -11.9558  -14.7819 C   0  0  0  0  0  0  0  0  0  0  0  0
   18.5843  -12.7816  -15.9020 C   0  0  0  0  0  0  0  0  0  0  0  0
   19.7019  -13.2577  -16.7138 C   0  0  0  0  0  0  0  0  0  0  0  0
   20.2821  -14.5859  -16.2944 C   0  0  2  0  0  0  0  0  0  0  0  0
   21.3103  -15.0182  -17.1924 N   0  0  0  0  0  0  0  0  0  0  0  0
   19.2674  -15.6468  -16.1169 C   0  0  0  0  0  0  0  0  0  0  0  0
   18.8248  -16.3690  -17.0481 O   0  0  0  0  0  0  0  0  0  0  0  0
   17.2869  -13.1267  -16.1733 C   0  0  0  0  0  0  0  0  0  0  0  0
   16.2101  -12.6883  -15.3882 C   0  0  0  0  0  0  0  0  0  0  0  0
   18.7009  -15.9335  -14.8251 N   0  0  0  0  0  0  0  0  0  0  0  0
   17.7060  -16.9801  -14.6154 C   0  0  1  0  0  0  0  0  0  0  0  0
   18.0658  -17.6494  -13.3171 C   0  0  0  0  0  0  0  0  0  0  0  0
   17.1912  -18.7893  -12.9260 C   0  0  0  0  0  0  0  0  0  0  0  0
   17.6399  -20.1171  -13.3424 C   0  0  0  0  0  0  0  0  0  0  0  0
   16.8019  -20.8084  -14.0165 O   0  0  0  0  0  0  0  0  0  0  0  0
   16.3494  -16.3840  -14.5734 C   0  0  0  0  0  0  0  0  0  0  0  0
   16.1088  -15.3933  -13.8487 O   0  0  0  0  0  0  0  0  0  0  0  0
   18.8732  -20.6354  -13.0520 O   0  0  0  0  0  0  0  0  0  0  0  0
   15.3163  -16.9075  -15.3338 O   0  0  0  0  0  0  0  0  0  0  0  0
  2  1  1  1
  3  2  1  0
  4  5  2  0
  4  3  1  0
  6  5  1  0
  7  6  2  0
  8  7  1  0
  8  9  2  0
  9  4  1  0
 10  2  1  0
 11 10  2  0
 13 12  1  0
 13 14  2  0
 15 14  1  0
 16 15  2  0
 17 16  1  0
 18 17  1  6
 18 19  1  0
 19 10  1  0
 20 18  1  0
 21 20  2  0
 22 23  2  0
 22 16  1  0
 23 13  1  0
 24 20  1  0
 25 24  1  0
 26 27  1  0
 25 26  1  1
 27 28  1  0
 28 32  1  0
 28 29  2  0
 30 25  1  0
 30 33  1  0
 31 30  2  0
M  END
$$$$
