FYE.pdb
     RDKit          3D

 33 34  0  0  1  0  0  0  0  0999 V2000
   26.3177  -21.3738  -17.4241 N   0  0  0  0  0  0  0  0  0  0  0  0
   26.7506  -20.6073  -16.2897 C   0  0  1  0  0  0  0  0  0  0  0  0
   28.1970  -20.2232  -16.3840 C   0  0  0  0  0  0  0  0  0  0  0  0
   28.9980  -21.4108  -16.7501 C   0  0  0  0  0  0  0  0  0  0  0  0
   29.6107  -21.4890  -17.9808 C   0  0  0  0  0  0  0  0  0  0  0  0
   30.3536  -22.5910  -18.3492 C   0  0  0  0  0  0  0  0  0  0  0  0
   30.4821  -23.6306  -17.4654 C   0  0  0  0  0  0  0  0  0  0  0  0
   29.8699  -23.5609  -16.2255 C   0  0  0  0  0  0  0  0  0  0  0  0
   29.1296  -22.4548  -15.8674 C   0  0  0  0  0  0  0  0  0  0  0  0
   25.8315  -19.4759  -16.0452 C   0  0  0  0  0  0  0  0  0  0  0  0
   26.0626  -18.6074  -15.1470 O   0  0  0  0  0  0  0  0  0  0  0  0
   28.1948  -14.3017  -18.9725 O   0  0  0  0  0  0  0  0  0  0  0  0
   27.0675  -15.0772  -18.7227 C   0  0  0  0  0  0  0  0  0  0  0  0
   26.8454  -16.2746  -19.3657 C   0  0  0  0  0  0  0  0  0  0  0  0
   25.7372  -17.0524  -19.1307 C   0  0  0  0  0  0  0  0  0  0  0  0
   24.7573  -16.6557  -18.2041 C   0  0  0  0  0  0  0  0  0  0  0  0
   23.5823  -17.4790  -17.9278 C   0  0  0  0  0  0  0  0  0  0  0  0
   23.6765  -18.3410  -16.6930 C   0  0  2  0  0  0  0  0  0  0  0  0
   24.6562  -19.3742  -16.8459 N   0  0  0  0  0  0  0  0  0  0  0  0
   22.3805  -18.9126  -16.2684 C   0  0  0  0  0  0  0  0  0  0  0  0
   21.9598  -20.0489  -16.6096 O   0  0  0  0  0  0  0  0  0  0  0  0
   24.9800  -15.4648  -17.5652 C   0  0  0  0  0  0  0  0  0  0  0  0
   26.1144  -14.6774  -17.8120 C   0  0  0  0  0  0  0  0  0  0  0  0
   21.4857  -18.1838  -15.4083 N   0  0  0  0  0  0  0  0  0  0  0  0
   20.1443  -18.6575  -15.0833 C   0  0  1  0  0  0  0  0  0  0  0  0
   19.7448  -17.9537  -13.8151 C   0  0  0  0  0  0  0  0  0  0  0  0
   18.3614  -18.2347  -13.3412 C   0  0  0  0  0  0  0  0  0  0  0  0
   18.2346  -19.2347  -12.2821 C   0  0  0  0  0  0  0  0  0  0  0  0
   19.3219  -19.5914  -11.7120 O   0  0  0  0  0  0  0  0  0  0  0  0
   19.2185  -18.3531  -16.2002 C   0  0  0  0  0  0  0  0  0  0  0  0
   18.2723  -19.1239  -16.4743 O   0  0  0  0  0  0  0  0  0  0  0  0
   17.0457  -19.7875  -11.8885 O   0  0  0  0  0  0  0  0  0  0  0  0
   19.3771  -17.2100  -16.9669 O   0  0  0  0  0  0  0  0  0  0  0  0
  2  1  1  6
  3  2  1  0
  4  5  2  0
  4  3  1  0
  6  5  1  0
  7  6  2  0
  8  7  1  0
  8  9  2  0
  9  4  1  0
 10  2  1  0
 11 10  2  0
 13 12  1  0
 13 14  2  0
 15 14  1  0
 16 15  2  0
 17 16  1  0
 18 17  1  6
 18 19  1  0
 19 10  1  0
 20 18  1  0
 21 20  2  0
 22 23  2  0
 22 16  1  0
 23 13  1  0
 24 20  1  0
 25 24  1  0
 26 27  1  0
 25 26  1  1
 27 28  1  0
 28 32  1  0
 28 29  2  0
 30 25  1  0
 30 33  1  0
 31 30  2  0
M  END
$$$$
