FYE.pdb
     RDKit          3D

 33 34  0  0  1  0  0  0  0  0999 V2000
   28.5936  -20.3164  -14.6995 N   0  0  0  0  0  0  0  0  0  0  0  0
   27.4232  -19.6252  -14.2370 C   0  0  1  0  0  0  0  0  0  0  0  0
   26.7435  -18.8639  -15.3358 C   0  0  0  0  0  0  0  0  0  0  0  0
   27.5454  -17.6689  -15.6746 C   0  0  0  0  0  0  0  0  0  0  0  0
   27.5269  -16.5597  -14.8587 C   0  0  0  0  0  0  0  0  0  0  0  0
   28.2575  -15.4294  -15.1597 C   0  0  0  0  0  0  0  0  0  0  0  0
   29.0188  -15.4149  -16.2993 C   0  0  0  0  0  0  0  0  0  0  0  0
   29.0439  -16.5255  -17.1257 C   0  0  0  0  0  0  0  0  0  0  0  0
   28.3098  -17.6501  -16.8155 C   0  0  0  0  0  0  0  0  0  0  0  0
   26.5379  -20.5435  -13.4904 C   0  0  0  0  0  0  0  0  0  0  0  0
   26.3374  -21.7386  -13.8722 O   0  0  0  0  0  0  0  0  0  0  0  0
   29.8547  -20.9972   -7.3539 O   0  0  0  0  0  0  0  0  0  0  0  0
   28.6498  -20.8477   -8.0325 C   0  0  0  0  0  0  0  0  0  0  0  0
   28.4354  -21.4031   -9.2744 C   0  0  0  0  0  0  0  0  0  0  0  0
   27.2514  -21.2648   -9.9582 C   0  0  0  0  0  0  0  0  0  0  0  0
   26.1809  -20.5354   -9.4124 C   0  0  0  0  0  0  0  0  0  0  0  0
   24.9086  -20.3938  -10.1168 C   0  0  0  0  0  0  0  0  0  0  0  0
   24.9280  -20.8036  -11.5688 C   0  0  2  0  0  0  0  0  0  0  0  0
   25.8965  -20.0568  -12.3136 N   0  0  0  0  0  0  0  0  0  0  0  0
   23.6034  -20.7339  -12.2225 C   0  0  0  0  0  0  0  0  0  0  0  0
   23.0416  -19.6644  -12.5764 O   0  0  0  0  0  0  0  0  0  0  0  0
   26.3958  -19.9842   -8.1771 C   0  0  0  0  0  0  0  0  0  0  0  0
   27.6081  -20.1306   -7.4867 C   0  0  0  0  0  0  0  0  0  0  0  0
   22.8445  -21.9234  -12.5070 N   0  0  0  0  0  0  0  0  0  0  0  0
   21.5505  -21.8905  -13.1806 C   0  0  1  0  0  0  0  0  0  0  0  0
   21.3076  -23.2833  -13.6946 C   0  0  0  0  0  0  0  0  0  0  0  0
   19.9714  -23.5088  -14.3121 C   0  0  0  0  0  0  0  0  0  0  0  0
   19.4534  -24.8743  -14.2445 C   0  0  0  0  0  0  0  0  0  0  0  0
   20.3211  -25.8099  -14.3233 O   0  0  0  0  0  0  0  0  0  0  0  0
   20.4983  -21.4604  -12.2291 C   0  0  0  0  0  0  0  0  0  0  0  0
   20.5747  -21.7550  -11.0158 O   0  0  0  0  0  0  0  0  0  0  0  0
   18.1273  -25.1849  -14.1065 O   0  0  0  0  0  0  0  0  0  0  0  0
   19.4067  -20.7229  -12.6581 O   0  0  0  0  0  0  0  0  0  0  0  0
  2  1  1  6
  3  2  1  0
  4  5  2  0
  4  3  1  0
  6  5  1  0
  7  6  2  0
  8  7  1  0
  8  9  2  0
  9  4  1  0
 10  2  1  0
 11 10  2  0
 13 12  1  0
 13 14  2  0
 15 14  1  0
 16 15  2  0
 17 16  1  0
 18 17  1  1
 18 19  1  0
 19 10  1  0
 20 18  1  0
 21 20  2  0
 22 23  2  0
 22 16  1  0
 23 13  1  0
 24 20  1  0
 25 24  1  0
 26 27  1  0
 25 26  1  1
 27 28  1  0
 28 32  1  0
 28 29  2  0
 30 25  1  0
 30 33  1  0
 31 30  2  0
M  END
$$$$
