FYE.pdb
     RDKit          3D

 33 34  0  0  1  0  0  0  0  0999 V2000
   28.6035  -20.9085   -9.0895 N   0  0  0  0  0  0  0  0  0  0  0  0
   27.2431  -20.5178   -8.8481 C   0  0  1  0  0  0  0  0  0  0  0  0
   27.1432  -19.3921   -7.8625 C   0  0  0  0  0  0  0  0  0  0  0  0
   27.8760  -19.7517   -6.6298 C   0  0  0  0  0  0  0  0  0  0  0  0
   29.0669  -19.1343   -6.3187 C   0  0  0  0  0  0  0  0  0  0  0  0
   29.7740  -19.4607   -5.1805 C   0  0  0  0  0  0  0  0  0  0  0  0
   29.2750  -20.4232   -4.3421 C   0  0  0  0  0  0  0  0  0  0  0  0
   28.0782  -21.0493   -4.6464 C   0  0  0  0  0  0  0  0  0  0  0  0
   27.3795  -20.7155   -5.7867 C   0  0  0  0  0  0  0  0  0  0  0  0
   26.5364  -20.2788  -10.1240 C   0  0  0  0  0  0  0  0  0  0  0  0
   26.9500  -19.4247  -10.9689 O   0  0  0  0  0  0  0  0  0  0  0  0
   28.7666  -20.9081  -16.6842 O   0  0  0  0  0  0  0  0  0  0  0  0
   27.8605  -21.2067  -15.6719 C   0  0  0  0  0  0  0  0  0  0  0  0
   26.4990  -21.1120  -15.8567 C   0  0  0  0  0  0  0  0  0  0  0  0
   25.5907  -21.4029  -14.8674 C   0  0  0  0  0  0  0  0  0  0  0  0
   26.0156  -21.8195  -13.5939 C   0  0  0  0  0  0  0  0  0  0  0  0
   25.0638  -22.1511  -12.5361 C   0  0  0  0  0  0  0  0  0  0  0  0
   24.6625  -20.9996  -11.6475 C   0  0  2  0  0  0  0  0  0  0  0  0
   25.3577  -21.0335  -10.3960 N   0  0  0  0  0  0  0  0  0  0  0  0
   23.2035  -20.8996  -11.4288 C   0  0  0  0  0  0  0  0  0  0  0  0
   22.5643  -21.5774  -10.5821 O   0  0  0  0  0  0  0  0  0  0  0  0
   27.3700  -21.9135  -13.4120 C   0  0  0  0  0  0  0  0  0  0  0  0
   28.2897  -21.6141  -14.4280 C   0  0  0  0  0  0  0  0  0  0  0  0
   22.3914  -19.9905  -12.1942 N   0  0  0  0  0  0  0  0  0  0  0  0
   20.9424  -19.9093  -12.0427 C   0  0  1  0  0  0  0  0  0  0  0  0
   20.4659  -18.9215  -13.0725 C   0  0  0  0  0  0  0  0  0  0  0  0
   18.9879  -18.7705  -13.1720 C   0  0  0  0  0  0  0  0  0  0  0  0
   18.5055  -17.7775  -14.1306 C   0  0  0  0  0  0  0  0  0  0  0  0
   19.3793  -17.2968  -14.9305 O   0  0  0  0  0  0  0  0  0  0  0  0
   20.3397  -21.2490  -12.2405 C   0  0  0  0  0  0  0  0  0  0  0  0
   19.3703  -21.6230  -11.5440 O   0  0  0  0  0  0  0  0  0  0  0  0
   17.2060  -17.3536  -14.2064 O   0  0  0  0  0  0  0  0  0  0  0  0
   20.8331  -22.1187  -13.1996 O   0  0  0  0  0  0  0  0  0  0  0  0
  2  1  1  6
  3  2  1  0
  4  5  2  0
  4  3  1  0
  6  5  1  0
  7  6  2  0
  8  7  1  0
  8  9  2  0
  9  4  1  0
 10  2  1  0
 11 10  2  0
 13 12  1  0
 13 14  2  0
 15 14  1  0
 16 15  2  0
 17 16  1  0
 18 17  1  1
 18 19  1  0
 19 10  1  0
 20 18  1  0
 21 20  2  0
 22 23  2  0
 22 16  1  0
 23 13  1  0
 24 20  1  0
 25 24  1  0
 26 27  1  0
 25 26  1  6
 27 28  1  0
 28 32  1  0
 28 29  2  0
 30 25  1  0
 30 33  1  0
 31 30  2  0
M  END
$$$$
