FYE.pdb
     RDKit          3D

 33 34  0  0  1  0  0  0  0  0999 V2000
   26.5216  -18.8171  -14.6532 N   0  0  0  0  0  0  0  0  0  0  0  0
   26.6163  -20.2338  -14.8668 C   0  0  1  0  0  0  0  0  0  0  0  0
   27.9898  -20.6508  -15.3008 C   0  0  0  0  0  0  0  0  0  0  0  0
   28.3164  -20.0021  -16.5887 C   0  0  0  0  0  0  0  0  0  0  0  0
   29.3621  -19.1105  -16.6775 C   0  0  0  0  0  0  0  0  0  0  0  0
   29.6788  -18.4846  -17.8648 C   0  0  0  0  0  0  0  0  0  0  0  0
   28.9317  -18.7601  -18.9804 C   0  0  0  0  0  0  0  0  0  0  0  0
   27.8786  -19.6554  -18.9010 C   0  0  0  0  0  0  0  0  0  0  0  0
   27.5705  -20.2754  -17.7091 C   0  0  0  0  0  0  0  0  0  0  0  0
   26.0933  -20.9721  -13.6981 C   0  0  0  0  0  0  0  0  0  0  0  0
   26.1561  -22.2389  -13.6232 O   0  0  0  0  0  0  0  0  0  0  0  0
   29.4722  -20.8876   -7.5614 O   0  0  0  0  0  0  0  0  0  0  0  0
   28.2769  -20.6966   -8.2465 C   0  0  0  0  0  0  0  0  0  0  0  0
   27.3700  -19.7271   -7.8801 C   0  0  0  0  0  0  0  0  0  0  0  0
   26.1849  -19.5255   -8.5459 C   0  0  0  0  0  0  0  0  0  0  0  0
   25.8340  -20.3146   -9.6550 C   0  0  0  0  0  0  0  0  0  0  0  0
   24.5871  -20.1020  -10.3863 C   0  0  0  0  0  0  0  0  0  0  0  0
   24.5170  -20.7582  -11.7432 C   0  0  2  0  0  0  0  0  0  0  0  0
   25.5018  -20.2263  -12.6365 N   0  0  0  0  0  0  0  0  0  0  0  0
   23.1738  -20.7047  -12.3592 C   0  0  0  0  0  0  0  0  0  0  0  0
   22.7114  -19.7049  -12.9687 O   0  0  0  0  0  0  0  0  0  0  0  0
   26.7373  -21.2780  -10.0183 C   0  0  0  0  0  0  0  0  0  0  0  0
   27.9447  -21.4766   -9.3322 C   0  0  0  0  0  0  0  0  0  0  0  0
   22.2773  -21.8293  -12.3013 N   0  0  0  0  0  0  0  0  0  0  0  0
   20.9513  -21.8125  -12.9102 C   0  0  1  0  0  0  0  0  0  0  0  0
   20.8354  -23.0860  -13.7026 C   0  0  0  0  0  0  0  0  0  0  0  0
   20.0318  -22.9860  -14.9522 C   0  0  0  0  0  0  0  0  0  0  0  0
   20.5975  -23.6334  -16.1348 C   0  0  0  0  0  0  0  0  0  0  0  0
   21.7875  -24.0847  -16.0140 O   0  0  0  0  0  0  0  0  0  0  0  0
   19.9140  -21.7210  -11.8551 C   0  0  0  0  0  0  0  0  0  0  0  0
   18.7118  -21.5476  -12.1540 O   0  0  0  0  0  0  0  0  0  0  0  0
   19.9337  -23.7719  -17.3240 O   0  0  0  0  0  0  0  0  0  0  0  0
   20.2488  -21.8252  -10.5147 O   0  0  0  0  0  0  0  0  0  0  0  0
  2  1  1  1
  3  2  1  0
  4  5  2  0
  4  3  1  0
  6  5  1  0
  7  6  2  0
  8  7  1  0
  8  9  2  0
  9  4  1  0
 10  2  1  0
 11 10  2  0
 13 12  1  0
 13 14  2  0
 15 14  1  0
 16 15  2  0
 17 16  1  0
 18 17  1  1
 18 19  1  0
 19 10  1  0
 20 18  1  0
 21 20  2  0
 22 23  2  0
 22 16  1  0
 23 13  1  0
 24 20  1  0
 25 24  1  0
 26 27  1  0
 25 26  1  1
 27 28  1  0
 28 32  1  0
 28 29  2  0
 30 25  1  0
 30 33  1  0
 31 30  2  0
M  END
$$$$
