FYE.pdb
     RDKit          3D

 33 34  0  0  1  0  0  0  0  0999 V2000
   22.4073   -6.0576  -17.2880 N   0  0  0  0  0  0  0  0  0  0  0  0
   22.9308   -6.7380  -16.1371 C   0  0  1  0  0  0  0  0  0  0  0  0
   22.0599   -6.5606  -14.9292 C   0  0  0  0  0  0  0  0  0  0  0  0
   21.7922   -5.1212  -14.7234 C   0  0  0  0  0  0  0  0  0  0  0  0
   22.8168   -4.2573  -14.4072 C   0  0  0  0  0  0  0  0  0  0  0  0
   22.5900   -2.9130  -14.1996 C   0  0  0  0  0  0  0  0  0  0  0  0
   21.3123   -2.4301  -14.3121 C   0  0  0  0  0  0  0  0  0  0  0  0
   20.2756   -3.2910  -14.6300 C   0  0  0  0  0  0  0  0  0  0  0  0
   20.5133   -4.6331  -14.8354 C   0  0  0  0  0  0  0  0  0  0  0  0
   23.2459   -8.1447  -16.4631 C   0  0  0  0  0  0  0  0  0  0  0  0
   22.5324   -8.8219  -17.2672 O   0  0  0  0  0  0  0  0  0  0  0  0
   28.0678  -15.6657  -16.4333 O   0  0  0  0  0  0  0  0  0  0  0  0
   27.6112  -14.3688  -16.2228 C   0  0  0  0  0  0  0  0  0  0  0  0
   27.6964  -13.3960  -17.1940 C   0  0  0  0  0  0  0  0  0  0  0  0
   27.2505  -12.1104  -17.0021 C   0  0  0  0  0  0  0  0  0  0  0  0
   26.6743  -11.7184  -15.7813 C   0  0  0  0  0  0  0  0  0  0  0  0
   26.1777  -10.3612  -15.5662 C   0  0  0  0  0  0  0  0  0  0  0  0
   24.7687  -10.1085  -16.0429 C   0  0  2  0  0  0  0  0  0  0  0  0
   24.3834   -8.7434  -15.8462 N   0  0  0  0  0  0  0  0  0  0  0  0
   23.7687  -11.0214  -15.4484 C   0  0  0  0  0  0  0  0  0  0  0  0
   23.2325  -10.8509  -14.3223 O   0  0  0  0  0  0  0  0  0  0  0  0
   26.5900  -12.6872  -14.8168 C   0  0  0  0  0  0  0  0  0  0  0  0
   27.0483  -13.9971  -15.0218 C   0  0  0  0  0  0  0  0  0  0  0  0
   23.3277  -12.2035  -16.1411 N   0  0  0  0  0  0  0  0  0  0  0  0
   22.2963  -13.0891  -15.6109 C   0  0  1  0  0  0  0  0  0  0  0  0
   21.0137  -12.6979  -16.2929 C   0  0  0  0  0  0  0  0  0  0  0  0
   19.8314  -13.5365  -15.9522 C   0  0  0  0  0  0  0  0  0  0  0  0
   18.5558  -13.1155  -16.5296 C   0  0  0  0  0  0  0  0  0  0  0  0
   18.6210  -12.2438  -17.4625 O   0  0  0  0  0  0  0  0  0  0  0  0
   22.6580  -14.5012  -15.8806 C   0  0  0  0  0  0  0  0  0  0  0  0
   23.2850  -14.8137  -16.9168 O   0  0  0  0  0  0  0  0  0  0  0  0
   17.3378  -13.5952  -16.1291 O   0  0  0  0  0  0  0  0  0  0  0  0
   22.3119  -15.5080  -14.9939 O   0  0  0  0  0  0  0  0  0  0  0  0
  2  1  1  6
  3  2  1  0
  4  5  2  0
  4  3  1  0
  6  5  1  0
  7  6  2  0
  8  7  1  0
  8  9  2  0
  9  4  1  0
 10  2  1  0
 11 10  2  0
 13 12  1  0
 13 14  2  0
 15 14  1  0
 16 15  2  0
 17 16  1  0
 18 17  1  1
 18 19  1  0
 19 10  1  0
 20 18  1  0
 21 20  2  0
 22 23  2  0
 22 16  1  0
 23 13  1  0
 24 20  1  0
 25 24  1  0
 26 27  1  0
 25 26  1  6
 27 28  1  0
 28 32  1  0
 28 29  2  0
 30 25  1  0
 30 33  1  0
 31 30  2  0
M  END
$$$$
