FYE.pdb
     RDKit          3D

 33 34  0  0  1  0  0  0  0  0999 V2000
   27.4140  -22.9384  -17.7580 N   0  0  0  0  0  0  0  0  0  0  0  0
   27.2105  -21.6935  -17.0722 C   0  0  1  0  0  0  0  0  0  0  0  0
   26.5918  -20.6533  -17.9576 C   0  0  0  0  0  0  0  0  0  0  0  0
   27.5168  -20.3392  -19.0674 C   0  0  0  0  0  0  0  0  0  0  0  0
   28.6561  -19.5997  -18.8404 C   0  0  0  0  0  0  0  0  0  0  0  0
   29.5281  -19.2846  -19.8613 C   0  0  0  0  0  0  0  0  0  0  0  0
   29.2495  -19.7204  -21.1305 C   0  0  0  0  0  0  0  0  0  0  0  0
   28.1065  -20.4647  -21.3685 C   0  0  0  0  0  0  0  0  0  0  0  0
   27.2416  -20.7740  -20.3407 C   0  0  0  0  0  0  0  0  0  0  0  0
   26.4982  -21.9132  -15.7959 C   0  0  0  0  0  0  0  0  0  0  0  0
   25.5009  -22.6959  -15.7116 O   0  0  0  0  0  0  0  0  0  0  0  0
   24.7136  -20.4047   -7.1258 O   0  0  0  0  0  0  0  0  0  0  0  0
   25.3030  -20.4751   -8.3837 C   0  0  0  0  0  0  0  0  0  0  0  0
   25.4279  -19.3703   -9.1964 C   0  0  0  0  0  0  0  0  0  0  0  0
   26.0072  -19.4228  -10.4414 C   0  0  0  0  0  0  0  0  0  0  0  0
   26.5103  -20.6304  -10.9558 C   0  0  0  0  0  0  0  0  0  0  0  0
   27.1462  -20.7011  -12.2693 C   0  0  0  0  0  0  0  0  0  0  0  0
   26.2752  -21.2388  -13.3778 C   0  0  2  0  0  0  0  0  0  0  0  0
   26.9540  -21.2164  -14.6384 N   0  0  0  0  0  0  0  0  0  0  0  0
   24.9636  -20.5638  -13.4819 C   0  0  0  0  0  0  0  0  0  0  0  0
   24.7906  -19.4216  -13.9820 O   0  0  0  0  0  0  0  0  0  0  0  0
   26.3856  -21.7280  -10.1459 C   0  0  0  0  0  0  0  0  0  0  0  0
   25.7924  -21.6647   -8.8763 C   0  0  0  0  0  0  0  0  0  0  0  0
   23.7588  -21.1892  -13.0033 N   0  0  0  0  0  0  0  0  0  0  0  0
   22.4528  -20.5422  -13.0750 C   0  0  1  0  0  0  0  0  0  0  0  0
   21.5947  -21.4206  -13.9440 C   0  0  0  0  0  0  0  0  0  0  0  0
   20.1975  -20.9461  -14.1440 C   0  0  0  0  0  0  0  0  0  0  0  0
   19.3309  -21.8137  -14.9401 C   0  0  0  0  0  0  0  0  0  0  0  0
   19.8810  -22.8554  -15.4369 O   0  0  0  0  0  0  0  0  0  0  0  0
   21.8896  -20.3927  -11.7120 C   0  0  0  0  0  0  0  0  0  0  0  0
   22.2762  -21.1275  -10.7765 O   0  0  0  0  0  0  0  0  0  0  0  0
   18.0038  -21.5686  -15.1701 O   0  0  0  0  0  0  0  0  0  0  0  0
   20.9234  -19.4375  -11.4402 O   0  0  0  0  0  0  0  0  0  0  0  0
  2  1  1  6
  3  2  1  0
  4  5  2  0
  4  3  1  0
  6  5  1  0
  7  6  2  0
  8  7  1  0
  8  9  2  0
  9  4  1  0
 10  2  1  0
 11 10  2  0
 13 12  1  0
 13 14  2  0
 15 14  1  0
 16 15  2  0
 17 16  1  0
 18 17  1  1
 18 19  1  0
 19 10  1  0
 20 18  1  0
 21 20  2  0
 22 23  2  0
 22 16  1  0
 23 13  1  0
 24 20  1  0
 25 24  1  0
 26 27  1  0
 25 26  1  6
 27 28  1  0
 28 32  1  0
 28 29  2  0
 30 25  1  0
 30 33  1  0
 31 30  2  0
M  END
$$$$
