FYE.pdb
     RDKit          3D

 33 34  0  0  1  0  0  0  0  0999 V2000
   26.6211  -22.5730  -12.9233 N   0  0  0  0  0  0  0  0  0  0  0  0
   26.0512  -21.5931  -12.0420 C   0  0  1  0  0  0  0  0  0  0  0  0
   26.8934  -20.3558  -11.9499 C   0  0  0  0  0  0  0  0  0  0  0  0
   28.1077  -20.6457  -11.1578 C   0  0  0  0  0  0  0  0  0  0  0  0
   28.0267  -20.8304   -9.7956 C   0  0  0  0  0  0  0  0  0  0  0  0
   29.1467  -21.0908   -9.0341 C   0  0  0  0  0  0  0  0  0  0  0  0
   30.3673  -21.1665   -9.6529 C   0  0  0  0  0  0  0  0  0  0  0  0
   30.4586  -20.9824  -11.0221 C   0  0  0  0  0  0  0  0  0  0  0  0
   29.3328  -20.7226  -11.7738 C   0  0  0  0  0  0  0  0  0  0  0  0
   24.6353  -21.3455  -12.3858 C   0  0  0  0  0  0  0  0  0  0  0  0
   24.1364  -21.7312  -13.4888 O   0  0  0  0  0  0  0  0  0  0  0  0
   16.1490  -19.1288  -10.4871 O   0  0  0  0  0  0  0  0  0  0  0  0
   17.5306  -19.2883  -10.4688 C   0  0  0  0  0  0  0  0  0  0  0  0
   18.3850  -18.3277  -10.9629 C   0  0  0  0  0  0  0  0  0  0  0  0
   19.7518  -18.4696  -10.9526 C   0  0  0  0  0  0  0  0  0  0  0  0
   20.3559  -19.6248  -10.4268 C   0  0  0  0  0  0  0  0  0  0  0  0
   21.8078  -19.7846  -10.3904 C   0  0  0  0  0  0  0  0  0  0  0  0
   22.4112  -20.4604  -11.5970 C   0  0  2  0  0  0  0  0  0  0  0  0
   23.8223  -20.6496  -11.4435 N   0  0  0  0  0  0  0  0  0  0  0  0
   22.1149  -19.7727  -12.8721 C   0  0  0  0  0  0  0  0  0  0  0  0
   22.7203  -18.7488  -13.2840 O   0  0  0  0  0  0  0  0  0  0  0  0
   19.5048  -20.5789   -9.9355 C   0  0  0  0  0  0  0  0  0  0  0  0
   18.1105  -20.4252   -9.9506 C   0  0  0  0  0  0  0  0  0  0  0  0
   21.0812  -20.2446  -13.7556 N   0  0  0  0  0  0  0  0  0  0  0  0
   20.7144  -19.5467  -14.9835 C   0  0  1  0  0  0  0  0  0  0  0  0
   20.9399  -20.5225  -16.1061 C   0  0  0  0  0  0  0  0  0  0  0  0
   20.4825  -20.0649  -17.4472 C   0  0  0  0  0  0  0  0  0  0  0  0
   21.3325  -19.0811  -18.1161 C   0  0  0  0  0  0  0  0  0  0  0  0
   22.4951  -18.9077  -17.6134 O   0  0  0  0  0  0  0  0  0  0  0  0
   19.3011  -19.1058  -14.9090 C   0  0  0  0  0  0  0  0  0  0  0  0
   18.4564  -19.7722  -14.2710 O   0  0  0  0  0  0  0  0  0  0  0  0
   20.9520  -18.3620  -19.2170 O   0  0  0  0  0  0  0  0  0  0  0  0
   18.8810  -17.9473  -15.5423 O   0  0  0  0  0  0  0  0  0  0  0  0
  2  1  1  6
  3  2  1  0
  4  5  2  0
  4  3  1  0
  6  5  1  0
  7  6  2  0
  8  7  1  0
  8  9  2  0
  9  4  1  0
 10  2  1  0
 11 10  2  0
 13 12  1  0
 13 14  2  0
 15 14  1  0
 16 15  2  0
 17 16  1  0
 18 17  1  1
 18 19  1  0
 19 10  1  0
 20 18  1  0
 21 20  2  0
 22 23  2  0
 22 16  1  0
 23 13  1  0
 24 20  1  0
 25 24  1  0
 26 27  1  0
 25 26  1  6
 27 28  1  0
 28 32  1  0
 28 29  2  0
 30 25  1  0
 30 33  1  0
 31 30  2  0
M  END
$$$$
