FYE.pdb
     RDKit          3D

 33 34  0  0  1  0  0  0  0  0999 V2000
   24.4786  -13.4255  -17.9883 N   0  0  0  0  0  0  0  0  0  0  0  0
   23.6289  -12.3438  -18.4003 C   0  0  1  0  0  0  0  0  0  0  0  0
   22.2723  -12.8197  -18.8266 C   0  0  0  0  0  0  0  0  0  0  0  0
   22.3950  -13.5961  -20.0789 C   0  0  0  0  0  0  0  0  0  0  0  0
   22.3083  -14.9704  -20.0612 C   0  0  0  0  0  0  0  0  0  0  0  0
   22.4307  -15.7167  -21.2145 C   0  0  0  0  0  0  0  0  0  0  0  0
   22.6435  -15.0703  -22.4041 C   0  0  0  0  0  0  0  0  0  0  0  0
   22.7318  -13.6889  -22.4319 C   0  0  0  0  0  0  0  0  0  0  0  0
   22.6081  -12.9525  -21.2733 C   0  0  0  0  0  0  0  0  0  0  0  0
   23.6098  -11.2783  -17.3762 C   0  0  0  0  0  0  0  0  0  0  0  0
   23.4431  -11.5371  -16.1435 O   0  0  0  0  0  0  0  0  0  0  0  0
   29.2135  -12.0208  -15.3657 O   0  0  0  0  0  0  0  0  0  0  0  0
   28.2227  -11.1024  -15.6966 C   0  0  0  0  0  0  0  0  0  0  0  0
   27.3317  -10.6190  -14.7643 C   0  0  0  0  0  0  0  0  0  0  0  0
   26.3472   -9.7119  -15.0747 C   0  0  0  0  0  0  0  0  0  0  0  0
   26.1991   -9.2237  -16.3846 C   0  0  0  0  0  0  0  0  0  0  0  0
   25.1703   -8.2450  -16.7287 C   0  0  0  0  0  0  0  0  0  0  0  0
   23.7821   -8.8075  -16.9103 C   0  0  2  0  0  0  0  0  0  0  0  0
   23.7809   -9.9282  -17.8016 N   0  0  0  0  0  0  0  0  0  0  0  0
   22.7861   -7.8019  -17.3387 C   0  0  0  0  0  0  0  0  0  0  0  0
   22.6463   -7.4010  -18.5238 O   0  0  0  0  0  0  0  0  0  0  0  0
   27.0864   -9.7052  -17.3104 C   0  0  0  0  0  0  0  0  0  0  0  0
   28.0881  -10.6315  -16.9841 C   0  0  0  0  0  0  0  0  0  0  0  0
   21.8806   -7.1959  -16.3981 N   0  0  0  0  0  0  0  0  0  0  0  0
   20.8280   -6.2696  -16.8020 C   0  0  1  0  0  0  0  0  0  0  0  0
   19.6244   -6.6092  -15.9659 C   0  0  0  0  0  0  0  0  0  0  0  0
   18.4809   -5.6627  -16.0842 C   0  0  0  0  0  0  0  0  0  0  0  0
   17.3153   -5.9542  -15.2511 C   0  0  0  0  0  0  0  0  0  0  0  0
   16.3275   -5.1505  -15.3645 O   0  0  0  0  0  0  0  0  0  0  0  0
   21.2760   -4.8732  -16.5856 C   0  0  0  0  0  0  0  0  0  0  0  0
   22.0843   -4.5955  -15.6723 O   0  0  0  0  0  0  0  0  0  0  0  0
   17.2375   -7.0114  -14.3849 O   0  0  0  0  0  0  0  0  0  0  0  0
   20.8122   -3.8429  -17.3876 O   0  0  0  0  0  0  0  0  0  0  0  0
  2  1  1  1
  3  2  1  0
  4  5  2  0
  4  3  1  0
  6  5  1  0
  7  6  2  0
  8  7  1  0
  8  9  2  0
  9  4  1  0
 10  2  1  0
 11 10  2  0
 13 12  1  0
 13 14  2  0
 15 14  1  0
 16 15  2  0
 17 16  1  0
 18 17  1  6
 18 19  1  0
 19 10  1  0
 20 18  1  0
 21 20  2  0
 22 23  2  0
 22 16  1  0
 23 13  1  0
 24 20  1  0
 25 24  1  0
 26 27  1  0
 25 26  1  1
 27 28  1  0
 28 32  1  0
 28 29  2  0
 30 25  1  0
 30 33  1  0
 31 30  2  0
M  END
$$$$
