FYE.pdb
     RDKit          3D

 33 34  0  0  1  0  0  0  0  0999 V2000
   25.5798  -16.4759  -21.1088 N   0  0  0  0  0  0  0  0  0  0  0  0
   24.4228  -17.3220  -21.0241 C   0  0  1  0  0  0  0  0  0  0  0  0
   24.7874  -18.7609  -20.8115 C   0  0  0  0  0  0  0  0  0  0  0  0
   25.5978  -19.2364  -21.9531 C   0  0  0  0  0  0  0  0  0  0  0  0
   26.9562  -19.4183  -21.8190 C   0  0  0  0  0  0  0  0  0  0  0  0
   27.7345  -19.8502  -22.8723 C   0  0  0  0  0  0  0  0  0  0  0  0
   27.1369  -20.1032  -24.0795 C   0  0  0  0  0  0  0  0  0  0  0  0
   25.7717  -19.9235  -24.2239 C   0  0  0  0  0  0  0  0  0  0  0  0
   25.0029  -19.4913  -23.1645 C   0  0  0  0  0  0  0  0  0  0  0  0
   23.4560  -16.7843  -20.0440 C   0  0  0  0  0  0  0  0  0  0  0  0
   23.8323  -16.2707  -18.9445 O   0  0  0  0  0  0  0  0  0  0  0  0
   22.8803  -10.3600  -20.9669 O   0  0  0  0  0  0  0  0  0  0  0  0
   22.2219  -11.5695  -20.7710 C   0  0  0  0  0  0  0  0  0  0  0  0
   22.2471  -12.5771  -21.7095 C   0  0  0  0  0  0  0  0  0  0  0  0
   21.6020  -13.7774  -21.5316 C   0  0  0  0  0  0  0  0  0  0  0  0
   20.8709  -14.0400  -20.3601 C   0  0  0  0  0  0  0  0  0  0  0  0
   20.1945  -15.3173  -20.1459 C   0  0  0  0  0  0  0  0  0  0  0  0
   21.0309  -16.3855  -19.4856 C   0  0  2  0  0  0  0  0  0  0  0  0
   22.0665  -16.8559  -20.3556 N   0  0  0  0  0  0  0  0  0  0  0  0
   20.2391  -17.5185  -18.9603 C   0  0  0  0  0  0  0  0  0  0  0  0
   19.9255  -18.5369  -19.6307 O   0  0  0  0  0  0  0  0  0  0  0  0
   20.8472  -13.0369  -19.4277 C   0  0  0  0  0  0  0  0  0  0  0  0
   21.5087  -11.8147  -19.6182 C   0  0  0  0  0  0  0  0  0  0  0  0
   19.7595  -17.5324  -17.6033 N   0  0  0  0  0  0  0  0  0  0  0  0
   18.9429  -18.6163  -17.0669 C   0  0  1  0  0  0  0  0  0  0  0  0
   19.8996  -19.5948  -16.4418 C   0  0  0  0  0  0  0  0  0  0  0  0
   20.4968  -19.1615  -15.1484 C   0  0  0  0  0  0  0  0  0  0  0  0
   20.1700  -19.9806  -13.9822 C   0  0  0  0  0  0  0  0  0  0  0  0
   19.3519  -20.9426  -14.1818 O   0  0  0  0  0  0  0  0  0  0  0  0
   17.9777  -18.0781  -16.0790 C   0  0  0  0  0  0  0  0  0  0  0  0
   18.1589  -16.9576  -15.5533 O   0  0  0  0  0  0  0  0  0  0  0  0
   20.6819  -19.7701  -12.7301 O   0  0  0  0  0  0  0  0  0  0  0  0
   16.8531  -18.8003  -15.7140 O   0  0  0  0  0  0  0  0  0  0  0  0
  2  1  1  1
  3  2  1  0
  4  5  2  0
  4  3  1  0
  6  5  1  0
  7  6  2  0
  8  7  1  0
  8  9  2  0
  9  4  1  0
 10  2  1  0
 11 10  2  0
 13 12  1  0
 13 14  2  0
 15 14  1  0
 16 15  2  0
 17 16  1  0
 18 17  1  6
 18 19  1  0
 19 10  1  0
 20 18  1  0
 21 20  2  0
 22 23  2  0
 22 16  1  0
 23 13  1  0
 24 20  1  0
 25 24  1  0
 26 27  1  0
 25 26  1  1
 27 28  1  0
 28 32  1  0
 28 29  2  0
 30 25  1  0
 30 33  1  0
 31 30  2  0
M  END
$$$$
