FYE.pdb
     RDKit          3D

 33 34  0  0  1  0  0  0  0  0999 V2000
   28.1200  -20.4724  -15.5121 N   0  0  0  0  0  0  0  0  0  0  0  0
   27.1444  -19.6879  -14.8090 C   0  0  1  0  0  0  0  0  0  0  0  0
   26.3198  -18.8456  -15.7358 C   0  0  0  0  0  0  0  0  0  0  0  0
   27.1583  -17.7627  -16.2929 C   0  0  0  0  0  0  0  0  0  0  0  0
   27.6478  -17.8474  -17.5772 C   0  0  0  0  0  0  0  0  0  0  0  0
   28.4410  -16.8555  -18.1148 C   0  0  0  0  0  0  0  0  0  0  0  0
   28.7464  -15.7612  -17.3482 C   0  0  0  0  0  0  0  0  0  0  0  0
   28.2587  -15.6671  -16.0559 C   0  0  0  0  0  0  0  0  0  0  0  0
   27.4667  -16.6643  -15.5283 C   0  0  0  0  0  0  0  0  0  0  0  0
   26.3574  -20.5377  -13.8909 C   0  0  0  0  0  0  0  0  0  0  0  0
   26.0489  -21.7347  -14.1850 O   0  0  0  0  0  0  0  0  0  0  0  0
   30.8177  -21.6648   -8.8414 O   0  0  0  0  0  0  0  0  0  0  0  0
   29.5093  -21.3498   -9.1928 C   0  0  0  0  0  0  0  0  0  0  0  0
   28.5154  -21.1961   -8.2518 C   0  0  0  0  0  0  0  0  0  0  0  0
   27.2182  -20.8853   -8.5820 C   0  0  0  0  0  0  0  0  0  0  0  0
   26.8354  -20.7056   -9.9226 C   0  0  0  0  0  0  0  0  0  0  0  0
   25.4652  -20.3564  -10.2908 C   0  0  0  0  0  0  0  0  0  0  0  0
   25.0851  -20.6611  -11.7188 C   0  0  2  0  0  0  0  0  0  0  0  0
   25.9379  -19.9814  -12.6469 N   0  0  0  0  0  0  0  0  0  0  0  0
   23.6639  -20.3905  -12.0249 C   0  0  0  0  0  0  0  0  0  0  0  0
   23.1480  -19.2424  -12.0451 O   0  0  0  0  0  0  0  0  0  0  0  0
   27.8251  -20.8584  -10.8570 C   0  0  0  0  0  0  0  0  0  0  0  0
   29.1468  -21.1761  -10.5103 C   0  0  0  0  0  0  0  0  0  0  0  0
   22.7468  -21.4570  -12.3306 N   0  0  0  0  0  0  0  0  0  0  0  0
   21.3411  -21.2222  -12.6440 C   0  0  1  0  0  0  0  0  0  0  0  0
   21.2444  -21.1866  -14.1449 C   0  0  0  0  0  0  0  0  0  0  0  0
   19.8613  -21.1051  -14.6907 C   0  0  0  0  0  0  0  0  0  0  0  0
   19.3467  -19.7597  -14.9416 C   0  0  0  0  0  0  0  0  0  0  0  0
   20.2022  -18.8940  -15.3328 O   0  0  0  0  0  0  0  0  0  0  0  0
   20.5084  -22.3013  -12.0612 C   0  0  0  0  0  0  0  0  0  0  0  0
   19.3846  -22.0487  -11.5735 O   0  0  0  0  0  0  0  0  0  0  0  0
   18.0362  -19.3982  -14.7809 O   0  0  0  0  0  0  0  0  0  0  0  0
   20.9525  -23.6136  -12.0423 O   0  0  0  0  0  0  0  0  0  0  0  0
  2  1  1  6
  3  2  1  0
  4  5  2  0
  4  3  1  0
  6  5  1  0
  7  6  2  0
  8  7  1  0
  8  9  2  0
  9  4  1  0
 10  2  1  0
 11 10  2  0
 13 12  1  0
 13 14  2  0
 15 14  1  0
 16 15  2  0
 17 16  1  0
 18 17  1  1
 18 19  1  0
 19 10  1  0
 20 18  1  0
 21 20  2  0
 22 23  2  0
 22 16  1  0
 23 13  1  0
 24 20  1  0
 25 24  1  0
 26 27  1  0
 25 26  1  6
 27 28  1  0
 28 32  1  0
 28 29  2  0
 30 25  1  0
 30 33  1  0
 31 30  2  0
M  END
$$$$
