DHQ.pdb
     RDKit          3D

 28 28  0  0  1  0  0  0  0  0999 V2000
   24.4677  -19.1204  -19.6033 N   0  0  0  0  0  0  0  0  0  0  0  0
   23.4718  -18.8005  -18.5953 C   0  0  1  0  0  0  0  0  0  0  0  0
   22.1181  -19.1657  -19.1781 C   0  0  0  0  0  0  0  0  0  0  0  0
   21.2190  -17.9900  -19.0839 C   0  0  0  0  0  0  0  0  0  0  0  0
   21.6383  -16.8346  -19.3318 O   0  0  0  0  0  0  0  0  0  0  0  0
   23.7436  -19.5153  -17.3349 C   0  0  0  0  0  0  0  0  0  0  0  0
   23.7513  -20.7650  -17.3149 O   0  0  0  0  0  0  0  0  0  0  0  0
   19.8797  -18.1361  -18.7161 O   0  0  0  0  0  0  0  0  0  0  0  0
   23.9966  -18.8124  -16.1307 N   0  0  0  0  0  0  0  0  0  0  0  0
   24.2298  -19.4823  -14.8770 C   0  0  1  0  0  0  0  0  0  0  0  0
   25.4717  -18.9420  -14.2286 C   0  0  0  0  0  0  0  0  0  0  0  0
   26.6883  -19.1925  -15.0490 C   0  0  0  0  0  0  0  0  0  0  0  0
   27.4597  -20.3424  -15.0947 C   0  0  0  0  0  0  0  0  0  0  0  0
   28.4607  -20.1832  -15.9557 N   0  0  0  0  0  0  0  0  0  0  0  0
   28.3496  -18.9413  -16.4722 C   0  0  0  0  0  0  0  0  0  0  0  0
   27.2759  -18.3444  -15.9209 N   0  0  0  0  0  0  0  0  0  0  0  0
   23.0495  -19.3779  -13.9731 C   0  0  0  0  0  0  0  0  0  0  0  0
   22.8901  -18.2692  -13.3568 O   0  0  0  0  0  0  0  0  0  0  0  0
   18.8452  -16.5425  -13.6130 N   0  0  0  0  0  0  0  0  0  0  0  0
   18.4092  -17.7084  -14.3012 C   0  0  0  0  0  0  0  0  0  0  0  0
   17.4219  -17.5671  -15.0913 O   0  0  0  0  0  0  0  0  0  0  0  0
   19.0736  -19.0207  -14.1148 C   0  0  0  0  0  0  0  0  0  0  0  0
   20.2653  -19.0338  -13.2397 C   0  0  0  0  0  0  0  0  0  0  0  0
   20.9417  -20.3212  -12.9585 C   0  0  2  0  0  0  0  0  0  0  0  0
   22.1502  -20.4476  -13.8028 N   0  0  0  0  0  0  0  0  0  0  0  0
   20.1755  -21.5546  -12.9501 C   0  0  0  0  0  0  0  0  0  0  0  0
   19.2859  -21.7104  -12.0566 O   0  0  0  0  0  0  0  0  0  0  0  0
   20.3323  -22.5836  -13.8508 O   0  0  0  0  0  0  0  0  0  0  0  0
  2  1  1  6
  3  2  1  0
  3  4  1  0
  4  5  2  0
  6  2  1  0
  6  7  2  0
  8  4  1  0
  9  6  1  0
 10  9  1  0
 10 11  1  1
 11 12  1  0
 12 16  1  0
 13 12  2  0
 13 14  1  0
 14 15  1  0
 16 15  2  0
 17 10  1  0
 18 17  2  0
 20 21  2  0
 20 19  1  0
 22 20  1  0
 23 22  1  0
 24 23  1  6
 24 25  1  0
 25 17  1  0
 26 28  1  0
 26 24  1  0
 27 26  2  0
M  END
$$$$
