DHQ.pdb
     RDKit          3D

 28 28  0  0  1  0  0  0  0  0999 V2000
   21.3507  -13.3218  -17.7089 N   0  0  0  0  0  0  0  0  0  0  0  0
   21.4748  -13.4045  -16.2639 C   0  0  1  0  0  0  0  0  0  0  0  0
   22.5527  -14.4327  -15.9698 C   0  0  0  0  0  0  0  0  0  0  0  0
   22.0438  -15.7801  -16.3235 C   0  0  0  0  0  0  0  0  0  0  0  0
   20.8289  -16.0647  -16.2000 O   0  0  0  0  0  0  0  0  0  0  0  0
   21.7917  -12.0875  -15.6821 C   0  0  0  0  0  0  0  0  0  0  0  0
   21.9518  -11.9723  -14.4478 O   0  0  0  0  0  0  0  0  0  0  0  0
   22.9032  -16.7706  -16.8039 O   0  0  0  0  0  0  0  0  0  0  0  0
   21.9179  -10.9349  -16.4967 N   0  0  0  0  0  0  0  0  0  0  0  0
   22.1384   -9.6204  -15.9504 C   0  0  1  0  0  0  0  0  0  0  0  0
   23.3385   -8.9900  -16.5959 C   0  0  0  0  0  0  0  0  0  0  0  0
   24.5942   -9.7286  -16.2896 C   0  0  0  0  0  0  0  0  0  0  0  0
   25.3550  -10.5035  -17.1498 C   0  0  0  0  0  0  0  0  0  0  0  0
   26.4106  -10.9931  -16.5058 N   0  0  0  0  0  0  0  0  0  0  0  0
   26.3459  -10.5450  -15.2344 C   0  0  0  0  0  0  0  0  0  0  0  0
   25.2450   -9.7802  -15.1070 N   0  0  0  0  0  0  0  0  0  0  0  0
   20.9281   -8.7614  -16.0862 C   0  0  0  0  0  0  0  0  0  0  0  0
   19.9453   -9.2478  -16.7435 O   0  0  0  0  0  0  0  0  0  0  0  0
   16.3242   -9.2168  -14.1365 N   0  0  0  0  0  0  0  0  0  0  0  0
   16.0543   -7.8758  -14.5262 C   0  0  0  0  0  0  0  0  0  0  0  0
   14.8442   -7.4915  -14.4431 O   0  0  0  0  0  0  0  0  0  0  0  0
   17.1271   -6.9680  -14.9989 C   0  0  0  0  0  0  0  0  0  0  0  0
   18.4785   -7.5560  -15.1175 C   0  0  0  0  0  0  0  0  0  0  0  0
   19.6127   -6.6878  -15.5098 C   0  0  2  0  0  0  0  0  0  0  0  0
   20.8661   -7.4742  -15.5194 N   0  0  0  0  0  0  0  0  0  0  0  0
   19.8024   -5.4053  -14.8560 C   0  0  0  0  0  0  0  0  0  0  0  0
   20.7641   -5.2785  -14.0358 O   0  0  0  0  0  0  0  0  0  0  0  0
   19.0157   -4.2944  -15.0611 O   0  0  0  0  0  0  0  0  0  0  0  0
  2  1  1  6
  3  2  1  0
  3  4  1  0
  4  5  2  0
  6  2  1  0
  6  7  2  0
  8  4  1  0
  9  6  1  0
 10  9  1  0
 10 11  1  6
 11 12  1  0
 12 16  1  0
 13 12  2  0
 13 14  1  0
 14 15  1  0
 16 15  2  0
 17 10  1  0
 18 17  2  0
 20 21  2  0
 20 19  1  0
 22 20  1  0
 23 22  1  0
 24 23  1  1
 24 25  1  0
 25 17  1  0
 26 28  1  0
 26 24  1  0
 27 26  2  0
M  END
$$$$
