DHQ.pdb
     RDKit          3D

 28 28  0  0  1  0  0  0  0  0999 V2000
   23.7791  -16.0155  -19.5826 N   0  0  0  0  0  0  0  0  0  0  0  0
   23.9340  -15.8238  -18.1509 C   0  0  1  0  0  0  0  0  0  0  0  0
   22.8345  -14.8743  -17.7094 C   0  0  0  0  0  0  0  0  0  0  0  0
   23.4015  -13.5110  -17.5696 C   0  0  0  0  0  0  0  0  0  0  0  0
   24.6269  -13.3013  -17.7324 O   0  0  0  0  0  0  0  0  0  0  0  0
   23.8759  -17.1107  -17.4338 C   0  0  0  0  0  0  0  0  0  0  0  0
   23.1153  -18.0166  -17.8375 O   0  0  0  0  0  0  0  0  0  0  0  0
   22.5868  -12.4220  -17.2522 O   0  0  0  0  0  0  0  0  0  0  0  0
   24.6683  -17.3476  -16.2832 N   0  0  0  0  0  0  0  0  0  0  0  0
   24.5598  -18.5535  -15.5027 C   0  0  1  0  0  0  0  0  0  0  0  0
   25.8151  -18.7652  -14.7065 C   0  0  0  0  0  0  0  0  0  0  0  0
   25.7227  -19.9561  -13.8180 C   0  0  0  0  0  0  0  0  0  0  0  0
   24.6253  -20.7748  -13.6068 C   0  0  0  0  0  0  0  0  0  0  0  0
   24.9383  -21.7403  -12.7475 N   0  0  0  0  0  0  0  0  0  0  0  0
   26.2289  -21.5596  -12.3965 C   0  0  0  0  0  0  0  0  0  0  0  0
   26.7004  -20.4785  -13.0461 N   0  0  0  0  0  0  0  0  0  0  0  0
   23.3530  -18.5325  -14.6286 C   0  0  0  0  0  0  0  0  0  0  0  0
   23.0260  -17.4052  -14.1221 O   0  0  0  0  0  0  0  0  0  0  0  0
   18.6115  -16.7650  -15.3906 N   0  0  0  0  0  0  0  0  0  0  0  0
   18.2423  -17.4101  -14.1780 C   0  0  0  0  0  0  0  0  0  0  0  0
   17.1101  -17.0973  -13.6887 O   0  0  0  0  0  0  0  0  0  0  0  0
   19.1261  -18.4017  -13.5193 C   0  0  0  0  0  0  0  0  0  0  0  0
   20.4492  -18.6170  -14.1431 C   0  0  0  0  0  0  0  0  0  0  0  0
   21.3476  -19.6578  -13.5919 C   0  0  2  0  0  0  0  0  0  0  0  0
   22.6057  -19.6973  -14.3697 N   0  0  0  0  0  0  0  0  0  0  0  0
   20.8400  -20.9957  -13.3458 C   0  0  0  0  0  0  0  0  0  0  0  0
   21.1398  -21.9189  -14.1654 O   0  0  0  0  0  0  0  0  0  0  0  0
   20.0525  -21.3531  -12.2748 O   0  0  0  0  0  0  0  0  0  0  0  0
  2  1  1  6
  3  2  1  0
  3  4  1  0
  4  5  2  0
  6  2  1  0
  6  7  2  0
  8  4  1  0
  9  6  1  0
 10  9  1  0
 10 11  1  1
 11 12  1  0
 12 16  1  0
 13 12  2  0
 13 14  1  0
 14 15  1  0
 16 15  2  0
 17 10  1  0
 18 17  2  0
 20 21  2  0
 20 19  1  0
 22 20  1  0
 23 22  1  0
 24 23  1  6
 24 25  1  0
 25 17  1  0
 26 28  1  0
 26 24  1  0
 27 26  2  0
M  END
$$$$
