DHQ.pdb
     RDKit          3D

 28 28  0  0  1  0  0  0  0  0999 V2000
   26.6923  -16.9119  -17.9175 N   0  0  0  0  0  0  0  0  0  0  0  0
   25.9804  -17.8753  -18.7394 C   0  0  1  0  0  0  0  0  0  0  0  0
   26.9660  -18.3895  -19.7736 C   0  0  0  0  0  0  0  0  0  0  0  0
   27.6197  -17.2335  -20.4339 C   0  0  0  0  0  0  0  0  0  0  0  0
   28.1226  -16.3039  -19.7594 O   0  0  0  0  0  0  0  0  0  0  0  0
   25.4213  -18.9639  -17.9173 C   0  0  0  0  0  0  0  0  0  0  0  0
   24.6572  -19.8073  -18.4341 O   0  0  0  0  0  0  0  0  0  0  0  0
   27.6936  -17.1472  -21.8258 O   0  0  0  0  0  0  0  0  0  0  0  0
   25.7302  -19.0774  -16.5390 N   0  0  0  0  0  0  0  0  0  0  0  0
   25.1682  -20.1058  -15.7013 C   0  0  1  0  0  0  0  0  0  0  0  0
   26.2482  -20.7445  -14.8768 C   0  0  0  0  0  0  0  0  0  0  0  0
   27.1774  -21.5621  -15.7041 C   0  0  0  0  0  0  0  0  0  0  0  0
   27.1263  -21.7834  -17.0707 C   0  0  0  0  0  0  0  0  0  0  0  0
   28.1376  -22.5631  -17.4421 N   0  0  0  0  0  0  0  0  0  0  0  0
   28.8477  -22.8523  -16.3315 C   0  0  0  0  0  0  0  0  0  0  0  0
   28.2635  -22.2450  -15.2813 N   0  0  0  0  0  0  0  0  0  0  0  0
   24.0679  -19.5752  -14.8475 C   0  0  0  0  0  0  0  0  0  0  0  0
   24.0910  -18.3239  -14.5869 O   0  0  0  0  0  0  0  0  0  0  0  0
   19.0988  -18.9989  -16.7647 N   0  0  0  0  0  0  0  0  0  0  0  0
   18.9166  -18.2626  -15.5615 C   0  0  0  0  0  0  0  0  0  0  0  0
   17.7828  -17.7080  -15.3998 O   0  0  0  0  0  0  0  0  0  0  0  0
   19.9884  -18.1511  -14.5431 C   0  0  0  0  0  0  0  0  0  0  0  0
   21.2502  -18.8629  -14.8387 C   0  0  0  0  0  0  0  0  0  0  0  0
   21.7596  -19.8630  -13.8721 C   0  0  2  0  0  0  0  0  0  0  0  0
   23.0493  -20.4095  -14.3490 N   0  0  0  0  0  0  0  0  0  0  0  0
   20.8853  -20.9198  -13.3958 C   0  0  0  0  0  0  0  0  0  0  0  0
   20.9479  -22.0582  -13.9563 O   0  0  0  0  0  0  0  0  0  0  0  0
   19.9834  -20.7887  -12.3642 O   0  0  0  0  0  0  0  0  0  0  0  0
  2  1  1  1
  3  2  1  0
  3  4  1  0
  4  5  2  0
  6  2  1  0
  6  7  2  0
  8  4  1  0
  9  6  1  0
 10  9  1  0
 10 11  1  1
 11 12  1  0
 12 16  1  0
 13 12  2  0
 13 14  1  0
 14 15  1  0
 16 15  2  0
 17 10  1  0
 18 17  2  0
 20 21  2  0
 20 19  1  0
 22 20  1  0
 23 22  1  0
 24 23  1  6
 24 25  1  0
 25 17  1  0
 26 28  1  0
 26 24  1  0
 27 26  2  0
M  END
$$$$
