DHQ.pdb
     RDKit          3D

 28 28  0  0  1  0  0  0  0  0999 V2000
   20.9891  -20.7642  -12.8714 N   0  0  0  0  0  0  0  0  0  0  0  0
   21.2808  -20.6526  -14.2901 C   0  0  1  0  0  0  0  0  0  0  0  0
   19.9635  -20.3774  -14.9931 C   0  0  0  0  0  0  0  0  0  0  0  0
   19.2109  -21.6488  -15.1230 C   0  0  0  0  0  0  0  0  0  0  0  0
   19.8089  -22.7478  -15.2057 O   0  0  0  0  0  0  0  0  0  0  0  0
   22.2768  -19.5960  -14.5456 C   0  0  0  0  0  0  0  0  0  0  0  0
   21.9713  -18.3959  -14.3762 O   0  0  0  0  0  0  0  0  0  0  0  0
   17.8148  -21.6582  -15.1573 O   0  0  0  0  0  0  0  0  0  0  0  0
   23.5862  -19.9109  -14.9863 N   0  0  0  0  0  0  0  0  0  0  0  0
   24.5222  -18.9036  -15.4157 C   0  0  1  0  0  0  0  0  0  0  0  0
   25.9282  -19.4014  -15.2429 C   0  0  0  0  0  0  0  0  0  0  0  0
   26.9334  -18.4429  -15.7789 C   0  0  0  0  0  0  0  0  0  0  0  0
   27.1129  -17.1152  -15.4265 C   0  0  0  0  0  0  0  0  0  0  0  0
   28.1196  -16.5935  -16.1215 N   0  0  0  0  0  0  0  0  0  0  0  0
   28.5985  -17.5677  -16.9233 C   0  0  0  0  0  0  0  0  0  0  0  0
   27.8779  -18.6857  -16.7136 N   0  0  0  0  0  0  0  0  0  0  0  0
   24.2604  -18.4763  -16.8192 C   0  0  0  0  0  0  0  0  0  0  0  0
   23.8556  -19.3768  -17.6313 O   0  0  0  0  0  0  0  0  0  0  0  0
   20.7580  -14.4362  -19.6541 N   0  0  0  0  0  0  0  0  0  0  0  0
   21.7930  -13.8251  -18.8937 C   0  0  0  0  0  0  0  0  0  0  0  0
   21.6531  -12.5874  -18.6332 O   0  0  0  0  0  0  0  0  0  0  0  0
   22.9721  -14.5899  -18.4214 C   0  0  0  0  0  0  0  0  0  0  0  0
   23.0529  -16.0021  -18.8521 C   0  0  0  0  0  0  0  0  0  0  0  0
   24.3179  -16.7469  -18.6545 C   0  0  2  0  0  0  0  0  0  0  0  0
   24.4491  -17.1446  -17.2353 N   0  0  0  0  0  0  0  0  0  0  0  0
   25.5643  -16.2049  -19.1654 C   0  0  0  0  0  0  0  0  0  0  0  0
   25.6777  -16.0197  -20.4171 O   0  0  0  0  0  0  0  0  0  0  0  0
   26.6493  -15.8632  -18.3902 O   0  0  0  0  0  0  0  0  0  0  0  0
  2  1  1  1
  3  2  1  0
  3  4  1  0
  4  5  2  0
  6  2  1  0
  6  7  2  0
  8  4  1  0
  9  6  1  0
 10  9  1  0
 10 11  1  6
 11 12  1  0
 12 16  1  0
 13 12  2  0
 13 14  1  0
 14 15  1  0
 16 15  2  0
 17 10  1  0
 18 17  2  0
 20 21  2  0
 20 19  1  0
 22 20  1  0
 23 22  1  0
 24 23  1  1
 24 25  1  0
 25 17  1  0
 26 28  1  0
 26 24  1  0
 27 26  2  0
M  END
$$$$
