DHQ.pdb
     RDKit          3D

 28 28  0  0  1  0  0  0  0  0999 V2000
   20.7635   -9.0205  -14.9610 N   0  0  0  0  0  0  0  0  0  0  0  0
   19.6474   -8.0911  -14.9309 C   0  0  1  0  0  0  0  0  0  0  0  0
   19.4980   -7.6244  -13.4938 C   0  0  0  0  0  0  0  0  0  0  0  0
   18.9614   -8.7402  -12.6773 C   0  0  0  0  0  0  0  0  0  0  0  0
   18.7046   -9.8534  -13.1940 O   0  0  0  0  0  0  0  0  0  0  0  0
   19.8678   -6.9668  -15.8587 C   0  0  0  0  0  0  0  0  0  0  0  0
   20.9583   -6.3560  -15.8517 O   0  0  0  0  0  0  0  0  0  0  0  0
   18.7265   -8.5828  -11.3096 O   0  0  0  0  0  0  0  0  0  0  0  0
   18.8611   -6.5548  -16.7669 N   0  0  0  0  0  0  0  0  0  0  0  0
   19.0468   -5.4605  -17.6850 C   0  0  1  0  0  0  0  0  0  0  0  0
   18.3273   -5.7418  -18.9725 C   0  0  0  0  0  0  0  0  0  0  0  0
   19.0164   -6.7808  -19.7859 C   0  0  0  0  0  0  0  0  0  0  0  0
   20.2483   -7.3676  -19.5466 C   0  0  0  0  0  0  0  0  0  0  0  0
   20.5182   -8.2593  -20.4957 N   0  0  0  0  0  0  0  0  0  0  0  0
   19.4745   -8.2599  -21.3513 C   0  0  0  0  0  0  0  0  0  0  0  0
   18.5676   -7.3636  -20.9188 N   0  0  0  0  0  0  0  0  0  0  0  0
   18.6148   -4.1655  -17.0871 C   0  0  0  0  0  0  0  0  0  0  0  0
   17.6320   -4.2055  -16.2705 O   0  0  0  0  0  0  0  0  0  0  0  0
   16.1275   -1.0827  -14.5348 N   0  0  0  0  0  0  0  0  0  0  0  0
   17.2377   -0.3333  -14.0565 C   0  0  0  0  0  0  0  0  0  0  0  0
   16.9736    0.6566  -13.3018 O   0  0  0  0  0  0  0  0  0  0  0  0
   18.6326   -0.6889  -14.4118 C   0  0  0  0  0  0  0  0  0  0  0  0
   18.8060   -1.8696  -15.2847 C   0  0  0  0  0  0  0  0  0  0  0  0
   18.8788   -1.6795  -16.7519 C   0  0  2  0  0  0  0  0  0  0  0  0
   19.2558   -2.9529  -17.4044 N   0  0  0  0  0  0  0  0  0  0  0  0
   19.6306   -0.5652  -17.3009 C   0  0  0  0  0  0  0  0  0  0  0  0
   20.7927   -0.7866  -17.7639 O   0  0  0  0  0  0  0  0  0  0  0  0
   19.1765    0.7325  -17.3680 O   0  0  0  0  0  0  0  0  0  0  0  0
  2  1  1  1
  3  2  1  0
  3  4  1  0
  4  5  2  0
  6  2  1  0
  6  7  2  0
  8  4  1  0
  9  6  1  0
 10  9  1  0
 10 11  1  6
 11 12  1  0
 12 16  1  0
 13 12  2  0
 13 14  1  0
 14 15  1  0
 16 15  2  0
 17 10  1  0
 18 17  2  0
 20 21  2  0
 20 19  1  0
 22 20  1  0
 23 22  1  0
 24 23  1  1
 24 25  1  0
 25 17  1  0
 26 28  1  0
 26 24  1  0
 27 26  2  0
M  END
$$$$
