DHQ.pdb
     RDKit          3D

 28 28  0  0  1  0  0  0  0  0999 V2000
   16.4932  -12.5242  -15.1942 N   0  0  0  0  0  0  0  0  0  0  0  0
   16.2511  -11.2486  -15.8456 C   0  0  1  0  0  0  0  0  0  0  0  0
   14.8059  -10.8756  -15.5663 C   0  0  0  0  0  0  0  0  0  0  0  0
   13.9164  -11.8468  -16.2482 C   0  0  0  0  0  0  0  0  0  0  0  0
   14.3647  -12.6372  -17.1122 O   0  0  0  0  0  0  0  0  0  0  0  0
   17.1917  -10.2201  -15.3650 C   0  0  0  0  0  0  0  0  0  0  0  0
   17.5274  -10.1947  -14.1612 O   0  0  0  0  0  0  0  0  0  0  0  0
   12.5540  -11.9086  -15.9477 O   0  0  0  0  0  0  0  0  0  0  0  0
   17.7288   -9.2467  -16.2436 N   0  0  0  0  0  0  0  0  0  0  0  0
   18.6934   -8.2657  -15.8166 C   0  0  1  0  0  0  0  0  0  0  0  0
   20.0756   -8.6969  -16.2141 C   0  0  0  0  0  0  0  0  0  0  0  0
   21.0965   -7.6550  -15.9170 C   0  0  0  0  0  0  0  0  0  0  0  0
   21.5657   -7.2554  -14.6762 C   0  0  0  0  0  0  0  0  0  0  0  0
   22.4818   -6.3026  -14.8230 N   0  0  0  0  0  0  0  0  0  0  0  0
   22.6149   -6.0771  -16.1469 C   0  0  0  0  0  0  0  0  0  0  0  0
   21.7746   -6.8971  -16.8060 N   0  0  0  0  0  0  0  0  0  0  0  0
   18.3678   -6.9115  -16.3466 C   0  0  0  0  0  0  0  0  0  0  0  0
   17.7023   -6.8625  -17.4371 O   0  0  0  0  0  0  0  0  0  0  0  0
   14.0726   -4.1152  -16.5648 N   0  0  0  0  0  0  0  0  0  0  0  0
   14.8672   -2.9604  -16.8053 C   0  0  0  0  0  0  0  0  0  0  0  0
   14.2428   -1.8891  -17.0908 O   0  0  0  0  0  0  0  0  0  0  0  0
   16.3471   -2.9981  -16.7213 C   0  0  0  0  0  0  0  0  0  0  0  0
   16.9516   -4.3056  -16.3879 C   0  0  0  0  0  0  0  0  0  0  0  0
   18.4165   -4.3946  -16.1871 C   0  0  2  0  0  0  0  0  0  0  0  0
   18.7724   -5.7387  -15.6811 N   0  0  0  0  0  0  0  0  0  0  0  0
   19.1103   -3.3546  -15.4488 C   0  0  0  0  0  0  0  0  0  0  0  0
   18.9027   -3.2557  -14.1994 O   0  0  0  0  0  0  0  0  0  0  0  0
   19.9953   -2.4560  -16.0003 O   0  0  0  0  0  0  0  0  0  0  0  0
  2  1  1  1
  3  2  1  0
  3  4  1  0
  4  5  2  0
  6  2  1  0
  6  7  2  0
  8  4  1  0
  9  6  1  0
 10  9  1  0
 10 11  1  6
 11 12  1  0
 12 16  1  0
 13 12  2  0
 13 14  1  0
 14 15  1  0
 16 15  2  0
 17 10  1  0
 18 17  2  0
 20 21  2  0
 20 19  1  0
 22 20  1  0
 23 22  1  0
 24 23  1  1
 24 25  1  0
 25 17  1  0
 26 28  1  0
 26 24  1  0
 27 26  2  0
M  END
$$$$
