DHQ.pdb
     RDKit          3D

 28 28  0  0  1  0  0  0  0  0999 V2000
   26.7883  -19.6023  -16.2656 N   0  0  0  0  0  0  0  0  0  0  0  0
   25.7263  -20.5369  -15.9358 C   0  0  1  0  0  0  0  0  0  0  0  0
   26.3561  -21.6549  -15.1241 C   0  0  0  0  0  0  0  0  0  0  0  0
   27.3516  -22.3612  -15.9665 C   0  0  0  0  0  0  0  0  0  0  0  0
   26.9989  -22.9935  -16.9903 O   0  0  0  0  0  0  0  0  0  0  0  0
   24.6372  -19.8658  -15.2030 C   0  0  0  0  0  0  0  0  0  0  0  0
   24.8435  -19.4100  -14.0576 O   0  0  0  0  0  0  0  0  0  0  0  0
   28.7101  -22.3426  -15.6436 O   0  0  0  0  0  0  0  0  0  0  0  0
   23.3464  -19.7255  -15.7706 N   0  0  0  0  0  0  0  0  0  0  0  0
   22.2451  -19.1346  -15.0543 C   0  0  1  0  0  0  0  0  0  0  0  0
   21.6902  -17.9750  -15.8301 C   0  0  0  0  0  0  0  0  0  0  0  0
   20.5741  -17.3010  -15.1117 C   0  0  0  0  0  0  0  0  0  0  0  0
   20.6602  -16.3028  -14.1549 C   0  0  0  0  0  0  0  0  0  0  0  0
   19.4416  -15.9525  -13.7537 N   0  0  0  0  0  0  0  0  0  0  0  0
   18.5617  -16.7121  -14.4395 C   0  0  0  0  0  0  0  0  0  0  0  0
   19.2507  -17.5274  -15.2603 N   0  0  0  0  0  0  0  0  0  0  0  0
   21.1911  -20.1415  -14.7442 C   0  0  0  0  0  0  0  0  0  0  0  0
   20.9663  -21.0344  -15.6311 O   0  0  0  0  0  0  0  0  0  0  0  0
   20.5408  -23.1533   -9.4862 N   0  0  0  0  0  0  0  0  0  0  0  0
   19.2843  -23.4368  -10.0893 C   0  0  0  0  0  0  0  0  0  0  0  0
   18.5433  -24.2807   -9.4911 O   0  0  0  0  0  0  0  0  0  0  0  0
   18.8542  -22.7790  -11.3465 C   0  0  0  0  0  0  0  0  0  0  0  0
   19.7709  -21.7593  -11.8997 C   0  0  0  0  0  0  0  0  0  0  0  0
   19.4571  -21.1383  -13.2073 C   0  0  2  0  0  0  0  0  0  0  0  0
   20.4741  -20.1141  -13.5329 N   0  0  0  0  0  0  0  0  0  0  0  0
   18.1158  -20.6498  -13.4733 C   0  0  0  0  0  0  0  0  0  0  0  0
   17.8059  -19.4823  -13.0798 O   0  0  0  0  0  0  0  0  0  0  0  0
   17.1379  -21.3581  -14.1343 O   0  0  0  0  0  0  0  0  0  0  0  0
  2  1  1  1
  3  2  1  0
  3  4  1  0
  4  5  2  0
  6  2  1  0
  6  7  2  0
  8  4  1  0
  9  6  1  0
 10  9  1  0
 10 11  1  6
 11 12  1  0
 12 16  1  0
 13 12  2  0
 13 14  1  0
 14 15  1  0
 16 15  2  0
 17 10  1  0
 18 17  2  0
 20 21  2  0
 20 19  1  0
 22 20  1  0
 23 22  1  0
 24 23  1  1
 24 25  1  0
 25 17  1  0
 26 28  1  0
 26 24  1  0
 27 26  2  0
M  END
$$$$
