DHQ.pdb
     RDKit          3D

 28 28  0  0  1  0  0  0  0  0999 V2000
   18.6756  -12.2969  -15.7227 N   0  0  0  0  0  0  0  0  0  0  0  0
   18.6519  -11.0260  -16.4259 C   0  0  1  0  0  0  0  0  0  0  0  0
   17.2929  -10.4007  -16.1656 C   0  0  0  0  0  0  0  0  0  0  0  0
   16.2650  -11.1420  -16.9360 C   0  0  0  0  0  0  0  0  0  0  0  0
   16.5750  -12.1316  -17.6409 O   0  0  0  0  0  0  0  0  0  0  0  0
   19.7565  -10.1548  -15.9850 C   0  0  0  0  0  0  0  0  0  0  0  0
   19.7910   -9.7381  -14.8071 O   0  0  0  0  0  0  0  0  0  0  0  0
   14.9226  -10.7589  -16.8986 O   0  0  0  0  0  0  0  0  0  0  0  0
   20.7906   -9.7713  -16.8747 N   0  0  0  0  0  0  0  0  0  0  0  0
   21.8228   -8.8367  -16.5060 C   0  0  1  0  0  0  0  0  0  0  0  0
   23.1095   -9.1949  -17.1919 C   0  0  0  0  0  0  0  0  0  0  0  0
   23.7613  -10.3842  -16.5782 C   0  0  0  0  0  0  0  0  0  0  0  0
   23.4115  -11.0335  -15.4055 C   0  0  0  0  0  0  0  0  0  0  0  0
   24.2294  -12.0607  -15.1943 N   0  0  0  0  0  0  0  0  0  0  0  0
   25.1089  -12.0879  -16.2176 C   0  0  0  0  0  0  0  0  0  0  0  0
   24.8228  -11.0715  -17.0532 N   0  0  0  0  0  0  0  0  0  0  0  0
   21.4186   -7.4322  -16.7974 C   0  0  0  0  0  0  0  0  0  0  0  0
   20.9585   -7.1940  -17.9661 O   0  0  0  0  0  0  0  0  0  0  0  0
   17.1416   -5.0477  -17.9227 N   0  0  0  0  0  0  0  0  0  0  0  0
   17.4663   -3.9433  -17.0873 C   0  0  0  0  0  0  0  0  0  0  0  0
   16.6450   -2.9714  -17.0838 O   0  0  0  0  0  0  0  0  0  0  0  0
   18.6945   -3.9256  -16.2568 C   0  0  0  0  0  0  0  0  0  0  0  0
   19.5077   -5.1604  -16.2627 C   0  0  0  0  0  0  0  0  0  0  0  0
   20.9711   -5.0633  -16.0554 C   0  0  2  0  0  0  0  0  0  0  0  0
   21.5368   -6.4125  -15.8339 N   0  0  0  0  0  0  0  0  0  0  0  0
   21.5052   -4.1068  -15.1024 C   0  0  0  0  0  0  0  0  0  0  0  0
   22.1911   -4.5417  -14.1256 O   0  0  0  0  0  0  0  0  0  0  0  0
   21.3318   -2.7432  -15.1761 O   0  0  0  0  0  0  0  0  0  0  0  0
  2  1  1  1
  3  2  1  0
  3  4  1  0
  4  5  2  0
  6  2  1  0
  6  7  2  0
  8  4  1  0
  9  6  1  0
 10  9  1  0
 10 11  1  6
 11 12  1  0
 12 16  1  0
 13 12  2  0
 13 14  1  0
 14 15  1  0
 16 15  2  0
 17 10  1  0
 18 17  2  0
 20 21  2  0
 20 19  1  0
 22 20  1  0
 23 22  1  0
 24 23  1  1
 24 25  1  0
 25 17  1  0
 26 28  1  0
 26 24  1  0
 27 26  2  0
M  END
$$$$
