DHQ.pdb
     RDKit          3D

 28 28  0  0  1  0  0  0  0  0999 V2000
   21.0111  -21.0374  -15.5774 N   0  0  0  0  0  0  0  0  0  0  0  0
   20.3231  -19.9310  -14.9349 C   0  0  1  0  0  0  0  0  0  0  0  0
   19.8013  -20.4458  -13.6052 C   0  0  0  0  0  0  0  0  0  0  0  0
   18.8736  -21.5756  -13.8556 C   0  0  0  0  0  0  0  0  0  0  0  0
   17.7626  -21.3893  -14.4061 O   0  0  0  0  0  0  0  0  0  0  0  0
   21.2205  -18.7734  -14.7674 C   0  0  0  0  0  0  0  0  0  0  0  0
   20.8231  -17.7587  -14.1551 O   0  0  0  0  0  0  0  0  0  0  0  0
   19.2109  -22.8792  -13.4851 O   0  0  0  0  0  0  0  0  0  0  0  0
   22.5369  -18.7815  -15.2918 N   0  0  0  0  0  0  0  0  0  0  0  0
   23.3765  -17.6110  -15.2957 C   0  0  1  0  0  0  0  0  0  0  0  0
   24.7928  -17.9953  -15.6132 C   0  0  0  0  0  0  0  0  0  0  0  0
   25.7161  -16.8286  -15.5641 C   0  0  0  0  0  0  0  0  0  0  0  0
   25.4120  -15.5185  -15.2316 C   0  0  0  0  0  0  0  0  0  0  0  0
   26.5082  -14.7682  -15.2953 N   0  0  0  0  0  0  0  0  0  0  0  0
   27.5240  -15.5758  -15.6656 C   0  0  0  0  0  0  0  0  0  0  0  0
   27.0409  -16.8221  -15.8278 N   0  0  0  0  0  0  0  0  0  0  0  0
   22.8656  -16.5744  -16.2367 C   0  0  0  0  0  0  0  0  0  0  0  0
   22.5687  -16.9625  -17.4181 O   0  0  0  0  0  0  0  0  0  0  0  0
   19.0019  -12.1273  -14.3917 N   0  0  0  0  0  0  0  0  0  0  0  0
   19.1707  -11.8085  -15.7675 C   0  0  0  0  0  0  0  0  0  0  0  0
   18.4311  -10.8832  -16.2323 O   0  0  0  0  0  0  0  0  0  0  0  0
   20.1617  -12.5115  -16.6172 C   0  0  0  0  0  0  0  0  0  0  0  0
   20.9419  -13.5841  -15.9637 C   0  0  0  0  0  0  0  0  0  0  0  0
   22.0386  -14.2396  -16.7132 C   0  0  2  0  0  0  0  0  0  0  0  0
   22.7157  -15.2299  -15.8471 N   0  0  0  0  0  0  0  0  0  0  0  0
   23.0016  -13.4322  -17.4405 C   0  0  0  0  0  0  0  0  0  0  0  0
   24.1441  -13.2356  -16.9210 O   0  0  0  0  0  0  0  0  0  0  0  0
   22.7763  -12.8583  -18.6712 O   0  0  0  0  0  0  0  0  0  0  0  0
  2  1  1  1
  3  2  1  0
  3  4  1  0
  4  5  2  0
  6  2  1  0
  6  7  2  0
  8  4  1  0
  9  6  1  0
 10  9  1  0
 10 11  1  6
 11 12  1  0
 12 16  1  0
 13 12  2  0
 13 14  1  0
 14 15  1  0
 16 15  2  0
 17 10  1  0
 18 17  2  0
 20 21  2  0
 20 19  1  0
 22 20  1  0
 23 22  1  0
 24 23  1  1
 24 25  1  0
 25 17  1  0
 26 28  1  0
 26 24  1  0
 27 26  2  0
M  END
$$$$
