QMP.pdb
     RDKit          3D

 25 25  0  0  1  0  0  0  0  0999 V2000
   21.4879  -17.6777  -18.5940 N   0  0  0  0  0  0  0  0  0  0  0  0
   20.1649  -17.3307  -18.2236 C   0  0  0  0  0  0  0  0  0  0  0  0
   19.2782  -17.3480  -19.0990 O   0  0  0  0  0  0  0  0  0  0  0  0
   19.9331  -16.9692  -16.8054 C   0  0  0  0  0  0  0  0  0  0  0  0
   21.2160  -16.9855  -15.9934 C   0  0  0  0  0  0  0  0  0  0  0  0
   21.6541  -18.4162  -15.8907 C   0  0  2  0  0  0  0  0  0  0  0  0
   20.6547  -19.1534  -15.1596 N   0  0  0  0  0  0  0  0  0  0  0  0
   23.0029  -18.5712  -15.2818 C   0  0  0  0  0  0  0  0  0  0  0  0
   23.9547  -18.0120  -15.8480 O   0  0  0  0  0  0  0  0  0  0  0  0
   25.3872  -19.8522   -8.8381 C   0  0  0  0  0  0  0  0  0  0  0  0
   25.4572  -21.3436   -9.8514 S   0  0  0  0  0  0  0  0  0  0  0  0
   25.6229  -20.8851  -11.6372 C   0  0  0  0  0  0  0  0  0  0  0  0
   24.3215  -20.3895  -12.1557 C   0  0  0  0  0  0  0  0  0  0  0  0
   24.4095  -19.8317  -13.5770 C   0  0  2  0  0  0  0  0  0  0  0  0
   23.1810  -19.3336  -14.0960 N   0  0  0  0  0  0  0  0  0  0  0  0
   25.2609  -20.6295  -14.4064 C   0  0  0  0  0  0  0  0  0  0  0  0
   24.8528  -21.7871  -14.7779 O   0  0  0  0  0  0  0  0  0  0  0  0
   26.5815  -20.2812  -14.8997 N   0  0  0  0  0  0  0  0  0  0  0  0
   27.2596  -19.0463  -14.6011 C   0  0  0  0  0  0  0  0  0  0  0  0
   28.2945  -18.9334  -15.7130 C   0  0  0  0  0  0  0  0  0  0  0  0
   28.6610  -20.3568  -16.0073 C   0  0  0  0  0  0  0  0  0  0  0  0
   27.4061  -21.0966  -15.7422 C   0  0  1  0  0  0  0  0  0  0  0  0
   27.6517  -22.4363  -15.1316 C   0  0  0  0  0  0  0  0  0  0  0  0
   27.3311  -22.6564  -13.9545 O   0  0  0  0  0  0  0  0  0  0  0  0
   28.2358  -23.4163  -15.8913 O   0  0  0  0  0  0  0  0  0  0  0  0
  1  2  1  0
  2  3  2  0
  4  5  1  0
  4  2  1  0
  6  5  1  0
  6  8  1  0
  6  7  1  1
  8  9  2  0
 11 10  1  0
 11 12  1  0
 12 13  1  0
 14 13  1  1
 15  8  1  0
 15 14  1  0
 16 14  1  0
 16 17  2  0
 18 16  1  0
 19 18  1  0
 20 19  1  0
 21 20  1  0
 21 22  1  0
 22 18  1  0
 22 23  1  1
 23 25  1  0
 24 23  2  0
M  END
$$$$
