QMP.pdb
     RDKit          3D

 25 25  0  0  1  0  0  0  0  0999 V2000
   27.7596  -27.1825  -16.0043 N   0  0  0  0  0  0  0  0  0  0  0  0
   27.3364  -25.9211  -16.4921 C   0  0  0  0  0  0  0  0  0  0  0  0
   28.1337  -24.9650  -16.4391 O   0  0  0  0  0  0  0  0  0  0  0  0
   25.9605  -25.8336  -17.0351 C   0  0  0  0  0  0  0  0  0  0  0  0
   25.2854  -24.5221  -16.6754 C   0  0  0  0  0  0  0  0  0  0  0  0
   24.7244  -24.6800  -15.2934 C   0  0  2  0  0  0  0  0  0  0  0  0
   23.4989  -25.4337  -15.3762 N   0  0  0  0  0  0  0  0  0  0  0  0
   24.5226  -23.3824  -14.5937 C   0  0  0  0  0  0  0  0  0  0  0  0
   23.5774  -22.6710  -14.9674 O   0  0  0  0  0  0  0  0  0  0  0  0
   24.4135  -20.7881   -9.4277 C   0  0  0  0  0  0  0  0  0  0  0  0
   25.9772  -19.9097   -9.6251 S   0  0  0  0  0  0  0  0  0  0  0  0
   26.6160  -20.1388  -11.3473 C   0  0  0  0  0  0  0  0  0  0  0  0
   26.4000  -21.5422  -11.7851 C   0  0  0  0  0  0  0  0  0  0  0  0
   25.6780  -21.6525  -13.1288 C   0  0  2  0  0  0  0  0  0  0  0  0
   25.3870  -22.9844  -13.5385 N   0  0  0  0  0  0  0  0  0  0  0  0
   26.1845  -20.7101  -14.0800 C   0  0  0  0  0  0  0  0  0  0  0  0
   27.3193  -20.9387  -14.6317 O   0  0  0  0  0  0  0  0  0  0  0  0
   25.5516  -19.4783  -14.5167 N   0  0  0  0  0  0  0  0  0  0  0  0
   24.3414  -18.9423  -13.9490 C   0  0  0  0  0  0  0  0  0  0  0  0
   23.8278  -18.0038  -15.0333 C   0  0  0  0  0  0  0  0  0  0  0  0
   25.0770  -17.4818  -15.6767 C   0  0  0  0  0  0  0  0  0  0  0  0
   26.0235  -18.6144  -15.5586 C   0  0  1  0  0  0  0  0  0  0  0  0
   27.4228  -18.1639  -15.3005 C   0  0  0  0  0  0  0  0  0  0  0  0
   27.9170  -18.2723  -14.1688 O   0  0  0  0  0  0  0  0  0  0  0  0
   28.1505  -17.6300  -16.3321 O   0  0  0  0  0  0  0  0  0  0  0  0
  1  2  1  0
  2  3  2  0
  4  5  1  0
  4  2  1  0
  6  5  1  0
  6  8  1  0
  6  7  1  6
  8  9  2  0
 11 10  1  0
 11 12  1  0
 12 13  1  0
 14 13  1  1
 15  8  1  0
 15 14  1  0
 16 14  1  0
 16 17  2  0
 18 16  1  0
 19 18  1  0
 20 19  1  0
 21 20  1  0
 21 22  1  0
 22 18  1  0
 22 23  1  1
 23 25  1  0
 24 23  2  0
M  END
$$$$
