QMP.pdb
     RDKit          3D

 25 25  0  0  1  0  0  0  0  0999 V2000
   23.6971  -21.5513  -14.5710 N   0  0  0  0  0  0  0  0  0  0  0  0
   23.4667  -20.9772  -15.8459 C   0  0  0  0  0  0  0  0  0  0  0  0
   23.8700  -21.5874  -16.8547 O   0  0  0  0  0  0  0  0  0  0  0  0
   22.7547  -19.6782  -15.8832 C   0  0  0  0  0  0  0  0  0  0  0  0
   22.2620  -19.2557  -14.5106 C   0  0  0  0  0  0  0  0  0  0  0  0
   23.1330  -18.1209  -14.0601 C   0  0  2  0  0  0  0  0  0  0  0  0
   23.4344  -17.2904  -15.1986 N   0  0  0  0  0  0  0  0  0  0  0  0
   24.3710  -18.5738  -13.3700 C   0  0  0  0  0  0  0  0  0  0  0  0
   25.4213  -18.5908  -14.0301 O   0  0  0  0  0  0  0  0  0  0  0  0
   26.6974  -18.3542   -6.7338 C   0  0  0  0  0  0  0  0  0  0  0  0
   26.1366  -20.0001   -7.2158 S   0  0  0  0  0  0  0  0  0  0  0  0
   26.3468  -20.2284   -9.0407 C   0  0  0  0  0  0  0  0  0  0  0  0
   25.2158  -19.5921   -9.7643 C   0  0  0  0  0  0  0  0  0  0  0  0
   25.3677  -19.6391  -11.2854 C   0  0  2  0  0  0  0  0  0  0  0  0
   24.3385  -18.9693  -12.0056 N   0  0  0  0  0  0  0  0  0  0  0  0
   25.8315  -20.9180  -11.7312 C   0  0  0  0  0  0  0  0  0  0  0  0
   24.9928  -21.8848  -11.8135 O   0  0  0  0  0  0  0  0  0  0  0  0
   27.1853  -21.2747  -12.1166 N   0  0  0  0  0  0  0  0  0  0  0  0
   28.3114  -20.3798  -12.0460 C   0  0  0  0  0  0  0  0  0  0  0  0
   29.3182  -21.0022  -13.0048 C   0  0  0  0  0  0  0  0  0  0  0  0
   29.0625  -22.4745  -12.8868 C   0  0  0  0  0  0  0  0  0  0  0  0
   27.6089  -22.5502  -12.6149 C   0  0  1  0  0  0  0  0  0  0  0  0
   27.2627  -23.6481  -11.6649 C   0  0  0  0  0  0  0  0  0  0  0  0
   26.8166  -23.3846  -10.5388 O   0  0  0  0  0  0  0  0  0  0  0  0
   27.4454  -24.9488  -12.0569 O   0  0  0  0  0  0  0  0  0  0  0  0
  1  2  1  0
  2  3  2  0
  4  5  1  0
  4  2  1  0
  6  5  1  0
  6  8  1  0
  6  7  1  6
  8  9  2  0
 11 10  1  0
 11 12  1  0
 12 13  1  0
 14 13  1  1
 15  8  1  0
 15 14  1  0
 16 14  1  0
 16 17  2  0
 18 16  1  0
 19 18  1  0
 20 19  1  0
 21 20  1  0
 21 22  1  0
 22 18  1  0
 22 23  1  1
 23 25  1  0
 24 23  2  0
M  END
$$$$
