QMP.pdb
     RDKit          3D

 25 25  0  0  1  0  0  0  0  0999 V2000
   28.2945  -15.4819  -17.1376 N   0  0  0  0  0  0  0  0  0  0  0  0
   27.4825  -14.8548  -16.1601 C   0  0  0  0  0  0  0  0  0  0  0  0
   27.7022  -13.6602  -15.8817 O   0  0  0  0  0  0  0  0  0  0  0  0
   26.4204  -15.6775  -15.5352 C   0  0  0  0  0  0  0  0  0  0  0  0
   26.3509  -17.0721  -16.1316 C   0  0  0  0  0  0  0  0  0  0  0  0
   27.4293  -17.8845  -15.4786 C   0  0  2  0  0  0  0  0  0  0  0  0
   28.4405  -18.1836  -16.4609 N   0  0  0  0  0  0  0  0  0  0  0  0
   26.9159  -19.1202  -14.8279 C   0  0  0  0  0  0  0  0  0  0  0  0
   26.6840  -20.0973  -15.5563 O   0  0  0  0  0  0  0  0  0  0  0  0
   27.4111  -20.6592   -8.3356 C   0  0  0  0  0  0  0  0  0  0  0  0
   25.6676  -21.0040   -8.6480 S   0  0  0  0  0  0  0  0  0  0  0  0
   25.3688  -21.1416  -10.4696 C   0  0  0  0  0  0  0  0  0  0  0  0
   26.0941  -20.0598  -11.1849 C   0  0  0  0  0  0  0  0  0  0  0  0
   25.9485  -20.1366  -12.7054 C   0  0  2  0  0  0  0  0  0  0  0  0
   26.7037  -19.1668  -13.4236 N   0  0  0  0  0  0  0  0  0  0  0  0
   24.5997  -20.4183  -13.0938 C   0  0  0  0  0  0  0  0  0  0  0  0
   23.7374  -19.4695  -13.0640 O   0  0  0  0  0  0  0  0  0  0  0  0
   24.0617  -21.6932  -13.5341 N   0  0  0  0  0  0  0  0  0  0  0  0
   24.8403  -22.8961  -13.6782 C   0  0  0  0  0  0  0  0  0  0  0  0
   24.0009  -23.7498  -14.6200 C   0  0  0  0  0  0  0  0  0  0  0  0
   22.5895  -23.3762  -14.2802 C   0  0  0  0  0  0  0  0  0  0  0  0
   22.6964  -21.9534  -13.8844 C   0  0  1  0  0  0  0  0  0  0  0  0
   21.7710  -21.6008  -12.7677 C   0  0  0  0  0  0  0  0  0  0  0  0
   22.2131  -21.4038  -11.6265 O   0  0  0  0  0  0  0  0  0  0  0  0
   20.4283  -21.4987  -13.0238 O   0  0  0  0  0  0  0  0  0  0  0  0
  1  2  1  0
  2  3  2  0
  4  5  1  0
  4  2  1  0
  6  5  1  0
  6  8  1  0
  6  7  1  6
  8  9  2  0
 11 10  1  0
 11 12  1  0
 12 13  1  0
 14 13  1  1
 15  8  1  0
 15 14  1  0
 16 14  1  0
 16 17  2  0
 18 16  1  0
 19 18  1  0
 20 19  1  0
 21 20  1  0
 21 22  1  0
 22 18  1  0
 22 23  1  1
 23 25  1  0
 24 23  2  0
M  END
$$$$
