QMP.pdb
     RDKit          3D

 25 25  0  0  1  0  0  0  0  0999 V2000
   26.8432  -17.0029  -17.8860 N   0  0  0  0  0  0  0  0  0  0  0  0
   27.9108  -17.0415  -16.9549 C   0  0  0  0  0  0  0  0  0  0  0  0
   28.2420  -15.9837  -16.3856 O   0  0  0  0  0  0  0  0  0  0  0  0
   28.5606  -18.3534  -16.7261 C   0  0  0  0  0  0  0  0  0  0  0  0
   27.5676  -19.4157  -16.2894 C   0  0  0  0  0  0  0  0  0  0  0  0
   28.1194  -20.0506  -15.0477 C   0  0  2  0  0  0  0  0  0  0  0  0
   29.2574  -20.8577  -15.4088 N   0  0  0  0  0  0  0  0  0  0  0  0
   27.1060  -20.8387  -14.2954 C   0  0  0  0  0  0  0  0  0  0  0  0
   26.7196  -21.9044  -14.7993 O   0  0  0  0  0  0  0  0  0  0  0  0
   26.5387  -19.2181   -8.1327 C   0  0  0  0  0  0  0  0  0  0  0  0
   26.5816  -21.0120   -8.3222 S   0  0  0  0  0  0  0  0  0  0  0  0
   26.5479  -21.4571  -10.1187 C   0  0  0  0  0  0  0  0  0  0  0  0
   25.5268  -20.6397  -10.8239 C   0  0  0  0  0  0  0  0  0  0  0  0
   25.4883  -20.8895  -12.3323 C   0  0  2  0  0  0  0  0  0  0  0  0
   26.6075  -20.3771  -13.0474 N   0  0  0  0  0  0  0  0  0  0  0  0
   24.1687  -20.7234  -12.8621 C   0  0  0  0  0  0  0  0  0  0  0  0
   23.6930  -19.5378  -12.9746 O   0  0  0  0  0  0  0  0  0  0  0  0
   23.2635  -21.7687  -13.3054 N   0  0  0  0  0  0  0  0  0  0  0  0
   23.5685  -23.1757  -13.2683 C   0  0  0  0  0  0  0  0  0  0  0  0
   22.5942  -23.7753  -14.2740 C   0  0  0  0  0  0  0  0  0  0  0  0
   21.3823  -22.8999  -14.1645 C   0  0  0  0  0  0  0  0  0  0  0  0
   21.9468  -21.5710  -13.8361 C   0  0  1  0  0  0  0  0  0  0  0  0
   21.0867  -20.8046  -12.8870 C   0  0  0  0  0  0  0  0  0  0  0  0
   21.4174  -20.6857  -11.6983 O   0  0  0  0  0  0  0  0  0  0  0  0
   19.9286  -20.2358  -13.3500 O   0  0  0  0  0  0  0  0  0  0  0  0
  1  2  1  0
  2  3  2  0
  4  5  1  0
  4  2  1  0
  6  5  1  0
  6  8  1  0
  6  7  1  6
  8  9  2  0
 11 10  1  0
 11 12  1  0
 12 13  1  0
 14 13  1  1
 15  8  1  0
 15 14  1  0
 16 14  1  0
 16 17  2  0
 18 16  1  0
 19 18  1  0
 20 19  1  0
 21 20  1  0
 21 22  1  0
 22 18  1  0
 22 23  1  1
 23 25  1  0
 24 23  2  0
M  END
$$$$
