QMP.pdb
     RDKit          3D

 25 25  0  0  1  0  0  0  0  0999 V2000
   28.1289  -17.8559  -19.4403 N   0  0  0  0  0  0  0  0  0  0  0  0
   28.9709  -18.9093  -19.0052 C   0  0  0  0  0  0  0  0  0  0  0  0
   30.1534  -18.6444  -18.7147 O   0  0  0  0  0  0  0  0  0  0  0  0
   28.3739  -20.2633  -18.9277 C   0  0  0  0  0  0  0  0  0  0  0  0
   27.3299  -20.3668  -17.8302 C   0  0  0  0  0  0  0  0  0  0  0  0
   28.0655  -20.3908  -16.5234 C   0  0  2  0  0  0  0  0  0  0  0  0
   29.2851  -21.1393  -16.6941 N   0  0  0  0  0  0  0  0  0  0  0  0
   27.2467  -20.9268  -15.4026 C   0  0  0  0  0  0  0  0  0  0  0  0
   26.2439  -21.5960  -15.6947 O   0  0  0  0  0  0  0  0  0  0  0  0
   26.7469  -21.0375   -7.3822 C   0  0  0  0  0  0  0  0  0  0  0  0
   27.8048  -20.9291   -8.8399 S   0  0  0  0  0  0  0  0  0  0  0  0
   26.7853  -21.1139  -10.3739 C   0  0  0  0  0  0  0  0  0  0  0  0
   27.6263  -20.8672  -11.5738 C   0  0  0  0  0  0  0  0  0  0  0  0
   26.8580  -21.0023  -12.8892 C   0  0  2  0  0  0  0  0  0  0  0  0
   27.6106  -20.6746  -14.0523 N   0  0  0  0  0  0  0  0  0  0  0  0
   25.5079  -20.5432  -12.7626 C   0  0  0  0  0  0  0  0  0  0  0  0
   25.2981  -19.3021  -12.5171 O   0  0  0  0  0  0  0  0  0  0  0  0
   24.2971  -21.3360  -12.8806 N   0  0  0  0  0  0  0  0  0  0  0  0
   24.2756  -22.7454  -13.1761 C   0  0  0  0  0  0  0  0  0  0  0  0
   22.8631  -22.9758  -13.6975 C   0  0  0  0  0  0  0  0  0  0  0  0
   22.0331  -21.9905  -12.9312 C   0  0  0  0  0  0  0  0  0  0  0  0
   22.9571  -20.8528  -12.7208 C   0  0  1  0  0  0  0  0  0  0  0  0
   22.7679  -20.2024  -11.3908 C   0  0  0  0  0  0  0  0  0  0  0  0
   23.5726  -20.4111  -10.4713 O   0  0  0  0  0  0  0  0  0  0  0  0
   21.6928  -19.3730  -11.2031 O   0  0  0  0  0  0  0  0  0  0  0  0
  1  2  1  0
  2  3  2  0
  4  5  1  0
  4  2  1  0
  6  5  1  0
  6  8  1  0
  6  7  1  6
  8  9  2  0
 11 10  1  0
 11 12  1  0
 12 13  1  0
 14 13  1  1
 15  8  1  0
 15 14  1  0
 16 14  1  0
 16 17  2  0
 18 16  1  0
 19 18  1  0
 20 19  1  0
 21 20  1  0
 21 22  1  0
 22 18  1  0
 22 23  1  1
 23 25  1  0
 24 23  2  0
M  END
$$$$
