QMP.pdb
     RDKit          3D

 25 25  0  0  1  0  0  0  0  0999 V2000
   19.5791  -21.7210  -11.0817 N   0  0  0  0  0  0  0  0  0  0  0  0
   18.6657  -21.6833  -12.1644 C   0  0  0  0  0  0  0  0  0  0  0  0
   17.6674  -22.4281  -12.1267 O   0  0  0  0  0  0  0  0  0  0  0  0
   18.9707  -20.7491  -13.2735 C   0  0  0  0  0  0  0  0  0  0  0  0
   20.2526  -19.9722  -13.0315 C   0  0  0  0  0  0  0  0  0  0  0  0
   21.3425  -20.6755  -13.7843 C   0  0  2  0  0  0  0  0  0  0  0  0
   21.4458  -22.0261  -13.2924 N   0  0  0  0  0  0  0  0  0  0  0  0
   22.6493  -19.9670  -13.7168 C   0  0  0  0  0  0  0  0  0  0  0  0
   22.6468  -18.7991  -13.2985 O   0  0  0  0  0  0  0  0  0  0  0  0
   28.9272  -20.9754  -11.4904 C   0  0  0  0  0  0  0  0  0  0  0  0
   27.3217  -21.6513  -11.0197 S   0  0  0  0  0  0  0  0  0  0  0  0
   25.9722  -20.7460  -11.9063 C   0  0  0  0  0  0  0  0  0  0  0  0
   26.2131  -20.7867  -13.3720 C   0  0  0  0  0  0  0  0  0  0  0  0
   25.1499  -20.0420  -14.1807 C   0  0  2  0  0  0  0  0  0  0  0  0
   23.8482  -20.6150  -14.1192 N   0  0  0  0  0  0  0  0  0  0  0  0
   25.6657  -19.5807  -15.4339 C   0  0  0  0  0  0  0  0  0  0  0  0
   25.4868  -20.3024  -16.4788 O   0  0  0  0  0  0  0  0  0  0  0  0
   26.3960  -18.3504  -15.6825 N   0  0  0  0  0  0  0  0  0  0  0  0
   26.6571  -17.3460  -14.6840 C   0  0  0  0  0  0  0  0  0  0  0  0
   26.9514  -16.0981  -15.5064 C   0  0  0  0  0  0  0  0  0  0  0  0
   27.6110  -16.6309  -16.7425 C   0  0  0  0  0  0  0  0  0  0  0  0
   26.9657  -17.9497  -16.9352 C   0  0  1  0  0  0  0  0  0  0  0  0
   27.9138  -18.9781  -17.4560 C   0  0  0  0  0  0  0  0  0  0  0  0
   28.4026  -19.8234  -16.6923 O   0  0  0  0  0  0  0  0  0  0  0  0
   28.2344  -18.9727  -18.7887 O   0  0  0  0  0  0  0  0  0  0  0  0
  1  2  1  0
  2  3  2  0
  4  5  1  0
  4  2  1  0
  6  5  1  0
  6  8  1  0
  6  7  1  1
  8  9  2  0
 11 10  1  0
 11 12  1  0
 12 13  1  0
 14 13  1  6
 15  8  1  0
 15 14  1  0
 16 14  1  0
 16 17  2  0
 18 16  1  0
 19 18  1  0
 20 19  1  0
 21 20  1  0
 21 22  1  0
 22 18  1  0
 22 23  1  1
 23 25  1  0
 24 23  2  0
M  END
$$$$
