QMP.pdb
     RDKit          3D

 25 25  0  0  1  0  0  0  0  0999 V2000
   28.0166  -16.4023  -18.2466 N   0  0  0  0  0  0  0  0  0  0  0  0
   28.0967  -15.6918  -17.0232 C   0  0  0  0  0  0  0  0  0  0  0  0
   28.3739  -14.4774  -17.0577 O   0  0  0  0  0  0  0  0  0  0  0  0
   27.8415  -16.4564  -15.7798 C   0  0  0  0  0  0  0  0  0  0  0  0
   27.5247  -17.9148  -16.0593 C   0  0  0  0  0  0  0  0  0  0  0  0
   26.2470  -18.2333  -15.3414 C   0  0  2  0  0  0  0  0  0  0  0  0
   25.8815  -17.1026  -14.5261 N   0  0  0  0  0  0  0  0  0  0  0  0
   26.3245  -19.4841  -14.5393 C   0  0  0  0  0  0  0  0  0  0  0  0
   26.8422  -20.4766  -15.0742 O   0  0  0  0  0  0  0  0  0  0  0  0
   25.2955  -20.8047   -8.0654 C   0  0  0  0  0  0  0  0  0  0  0  0
   26.8663  -21.0452   -8.9201 S   0  0  0  0  0  0  0  0  0  0  0  0
   26.5677  -21.2916  -10.7303 C   0  0  0  0  0  0  0  0  0  0  0  0
   25.2481  -20.7225  -11.1079 C   0  0  0  0  0  0  0  0  0  0  0  0
   25.0624  -20.5763  -12.6189 C   0  0  2  0  0  0  0  0  0  0  0  0
   25.8210  -19.5274  -13.2112 N   0  0  0  0  0  0  0  0  0  0  0  0
   23.6982  -20.7736  -13.0055 C   0  0  0  0  0  0  0  0  0  0  0  0
   22.8862  -19.7836  -12.9326 O   0  0  0  0  0  0  0  0  0  0  0  0
   23.0921  -22.0017  -13.4883 N   0  0  0  0  0  0  0  0  0  0  0  0
   23.8034  -23.2406  -13.6702 C   0  0  0  0  0  0  0  0  0  0  0  0
   22.9216  -24.0154  -14.6409 C   0  0  0  0  0  0  0  0  0  0  0  0
   21.5318  -23.5754  -14.2918 C   0  0  0  0  0  0  0  0  0  0  0  0
   21.7158  -22.1743  -13.8495 C   0  0  1  0  0  0  0  0  0  0  0  0
   20.8072  -21.8075  -12.7236 C   0  0  0  0  0  0  0  0  0  0  0  0
   21.2495  -21.7035  -11.5702 O   0  0  0  0  0  0  0  0  0  0  0  0
   19.4796  -21.5881  -12.9848 O   0  0  0  0  0  0  0  0  0  0  0  0
  1  2  1  0
  2  3  2  0
  4  5  1  0
  4  2  1  0
  6  5  1  0
  6  8  1  0
  6  7  1  1
  8  9  2  0
 11 10  1  0
 11 12  1  0
 12 13  1  0
 14 13  1  1
 15  8  1  0
 15 14  1  0
 16 14  1  0
 16 17  2  0
 18 16  1  0
 19 18  1  0
 20 19  1  0
 21 20  1  0
 21 22  1  0
 22 18  1  0
 22 23  1  1
 23 25  1  0
 24 23  2  0
M  END
$$$$
