QMP.pdb
     RDKit          3D

 25 25  0  0  1  0  0  0  0  0999 V2000
   24.6978  -19.4679  -15.4981 N   0  0  0  0  0  0  0  0  0  0  0  0
   24.8836  -20.8138  -15.0958 C   0  0  0  0  0  0  0  0  0  0  0  0
   23.8791  -21.5392  -14.9636 O   0  0  0  0  0  0  0  0  0  0  0  0
   26.2760  -21.2624  -14.8597 C   0  0  0  0  0  0  0  0  0  0  0  0
   26.4568  -21.8655  -13.4781 C   0  0  0  0  0  0  0  0  0  0  0  0
   26.6587  -20.7265  -12.5234 C   0  0  2  0  0  0  0  0  0  0  0  0
   27.8860  -20.0518  -12.8629 N   0  0  0  0  0  0  0  0  0  0  0  0
   26.6439  -21.1509  -11.0973 C   0  0  0  0  0  0  0  0  0  0  0  0
   26.7867  -22.3597  -10.8578 O   0  0  0  0  0  0  0  0  0  0  0  0
   27.7780  -19.6085   -4.4923 C   0  0  0  0  0  0  0  0  0  0  0  0
   28.2842  -18.6603   -5.9416 S   0  0  0  0  0  0  0  0  0  0  0  0
   27.8090  -19.5656   -7.4847 C   0  0  0  0  0  0  0  0  0  0  0  0
   26.3364  -19.5063   -7.6736 C   0  0  0  0  0  0  0  0  0  0  0  0
   25.8344  -20.4077   -8.8025 C   0  0  2  0  0  0  0  0  0  0  0  0
   26.4721  -20.1975  -10.0578 N   0  0  0  0  0  0  0  0  0  0  0  0
   24.4149  -20.5847   -8.7464 C   0  0  0  0  0  0  0  0  0  0  0  0
   23.6765  -19.9131   -9.5516 O   0  0  0  0  0  0  0  0  0  0  0  0
   23.6748  -21.4624   -7.8573 N   0  0  0  0  0  0  0  0  0  0  0  0
   24.2833  -22.3293   -6.8814 C   0  0  0  0  0  0  0  0  0  0  0  0
   23.2021  -23.3666   -6.6070 C   0  0  0  0  0  0  0  0  0  0  0  0
   21.9229  -22.6017   -6.7666 C   0  0  0  0  0  0  0  0  0  0  0  0
   22.2490  -21.6000   -7.8072 C   0  0  1  0  0  0  0  0  0  0  0  0
   21.5834  -20.2865   -7.5632 C   0  0  0  0  0  0  0  0  0  0  0  0
   22.2073  -19.3578   -7.0293 O   0  0  0  0  0  0  0  0  0  0  0  0
   20.2749  -20.1243   -7.9379 O   0  0  0  0  0  0  0  0  0  0  0  0
  1  2  1  0
  2  3  2  0
  4  5  1  0
  4  2  1  0
  6  5  1  0
  6  8  1  0
  6  7  1  6
  8  9  2  0
 11 10  1  0
 11 12  1  0
 12 13  1  0
 14 13  1  1
 15  8  1  0
 15 14  1  0
 16 14  1  0
 16 17  2  0
 18 16  1  0
 19 18  1  0
 20 19  1  0
 21 20  1  0
 21 22  1  0
 22 18  1  0
 22 23  1  1
 23 25  1  0
 24 23  2  0
M  END
$$$$
