QMP.pdb
     RDKit          3D

 25 25  0  0  1  0  0  0  0  0999 V2000
   23.2034  -24.2307  -14.6101 N   0  0  0  0  0  0  0  0  0  0  0  0
   22.8791  -23.1280  -15.4390 C   0  0  0  0  0  0  0  0  0  0  0  0
   23.4069  -23.0552  -16.5655 O   0  0  0  0  0  0  0  0  0  0  0  0
   21.9248  -22.1326  -14.8966 C   0  0  0  0  0  0  0  0  0  0  0  0
   21.4344  -22.5065  -13.5092 C   0  0  0  0  0  0  0  0  0  0  0  0
   21.5776  -21.2869  -12.6480 C   0  0  2  0  0  0  0  0  0  0  0  0
   20.5169  -20.3666  -12.9714 N   0  0  0  0  0  0  0  0  0  0  0  0
   22.9145  -20.6440  -12.7645 C   0  0  0  0  0  0  0  0  0  0  0  0
   22.9680  -19.5265  -13.3004 O   0  0  0  0  0  0  0  0  0  0  0  0
   26.8556  -19.7760   -7.1831 C   0  0  0  0  0  0  0  0  0  0  0  0
   27.2252  -20.7620   -8.6485 S   0  0  0  0  0  0  0  0  0  0  0  0
   25.9928  -20.3976   -9.9807 C   0  0  0  0  0  0  0  0  0  0  0  0
   26.3167  -21.1839  -11.1992 C   0  0  0  0  0  0  0  0  0  0  0  0
   25.4237  -20.8444  -12.3934 C   0  0  2  0  0  0  0  0  0  0  0  0
   24.0787  -21.2960  -12.2760 N   0  0  0  0  0  0  0  0  0  0  0  0
   26.1199  -20.9980  -13.6349 C   0  0  0  0  0  0  0  0  0  0  0  0
   26.1285  -22.1492  -14.1999 O   0  0  0  0  0  0  0  0  0  0  0  0
   26.8478  -19.9752  -14.3647 N   0  0  0  0  0  0  0  0  0  0  0  0
   27.0681  -18.6361  -13.8827 C   0  0  0  0  0  0  0  0  0  0  0  0
   27.3787  -17.8507  -15.1504 C   0  0  0  0  0  0  0  0  0  0  0  0
   28.0824  -18.8447  -16.0243 C   0  0  0  0  0  0  0  0  0  0  0  0
   27.4545  -20.1335  -15.6536 C   0  0  1  0  0  0  0  0  0  0  0  0
   28.4274  -21.2653  -15.6621 C   0  0  0  0  0  0  0  0  0  0  0  0
   28.8942  -21.6981  -14.5984 O   0  0  0  0  0  0  0  0  0  0  0  0
   28.7953  -21.8170  -16.8618 O   0  0  0  0  0  0  0  0  0  0  0  0
  1  2  1  0
  2  3  2  0
  4  5  1  0
  4  2  1  0
  6  5  1  0
  6  8  1  0
  6  7  1  6
  8  9  2  0
 11 10  1  0
 11 12  1  0
 12 13  1  0
 14 13  1  1
 15  8  1  0
 15 14  1  0
 16 14  1  0
 16 17  2  0
 18 16  1  0
 19 18  1  0
 20 19  1  0
 21 20  1  0
 21 22  1  0
 22 18  1  0
 22 23  1  1
 23 25  1  0
 24 23  2  0
M  END
$$$$
