QMP.pdb
     RDKit          3D

 25 25  0  0  1  0  0  0  0  0999 V2000
   20.5600  -21.7095  -16.1539 N   0  0  0  0  0  0  0  0  0  0  0  0
   19.6052  -21.1742  -17.0538 C   0  0  0  0  0  0  0  0  0  0  0  0
   18.4909  -21.7257  -17.1362 O   0  0  0  0  0  0  0  0  0  0  0  0
   20.0094  -19.9840  -17.8386 C   0  0  0  0  0  0  0  0  0  0  0  0
   21.4468  -19.5787  -17.5647 C   0  0  0  0  0  0  0  0  0  0  0  0
   21.4613  -18.8757  -16.2400 C   0  0  2  0  0  0  0  0  0  0  0  0
   20.9020  -17.5585  -16.4104 N   0  0  0  0  0  0  0  0  0  0  0  0
   22.8145  -18.8201  -15.6236 C   0  0  0  0  0  0  0  0  0  0  0  0
   23.5767  -17.9147  -15.9957 O   0  0  0  0  0  0  0  0  0  0  0  0
   24.8436  -20.5527   -9.4478 C   0  0  0  0  0  0  0  0  0  0  0  0
   25.8652  -21.5761  -10.5272 S   0  0  0  0  0  0  0  0  0  0  0  0
   25.9294  -20.8354  -12.2224 C   0  0  0  0  0  0  0  0  0  0  0  0
   24.5509  -20.6069  -12.7278 C   0  0  0  0  0  0  0  0  0  0  0  0
   24.5140  -19.9652  -14.1156 C   0  0  2  0  0  0  0  0  0  0  0  0
   23.2069  -19.7741  -14.6464 N   0  0  0  0  0  0  0  0  0  0  0  0
   25.5576  -20.4663  -14.9577 C   0  0  0  0  0  0  0  0  0  0  0  0
   25.4631  -21.6611  -15.4139 O   0  0  0  0  0  0  0  0  0  0  0  0
   26.7585  -19.7659  -15.3773 N   0  0  0  0  0  0  0  0  0  0  0  0
   27.0712  -18.4061  -15.0207 C   0  0  0  0  0  0  0  0  0  0  0  0
   28.0860  -17.9881  -16.0770 C   0  0  0  0  0  0  0  0  0  0  0  0
   28.8291  -19.2539  -16.3808 C   0  0  0  0  0  0  0  0  0  0  0  0
   27.8052  -20.3070  -16.1936 C   0  0  1  0  0  0  0  0  0  0  0  0
   28.3708  -21.5533  -15.5982 C   0  0  0  0  0  0  0  0  0  0  0  0
   28.1081  -21.8633  -14.4271 O   0  0  0  0  0  0  0  0  0  0  0  0
   29.1833  -22.3474  -16.3652 O   0  0  0  0  0  0  0  0  0  0  0  0
  1  2  1  0
  2  3  2  0
  4  5  1  0
  4  2  1  0
  6  5  1  0
  6  8  1  0
  6  7  1  6
  8  9  2  0
 11 10  1  0
 11 12  1  0
 12 13  1  0
 14 13  1  1
 15  8  1  0
 15 14  1  0
 16 14  1  0
 16 17  2  0
 18 16  1  0
 19 18  1  0
 20 19  1  0
 21 20  1  0
 21 22  1  0
 22 18  1  0
 22 23  1  1
 23 25  1  0
 24 23  2  0
M  END
$$$$
