QMP.pdb
     RDKit          3D

 25 25  0  0  1  0  0  0  0  0999 V2000
   18.7111  -19.5126  -14.3209 N   0  0  0  0  0  0  0  0  0  0  0  0
   18.8642  -20.9037  -14.5432 C   0  0  0  0  0  0  0  0  0  0  0  0
   17.8758  -21.5566  -14.9299 O   0  0  0  0  0  0  0  0  0  0  0  0
   20.2050  -21.4840  -14.2958 C   0  0  0  0  0  0  0  0  0  0  0  0
   21.2401  -20.4192  -13.9793 C   0  0  0  0  0  0  0  0  0  0  0  0
   22.1214  -20.9695  -12.8976 C   0  0  2  0  0  0  0  0  0  0  0  0
   21.4007  -20.9295  -11.6503 N   0  0  0  0  0  0  0  0  0  0  0  0
   23.4292  -20.2671  -12.7967 C   0  0  0  0  0  0  0  0  0  0  0  0
   23.4083  -19.0452  -12.5832 O   0  0  0  0  0  0  0  0  0  0  0  0
   29.4007  -21.2440  -10.0201 C   0  0  0  0  0  0  0  0  0  0  0  0
   29.7297  -21.3319  -11.7921 S   0  0  0  0  0  0  0  0  0  0  0  0
   28.3997  -20.4445  -12.7249 C   0  0  0  0  0  0  0  0  0  0  0  0
   27.0948  -21.1237  -12.5157 C   0  0  0  0  0  0  0  0  0  0  0  0
   25.9315  -20.4315  -13.2274 C   0  0  2  0  0  0  0  0  0  0  0  0
   24.6496  -20.9806  -12.9412 N   0  0  0  0  0  0  0  0  0  0  0  0
   26.2698  -20.0780  -14.5728 C   0  0  0  0  0  0  0  0  0  0  0  0
   26.1426  -20.9611  -15.4940 O   0  0  0  0  0  0  0  0  0  0  0  0
   26.7592  -18.7954  -15.0461 N   0  0  0  0  0  0  0  0  0  0  0  0
   27.0324  -17.6667  -14.1943 C   0  0  0  0  0  0  0  0  0  0  0  0
   26.9985  -16.4838  -15.1534 C   0  0  0  0  0  0  0  0  0  0  0  0
   27.5140  -17.0517  -16.4412 C   0  0  0  0  0  0  0  0  0  0  0  0
   27.0469  -18.4565  -16.4088 C   0  0  1  0  0  0  0  0  0  0  0  0
   28.0358  -19.4005  -17.0076 C   0  0  0  0  0  0  0  0  0  0  0  0
   28.6974  -20.1577  -16.2826 O   0  0  0  0  0  0  0  0  0  0  0  0
   28.2001  -19.4166  -18.3683 O   0  0  0  0  0  0  0  0  0  0  0  0
  1  2  1  0
  2  3  2  0
  4  5  1  0
  4  2  1  0
  6  5  1  0
  6  8  1  0
  6  7  1  1
  8  9  2  0
 11 10  1  0
 11 12  1  0
 12 13  1  0
 14 13  1  6
 15  8  1  0
 15 14  1  0
 16 14  1  0
 16 17  2  0
 18 16  1  0
 19 18  1  0
 20 19  1  0
 21 20  1  0
 21 22  1  0
 22 18  1  0
 22 23  1  1
 23 25  1  0
 24 23  2  0
M  END
$$$$
