QMP.pdb
     RDKit          3D

 25 25  0  0  1  0  0  0  0  0999 V2000
   20.1261  -10.5162  -14.8758 N   0  0  0  0  0  0  0  0  0  0  0  0
   19.8501   -9.1391  -15.0646 C   0  0  0  0  0  0  0  0  0  0  0  0
   20.8027   -8.3660  -15.2830 O   0  0  0  0  0  0  0  0  0  0  0  0
   18.4317   -8.7175  -14.9869 C   0  0  0  0  0  0  0  0  0  0  0  0
   17.5083   -9.8742  -14.6485 C   0  0  0  0  0  0  0  0  0  0  0  0
   17.4111   -9.9372  -13.1531 C   0  0  2  0  0  0  0  0  0  0  0  0
   17.0729  -11.2844  -12.7690 N   0  0  0  0  0  0  0  0  0  0  0  0
   16.4517   -8.9499  -12.5886 C   0  0  0  0  0  0  0  0  0  0  0  0
   15.3265   -8.8837  -13.1068 O   0  0  0  0  0  0  0  0  0  0  0  0
   12.8958   -8.8748   -6.6899 C   0  0  0  0  0  0  0  0  0  0  0  0
   14.4645   -8.1094   -7.1476 S   0  0  0  0  0  0  0  0  0  0  0  0
   14.5545   -7.9067   -8.9853 C   0  0  0  0  0  0  0  0  0  0  0  0
   15.8519   -7.2891   -9.3638 C   0  0  0  0  0  0  0  0  0  0  0  0
   16.0235   -7.1195  -10.8740 C   0  0  2  0  0  0  0  0  0  0  0  0
   16.8225   -8.1198  -11.4966 N   0  0  0  0  0  0  0  0  0  0  0  0
   16.1950   -5.7449  -11.2356 C   0  0  0  0  0  0  0  0  0  0  0  0
   17.3706   -5.2350  -11.1849 O   0  0  0  0  0  0  0  0  0  0  0  0
   15.1657   -4.8168  -11.6689 N   0  0  0  0  0  0  0  0  0  0  0  0
   13.7779   -5.1641  -11.8351 C   0  0  0  0  0  0  0  0  0  0  0  0
   13.2498   -4.0763  -12.7613 C   0  0  0  0  0  0  0  0  0  0  0  0
   14.0535   -2.8671  -12.3888 C   0  0  0  0  0  0  0  0  0  0  0  0
   15.3621   -3.4337  -11.9898 C   0  0  1  0  0  0  0  0  0  0  0  0
   15.9811   -2.6933  -10.8512 C   0  0  0  0  0  0  0  0  0  0  0  0
   16.0031   -3.1930   -9.7170 O   0  0  0  0  0  0  0  0  0  0  0  0
   16.5235   -1.4553  -11.0796 O   0  0  0  0  0  0  0  0  0  0  0  0
  1  2  1  0
  2  3  2  0
  4  5  1  0
  4  2  1  0
  6  5  1  0
  6  8  1  0
  6  7  1  6
  8  9  2  0
 11 10  1  0
 11 12  1  0
 12 13  1  0
 14 13  1  1
 15  8  1  0
 15 14  1  0
 16 14  1  0
 16 17  2  0
 18 16  1  0
 19 18  1  0
 20 19  1  0
 21 20  1  0
 21 22  1  0
 22 18  1  0
 22 23  1  1
 23 25  1  0
 24 23  2  0
M  END
$$$$
