QMP.pdb
     RDKit          3D

 25 25  0  0  1  0  0  0  0  0999 V2000
   26.1560  -15.7604  -15.2368 N   0  0  0  0  0  0  0  0  0  0  0  0
   27.3594  -15.7481  -15.9848 C   0  0  0  0  0  0  0  0  0  0  0  0
   27.8905  -14.6498  -16.2390 O   0  0  0  0  0  0  0  0  0  0  0  0
   27.9021  -17.0586  -16.4133 C   0  0  0  0  0  0  0  0  0  0  0  0
   27.0595  -18.2184  -15.9129 C   0  0  0  0  0  0  0  0  0  0  0  0
   28.0054  -19.2472  -15.3685 C   0  0  2  0  0  0  0  0  0  0  0  0
   28.7670  -19.7979  -16.4610 N   0  0  0  0  0  0  0  0  0  0  0  0
   27.3218  -20.3124  -14.5861 C   0  0  0  0  0  0  0  0  0  0  0  0
   26.9048  -21.3016  -15.2078 O   0  0  0  0  0  0  0  0  0  0  0  0
   26.5371  -19.5270   -7.9974 C   0  0  0  0  0  0  0  0  0  0  0  0
   25.6477  -21.0744   -8.2629 S   0  0  0  0  0  0  0  0  0  0  0  0
   25.2911  -21.2950  -10.0659 C   0  0  0  0  0  0  0  0  0  0  0  0
   26.3136  -20.5827  -10.8753 C   0  0  0  0  0  0  0  0  0  0  0  0
   26.1460  -20.7911  -12.3811 C   0  0  2  0  0  0  0  0  0  0  0  0
   27.1591  -20.1893  -13.1798 N   0  0  0  0  0  0  0  0  0  0  0  0
   24.7743  -20.6931  -12.7790 C   0  0  0  0  0  0  0  0  0  0  0  0
   24.2114  -19.5409  -12.7768 O   0  0  0  0  0  0  0  0  0  0  0  0
   23.9039  -21.7761  -13.2010 N   0  0  0  0  0  0  0  0  0  0  0  0
   24.2639  -23.1699  -13.1587 C   0  0  0  0  0  0  0  0  0  0  0  0
   23.2985  -23.8145  -14.1450 C   0  0  0  0  0  0  0  0  0  0  0  0
   22.0553  -22.9860  -14.0230 C   0  0  0  0  0  0  0  0  0  0  0  0
   22.5725  -21.6337  -13.7127 C   0  0  1  0  0  0  0  0  0  0  0  0
   21.6978  -20.8940  -12.7559 C   0  0  0  0  0  0  0  0  0  0  0  0
   22.0348  -20.7655  -11.5699 O   0  0  0  0  0  0  0  0  0  0  0  0
   20.5191  -20.3605  -13.2087 O   0  0  0  0  0  0  0  0  0  0  0  0
  1  2  1  0
  2  3  2  0
  4  5  1  0
  4  2  1  0
  6  5  1  0
  6  8  1  0
  6  7  1  6
  8  9  2  0
 11 10  1  0
 11 12  1  0
 12 13  1  0
 14 13  1  1
 15  8  1  0
 15 14  1  0
 16 14  1  0
 16 17  2  0
 18 16  1  0
 19 18  1  0
 20 19  1  0
 21 20  1  0
 21 22  1  0
 22 18  1  0
 22 23  1  1
 23 25  1  0
 24 23  2  0
M  END
$$$$
