CLM.pdb
     RDKit          3D

 23 22  0  0  1  0  0  0  0  0999 V2000
   25.9919  -20.3130   -9.3833 N   0  0  0  0  0  0  0  0  0  0  0  0
   24.9248  -20.8870  -10.2170 C   0  0  1  0  0  0  0  0  0  0  0  0
   23.6395  -20.3884   -9.6069 C   0  0  0  0  0  0  0  0  0  0  0  0
   23.1275  -21.3607   -8.1758 S   0  0  0  0  0  0  0  0  0  0  0  0
   25.1184  -20.4467  -11.5958 C   0  0  0  0  0  0  0  0  0  0  0  0
   25.2865  -19.1998  -11.8085 O   0  0  0  0  0  0  0  0  0  0  0  0
   28.3473  -19.8210  -14.3452 C   0  0  0  0  0  0  0  0  0  0  0  0
   27.8014  -21.2252  -14.3518 C   0  0  2  0  0  0  0  0  0  0  0  0
   28.7652  -22.0766  -15.1953 C   0  0  0  0  0  0  0  0  0  0  0  0
   26.4295  -21.2840  -14.8955 C   0  0  0  0  0  0  0  0  0  0  0  0
   25.3203  -20.7191  -14.0860 C   0  0  2  0  0  0  0  0  0  0  0  0
   25.1477  -21.2523  -12.7669 N   0  0  0  0  0  0  0  0  0  0  0  0
   24.0621  -20.6542  -14.8837 C   0  0  0  0  0  0  0  0  0  0  0  0
   24.1067  -20.2211  -16.0816 O   0  0  0  0  0  0  0  0  0  0  0  0
   20.8316  -25.6576  -14.2405 C   0  0  0  0  0  0  0  0  0  0  0  0
   21.9917  -24.9341  -15.4531 S   0  0  0  0  0  0  0  0  0  0  0  0
   21.5501  -23.3547  -16.0514 C   0  0  0  0  0  0  0  0  0  0  0  0
   20.9328  -22.2833  -15.2752 C   0  0  0  0  0  0  0  0  0  0  0  0
   21.5655  -20.9617  -15.2447 C   0  0  2  0  0  0  0  0  0  0  0  0
   22.8174  -21.0411  -14.4025 N   0  0  0  0  0  0  0  0  0  0  0  0
   20.7106  -20.0501  -14.3699 C   0  0  0  0  0  0  0  0  0  0  0  0
   21.1560  -19.8113  -13.1884 O   0  0  0  0  0  0  0  0  0  0  0  0
   19.5489  -19.4841  -14.7160 O   0  0  0  0  0  0  0  0  0  0  0  0
  2  3  1  0
  2  1  1  1
  4  3  1  0
  5  2  1  0
  6  5  2  0
  8  7  1  6
  8 10  1  0
  9  8  1  0
 11 10  1  6
 11 12  1  0
 12  5  1  0
 13 11  1  0
 13 20  1  0
 14 13  2  0
 16 15  1  0
 17 16  1  0
 18 17  1  0
 19 20  1  0
 19 18  1  1
 19 21  1  0
 21 23  1  0
 22 21  2  0
M  END
$$$$
