CLM.pdb
     RDKit          3D

 23 22  0  0  1  0  0  0  0  0999 V2000
   22.6988  -20.4165  -15.0670 N   0  0  0  0  0  0  0  0  0  0  0  0
   23.0740  -19.9887  -13.7108 C   0  0  1  0  0  0  0  0  0  0  0  0
   21.9526  -20.4676  -12.8242 C   0  0  0  0  0  0  0  0  0  0  0  0
   20.4331  -19.5225  -13.0554 S   0  0  0  0  0  0  0  0  0  0  0  0
   24.3675  -20.5771  -13.3742 C   0  0  0  0  0  0  0  0  0  0  0  0
   24.5495  -21.8129  -13.6346 O   0  0  0  0  0  0  0  0  0  0  0  0
   28.0218  -20.8922  -15.2809 C   0  0  0  0  0  0  0  0  0  0  0  0
   28.0284  -19.6787  -14.3881 C   0  0  2  0  0  0  0  0  0  0  0  0
   29.3184  -18.9011  -14.6987 C   0  0  0  0  0  0  0  0  0  0  0  0
   27.9609  -20.0421  -12.9583 C   0  0  0  0  0  0  0  0  0  0  0  0
   26.6962  -20.6128  -12.4298 C   0  0  2  0  0  0  0  0  0  0  0  0
   25.4850  -19.9306  -12.7787 N   0  0  0  0  0  0  0  0  0  0  0  0
   26.8213  -20.9223  -10.9764 C   0  0  0  0  0  0  0  0  0  0  0  0
   27.8872  -21.4738  -10.5474 O   0  0  0  0  0  0  0  0  0  0  0  0
   29.1857  -20.4457   -5.0096 C   0  0  0  0  0  0  0  0  0  0  0  0
   28.3192  -19.0244   -5.7639 S   0  0  0  0  0  0  0  0  0  0  0  0
   26.8312  -19.4153   -6.5890 C   0  0  0  0  0  0  0  0  0  0  0  0
   26.6643  -19.5753   -8.0305 C   0  0  0  0  0  0  0  0  0  0  0  0
   26.0674  -20.8078   -8.5523 C   0  0  2  0  0  0  0  0  0  0  0  0
   25.8360  -20.6457  -10.0365 N   0  0  0  0  0  0  0  0  0  0  0  0
   24.6246  -20.8770   -8.0615 C   0  0  0  0  0  0  0  0  0  0  0  0
   23.7244  -20.4527   -8.8745 O   0  0  0  0  0  0  0  0  0  0  0  0
   24.2148  -21.3321   -6.8722 O   0  0  0  0  0  0  0  0  0  0  0  0
  2  3  1  0
  2  1  1  6
  4  3  1  0
  5  2  1  0
  6  5  2  0
  8  7  1  6
  8 10  1  0
  9  8  1  0
 11 10  1  1
 11 12  1  0
 12  5  1  0
 13 11  1  0
 13 20  1  0
 14 13  2  0
 16 15  1  0
 17 16  1  0
 18 17  1  0
 19 20  1  0
 19 18  1  1
 19 21  1  0
 21 23  1  0
 22 21  2  0
M  END
$$$$
