CLM.pdb
     RDKit          3D

 23 22  0  0  1  0  0  0  0  0999 V2000
   16.8698  -25.3267   -3.3569 N   0  0  0  0  0  0  0  0  0  0  0  0
   17.8427  -25.8354   -4.3356 C   0  0  1  0  0  0  0  0  0  0  0  0
   17.7473  -27.3369   -4.2393 C   0  0  0  0  0  0  0  0  0  0  0  0
   18.7557  -28.0123   -2.9041 S   0  0  0  0  0  0  0  0  0  0  0  0
   17.4942  -25.3183   -5.6560 C   0  0  0  0  0  0  0  0  0  0  0  0
   16.2645  -25.0822   -5.9016 O   0  0  0  0  0  0  0  0  0  0  0  0
   19.6320  -23.1879  -11.1601 C   0  0  0  0  0  0  0  0  0  0  0  0
   18.4813  -23.4851  -10.2341 C   0  0  2  0  0  0  0  0  0  0  0  0
   17.7343  -22.1599  -10.0082 C   0  0  0  0  0  0  0  0  0  0  0  0
   18.9358  -24.0614   -8.9525 C   0  0  0  0  0  0  0  0  0  0  0  0
   17.9234  -24.6519   -8.0410 C   0  0  2  0  0  0  0  0  0  0  0  0
   18.3749  -25.0324   -6.7350 N   0  0  0  0  0  0  0  0  0  0  0  0
   17.1313  -25.7045   -8.7397 C   0  0  0  0  0  0  0  0  0  0  0  0
   16.4255  -25.3831   -9.7511 O   0  0  0  0  0  0  0  0  0  0  0  0
   18.3374  -32.6053   -9.2333 C   0  0  0  0  0  0  0  0  0  0  0  0
   16.5696  -32.2543   -8.9311 S   0  0  0  0  0  0  0  0  0  0  0  0
   16.0876  -30.5964   -9.1891 C   0  0  0  0  0  0  0  0  0  0  0  0
   16.8138  -29.4110   -8.7431 C   0  0  0  0  0  0  0  0  0  0  0  0
   16.3168  -28.0826   -9.1123 C   0  0  2  0  0  0  0  0  0  0  0  0
   17.1082  -27.0402   -8.3575 N   0  0  0  0  0  0  0  0  0  0  0  0
   14.9459  -27.8970   -8.4691 C   0  0  0  0  0  0  0  0  0  0  0  0
   13.9300  -28.0143   -9.2473 O   0  0  0  0  0  0  0  0  0  0  0  0
   14.7070  -27.6229   -7.1818 O   0  0  0  0  0  0  0  0  0  0  0  0
  2  3  1  0
  2  1  1  1
  4  3  1  0
  5  2  1  0
  6  5  2  0
  8  7  1  6
  8 10  1  0
  9  8  1  0
 11 10  1  6
 11 12  1  0
 12  5  1  0
 13 11  1  0
 13 20  1  0
 14 13  2  0
 16 15  1  0
 17 16  1  0
 18 17  1  0
 19 20  1  0
 19 18  1  1
 19 21  1  0
 21 23  1  0
 22 21  2  0
M  END
$$$$
