CLM.pdb
     RDKit          3D

 23 22  0  0  1  0  0  0  0  0999 V2000
   27.3942  -11.1024  -18.4414 N   0  0  0  0  0  0  0  0  0  0  0  0
   27.1798  -10.0429  -17.4441 C   0  0  1  0  0  0  0  0  0  0  0  0
   27.8514   -8.8216  -18.0188 C   0  0  0  0  0  0  0  0  0  0  0  0
   29.6498   -8.9653  -18.0433 S   0  0  0  0  0  0  0  0  0  0  0  0
   25.7436   -9.8713  -17.2432 C   0  0  0  0  0  0  0  0  0  0  0  0
   24.9632  -10.1782  -18.2049 O   0  0  0  0  0  0  0  0  0  0  0  0
   21.0296   -9.7516  -13.2546 C   0  0  0  0  0  0  0  0  0  0  0  0
   21.5337   -9.4085  -14.6323 C   0  0  2  0  0  0  0  0  0  0  0  0
   20.7522  -10.2841  -15.6262 C   0  0  0  0  0  0  0  0  0  0  0  0
   22.9881   -9.6305  -14.7615 C   0  0  0  0  0  0  0  0  0  0  0  0
   23.6661   -9.1867  -16.0056 C   0  0  2  0  0  0  0  0  0  0  0  0
   25.0822   -9.3949  -16.0782 N   0  0  0  0  0  0  0  0  0  0  0  0
   23.2352   -7.8094  -16.3814 C   0  0  0  0  0  0  0  0  0  0  0  0
   23.7215   -6.8126  -15.7535 O   0  0  0  0  0  0  0  0  0  0  0  0
   22.8289   -4.5374  -22.5915 C   0  0  0  0  0  0  0  0  0  0  0  0
   21.2426   -4.6800  -21.6954 S   0  0  0  0  0  0  0  0  0  0  0  0
   21.3828   -4.9092  -19.9705 C   0  0  0  0  0  0  0  0  0  0  0  0
   21.7860   -6.1403  -19.2971 C   0  0  0  0  0  0  0  0  0  0  0  0
   22.0345   -6.1210  -17.8529 C   0  0  2  0  0  0  0  0  0  0  0  0
   22.3211   -7.5304  -17.3899 N   0  0  0  0  0  0  0  0  0  0  0  0
   20.7041   -5.8723  -17.1491 C   0  0  0  0  0  0  0  0  0  0  0  0
   19.9679   -6.9045  -16.9393 O   0  0  0  0  0  0  0  0  0  0  0  0
   20.2366   -4.6886  -16.7369 O   0  0  0  0  0  0  0  0  0  0  0  0
  2  3  1  0
  2  1  1  6
  4  3  1  0
  5  2  1  0
  6  5  2  0
  8  7  1  1
  8 10  1  0
  9  8  1  0
 11 10  1  1
 11 12  1  0
 12  5  1  0
 13 11  1  0
 13 20  1  0
 14 13  2  0
 16 15  1  0
 17 16  1  0
 18 17  1  0
 19 20  1  0
 19 18  1  6
 19 21  1  0
 21 23  1  0
 22 21  2  0
M  END
$$$$
