CLM.pdb
     RDKit          3D

 23 22  0  0  1  0  0  0  0  0999 V2000
   21.9968  -19.8980  -17.6908 N   0  0  0  0  0  0  0  0  0  0  0  0
   22.3921  -18.8301  -16.7599 C   0  0  1  0  0  0  0  0  0  0  0  0
   21.3508  -18.8547  -15.6699 C   0  0  0  0  0  0  0  0  0  0  0  0
   21.6145  -17.5715  -14.4292 S   0  0  0  0  0  0  0  0  0  0  0  0
   23.7418  -19.1061  -16.2753 C   0  0  0  0  0  0  0  0  0  0  0  0
   24.0497  -20.3171  -16.0166 O   0  0  0  0  0  0  0  0  0  0  0  0
   27.9340  -19.2869  -17.9040 C   0  0  0  0  0  0  0  0  0  0  0  0
   27.5689  -17.8807  -17.5054 C   0  0  2  0  0  0  0  0  0  0  0  0
   28.7689  -16.9878  -17.8631 C   0  0  0  0  0  0  0  0  0  0  0  0
   27.2433  -17.7788  -16.0684 C   0  0  0  0  0  0  0  0  0  0  0  0
   26.0803  -18.5413  -15.5483 C   0  0  2  0  0  0  0  0  0  0  0  0
   24.7898  -18.1719  -16.0504 N   0  0  0  0  0  0  0  0  0  0  0  0
   26.1435  -18.6558  -14.0628 C   0  0  0  0  0  0  0  0  0  0  0  0
   26.0222  -17.6047  -13.3523 O   0  0  0  0  0  0  0  0  0  0  0  0
   22.3852  -20.1641   -9.2225 C   0  0  0  0  0  0  0  0  0  0  0  0
   23.9431  -21.0368   -8.8341 S   0  0  0  0  0  0  0  0  0  0  0  0
   25.3205  -20.5591   -9.7944 C   0  0  0  0  0  0  0  0  0  0  0  0
   25.3182  -20.3001  -11.2313 C   0  0  0  0  0  0  0  0  0  0  0  0
   26.5660  -19.9091  -11.8929 C   0  0  2  0  0  0  0  0  0  0  0  0
   26.3292  -19.8539  -13.3841 N   0  0  0  0  0  0  0  0  0  0  0  0
   27.5293  -21.0896  -11.8174 C   0  0  0  0  0  0  0  0  0  0  0  0
   28.2338  -21.1836  -10.7467 O   0  0  0  0  0  0  0  0  0  0  0  0
   27.7083  -22.0256  -12.7562 O   0  0  0  0  0  0  0  0  0  0  0  0
  2  3  1  0
  2  1  1  6
  4  3  1  0
  5  2  1  0
  6  5  2  0
  8  7  1  1
  8 10  1  0
  9  8  1  0
 11 10  1  1
 11 12  1  0
 12  5  1  0
 13 11  1  0
 13 20  1  0
 14 13  2  0
 16 15  1  0
 17 16  1  0
 18 17  1  0
 19 20  1  0
 19 18  1  1
 19 21  1  0
 21 23  1  0
 22 21  2  0
M  END
$$$$
