CLM.pdb
     RDKit          3D

 23 22  0  0  1  0  0  0  0  0999 V2000
   28.0694  -18.7668  -16.1382 N   0  0  0  0  0  0  0  0  0  0  0  0
   27.1986  -18.0934  -15.1628 C   0  0  1  0  0  0  0  0  0  0  0  0
   26.5633  -16.9571  -15.9230 C   0  0  0  0  0  0  0  0  0  0  0  0
   27.6742  -15.5496  -16.1238 S   0  0  0  0  0  0  0  0  0  0  0  0
   26.2299  -19.0600  -14.6530 C   0  0  0  0  0  0  0  0  0  0  0  0
   25.7910  -19.9491  -15.4562 O   0  0  0  0  0  0  0  0  0  0  0  0
   26.4224  -22.1008  -11.2120 C   0  0  0  0  0  0  0  0  0  0  0  0
   25.8663  -20.7747  -10.7626 C   0  0  2  0  0  0  0  0  0  0  0  0
   25.6031  -20.8881   -9.2516 C   0  0  0  0  0  0  0  0  0  0  0  0
   24.6314  -20.4166  -11.4893 C   0  0  0  0  0  0  0  0  0  0  0  0
   24.7236  -20.1155  -12.9403 C   0  0  2  0  0  0  0  0  0  0  0  0
   25.6986  -19.1427  -13.3367 N   0  0  0  0  0  0  0  0  0  0  0  0
   23.3691  -19.8887  -13.5213 C   0  0  0  0  0  0  0  0  0  0  0  0
   22.8500  -18.7267  -13.4540 O   0  0  0  0  0  0  0  0  0  0  0  0
   19.7056  -23.7571  -18.2545 C   0  0  0  0  0  0  0  0  0  0  0  0
   19.6373  -21.9344  -18.3671 S   0  0  0  0  0  0  0  0  0  0  0  0
   19.9975  -21.0854  -16.8848 C   0  0  0  0  0  0  0  0  0  0  0  0
   21.1804  -21.2763  -16.0508 C   0  0  0  0  0  0  0  0  0  0  0  0
   21.2632  -20.5969  -14.7549 C   0  0  2  0  0  0  0  0  0  0  0  0
   22.6168  -20.8767  -14.1446 N   0  0  0  0  0  0  0  0  0  0  0  0
   20.3662  -21.3441  -13.7730 C   0  0  0  0  0  0  0  0  0  0  0  0
   20.9116  -22.3088  -13.1224 O   0  0  0  0  0  0  0  0  0  0  0  0
   19.0749  -21.0913  -13.5316 O   0  0  0  0  0  0  0  0  0  0  0  0
  2  3  1  0
  2  1  1  6
  4  3  1  0
  5  2  1  0
  6  5  2  0
  8  7  1  6
  8 10  1  0
  9  8  1  0
 11 10  1  1
 11 12  1  0
 12  5  1  0
 13 11  1  0
 13 20  1  0
 14 13  2  0
 16 15  1  0
 17 16  1  0
 18 17  1  0
 19 20  1  0
 19 18  1  6
 19 21  1  0
 21 23  1  0
 22 21  2  0
M  END
$$$$
