CLM.pdb
     RDKit          3D

 23 22  0  0  1  0  0  0  0  0999 V2000
   28.1570  -20.5244  -15.5986 N   0  0  0  0  0  0  0  0  0  0  0  0
   27.7605  -19.6832  -14.4591 C   0  0  1  0  0  0  0  0  0  0  0  0
   27.3891  -18.3532  -15.0640 C   0  0  0  0  0  0  0  0  0  0  0  0
   28.4259  -17.9189  -16.4754 S   0  0  0  0  0  0  0  0  0  0  0  0
   26.6523  -20.3299  -13.7617 C   0  0  0  0  0  0  0  0  0  0  0  0
   26.0314  -21.2681  -14.3637 O   0  0  0  0  0  0  0  0  0  0  0  0
   25.6982  -20.4988   -8.1727 C   0  0  0  0  0  0  0  0  0  0  0  0
   25.6167  -21.1862   -9.5108 C   0  0  2  0  0  0  0  0  0  0  0  0
   27.0535  -21.2906  -10.0491 C   0  0  0  0  0  0  0  0  0  0  0  0
   24.7490  -20.4561  -10.4570 C   0  0  0  0  0  0  0  0  0  0  0  0
   24.9774  -20.6355  -11.9130 C   0  0  2  0  0  0  0  0  0  0  0  0
   26.1630  -20.0426  -12.4581 N   0  0  0  0  0  0  0  0  0  0  0  0
   23.7379  -20.3334  -12.6850 C   0  0  0  0  0  0  0  0  0  0  0  0
   23.5561  -19.1543  -13.1331 O   0  0  0  0  0  0  0  0  0  0  0  0
   18.9598  -24.5846  -16.3395 C   0  0  0  0  0  0  0  0  0  0  0  0
   19.8559  -23.1158  -16.9553 S   0  0  0  0  0  0  0  0  0  0  0  0
   20.2521  -21.9254  -15.7415 C   0  0  0  0  0  0  0  0  0  0  0  0
   21.4098  -21.9569  -14.8525 C   0  0  0  0  0  0  0  0  0  0  0  0
   21.5388  -20.9407  -13.8044 C   0  0  2  0  0  0  0  0  0  0  0  0
   22.7455  -21.2675  -12.9560 N   0  0  0  0  0  0  0  0  0  0  0  0
   20.4253  -21.1693  -12.7870 C   0  0  0  0  0  0  0  0  0  0  0  0
   20.7025  -21.9480  -11.8030 O   0  0  0  0  0  0  0  0  0  0  0  0
   19.1972  -20.6404  -12.8265 O   0  0  0  0  0  0  0  0  0  0  0  0
  2  3  1  0
  2  1  1  6
  4  3  1  0
  5  2  1  0
  6  5  2  0
  8  7  1  1
  8 10  1  0
  9  8  1  0
 11 10  1  1
 11 12  1  0
 12  5  1  0
 13 11  1  0
 13 20  1  0
 14 13  2  0
 16 15  1  0
 17 16  1  0
 18 17  1  0
 19 20  1  0
 19 18  1  6
 19 21  1  0
 21 23  1  0
 22 21  2  0
M  END
$$$$
