CLM.pdb
     RDKit          3D

 23 22  0  0  1  0  0  0  0  0999 V2000
   28.5601  -21.7959  -16.2673 N   0  0  0  0  0  0  0  0  0  0  0  0
   28.0093  -20.8092  -15.3258 C   0  0  1  0  0  0  0  0  0  0  0  0
   27.5404  -19.6644  -16.1874 C   0  0  0  0  0  0  0  0  0  0  0  0
   26.8961  -18.2853  -15.2186 S   0  0  0  0  0  0  0  0  0  0  0  0
   26.9331  -21.4373  -14.5643 C   0  0  0  0  0  0  0  0  0  0  0  0
   27.1547  -22.5823  -14.0465 O   0  0  0  0  0  0  0  0  0  0  0  0
   26.0601  -19.7606   -9.5169 C   0  0  0  0  0  0  0  0  0  0  0  0
   25.2446  -20.5284  -10.5245 C   0  0  2  0  0  0  0  0  0  0  0  0
   25.2095  -21.9912  -10.0512 C   0  0  0  0  0  0  0  0  0  0  0  0
   25.8071  -20.4263  -11.8863 C   0  0  0  0  0  0  0  0  0  0  0  0
   25.0082  -20.9454  -13.0251 C   0  0  2  0  0  0  0  0  0  0  0  0
   25.6320  -20.9209  -14.3152 N   0  0  0  0  0  0  0  0  0  0  0  0
   23.6292  -20.3783  -13.0070 C   0  0  0  0  0  0  0  0  0  0  0  0
   23.0556  -20.1735  -11.8874 O   0  0  0  0  0  0  0  0  0  0  0  0
   20.3417  -17.1152  -18.2130 C   0  0  0  0  0  0  0  0  0  0  0  0
   19.1151  -17.9595  -17.1536 S   0  0  0  0  0  0  0  0  0  0  0  0
   19.7438  -18.6000  -15.6562 C   0  0  0  0  0  0  0  0  0  0  0  0
   21.1200  -19.0222  -15.4126 C   0  0  0  0  0  0  0  0  0  0  0  0
   21.4911  -19.5346  -14.0907 C   0  0  2  0  0  0  0  0  0  0  0  0
   22.9101  -20.0501  -14.1497 N   0  0  0  0  0  0  0  0  0  0  0  0
   20.7393  -20.8425  -13.8643 C   0  0  0  0  0  0  0  0  0  0  0  0
   21.2331  -21.8887  -14.4238 O   0  0  0  0  0  0  0  0  0  0  0  0
   19.6218  -20.9982  -13.1456 O   0  0  0  0  0  0  0  0  0  0  0  0
  2  3  1  0
  2  1  1  6
  4  3  1  0
  5  2  1  0
  6  5  2  0
  8  7  1  1
  8 10  1  0
  9  8  1  0
 11 10  1  1
 11 12  1  0
 12  5  1  0
 13 11  1  0
 13 20  1  0
 14 13  2  0
 16 15  1  0
 17 16  1  0
 18 17  1  0
 19 20  1  0
 19 18  1  6
 19 21  1  0
 21 23  1  0
 22 21  2  0
M  END
$$$$
