CLM.pdb
     RDKit          3D

 23 22  0  0  1  0  0  0  0  0999 V2000
   26.5140  -23.5860  -15.6419 N   0  0  0  0  0  0  0  0  0  0  0  0
   26.6670  -22.2007  -15.1722 C   0  0  1  0  0  0  0  0  0  0  0  0
   26.6758  -21.3609  -16.4241 C   0  0  0  0  0  0  0  0  0  0  0  0
   28.3205  -21.2168  -17.1518 S   0  0  0  0  0  0  0  0  0  0  0  0
   25.5604  -21.8852  -14.2730 C   0  0  0  0  0  0  0  0  0  0  0  0
   24.6198  -22.7397  -14.1578 O   0  0  0  0  0  0  0  0  0  0  0  0
   25.1593  -22.0816   -9.7318 C   0  0  0  0  0  0  0  0  0  0  0  0
   25.8509  -20.8715  -10.3037 C   0  0  2  0  0  0  0  0  0  0  0  0
   26.3930  -20.0614   -9.1142 C   0  0  0  0  0  0  0  0  0  0  0  0
   24.9417  -20.0527  -11.1309 C   0  0  0  0  0  0  0  0  0  0  0  0
   24.4455  -20.6171  -12.4115 C   0  0  2  0  0  0  0  0  0  0  0  0
   25.3920  -20.7150  -13.4833 N   0  0  0  0  0  0  0  0  0  0  0  0
   23.1506  -19.9885  -12.8010 C   0  0  0  0  0  0  0  0  0  0  0  0
   22.1068  -20.2372  -12.1133 O   0  0  0  0  0  0  0  0  0  0  0  0
   20.9779  -23.1734  -18.9442 C   0  0  0  0  0  0  0  0  0  0  0  0
   21.8126  -22.8538  -17.3501 S   0  0  0  0  0  0  0  0  0  0  0  0
   21.9713  -21.1693  -16.9203 C   0  0  0  0  0  0  0  0  0  0  0  0
   22.6560  -20.6436  -15.7429 C   0  0  0  0  0  0  0  0  0  0  0  0
   22.1110  -19.4667  -15.0604 C   0  0  2  0  0  0  0  0  0  0  0  0
   22.9987  -19.1320  -13.8845 N   0  0  0  0  0  0  0  0  0  0  0  0
   20.8430  -19.8926  -14.3270 C   0  0  0  0  0  0  0  0  0  0  0  0
   21.0085  -20.5057  -13.2098 O   0  0  0  0  0  0  0  0  0  0  0  0
   19.5861  -19.6907  -14.7380 O   0  0  0  0  0  0  0  0  0  0  0  0
  2  3  1  0
  2  1  1  6
  4  3  1  0
  5  2  1  0
  6  5  2  0
  8  7  1  1
  8 10  1  0
  9  8  1  0
 11 10  1  1
 11 12  1  0
 12  5  1  0
 13 11  1  0
 13 20  1  0
 14 13  2  0
 16 15  1  0
 17 16  1  0
 18 17  1  0
 19 20  1  0
 19 18  1  1
 19 21  1  0
 21 23  1  0
 22 21  2  0
M  END
$$$$
