CLM.pdb
     RDKit          3D

 23 22  0  0  1  0  0  0  0  0999 V2000
   18.9961  -10.1599  -19.6826 N   0  0  0  0  0  0  0  0  0  0  0  0
   20.4294   -9.8301  -19.6826 C   0  0  1  0  0  0  0  0  0  0  0  0
   20.5658   -8.6743  -20.6410 C   0  0  0  0  0  0  0  0  0  0  0  0
   20.1792   -9.1340  -22.3423 S   0  0  0  0  0  0  0  0  0  0  0  0
   20.8350   -9.5004  -18.3190 C   0  0  0  0  0  0  0  0  0  0  0  0
   20.0268   -8.8226  -17.6008 O   0  0  0  0  0  0  0  0  0  0  0  0
   21.8050  -11.8294  -14.5677 C   0  0  0  0  0  0  0  0  0  0  0  0
   23.0492  -11.6290  -15.3932 C   0  0  2  0  0  0  0  0  0  0  0  0
   24.1937  -12.3489  -14.6604 C   0  0  0  0  0  0  0  0  0  0  0  0
   23.3618  -10.1986  -15.5864 C   0  0  0  0  0  0  0  0  0  0  0  0
   22.4153   -9.3647  -16.3696 C   0  0  2  0  0  0  0  0  0  0  0  0
   22.0494   -9.8500  -17.6675 N   0  0  0  0  0  0  0  0  0  0  0  0
   22.8316   -7.9328  -16.3523 C   0  0  0  0  0  0  0  0  0  0  0  0
   23.7078   -7.5298  -17.1855 O   0  0  0  0  0  0  0  0  0  0  0  0
   21.7578   -0.8271  -18.3066 C   0  0  0  0  0  0  0  0  0  0  0  0
   21.4613   -2.6304  -18.3181 S   0  0  0  0  0  0  0  0  0  0  0  0
   22.1157   -3.4986  -16.9522 C   0  0  0  0  0  0  0  0  0  0  0  0
   22.0375   -4.9398  -16.7324 C   0  0  0  0  0  0  0  0  0  0  0  0
   22.6887   -5.5237  -15.5564 C   0  0  2  0  0  0  0  0  0  0  0  0
   22.3202   -6.9866  -15.4727 N   0  0  0  0  0  0  0  0  0  0  0  0
   21.9781   -4.9962  -14.3138 C   0  0  0  0  0  0  0  0  0  0  0  0
   22.2902   -3.8070  -13.9397 O   0  0  0  0  0  0  0  0  0  0  0  0
   21.0704   -5.6531  -13.5831 O   0  0  0  0  0  0  0  0  0  0  0  0
  2  3  1  0
  2  1  1  1
  4  3  1  0
  5  2  1  0
  6  5  2  0
  8  7  1  1
  8 10  1  0
  9  8  1  0
 11 10  1  6
 11 12  1  0
 12  5  1  0
 13 11  1  0
 13 20  1  0
 14 13  2  0
 16 15  1  0
 17 16  1  0
 18 17  1  0
 19 20  1  0
 19 18  1  6
 19 21  1  0
 21 23  1  0
 22 21  2  0
M  END
$$$$
