CLM.pdb
     RDKit          3D

 23 22  0  0  1  0  0  0  0  0999 V2000
   17.4864  -11.5841  -18.1400 N   0  0  0  0  0  0  0  0  0  0  0  0
   18.8496  -11.1660  -18.5004 C   0  0  1  0  0  0  0  0  0  0  0  0
   18.7384  -10.6372  -19.9078 C   0  0  0  0  0  0  0  0  0  0  0  0
   20.1604   -9.6354  -20.3872 S   0  0  0  0  0  0  0  0  0  0  0  0
   19.3018  -10.1625  -17.5406 C   0  0  0  0  0  0  0  0  0  0  0  0
   18.4161   -9.5028  -16.9014 O   0  0  0  0  0  0  0  0  0  0  0  0
   21.2339   -9.9644  -13.4418 C   0  0  0  0  0  0  0  0  0  0  0  0
   22.2382  -10.0985  -14.5567 C   0  0  2  0  0  0  0  0  0  0  0  0
   23.6226  -10.2272  -13.8995 C   0  0  0  0  0  0  0  0  0  0  0  0
   22.1965   -8.9478  -15.4816 C   0  0  0  0  0  0  0  0  0  0  0  0
   20.9853   -8.7528  -16.3180 C   0  0  2  0  0  0  0  0  0  0  0  0
   20.6418   -9.8172  -17.2143 N   0  0  0  0  0  0  0  0  0  0  0  0
   20.9913   -7.4033  -16.9525 C   0  0  0  0  0  0  0  0  0  0  0  0
   21.7423   -7.1934  -17.9605 O   0  0  0  0  0  0  0  0  0  0  0  0
   17.1147   -0.4759  -17.9949 C   0  0  0  0  0  0  0  0  0  0  0  0
   17.0856   -2.1873  -17.3546 S   0  0  0  0  0  0  0  0  0  0  0  0
   18.5843   -3.0671  -17.5204 C   0  0  0  0  0  0  0  0  0  0  0  0
   18.8291   -4.4380  -17.0819 C   0  0  0  0  0  0  0  0  0  0  0  0
   20.1634   -5.0196  -17.2527 C   0  0  2  0  0  0  0  0  0  0  0  0
   20.2187   -6.3356  -16.5124 N   0  0  0  0  0  0  0  0  0  0  0  0
   21.1444   -4.2010  -16.4191 C   0  0  0  0  0  0  0  0  0  0  0  0
   21.3166   -4.5817  -15.2038 O   0  0  0  0  0  0  0  0  0  0  0  0
   21.8331   -3.1314  -16.8326 O   0  0  0  0  0  0  0  0  0  0  0  0
  2  3  1  0
  2  1  1  1
  4  3  1  0
  5  2  1  0
  6  5  2  0
  8  7  1  1
  8 10  1  0
  9  8  1  0
 11 10  1  6
 11 12  1  0
 12  5  1  0
 13 11  1  0
 13 20  1  0
 14 13  2  0
 16 15  1  0
 17 16  1  0
 18 17  1  0
 19 20  1  0
 19 18  1  1
 19 21  1  0
 21 23  1  0
 22 21  2  0
M  END
$$$$
