CLM.pdb
     RDKit          3D

 23 22  0  0  1  0  0  0  0  0999 V2000
   20.8460  -14.2037  -19.2278 N   0  0  0  0  0  0  0  0  0  0  0  0
   19.8828  -13.7175  -18.2283 C   0  0  1  0  0  0  0  0  0  0  0  0
   19.3799  -14.9571  -17.5330 C   0  0  0  0  0  0  0  0  0  0  0  0
   18.0747  -14.6019  -16.3390 S   0  0  0  0  0  0  0  0  0  0  0  0
   20.5657  -12.7893  -17.3313 C   0  0  0  0  0  0  0  0  0  0  0  0
   19.8565  -12.1206  -16.5079 O   0  0  0  0  0  0  0  0  0  0  0  0
   26.0191  -10.9992  -14.8566 C   0  0  0  0  0  0  0  0  0  0  0  0
   24.5766  -10.6790  -15.1504 C   0  0  2  0  0  0  0  0  0  0  0  0
   23.8652  -10.5325  -13.7948 C   0  0  0  0  0  0  0  0  0  0  0  0
   23.9341  -11.7222  -15.9751 C   0  0  0  0  0  0  0  0  0  0  0  0
   22.5278  -11.5201  -16.4064 C   0  0  2  0  0  0  0  0  0  0  0  0
   21.9612  -12.5285  -17.2526 N   0  0  0  0  0  0  0  0  0  0  0  0
   22.3194  -10.1278  -16.8982 C   0  0  0  0  0  0  0  0  0  0  0  0
   22.9562   -9.7302  -17.9280 O   0  0  0  0  0  0  0  0  0  0  0  0
   17.4038   -4.2260  -18.5029 C   0  0  0  0  0  0  0  0  0  0  0  0
   17.7004   -5.9717  -18.0511 S   0  0  0  0  0  0  0  0  0  0  0  0
   19.3436   -6.3530  -17.6014 C   0  0  0  0  0  0  0  0  0  0  0  0
   19.8545   -7.6755  -17.2532 C   0  0  0  0  0  0  0  0  0  0  0  0
   21.2552   -7.8208  -16.8473 C   0  0  2  0  0  0  0  0  0  0  0  0
   21.4609   -9.2138  -16.2997 N   0  0  0  0  0  0  0  0  0  0  0  0
   21.4657   -6.9997  -15.5789 C   0  0  0  0  0  0  0  0  0  0  0  0
   21.7363   -5.7543  -15.7437 O   0  0  0  0  0  0  0  0  0  0  0  0
   21.3978   -7.4540  -14.3225 O   0  0  0  0  0  0  0  0  0  0  0  0
  2  3  1  0
  2  1  1  6
  4  3  1  0
  5  2  1  0
  6  5  2  0
  8  7  1  1
  8 10  1  0
  9  8  1  0
 11 10  1  6
 11 12  1  0
 12  5  1  0
 13 11  1  0
 13 20  1  0
 14 13  2  0
 16 15  1  0
 17 16  1  0
 18 17  1  0
 19 20  1  0
 19 18  1  1
 19 21  1  0
 21 23  1  0
 22 21  2  0
M  END
$$$$
