VMC.pdb
     RDKit          3D

 22 21  0  0  1  0  0  0  0  0999 V2000
    0.0967  -26.3177   29.0980 C   0  0  0  0  0  0  0  0  0  0  0  0
   -1.3897  -26.3173   28.8380 C   0  0  2  0  0  0  0  0  0  0  0  0
   -1.8893  -24.9176   29.2204 C   0  0  0  0  0  0  0  0  0  0  0  0
   -2.1260  -27.2868   29.7242 C   0  0  2  0  0  0  0  0  0  0  0  0
   -1.5831  -28.6018   29.5023 N   0  0  0  0  0  0  0  0  0  0  0  0
   -3.5908  -27.2294   29.5477 C   0  0  0  0  0  0  0  0  0  0  0  0
   -4.0795  -27.6656   28.4874 O   0  0  0  0  0  0  0  0  0  0  0  0
  -10.6126  -28.9206   31.7928 C   0  0  0  0  0  0  0  0  0  0  0  0
   -8.8217  -29.0193   32.0098 S   0  0  0  0  0  0  0  0  0  0  0  0
   -7.9743  -27.6565   31.1180 C   0  0  0  0  0  0  0  0  0  0  0  0
   -6.5016  -27.7617   31.2766 C   0  0  0  0  0  0  0  0  0  0  0  0
   -5.8350  -26.5893   30.5605 C   0  0  2  0  0  0  0  0  0  0  0  0
   -4.3854  -26.6853   30.5804 N   0  0  0  0  0  0  0  0  0  0  0  0
   -6.2659  -25.2875   31.1051 C   0  0  0  0  0  0  0  0  0  0  0  0
   -5.9543  -24.8846   32.2655 O   0  0  0  0  0  0  0  0  0  0  0  0
   -7.0741  -24.4454   30.2771 N   0  0  0  0  0  0  0  0  0  0  0  0
   -7.6303  -23.1960   30.7152 C   0  0  1  0  0  0  0  0  0  0  0  0
   -6.9043  -22.0859   29.9427 C   0  0  0  0  0  0  0  0  0  0  0  0
   -7.5454  -20.4598   30.4236 S   0  0  0  0  0  0  0  0  0  0  0  0
   -9.0621  -23.0584   30.4285 C   0  0  0  0  0  0  0  0  0  0  0  0
   -9.6179  -23.4845   29.3786 O   0  0  0  0  0  0  0  0  0  0  0  0
   -9.8650  -22.4212   31.3640 O   0  0  0  0  0  0  0  0  0  0  0  0
  2  1  1  1
  2  4  1  0
  2  3  1  0
  4  6  1  0
  4  5  1  6
  6  7  2  0
  8  9  1  0
 10 11  1  0
 10  9  1  0
 12 11  1  1
 12 14  1  0
 13 12  1  0
 13  6  1  0
 14 16  1  0
 14 15  2  0
 16 17  1  0
 17 20  1  0
 17 18  1  6
 19 18  1  0
 20 21  2  0
 20 22  1  0
M  END
$$$$
