VMC.pdb
     RDKit          3D

 22 21  0  0  1  0  0  0  0  0999 V2000
   10.7586  -19.0732   20.3923 C   0  0  0  0  0  0  0  0  0  0  0  0
   10.7629  -18.0150   21.4681 C   0  0  2  0  0  0  0  0  0  0  0  0
   10.6409  -18.7629   22.8026 C   0  0  0  0  0  0  0  0  0  0  0  0
    9.5659  -17.1056   21.3811 C   0  0  2  0  0  0  0  0  0  0  0  0
    9.4686  -16.6167   20.0302 N   0  0  0  0  0  0  0  0  0  0  0  0
    9.5904  -16.0243   22.3862 C   0  0  0  0  0  0  0  0  0  0  0  0
   10.5803  -15.2677   22.4216 O   0  0  0  0  0  0  0  0  0  0  0  0
    5.4682  -11.7555   25.5419 C   0  0  0  0  0  0  0  0  0  0  0  0
    7.1457  -12.4235   25.6070 S   0  0  0  0  0  0  0  0  0  0  0  0
    7.1513  -14.1221   26.3037 C   0  0  0  0  0  0  0  0  0  0  0  0
    7.1692  -15.1345   25.2175 C   0  0  0  0  0  0  0  0  0  0  0  0
    8.4327  -14.9495   24.3803 C   0  0  2  0  0  0  0  0  0  0  0  0
    8.4977  -15.8837   23.2694 N   0  0  0  0  0  0  0  0  0  0  0  0
    9.6587  -15.0430   25.1957 C   0  0  0  0  0  0  0  0  0  0  0  0
   10.6733  -14.3073   25.0080 O   0  0  0  0  0  0  0  0  0  0  0  0
    9.6961  -16.0135   26.2468 N   0  0  0  0  0  0  0  0  0  0  0  0
   10.5247  -15.8916   27.4133 C   0  0  1  0  0  0  0  0  0  0  0  0
   10.0091  -14.6825   28.2060 C   0  0  0  0  0  0  0  0  0  0  0  0
   11.0438  -14.3984   29.6671 S   0  0  0  0  0  0  0  0  0  0  0  0
   10.4579  -17.0546   28.3046 C   0  0  0  0  0  0  0  0  0  0  0  0
    9.4137  -17.7347   28.5038 O   0  0  0  0  0  0  0  0  0  0  0  0
   11.6099  -17.4396   28.9758 O   0  0  0  0  0  0  0  0  0  0  0  0
  2  1  1  6
  2  4  1  0
  2  3  1  0
  4  6  1  0
  4  5  1  6
  6  7  2  0
  8  9  1  0
 10 11  1  0
 10  9  1  0
 12 11  1  1
 12 14  1  0
 13 12  1  0
 13  6  1  0
 14 16  1  0
 14 15  2  0
 16 17  1  0
 17 20  1  0
 17 18  1  1
 19 18  1  0
 20 21  2  0
 20 22  1  0
M  END
$$$$
