VMC.pdb
     RDKit          3D

 22 21  0  0  1  0  0  0  0  0999 V2000
    7.8796  -18.4022   20.2316 C   0  0  0  0  0  0  0  0  0  0  0  0
    6.8199  -17.3287   20.1885 C   0  0  2  0  0  0  0  0  0  0  0  0
    6.0822  -17.5107   18.8553 C   0  0  0  0  0  0  0  0  0  0  0  0
    7.4094  -15.9434   20.1609 C   0  0  2  0  0  0  0  0  0  0  0  0
    8.2511  -15.8350   18.9977 N   0  0  0  0  0  0  0  0  0  0  0  0
    8.1069  -15.5898   21.4133 C   0  0  0  0  0  0  0  0  0  0  0  0
    9.3266  -15.8301   21.5029 O   0  0  0  0  0  0  0  0  0  0  0  0
    5.7054  -12.4220   26.9344 C   0  0  0  0  0  0  0  0  0  0  0  0
    7.2383  -11.6447   26.3772 S   0  0  0  0  0  0  0  0  0  0  0  0
    7.8562  -12.4355   24.8398 C   0  0  0  0  0  0  0  0  0  0  0  0
    7.0359  -13.6244   24.4951 C   0  0  0  0  0  0  0  0  0  0  0  0
    7.9098  -14.6425   23.7661 C   0  0  2  0  0  0  0  0  0  0  0  0
    7.3733  -14.9942   22.4625 N   0  0  0  0  0  0  0  0  0  0  0  0
    8.1332  -15.8598   24.5693 C   0  0  0  0  0  0  0  0  0  0  0  0
    7.3868  -16.8817   24.5008 O   0  0  0  0  0  0  0  0  0  0  0  0
    9.2481  -15.8797   25.4662 N   0  0  0  0  0  0  0  0  0  0  0  0
    9.9654  -17.0730   25.8179 C   0  0  1  0  0  0  0  0  0  0  0  0
   10.6074  -17.6069   24.5299 C   0  0  0  0  0  0  0  0  0  0  0  0
   10.8808  -19.3946   24.6556 S   0  0  0  0  0  0  0  0  0  0  0  0
   11.0489  -16.8445   26.7797 C   0  0  0  0  0  0  0  0  0  0  0  0
   11.7072  -15.7710   26.8624 O   0  0  0  0  0  0  0  0  0  0  0  0
   11.3787  -17.8666   27.6585 O   0  0  0  0  0  0  0  0  0  0  0  0
  2  1  1  6
  2  4  1  0
  2  3  1  0
  4  6  1  0
  4  5  1  6
  6  7  2  0
  8  9  1  0
 10 11  1  0
 10  9  1  0
 12 11  1  1
 12 14  1  0
 13 12  1  0
 13  6  1  0
 14 16  1  0
 14 15  2  0
 16 17  1  0
 17 20  1  0
 17 18  1  6
 19 18  1  0
 20 21  2  0
 20 22  1  0
M  END
$$$$
