VMC.pdb
     RDKit          3D

 22 21  0  0  1  0  0  0  0  0999 V2000
    5.0173  -21.4566   23.2952 C   0  0  0  0  0  0  0  0  0  0  0  0
    6.0004  -20.3145   23.2175 C   0  0  2  0  0  0  0  0  0  0  0  0
    6.6927  -20.2537   24.5858 C   0  0  0  0  0  0  0  0  0  0  0  0
    5.3194  -18.9850   23.0279 C   0  0  2  0  0  0  0  0  0  0  0  0
    4.5447  -19.0445   21.8156 N   0  0  0  0  0  0  0  0  0  0  0  0
    6.2599  -17.8473   23.0569 C   0  0  0  0  0  0  0  0  0  0  0  0
    6.9777  -17.6435   22.0585 O   0  0  0  0  0  0  0  0  0  0  0  0
    6.4608  -12.8351   28.0704 C   0  0  0  0  0  0  0  0  0  0  0  0
    6.8153  -12.3179   26.3760 S   0  0  0  0  0  0  0  0  0  0  0  0
    7.5536  -13.6927   25.4088 C   0  0  0  0  0  0  0  0  0  0  0  0
    6.5843  -14.8075   25.2577 C   0  0  0  0  0  0  0  0  0  0  0  0
    7.2076  -15.9003   24.3924 C   0  0  2  0  0  0  0  0  0  0  0  0
    6.3150  -17.0320   24.2085 N   0  0  0  0  0  0  0  0  0  0  0  0
    8.5057  -16.3577   24.9238 C   0  0  0  0  0  0  0  0  0  0  0  0
    8.6487  -16.8309   26.0907 O   0  0  0  0  0  0  0  0  0  0  0  0
    9.6535  -16.2588   24.0749 N   0  0  0  0  0  0  0  0  0  0  0  0
   10.9357  -16.8169   24.4019 C   0  0  1  0  0  0  0  0  0  0  0  0
   11.7190  -16.9424   23.0878 C   0  0  0  0  0  0  0  0  0  0  0  0
   11.9185  -15.3150   22.3145 S   0  0  0  0  0  0  0  0  0  0  0  0
   11.7304  -15.9738   25.3013 C   0  0  0  0  0  0  0  0  0  0  0  0
   11.4058  -14.8040   25.6460 O   0  0  0  0  0  0  0  0  0  0  0  0
   12.9156  -16.4853   25.8109 O   0  0  0  0  0  0  0  0  0  0  0  0
  2  1  1  1
  2  4  1  0
  2  3  1  0
  4  6  1  0
  4  5  1  6
  6  7  2  0
  8  9  1  0
 10 11  1  0
 10  9  1  0
 12 11  1  1
 12 14  1  0
 13 12  1  0
 13  6  1  0
 14 16  1  0
 14 15  2  0
 16 17  1  0
 17 20  1  0
 17 18  1  6
 19 18  1  0
 20 21  2  0
 20 22  1  0
M  END
$$$$
