VMC.pdb
     RDKit          3D

 22 21  0  0  1  0  0  0  0  0999 V2000
    7.2472  -15.3929   17.5892 C   0  0  0  0  0  0  0  0  0  0  0  0
    7.8059  -15.5033   18.9865 C   0  0  2  0  0  0  0  0  0  0  0  0
    6.8805  -16.4674   19.7411 C   0  0  0  0  0  0  0  0  0  0  0  0
    7.7513  -14.1948   19.7297 C   0  0  2  0  0  0  0  0  0  0  0  0
    8.4257  -13.1987   18.9385 N   0  0  0  0  0  0  0  0  0  0  0  0
    8.2770  -14.2923   21.1060 C   0  0  0  0  0  0  0  0  0  0  0  0
    9.4883  -14.5404   21.2636 O   0  0  0  0  0  0  0  0  0  0  0  0
    7.1305  -11.1131   27.8392 C   0  0  0  0  0  0  0  0  0  0  0  0
    6.1909  -12.3728   26.9478 S   0  0  0  0  0  0  0  0  0  0  0  0
    7.2905  -13.3779   25.8747 C   0  0  0  0  0  0  0  0  0  0  0  0
    6.7594  -13.4379   24.4893 C   0  0  0  0  0  0  0  0  0  0  0  0
    7.7704  -14.1520   23.5951 C   0  0  2  0  0  0  0  0  0  0  0  0
    7.3952  -14.1023   22.1923 N   0  0  0  0  0  0  0  0  0  0  0  0
    7.9927  -15.5495   24.0128 C   0  0  0  0  0  0  0  0  0  0  0  0
    7.3315  -16.5252   23.5473 O   0  0  0  0  0  0  0  0  0  0  0  0
    9.0051  -15.8071   24.9909 N   0  0  0  0  0  0  0  0  0  0  0  0
    9.7061  -17.0556   25.1008 C   0  0  1  0  0  0  0  0  0  0  0  0
   10.4520  -17.2697   23.7764 C   0  0  0  0  0  0  0  0  0  0  0  0
   11.4927  -18.7511   23.8710 S   0  0  0  0  0  0  0  0  0  0  0  0
   10.7092  -17.0731   26.1708 C   0  0  0  0  0  0  0  0  0  0  0  0
   10.9940  -18.0930   26.8573 O   0  0  0  0  0  0  0  0  0  0  0  0
   11.3938  -15.8997   26.4539 O   0  0  0  0  0  0  0  0  0  0  0  0
  2  1  1  6
  2  4  1  0
  2  3  1  0
  4  6  1  0
  4  5  1  6
  6  7  2  0
  8  9  1  0
 10 11  1  0
 10  9  1  0
 12 11  1  1
 12 14  1  0
 13 12  1  0
 13  6  1  0
 14 16  1  0
 14 15  2  0
 16 17  1  0
 17 20  1  0
 17 18  1  6
 19 18  1  0
 20 21  2  0
 20 22  1  0
M  END
$$$$
