VMC.pdb
     RDKit          3D

 22 21  0  0  1  0  0  0  0  0999 V2000
    9.2783  -18.7098   20.9458 C   0  0  0  0  0  0  0  0  0  0  0  0
    8.0036  -17.9023   20.9356 C   0  0  2  0  0  0  0  0  0  0  0  0
    7.2602  -18.2950   19.6517 C   0  0  0  0  0  0  0  0  0  0  0  0
    8.2644  -16.4225   20.8384 C   0  0  2  0  0  0  0  0  0  0  0  0
    9.0718  -16.1829   19.6705 N   0  0  0  0  0  0  0  0  0  0  0  0
    8.8505  -15.8593   22.0711 C   0  0  0  0  0  0  0  0  0  0  0  0
   10.0918  -15.8281   22.1789 O   0  0  0  0  0  0  0  0  0  0  0  0
    6.2032  -10.9944   26.0482 C   0  0  0  0  0  0  0  0  0  0  0  0
    6.6589  -12.3714   27.1254 S   0  0  0  0  0  0  0  0  0  0  0  0
    7.8919  -13.4626   26.3130 C   0  0  0  0  0  0  0  0  0  0  0  0
    7.3539  -14.0051   25.0397 C   0  0  0  0  0  0  0  0  0  0  0  0
    8.4164  -14.8800   24.3785 C   0  0  2  0  0  0  0  0  0  0  0  0
    7.9901  -15.3773   23.0816 N   0  0  0  0  0  0  0  0  0  0  0  0
    8.8292  -16.0022   25.2428 C   0  0  0  0  0  0  0  0  0  0  0  0
    8.0482  -16.9422   25.5781 O   0  0  0  0  0  0  0  0  0  0  0  0
   10.1778  -16.0231   25.7214 N   0  0  0  0  0  0  0  0  0  0  0  0
   10.7381  -17.1095   26.4749 C   0  0  1  0  0  0  0  0  0  0  0  0
   12.2648  -16.9784   26.3843 C   0  0  0  0  0  0  0  0  0  0  0  0
   12.8802  -17.7950   24.8873 S   0  0  0  0  0  0  0  0  0  0  0  0
   10.3844  -17.0804   27.8981 C   0  0  0  0  0  0  0  0  0  0  0  0
    9.6912  -16.1738   28.4368 O   0  0  0  0  0  0  0  0  0  0  0  0
   10.8355  -18.1099   28.7121 O   0  0  0  0  0  0  0  0  0  0  0  0
  2  1  1  6
  2  4  1  0
  2  3  1  0
  4  6  1  0
  4  5  1  6
  6  7  2  0
  8  9  1  0
 10 11  1  0
 10  9  1  0
 12 11  1  1
 12 14  1  0
 13 12  1  0
 13  6  1  0
 14 16  1  0
 14 15  2  0
 16 17  1  0
 17 20  1  0
 17 18  1  1
 19 18  1  0
 20 21  2  0
 20 22  1  0
M  END
$$$$
