VMC.pdb
     RDKit          3D

 22 21  0  0  1  0  0  0  0  0999 V2000
    6.2854  -16.7932   19.1308 C   0  0  0  0  0  0  0  0  0  0  0  0
    7.1502  -16.6548   20.3596 C   0  0  2  0  0  0  0  0  0  0  0  0
    6.3220  -17.2054   21.5283 C   0  0  0  0  0  0  0  0  0  0  0  0
    7.4473  -15.2164   20.6913 C   0  0  2  0  0  0  0  0  0  0  0  0
    7.9822  -14.5835   19.5138 N   0  0  0  0  0  0  0  0  0  0  0  0
    8.3188  -15.0667   21.8738 C   0  0  0  0  0  0  0  0  0  0  0  0
    9.5194  -15.3854   21.7718 O   0  0  0  0  0  0  0  0  0  0  0  0
    6.8641  -11.6193   27.6996 C   0  0  0  0  0  0  0  0  0  0  0  0
    5.6838  -12.5701   26.7162 S   0  0  0  0  0  0  0  0  0  0  0  0
    6.5427  -13.8319   25.6960 C   0  0  0  0  0  0  0  0  0  0  0  0
    7.8434  -13.3116   25.2035 C   0  0  0  0  0  0  0  0  0  0  0  0
    8.4994  -14.3635   24.3120 C   0  0  2  0  0  0  0  0  0  0  0  0
    7.7664  -14.5700   23.0746 N   0  0  0  0  0  0  0  0  0  0  0  0
    8.6859  -15.6484   25.0129 C   0  0  0  0  0  0  0  0  0  0  0  0
    7.7299  -16.4347   25.2842 O   0  0  0  0  0  0  0  0  0  0  0  0
   10.0129  -16.0170   25.4017 N   0  0  0  0  0  0  0  0  0  0  0  0
   10.3307  -17.2367   26.0898 C   0  0  1  0  0  0  0  0  0  0  0  0
   11.7223  -17.6729   25.6108 C   0  0  0  0  0  0  0  0  0  0  0  0
   11.8005  -17.6541   23.7997 S   0  0  0  0  0  0  0  0  0  0  0  0
   10.4014  -17.0869   27.5472 C   0  0  0  0  0  0  0  0  0  0  0  0
   10.1986  -16.0013   28.1578 O   0  0  0  0  0  0  0  0  0  0  0  0
   10.7098  -18.2032   28.3118 O   0  0  0  0  0  0  0  0  0  0  0  0
  2  1  1  6
  2  4  1  0
  2  3  1  0
  4  6  1  0
  4  5  1  6
  6  7  2  0
  8  9  1  0
 10 11  1  0
 10  9  1  0
 12 11  1  1
 12 14  1  0
 13 12  1  0
 13  6  1  0
 14 16  1  0
 14 15  2  0
 16 17  1  0
 17 20  1  0
 17 18  1  6
 19 18  1  0
 20 21  2  0
 20 22  1  0
M  END
$$$$
