VMC.pdb
     RDKit          3D

 22 21  0  0  1  0  0  0  0  0999 V2000
    7.5485  -12.3591   20.2812 C   0  0  0  0  0  0  0  0  0  0  0  0
    8.4802  -13.3158   19.5786 C   0  0  2  0  0  0  0  0  0  0  0  0
    7.8452  -13.6031   18.2114 C   0  0  0  0  0  0  0  0  0  0  0  0
    8.5798  -14.6411   20.2864 C   0  0  2  0  0  0  0  0  0  0  0  0
    7.3248  -15.3299   20.1321 N   0  0  0  0  0  0  0  0  0  0  0  0
    8.9971  -14.5105   21.6967 C   0  0  0  0  0  0  0  0  0  0  0  0
   10.1599  -14.1333   21.9402 O   0  0  0  0  0  0  0  0  0  0  0  0
    6.7436  -11.1544   27.2577 C   0  0  0  0  0  0  0  0  0  0  0  0
    6.4312  -12.9338   27.2375 S   0  0  0  0  0  0  0  0  0  0  0  0
    7.7310  -13.8197   26.2907 C   0  0  0  0  0  0  0  0  0  0  0  0
    7.2120  -14.2562   24.9696 C   0  0  0  0  0  0  0  0  0  0  0  0
    8.3629  -14.8217   24.1406 C   0  0  2  0  0  0  0  0  0  0  0  0
    8.0704  -14.8154   22.7174 N   0  0  0  0  0  0  0  0  0  0  0  0
    8.7466  -16.1787   24.5748 C   0  0  0  0  0  0  0  0  0  0  0  0
    7.9610  -17.1716   24.5202 O   0  0  0  0  0  0  0  0  0  0  0  0
   10.0709  -16.3746   25.0805 N   0  0  0  0  0  0  0  0  0  0  0  0
   10.5583  -17.6345   25.5677 C   0  0  1  0  0  0  0  0  0  0  0  0
   12.0652  -17.6751   25.2785 C   0  0  0  0  0  0  0  0  0  0  0  0
   12.3739  -17.4439   23.5071 S   0  0  0  0  0  0  0  0  0  0  0  0
   10.3899  -17.8091   27.0143 C   0  0  0  0  0  0  0  0  0  0  0  0
    9.8667  -16.9486   27.7749 O   0  0  0  0  0  0  0  0  0  0  0  0
   10.8302  -18.9912   27.5928 O   0  0  0  0  0  0  0  0  0  0  0  0
  2  1  1  1
  2  4  1  0
  2  3  1  0
  4  6  1  0
  4  5  1  1
  6  7  2  0
  8  9  1  0
 10 11  1  0
 10  9  1  0
 12 11  1  1
 12 14  1  0
 13 12  1  0
 13  6  1  0
 14 16  1  0
 14 15  2  0
 16 17  1  0
 17 20  1  0
 17 18  1  1
 19 18  1  0
 20 21  2  0
 20 22  1  0
M  END
$$$$
