VMC.pdb
     RDKit          3D

 22 21  0  0  1  0  0  0  0  0999 V2000
    7.1644  -17.1400   18.7564 C   0  0  0  0  0  0  0  0  0  0  0  0
    7.7926  -16.9945   20.1207 C   0  0  2  0  0  0  0  0  0  0  0  0
    6.7135  -17.4019   21.1329 C   0  0  0  0  0  0  0  0  0  0  0  0
    8.1518  -15.5666   20.4359 C   0  0  2  0  0  0  0  0  0  0  0  0
    9.0472  -15.0909   19.4135 N   0  0  0  0  0  0  0  0  0  0  0  0
    8.6905  -15.3964   21.8001 C   0  0  0  0  0  0  0  0  0  0  0  0
    9.8218  -15.8538   22.0540 O   0  0  0  0  0  0  0  0  0  0  0  0
    5.7578  -11.2249   25.9791 C   0  0  0  0  0  0  0  0  0  0  0  0
    6.8103  -12.1222   27.1415 S   0  0  0  0  0  0  0  0  0  0  0  0
    7.8319  -13.3757   26.2721 C   0  0  0  0  0  0  0  0  0  0  0  0
    7.3387  -13.5853   24.8872 C   0  0  0  0  0  0  0  0  0  0  0  0
    8.2722  -14.5530   24.1635 C   0  0  2  0  0  0  0  0  0  0  0  0
    7.9106  -14.7249   22.7668 N   0  0  0  0  0  0  0  0  0  0  0  0
    8.3431  -15.8646   24.8355 C   0  0  0  0  0  0  0  0  0  0  0  0
    7.4702  -16.7702   24.6811 O   0  0  0  0  0  0  0  0  0  0  0  0
    9.4537  -16.1184   25.7016 N   0  0  0  0  0  0  0  0  0  0  0  0
    9.7108  -17.3917   26.3137 C   0  0  1  0  0  0  0  0  0  0  0  0
   10.3996  -18.2668   25.2572 C   0  0  0  0  0  0  0  0  0  0  0  0
   10.9343  -19.8365   25.9896 S   0  0  0  0  0  0  0  0  0  0  0  0
   10.6120  -17.3165   27.4685 C   0  0  0  0  0  0  0  0  0  0  0  0
   11.2778  -16.2909   27.7810 O   0  0  0  0  0  0  0  0  0  0  0  0
   10.7482  -18.4379   28.2744 O   0  0  0  0  0  0  0  0  0  0  0  0
  2  1  1  6
  2  4  1  0
  2  3  1  0
  4  6  1  0
  4  5  1  6
  6  7  2  0
  8  9  1  0
 10 11  1  0
 10  9  1  0
 12 11  1  1
 12 14  1  0
 13 12  1  0
 13  6  1  0
 14 16  1  0
 14 15  2  0
 16 17  1  0
 17 20  1  0
 17 18  1  6
 19 18  1  0
 20 21  2  0
 20 22  1  0
M  END
$$$$
