VMC.pdb
     RDKit          3D

 22 21  0  0  1  0  0  0  0  0999 V2000
   -4.2334  -28.8236   28.6680 C   0  0  0  0  0  0  0  0  0  0  0  0
   -4.3432  -28.5399   27.1900 C   0  0  2  0  0  0  0  0  0  0  0  0
   -4.1099  -29.8802   26.4799 C   0  0  0  0  0  0  0  0  0  0  0  0
   -3.2637  -27.6094   26.7041 C   0  0  2  0  0  0  0  0  0  0  0  0
   -1.9879  -28.2225   26.9679 N   0  0  0  0  0  0  0  0  0  0  0  0
   -3.3788  -26.2499   27.2686 C   0  0  0  0  0  0  0  0  0  0  0  0
   -2.8541  -26.0192   28.3753 O   0  0  0  0  0  0  0  0  0  0  0  0
   -2.3953  -20.2063   24.7260 C   0  0  0  0  0  0  0  0  0  0  0  0
   -2.0639  -21.9043   24.2051 S   0  0  0  0  0  0  0  0  0  0  0  0
   -2.5469  -23.0999   25.5120 C   0  0  0  0  0  0  0  0  0  0  0  0
   -3.9460  -22.8622   25.9493 C   0  0  0  0  0  0  0  0  0  0  0  0
   -4.3282  -23.9054   26.9968 C   0  0  2  0  0  0  0  0  0  0  0  0
   -4.0758  -25.2613   26.5400 N   0  0  0  0  0  0  0  0  0  0  0  0
   -5.7314  -23.7683   27.4319 C   0  0  0  0  0  0  0  0  0  0  0  0
   -6.7182  -24.0301   26.6812 O   0  0  0  0  0  0  0  0  0  0  0  0
   -5.9815  -23.3176   28.7669 N   0  0  0  0  0  0  0  0  0  0  0  0
   -7.2972  -23.1623   29.3210 C   0  0  1  0  0  0  0  0  0  0  0  0
   -7.4709  -24.2602   30.3796 C   0  0  0  0  0  0  0  0  0  0  0  0
   -7.3459  -25.8992   29.6150 S   0  0  0  0  0  0  0  0  0  0  0  0
   -7.5025  -21.8753   29.9938 C   0  0  0  0  0  0  0  0  0  0  0  0
   -6.5933  -21.0194   30.1770 O   0  0  0  0  0  0  0  0  0  0  0  0
   -8.7726  -21.5698   30.4621 O   0  0  0  0  0  0  0  0  0  0  0  0
  2  1  1  1
  2  4  1  0
  2  3  1  0
  4  6  1  0
  4  5  1  1
  6  7  2  0
  8  9  1  0
 10 11  1  0
 10  9  1  0
 12 11  1  6
 12 14  1  0
 13 12  1  0
 13  6  1  0
 14 16  1  0
 14 15  2  0
 16 17  1  0
 17 20  1  0
 17 18  1  1
 19 18  1  0
 20 21  2  0
 20 22  1  0
M  END
$$$$
