VMC.pdb
     RDKit          3D

 22 21  0  0  1  0  0  0  0  0999 V2000
    8.3037  -15.7461   19.3623 C   0  0  0  0  0  0  0  0  0  0  0  0
    7.1567  -14.8301   19.7118 C   0  0  2  0  0  0  0  0  0  0  0  0
    6.5300  -14.4029   18.3777 C   0  0  0  0  0  0  0  0  0  0  0  0
    7.6190  -13.5660   20.3868 C   0  0  2  0  0  0  0  0  0  0  0  0
    8.4522  -12.8407   19.4632 N   0  0  0  0  0  0  0  0  0  0  0  0
    8.2766  -13.8143   21.6853 C   0  0  0  0  0  0  0  0  0  0  0  0
    9.5221  -13.8080   21.7318 O   0  0  0  0  0  0  0  0  0  0  0  0
    6.9084  -11.1746   27.8393 C   0  0  0  0  0  0  0  0  0  0  0  0
    5.7843  -11.7070   26.5289 S   0  0  0  0  0  0  0  0  0  0  0  0
    6.7157  -12.3530   25.0847 C   0  0  0  0  0  0  0  0  0  0  0  0
    6.9754  -13.8072   25.2359 C   0  0  0  0  0  0  0  0  0  0  0  0
    7.9790  -14.2506   24.1738 C   0  0  2  0  0  0  0  0  0  0  0  0
    7.4773  -14.0496   22.8252 N   0  0  0  0  0  0  0  0  0  0  0  0
    8.3987  -15.6532   24.3564 C   0  0  0  0  0  0  0  0  0  0  0  0
    7.6072  -16.6350   24.2314 O   0  0  0  0  0  0  0  0  0  0  0  0
    9.7665  -15.9089   24.6906 N   0  0  0  0  0  0  0  0  0  0  0  0
   10.2935  -17.2219   24.9367 C   0  0  1  0  0  0  0  0  0  0  0  0
   11.7806  -17.1870   24.5578 C   0  0  0  0  0  0  0  0  0  0  0  0
   11.9777  -16.7078   22.8206 S   0  0  0  0  0  0  0  0  0  0  0  0
   10.2142  -17.6320   26.3427 C   0  0  0  0  0  0  0  0  0  0  0  0
    9.6886  -16.9356   27.2546 O   0  0  0  0  0  0  0  0  0  0  0  0
   10.7475  -18.8614   26.7034 O   0  0  0  0  0  0  0  0  0  0  0  0
  2  1  1  6
  2  4  1  0
  2  3  1  0
  4  6  1  0
  4  5  1  6
  6  7  2  0
  8  9  1  0
 10 11  1  0
 10  9  1  0
 12 11  1  1
 12 14  1  0
 13 12  1  0
 13  6  1  0
 14 16  1  0
 14 15  2  0
 16 17  1  0
 17 20  1  0
 17 18  1  1
 19 18  1  0
 20 21  2  0
 20 22  1  0
M  END
$$$$
