VMC.pdb
     RDKit          3D

 22 21  0  0  1  0  0  0  0  0999 V2000
    8.1534  -18.4901   20.4851 C   0  0  0  0  0  0  0  0  0  0  0  0
    7.1896  -17.3387   20.3350 C   0  0  2  0  0  0  0  0  0  0  0  0
    6.5307  -17.5105   18.9597 C   0  0  0  0  0  0  0  0  0  0  0  0
    7.8901  -16.0061   20.3058 C   0  0  2  0  0  0  0  0  0  0  0  0
    8.7950  -15.9971   19.1858 N   0  0  0  0  0  0  0  0  0  0  0  0
    8.5502  -15.6748   21.5843 C   0  0  0  0  0  0  0  0  0  0  0  0
    9.7645  -15.9268   21.7093 O   0  0  0  0  0  0  0  0  0  0  0  0
    5.6801  -11.5801   25.9687 C   0  0  0  0  0  0  0  0  0  0  0  0
    6.7636  -12.5426   27.0475 S   0  0  0  0  0  0  0  0  0  0  0  0
    7.8978  -13.6014   26.0662 C   0  0  0  0  0  0  0  0  0  0  0  0
    7.2871  -13.9538   24.7592 C   0  0  0  0  0  0  0  0  0  0  0  0
    8.2726  -14.8007   23.9572 C   0  0  2  0  0  0  0  0  0  0  0  0
    7.7884  -15.0867   22.6175 N   0  0  0  0  0  0  0  0  0  0  0  0
    8.6204  -16.0555   24.6509 C   0  0  0  0  0  0  0  0  0  0  0  0
    7.9306  -17.1143   24.5552 O   0  0  0  0  0  0  0  0  0  0  0  0
    9.7945  -16.0696   25.4691 N   0  0  0  0  0  0  0  0  0  0  0  0
   10.5465  -17.2575   25.7614 C   0  0  1  0  0  0  0  0  0  0  0  0
   11.1740  -17.7277   24.4418 C   0  0  0  0  0  0  0  0  0  0  0  0
   12.1435  -19.2365   24.7067 S   0  0  0  0  0  0  0  0  0  0  0  0
   11.6441  -17.0388   26.7095 C   0  0  0  0  0  0  0  0  0  0  0  0
   12.3568  -15.9977   26.7391 O   0  0  0  0  0  0  0  0  0  0  0  0
   11.9246  -18.0329   27.6362 O   0  0  0  0  0  0  0  0  0  0  0  0
  2  1  1  6
  2  4  1  0
  2  3  1  0
  4  6  1  0
  4  5  1  6
  6  7  2  0
  8  9  1  0
 10 11  1  0
 10  9  1  0
 12 11  1  1
 12 14  1  0
 13 12  1  0
 13  6  1  0
 14 16  1  0
 14 15  2  0
 16 17  1  0
 17 20  1  0
 17 18  1  6
 19 18  1  0
 20 21  2  0
 20 22  1  0
M  END
$$$$
