VMC.pdb
     RDKit          3D

 22 21  0  0  1  0  0  0  0  0999 V2000
    6.9946  -19.0711   21.3519 C   0  0  0  0  0  0  0  0  0  0  0  0
    6.0057  -17.9538   21.1267 C   0  0  2  0  0  0  0  0  0  0  0  0
    4.9403  -18.5127   20.1740 C   0  0  0  0  0  0  0  0  0  0  0  0
    6.6249  -16.7743   20.4248 C   0  0  2  0  0  0  0  0  0  0  0  0
    6.9989  -17.1857   19.0966 N   0  0  0  0  0  0  0  0  0  0  0  0
    7.7437  -16.1770   21.1809 C   0  0  0  0  0  0  0  0  0  0  0  0
    8.9050  -16.5396   20.9101 O   0  0  0  0  0  0  0  0  0  0  0  0
    5.7105  -12.7455   27.3917 C   0  0  0  0  0  0  0  0  0  0  0  0
    6.5884  -12.2719   25.8853 S   0  0  0  0  0  0  0  0  0  0  0  0
    7.2073  -13.7513   24.9913 C   0  0  0  0  0  0  0  0  0  0  0  0
    7.9086  -13.3550   23.7438 C   0  0  0  0  0  0  0  0  0  0  0  0
    8.4483  -14.6052   23.0530 C   0  0  2  0  0  0  0  0  0  0  0  0
    7.4626  -15.2200   22.1804 N   0  0  0  0  0  0  0  0  0  0  0  0
    8.9614  -15.5962   24.0182 C   0  0  0  0  0  0  0  0  0  0  0  0
    8.2101  -16.3795   24.6724 O   0  0  0  0  0  0  0  0  0  0  0  0
   10.3763  -15.6701   24.2196 N   0  0  0  0  0  0  0  0  0  0  0  0
   11.0180  -16.6996   24.9880 C   0  0  1  0  0  0  0  0  0  0  0  0
   11.2653  -17.8803   24.0387 C   0  0  0  0  0  0  0  0  0  0  0  0
   12.2900  -17.3587   22.6371 S   0  0  0  0  0  0  0  0  0  0  0  0
   12.3206  -16.3005   25.5316 C   0  0  0  0  0  0  0  0  0  0  0  0
   12.8845  -15.1995   25.2818 O   0  0  0  0  0  0  0  0  0  0  0  0
   12.9827  -17.1818   26.3747 O   0  0  0  0  0  0  0  0  0  0  0  0
  2  1  1  6
  2  4  1  0
  2  3  1  0
  4  6  1  0
  4  5  1  6
  6  7  2  0
  8  9  1  0
 10 11  1  0
 10  9  1  0
 12 11  1  1
 12 14  1  0
 13 12  1  0
 13  6  1  0
 14 16  1  0
 14 15  2  0
 16 17  1  0
 17 20  1  0
 17 18  1  6
 19 18  1  0
 20 21  2  0
 20 22  1  0
M  END
$$$$
