VMC.pdb
     RDKit          3D

 22 21  0  0  1  0  0  0  0  0999 V2000
    7.3048  -17.0755   18.7409 C   0  0  0  0  0  0  0  0  0  0  0  0
    7.8930  -16.8815   20.1169 C   0  0  2  0  0  0  0  0  0  0  0  0
    7.0168  -17.7000   21.0747 C   0  0  0  0  0  0  0  0  0  0  0  0
    7.8057  -15.4515   20.5802 C   0  0  2  0  0  0  0  0  0  0  0  0
    8.3912  -14.6129   19.5667 N   0  0  0  0  0  0  0  0  0  0  0  0
    8.3984  -15.2422   21.9162 C   0  0  0  0  0  0  0  0  0  0  0  0
    9.6367  -15.3189   22.0360 O   0  0  0  0  0  0  0  0  0  0  0  0
    7.0249  -11.8205   27.6291 C   0  0  0  0  0  0  0  0  0  0  0  0
    5.9713  -11.7641   26.1626 S   0  0  0  0  0  0  0  0  0  0  0  0
    6.6744  -12.7836   24.8072 C   0  0  0  0  0  0  0  0  0  0  0  0
    6.9026  -14.1780   25.2640 C   0  0  0  0  0  0  0  0  0  0  0  0
    7.9755  -14.8230   24.3895 C   0  0  2  0  0  0  0  0  0  0  0  0
    7.5477  -14.9636   23.0082 N   0  0  0  0  0  0  0  0  0  0  0  0
    8.4158  -16.1272   24.9207 C   0  0  0  0  0  0  0  0  0  0  0  0
    7.6953  -17.1690   24.8843 O   0  0  0  0  0  0  0  0  0  0  0  0
    9.7202  -16.2114   25.5033 N   0  0  0  0  0  0  0  0  0  0  0  0
   10.2759  -17.4225   26.0388 C   0  0  1  0  0  0  0  0  0  0  0  0
   11.6485  -17.6164   25.3796 C   0  0  0  0  0  0  0  0  0  0  0  0
   11.4525  -18.1977   23.6737 S   0  0  0  0  0  0  0  0  0  0  0  0
   10.4939  -17.3773   27.4885 C   0  0  0  0  0  0  0  0  0  0  0  0
   10.2183  -16.3829   28.2151 O   0  0  0  0  0  0  0  0  0  0  0  0
   11.0370  -18.4929   28.1100 O   0  0  0  0  0  0  0  0  0  0  0  0
  2  1  1  6
  2  4  1  0
  2  3  1  0
  4  6  1  0
  4  5  1  6
  6  7  2  0
  8  9  1  0
 10 11  1  0
 10  9  1  0
 12 11  1  1
 12 14  1  0
 13 12  1  0
 13  6  1  0
 14 16  1  0
 14 15  2  0
 16 17  1  0
 17 20  1  0
 17 18  1  6
 19 18  1  0
 20 21  2  0
 20 22  1  0
M  END
$$$$
