DLG.pdb
     RDKit          3D

 21 20  0  0  1  0  0  0  0  0999 V2000
   10.0959  -15.4874   21.2860 N   0  0  0  0  0  0  0  0  0  0  0  0
    9.0007  -15.9869   22.0558 C   0  0  1  0  0  0  0  0  0  0  0  0
    8.8398  -17.4922   21.9518 C   0  0  0  0  0  0  0  0  0  0  0  0
    8.3261  -17.8321   20.6120 C   0  0  0  0  0  0  0  0  0  0  0  0
    8.7452  -17.2203   19.6104 O   0  0  0  0  0  0  0  0  0  0  0  0
    9.1597  -15.5573   23.4691 C   0  0  0  0  0  0  0  0  0  0  0  0
   10.3223  -15.4187   23.9878 O   0  0  0  0  0  0  0  0  0  0  0  0
    7.3853  -18.8220   20.4567 O   0  0  0  0  0  0  0  0  0  0  0  0
    7.9595  -11.7257   25.9544 C   0  0  0  0  0  0  0  0  0  0  0  0
    6.9071  -12.6852   25.4746 C   0  0  2  0  0  0  0  0  0  0  0  0
    5.5397  -12.1401   25.9284 C   0  0  0  0  0  0  0  0  0  0  0  0
    7.0924  -14.0276   26.0371 C   0  0  0  0  0  0  0  0  0  0  0  0
    8.2769  -14.8503   25.7417 C   0  0  2  0  0  0  0  0  0  0  0  0
    8.0587  -15.2797   24.3158 N   0  0  0  0  0  0  0  0  0  0  0  0
    8.6332  -15.9852   26.5507 C   0  0  0  0  0  0  0  0  0  0  0  0
    8.8408  -15.8110   27.7909 O   0  0  0  0  0  0  0  0  0  0  0  0
    8.7738  -17.3220   26.1012 N   0  0  0  0  0  0  0  0  0  0  0  0
    9.0617  -18.4042   27.0265 C   0  0  0  0  0  0  0  0  0  0  0  0
   10.5183  -18.5113   27.2458 C   0  0  0  0  0  0  0  0  0  0  0  0
   11.0413  -19.3481   28.2145 O   0  0  0  0  0  0  0  0  0  0  0  0
   11.3171  -17.8369   26.5484 O   0  0  0  0  0  0  0  0  0  0  0  0
  2  1  1  6
  2  3  1  0
  3  4  1  0
  4  8  1  0
  4  5  2  0
  6  2  1  0
  7  6  2  0
 10  9  1  1
 10 12  1  0
 11 10  1  0
 13 12  1  1
 13 14  1  0
 14  6  1  0
 15 16  2  0
 15 13  1  0
 17 15  1  0
 18 17  1  0
 19 18  1  0
 20 19  1  0
 21 19  2  0
M  END
$$$$
