DLG.pdb
     RDKit          3D

 21 20  0  0  1  0  0  0  0  0999 V2000
    7.4321  -16.6826   21.9482 N   0  0  0  0  0  0  0  0  0  0  0  0
    8.7875  -16.2340   21.8897 C   0  0  1  0  0  0  0  0  0  0  0  0
    9.0547  -15.3037   20.7210 C   0  0  0  0  0  0  0  0  0  0  0  0
    9.2402  -16.1054   19.4973 C   0  0  0  0  0  0  0  0  0  0  0  0
    8.4596  -17.0429   19.2426 O   0  0  0  0  0  0  0  0  0  0  0  0
    9.1477  -15.5950   23.1816 C   0  0  0  0  0  0  0  0  0  0  0  0
   10.3013  -15.0667   23.3553 O   0  0  0  0  0  0  0  0  0  0  0  0
   10.2703  -15.8270   18.6311 O   0  0  0  0  0  0  0  0  0  0  0  0
    8.0924  -11.7367   25.7403 C   0  0  0  0  0  0  0  0  0  0  0  0
    7.0825  -12.7879   25.3749 C   0  0  2  0  0  0  0  0  0  0  0  0
    5.7234  -12.3464   25.9503 C   0  0  0  0  0  0  0  0  0  0  0  0
    7.4301  -14.0993   25.9338 C   0  0  0  0  0  0  0  0  0  0  0  0
    8.6533  -14.8220   25.5484 C   0  0  2  0  0  0  0  0  0  0  0  0
    8.2572  -15.5307   24.2811 N   0  0  0  0  0  0  0  0  0  0  0  0
    9.3066  -15.7389   26.4440 C   0  0  0  0  0  0  0  0  0  0  0  0
    9.4499  -15.4075   27.6610 O   0  0  0  0  0  0  0  0  0  0  0  0
    9.8167  -17.0176   26.1067 N   0  0  0  0  0  0  0  0  0  0  0  0
   10.3630  -17.9044   27.1192 C   0  0  0  0  0  0  0  0  0  0  0  0
   10.7886  -19.1776   26.5035 C   0  0  0  0  0  0  0  0  0  0  0  0
   10.6956  -19.3847   25.1394 O   0  0  0  0  0  0  0  0  0  0  0  0
   11.2480  -20.1055   27.2158 O   0  0  0  0  0  0  0  0  0  0  0  0
  2  1  1  1
  2  3  1  0
  3  4  1  0
  4  8  1  0
  4  5  2  0
  6  2  1  0
  7  6  2  0
 10  9  1  1
 10 12  1  0
 11 10  1  0
 13 12  1  1
 13 14  1  0
 14  6  1  0
 15 16  2  0
 15 13  1  0
 17 15  1  0
 18 17  1  0
 19 18  1  0
 20 19  1  0
 21 19  2  0
M  END
$$$$
