DLG.pdb
     RDKit          3D

 21 20  0  0  1  0  0  0  0  0999 V2000
    7.5724  -17.1756   22.0259 N   0  0  0  0  0  0  0  0  0  0  0  0
    8.9146  -16.6966   21.9206 C   0  0  1  0  0  0  0  0  0  0  0  0
    9.2323  -16.1169   20.5547 C   0  0  0  0  0  0  0  0  0  0  0  0
    9.4157  -17.2191   19.5923 C   0  0  0  0  0  0  0  0  0  0  0  0
    9.2809  -18.4006   19.9653 O   0  0  0  0  0  0  0  0  0  0  0  0
    9.1670  -15.7067   22.9992 C   0  0  0  0  0  0  0  0  0  0  0  0
   10.2829  -15.0827   23.0715 O   0  0  0  0  0  0  0  0  0  0  0  0
    9.7351  -16.9544   18.2820 O   0  0  0  0  0  0  0  0  0  0  0  0
    5.5897  -12.3851   26.5612 C   0  0  0  0  0  0  0  0  0  0  0  0
    7.0420  -12.6893   26.3229 C   0  0  2  0  0  0  0  0  0  0  0  0
    7.7157  -11.3906   25.8407 C   0  0  0  0  0  0  0  0  0  0  0  0
    7.2239  -13.7253   25.2999 C   0  0  0  0  0  0  0  0  0  0  0  0
    8.5189  -14.3860   25.0678 C   0  0  2  0  0  0  0  0  0  0  0  0
    8.2098  -15.3963   23.9959 N   0  0  0  0  0  0  0  0  0  0  0  0
    9.2553  -15.0079   26.1357 C   0  0  0  0  0  0  0  0  0  0  0  0
    9.6424  -14.2917   27.1097 O   0  0  0  0  0  0  0  0  0  0  0  0
    9.5996  -16.3799   26.2264 N   0  0  0  0  0  0  0  0  0  0  0  0
   10.2732  -16.9143   27.3972 C   0  0  0  0  0  0  0  0  0  0  0  0
   10.5939  -18.3412   27.1919 C   0  0  0  0  0  0  0  0  0  0  0  0
   10.3149  -18.9775   25.9963 O   0  0  0  0  0  0  0  0  0  0  0  0
   11.1319  -19.0100   28.1099 O   0  0  0  0  0  0  0  0  0  0  0  0
  2  1  1  6
  2  3  1  0
  3  4  1  0
  4  8  1  0
  4  5  2  0
  6  2  1  0
  7  6  2  0
 10  9  1  6
 10 12  1  0
 11 10  1  0
 13 12  1  1
 13 14  1  0
 14  6  1  0
 15 16  2  0
 15 13  1  0
 17 15  1  0
 18 17  1  0
 19 18  1  0
 20 19  1  0
 21 19  2  0
M  END
$$$$
