DLG.pdb
     RDKit          3D

 21 20  0  0  1  0  0  0  0  0999 V2000
    7.6012  -16.3646   22.0001 N   0  0  0  0  0  0  0  0  0  0  0  0
    8.9967  -16.1753   22.2422 C   0  0  1  0  0  0  0  0  0  0  0  0
    9.6469  -15.2251   21.2538 C   0  0  0  0  0  0  0  0  0  0  0  0
   10.0550  -15.9796   20.0544 C   0  0  0  0  0  0  0  0  0  0  0  0
    9.5162  -17.0725   19.7927 O   0  0  0  0  0  0  0  0  0  0  0  0
    9.1929  -15.7163   23.6414 C   0  0  0  0  0  0  0  0  0  0  0  0
   10.3626  -15.4471   24.0877 O   0  0  0  0  0  0  0  0  0  0  0  0
   11.0282  -15.4866   19.2184 O   0  0  0  0  0  0  0  0  0  0  0  0
    8.2628  -11.9831   26.1726 C   0  0  0  0  0  0  0  0  0  0  0  0
    7.1308  -12.8586   25.7137 C   0  0  2  0  0  0  0  0  0  0  0  0
    5.8196  -12.2228   26.2133 C   0  0  0  0  0  0  0  0  0  0  0  0
    7.2350  -14.2178   26.2564 C   0  0  0  0  0  0  0  0  0  0  0  0
    8.3783  -15.0982   25.9648 C   0  0  2  0  0  0  0  0  0  0  0  0
    8.1212  -15.5506   24.5526 N   0  0  0  0  0  0  0  0  0  0  0  0
    8.6965  -16.2286   26.7958 C   0  0  0  0  0  0  0  0  0  0  0  0
    8.9075  -16.0380   28.0330 O   0  0  0  0  0  0  0  0  0  0  0  0
    8.7945  -17.5775   26.3717 N   0  0  0  0  0  0  0  0  0  0  0  0
    9.1196  -18.6416   27.3056 C   0  0  0  0  0  0  0  0  0  0  0  0
   10.5844  -18.8050   27.4001 C   0  0  0  0  0  0  0  0  0  0  0  0
   11.1565  -20.0364   27.6620 O   0  0  0  0  0  0  0  0  0  0  0  0
   11.3453  -17.8173   27.2424 O   0  0  0  0  0  0  0  0  0  0  0  0
  2  1  1  6
  2  3  1  0
  3  4  1  0
  4  8  1  0
  4  5  2  0
  6  2  1  0
  7  6  2  0
 10  9  1  1
 10 12  1  0
 11 10  1  0
 13 12  1  1
 13 14  1  0
 14  6  1  0
 15 16  2  0
 15 13  1  0
 17 15  1  0
 18 17  1  0
 19 18  1  0
 20 19  1  0
 21 19  2  0
M  END
$$$$
