DLG.pdb
     RDKit          3D

 21 20  0  0  1  0  0  0  0  0999 V2000
    7.0081  -16.2870   21.8523 N   0  0  0  0  0  0  0  0  0  0  0  0
    8.3402  -15.7763   21.7713 C   0  0  1  0  0  0  0  0  0  0  0  0
    8.5008  -14.7029   20.7109 C   0  0  0  0  0  0  0  0  0  0  0  0
    8.3747  -15.3184   19.3767 C   0  0  0  0  0  0  0  0  0  0  0  0
    8.4825  -16.5532   19.2477 O   0  0  0  0  0  0  0  0  0  0  0  0
    8.7564  -15.2807   23.1086 C   0  0  0  0  0  0  0  0  0  0  0  0
    9.9485  -14.8598   23.3124 O   0  0  0  0  0  0  0  0  0  0  0  0
    8.1381  -14.5395   18.2693 O   0  0  0  0  0  0  0  0  0  0  0  0
    7.6963  -11.6819   25.7162 C   0  0  0  0  0  0  0  0  0  0  0  0
    6.6902  -12.7878   25.5635 C   0  0  2  0  0  0  0  0  0  0  0  0
    5.4230  -12.3730   26.3350 C   0  0  0  0  0  0  0  0  0  0  0  0
    7.1838  -14.0566   26.1106 C   0  0  0  0  0  0  0  0  0  0  0  0
    8.3597  -14.7494   25.5589 C   0  0  2  0  0  0  0  0  0  0  0  0
    7.8798  -15.2430   24.2205 N   0  0  0  0  0  0  0  0  0  0  0  0
    9.0172  -15.8124   26.2710 C   0  0  0  0  0  0  0  0  0  0  0  0
    9.4054  -15.6025   27.4613 O   0  0  0  0  0  0  0  0  0  0  0  0
    9.2796  -17.1143   25.7757 N   0  0  0  0  0  0  0  0  0  0  0  0
    9.8547  -18.1439   26.6238 C   0  0  0  0  0  0  0  0  0  0  0  0
   11.3265  -18.1390   26.5022 C   0  0  0  0  0  0  0  0  0  0  0  0
   12.1109  -19.0308   27.2104 O   0  0  0  0  0  0  0  0  0  0  0  0
   11.8987  -17.3156   25.7446 O   0  0  0  0  0  0  0  0  0  0  0  0
  2  1  1  1
  2  3  1  0
  3  4  1  0
  4  8  1  0
  4  5  2  0
  6  2  1  0
  7  6  2  0
 10  9  1  1
 10 12  1  0
 11 10  1  0
 13 12  1  1
 13 14  1  0
 14  6  1  0
 15 16  2  0
 15 13  1  0
 17 15  1  0
 18 17  1  0
 19 18  1  0
 20 19  1  0
 21 19  2  0
M  END
$$$$
