DLG.pdb
     RDKit          3D

 21 20  0  0  1  0  0  0  0  0999 V2000
    7.3712  -16.5860   22.2674 N   0  0  0  0  0  0  0  0  0  0  0  0
    8.7388  -16.1726   22.2898 C   0  0  1  0  0  0  0  0  0  0  0  0
    9.1031  -15.2635   21.1307 C   0  0  0  0  0  0  0  0  0  0  0  0
    9.1454  -16.0570   19.8885 C   0  0  0  0  0  0  0  0  0  0  0  0
    8.1168  -16.6301   19.4801 O   0  0  0  0  0  0  0  0  0  0  0  0
    9.0337  -15.5275   23.5952 C   0  0  0  0  0  0  0  0  0  0  0  0
   10.1953  -15.0503   23.8458 O   0  0  0  0  0  0  0  0  0  0  0  0
   10.3137  -16.1709   19.1736 O   0  0  0  0  0  0  0  0  0  0  0  0
    7.8780  -11.7396   25.4513 C   0  0  0  0  0  0  0  0  0  0  0  0
    6.8584  -12.8435   25.4646 C   0  0  2  0  0  0  0  0  0  0  0  0
    5.5529  -12.2632   26.0407 C   0  0  0  0  0  0  0  0  0  0  0  0
    7.2841  -13.9723   26.2996 C   0  0  0  0  0  0  0  0  0  0  0  0
    8.4435  -14.8129   25.9584 C   0  0  2  0  0  0  0  0  0  0  0  0
    8.0692  -15.4017   24.6248 N   0  0  0  0  0  0  0  0  0  0  0  0
    8.9166  -15.8466   26.8399 C   0  0  0  0  0  0  0  0  0  0  0  0
    9.2948  -15.5276   28.0090 O   0  0  0  0  0  0  0  0  0  0  0  0
    9.0011  -17.2291   26.5388 N   0  0  0  0  0  0  0  0  0  0  0  0
    9.3311  -18.2065   27.5615 C   0  0  0  0  0  0  0  0  0  0  0  0
   10.7872  -18.4529   27.5780 C   0  0  0  0  0  0  0  0  0  0  0  0
   11.6460  -17.7507   26.7523 O   0  0  0  0  0  0  0  0  0  0  0  0
   11.2772  -19.3140   28.3510 O   0  0  0  0  0  0  0  0  0  0  0  0
  2  1  1  1
  2  3  1  0
  3  4  1  0
  4  8  1  0
  4  5  2  0
  6  2  1  0
  7  6  2  0
 10  9  1  1
 10 12  1  0
 11 10  1  0
 13 12  1  1
 13 14  1  0
 14  6  1  0
 15 16  2  0
 15 13  1  0
 17 15  1  0
 18 17  1  0
 19 18  1  0
 20 19  1  0
 21 19  2  0
M  END
$$$$
