DLG.pdb
     RDKit          3D

 21 20  0  0  1  0  0  0  0  0999 V2000
    7.7182  -16.7415   22.0421 N   0  0  0  0  0  0  0  0  0  0  0  0
    9.0665  -16.2688   22.0177 C   0  0  1  0  0  0  0  0  0  0  0  0
    9.3815  -15.4368   20.7884 C   0  0  0  0  0  0  0  0  0  0  0  0
    9.2611  -16.2839   19.5873 C   0  0  0  0  0  0  0  0  0  0  0  0
    8.9199  -17.4774   19.6985 O   0  0  0  0  0  0  0  0  0  0  0  0
    9.3428  -15.5129   23.2665 C   0  0  0  0  0  0  0  0  0  0  0  0
   10.4211  -14.8353   23.4005 O   0  0  0  0  0  0  0  0  0  0  0  0
    9.5225  -15.7672   18.3409 O   0  0  0  0  0  0  0  0  0  0  0  0
    7.7078  -11.8045   25.5601 C   0  0  0  0  0  0  0  0  0  0  0  0
    6.8846  -13.0539   25.4200 C   0  0  2  0  0  0  0  0  0  0  0  0
    5.5209  -12.7889   26.0857 C   0  0  0  0  0  0  0  0  0  0  0  0
    7.5171  -14.2032   26.0772 C   0  0  0  0  0  0  0  0  0  0  0  0
    8.8054  -14.7574   25.6295 C   0  0  2  0  0  0  0  0  0  0  0  0
    8.4500  -15.4937   24.3659 N   0  0  0  0  0  0  0  0  0  0  0  0
    9.6077  -15.5948   26.4806 C   0  0  0  0  0  0  0  0  0  0  0  0
    9.9758  -15.1454   27.6094 O   0  0  0  0  0  0  0  0  0  0  0  0
   10.0388  -16.9136   26.1908 N   0  0  0  0  0  0  0  0  0  0  0  0
   10.9079  -17.6414   27.0992 C   0  0  0  0  0  0  0  0  0  0  0  0
   10.1015  -18.4538   28.0324 C   0  0  0  0  0  0  0  0  0  0  0  0
   10.6939  -19.2014   29.0336 O   0  0  0  0  0  0  0  0  0  0  0  0
    8.8490  -18.4804   27.9325 O   0  0  0  0  0  0  0  0  0  0  0  0
  2  1  1  6
  2  3  1  0
  3  4  1  0
  4  8  1  0
  4  5  2  0
  6  2  1  0
  7  6  2  0
 10  9  1  1
 10 12  1  0
 11 10  1  0
 13 12  1  1
 13 14  1  0
 14  6  1  0
 15 16  2  0
 15 13  1  0
 17 15  1  0
 18 17  1  0
 19 18  1  0
 20 19  1  0
 21 19  2  0
M  END
$$$$
