DLG.pdb
     RDKit          3D

 21 20  0  0  1  0  0  0  0  0999 V2000
    9.3084  -18.1098   17.6967 N   0  0  0  0  0  0  0  0  0  0  0  0
   10.4229  -17.2504   17.4497 C   0  0  1  0  0  0  0  0  0  0  0  0
   10.3410  -16.5425   16.1100 C   0  0  0  0  0  0  0  0  0  0  0  0
   10.2526  -17.5489   15.0358 C   0  0  0  0  0  0  0  0  0  0  0  0
   10.7303  -18.6871   15.2078 O   0  0  0  0  0  0  0  0  0  0  0  0
   10.5491  -16.2791   18.5667 C   0  0  0  0  0  0  0  0  0  0  0  0
   11.5424  -15.4734   18.6290 O   0  0  0  0  0  0  0  0  0  0  0  0
    9.6455  -17.2422   13.8415 O   0  0  0  0  0  0  0  0  0  0  0  0
    8.3563  -12.6730   19.5510 C   0  0  0  0  0  0  0  0  0  0  0  0
    7.6990  -13.9675   19.9393 C   0  0  2  0  0  0  0  0  0  0  0  0
    6.2967  -13.6321   20.4816 C   0  0  0  0  0  0  0  0  0  0  0  0
    8.4532  -14.6740   20.9808 C   0  0  0  0  0  0  0  0  0  0  0  0
    9.8016  -15.2167   20.7476 C   0  0  2  0  0  0  0  0  0  0  0  0
    9.5987  -16.1840   19.6126 N   0  0  0  0  0  0  0  0  0  0  0  0
   10.5606  -15.8401   21.7987 C   0  0  0  0  0  0  0  0  0  0  0  0
   10.8401  -15.1629   22.8354 O   0  0  0  0  0  0  0  0  0  0  0  0
   11.0386  -17.1744   21.8073 N   0  0  0  0  0  0  0  0  0  0  0  0
   11.8108  -17.6934   22.9228 C   0  0  0  0  0  0  0  0  0  0  0  0
   10.9215  -18.3828   23.8795 C   0  0  0  0  0  0  0  0  0  0  0  0
   11.4116  -18.9374   25.0476 O   0  0  0  0  0  0  0  0  0  0  0  0
    9.6903  -18.4786   23.6467 O   0  0  0  0  0  0  0  0  0  0  0  0
  2  1  1  1
  2  3  1  0
  3  4  1  0
  4  8  1  0
  4  5  2  0
  6  2  1  0
  7  6  2  0
 10  9  1  1
 10 12  1  0
 11 10  1  0
 13 12  1  1
 13 14  1  0
 14  6  1  0
 15 16  2  0
 15 13  1  0
 17 15  1  0
 18 17  1  0
 19 18  1  0
 20 19  1  0
 21 19  2  0
M  END
$$$$
