DLG.pdb
     RDKit          3D

 21 20  0  0  1  0  0  0  0  0999 V2000
   10.6102  -18.1445   17.0511 N   0  0  0  0  0  0  0  0  0  0  0  0
    9.5898  -18.0184   18.0435 C   0  0  1  0  0  0  0  0  0  0  0  0
    9.2450  -19.3369   18.7109 C   0  0  0  0  0  0  0  0  0  0  0  0
    8.7908  -20.2939   17.6851 C   0  0  0  0  0  0  0  0  0  0  0  0
    8.8289  -19.9798   16.4797 O   0  0  0  0  0  0  0  0  0  0  0  0
   10.0021  -16.9991   19.0426 C   0  0  0  0  0  0  0  0  0  0  0  0
   11.2395  -16.7375   19.2434 O   0  0  0  0  0  0  0  0  0  0  0  0
    8.3238  -21.5347   18.0475 O   0  0  0  0  0  0  0  0  0  0  0  0
    8.8270  -12.5521   19.3425 C   0  0  0  0  0  0  0  0  0  0  0  0
    7.8649  -13.5964   19.8349 C   0  0  2  0  0  0  0  0  0  0  0  0
    6.5808  -12.8717   20.2811 C   0  0  0  0  0  0  0  0  0  0  0  0
    8.4060  -14.3459   20.9743 C   0  0  0  0  0  0  0  0  0  0  0  0
    9.5461  -15.2679   20.8422 C   0  0  2  0  0  0  0  0  0  0  0  0
    9.0725  -16.2669   19.8209 N   0  0  0  0  0  0  0  0  0  0  0  0
   10.1055  -15.9501   21.9785 C   0  0  0  0  0  0  0  0  0  0  0  0
    9.4422  -16.8901   22.5150 O   0  0  0  0  0  0  0  0  0  0  0  0
   11.3618  -15.6844   22.5787 N   0  0  0  0  0  0  0  0  0  0  0  0
   11.8471  -16.4740   23.6973 C   0  0  0  0  0  0  0  0  0  0  0  0
   13.2529  -16.1295   23.9905 C   0  0  0  0  0  0  0  0  0  0  0  0
   13.8474  -16.4857   25.1872 O   0  0  0  0  0  0  0  0  0  0  0  0
   13.9416  -15.4998   23.1488 O   0  0  0  0  0  0  0  0  0  0  0  0
  2  1  1  6
  2  3  1  0
  3  4  1  0
  4  8  1  0
  4  5  2  0
  6  2  1  0
  7  6  2  0
 10  9  1  1
 10 12  1  0
 11 10  1  0
 13 12  1  1
 13 14  1  0
 14  6  1  0
 15 16  2  0
 15 13  1  0
 17 15  1  0
 18 17  1  0
 19 18  1  0
 20 19  1  0
 21 19  2  0
M  END
$$$$
