DLG.pdb
     RDKit          3D

 21 20  0  0  1  0  0  0  0  0999 V2000
    8.9885  -18.5521   18.3921 N   0  0  0  0  0  0  0  0  0  0  0  0
   10.1903  -17.8304   18.1156 C   0  0  1  0  0  0  0  0  0  0  0  0
   10.2534  -17.3055   16.6932 C   0  0  0  0  0  0  0  0  0  0  0  0
   10.6184  -18.4094   15.7861 C   0  0  0  0  0  0  0  0  0  0  0  0
   10.5776  -19.5875   16.1907 O   0  0  0  0  0  0  0  0  0  0  0  0
   10.3394  -16.7311   19.1037 C   0  0  0  0  0  0  0  0  0  0  0  0
   11.3808  -15.9859   19.1068 O   0  0  0  0  0  0  0  0  0  0  0  0
   11.0046  -18.1501   14.4928 O   0  0  0  0  0  0  0  0  0  0  0  0
    8.4455  -12.8556   19.4509 C   0  0  0  0  0  0  0  0  0  0  0  0
    7.6468  -14.0337   19.9333 C   0  0  2  0  0  0  0  0  0  0  0  0
    6.2429  -13.5216   20.3070 C   0  0  0  0  0  0  0  0  0  0  0  0
    8.2526  -14.6597   21.1140 C   0  0  0  0  0  0  0  0  0  0  0  0
    9.5662  -15.3226   21.0689 C   0  0  2  0  0  0  0  0  0  0  0  0
    9.3599  -16.4430   20.0854 N   0  0  0  0  0  0  0  0  0  0  0  0
   10.2062  -15.8198   22.2575 C   0  0  0  0  0  0  0  0  0  0  0  0
    9.4878  -16.3330   23.1697 O   0  0  0  0  0  0  0  0  0  0  0  0
   11.5978  -15.8068   22.5263 N   0  0  0  0  0  0  0  0  0  0  0  0
   12.1290  -16.3004   23.7850 C   0  0  0  0  0  0  0  0  0  0  0  0
   13.6010  -16.1809   23.7971 C   0  0  0  0  0  0  0  0  0  0  0  0
   14.3380  -16.4707   24.9307 O   0  0  0  0  0  0  0  0  0  0  0  0
   14.2168  -15.8099   22.7663 O   0  0  0  0  0  0  0  0  0  0  0  0
  2  1  1  1
  2  3  1  0
  3  4  1  0
  4  8  1  0
  4  5  2  0
  6  2  1  0
  7  6  2  0
 10  9  1  1
 10 12  1  0
 11 10  1  0
 13 12  1  1
 13 14  1  0
 14  6  1  0
 15 16  2  0
 15 13  1  0
 17 15  1  0
 18 17  1  0
 19 18  1  0
 20 19  1  0
 21 19  2  0
M  END
$$$$
