DLG.pdb
     RDKit          3D

 21 20  0  0  1  0  0  0  0  0999 V2000
    7.7320  -14.7703   20.6934 N   0  0  0  0  0  0  0  0  0  0  0  0
    7.5754  -15.6057   21.8421 C   0  0  1  0  0  0  0  0  0  0  0  0
    7.9430  -17.0539   21.5772 C   0  0  0  0  0  0  0  0  0  0  0  0
    7.2597  -17.5101   20.3526 C   0  0  0  0  0  0  0  0  0  0  0  0
    7.6142  -17.0713   19.2413 O   0  0  0  0  0  0  0  0  0  0  0  0
    8.3675  -15.0447   22.9668 C   0  0  0  0  0  0  0  0  0  0  0  0
    9.5373  -14.5618   22.7712 O   0  0  0  0  0  0  0  0  0  0  0  0
    6.2311  -18.4187   20.4257 O   0  0  0  0  0  0  0  0  0  0  0  0
    7.2042  -11.5312   24.9585 C   0  0  0  0  0  0  0  0  0  0  0  0
    6.6821  -12.8231   25.5214 C   0  0  2  0  0  0  0  0  0  0  0  0
    5.6132  -12.4729   26.5740 C   0  0  0  0  0  0  0  0  0  0  0  0
    7.7414  -13.6080   26.1652 C   0  0  0  0  0  0  0  0  0  0  0  0
    8.7190  -14.3948   25.3953 C   0  0  2  0  0  0  0  0  0  0  0  0
    7.8897  -15.0088   24.2996 N   0  0  0  0  0  0  0  0  0  0  0  0
    9.5410  -15.3995   26.0153 C   0  0  0  0  0  0  0  0  0  0  0  0
   10.3482  -15.0499   26.9305 O   0  0  0  0  0  0  0  0  0  0  0  0
    9.5416  -16.7841   25.7120 N   0  0  0  0  0  0  0  0  0  0  0  0
   10.7324  -17.5965   25.8912 C   0  0  0  0  0  0  0  0  0  0  0  0
   10.7357  -18.2033   27.2377 C   0  0  0  0  0  0  0  0  0  0  0  0
   11.8197  -18.9276   27.6988 O   0  0  0  0  0  0  0  0  0  0  0  0
    9.7429  -18.0709   27.9967 O   0  0  0  0  0  0  0  0  0  0  0  0
  2  1  1  6
  2  3  1  0
  3  4  1  0
  4  8  1  0
  4  5  2  0
  6  2  1  0
  7  6  2  0
 10  9  1  1
 10 12  1  0
 11 10  1  0
 13 12  1  1
 13 14  1  0
 14  6  1  0
 15 16  2  0
 15 13  1  0
 17 15  1  0
 18 17  1  0
 19 18  1  0
 20 19  1  0
 21 19  2  0
M  END
$$$$
