DLG.pdb
     RDKit          3D

 21 20  0  0  1  0  0  0  0  0999 V2000
    7.8752  -14.5450   20.3849 N   0  0  0  0  0  0  0  0  0  0  0  0
    7.7252  -15.6086   21.3272 C   0  0  1  0  0  0  0  0  0  0  0  0
    8.3108  -16.9207   20.8393 C   0  0  0  0  0  0  0  0  0  0  0  0
    7.6279  -17.3222   19.5955 C   0  0  0  0  0  0  0  0  0  0  0  0
    8.2526  -17.9449   18.7150 O   0  0  0  0  0  0  0  0  0  0  0  0
    8.3222  -15.2004   22.6250 C   0  0  0  0  0  0  0  0  0  0  0  0
    9.5452  -14.8282   22.6985 O   0  0  0  0  0  0  0  0  0  0  0  0
    6.3030  -17.0151   19.3974 O   0  0  0  0  0  0  0  0  0  0  0  0
    8.1391  -11.8565   25.7553 C   0  0  0  0  0  0  0  0  0  0  0  0
    6.9687  -12.7815   25.5736 C   0  0  2  0  0  0  0  0  0  0  0  0
    5.8443  -12.2972   26.5087 C   0  0  0  0  0  0  0  0  0  0  0  0
    7.3070  -14.1671   25.9177 C   0  0  0  0  0  0  0  0  0  0  0  0
    8.2874  -14.9535   25.1511 C   0  0  2  0  0  0  0  0  0  0  0  0
    7.5921  -15.1972   23.8387 N   0  0  0  0  0  0  0  0  0  0  0  0
    8.8346  -16.1841   25.6567 C   0  0  0  0  0  0  0  0  0  0  0  0
    8.0716  -17.1926   25.7676 O   0  0  0  0  0  0  0  0  0  0  0  0
   10.1789  -16.4033   26.0489 N   0  0  0  0  0  0  0  0  0  0  0  0
   10.6700  -17.7364   26.3518 C   0  0  0  0  0  0  0  0  0  0  0  0
   10.5780  -17.9944   27.8030 C   0  0  0  0  0  0  0  0  0  0  0  0
   11.6192  -18.5822   28.4977 O   0  0  0  0  0  0  0  0  0  0  0  0
    9.5407  -17.6809   28.4395 O   0  0  0  0  0  0  0  0  0  0  0  0
  2  1  1  6
  2  3  1  0
  3  4  1  0
  4  8  1  0
  4  5  2  0
  6  2  1  0
  7  6  2  0
 10  9  1  1
 10 12  1  0
 11 10  1  0
 13 12  1  1
 13 14  1  0
 14  6  1  0
 15 16  2  0
 15 13  1  0
 17 15  1  0
 18 17  1  0
 19 18  1  0
 20 19  1  0
 21 19  2  0
M  END
$$$$
