DLG.pdb
     RDKit          3D

 21 20  0  0  1  0  0  0  0  0999 V2000
    9.6095  -15.8544   20.6872 N   0  0  0  0  0  0  0  0  0  0  0  0
    8.9558  -16.4110   21.8294 C   0  0  1  0  0  0  0  0  0  0  0  0
    9.3688  -17.8439   22.1100 C   0  0  0  0  0  0  0  0  0  0  0  0
    9.0757  -18.6724   20.9259 C   0  0  0  0  0  0  0  0  0  0  0  0
    7.9793  -18.5612   20.3438 O   0  0  0  0  0  0  0  0  0  0  0  0
    9.2001  -15.5383   23.0067 C   0  0  0  0  0  0  0  0  0  0  0  0
   10.3714  -15.0863   23.2588 O   0  0  0  0  0  0  0  0  0  0  0  0
   10.0044  -19.5700   20.4559 O   0  0  0  0  0  0  0  0  0  0  0  0
    5.5690  -12.1874   26.5389 C   0  0  0  0  0  0  0  0  0  0  0  0
    7.0091  -12.5886   26.3856 C   0  0  2  0  0  0  0  0  0  0  0  0
    7.8148  -11.3150   26.0664 C   0  0  0  0  0  0  0  0  0  0  0  0
    7.1960  -13.5530   25.2957 C   0  0  0  0  0  0  0  0  0  0  0  0
    8.4726  -14.2503   25.0695 C   0  0  2  0  0  0  0  0  0  0  0  0
    8.1748  -15.1585   23.9069 N   0  0  0  0  0  0  0  0  0  0  0  0
    9.1308  -14.9862   26.1158 C   0  0  0  0  0  0  0  0  0  0  0  0
    9.5695  -14.3538   27.1253 O   0  0  0  0  0  0  0  0  0  0  0  0
    9.3418  -16.3874   26.1478 N   0  0  0  0  0  0  0  0  0  0  0  0
    9.8483  -17.0484   27.3381 C   0  0  0  0  0  0  0  0  0  0  0  0
   10.4768  -18.3349   26.9764 C   0  0  0  0  0  0  0  0  0  0  0  0
   11.0154  -19.1693   27.9387 O   0  0  0  0  0  0  0  0  0  0  0  0
   10.5341  -18.6985   25.7748 O   0  0  0  0  0  0  0  0  0  0  0  0
  2  1  1  6
  2  3  1  0
  3  4  1  0
  4  8  1  0
  4  5  2  0
  6  2  1  0
  7  6  2  0
 10  9  1  6
 10 12  1  0
 11 10  1  0
 13 12  1  1
 13 14  1  0
 14  6  1  0
 15 16  2  0
 15 13  1  0
 17 15  1  0
 18 17  1  0
 19 18  1  0
 20 19  1  0
 21 19  2  0
M  END
$$$$
