DLG.pdb
     RDKit          3D

 21 20  0  0  1  0  0  0  0  0999 V2000
    9.6488  -18.6059   19.0577 N   0  0  0  0  0  0  0  0  0  0  0  0
   10.7752  -17.7497   18.8576 C   0  0  1  0  0  0  0  0  0  0  0  0
   10.8827  -17.2332   17.4348 C   0  0  0  0  0  0  0  0  0  0  0  0
   11.3007  -18.3365   16.5502 C   0  0  0  0  0  0  0  0  0  0  0  0
   10.9775  -19.5091   16.8216 O   0  0  0  0  0  0  0  0  0  0  0  0
   10.7200  -16.6321   19.8349 C   0  0  0  0  0  0  0  0  0  0  0  0
   11.7197  -15.8479   19.9947 O   0  0  0  0  0  0  0  0  0  0  0  0
   12.0466  -18.0826   15.4240 O   0  0  0  0  0  0  0  0  0  0  0  0
    8.4781  -12.8143   19.8309 C   0  0  0  0  0  0  0  0  0  0  0  0
    7.6866  -14.0422   20.1831 C   0  0  2  0  0  0  0  0  0  0  0  0
    6.2233  -13.6079   20.3914 C   0  0  0  0  0  0  0  0  0  0  0  0
    8.1734  -14.6730   21.4151 C   0  0  0  0  0  0  0  0  0  0  0  0
    9.5503  -15.1753   21.5534 C   0  0  2  0  0  0  0  0  0  0  0  0
    9.5822  -16.3679   20.6359 N   0  0  0  0  0  0  0  0  0  0  0  0
   10.1063  -15.5218   22.8341 C   0  0  0  0  0  0  0  0  0  0  0  0
   10.0867  -14.6573   23.7634 O   0  0  0  0  0  0  0  0  0  0  0  0
   10.6846  -16.7672   23.1858 N   0  0  0  0  0  0  0  0  0  0  0  0
   11.1404  -17.0334   24.5392 C   0  0  0  0  0  0  0  0  0  0  0  0
   11.6868  -18.4024   24.6313 C   0  0  0  0  0  0  0  0  0  0  0  0
   10.9203  -19.4540   25.0993 O   0  0  0  0  0  0  0  0  0  0  0  0
   12.8707  -18.6389   24.2822 O   0  0  0  0  0  0  0  0  0  0  0  0
  2  1  1  6
  2  3  1  0
  3  4  1  0
  4  8  1  0
  4  5  2  0
  6  2  1  0
  7  6  2  0
 10  9  1  1
 10 12  1  0
 11 10  1  0
 13 12  1  1
 13 14  1  0
 14  6  1  0
 15 16  2  0
 15 13  1  0
 17 15  1  0
 18 17  1  0
 19 18  1  0
 20 19  1  0
 21 19  2  0
M  END
$$$$
