DLG.pdb
     RDKit          3D

 21 20  0  0  1  0  0  0  0  0999 V2000
    7.7180  -14.7381   20.3245 N   0  0  0  0  0  0  0  0  0  0  0  0
    7.5085  -15.5421   21.4870 C   0  0  1  0  0  0  0  0  0  0  0  0
    7.9413  -16.9841   21.2972 C   0  0  0  0  0  0  0  0  0  0  0  0
    7.1830  -17.5732   20.1780 C   0  0  0  0  0  0  0  0  0  0  0  0
    7.6365  -17.5139   19.0188 O   0  0  0  0  0  0  0  0  0  0  0  0
    8.2006  -14.9187   22.6444 C   0  0  0  0  0  0  0  0  0  0  0  0
    9.3299  -14.3328   22.4981 O   0  0  0  0  0  0  0  0  0  0  0  0
    5.9754  -18.1900   20.4025 O   0  0  0  0  0  0  0  0  0  0  0  0
    7.5994  -11.2740   25.5337 C   0  0  0  0  0  0  0  0  0  0  0  0
    6.6423  -12.4324   25.5554 C   0  0  2  0  0  0  0  0  0  0  0  0
    5.5694  -12.1287   26.6183 C   0  0  0  0  0  0  0  0  0  0  0  0
    7.3124  -13.6901   25.9047 C   0  0  0  0  0  0  0  0  0  0  0  0
    8.3968  -14.2596   25.0879 C   0  0  2  0  0  0  0  0  0  0  0  0
    7.6671  -14.9322   23.9564 N   0  0  0  0  0  0  0  0  0  0  0  0
    9.3767  -15.1534   25.6449 C   0  0  0  0  0  0  0  0  0  0  0  0
   10.1338  -14.7299   26.5717 O   0  0  0  0  0  0  0  0  0  0  0  0
    9.5903  -16.5022   25.2655 N   0  0  0  0  0  0  0  0  0  0  0  0
   10.6997  -17.2716   25.8017 C   0  0  0  0  0  0  0  0  0  0  0  0
   10.2693  -18.0139   27.0038 C   0  0  0  0  0  0  0  0  0  0  0  0
   11.1195  -18.8911   27.6517 O   0  0  0  0  0  0  0  0  0  0  0  0
    9.1102  -17.8599   27.4644 O   0  0  0  0  0  0  0  0  0  0  0  0
  2  1  1  6
  2  3  1  0
  3  4  1  0
  4  8  1  0
  4  5  2  0
  6  2  1  0
  7  6  2  0
 10  9  1  1
 10 12  1  0
 11 10  1  0
 13 12  1  1
 13 14  1  0
 14  6  1  0
 15 16  2  0
 15 13  1  0
 17 15  1  0
 18 17  1  0
 19 18  1  0
 20 19  1  0
 21 19  2  0
M  END
$$$$
