DLG.pdb
     RDKit          3D

 21 20  0  0  1  0  0  0  0  0999 V2000
    8.1324  -16.5533   21.1052 N   0  0  0  0  0  0  0  0  0  0  0  0
    9.4834  -16.3551   21.5265 C   0  0  1  0  0  0  0  0  0  0  0  0
   10.3109  -15.5775   20.5199 C   0  0  0  0  0  0  0  0  0  0  0  0
   10.3593  -16.3276   19.2512 C   0  0  0  0  0  0  0  0  0  0  0  0
   10.1757  -17.5603   19.2490 O   0  0  0  0  0  0  0  0  0  0  0  0
    9.4891  -15.6930   22.8565 C   0  0  0  0  0  0  0  0  0  0  0  0
   10.5901  -15.3829   23.4323 O   0  0  0  0  0  0  0  0  0  0  0  0
   10.6057  -15.6771   18.0659 O   0  0  0  0  0  0  0  0  0  0  0  0
    5.5804  -12.4924   26.1302 C   0  0  0  0  0  0  0  0  0  0  0  0
    6.9577  -13.0871   26.2190 C   0  0  2  0  0  0  0  0  0  0  0  0
    7.9505  -11.9295   26.4367 C   0  0  0  0  0  0  0  0  0  0  0  0
    7.3257  -13.8023   24.9918 C   0  0  0  0  0  0  0  0  0  0  0  0
    8.3633  -14.8464   24.9682 C   0  0  2  0  0  0  0  0  0  0  0  0
    8.3021  -15.3694   23.5582 N   0  0  0  0  0  0  0  0  0  0  0  0
    8.3596  -15.9407   25.9020 C   0  0  0  0  0  0  0  0  0  0  0  0
    7.2643  -16.5354   26.1429 O   0  0  0  0  0  0  0  0  0  0  0  0
    9.4841  -16.4498   26.5986 N   0  0  0  0  0  0  0  0  0  0  0  0
    9.3858  -17.6406   27.4247 C   0  0  0  0  0  0  0  0  0  0  0  0
   10.7052  -17.9698   28.0009 C   0  0  0  0  0  0  0  0  0  0  0  0
   10.8197  -18.5847   29.2342 O   0  0  0  0  0  0  0  0  0  0  0  0
   11.7589  -17.6942   27.3739 O   0  0  0  0  0  0  0  0  0  0  0  0
  2  1  1  6
  2  3  1  0
  3  4  1  0
  4  8  1  0
  4  5  2  0
  6  2  1  0
  7  6  2  0
 10  9  1  6
 10 12  1  0
 11 10  1  0
 13 12  1  1
 13 14  1  0
 14  6  1  0
 15 16  2  0
 15 13  1  0
 17 15  1  0
 18 17  1  0
 19 18  1  0
 20 19  1  0
 21 19  2  0
M  END
$$$$
