DLG.pdb
     RDKit          3D

 21 20  0  0  1  0  0  0  0  0999 V2000
    7.3295  -16.6517   22.0265 N   0  0  0  0  0  0  0  0  0  0  0  0
    8.6330  -16.0807   21.8970 C   0  0  1  0  0  0  0  0  0  0  0  0
    8.7264  -15.0630   20.7753 C   0  0  0  0  0  0  0  0  0  0  0  0
    8.5169  -15.7452   19.4848 C   0  0  0  0  0  0  0  0  0  0  0  0
    9.1211  -16.8063   19.2359 O   0  0  0  0  0  0  0  0  0  0  0  0
    9.0396  -15.4892   23.1978 C   0  0  0  0  0  0  0  0  0  0  0  0
   10.1570  -14.8760   23.3211 O   0  0  0  0  0  0  0  0  0  0  0  0
    7.6574  -15.2194   18.5500 O   0  0  0  0  0  0  0  0  0  0  0  0
    7.8144  -12.1244   24.7309 C   0  0  0  0  0  0  0  0  0  0  0  0
    7.0058  -13.2937   25.2181 C   0  0  2  0  0  0  0  0  0  0  0  0
    5.7708  -12.7327   25.9483 C   0  0  0  0  0  0  0  0  0  0  0  0
    7.7654  -14.1349   26.1499 C   0  0  0  0  0  0  0  0  0  0  0  0
    8.7677  -15.1117   25.6932 C   0  0  2  0  0  0  0  0  0  0  0  0
    8.2343  -15.5642   24.3606 N   0  0  0  0  0  0  0  0  0  0  0  0
    9.1352  -16.2508   26.4912 C   0  0  0  0  0  0  0  0  0  0  0  0
    9.5335  -16.0607   27.6815 O   0  0  0  0  0  0  0  0  0  0  0  0
    9.0912  -17.6075   26.0831 N   0  0  0  0  0  0  0  0  0  0  0  0
   10.3068  -18.3539   25.8086 C   0  0  0  0  0  0  0  0  0  0  0  0
   11.0485  -18.5961   27.0625 C   0  0  0  0  0  0  0  0  0  0  0  0
   11.3973  -19.8746   27.4578 O   0  0  0  0  0  0  0  0  0  0  0  0
   11.3797  -17.6345   27.8007 O   0  0  0  0  0  0  0  0  0  0  0  0
  2  1  1  1
  2  3  1  0
  3  4  1  0
  4  8  1  0
  4  5  2  0
  6  2  1  0
  7  6  2  0
 10  9  1  1
 10 12  1  0
 11 10  1  0
 13 12  1  1
 13 14  1  0
 14  6  1  0
 15 16  2  0
 15 13  1  0
 17 15  1  0
 18 17  1  0
 19 18  1  0
 20 19  1  0
 21 19  2  0
M  END
$$$$
