EFA.pdb
     RDKit          3D

 26 26  0  0  1  0  0  0  0  0999 V2000
    9.7124  -18.4398   21.4635 N   0  0  0  0  0  0  0  0  0  0  0  0
   10.8224  -17.5466   21.5433 C   0  0  1  0  0  0  0  0  0  0  0  0
   11.3093  -17.0420   20.2043 C   0  0  0  0  0  0  0  0  0  0  0  0
   11.8417  -18.1447   19.3220 C   0  0  0  0  0  0  0  0  0  0  0  0
   12.2962  -17.5585   18.0438 C   0  0  0  0  0  0  0  0  0  0  0  0
   13.5058  -17.4687   17.7475 O   0  0  0  0  0  0  0  0  0  0  0  0
   10.5565  -16.4695   22.4971 C   0  0  0  0  0  0  0  0  0  0  0  0
   11.4202  -15.5692   22.6661 O   0  0  0  0  0  0  0  0  0  0  0  0
   11.3546  -17.0948   17.1477 O   0  0  0  0  0  0  0  0  0  0  0  0
    9.3247  -16.4716   23.2079 N   0  0  0  0  0  0  0  0  0  0  0  0
    8.9864  -15.4558   24.1538 C   0  0  1  0  0  0  0  0  0  0  0  0
    7.5060  -15.1916   24.0862 C   0  0  0  0  0  0  0  0  0  0  0  0
    7.1052  -14.1057   25.0082 C   0  0  0  0  0  0  0  0  0  0  0  0
    7.4472  -12.8048   24.6734 C   0  0  0  0  0  0  0  0  0  0  0  0
    7.1058  -11.7402   25.4955 C   0  0  0  0  0  0  0  0  0  0  0  0
    6.4150  -11.9899   26.6625 C   0  0  0  0  0  0  0  0  0  0  0  0
    6.0624  -13.2656   27.0212 C   0  0  0  0  0  0  0  0  0  0  0  0
    6.4195  -14.3061   26.1762 C   0  0  0  0  0  0  0  0  0  0  0  0
    9.4117  -15.8274   25.5385 C   0  0  0  0  0  0  0  0  0  0  0  0
    9.5864  -17.0387   25.8169 O   0  0  0  0  0  0  0  0  0  0  0  0
   10.6483  -13.8302   28.4909 C   0  0  0  0  0  0  0  0  0  0  0  0
   10.4357  -15.0797   27.6546 C   0  0  2  0  0  0  0  0  0  0  0  0
    9.6080  -14.8080   26.5043 N   0  0  0  0  0  0  0  0  0  0  0  0
    9.7886  -16.1265   28.4661 C   0  0  0  0  0  0  0  0  0  0  0  0
    8.5296  -16.5862   28.1301 O   0  0  0  0  0  0  0  0  0  0  0  0
   10.3801  -16.5994   29.4600 O   0  0  0  0  0  0  0  0  0  0  0  0
  2  7  1  0
  2  1  1  6
  3  2  1  0
  4  3  1  0
  5  6  2  0
  5  4  1  0
  7  8  2  0
  9  5  1  0
 10 11  1  0
 10  7  1  0
 11 12  1  1
 12 13  1  0
 13 18  2  0
 14 13  1  0
 14 15  2  0
 15 16  1  0
 16 17  2  0
 18 17  1  0
 19 23  1  0
 19 11  1  0
 20 19  2  0
 22 23  1  0
 22 21  1  1
 24 22  1  0
 25 24  1  0
 26 24  2  0
M  END
$$$$
