EFA.pdb
     RDKit          3D

 26 26  0  0  1  0  0  0  0  0999 V2000
   -5.3988  -24.8531   23.3875 N   0  0  0  0  0  0  0  0  0  0  0  0
   -6.3942  -25.3751   24.2668 C   0  0  1  0  0  0  0  0  0  0  0  0
   -6.5251  -26.8805   24.2307 C   0  0  0  0  0  0  0  0  0  0  0  0
   -7.0859  -27.3877   22.9246 C   0  0  0  0  0  0  0  0  0  0  0  0
   -5.9835  -27.5211   21.9494 C   0  0  0  0  0  0  0  0  0  0  0  0
   -6.0751  -27.0909   20.7808 O   0  0  0  0  0  0  0  0  0  0  0  0
   -6.2202  -24.8493   25.6210 C   0  0  0  0  0  0  0  0  0  0  0  0
   -5.0642  -24.7948   26.1169 O   0  0  0  0  0  0  0  0  0  0  0  0
   -4.8144  -28.1412   22.3413 O   0  0  0  0  0  0  0  0  0  0  0  0
   -7.3671  -24.4131   26.3398 N   0  0  0  0  0  0  0  0  0  0  0  0
   -7.2952  -23.9638   27.6941 C   0  0  1  0  0  0  0  0  0  0  0  0
   -7.7041  -22.5165   27.7565 C   0  0  0  0  0  0  0  0  0  0  0  0
   -6.7400  -21.6483   27.0445 C   0  0  0  0  0  0  0  0  0  0  0  0
   -5.5872  -21.2666   27.7129 C   0  0  0  0  0  0  0  0  0  0  0  0
   -4.6439  -20.4503   27.1052 C   0  0  0  0  0  0  0  0  0  0  0  0
   -4.8652  -20.0164   25.8151 C   0  0  0  0  0  0  0  0  0  0  0  0
   -5.9956  -20.3768   25.1276 C   0  0  0  0  0  0  0  0  0  0  0  0
   -6.9176  -21.1938   25.7653 C   0  0  0  0  0  0  0  0  0  0  0  0
   -8.1337  -24.8072   28.6007 C   0  0  0  0  0  0  0  0  0  0  0  0
   -9.3759  -24.8412   28.4237 O   0  0  0  0  0  0  0  0  0  0  0  0
   -7.4910  -27.5118   31.0956 C   0  0  0  0  0  0  0  0  0  0  0  0
   -8.3192  -26.4011   30.4744 C   0  0  2  0  0  0  0  0  0  0  0  0
   -7.5110  -25.5480   29.6370 N   0  0  0  0  0  0  0  0  0  0  0  0
   -8.9356  -25.5791   31.5315 C   0  0  0  0  0  0  0  0  0  0  0  0
   -8.4840  -24.2940   31.7636 O   0  0  0  0  0  0  0  0  0  0  0  0
   -9.8689  -26.0454   32.2191 O   0  0  0  0  0  0  0  0  0  0  0  0
  2  7  1  0
  2  1  1  6
  3  2  1  0
  4  3  1  0
  5  6  2  0
  5  4  1  0
  7  8  2  0
  9  5  1  0
 10 11  1  0
 10  7  1  0
 11 12  1  6
 12 13  1  0
 13 18  2  0
 14 13  1  0
 14 15  2  0
 15 16  1  0
 16 17  2  0
 18 17  1  0
 19 23  1  0
 19 11  1  0
 20 19  2  0
 22 23  1  0
 22 21  1  1
 24 22  1  0
 25 24  1  0
 26 24  2  0
M  END
$$$$
