EFA.pdb
     RDKit          3D

 26 26  0  0  1  0  0  0  0  0999 V2000
   10.0329  -16.1425   19.0568 N   0  0  0  0  0  0  0  0  0  0  0  0
    9.0119  -16.5031   19.9863 C   0  0  1  0  0  0  0  0  0  0  0  0
    8.7628  -17.9905   20.0873 C   0  0  0  0  0  0  0  0  0  0  0  0
    8.3218  -18.5998   18.7789 C   0  0  0  0  0  0  0  0  0  0  0  0
    8.1479  -20.0558   18.9628 C   0  0  0  0  0  0  0  0  0  0  0  0
    7.2102  -20.5328   19.6353 O   0  0  0  0  0  0  0  0  0  0  0  0
    9.2453  -15.8736   21.2863 C   0  0  0  0  0  0  0  0  0  0  0  0
   10.4224  -15.7811   21.7235 O   0  0  0  0  0  0  0  0  0  0  0  0
    9.0503  -20.9176   18.3730 O   0  0  0  0  0  0  0  0  0  0  0  0
    8.1307  -15.3824   22.0203 N   0  0  0  0  0  0  0  0  0  0  0  0
    8.2687  -14.7846   23.3105 C   0  0  1  0  0  0  0  0  0  0  0  0
    7.1167  -13.8444   23.5448 C   0  0  0  0  0  0  0  0  0  0  0  0
    7.1961  -13.2095   24.8791 C   0  0  0  0  0  0  0  0  0  0  0  0
    8.2066  -12.2880   25.1051 C   0  0  0  0  0  0  0  0  0  0  0  0
    8.3405  -11.6590   26.3348 C   0  0  0  0  0  0  0  0  0  0  0  0
    7.4493  -11.9617   27.3426 C   0  0  0  0  0  0  0  0  0  0  0  0
    6.4391  -12.8688   27.1499 C   0  0  0  0  0  0  0  0  0  0  0  0
    6.3343  -13.4788   25.9085 C   0  0  0  0  0  0  0  0  0  0  0  0
    8.3595  -15.8157   24.3898 C   0  0  0  0  0  0  0  0  0  0  0  0
    7.3689  -16.5541   24.6108 O   0  0  0  0  0  0  0  0  0  0  0  0
   11.0077  -17.8640   25.5522 C   0  0  0  0  0  0  0  0  0  0  0  0
    9.7568  -17.1064   25.9606 C   0  0  2  0  0  0  0  0  0  0  0  0
    9.5578  -15.9377   25.1380 N   0  0  0  0  0  0  0  0  0  0  0  0
    9.8607  -16.6816   27.3684 C   0  0  0  0  0  0  0  0  0  0  0  0
    9.7867  -15.3414   27.6962 O   0  0  0  0  0  0  0  0  0  0  0  0
   10.0156  -17.5355   28.2673 O   0  0  0  0  0  0  0  0  0  0  0  0
  2  7  1  0
  2  1  1  6
  3  2  1  0
  4  3  1  0
  5  6  2  0
  5  4  1  0
  7  8  2  0
  9  5  1  0
 10 11  1  0
 10  7  1  0
 11 12  1  1
 12 13  1  0
 13 18  2  0
 14 13  1  0
 14 15  2  0
 15 16  1  0
 16 17  2  0
 18 17  1  0
 19 23  1  0
 19 11  1  0
 20 19  2  0
 22 23  1  0
 22 21  1  6
 24 22  1  0
 25 24  1  0
 26 24  2  0
M  END
$$$$
