EFA.pdb
     RDKit          3D

 26 26  0  0  1  0  0  0  0  0999 V2000
    8.9439  -17.9908   20.7227 N   0  0  0  0  0  0  0  0  0  0  0  0
   10.2100  -17.6381   21.2785 C   0  0  1  0  0  0  0  0  0  0  0  0
   11.3297  -17.5554   20.2664 C   0  0  0  0  0  0  0  0  0  0  0  0
   10.8439  -17.6926   18.8441 C   0  0  0  0  0  0  0  0  0  0  0  0
   12.0040  -17.9430   17.9636 C   0  0  0  0  0  0  0  0  0  0  0  0
   13.1657  -18.0471   18.4093 O   0  0  0  0  0  0  0  0  0  0  0  0
   10.0988  -16.4371   22.1065 C   0  0  0  0  0  0  0  0  0  0  0  0
   11.0974  -15.6805   22.2318 O   0  0  0  0  0  0  0  0  0  0  0  0
   11.7986  -18.0657   16.6043 O   0  0  0  0  0  0  0  0  0  0  0  0
    8.8604  -16.1586   22.7479 N   0  0  0  0  0  0  0  0  0  0  0  0
    8.7729  -15.3500   23.9225 C   0  0  1  0  0  0  0  0  0  0  0  0
    7.4637  -14.6071   23.9139 C   0  0  0  0  0  0  0  0  0  0  0  0
    7.3677  -13.6622   25.0488 C   0  0  0  0  0  0  0  0  0  0  0  0
    6.4352  -13.9245   26.0403 C   0  0  0  0  0  0  0  0  0  0  0  0
    6.2903  -13.0772   27.1296 C   0  0  0  0  0  0  0  0  0  0  0  0
    7.0913  -11.9583   27.2190 C   0  0  0  0  0  0  0  0  0  0  0  0
    8.0229  -11.6716   26.2544 C   0  0  0  0  0  0  0  0  0  0  0  0
    8.1412  -12.5400   25.1793 C   0  0  0  0  0  0  0  0  0  0  0  0
    8.9296  -16.1649   25.1665 C   0  0  0  0  0  0  0  0  0  0  0  0
    8.1156  -17.0933   25.3924 O   0  0  0  0  0  0  0  0  0  0  0  0
   11.6742  -17.4446   26.8858 C   0  0  0  0  0  0  0  0  0  0  0  0
   10.3087  -16.8178   27.1050 C   0  0  2  0  0  0  0  0  0  0  0  0
    9.9901  -15.8734   26.0615 N   0  0  0  0  0  0  0  0  0  0  0  0
   10.2765  -16.1181   28.4020 C   0  0  0  0  0  0  0  0  0  0  0  0
   10.0483  -14.7561   28.4505 O   0  0  0  0  0  0  0  0  0  0  0  0
   10.4558  -16.7580   29.4601 O   0  0  0  0  0  0  0  0  0  0  0  0
  2  7  1  0
  2  1  1  6
  3  2  1  0
  4  3  1  0
  5  6  2  0
  5  4  1  0
  7  8  2  0
  9  5  1  0
 10 11  1  0
 10  7  1  0
 11 12  1  1
 12 13  1  0
 13 18  2  0
 14 13  1  0
 14 15  2  0
 15 16  1  0
 16 17  2  0
 18 17  1  0
 19 23  1  0
 19 11  1  0
 20 19  2  0
 22 23  1  0
 22 21  1  6
 24 22  1  0
 25 24  1  0
 26 24  2  0
M  END
$$$$
