EFA.pdb
     RDKit          3D

 26 26  0  0  1  0  0  0  0  0999 V2000
    7.9711  -17.6646   20.3886 N   0  0  0  0  0  0  0  0  0  0  0  0
    9.3470  -17.3475   20.5952 C   0  0  1  0  0  0  0  0  0  0  0  0
   10.0678  -16.8766   19.3529 C   0  0  0  0  0  0  0  0  0  0  0  0
    9.8903  -17.8135   18.1831 C   0  0  0  0  0  0  0  0  0  0  0  0
   10.8213  -18.9511   18.3346 C   0  0  0  0  0  0  0  0  0  0  0  0
   12.0555  -18.7903   18.4341 O   0  0  0  0  0  0  0  0  0  0  0  0
    9.5068  -16.4359   21.7284 C   0  0  0  0  0  0  0  0  0  0  0  0
   10.6427  -15.9518   21.9741 O   0  0  0  0  0  0  0  0  0  0  0  0
   10.3117  -20.2334   18.3672 O   0  0  0  0  0  0  0  0  0  0  0  0
    8.3690  -16.1223   22.5219 N   0  0  0  0  0  0  0  0  0  0  0  0
    8.4510  -15.2901   23.6802 C   0  0  1  0  0  0  0  0  0  0  0  0
    7.1757  -14.5013   23.8127 C   0  0  0  0  0  0  0  0  0  0  0  0
    7.1759  -13.6695   25.0366 C   0  0  0  0  0  0  0  0  0  0  0  0
    7.9726  -12.5354   25.0557 C   0  0  0  0  0  0  0  0  0  0  0  0
    8.0225  -11.7138   26.1729 C   0  0  0  0  0  0  0  0  0  0  0  0
    7.2638  -12.0387   27.2777 C   0  0  0  0  0  0  0  0  0  0  0  0
    6.4658  -13.1538   27.2894 C   0  0  0  0  0  0  0  0  0  0  0  0
    6.4397  -13.9527   26.1558 C   0  0  0  0  0  0  0  0  0  0  0  0
    8.7298  -16.0876   24.9142 C   0  0  0  0  0  0  0  0  0  0  0  0
    7.8489  -16.8718   25.3438 O   0  0  0  0  0  0  0  0  0  0  0  0
   11.9064  -17.2853   26.2510 C   0  0  0  0  0  0  0  0  0  0  0  0
   10.4320  -16.9866   26.4569 C   0  0  2  0  0  0  0  0  0  0  0  0
    9.9782  -15.9423   25.5705 N   0  0  0  0  0  0  0  0  0  0  0  0
   10.1919  -16.5632   27.8484 C   0  0  0  0  0  0  0  0  0  0  0  0
    9.7098  -15.2960   28.1150 O   0  0  0  0  0  0  0  0  0  0  0  0
   10.4246  -17.3521   28.7890 O   0  0  0  0  0  0  0  0  0  0  0  0
  2  7  1  0
  2  1  1  6
  3  2  1  0
  4  3  1  0
  5  6  2  0
  5  4  1  0
  7  8  2  0
  9  5  1  0
 10 11  1  0
 10  7  1  0
 11 12  1  1
 12 13  1  0
 13 18  2  0
 14 13  1  0
 14 15  2  0
 15 16  1  0
 16 17  2  0
 18 17  1  0
 19 23  1  0
 19 11  1  0
 20 19  2  0
 22 23  1  0
 22 21  1  1
 24 22  1  0
 25 24  1  0
 26 24  2  0
M  END
$$$$
