EFA.pdb
     RDKit          3D

 26 26  0  0  1  0  0  0  0  0999 V2000
    9.2900  -18.1770   21.2293 N   0  0  0  0  0  0  0  0  0  0  0  0
   10.3258  -18.1085   22.2084 C   0  0  1  0  0  0  0  0  0  0  0  0
   11.7215  -18.2474   21.6448 C   0  0  0  0  0  0  0  0  0  0  0  0
   11.9460  -17.3927   20.4214 C   0  0  0  0  0  0  0  0  0  0  0  0
   13.3598  -17.5102   20.0076 C   0  0  0  0  0  0  0  0  0  0  0  0
   14.1782  -18.2161   20.6328 O   0  0  0  0  0  0  0  0  0  0  0  0
   10.1663  -16.9248   23.0533 C   0  0  0  0  0  0  0  0  0  0  0  0
   11.1847  -16.3953   23.5705 O   0  0  0  0  0  0  0  0  0  0  0  0
   13.7913  -16.8177   18.8944 O   0  0  0  0  0  0  0  0  0  0  0  0
    8.8596  -16.4052   23.2659 N   0  0  0  0  0  0  0  0  0  0  0  0
    8.5962  -15.3593   24.2028 C   0  0  1  0  0  0  0  0  0  0  0  0
    7.3160  -14.6654   23.8210 C   0  0  0  0  0  0  0  0  0  0  0  0
    7.0126  -13.5428   24.7362 C   0  0  0  0  0  0  0  0  0  0  0  0
    5.9073  -13.6560   25.5651 C   0  0  0  0  0  0  0  0  0  0  0  0
    5.5640  -12.6386   26.4440 C   0  0  0  0  0  0  0  0  0  0  0  0
    6.3406  -11.5000   26.4869 C   0  0  0  0  0  0  0  0  0  0  0  0
    7.4401  -11.3582   25.6797 C   0  0  0  0  0  0  0  0  0  0  0  0
    7.7545  -12.3947   24.8131 C   0  0  0  0  0  0  0  0  0  0  0  0
    8.5395  -15.8758   25.6051 C   0  0  0  0  0  0  0  0  0  0  0  0
    8.7759  -15.0885   26.5535 O   0  0  0  0  0  0  0  0  0  0  0  0
    7.2529  -18.9373   27.3035 C   0  0  0  0  0  0  0  0  0  0  0  0
    8.1663  -17.7298   27.1891 C   0  0  2  0  0  0  0  0  0  0  0  0
    8.2211  -17.2386   25.8334 N   0  0  0  0  0  0  0  0  0  0  0  0
    9.5308  -18.0862   27.6184 C   0  0  0  0  0  0  0  0  0  0  0  0
    9.7634  -18.5062   28.9141 O   0  0  0  0  0  0  0  0  0  0  0  0
   10.4792  -18.0087   26.8086 O   0  0  0  0  0  0  0  0  0  0  0  0
  2  7  1  0
  2  1  1  6
  3  2  1  0
  4  3  1  0
  5  6  2  0
  5  4  1  0
  7  8  2  0
  9  5  1  0
 10 11  1  0
 10  7  1  0
 11 12  1  6
 12 13  1  0
 13 18  2  0
 14 13  1  0
 14 15  2  0
 15 16  1  0
 16 17  2  0
 18 17  1  0
 19 23  1  0
 19 11  1  0
 20 19  2  0
 22 23  1  0
 22 21  1  6
 24 22  1  0
 25 24  1  0
 26 24  2  0
M  END
$$$$
