EFA.pdb
     RDKit          3D

 26 26  0  0  1  0  0  0  0  0999 V2000
   11.6860  -16.4354   20.3820 N   0  0  0  0  0  0  0  0  0  0  0  0
   10.7573  -17.0226   21.2925 C   0  0  1  0  0  0  0  0  0  0  0  0
   11.0986  -18.4378   21.6992 C   0  0  0  0  0  0  0  0  0  0  0  0
   12.2896  -18.5098   22.6233 C   0  0  0  0  0  0  0  0  0  0  0  0
   12.6097  -19.9290   22.8830 C   0  0  0  0  0  0  0  0  0  0  0  0
   12.9510  -20.3367   24.0126 O   0  0  0  0  0  0  0  0  0  0  0  0
   10.5208  -16.1411   22.4360 C   0  0  0  0  0  0  0  0  0  0  0  0
   11.4697  -15.4456   22.8843 O   0  0  0  0  0  0  0  0  0  0  0  0
   12.5295  -20.8342   21.8441 O   0  0  0  0  0  0  0  0  0  0  0  0
    9.2201  -16.0957   23.0093 N   0  0  0  0  0  0  0  0  0  0  0  0
    8.8642  -15.1541   24.0231 C   0  0  1  0  0  0  0  0  0  0  0  0
    7.3788  -14.9148   23.9752 C   0  0  0  0  0  0  0  0  0  0  0  0
    6.9787  -13.8019   24.8647 C   0  0  0  0  0  0  0  0  0  0  0  0
    7.3680  -12.5171   24.5194 C   0  0  0  0  0  0  0  0  0  0  0  0
    7.0299  -11.4290   25.3114 C   0  0  0  0  0  0  0  0  0  0  0  0
    6.2945  -11.6386   26.4589 C   0  0  0  0  0  0  0  0  0  0  0  0
    5.8945  -12.8975   26.8273 C   0  0  0  0  0  0  0  0  0  0  0  0
    6.2497  -13.9624   26.0126 C   0  0  0  0  0  0  0  0  0  0  0  0
    9.2997  -15.6116   25.3786 C   0  0  0  0  0  0  0  0  0  0  0  0
    9.4398  -16.8409   25.5900 O   0  0  0  0  0  0  0  0  0  0  0  0
   10.5331  -13.8528   28.4831 C   0  0  0  0  0  0  0  0  0  0  0  0
   10.3492  -15.0219   27.5319 C   0  0  2  0  0  0  0  0  0  0  0  0
    9.5444  -14.6515   26.3929 N   0  0  0  0  0  0  0  0  0  0  0  0
    9.6934  -16.1426   28.2298 C   0  0  0  0  0  0  0  0  0  0  0  0
   10.3354  -16.7813   29.2734 O   0  0  0  0  0  0  0  0  0  0  0  0
    8.5543  -16.5156   27.8770 O   0  0  0  0  0  0  0  0  0  0  0  0
  2  7  1  0
  2  1  1  1
  3  2  1  0
  4  3  1  0
  5  6  2  0
  5  4  1  0
  7  8  2  0
  9  5  1  0
 10 11  1  0
 10  7  1  0
 11 12  1  1
 12 13  1  0
 13 18  2  0
 14 13  1  0
 14 15  2  0
 15 16  1  0
 16 17  2  0
 18 17  1  0
 19 23  1  0
 19 11  1  0
 20 19  2  0
 22 23  1  0
 22 21  1  1
 24 22  1  0
 25 24  1  0
 26 24  2  0
M  END
$$$$
