EFA.pdb
     RDKit          3D

 26 26  0  0  1  0  0  0  0  0999 V2000
    9.6978  -19.0065   22.1883 N   0  0  0  0  0  0  0  0  0  0  0  0
   10.7635  -18.0928   21.9317 C   0  0  1  0  0  0  0  0  0  0  0  0
   11.1407  -17.9748   20.4728 C   0  0  0  0  0  0  0  0  0  0  0  0
    9.9573  -18.1258   19.5484 C   0  0  0  0  0  0  0  0  0  0  0  0
   10.3857  -17.8202   18.1675 C   0  0  0  0  0  0  0  0  0  0  0  0
    9.8029  -16.9686   17.4645 O   0  0  0  0  0  0  0  0  0  0  0  0
   10.5019  -16.7980   22.5605 C   0  0  0  0  0  0  0  0  0  0  0  0
   11.3016  -15.8454   22.3649 O   0  0  0  0  0  0  0  0  0  0  0  0
   11.4646  -18.4973   17.6360 O   0  0  0  0  0  0  0  0  0  0  0  0
    9.3470  -16.6532   23.3775 N   0  0  0  0  0  0  0  0  0  0  0  0
    9.0818  -15.4632   24.1222 C   0  0  1  0  0  0  0  0  0  0  0  0
    7.6346  -15.4522   24.5364 C   0  0  0  0  0  0  0  0  0  0  0  0
    7.2424  -14.1440   25.1063 C   0  0  0  0  0  0  0  0  0  0  0  0
    7.6257  -12.9958   24.4308 C   0  0  0  0  0  0  0  0  0  0  0  0
    7.2945  -11.7372   24.9125 C   0  0  0  0  0  0  0  0  0  0  0  0
    6.5721  -11.6366   26.0828 C   0  0  0  0  0  0  0  0  0  0  0  0
    6.1784  -12.7538   26.7738 C   0  0  0  0  0  0  0  0  0  0  0  0
    6.5264  -13.9959   26.2639 C   0  0  0  0  0  0  0  0  0  0  0  0
    9.9886  -15.3385   25.3047 C   0  0  0  0  0  0  0  0  0  0  0  0
   11.2169  -15.1639   25.1139 O   0  0  0  0  0  0  0  0  0  0  0  0
    9.8825  -13.9528   28.5199 C   0  0  0  0  0  0  0  0  0  0  0  0
   10.3054  -15.1893   27.7467 C   0  0  2  0  0  0  0  0  0  0  0  0
    9.4447  -15.4196   26.6117 N   0  0  0  0  0  0  0  0  0  0  0  0
   10.2592  -16.3736   28.6233 C   0  0  0  0  0  0  0  0  0  0  0  0
    9.3727  -17.3996   28.3575 O   0  0  0  0  0  0  0  0  0  0  0  0
   11.0235  -16.4499   29.6087 O   0  0  0  0  0  0  0  0  0  0  0  0
  2  7  1  0
  2  1  1  6
  3  2  1  0
  4  3  1  0
  5  6  2  0
  5  4  1  0
  7  8  2  0
  9  5  1  0
 10 11  1  0
 10  7  1  0
 11 12  1  1
 12 13  1  0
 13 18  2  0
 14 13  1  0
 14 15  2  0
 15 16  1  0
 16 17  2  0
 18 17  1  0
 19 23  1  0
 19 11  1  0
 20 19  2  0
 22 23  1  0
 22 21  1  1
 24 22  1  0
 25 24  1  0
 26 24  2  0
M  END
$$$$
