EFA.pdb
     RDKit          3D

 26 26  0  0  1  0  0  0  0  0999 V2000
    9.4345  -18.9653   22.3783 N   0  0  0  0  0  0  0  0  0  0  0  0
   10.4957  -18.0809   22.0205 C   0  0  1  0  0  0  0  0  0  0  0  0
   10.7796  -18.0217   20.5371 C   0  0  0  0  0  0  0  0  0  0  0  0
    9.5328  -17.8225   19.7104 C   0  0  0  0  0  0  0  0  0  0  0  0
    9.9017  -17.8217   18.2793 C   0  0  0  0  0  0  0  0  0  0  0  0
   11.0468  -18.1298   17.8887 O   0  0  0  0  0  0  0  0  0  0  0  0
   10.2961  -16.7599   22.6170 C   0  0  0  0  0  0  0  0  0  0  0  0
   11.1118  -15.8369   22.3568 O   0  0  0  0  0  0  0  0  0  0  0  0
    8.9508  -17.4689   17.3431 O   0  0  0  0  0  0  0  0  0  0  0  0
    9.1814  -16.5570   23.4764 N   0  0  0  0  0  0  0  0  0  0  0  0
    8.9235  -15.3031   24.1106 C   0  0  1  0  0  0  0  0  0  0  0  0
    7.4733  -15.2405   24.5094 C   0  0  0  0  0  0  0  0  0  0  0  0
    7.1047  -13.8973   25.0093 C   0  0  0  0  0  0  0  0  0  0  0  0
    6.3215  -13.8170   26.1501 C   0  0  0  0  0  0  0  0  0  0  0  0
    5.9365  -12.5892   26.6697 C   0  0  0  0  0  0  0  0  0  0  0  0
    6.3444  -11.4353   26.0342 C   0  0  0  0  0  0  0  0  0  0  0  0
    7.1197  -11.4819   24.9040 C   0  0  0  0  0  0  0  0  0  0  0  0
    7.4863  -12.7259   24.4119 C   0  0  0  0  0  0  0  0  0  0  0  0
    9.8224  -15.0836   25.2854 C   0  0  0  0  0  0  0  0  0  0  0  0
   10.7910  -14.2935   25.1712 O   0  0  0  0  0  0  0  0  0  0  0  0
   10.1888  -14.2555   28.3159 C   0  0  0  0  0  0  0  0  0  0  0  0
   10.4532  -15.5781   27.6184 C   0  0  2  0  0  0  0  0  0  0  0  0
    9.5630  -15.7694   26.4990 N   0  0  0  0  0  0  0  0  0  0  0  0
   10.2696  -16.6936   28.5646 C   0  0  0  0  0  0  0  0  0  0  0  0
   11.1018  -16.8183   29.6605 O   0  0  0  0  0  0  0  0  0  0  0  0
    9.3591  -17.5281   28.3752 O   0  0  0  0  0  0  0  0  0  0  0  0
  2  7  1  0
  2  1  1  6
  3  2  1  0
  4  3  1  0
  5  6  2  0
  5  4  1  0
  7  8  2  0
  9  5  1  0
 10 11  1  0
 10  7  1  0
 11 12  1  1
 12 13  1  0
 13 18  2  0
 14 13  1  0
 14 15  2  0
 15 16  1  0
 16 17  2  0
 18 17  1  0
 19 23  1  0
 19 11  1  0
 20 19  2  0
 22 23  1  0
 22 21  1  1
 24 22  1  0
 25 24  1  0
 26 24  2  0
M  END
$$$$
