EFA.pdb
     RDKit          3D

 26 26  0  0  1  0  0  0  0  0999 V2000
    8.7613  -17.6179   20.2926 N   0  0  0  0  0  0  0  0  0  0  0  0
   10.0823  -17.5200   20.8235 C   0  0  1  0  0  0  0  0  0  0  0  0
   11.1352  -17.1550   19.8023 C   0  0  0  0  0  0  0  0  0  0  0  0
   10.7648  -17.5806   18.4025 C   0  0  0  0  0  0  0  0  0  0  0  0
   11.8971  -18.3247   17.8125 C   0  0  0  0  0  0  0  0  0  0  0  0
   11.7270  -19.2636   17.0071 O   0  0  0  0  0  0  0  0  0  0  0  0
   10.1065  -16.6548   22.0031 C   0  0  0  0  0  0  0  0  0  0  0  0
   11.2142  -16.2778   22.4679 O   0  0  0  0  0  0  0  0  0  0  0  0
   13.1848  -17.9719   18.1620 O   0  0  0  0  0  0  0  0  0  0  0  0
    8.8726  -16.2634   22.5919 N   0  0  0  0  0  0  0  0  0  0  0  0
    8.8095  -15.4622   23.7731 C   0  0  1  0  0  0  0  0  0  0  0  0
    7.5952  -14.5753   23.7037 C   0  0  0  0  0  0  0  0  0  0  0  0
    7.5178  -13.6677   24.8700 C   0  0  0  0  0  0  0  0  0  0  0  0
    6.5403  -13.9097   25.8226 C   0  0  0  0  0  0  0  0  0  0  0  0
    6.4101  -13.0948   26.9382 C   0  0  0  0  0  0  0  0  0  0  0  0
    7.2715  -12.0293   27.0937 C   0  0  0  0  0  0  0  0  0  0  0  0
    8.2487  -11.7640   26.1690 C   0  0  0  0  0  0  0  0  0  0  0  0
    8.3508  -12.5988   25.0659 C   0  0  0  0  0  0  0  0  0  0  0  0
    8.8015  -16.3024   25.0101 C   0  0  0  0  0  0  0  0  0  0  0  0
    7.8098  -17.0365   25.2407 O   0  0  0  0  0  0  0  0  0  0  0  0
   11.1124  -18.1999   26.7576 C   0  0  0  0  0  0  0  0  0  0  0  0
    9.9881  -17.2031   26.9764 C   0  0  2  0  0  0  0  0  0  0  0  0
    9.9096  -16.2529   25.8933 N   0  0  0  0  0  0  0  0  0  0  0  0
   10.2030  -16.4678   28.2359 C   0  0  0  0  0  0  0  0  0  0  0  0
   10.2834  -17.1517   29.4339 O   0  0  0  0  0  0  0  0  0  0  0  0
   10.3130  -15.2233   28.2201 O   0  0  0  0  0  0  0  0  0  0  0  0
  2  7  1  0
  2  1  1  6
  3  2  1  0
  4  3  1  0
  5  6  2  0
  5  4  1  0
  7  8  2  0
  9  5  1  0
 10 11  1  0
 10  7  1  0
 11 12  1  6
 12 13  1  0
 13 18  2  0
 14 13  1  0
 14 15  2  0
 15 16  1  0
 16 17  2  0
 18 17  1  0
 19 23  1  0
 19 11  1  0
 20 19  2  0
 22 23  1  0
 22 21  1  6
 24 22  1  0
 25 24  1  0
 26 24  2  0
M  END
$$$$
