EFA.pdb
     RDKit          3D

 26 26  0  0  1  0  0  0  0  0999 V2000
    8.8801  -15.6810   19.1021 N   0  0  0  0  0  0  0  0  0  0  0  0
    9.1351  -16.5653   20.1927 C   0  0  1  0  0  0  0  0  0  0  0  0
   10.2101  -17.5922   19.9196 C   0  0  0  0  0  0  0  0  0  0  0  0
   10.4322  -18.5297   21.0813 C   0  0  0  0  0  0  0  0  0  0  0  0
   11.5645  -19.4250   20.7649 C   0  0  0  0  0  0  0  0  0  0  0  0
   12.7021  -18.9869   20.4949 O   0  0  0  0  0  0  0  0  0  0  0  0
    9.3617  -15.8160   21.4287 C   0  0  0  0  0  0  0  0  0  0  0  0
   10.4757  -15.2604   21.6167 O   0  0  0  0  0  0  0  0  0  0  0  0
   11.3595  -20.7899   20.7672 O   0  0  0  0  0  0  0  0  0  0  0  0
    8.3121  -15.7371   22.3850 N   0  0  0  0  0  0  0  0  0  0  0  0
    8.4169  -14.9482   23.5715 C   0  0  1  0  0  0  0  0  0  0  0  0
    7.0815  -14.3187   23.8654 C   0  0  0  0  0  0  0  0  0  0  0  0
    7.1365  -13.4670   25.0743 C   0  0  0  0  0  0  0  0  0  0  0  0
    6.4432  -13.8844   26.1997 C   0  0  0  0  0  0  0  0  0  0  0  0
    6.4493  -13.1312   27.3651 C   0  0  0  0  0  0  0  0  0  0  0  0
    7.1594  -11.9494   27.3951 C   0  0  0  0  0  0  0  0  0  0  0  0
    7.8552  -11.5098   26.2983 C   0  0  0  0  0  0  0  0  0  0  0  0
    7.8276  -12.2874   25.1500 C   0  0  0  0  0  0  0  0  0  0  0  0
    8.9057  -15.7568   24.7305 C   0  0  0  0  0  0  0  0  0  0  0  0
    8.3241  -16.8335   25.0097 O   0  0  0  0  0  0  0  0  0  0  0  0
   12.0311  -15.7824   26.7778 C   0  0  0  0  0  0  0  0  0  0  0  0
   10.5871  -16.1542   26.4915 C   0  0  2  0  0  0  0  0  0  0  0  0
   10.0116  -15.2928   25.4870 N   0  0  0  0  0  0  0  0  0  0  0  0
    9.7841  -16.0465   27.7231 C   0  0  0  0  0  0  0  0  0  0  0  0
   10.0018  -16.9190   28.7722 O   0  0  0  0  0  0  0  0  0  0  0  0
    8.9047  -15.1641   27.8186 O   0  0  0  0  0  0  0  0  0  0  0  0
  2  7  1  0
  2  1  1  6
  3  2  1  0
  4  3  1  0
  5  6  2  0
  5  4  1  0
  7  8  2  0
  9  5  1  0
 10 11  1  0
 10  7  1  0
 11 12  1  1
 12 13  1  0
 13 18  2  0
 14 13  1  0
 14 15  2  0
 15 16  1  0
 16 17  2  0
 18 17  1  0
 19 23  1  0
 19 11  1  0
 20 19  2  0
 22 23  1  0
 22 21  1  1
 24 22  1  0
 25 24  1  0
 26 24  2  0
M  END
$$$$
