EFA.pdb
     RDKit          3D

 26 26  0  0  1  0  0  0  0  0999 V2000
   10.3519  -16.6782   19.3675 N   0  0  0  0  0  0  0  0  0  0  0  0
    9.1670  -16.7830   20.1557 C   0  0  1  0  0  0  0  0  0  0  0  0
    8.6177  -18.1870   20.2651 C   0  0  0  0  0  0  0  0  0  0  0  0
    9.6602  -19.2454   19.9992 C   0  0  0  0  0  0  0  0  0  0  0  0
    9.0291  -20.5773   20.1068 C   0  0  0  0  0  0  0  0  0  0  0  0
    8.3670  -21.0758   19.1729 O   0  0  0  0  0  0  0  0  0  0  0  0
    9.3478  -16.1375   21.4561 C   0  0  0  0  0  0  0  0  0  0  0  0
   10.4884  -16.1348   21.9892 O   0  0  0  0  0  0  0  0  0  0  0  0
    9.1751  -21.2947   21.2768 O   0  0  0  0  0  0  0  0  0  0  0  0
    8.2248  -15.5294   22.0818 N   0  0  0  0  0  0  0  0  0  0  0  0
    8.3117  -14.8968   23.3599 C   0  0  1  0  0  0  0  0  0  0  0  0
    7.0857  -14.0504   23.5761 C   0  0  0  0  0  0  0  0  0  0  0  0
    7.1309  -13.3516   24.8797 C   0  0  0  0  0  0  0  0  0  0  0  0
    8.0681  -12.3444   25.0490 C   0  0  0  0  0  0  0  0  0  0  0  0
    8.1668  -11.6519   26.2475 C   0  0  0  0  0  0  0  0  0  0  0  0
    7.3146  -11.9777   27.2815 C   0  0  0  0  0  0  0  0  0  0  0  0
    6.3770  -12.9690   27.1448 C   0  0  0  0  0  0  0  0  0  0  0  0
    6.3057  -13.6408   25.9333 C   0  0  0  0  0  0  0  0  0  0  0  0
    8.4860  -15.8954   24.4593 C   0  0  0  0  0  0  0  0  0  0  0  0
    7.5956  -16.7610   24.6420 O   0  0  0  0  0  0  0  0  0  0  0  0
   11.2666  -17.5521   25.9402 C   0  0  0  0  0  0  0  0  0  0  0  0
    9.9091  -16.9210   26.1939 C   0  0  2  0  0  0  0  0  0  0  0  0
    9.6488  -15.8442   25.2692 N   0  0  0  0  0  0  0  0  0  0  0  0
    9.8478  -16.3898   27.5676 C   0  0  0  0  0  0  0  0  0  0  0  0
   10.0374  -17.2319   28.6466 O   0  0  0  0  0  0  0  0  0  0  0  0
    9.6241  -15.1751   27.7568 O   0  0  0  0  0  0  0  0  0  0  0  0
  2  7  1  0
  2  1  1  1
  3  2  1  0
  4  3  1  0
  5  6  2  0
  5  4  1  0
  7  8  2  0
  9  5  1  0
 10 11  1  0
 10  7  1  0
 11 12  1  1
 12 13  1  0
 13 18  2  0
 14 13  1  0
 14 15  2  0
 15 16  1  0
 16 17  2  0
 18 17  1  0
 19 23  1  0
 19 11  1  0
 20 19  2  0
 22 23  1  0
 22 21  1  6
 24 22  1  0
 25 24  1  0
 26 24  2  0
M  END
$$$$
