EFA.pdb
     RDKit          3D

 26 26  0  0  1  0  0  0  0  0999 V2000
   10.9263  -16.8156   20.2652 N   0  0  0  0  0  0  0  0  0  0  0  0
   10.1205  -17.2783   21.3482 C   0  0  1  0  0  0  0  0  0  0  0  0
   10.4920  -18.6535   21.8536 C   0  0  0  0  0  0  0  0  0  0  0  0
   11.0167  -19.5554   20.7632 C   0  0  0  0  0  0  0  0  0  0  0  0
   10.5380  -20.9320   21.0081 C   0  0  0  0  0  0  0  0  0  0  0  0
    9.4345  -21.3361   20.5862 O   0  0  0  0  0  0  0  0  0  0  0  0
   10.0545  -16.2771   22.4130 C   0  0  0  0  0  0  0  0  0  0  0  0
   11.0951  -15.6410   22.7258 O   0  0  0  0  0  0  0  0  0  0  0  0
   11.3351  -21.8001   21.7263 O   0  0  0  0  0  0  0  0  0  0  0  0
    8.8114  -16.0510   23.0656 N   0  0  0  0  0  0  0  0  0  0  0  0
    8.6712  -15.1228   24.1425 C   0  0  1  0  0  0  0  0  0  0  0  0
    7.2352  -14.6795   24.2284 C   0  0  0  0  0  0  0  0  0  0  0  0
    7.0429  -13.6621   25.2858 C   0  0  0  0  0  0  0  0  0  0  0  0
    7.5944  -12.4054   25.0913 C   0  0  0  0  0  0  0  0  0  0  0  0
    7.4551  -11.4068   26.0447 C   0  0  0  0  0  0  0  0  0  0  0  0
    6.7549  -11.6778   27.2013 C   0  0  0  0  0  0  0  0  0  0  0  0
    6.1976  -12.9111   27.4228 C   0  0  0  0  0  0  0  0  0  0  0  0
    6.3561  -13.8860   26.4489 C   0  0  0  0  0  0  0  0  0  0  0  0
    9.1409  -15.7048   25.4375 C   0  0  0  0  0  0  0  0  0  0  0  0
    8.8012  -16.8753   25.7373 O   0  0  0  0  0  0  0  0  0  0  0  0
   11.7743  -14.6710   27.9141 C   0  0  0  0  0  0  0  0  0  0  0  0
   10.7008  -15.5814   27.3447 C   0  0  2  0  0  0  0  0  0  0  0  0
    9.9570  -14.9257   26.2963 N   0  0  0  0  0  0  0  0  0  0  0  0
    9.7634  -15.9840   28.4088 C   0  0  0  0  0  0  0  0  0  0  0  0
    8.4594  -15.5271   28.3944 O   0  0  0  0  0  0  0  0  0  0  0  0
   10.1488  -16.7402   29.3257 O   0  0  0  0  0  0  0  0  0  0  0  0
  2  7  1  0
  2  1  1  6
  3  2  1  0
  4  3  1  0
  5  6  2  0
  5  4  1  0
  7  8  2  0
  9  5  1  0
 10 11  1  0
 10  7  1  0
 11 12  1  1
 12 13  1  0
 13 18  2  0
 14 13  1  0
 14 15  2  0
 15 16  1  0
 16 17  2  0
 18 17  1  0
 19 23  1  0
 19 11  1  0
 20 19  2  0
 22 23  1  0
 22 21  1  1
 24 22  1  0
 25 24  1  0
 26 24  2  0
M  END
$$$$
