VEI.pdb
     RDKit          3D

 25 24  0  0  1  0  0  0  0  0999 V2000
   27.9803  -19.4454  -18.4491 C   0  0  0  0  0  0  0  0  0  0  0  0
   29.0766  -20.3527  -17.9910 C   0  0  2  0  0  0  0  0  0  0  0  0
   29.3499  -21.4000  -19.0581 C   0  0  0  0  0  0  0  0  0  0  0  0
   28.7612  -21.0638  -16.6929 C   0  0  2  0  0  0  0  0  0  0  0  0
   28.2751  -22.3793  -17.0305 N   0  0  0  0  0  0  0  0  0  0  0  0
   27.7512  -20.3378  -15.8860 C   0  0  0  0  0  0  0  0  0  0  0  0
   27.9892  -19.2002  -15.4173 O   0  0  0  0  0  0  0  0  0  0  0  0
   26.4864  -20.9193  -15.6260 N   0  0  0  0  0  0  0  0  0  0  0  0
   25.4404  -20.2685  -14.8645 C   0  0  1  0  0  0  0  0  0  0  0  0
   24.2322  -20.0472  -15.7364 C   0  0  0  0  0  0  0  0  0  0  0  0
   23.1107  -19.3523  -15.0097 C   0  0  0  0  0  0  0  0  0  0  0  0
   21.9293  -19.3264  -15.9110 C   0  0  0  0  0  0  0  0  0  0  0  0
   21.8324  -18.4275  -16.7940 O   0  0  0  0  0  0  0  0  0  0  0  0
   25.1564  -21.0109  -13.6373 C   0  0  0  0  0  0  0  0  0  0  0  0
   25.0255  -22.2526  -13.6628 O   0  0  0  0  0  0  0  0  0  0  0  0
   20.9076  -20.2619  -15.8263 O   0  0  0  0  0  0  0  0  0  0  0  0
   27.5675  -20.4259   -8.9827 C   0  0  0  0  0  0  0  0  0  0  0  0
   26.6978  -20.9354  -10.1098 C   0  0  0  0  0  0  0  0  0  0  0  0
   25.2729  -20.4433   -9.9797 C   0  0  2  0  0  0  0  0  0  0  0  0
   24.5943  -20.9876   -8.7541 C   0  0  0  0  0  0  0  0  0  0  0  0
   24.5198  -20.9469  -11.1997 C   0  0  2  0  0  0  0  0  0  0  0  0
   25.0278  -20.3236  -12.4089 N   0  0  0  0  0  0  0  0  0  0  0  0
   23.0666  -20.7166  -11.0357 C   0  0  0  0  0  0  0  0  0  0  0  0
   22.2092  -21.6358  -10.4679 O   0  0  0  0  0  0  0  0  0  0  0  0
   22.5921  -19.6288  -11.4342 O   0  0  0  0  0  0  0  0  0  0  0  0
  2  1  1  6
  2  3  1  0
  4  5  1  6
  4  2  1  0
  6  4  1  0
  7  6  2  0
  8  6  1  0
  9 14  1  0
  9  8  1  0
  9 10  1  6
 11 10  1  0
 12 11  1  0
 13 12  2  0
 14 15  2  0
 16 12  1  0
 17 18  1  0
 19 18  1  0
 19 20  1  1
 21 19  1  0
 21 22  1  6
 22 14  1  0
 23 21  1  0
 24 23  1  0
 25 23  2  0
M  END
$$$$
