VEI.pdb
     RDKit          3D

 25 24  0  0  1  0  0  0  0  0999 V2000
   18.5255  -15.5917  -18.6393 C   0  0  0  0  0  0  0  0  0  0  0  0
   17.3434  -15.0885  -17.8749 C   0  0  2  0  0  0  0  0  0  0  0  0
   16.4580  -14.2616  -18.7929 C   0  0  0  0  0  0  0  0  0  0  0  0
   17.7208  -14.2381  -16.6814 C   0  0  2  0  0  0  0  0  0  0  0  0
   16.5529  -14.1336  -15.8414 N   0  0  0  0  0  0  0  0  0  0  0  0
   18.1863  -12.8876  -17.0790 C   0  0  0  0  0  0  0  0  0  0  0  0
   19.2081  -12.7349  -17.7882 O   0  0  0  0  0  0  0  0  0  0  0  0
   17.4802  -11.7330  -16.6624 N   0  0  0  0  0  0  0  0  0  0  0  0
   17.9037  -10.3791  -16.9544 C   0  0  1  0  0  0  0  0  0  0  0  0
   16.7145   -9.5425  -17.3480 C   0  0  0  0  0  0  0  0  0  0  0  0
   17.1002   -8.1538  -17.7852 C   0  0  0  0  0  0  0  0  0  0  0  0
   15.8528   -7.4144  -18.1105 C   0  0  0  0  0  0  0  0  0  0  0  0
   15.3501   -7.5081  -19.2662 O   0  0  0  0  0  0  0  0  0  0  0  0
   18.6730   -9.8267  -15.8405 C   0  0  0  0  0  0  0  0  0  0  0  0
   18.2319   -9.8860  -14.6736 O   0  0  0  0  0  0  0  0  0  0  0  0
   15.2015   -6.6098  -17.1859 O   0  0  0  0  0  0  0  0  0  0  0  0
   23.3645  -11.3018  -14.5815 C   0  0  0  0  0  0  0  0  0  0  0  0
   22.0087  -10.6475  -14.7226 C   0  0  0  0  0  0  0  0  0  0  0  0
   22.1322   -9.1704  -15.0264 C   0  0  2  0  0  0  0  0  0  0  0  0
   22.9252   -8.4400  -13.9793 C   0  0  0  0  0  0  0  0  0  0  0  0
   20.7226   -8.6027  -15.0331 C   0  0  2  0  0  0  0  0  0  0  0  0
   19.9267   -9.2194  -16.0795 N   0  0  0  0  0  0  0  0  0  0  0  0
   20.7644   -7.1297  -15.1751 C   0  0  0  0  0  0  0  0  0  0  0  0
   20.8595   -6.2639  -14.1056 O   0  0  0  0  0  0  0  0  0  0  0  0
   20.7105   -6.6455  -16.3283 O   0  0  0  0  0  0  0  0  0  0  0  0
  2  1  1  6
  2  3  1  0
  4  5  1  1
  4  2  1  0
  6  4  1  0
  7  6  2  0
  8  6  1  0
  9 14  1  0
  9  8  1  0
  9 10  1  1
 11 10  1  0
 12 11  1  0
 13 12  2  0
 14 15  2  0
 16 12  1  0
 17 18  1  0
 19 18  1  0
 19 20  1  1
 21 19  1  0
 21 22  1  6
 22 14  1  0
 23 21  1  0
 24 23  1  0
 25 23  2  0
M  END
$$$$
