VEI.pdb
     RDKit          3D

 25 24  0  0  1  0  0  0  0  0999 V2000
   27.9616  -17.0309  -17.2371 C   0  0  0  0  0  0  0  0  0  0  0  0
   27.2705  -17.4583  -15.9823 C   0  0  2  0  0  0  0  0  0  0  0  0
   28.3043  -17.7699  -14.9126 C   0  0  0  0  0  0  0  0  0  0  0  0
   26.3928  -18.6770  -16.1683 C   0  0  2  0  0  0  0  0  0  0  0  0
   25.5453  -18.4265  -17.3083 N   0  0  0  0  0  0  0  0  0  0  0  0
   25.5666  -18.9619  -14.9705 C   0  0  0  0  0  0  0  0  0  0  0  0
   24.8639  -18.0711  -14.4386 O   0  0  0  0  0  0  0  0  0  0  0  0
   25.5543  -20.2571  -14.3981 N   0  0  0  0  0  0  0  0  0  0  0  0
   24.7701  -20.6177  -13.2351 C   0  0  1  0  0  0  0  0  0  0  0  0
   23.7782  -21.6919  -13.5973 C   0  0  0  0  0  0  0  0  0  0  0  0
   22.6407  -21.1731  -14.4372 C   0  0  0  0  0  0  0  0  0  0  0  0
   21.5541  -20.7431  -13.5190 C   0  0  0  0  0  0  0  0  0  0  0  0
   21.2320  -19.5227  -13.4549 O   0  0  0  0  0  0  0  0  0  0  0  0
   25.6401  -20.9695  -12.1140 C   0  0  0  0  0  0  0  0  0  0  0  0
   26.6545  -21.6752  -12.2951 O   0  0  0  0  0  0  0  0  0  0  0  0
   20.8632  -21.6369  -12.7129 O   0  0  0  0  0  0  0  0  0  0  0  0
   28.3486  -19.1204   -7.1540 C   0  0  0  0  0  0  0  0  0  0  0  0
   27.6599  -20.2446   -7.8945 C   0  0  0  0  0  0  0  0  0  0  0  0
   26.8888  -19.7326   -9.0914 C   0  0  2  0  0  0  0  0  0  0  0  0
   25.9239  -18.6416   -8.7205 C   0  0  0  0  0  0  0  0  0  0  0  0
   26.0898  -20.9053   -9.6351 C   0  0  2  0  0  0  0  0  0  0  0  0
   25.3364  -20.5105  -10.8121 N   0  0  0  0  0  0  0  0  0  0  0  0
   25.2078  -21.4563   -8.5815 C   0  0  0  0  0  0  0  0  0  0  0  0
   25.6395  -22.3336   -7.6087 O   0  0  0  0  0  0  0  0  0  0  0  0
   24.0057  -21.1064   -8.5745 O   0  0  0  0  0  0  0  0  0  0  0  0
  2  1  1  6
  2  3  1  0
  4  5  1  6
  4  2  1  0
  6  4  1  0
  7  6  2  0
  8  6  1  0
  9 14  1  0
  9  8  1  0
  9 10  1  6
 11 10  1  0
 12 11  1  0
 13 12  2  0
 14 15  2  0
 16 12  1  0
 17 18  1  0
 19 18  1  0
 19 20  1  1
 21 19  1  0
 21 22  1  6
 22 14  1  0
 23 21  1  0
 24 23  1  0
 25 23  2  0
M  END
$$$$
