VEI.pdb
     RDKit          3D

 25 24  0  0  1  0  0  0  0  0999 V2000
   12.9206  -10.8512  -13.2634 C   0  0  0  0  0  0  0  0  0  0  0  0
   13.3770  -11.3392  -14.6007 C   0  0  2  0  0  0  0  0  0  0  0  0
   12.5437  -12.5408  -15.0156 C   0  0  0  0  0  0  0  0  0  0  0  0
   14.8366  -11.7382  -14.6256 C   0  0  2  0  0  0  0  0  0  0  0  0
   14.8956  -13.1654  -14.4248 N   0  0  0  0  0  0  0  0  0  0  0  0
   15.6267  -11.0426  -13.5814 C   0  0  0  0  0  0  0  0  0  0  0  0
   15.7103  -11.4992  -12.4174 O   0  0  0  0  0  0  0  0  0  0  0  0
   16.3087   -9.8380  -13.8801 N   0  0  0  0  0  0  0  0  0  0  0  0
   17.0543   -9.0698  -12.9046 C   0  0  1  0  0  0  0  0  0  0  0  0
   18.3082   -8.5204  -13.5329 C   0  0  0  0  0  0  0  0  0  0  0  0
   19.1242   -7.6936  -12.5743 C   0  0  0  0  0  0  0  0  0  0  0  0
   20.2958   -7.1583  -13.3156 C   0  0  0  0  0  0  0  0  0  0  0  0
   21.1622   -7.9529  -13.7795 O   0  0  0  0  0  0  0  0  0  0  0  0
   16.2046   -8.0505  -12.2908 C   0  0  0  0  0  0  0  0  0  0  0  0
   15.4293   -7.3654  -12.9902 O   0  0  0  0  0  0  0  0  0  0  0  0
   20.4863   -5.7998  -13.5263 O   0  0  0  0  0  0  0  0  0  0  0  0
   12.4248   -6.8068   -7.9632 C   0  0  0  0  0  0  0  0  0  0  0  0
   13.6362   -6.3000   -8.7130 C   0  0  0  0  0  0  0  0  0  0  0  0
   14.4337   -7.4361   -9.3152 C   0  0  2  0  0  0  0  0  0  0  0  0
   15.1471   -8.2456   -8.2690 C   0  0  0  0  0  0  0  0  0  0  0  0
   15.4796   -6.8083  -10.2214 C   0  0  2  0  0  0  0  0  0  0  0  0
   16.2563   -7.8338  -10.8950 N   0  0  0  0  0  0  0  0  0  0  0  0
   16.3437   -5.8896   -9.4462 C   0  0  0  0  0  0  0  0  0  0  0  0
   15.9607   -4.6189   -9.0707 O   0  0  0  0  0  0  0  0  0  0  0  0
   17.4830   -6.2889   -9.1146 O   0  0  0  0  0  0  0  0  0  0  0  0
  2  1  1  1
  2  3  1  0
  4  5  1  1
  4  2  1  0
  6  4  1  0
  7  6  2  0
  8  6  1  0
  9 14  1  0
  9  8  1  0
  9 10  1  6
 11 10  1  0
 12 11  1  0
 13 12  2  0
 14 15  2  0
 16 12  1  0
 17 18  1  0
 19 18  1  0
 19 20  1  1
 21 19  1  0
 21 22  1  1
 22 14  1  0
 23 21  1  0
 24 23  1  0
 25 23  2  0
M  END
$$$$
