VEI.pdb
     RDKit          3D

 25 24  0  0  1  0  0  0  0  0999 V2000
   15.3551  -12.7537  -19.1089 C   0  0  0  0  0  0  0  0  0  0  0  0
   16.1361  -13.9036  -18.5589 C   0  0  2  0  0  0  0  0  0  0  0  0
   15.1851  -15.0196  -18.1583 C   0  0  0  0  0  0  0  0  0  0  0  0
   16.9751  -13.5352  -17.3545 C   0  0  2  0  0  0  0  0  0  0  0  0
   16.1335  -13.6605  -16.1897 N   0  0  0  0  0  0  0  0  0  0  0  0
   17.5166  -12.1581  -17.4475 C   0  0  0  0  0  0  0  0  0  0  0  0
   18.3154  -11.8338  -18.3569 O   0  0  0  0  0  0  0  0  0  0  0  0
   17.1394  -11.1726  -16.5031 N   0  0  0  0  0  0  0  0  0  0  0  0
   17.7274   -9.8507  -16.4379 C   0  0  1  0  0  0  0  0  0  0  0  0
   16.6508   -8.8197  -16.2214 C   0  0  0  0  0  0  0  0  0  0  0  0
   17.1914   -7.4145  -16.1822 C   0  0  0  0  0  0  0  0  0  0  0  0
   16.0503   -6.4925  -15.9444 C   0  0  0  0  0  0  0  0  0  0  0  0
   14.8818   -6.9578  -15.8211 O   0  0  0  0  0  0  0  0  0  0  0  0
   18.7956   -9.8089  -15.4404 C   0  0  0  0  0  0  0  0  0  0  0  0
   18.6966  -10.4565  -14.3771 O   0  0  0  0  0  0  0  0  0  0  0  0
   16.2115   -5.1173  -15.8495 O   0  0  0  0  0  0  0  0  0  0  0  0
   24.2241  -11.1685  -14.4179 C   0  0  0  0  0  0  0  0  0  0  0  0
   23.1931  -10.0960  -14.1469 C   0  0  0  0  0  0  0  0  0  0  0  0
   22.0899  -10.1098  -15.1824 C   0  0  2  0  0  0  0  0  0  0  0  0
   22.6009   -9.7944  -16.5601 C   0  0  0  0  0  0  0  0  0  0  0  0
   21.1003   -9.0269  -14.7860 C   0  0  2  0  0  0  0  0  0  0  0  0
   19.9523   -9.0313  -15.6754 N   0  0  0  0  0  0  0  0  0  0  0  0
   21.7684   -7.7061  -14.7632 C   0  0  0  0  0  0  0  0  0  0  0  0
   22.3601   -7.1712  -13.6379 O   0  0  0  0  0  0  0  0  0  0  0  0
   21.7970   -7.0399  -15.8228 O   0  0  0  0  0  0  0  0  0  0  0  0
  2  1  1  1
  2  3  1  0
  4  5  1  1
  4  2  1  0
  6  4  1  0
  7  6  2  0
  8  6  1  0
  9 14  1  0
  9  8  1  0
  9 10  1  1
 11 10  1  0
 12 11  1  0
 13 12  2  0
 14 15  2  0
 16 12  1  0
 17 18  1  0
 19 18  1  0
 19 20  1  6
 21 19  1  0
 21 22  1  6
 22 14  1  0
 23 21  1  0
 24 23  1  0
 25 23  2  0
M  END
$$$$
