VEI.pdb
     RDKit          3D

 25 24  0  0  1  0  0  0  0  0999 V2000
   18.2551  -14.1585  -18.6899 C   0  0  0  0  0  0  0  0  0  0  0  0
   17.2888  -13.8956  -17.5799 C   0  0  2  0  0  0  0  0  0  0  0  0
   16.1144  -13.0879  -18.1080 C   0  0  0  0  0  0  0  0  0  0  0  0
   17.9022  -13.1439  -16.4185 C   0  0  2  0  0  0  0  0  0  0  0  0
   16.9081  -13.0791  -15.3753 N   0  0  0  0  0  0  0  0  0  0  0  0
   18.3330  -11.7771  -16.7990 C   0  0  0  0  0  0  0  0  0  0  0  0
   19.3325  -11.5910  -17.5317 O   0  0  0  0  0  0  0  0  0  0  0  0
   17.6184  -10.6445  -16.3387 N   0  0  0  0  0  0  0  0  0  0  0  0
   17.9891   -9.2781  -16.6435 C   0  0  1  0  0  0  0  0  0  0  0  0
   16.7561   -8.4655  -16.9409 C   0  0  0  0  0  0  0  0  0  0  0  0
   16.3055   -8.5961  -18.3722 C   0  0  0  0  0  0  0  0  0  0  0  0
   15.3033   -9.6916  -18.4373 C   0  0  0  0  0  0  0  0  0  0  0  0
   14.2113   -9.5821  -17.8107 O   0  0  0  0  0  0  0  0  0  0  0  0
   18.8234   -8.7197  -15.5806 C   0  0  0  0  0  0  0  0  0  0  0  0
   18.4750   -8.8134  -14.3849 O   0  0  0  0  0  0  0  0  0  0  0  0
   15.5152  -10.8520  -19.1685 O   0  0  0  0  0  0  0  0  0  0  0  0
   23.2801  -10.3210  -14.3298 C   0  0  0  0  0  0  0  0  0  0  0  0
   21.9864   -9.5541  -14.4862 C   0  0  0  0  0  0  0  0  0  0  0  0
   22.2376   -8.1050  -14.8416 C   0  0  2  0  0  0  0  0  0  0  0  0
   23.0610   -7.3999  -13.8007 C   0  0  0  0  0  0  0  0  0  0  0  0
   20.8797   -7.4263  -14.9095 C   0  0  2  0  0  0  0  0  0  0  0  0
   20.0354   -8.0672  -15.9020 N   0  0  0  0  0  0  0  0  0  0  0  0
   21.0429   -5.9805  -15.1828 C   0  0  0  0  0  0  0  0  0  0  0  0
   21.3221   -5.0475  -14.2061 O   0  0  0  0  0  0  0  0  0  0  0  0
   20.9205   -5.5851  -16.3644 O   0  0  0  0  0  0  0  0  0  0  0  0
  2  1  1  6
  2  3  1  0
  4  5  1  1
  4  2  1  0
  6  4  1  0
  7  6  2  0
  8  6  1  0
  9 14  1  0
  9  8  1  0
  9 10  1  1
 11 10  1  0
 12 11  1  0
 13 12  2  0
 14 15  2  0
 16 12  1  0
 17 18  1  0
 19 18  1  0
 19 20  1  1
 21 19  1  0
 21 22  1  6
 22 14  1  0
 23 21  1  0
 24 23  1  0
 25 23  2  0
M  END
$$$$
