VEI.pdb
     RDKit          3D

 25 24  0  0  1  0  0  0  0  0999 V2000
   17.6010  -13.8266  -20.2468 C   0  0  0  0  0  0  0  0  0  0  0  0
   18.3205  -13.1182  -19.1444 C   0  0  2  0  0  0  0  0  0  0  0  0
   18.7136  -11.7244  -19.6063 C   0  0  0  0  0  0  0  0  0  0  0  0
   19.5692  -13.8393  -18.6849 C   0  0  2  0  0  0  0  0  0  0  0  0
   19.1621  -15.1325  -18.1924 N   0  0  0  0  0  0  0  0  0  0  0  0
   20.2907  -13.0934  -17.6259 C   0  0  0  0  0  0  0  0  0  0  0  0
   19.7732  -12.8970  -16.5016 O   0  0  0  0  0  0  0  0  0  0  0  0
   21.5900  -12.5834  -17.8647 N   0  0  0  0  0  0  0  0  0  0  0  0
   22.3442  -11.8121  -16.8982 C   0  0  1  0  0  0  0  0  0  0  0  0
   23.8077  -12.1548  -16.9971 C   0  0  0  0  0  0  0  0  0  0  0  0
   24.6393  -11.4582  -15.9523 C   0  0  0  0  0  0  0  0  0  0  0  0
   26.0384  -11.9415  -16.0853 C   0  0  0  0  0  0  0  0  0  0  0  0
   26.3170  -13.1429  -15.8092 O   0  0  0  0  0  0  0  0  0  0  0  0
   22.0598  -10.3851  -17.0407 C   0  0  0  0  0  0  0  0  0  0  0  0
   22.1961   -9.8180  -18.1450 O   0  0  0  0  0  0  0  0  0  0  0  0
   27.0735  -11.1187  -16.5070 O   0  0  0  0  0  0  0  0  0  0  0  0
   18.1260   -6.2194  -16.6223 C   0  0  0  0  0  0  0  0  0  0  0  0
   19.5695   -6.5357  -16.3017 C   0  0  0  0  0  0  0  0  0  0  0  0
   19.8135   -8.0280  -16.2467 C   0  0  2  0  0  0  0  0  0  0  0  0
   19.0587   -8.6855  -15.1257 C   0  0  0  0  0  0  0  0  0  0  0  0
   21.2993   -8.2224  -15.9939 C   0  0  2  0  0  0  0  0  0  0  0  0
   21.6266   -9.6355  -15.9234 N   0  0  0  0  0  0  0  0  0  0  0  0
   21.7077   -7.5053  -14.7649 C   0  0  0  0  0  0  0  0  0  0  0  0
   21.9112   -6.1422  -14.7105 O   0  0  0  0  0  0  0  0  0  0  0  0
   21.8771   -8.1732  -13.7196 O   0  0  0  0  0  0  0  0  0  0  0  0
  2  1  1  6
  2  3  1  0
  4  5  1  1
  4  2  1  0
  6  4  1  0
  7  6  2  0
  8  6  1  0
  9 14  1  0
  9  8  1  0
  9 10  1  6
 11 10  1  0
 12 11  1  0
 13 12  2  0
 14 15  2  0
 16 12  1  0
 17 18  1  0
 19 18  1  0
 19 20  1  1
 21 19  1  0
 21 22  1  1
 22 14  1  0
 23 21  1  0
 24 23  1  0
 25 23  2  0
M  END
$$$$
