VEI.pdb
     RDKit          3D

 25 24  0  0  1  0  0  0  0  0999 V2000
   14.9795  -11.2409  -17.6501 C   0  0  0  0  0  0  0  0  0  0  0  0
   16.1767  -12.1337  -17.5830 C   0  0  2  0  0  0  0  0  0  0  0  0
   15.7340  -13.5576  -17.2883 C   0  0  0  0  0  0  0  0  0  0  0  0
   17.1761  -11.7156  -16.5263 C   0  0  2  0  0  0  0  0  0  0  0  0
   16.6173  -12.0658  -15.2435 N   0  0  0  0  0  0  0  0  0  0  0  0
   17.4708  -10.2633  -16.5757 C   0  0  0  0  0  0  0  0  0  0  0  0
   18.0064   -9.7425  -17.5818 O   0  0  0  0  0  0  0  0  0  0  0  0
   17.1506   -9.4277  -15.4781 N   0  0  0  0  0  0  0  0  0  0  0  0
   17.5660   -8.0446  -15.3689 C   0  0  1  0  0  0  0  0  0  0  0  0
   16.3784   -7.1754  -15.0478 C   0  0  0  0  0  0  0  0  0  0  0  0
   16.7421   -5.7196  -14.9180 C   0  0  0  0  0  0  0  0  0  0  0  0
   15.4963   -4.9227  -15.0648 C   0  0  0  0  0  0  0  0  0  0  0  0
   15.1852   -4.4450  -16.1927 O   0  0  0  0  0  0  0  0  0  0  0  0
   18.6710   -7.9102  -14.4210 C   0  0  0  0  0  0  0  0  0  0  0  0
   18.5343   -8.2675  -13.2321 O   0  0  0  0  0  0  0  0  0  0  0  0
   14.6418   -4.6739  -13.9998 O   0  0  0  0  0  0  0  0  0  0  0  0
   24.0395   -9.9561  -14.0418 C   0  0  0  0  0  0  0  0  0  0  0  0
   23.1926   -8.7481  -13.7102 C   0  0  0  0  0  0  0  0  0  0  0  0
   21.9475   -8.6887  -14.5679 C   0  0  2  0  0  0  0  0  0  0  0  0
   22.2686   -8.4731  -16.0202 C   0  0  0  0  0  0  0  0  0  0  0  0
   21.1345   -7.5003  -14.0823 C   0  0  2  0  0  0  0  0  0  0  0  0
   19.9067   -7.3723  -14.8472 N   0  0  0  0  0  0  0  0  0  0  0  0
   21.9472   -6.2644  -14.1433 C   0  0  0  0  0  0  0  0  0  0  0  0
   22.8201   -5.8770  -13.1481 O   0  0  0  0  0  0  0  0  0  0  0  0
   21.8352   -5.5328  -15.1530 O   0  0  0  0  0  0  0  0  0  0  0  0
  2  1  1  1
  2  3  1  0
  4  5  1  1
  4  2  1  0
  6  4  1  0
  7  6  2  0
  8  6  1  0
  9 14  1  0
  9  8  1  0
  9 10  1  1
 11 10  1  0
 12 11  1  0
 13 12  2  0
 14 15  2  0
 16 12  1  0
 17 18  1  0
 19 18  1  0
 19 20  1  6
 21 19  1  0
 21 22  1  6
 22 14  1  0
 23 21  1  0
 24 23  1  0
 25 23  2  0
M  END
$$$$
