VEI.pdb
     RDKit          3D

 25 24  0  0  1  0  0  0  0  0999 V2000
   20.3857  -16.0353  -18.6773 C   0  0  0  0  0  0  0  0  0  0  0  0
   19.4531  -15.0179  -19.2517 C   0  0  2  0  0  0  0  0  0  0  0  0
   20.0668  -14.4151  -20.5049 C   0  0  0  0  0  0  0  0  0  0  0  0
   19.1278  -13.8948  -18.2910 C   0  0  2  0  0  0  0  0  0  0  0  0
   18.0269  -13.1525  -18.8545 N   0  0  0  0  0  0  0  0  0  0  0  0
   20.2859  -12.9972  -18.0639 C   0  0  0  0  0  0  0  0  0  0  0  0
   21.3215  -13.4052  -17.4882 O   0  0  0  0  0  0  0  0  0  0  0  0
   20.2455  -11.6493  -18.4961 N   0  0  0  0  0  0  0  0  0  0  0  0
   21.2545  -10.6649  -18.1638 C   0  0  1  0  0  0  0  0  0  0  0  0
   22.1723  -10.4531  -19.3394 C   0  0  0  0  0  0  0  0  0  0  0  0
   21.4396  -10.4504  -20.6553 C   0  0  0  0  0  0  0  0  0  0  0  0
   22.3280  -11.0684  -21.6740 C   0  0  0  0  0  0  0  0  0  0  0  0
   22.4621  -12.3245  -21.7116 O   0  0  0  0  0  0  0  0  0  0  0  0
   20.6350   -9.4368  -17.6682 C   0  0  0  0  0  0  0  0  0  0  0  0
   19.7954   -8.8252  -18.3615 O   0  0  0  0  0  0  0  0  0  0  0  0
   23.0309  -10.3153  -22.6041 O   0  0  0  0  0  0  0  0  0  0  0  0
   17.0936   -6.6127  -15.1903 C   0  0  0  0  0  0  0  0  0  0  0  0
   18.3673   -7.0494  -14.5022 C   0  0  0  0  0  0  0  0  0  0  0  0
   18.9762   -8.2605  -15.1745 C   0  0  2  0  0  0  0  0  0  0  0  0
   19.2510   -9.3718  -14.2008 C   0  0  0  0  0  0  0  0  0  0  0  0
   20.3017   -7.8144  -15.7688 C   0  0  2  0  0  0  0  0  0  0  0  0
   20.9848   -8.9324  -16.3950 N   0  0  0  0  0  0  0  0  0  0  0  0
   21.1398   -7.1753  -14.7292 C   0  0  0  0  0  0  0  0  0  0  0  0
   21.0033   -5.8577  -14.3446 O   0  0  0  0  0  0  0  0  0  0  0  0
   22.0192   -7.8691  -14.1702 O   0  0  0  0  0  0  0  0  0  0  0  0
  2  1  1  1
  2  3  1  0
  4  5  1  6
  4  2  1  0
  6  4  1  0
  7  6  2  0
  8  6  1  0
  9 14  1  0
  9  8  1  0
  9 10  1  6
 11 10  1  0
 12 11  1  0
 13 12  2  0
 14 15  2  0
 16 12  1  0
 17 18  1  0
 19 18  1  0
 19 20  1  1
 21 19  1  0
 21 22  1  1
 22 14  1  0
 23 21  1  0
 24 23  1  0
 25 23  2  0
M  END
$$$$
