VEI.pdb
     RDKit          3D

 25 24  0  0  1  0  0  0  0  0999 V2000
   26.5468  -21.9328  -10.1496 C   0  0  0  0  0  0  0  0  0  0  0  0
   25.7426  -20.8004   -9.5967 C   0  0  2  0  0  0  0  0  0  0  0  0
   25.1439  -21.2063   -8.2598 C   0  0  0  0  0  0  0  0  0  0  0  0
   24.6186  -20.3628  -10.5106 C   0  0  2  0  0  0  0  0  0  0  0  0
   23.6912  -21.4632  -10.6089 N   0  0  0  0  0  0  0  0  0  0  0  0
   25.1063  -19.9840  -11.8587 C   0  0  0  0  0  0  0  0  0  0  0  0
   25.9046  -19.0312  -12.0171 O   0  0  0  0  0  0  0  0  0  0  0  0
   24.6766  -20.6968  -13.0044 N   0  0  0  0  0  0  0  0  0  0  0  0
   25.0904  -20.3778  -14.3552 C   0  0  1  0  0  0  0  0  0  0  0  0
   25.0190  -21.6099  -15.2187 C   0  0  0  0  0  0  0  0  0  0  0  0
   25.5224  -21.3689  -16.6177 C   0  0  0  0  0  0  0  0  0  0  0  0
   26.9860  -21.6266  -16.6272 C   0  0  0  0  0  0  0  0  0  0  0  0
   27.5505  -22.0823  -15.5923 O   0  0  0  0  0  0  0  0  0  0  0  0
   24.3261  -19.2454  -14.8759 C   0  0  0  0  0  0  0  0  0  0  0  0
   23.1210  -19.1035  -14.5804 O   0  0  0  0  0  0  0  0  0  0  0  0
   27.7773  -21.3853  -17.7416 O   0  0  0  0  0  0  0  0  0  0  0  0
   27.0098  -14.6678  -15.3352 C   0  0  0  0  0  0  0  0  0  0  0  0
   25.8840  -15.6648  -15.1764 C   0  0  0  0  0  0  0  0  0  0  0  0
   25.2494  -16.0046  -16.5072 C   0  0  2  0  0  0  0  0  0  0  0  0
   24.4889  -14.8447  -17.0860 C   0  0  0  0  0  0  0  0  0  0  0  0
   24.2654  -17.1339  -16.2504 C   0  0  2  0  0  0  0  0  0  0  0  0
   24.9503  -18.2999  -15.7212 N   0  0  0  0  0  0  0  0  0  0  0  0
   23.5189  -17.4540  -17.4881 C   0  0  0  0  0  0  0  0  0  0  0  0
   22.2106  -17.0764  -17.7076 O   0  0  0  0  0  0  0  0  0  0  0  0
   24.1080  -18.1022  -18.3826 O   0  0  0  0  0  0  0  0  0  0  0  0
  2  1  1  6
  2  3  1  0
  4  5  1  6
  4  2  1  0
  6  4  1  0
  7  6  2  0
  8  6  1  0
  9 14  1  0
  9  8  1  0
  9 10  1  6
 11 10  1  0
 12 11  1  0
 13 12  2  0
 14 15  2  0
 16 12  1  0
 17 18  1  0
 19 18  1  0
 19 20  1  1
 21 19  1  0
 21 22  1  6
 22 14  1  0
 23 21  1  0
 24 23  1  0
 25 23  2  0
M  END
$$$$
