VEI.pdb
     RDKit          3D

 25 24  0  0  1  0  0  0  0  0999 V2000
   17.6647  -14.2189  -19.0626 C   0  0  0  0  0  0  0  0  0  0  0  0
   16.6659  -13.9819  -17.9758 C   0  0  2  0  0  0  0  0  0  0  0  0
   15.6113  -12.9996  -18.4589 C   0  0  0  0  0  0  0  0  0  0  0  0
   17.2819  -13.4358  -16.7061 C   0  0  2  0  0  0  0  0  0  0  0  0
   16.2572  -13.4484  -15.6910 N   0  0  0  0  0  0  0  0  0  0  0  0
   17.8080  -12.0609  -16.8835 C   0  0  0  0  0  0  0  0  0  0  0  0
   18.8080  -11.8355  -17.6043 O   0  0  0  0  0  0  0  0  0  0  0  0
   17.1864  -10.9650  -16.2369 N   0  0  0  0  0  0  0  0  0  0  0  0
   17.6349   -9.5937  -16.3630 C   0  0  1  0  0  0  0  0  0  0  0  0
   16.4561   -8.6589  -16.2900 C   0  0  0  0  0  0  0  0  0  0  0  0
   16.8624   -7.2087  -16.3100 C   0  0  0  0  0  0  0  0  0  0  0  0
   15.6272   -6.3870  -16.2222 C   0  0  0  0  0  0  0  0  0  0  0  0
   14.5008   -6.9533  -16.1340 O   0  0  0  0  0  0  0  0  0  0  0  0
   18.6832   -9.3011  -15.3867 C   0  0  0  0  0  0  0  0  0  0  0  0
   18.4871   -9.4928  -14.1683 O   0  0  0  0  0  0  0  0  0  0  0  0
   15.6537   -4.9994  -16.2328 O   0  0  0  0  0  0  0  0  0  0  0  0
   24.2079  -10.7834  -14.3489 C   0  0  0  0  0  0  0  0  0  0  0  0
   23.2149   -9.6477  -14.2456 C   0  0  0  0  0  0  0  0  0  0  0  0
   22.0668   -9.8221  -15.2157 C   0  0  2  0  0  0  0  0  0  0  0  0
   22.5139   -9.7251  -16.6473 C   0  0  0  0  0  0  0  0  0  0  0  0
   21.0887   -8.6902  -14.9485 C   0  0  2  0  0  0  0  0  0  0  0  0
   19.9311   -8.7971  -15.8188 N   0  0  0  0  0  0  0  0  0  0  0  0
   21.7657   -7.3822  -15.0983 C   0  0  0  0  0  0  0  0  0  0  0  0
   22.4821   -6.7754  -14.0879 O   0  0  0  0  0  0  0  0  0  0  0  0
   21.6825   -6.7968  -16.2018 O   0  0  0  0  0  0  0  0  0  0  0  0
  2  1  1  6
  2  3  1  0
  4  5  1  1
  4  2  1  0
  6  4  1  0
  7  6  2  0
  8  6  1  0
  9 14  1  0
  9  8  1  0
  9 10  1  1
 11 10  1  0
 12 11  1  0
 13 12  2  0
 14 15  2  0
 16 12  1  0
 17 18  1  0
 19 18  1  0
 19 20  1  6
 21 19  1  0
 21 22  1  6
 22 14  1  0
 23 21  1  0
 24 23  1  0
 25 23  2  0
M  END
$$$$
