VEI.pdb
     RDKit          3D

 25 24  0  0  1  0  0  0  0  0999 V2000
   17.1243   -8.7162  -19.0012 C   0  0  0  0  0  0  0  0  0  0  0  0
   17.7505  -10.0207  -18.6255 C   0  0  2  0  0  0  0  0  0  0  0  0
   16.9207  -11.1639  -19.1864 C   0  0  0  0  0  0  0  0  0  0  0  0
   17.8802  -10.2131  -17.1301 C   0  0  2  0  0  0  0  0  0  0  0  0
   16.5787  -10.5823  -16.6297 N   0  0  0  0  0  0  0  0  0  0  0  0
   18.3618   -8.9888  -16.4461 C   0  0  0  0  0  0  0  0  0  0  0  0
   19.5120   -8.5375  -16.6549 O   0  0  0  0  0  0  0  0  0  0  0  0
   17.5253   -8.2986  -15.5355 N   0  0  0  0  0  0  0  0  0  0  0  0
   17.9413   -7.1342  -14.7814 C   0  0  1  0  0  0  0  0  0  0  0  0
   17.0037   -5.9863  -15.0501 C   0  0  0  0  0  0  0  0  0  0  0  0
   17.4086   -4.7253  -14.3327 C   0  0  0  0  0  0  0  0  0  0  0  0
   18.1559   -3.8730  -15.2938 C   0  0  0  0  0  0  0  0  0  0  0  0
   18.0052   -4.0468  -16.5366 O   0  0  0  0  0  0  0  0  0  0  0  0
   18.0851   -7.4611  -13.3636 C   0  0  0  0  0  0  0  0  0  0  0  0
   17.2624   -8.2121  -12.7989 O   0  0  0  0  0  0  0  0  0  0  0  0
   19.0286   -2.8755  -14.8820 O   0  0  0  0  0  0  0  0  0  0  0  0
   22.5028   -9.1953   -9.7906 C   0  0  0  0  0  0  0  0  0  0  0  0
   21.1539   -8.5196   -9.8917 C   0  0  0  0  0  0  0  0  0  0  0  0
   20.9395   -7.9058  -11.2580 C   0  0  2  0  0  0  0  0  0  0  0  0
   21.8646   -6.7489  -11.5118 C   0  0  0  0  0  0  0  0  0  0  0  0
   19.5123   -7.3849  -11.2878 C   0  0  2  0  0  0  0  0  0  0  0  0
   19.1619   -6.9263  -12.6204 N   0  0  0  0  0  0  0  0  0  0  0  0
   19.3359   -6.3164  -10.2785 C   0  0  0  0  0  0  0  0  0  0  0  0
   19.0813   -6.5625   -8.9454 O   0  0  0  0  0  0  0  0  0  0  0  0
   19.4226   -5.1261  -10.6567 O   0  0  0  0  0  0  0  0  0  0  0  0
  2  1  1  1
  2  3  1  0
  4  5  1  1
  4  2  1  0
  6  4  1  0
  7  6  2  0
  8  6  1  0
  9 14  1  0
  9  8  1  0
  9 10  1  1
 11 10  1  0
 12 11  1  0
 13 12  2  0
 14 15  2  0
 16 12  1  0
 17 18  1  0
 19 18  1  0
 19 20  1  1
 21 19  1  0
 21 22  1  6
 22 14  1  0
 23 21  1  0
 24 23  1  0
 25 23  2  0
M  END
$$$$
