VEI.pdb
     RDKit          3D

 25 24  0  0  1  0  0  0  0  0999 V2000
   29.3008  -20.3083  -13.1776 C   0  0  0  0  0  0  0  0  0  0  0  0
   29.0171  -20.1629  -11.7171 C   0  0  2  0  0  0  0  0  0  0  0  0
   30.1107  -20.8495  -10.9152 C   0  0  0  0  0  0  0  0  0  0  0  0
   27.6836  -20.7483  -11.3057 C   0  0  2  0  0  0  0  0  0  0  0  0
   27.8346  -22.1825  -11.2758 N   0  0  0  0  0  0  0  0  0  0  0  0
   26.5929  -20.3689  -12.2357 C   0  0  0  0  0  0  0  0  0  0  0  0
   26.1643  -19.1926  -12.2895 O   0  0  0  0  0  0  0  0  0  0  0  0
   26.0081  -21.3357  -13.0893 N   0  0  0  0  0  0  0  0  0  0  0  0
   24.9598  -21.0404  -14.0440 C   0  0  1  0  0  0  0  0  0  0  0  0
   25.3590  -21.5275  -15.4124 C   0  0  0  0  0  0  0  0  0  0  0  0
   25.8326  -20.4146  -16.3100 C   0  0  0  0  0  0  0  0  0  0  0  0
   24.7100  -20.0458  -17.2113 C   0  0  0  0  0  0  0  0  0  0  0  0
   24.4510  -18.8276  -17.4262 O   0  0  0  0  0  0  0  0  0  0  0  0
   23.6761  -21.5648  -13.5806 C   0  0  0  0  0  0  0  0  0  0  0  0
   23.6006  -22.7063  -13.0796 O   0  0  0  0  0  0  0  0  0  0  0  0
   23.9173  -20.9957  -17.8403 O   0  0  0  0  0  0  0  0  0  0  0  0
   19.4379  -20.3077   -9.8540 C   0  0  0  0  0  0  0  0  0  0  0  0
   19.7088  -20.8956  -11.2206 C   0  0  0  0  0  0  0  0  0  0  0  0
   21.0648  -20.4790  -11.7471 C   0  0  2  0  0  0  0  0  0  0  0  0
   21.1639  -18.9928  -11.9468 C   0  0  0  0  0  0  0  0  0  0  0  0
   21.2373  -21.1501  -13.0995 C   0  0  2  0  0  0  0  0  0  0  0  0
   22.5074  -20.7786  -13.6977 N   0  0  0  0  0  0  0  0  0  0  0  0
   20.0985  -20.8177  -13.9851 C   0  0  0  0  0  0  0  0  0  0  0  0
   18.8729  -21.4468  -13.9183 O   0  0  0  0  0  0  0  0  0  0  0  0
   20.2581  -19.9172  -14.8400 O   0  0  0  0  0  0  0  0  0  0  0  0
  2  1  1  6
  2  3  1  0
  4  5  1  6
  4  2  1  0
  6  4  1  0
  7  6  2  0
  8  6  1  0
  9 14  1  0
  9  8  1  0
  9 10  1  6
 11 10  1  0
 12 11  1  0
 13 12  2  0
 14 15  2  0
 16 12  1  0
 17 18  1  0
 19 18  1  0
 19 20  1  6
 21 19  1  0
 21 22  1  6
 22 14  1  0
 23 21  1  0
 24 23  1  0
 25 23  2  0
M  END
$$$$
