VEI.pdb
     RDKit          3D

 25 24  0  0  1  0  0  0  0  0999 V2000
   17.0794  -13.2228  -15.6454 C   0  0  0  0  0  0  0  0  0  0  0  0
   17.7499  -11.9293  -15.9802 C   0  0  2  0  0  0  0  0  0  0  0  0
   18.5636  -11.4540  -14.7875 C   0  0  0  0  0  0  0  0  0  0  0  0
   16.7787  -10.8338  -16.3633 C   0  0  2  0  0  0  0  0  0  0  0  0
   16.1411  -11.2353  -17.5933 N   0  0  0  0  0  0  0  0  0  0  0  0
   17.4510   -9.5241  -16.5405 C   0  0  0  0  0  0  0  0  0  0  0  0
   18.4205   -9.3918  -17.3234 O   0  0  0  0  0  0  0  0  0  0  0  0
   17.0080   -8.3865  -15.8230 N   0  0  0  0  0  0  0  0  0  0  0  0
   17.6261   -7.0803  -15.9200 C   0  0  1  0  0  0  0  0  0  0  0  0
   16.5662   -6.0102  -15.9343 C   0  0  0  0  0  0  0  0  0  0  0  0
   17.1402   -4.6258  -16.0849 C   0  0  0  0  0  0  0  0  0  0  0  0
   16.0091   -3.6619  -16.1029 C   0  0  0  0  0  0  0  0  0  0  0  0
   15.3322   -3.4679  -15.0535 O   0  0  0  0  0  0  0  0  0  0  0  0
   18.6301   -6.9046  -14.8717 C   0  0  0  0  0  0  0  0  0  0  0  0
   18.3735   -7.2137  -13.6892 O   0  0  0  0  0  0  0  0  0  0  0  0
   15.6549   -2.9509  -17.2410 O   0  0  0  0  0  0  0  0  0  0  0  0
   22.8894   -9.4101  -14.6794 C   0  0  0  0  0  0  0  0  0  0  0  0
   21.7365   -8.4661  -14.4219 C   0  0  0  0  0  0  0  0  0  0  0  0
   22.1673   -7.0195  -14.5275 C   0  0  2  0  0  0  0  0  0  0  0  0
   23.2485   -6.6759  -13.5419 C   0  0  0  0  0  0  0  0  0  0  0  0
   20.9476   -6.1722  -14.2055 C   0  0  2  0  0  0  0  0  0  0  0  0
   19.9032   -6.3811  -15.1926 N   0  0  0  0  0  0  0  0  0  0  0  0
   21.3274   -4.7448  -14.1061 C   0  0  0  0  0  0  0  0  0  0  0  0
   21.9416   -4.1953  -13.0000 O   0  0  0  0  0  0  0  0  0  0  0  0
   21.0771   -3.9976  -15.0789 O   0  0  0  0  0  0  0  0  0  0  0  0
  2  1  1  1
  2  3  1  0
  4  5  1  6
  4  2  1  0
  6  4  1  0
  7  6  2  0
  8  6  1  0
  9 14  1  0
  9  8  1  0
  9 10  1  1
 11 10  1  0
 12 11  1  0
 13 12  2  0
 14 15  2  0
 16 12  1  0
 17 18  1  0
 19 18  1  0
 19 20  1  1
 21 19  1  0
 21 22  1  6
 22 14  1  0
 23 21  1  0
 24 23  1  0
 25 23  2  0
M  END
$$$$
