HTE.pdb
     RDKit          3D

 27 27  0  0  1  0  0  0  0  0999 V2000
   26.6890  -34.1803   -6.1076 N   0  0  0  0  0  0  0  0  0  0  0  0
   25.9213  -34.6129   -4.9349 C   0  0  1  0  0  0  0  0  0  0  0  0
   26.5485  -35.9289   -4.4856 C   0  0  0  0  0  0  0  0  0  0  0  0
   26.1981  -37.0448   -5.3991 C   0  0  0  0  0  0  0  0  0  0  0  0
   26.9130  -37.5605   -6.4588 C   0  0  0  0  0  0  0  0  0  0  0  0
   26.2152  -38.5627   -7.0004 N   0  0  0  0  0  0  0  0  0  0  0  0
   25.0864  -38.6812   -6.3036 C   0  0  0  0  0  0  0  0  0  0  0  0
   25.0682  -37.7589   -5.3250 N   0  0  0  0  0  0  0  0  0  0  0  0
   26.1686  -33.6378   -3.8399 C   0  0  0  0  0  0  0  0  0  0  0  0
   27.2972  -33.1126   -3.7811 O   0  0  0  0  0  0  0  0  0  0  0  0
   22.9713  -31.5516   -1.9944 C   0  0  0  0  0  0  0  0  0  0  0  0
   24.4352  -31.1049   -1.9465 C   0  0  1  0  0  0  0  0  0  0  0  0
   24.6382  -30.1211   -1.0101 O   0  0  0  0  0  0  0  0  0  0  0  0
   25.3695  -32.2555   -1.8732 C   0  0  2  0  0  0  0  0  0  0  0  0
   25.2282  -33.2665   -2.8708 N   0  0  0  0  0  0  0  0  0  0  0  0
   25.3097  -32.8550   -0.5012 C   0  0  0  0  0  0  0  0  0  0  0  0
   24.5338  -33.8308   -0.2909 O   0  0  0  0  0  0  0  0  0  0  0  0
   26.0827  -32.3842    0.5831 N   0  0  0  0  0  0  0  0  0  0  0  0
   25.9855  -32.9408    1.9233 C   0  0  1  0  0  0  0  0  0  0  0  0
   27.2240  -32.7016    2.6988 C   0  0  0  0  0  0  0  0  0  0  0  0
   27.3048  -33.3183    4.0469 C   0  0  0  0  0  0  0  0  0  0  0  0
   28.4373  -33.0476    4.8931 C   0  0  0  0  0  0  0  0  0  0  0  0
   28.6430  -33.4627    6.0424 O   0  0  0  0  0  0  0  0  0  0  0  0
   24.7098  -32.6039    2.5191 C   0  0  0  0  0  0  0  0  0  0  0  0
   24.0936  -31.5424    2.1421 O   0  0  0  0  0  0  0  0  0  0  0  0
   29.4650  -32.2077    4.3864 O   0  0  0  0  0  0  0  0  0  0  0  0
   24.1213  -33.3994    3.4980 O   0  0  0  0  0  0  0  0  0  0  0  0
  2  9  1  0
  2  1  1  6
  3  2  1  0
  4  8  1  0
  4  3  1  0
  5  4  2  0
  6  5  1  0
  6  7  1  0
  7  8  2  0
  9 10  2  0
 12 11  1  1
 13 12  1  0
 14 12  1  0
 15  9  1  0
 14 15  1  6
 16 17  2  0
 16 14  1  0
 18 16  1  0
 19 18  1  0
 19 20  1  1
 21 20  1  0
 22 21  1  0
 22 23  2  0
 24 19  1  0
 24 27  1  0
 25 24  2  0
 26 22  1  0
M  END
$$$$
