HTE.pdb
     RDKit          3D

 27 27  0  0  1  0  0  0  0  0999 V2000
   24.2991  -13.3099  -17.4663 N   0  0  0  0  0  0  0  0  0  0  0  0
   24.5849  -12.2915  -16.4499 C   0  0  1  0  0  0  0  0  0  0  0  0
   25.9827  -11.7673  -16.7637 C   0  0  0  0  0  0  0  0  0  0  0  0
   27.0229  -12.7986  -16.5251 C   0  0  0  0  0  0  0  0  0  0  0  0
   26.8858  -14.0734  -16.0191 C   0  0  0  0  0  0  0  0  0  0  0  0
   28.0898  -14.6508  -15.9779 N   0  0  0  0  0  0  0  0  0  0  0  0
   28.9693  -13.7666  -16.4454 C   0  0  0  0  0  0  0  0  0  0  0  0
   28.3265  -12.6341  -16.7813 N   0  0  0  0  0  0  0  0  0  0  0  0
   23.6539  -11.1528  -16.6675 C   0  0  0  0  0  0  0  0  0  0  0  0
   23.2848  -10.9264  -17.8360 O   0  0  0  0  0  0  0  0  0  0  0  0
   20.1783  -10.8499  -16.0788 C   0  0  0  0  0  0  0  0  0  0  0  0
   20.7896   -9.6926  -15.2840 C   0  0  1  0  0  0  0  0  0  0  0  0
   20.6926   -9.8963  -13.9294 O   0  0  0  0  0  0  0  0  0  0  0  0
   22.1405   -9.3268  -15.7772 C   0  0  2  0  0  0  0  0  0  0  0  0
   23.1617  -10.3168  -15.6574 N   0  0  0  0  0  0  0  0  0  0  0  0
   22.5711   -8.0433  -15.1347 C   0  0  0  0  0  0  0  0  0  0  0  0
   23.3931   -8.0827  -14.1749 O   0  0  0  0  0  0  0  0  0  0  0  0
   22.1035   -6.7763  -15.5482 N   0  0  0  0  0  0  0  0  0  0  0  0
   22.5584   -5.5319  -14.9484 C   0  0  1  0  0  0  0  0  0  0  0  0
   22.3759   -4.3887  -15.8716 C   0  0  0  0  0  0  0  0  0  0  0  0
   21.0200   -3.7879  -15.9408 C   0  0  0  0  0  0  0  0  0  0  0  0
   20.7861   -2.6387  -16.7753 C   0  0  0  0  0  0  0  0  0  0  0  0
   21.6071   -2.0281  -17.4744 O   0  0  0  0  0  0  0  0  0  0  0  0
   22.0730   -5.4189  -13.5891 C   0  0  0  0  0  0  0  0  0  0  0  0
   22.6905   -4.6626  -12.7554 O   0  0  0  0  0  0  0  0  0  0  0  0
   19.4684   -2.1105  -16.8320 O   0  0  0  0  0  0  0  0  0  0  0  0
   20.9477   -6.1099  -13.1493 O   0  0  0  0  0  0  0  0  0  0  0  0
  2  9  1  0
  2  1  1  6
  3  2  1  0
  4  8  1  0
  4  3  1  0
  5  4  2  0
  6  5  1  0
  6  7  1  0
  7  8  2  0
  9 10  2  0
 12 11  1  6
 13 12  1  0
 14 12  1  0
 15  9  1  0
 14 15  1  1
 16 17  2  0
 16 14  1  0
 18 16  1  0
 19 18  1  0
 19 20  1  6
 21 20  1  0
 22 21  1  0
 22 23  2  0
 24 19  1  0
 24 27  1  0
 25 24  2  0
 26 22  1  0
M  END
$$$$
