HTE.pdb
     RDKit          3D

 27 27  0  0  1  0  0  0  0  0999 V2000
   19.2586  -13.4279  -16.6882 N   0  0  0  0  0  0  0  0  0  0  0  0
   19.6043  -12.1197  -17.2548 C   0  0  1  0  0  0  0  0  0  0  0  0
   18.2775  -11.4315  -17.5601 C   0  0  0  0  0  0  0  0  0  0  0  0
   17.5705  -12.0788  -18.6930 C   0  0  0  0  0  0  0  0  0  0  0  0
   17.8072  -11.9662  -20.0463 C   0  0  0  0  0  0  0  0  0  0  0  0
   16.9262  -12.7276  -20.7010 N   0  0  0  0  0  0  0  0  0  0  0  0
   16.1498  -13.3091  -19.7884 C   0  0  0  0  0  0  0  0  0  0  0  0
   16.5363  -12.9185  -18.5609 N   0  0  0  0  0  0  0  0  0  0  0  0
   20.2553  -11.3154  -16.1870 C   0  0  0  0  0  0  0  0  0  0  0  0
   19.7788  -11.3910  -15.0381 O   0  0  0  0  0  0  0  0  0  0  0  0
   23.7640  -11.4131  -14.7070 C   0  0  0  0  0  0  0  0  0  0  0  0
   23.4998   -9.9924  -15.2137 C   0  0  1  0  0  0  0  0  0  0  0  0
   24.2889   -9.6806  -16.2935 O   0  0  0  0  0  0  0  0  0  0  0  0
   22.0513   -9.7193  -15.3843 C   0  0  2  0  0  0  0  0  0  0  0  0
   21.3632  -10.4800  -16.3769 N   0  0  0  0  0  0  0  0  0  0  0  0
   21.8473   -8.2517  -15.6080 C   0  0  0  0  0  0  0  0  0  0  0  0
   21.6999   -7.8253  -16.7891 O   0  0  0  0  0  0  0  0  0  0  0  0
   21.8099   -7.3071  -14.5586 N   0  0  0  0  0  0  0  0  0  0  0  0
   21.5397   -5.8946  -14.7762 C   0  0  1  0  0  0  0  0  0  0  0  0
   20.0889   -5.6386  -14.9250 C   0  0  0  0  0  0  0  0  0  0  0  0
   19.6641   -4.2218  -15.0525 C   0  0  0  0  0  0  0  0  0  0  0  0
   18.2637   -3.8960  -15.1214 C   0  0  0  0  0  0  0  0  0  0  0  0
   17.3012   -4.6766  -15.1146 O   0  0  0  0  0  0  0  0  0  0  0  0
   22.3023   -5.0856  -13.8488 C   0  0  0  0  0  0  0  0  0  0  0  0
   22.7426   -5.6097  -12.7626 O   0  0  0  0  0  0  0  0  0  0  0  0
   17.8995   -2.5256  -15.2086 O   0  0  0  0  0  0  0  0  0  0  0  0
   22.5778   -3.7439  -14.0964 O   0  0  0  0  0  0  0  0  0  0  0  0
  2  9  1  0
  2  1  1  1
  3  2  1  0
  4  8  1  0
  4  3  1  0
  5  4  2  0
  6  5  1  0
  6  7  1  0
  7  8  2  0
  9 10  2  0
 12 11  1  6
 13 12  1  0
 14 12  1  0
 15  9  1  0
 14 15  1  6
 16 17  2  0
 16 14  1  0
 18 16  1  0
 19 18  1  0
 19 20  1  1
 21 20  1  0
 22 21  1  0
 22 23  2  0
 24 19  1  0
 24 27  1  0
 25 24  2  0
 26 22  1  0
M  END
$$$$
