HTE.pdb
     RDKit          3D

 27 27  0  0  1  0  0  0  0  0999 V2000
   25.3005  -19.7600  -18.1772 N   0  0  0  0  0  0  0  0  0  0  0  0
   23.9546  -19.4665  -18.6814 C   0  0  1  0  0  0  0  0  0  0  0  0
   23.4094  -20.7878  -19.2142 C   0  0  0  0  0  0  0  0  0  0  0  0
   24.1329  -21.2297  -20.4322 C   0  0  0  0  0  0  0  0  0  0  0  0
   23.6263  -21.6137  -21.6554 C   0  0  0  0  0  0  0  0  0  0  0  0
   24.6436  -21.9318  -22.4607 N   0  0  0  0  0  0  0  0  0  0  0  0
   25.7673  -21.7549  -21.7682 C   0  0  0  0  0  0  0  0  0  0  0  0
   25.4646  -21.3267  -20.5298 N   0  0  0  0  0  0  0  0  0  0  0  0
   23.1001  -19.1004  -17.5209 C   0  0  0  0  0  0  0  0  0  0  0  0
   23.3326  -19.6646  -16.4344 O   0  0  0  0  0  0  0  0  0  0  0  0
   22.8677  -16.0834  -15.4453 C   0  0  0  0  0  0  0  0  0  0  0  0
   21.4682  -16.3106  -16.0235 C   0  0  1  0  0  0  0  0  0  0  0  0
   21.1362  -15.3513  -16.9485 O   0  0  0  0  0  0  0  0  0  0  0  0
   21.2641  -17.7138  -16.4609 C   0  0  2  0  0  0  0  0  0  0  0  0
   22.0545  -18.1694  -17.5586 N   0  0  0  0  0  0  0  0  0  0  0  0
   19.8074  -17.9420  -16.7283 C   0  0  0  0  0  0  0  0  0  0  0  0
   19.3708  -17.8057  -17.9070 O   0  0  0  0  0  0  0  0  0  0  0  0
   18.8842  -18.3059  -15.7232 N   0  0  0  0  0  0  0  0  0  0  0  0
   17.4714  -18.5252  -15.9900 C   0  0  1  0  0  0  0  0  0  0  0  0
   16.8387  -19.3323  -14.9219 C   0  0  0  0  0  0  0  0  0  0  0  0
   15.3690  -19.5257  -15.0041 C   0  0  0  0  0  0  0  0  0  0  0  0
   14.7038  -20.3813  -14.0569 C   0  0  0  0  0  0  0  0  0  0  0  0
   13.8496  -20.0646  -13.2168 O   0  0  0  0  0  0  0  0  0  0  0  0
   16.8377  -17.2910  -16.4039 C   0  0  0  0  0  0  0  0  0  0  0  0
   15.8577  -17.3275  -17.2325 O   0  0  0  0  0  0  0  0  0  0  0  0
   15.0388  -21.7619  -14.0525 O   0  0  0  0  0  0  0  0  0  0  0  0
   17.2589  -16.0521  -15.9297 O   0  0  0  0  0  0  0  0  0  0  0  0
  2  9  1  0
  2  1  1  1
  3  2  1  0
  4  8  1  0
  4  3  1  0
  5  4  2  0
  6  5  1  0
  6  7  1  0
  7  8  2  0
  9 10  2  0
 12 11  1  6
 13 12  1  0
 14 12  1  0
 15  9  1  0
 14 15  1  6
 16 17  2  0
 16 14  1  0
 18 16  1  0
 19 18  1  0
 19 20  1  1
 21 20  1  0
 22 21  1  0
 22 23  2  0
 24 19  1  0
 24 27  1  0
 25 24  2  0
 26 22  1  0
M  END
$$$$
