HTE.pdb
     RDKit          3D

 27 27  0  0  1  0  0  0  0  0999 V2000
   24.1995  -33.9166   -8.3263 N   0  0  0  0  0  0  0  0  0  0  0  0
   24.8298  -33.1343   -7.2574 C   0  0  1  0  0  0  0  0  0  0  0  0
   23.7329  -32.2374   -6.6921 C   0  0  0  0  0  0  0  0  0  0  0  0
   23.3847  -31.1390   -7.6272 C   0  0  0  0  0  0  0  0  0  0  0  0
   22.4937  -31.1399   -8.6791 C   0  0  0  0  0  0  0  0  0  0  0  0
   22.4999  -29.9311   -9.2480 N   0  0  0  0  0  0  0  0  0  0  0  0
   23.3716  -29.1815   -8.5758 C   0  0  0  0  0  0  0  0  0  0  0  0
   23.9157  -29.9108   -7.5856 N   0  0  0  0  0  0  0  0  0  0  0  0
   25.2071  -34.0705   -6.1656 C   0  0  0  0  0  0  0  0  0  0  0  0
   24.4425  -35.0280   -5.9387 O   0  0  0  0  0  0  0  0  0  0  0  0
   29.2768  -34.2273   -5.0287 C   0  0  0  0  0  0  0  0  0  0  0  0
   28.3091  -35.4045   -4.8787 C   0  0  1  0  0  0  0  0  0  0  0  0
   28.8246  -36.3894   -4.0723 O   0  0  0  0  0  0  0  0  0  0  0  0
   26.9345  -34.9597   -4.5400 C   0  0  2  0  0  0  0  0  0  0  0  0
   26.3568  -33.9558   -5.3742 N   0  0  0  0  0  0  0  0  0  0  0  0
   26.8899  -34.5414   -3.1018 C   0  0  0  0  0  0  0  0  0  0  0  0
   27.1831  -33.3492   -2.7997 O   0  0  0  0  0  0  0  0  0  0  0  0
   26.5333  -35.4169   -2.0524 N   0  0  0  0  0  0  0  0  0  0  0  0
   26.4722  -34.9985   -0.6607 C   0  0  1  0  0  0  0  0  0  0  0  0
   25.3796  -35.6874    0.0632 C   0  0  0  0  0  0  0  0  0  0  0  0
   25.2177  -35.3660    1.5036 C   0  0  0  0  0  0  0  0  0  0  0  0
   24.1860  -36.0123    2.2714 C   0  0  0  0  0  0  0  0  0  0  0  0
   23.3615  -36.8510    1.8811 O   0  0  0  0  0  0  0  0  0  0  0  0
   27.7978  -34.9837   -0.0788 C   0  0  0  0  0  0  0  0  0  0  0  0
   28.0659  -34.1602    0.8690 O   0  0  0  0  0  0  0  0  0  0  0  0
   24.0653  -35.6754    3.6463 O   0  0  0  0  0  0  0  0  0  0  0  0
   28.8035  -35.8408   -0.5162 O   0  0  0  0  0  0  0  0  0  0  0  0
  2  9  1  0
  2  1  1  6
  3  2  1  0
  4  8  1  0
  4  3  1  0
  5  4  2  0
  6  5  1  0
  6  7  1  0
  7  8  2  0
  9 10  2  0
 12 11  1  1
 13 12  1  0
 14 12  1  0
 15  9  1  0
 14 15  1  6
 16 17  2  0
 16 14  1  0
 18 16  1  0
 19 18  1  0
 19 20  1  1
 21 20  1  0
 22 21  1  0
 22 23  2  0
 24 19  1  0
 24 27  1  0
 25 24  2  0
 26 22  1  0
M  END
$$$$
