HTE.pdb
     RDKit          3D

 27 27  0  0  1  0  0  0  0  0999 V2000
   23.3472  -10.9794  -16.2727 N   0  0  0  0  0  0  0  0  0  0  0  0
   23.2788   -9.6061  -15.7615 C   0  0  1  0  0  0  0  0  0  0  0  0
   24.2234   -8.7864  -16.6350 C   0  0  0  0  0  0  0  0  0  0  0  0
   25.6357   -9.2091  -16.4642 C   0  0  0  0  0  0  0  0  0  0  0  0
   26.5381   -9.6367  -17.4144 C   0  0  0  0  0  0  0  0  0  0  0  0
   27.6973   -9.9146  -16.8113 N   0  0  0  0  0  0  0  0  0  0  0  0
   27.5364   -9.6702  -15.5121 C   0  0  0  0  0  0  0  0  0  0  0  0
   26.2816   -9.2395  -15.2920 N   0  0  0  0  0  0  0  0  0  0  0  0
   21.9108   -9.0865  -16.0251 C   0  0  0  0  0  0  0  0  0  0  0  0
   21.3325   -9.4845  -17.0547 O   0  0  0  0  0  0  0  0  0  0  0  0
   18.7938  -10.0369  -15.0679 C   0  0  0  0  0  0  0  0  0  0  0  0
   18.8632   -8.5933  -14.5619 C   0  0  1  0  0  0  0  0  0  0  0  0
   18.9667   -8.5365  -13.1937 O   0  0  0  0  0  0  0  0  0  0  0  0
   19.8585   -7.7854  -15.3093 C   0  0  2  0  0  0  0  0  0  0  0  0
   21.2249   -8.1840  -15.2027 N   0  0  0  0  0  0  0  0  0  0  0  0
   19.6994   -6.3412  -14.9426 C   0  0  0  0  0  0  0  0  0  0  0  0
   20.7136   -5.6889  -14.5624 O   0  0  0  0  0  0  0  0  0  0  0  0
   18.4632   -5.6603  -14.9997 N   0  0  0  0  0  0  0  0  0  0  0  0
   18.3615   -4.2103  -15.0493 C   0  0  1  0  0  0  0  0  0  0  0  0
   19.3318   -3.6330  -16.0073 C   0  0  0  0  0  0  0  0  0  0  0  0
   19.2884   -2.1625  -16.2071 C   0  0  0  0  0  0  0  0  0  0  0  0
   20.2073   -1.5349  -17.1201 C   0  0  0  0  0  0  0  0  0  0  0  0
   20.1475   -1.5059  -18.3575 O   0  0  0  0  0  0  0  0  0  0  0  0
   16.9742   -3.8034  -15.1266 C   0  0  0  0  0  0  0  0  0  0  0  0
   16.1190   -4.5697  -15.7009 O   0  0  0  0  0  0  0  0  0  0  0  0
   21.3313   -0.8567  -16.5769 O   0  0  0  0  0  0  0  0  0  0  0  0
   16.5301   -2.5965  -14.5944 O   0  0  0  0  0  0  0  0  0  0  0  0
  2  9  1  0
  2  1  1  6
  3  2  1  0
  4  8  1  0
  4  3  1  0
  5  4  2  0
  6  5  1  0
  6  7  1  0
  7  8  2  0
  9 10  2  0
 12 11  1  6
 13 12  1  0
 14 12  1  0
 15  9  1  0
 14 15  1  1
 16 17  2  0
 16 14  1  0
 18 16  1  0
 19 18  1  0
 19 20  1  6
 21 20  1  0
 22 21  1  0
 22 23  2  0
 24 19  1  0
 24 27  1  0
 25 24  2  0
 26 22  1  0
M  END
$$$$
