HTE.pdb
     RDKit          3D

 27 27  0  0  1  0  0  0  0  0999 V2000
   35.1470  -32.9551  -13.8176 N   0  0  0  0  0  0  0  0  0  0  0  0
   35.6921  -32.9670  -15.1795 C   0  0  1  0  0  0  0  0  0  0  0  0
   34.5835  -33.5201  -16.0696 C   0  0  0  0  0  0  0  0  0  0  0  0
   34.4221  -34.9856  -15.8998 C   0  0  0  0  0  0  0  0  0  0  0  0
   35.1749  -36.0120  -16.4287 C   0  0  0  0  0  0  0  0  0  0  0  0
   34.6685  -37.1754  -16.0107 N   0  0  0  0  0  0  0  0  0  0  0  0
   33.6214  -36.8962  -15.2365 C   0  0  0  0  0  0  0  0  0  0  0  0
   33.4643  -35.5626  -15.1637 N   0  0  0  0  0  0  0  0  0  0  0  0
   35.9014  -31.5568  -15.6018 C   0  0  0  0  0  0  0  0  0  0  0  0
   35.1326  -30.6955  -15.1327 O   0  0  0  0  0  0  0  0  0  0  0  0
   38.6185  -27.7198  -16.5109 C   0  0  0  0  0  0  0  0  0  0  0  0
   38.4243  -29.1974  -16.1591 C   0  0  1  0  0  0  0  0  0  0  0  0
   38.5112  -29.4157  -14.8060 O   0  0  0  0  0  0  0  0  0  0  0  0
   37.2305  -29.7785  -16.8218 C   0  0  2  0  0  0  0  0  0  0  0  0
   36.8975  -31.1254  -16.4867 N   0  0  0  0  0  0  0  0  0  0  0  0
   37.3624  -29.6206  -18.3061 C   0  0  0  0  0  0  0  0  0  0  0  0
   37.3484  -30.6522  -19.0369 O   0  0  0  0  0  0  0  0  0  0  0  0
   37.5028  -28.3669  -18.9412 N   0  0  0  0  0  0  0  0  0  0  0  0
   37.5862  -28.2178  -20.3855 C   0  0  1  0  0  0  0  0  0  0  0  0
   36.5465  -29.0177  -21.0722 C   0  0  0  0  0  0  0  0  0  0  0  0
   36.4656  -28.8922  -22.5494 C   0  0  0  0  0  0  0  0  0  0  0  0
   35.3561  -29.4727  -23.2591 C   0  0  0  0  0  0  0  0  0  0  0  0
   34.3947  -30.0957  -22.7867 O   0  0  0  0  0  0  0  0  0  0  0  0
   37.7461  -26.8235  -20.7412 C   0  0  0  0  0  0  0  0  0  0  0  0
   37.5540  -25.9159  -19.8536 O   0  0  0  0  0  0  0  0  0  0  0  0
   35.3219  -29.3370  -24.6729 O   0  0  0  0  0  0  0  0  0  0  0  0
   38.1043  -26.4280  -22.0267 O   0  0  0  0  0  0  0  0  0  0  0  0
  2  9  1  0
  2  1  1  1
  3  2  1  0
  4  8  1  0
  4  3  1  0
  5  4  2  0
  6  5  1  0
  6  7  1  0
  7  8  2  0
  9 10  2  0
 12 11  1  1
 13 12  1  0
 14 12  1  0
 15  9  1  0
 14 15  1  6
 16 17  2  0
 16 14  1  0
 18 16  1  0
 19 18  1  0
 19 20  1  6
 21 20  1  0
 22 21  1  0
 22 23  2  0
 24 19  1  0
 24 27  1  0
 25 24  2  0
 26 22  1  0
M  END
$$$$
