HTE.pdb
     RDKit          3D

 27 27  0  0  1  0  0  0  0  0999 V2000
   24.9991  -11.9968  -17.7940 N   0  0  0  0  0  0  0  0  0  0  0  0
   24.8170  -11.1264  -16.6274 C   0  0  1  0  0  0  0  0  0  0  0  0
   25.9114  -10.0676  -16.7197 C   0  0  0  0  0  0  0  0  0  0  0  0
   27.2646  -10.6634  -16.5913 C   0  0  0  0  0  0  0  0  0  0  0  0
   27.6205  -11.9718  -16.3435 C   0  0  0  0  0  0  0  0  0  0  0  0
   28.9534  -12.0553  -16.3108 N   0  0  0  0  0  0  0  0  0  0  0  0
   29.4325  -10.8324  -16.5319 C   0  0  0  0  0  0  0  0  0  0  0  0
   28.4087   -9.9775  -16.7040 N   0  0  0  0  0  0  0  0  0  0  0  0
   23.5259  -10.4068  -16.7894 C   0  0  0  0  0  0  0  0  0  0  0  0
   23.1771  -10.1042  -17.9468 O   0  0  0  0  0  0  0  0  0  0  0  0
   20.0740  -11.4846  -16.5039 C   0  0  0  0  0  0  0  0  0  0  0  0
   20.2182  -10.3214  -15.5185 C   0  0  1  0  0  0  0  0  0  0  0  0
   20.1453  -10.7453  -14.2143 O   0  0  0  0  0  0  0  0  0  0  0  0
   21.3783   -9.4544  -15.8417 C   0  0  2  0  0  0  0  0  0  0  0  0
   22.6739  -10.0444  -15.7386 N   0  0  0  0  0  0  0  0  0  0  0  0
   21.3022   -8.2007  -15.0245 C   0  0  0  0  0  0  0  0  0  0  0  0
   22.3018   -7.8590  -14.3299 O   0  0  0  0  0  0  0  0  0  0  0  0
   20.1609   -7.3695  -14.9877 N   0  0  0  0  0  0  0  0  0  0  0  0
   20.1506   -6.0701  -14.3343 C   0  0  1  0  0  0  0  0  0  0  0  0
   21.2386   -5.2023  -14.8400 C   0  0  0  0  0  0  0  0  0  0  0  0
   21.2991   -3.8177  -14.3075 C   0  0  0  0  0  0  0  0  0  0  0  0
   22.3192   -2.9145  -14.7716 C   0  0  0  0  0  0  0  0  0  0  0  0
   23.4719   -3.1915  -15.1324 O   0  0  0  0  0  0  0  0  0  0  0  0
   18.8032   -5.5433  -14.2782 C   0  0  0  0  0  0  0  0  0  0  0  0
   17.9588   -5.8612  -15.1918 O   0  0  0  0  0  0  0  0  0  0  0  0
   22.0065   -1.5302  -14.8388 O   0  0  0  0  0  0  0  0  0  0  0  0
   18.3864   -4.6944  -13.2570 O   0  0  0  0  0  0  0  0  0  0  0  0
  2  9  1  0
  2  1  1  6
  3  2  1  0
  4  8  1  0
  4  3  1  0
  5  4  2  0
  6  5  1  0
  6  7  1  0
  7  8  2  0
  9 10  2  0
 12 11  1  6
 13 12  1  0
 14 12  1  0
 15  9  1  0
 14 15  1  1
 16 17  2  0
 16 14  1  0
 18 16  1  0
 19 18  1  0
 19 20  1  6
 21 20  1  0
 22 21  1  0
 22 23  2  0
 24 19  1  0
 24 27  1  0
 25 24  2  0
 26 22  1  0
M  END
$$$$
