HTE.pdb
     RDKit          3D

 27 27  0  0  1  0  0  0  0  0999 V2000
   18.8025  -13.8148  -17.5775 N   0  0  0  0  0  0  0  0  0  0  0  0
   18.2357  -12.5079  -17.2272 C   0  0  1  0  0  0  0  0  0  0  0  0
   18.2919  -12.4213  -15.7052 C   0  0  0  0  0  0  0  0  0  0  0  0
   17.2100  -13.2135  -15.0694 C   0  0  0  0  0  0  0  0  0  0  0  0
   16.2255  -13.9758  -15.6609 C   0  0  0  0  0  0  0  0  0  0  0  0
   15.4657  -14.5142  -14.7030 N   0  0  0  0  0  0  0  0  0  0  0  0
   15.9540  -14.1052  -13.5334 C   0  0  0  0  0  0  0  0  0  0  0  0
   17.0181  -13.3114  -13.7481 N   0  0  0  0  0  0  0  0  0  0  0  0
   19.1553  -11.4575  -17.7389 C   0  0  0  0  0  0  0  0  0  0  0  0
   20.3754  -11.7109  -17.7388 O   0  0  0  0  0  0  0  0  0  0  0  0
   19.3915   -9.9836  -21.1974 C   0  0  0  0  0  0  0  0  0  0  0  0
   19.2400   -8.8168  -20.2175 C   0  0  1  0  0  0  0  0  0  0  0  0
   18.0388   -8.1702  -20.3756 O   0  0  0  0  0  0  0  0  0  0  0  0
   19.5737   -9.2077  -18.8255 C   0  0  2  0  0  0  0  0  0  0  0  0
   18.7520  -10.2057  -18.2204 N   0  0  0  0  0  0  0  0  0  0  0  0
   19.6327   -7.9806  -17.9675 C   0  0  0  0  0  0  0  0  0  0  0  0
   18.9323   -7.9324  -16.9160 O   0  0  0  0  0  0  0  0  0  0  0  0
   20.4384   -6.8613  -18.2726 N   0  0  0  0  0  0  0  0  0  0  0  0
   20.6830   -5.7828  -17.3280 C   0  0  1  0  0  0  0  0  0  0  0  0
   21.0911   -6.3060  -16.0043 C   0  0  0  0  0  0  0  0  0  0  0  0
   21.4665   -5.3077  -14.9715 C   0  0  0  0  0  0  0  0  0  0  0  0
   21.9555   -5.7487  -13.6915 C   0  0  0  0  0  0  0  0  0  0  0  0
   23.0733   -5.5485  -13.1955 O   0  0  0  0  0  0  0  0  0  0  0  0
   21.4772   -4.7412  -17.9448 C   0  0  0  0  0  0  0  0  0  0  0  0
   22.1634   -5.0054  -18.9974 O   0  0  0  0  0  0  0  0  0  0  0  0
   21.0819   -6.5077  -12.8674 O   0  0  0  0  0  0  0  0  0  0  0  0
   21.5237   -3.4487  -17.4306 O   0  0  0  0  0  0  0  0  0  0  0  0
  2  9  1  0
  2  1  1  1
  3  2  1  0
  4  8  1  0
  4  3  1  0
  5  4  2  0
  6  5  1  0
  6  7  1  0
  7  8  2  0
  9 10  2  0
 12 11  1  6
 13 12  1  0
 14 12  1  0
 15  9  1  0
 14 15  1  1
 16 17  2  0
 16 14  1  0
 18 16  1  0
 19 18  1  0
 19 20  1  1
 21 20  1  0
 22 21  1  0
 22 23  2  0
 24 19  1  0
 24 27  1  0
 25 24  2  0
 26 22  1  0
M  END
$$$$
