HTE.pdb
     RDKit          3D

 27 27  0  0  1  0  0  0  0  0999 V2000
   18.2847  -12.8163  -17.1166 N   0  0  0  0  0  0  0  0  0  0  0  0
   19.5005  -12.0223  -16.9082 C   0  0  1  0  0  0  0  0  0  0  0  0
   20.2113  -11.9825  -18.2574 C   0  0  0  0  0  0  0  0  0  0  0  0
   20.7521  -13.3125  -18.6331 C   0  0  0  0  0  0  0  0  0  0  0  0
   20.1619  -14.3163  -19.3708 C   0  0  0  0  0  0  0  0  0  0  0  0
   21.0148  -15.3404  -19.4618 N   0  0  0  0  0  0  0  0  0  0  0  0
   22.1180  -14.9972  -18.7995 C   0  0  0  0  0  0  0  0  0  0  0  0
   21.9659  -13.7616  -18.2909 N   0  0  0  0  0  0  0  0  0  0  0  0
   19.0897  -10.6243  -16.6119 C   0  0  0  0  0  0  0  0  0  0  0  0
   18.1305  -10.1576  -17.2561 O   0  0  0  0  0  0  0  0  0  0  0  0
   17.0557   -9.2174  -14.1717 C   0  0  0  0  0  0  0  0  0  0  0  0
   18.4097   -8.5343  -13.9601 C   0  0  1  0  0  0  0  0  0  0  0  0
   19.0426   -8.9944  -12.8315 O   0  0  0  0  0  0  0  0  0  0  0  0
   19.2334   -8.5297  -15.1943 C   0  0  2  0  0  0  0  0  0  0  0  0
   19.7005   -9.7942  -15.6636 N   0  0  0  0  0  0  0  0  0  0  0  0
   20.3755   -7.5749  -15.0236 C   0  0  0  0  0  0  0  0  0  0  0  0
   21.5228   -8.0321  -14.7528 O   0  0  0  0  0  0  0  0  0  0  0  0
   20.2389   -6.1748  -15.1507 N   0  0  0  0  0  0  0  0  0  0  0  0
   21.3620   -5.2578  -15.0362 C   0  0  1  0  0  0  0  0  0  0  0  0
   21.1161   -4.0059  -15.7878 C   0  0  0  0  0  0  0  0  0  0  0  0
   22.1615   -2.9547  -15.7069 C   0  0  0  0  0  0  0  0  0  0  0  0
   21.9533   -1.6847  -16.3514 C   0  0  0  0  0  0  0  0  0  0  0  0
   22.1367   -0.5540  -15.8786 O   0  0  0  0  0  0  0  0  0  0  0  0
   21.8074   -5.1733  -13.6612 C   0  0  0  0  0  0  0  0  0  0  0  0
   20.9525   -5.2809  -12.7094 O   0  0  0  0  0  0  0  0  0  0  0  0
   21.4812   -1.6842  -17.6914 O   0  0  0  0  0  0  0  0  0  0  0  0
   23.1452   -4.9769  -13.3314 O   0  0  0  0  0  0  0  0  0  0  0  0
  2  9  1  0
  2  1  1  6
  3  2  1  0
  4  8  1  0
  4  3  1  0
  5  4  2  0
  6  5  1  0
  6  7  1  0
  7  8  2  0
  9 10  2  0
 12 11  1  6
 13 12  1  0
 14 12  1  0
 15  9  1  0
 14 15  1  1
 16 17  2  0
 16 14  1  0
 18 16  1  0
 19 18  1  0
 19 20  1  1
 21 20  1  0
 22 21  1  0
 22 23  2  0
 24 19  1  0
 24 27  1  0
 25 24  2  0
 26 22  1  0
M  END
$$$$
