GLA.pdb
     RDKit          3D

 18 17  0  0  1  0  0  0  0  0999 V2000
   29.9665  -38.7440   -8.4259 N   0  0  0  0  0  0  0  0  0  0  0  0
   29.3702  -37.6100   -7.7637 C   0  0  0  0  0  0  0  0  0  0  0  0
   30.2796  -37.1242   -6.7223 C   0  0  0  0  0  0  0  0  0  0  0  0
   31.2486  -37.8216   -6.3724 O   0  0  0  0  0  0  0  0  0  0  0  0
   33.9081  -34.4463   -5.4860 C   0  0  0  0  0  0  0  0  0  0  0  0
   32.6545  -33.9140   -6.2055 C   0  0  2  0  0  0  0  0  0  0  0  0
   32.9441  -32.4987   -6.5796 C   0  0  0  0  0  0  0  0  0  0  0  0
   31.5347  -34.0755   -5.2379 C   0  0  0  0  0  0  0  0  0  0  0  0
   31.0451  -35.4643   -5.0220 C   0  0  2  0  0  0  0  0  0  0  0  0
   30.1300  -35.8736   -6.0617 N   0  0  0  0  0  0  0  0  0  0  0  0
   30.4236  -35.6396   -3.6719 C   0  0  0  0  0  0  0  0  0  0  0  0
   29.2906  -35.1800   -3.3899 O   0  0  0  0  0  0  0  0  0  0  0  0
   31.2078  -37.5814   -0.5691 C   0  0  0  0  0  0  0  0  0  0  0  0
   30.5296  -36.4521   -1.3470 C   0  0  2  0  0  0  0  0  0  0  0  0
   31.1148  -36.3416   -2.6648 N   0  0  0  0  0  0  0  0  0  0  0  0
   30.6437  -35.1947   -0.5805 C   0  0  0  0  0  0  0  0  0  0  0  0
   30.1012  -35.0240    0.6807 O   0  0  0  0  0  0  0  0  0  0  0  0
   31.2617  -34.2295   -1.0921 O   0  0  0  0  0  0  0  0  0  0  0  0
  1  2  1  0
  2  3  1  0
  3  4  2  0
  3 10  1  0
  6  5  1  1
  7  6  1  0
  8  6  1  0
  9  8  1  6
 10  9  1  0
 11  9  1  0
 11 15  1  0
 12 11  2  0
 14 13  1  1
 14 15  1  0
 14 16  1  0
 16 17  1  0
 18 16  2  0
M  END
$$$$
