GLA.pdb
     RDKit          3D

 18 17  0  0  1  0  0  0  0  0999 V2000
   16.6279  -11.5262  -13.8278 N   0  0  0  0  0  0  0  0  0  0  0  0
   17.3200  -10.7680  -12.8147 C   0  0  0  0  0  0  0  0  0  0  0  0
   16.4357   -9.7141  -12.3101 C   0  0  0  0  0  0  0  0  0  0  0  0
   15.3810   -9.4492  -12.9145 O   0  0  0  0  0  0  0  0  0  0  0  0
   15.2463   -6.6829   -7.1426 C   0  0  0  0  0  0  0  0  0  0  0  0
   14.8579   -6.7978   -8.6287 C   0  0  2  0  0  0  0  0  0  0  0  0
   13.4142   -7.1737   -8.6662 C   0  0  0  0  0  0  0  0  0  0  0  0
   15.7728   -7.8200   -9.2072 C   0  0  0  0  0  0  0  0  0  0  0  0
   15.7866   -7.9278  -10.6915 C   0  0  2  0  0  0  0  0  0  0  0  0
   16.7042   -8.9477  -11.1424 N   0  0  0  0  0  0  0  0  0  0  0  0
   16.0880   -6.6176  -11.3491 C   0  0  0  0  0  0  0  0  0  0  0  0
   17.2027   -6.0521  -11.2390 O   0  0  0  0  0  0  0  0  0  0  0  0
   14.4599   -4.4922  -13.9476 C   0  0  0  0  0  0  0  0  0  0  0  0
   15.4140   -4.7223  -12.7740 C   0  0  2  0  0  0  0  0  0  0  0  0
   15.1021   -5.9762  -12.1246 N   0  0  0  0  0  0  0  0  0  0  0  0
   15.3286   -3.5779  -11.8442 C   0  0  0  0  0  0  0  0  0  0  0  0
   16.0476   -2.4082  -12.0138 O   0  0  0  0  0  0  0  0  0  0  0  0
   14.5684   -3.6638  -10.8491 O   0  0  0  0  0  0  0  0  0  0  0  0
  1  2  1  0
  2  3  1  0
  3  4  2  0
  3 10  1  0
  6  5  1  1
  7  6  1  0
  8  6  1  0
  9  8  1  1
 10  9  1  0
 11  9  1  0
 11 15  1  0
 12 11  2  0
 14 13  1  6
 14 15  1  0
 14 16  1  0
 16 17  1  0
 18 16  2  0
M  END
$$$$
