GLA.pdb
     RDKit          3D

 18 17  0  0  1  0  0  0  0  0999 V2000
   31.2913  -22.4977  -10.0429 N   0  0  0  0  0  0  0  0  0  0  0  0
   30.7906  -21.1692   -9.7887 C   0  0  0  0  0  0  0  0  0  0  0  0
   29.4827  -21.2618   -9.1343 C   0  0  0  0  0  0  0  0  0  0  0  0
   28.7778  -22.2734   -9.3005 O   0  0  0  0  0  0  0  0  0  0  0  0
   28.0267  -21.2451   -4.8630 C   0  0  0  0  0  0  0  0  0  0  0  0
   28.4283  -19.8621   -5.4095 C   0  0  2  0  0  0  0  0  0  0  0  0
   28.3684  -18.9133   -4.2592 C   0  0  0  0  0  0  0  0  0  0  0  0
   27.4616  -19.5634   -6.5016 C   0  0  0  0  0  0  0  0  0  0  0  0
   27.6113  -20.3592   -7.7503 C   0  0  2  0  0  0  0  0  0  0  0  0
   28.9436  -20.2468   -8.2964 N   0  0  0  0  0  0  0  0  0  0  0  0
   26.5864  -19.9939   -8.7780 C   0  0  0  0  0  0  0  0  0  0  0  0
   26.3935  -18.8085   -9.1416 O   0  0  0  0  0  0  0  0  0  0  0  0
   25.2007  -21.4990  -11.6820 C   0  0  0  0  0  0  0  0  0  0  0  0
   24.8952  -20.6484  -10.4477 C   0  0  2  0  0  0  0  0  0  0  0  0
   25.7977  -20.9980   -9.3732 N   0  0  0  0  0  0  0  0  0  0  0  0
   23.4798  -20.8316  -10.0671 C   0  0  0  0  0  0  0  0  0  0  0  0
   22.4227  -20.4751  -10.8853 O   0  0  0  0  0  0  0  0  0  0  0  0
   23.2156  -21.3348   -8.9480 O   0  0  0  0  0  0  0  0  0  0  0  0
  1  2  1  0
  2  3  1  0
  3  4  2  0
  3 10  1  0
  6  5  1  1
  7  6  1  0
  8  6  1  0
  9  8  1  1
 10  9  1  0
 11  9  1  0
 11 15  1  0
 12 11  2  0
 14 13  1  6
 14 15  1  0
 14 16  1  0
 16 17  1  0
 18 16  2  0
M  END
$$$$
