GLA.pdb
     RDKit          3D

 18 17  0  0  1  0  0  0  0  0999 V2000
   24.6282  -10.8640  -20.8226 N   0  0  0  0  0  0  0  0  0  0  0  0
   24.3984   -9.4554  -20.6144 C   0  0  0  0  0  0  0  0  0  0  0  0
   23.5781   -9.2710  -19.4142 C   0  0  0  0  0  0  0  0  0  0  0  0
   22.4313   -9.7512  -19.3685 O   0  0  0  0  0  0  0  0  0  0  0  0
   22.7259  -10.8334  -15.3788 C   0  0  0  0  0  0  0  0  0  0  0  0
   24.0891  -10.1660  -15.6410 C   0  0  2  0  0  0  0  0  0  0  0  0
   24.9431  -10.4548  -14.4518 C   0  0  0  0  0  0  0  0  0  0  0  0
   23.7976   -8.7211  -15.8501 C   0  0  0  0  0  0  0  0  0  0  0  0
   23.1329   -8.3615  -17.1323 C   0  0  2  0  0  0  0  0  0  0  0  0
   24.0117   -8.5601  -18.2611 N   0  0  0  0  0  0  0  0  0  0  0  0
   22.5989   -6.9635  -17.1179 C   0  0  0  0  0  0  0  0  0  0  0  0
   23.3498   -5.9584  -17.0944 O   0  0  0  0  0  0  0  0  0  0  0  0
   19.5285   -5.2495  -18.0754 C   0  0  0  0  0  0  0  0  0  0  0  0
   20.7049   -5.3857  -17.1069 C   0  0  2  0  0  0  0  0  0  0  0  0
   21.2078   -6.7414  -17.1308 N   0  0  0  0  0  0  0  0  0  0  0  0
   20.2737   -4.9762  -15.7549 C   0  0  0  0  0  0  0  0  0  0  0  0
   20.2809   -5.8296  -14.6660 O   0  0  0  0  0  0  0  0  0  0  0  0
   19.8803   -3.7975  -15.5776 O   0  0  0  0  0  0  0  0  0  0  0  0
  1  2  1  0
  2  3  1  0
  3  4  2  0
  3 10  1  0
  6  5  1  1
  7  6  1  0
  8  6  1  0
  9  8  1  1
 10  9  1  0
 11  9  1  0
 11 15  1  0
 12 11  2  0
 14 13  1  6
 14 15  1  0
 14 16  1  0
 16 17  1  0
 18 16  2  0
M  END
$$$$
