GLA.pdb
     RDKit          3D

 18 17  0  0  1  0  0  0  0  0999 V2000
   28.5629  -18.3216  -17.0170 N   0  0  0  0  0  0  0  0  0  0  0  0
   27.7780  -17.7497  -15.9506 C   0  0  0  0  0  0  0  0  0  0  0  0
   27.0429  -18.8161  -15.2651 C   0  0  0  0  0  0  0  0  0  0  0  0
   26.9702  -19.9468  -15.7790 O   0  0  0  0  0  0  0  0  0  0  0  0
   25.4586  -20.6404   -9.7223 C   0  0  0  0  0  0  0  0  0  0  0  0
   25.2336  -20.9277  -11.2187 C   0  0  2  0  0  0  0  0  0  0  0  0
   25.7835  -22.2900  -11.4806 C   0  0  0  0  0  0  0  0  0  0  0  0
   25.9315  -19.8340  -11.9490 C   0  0  0  0  0  0  0  0  0  0  0  0
   25.6487  -19.7296  -13.4065 C   0  0  2  0  0  0  0  0  0  0  0  0
   26.3856  -18.6468  -14.0152 N   0  0  0  0  0  0  0  0  0  0  0  0
   24.1850  -19.5970  -13.6888 C   0  0  0  0  0  0  0  0  0  0  0  0
   23.5077  -18.6239  -13.2780 O   0  0  0  0  0  0  0  0  0  0  0  0
   21.7796  -21.0337  -16.0852 C   0  0  0  0  0  0  0  0  0  0  0  0
   22.1081  -20.4417  -14.7133 C   0  0  2  0  0  0  0  0  0  0  0  0
   23.5208  -20.5865  -14.4401 N   0  0  0  0  0  0  0  0  0  0  0  0
   21.2729  -21.0972  -13.6864 C   0  0  0  0  0  0  0  0  0  0  0  0
   19.9698  -20.7200  -13.4154 O   0  0  0  0  0  0  0  0  0  0  0  0
   21.7630  -22.0435  -13.0233 O   0  0  0  0  0  0  0  0  0  0  0  0
  1  2  1  0
  2  3  1  0
  3  4  2  0
  3 10  1  0
  6  5  1  1
  7  6  1  0
  8  6  1  0
  9  8  1  1
 10  9  1  0
 11  9  1  0
 11 15  1  0
 12 11  2  0
 14 13  1  6
 14 15  1  0
 14 16  1  0
 16 17  1  0
 18 16  2  0
M  END
$$$$
