GLA.pdb
     RDKit          3D

 18 17  0  0  1  0  0  0  0  0999 V2000
   21.4219  -11.3414  -17.7818 N   0  0  0  0  0  0  0  0  0  0  0  0
   21.3489  -11.4219  -16.3436 C   0  0  0  0  0  0  0  0  0  0  0  0
   22.4345  -10.6302  -15.7588 C   0  0  0  0  0  0  0  0  0  0  0  0
   22.5340  -10.5347  -14.5223 O   0  0  0  0  0  0  0  0  0  0  0  0
   26.6640  -11.3410  -15.2678 C   0  0  0  0  0  0  0  0  0  0  0  0
   26.2602  -10.9632  -16.7054 C   0  0  2  0  0  0  0  0  0  0  0  0
   27.4642  -11.1813  -17.5597 C   0  0  0  0  0  0  0  0  0  0  0  0
   25.8047   -9.5474  -16.6379 C   0  0  0  0  0  0  0  0  0  0  0  0
   24.5405   -9.2964  -15.8937 C   0  0  2  0  0  0  0  0  0  0  0  0
   23.4137   -9.9412  -16.5265 N   0  0  0  0  0  0  0  0  0  0  0  0
   24.2768   -7.8351  -15.7069 C   0  0  0  0  0  0  0  0  0  0  0  0
   25.1426   -7.0499  -15.2506 O   0  0  0  0  0  0  0  0  0  0  0  0
   21.6880   -5.4446  -16.9023 C   0  0  0  0  0  0  0  0  0  0  0  0
   22.8083   -5.8704  -15.9515 C   0  0  2  0  0  0  0  0  0  0  0  0
   23.0200   -7.2977  -16.0478 N   0  0  0  0  0  0  0  0  0  0  0  0
   22.4678   -5.4501  -14.5771 C   0  0  0  0  0  0  0  0  0  0  0  0
   22.5474   -4.1385  -14.1440 O   0  0  0  0  0  0  0  0  0  0  0  0
   22.0868   -6.3200  -13.7565 O   0  0  0  0  0  0  0  0  0  0  0  0
  1  2  1  0
  2  3  1  0
  3  4  2  0
  3 10  1  0
  6  5  1  1
  7  6  1  0
  8  6  1  0
  9  8  1  6
 10  9  1  0
 11  9  1  0
 11 15  1  0
 12 11  2  0
 14 13  1  6
 14 15  1  0
 14 16  1  0
 16 17  1  0
 18 16  2  0
M  END
$$$$
