GLA.pdb
     RDKit          3D

 18 17  0  0  1  0  0  0  0  0999 V2000
   18.4975  -14.1703  -16.3767 N   0  0  0  0  0  0  0  0  0  0  0  0
   18.5068  -12.7288  -16.4242 C   0  0  0  0  0  0  0  0  0  0  0  0
   19.6492  -12.2265  -15.6563 C   0  0  0  0  0  0  0  0  0  0  0  0
   19.5515  -12.0822  -14.4244 O   0  0  0  0  0  0  0  0  0  0  0  0
   23.4086  -13.7361  -14.1125 C   0  0  0  0  0  0  0  0  0  0  0  0
   23.3764  -13.4906  -15.6328 C   0  0  2  0  0  0  0  0  0  0  0  0
   24.6208  -14.0965  -16.1908 C   0  0  0  0  0  0  0  0  0  0  0  0
   23.2844  -12.0143  -15.8014 C   0  0  0  0  0  0  0  0  0  0  0  0
   21.9888  -11.3871  -15.4233 C   0  0  2  0  0  0  0  0  0  0  0  0
   20.9015  -11.8809  -16.2355 N   0  0  0  0  0  0  0  0  0  0  0  0
   22.0498   -9.8926  -15.4740 C   0  0  0  0  0  0  0  0  0  0  0  0
   22.8744   -9.2312  -14.7979 O   0  0  0  0  0  0  0  0  0  0  0  0
   20.7499   -7.2768  -17.7679 C   0  0  0  0  0  0  0  0  0  0  0  0
   21.2925   -7.7441  -16.4160 C   0  0  2  0  0  0  0  0  0  0  0  0
   21.1606   -9.1797  -16.3022 N   0  0  0  0  0  0  0  0  0  0  0  0
   20.5830   -7.0328  -15.3332 C   0  0  0  0  0  0  0  0  0  0  0  0
   20.7171   -5.6752  -15.1033 O   0  0  0  0  0  0  0  0  0  0  0  0
   19.8194   -7.6857  -14.5809 O   0  0  0  0  0  0  0  0  0  0  0  0
  1  2  1  0
  2  3  1  0
  3  4  2  0
  3 10  1  0
  6  5  1  1
  7  6  1  0
  8  6  1  0
  9  8  1  6
 10  9  1  0
 11  9  1  0
 11 15  1  0
 12 11  2  0
 14 13  1  6
 14 15  1  0
 14 16  1  0
 16 17  1  0
 18 16  2  0
M  END
$$$$
