GLA.pdb
     RDKit          3D

 18 17  0  0  1  0  0  0  0  0999 V2000
   23.6402  -34.5723  -14.4664 N   0  0  0  0  0  0  0  0  0  0  0  0
   22.9735  -33.6727  -13.5573 C   0  0  0  0  0  0  0  0  0  0  0  0
   23.3157  -34.0354  -12.1794 C   0  0  0  0  0  0  0  0  0  0  0  0
   23.4381  -35.2335  -11.8670 O   0  0  0  0  0  0  0  0  0  0  0  0
   26.4663  -32.3209   -7.3758 C   0  0  0  0  0  0  0  0  0  0  0  0
   25.7123  -33.4418   -8.1159 C   0  0  2  0  0  0  0  0  0  0  0  0
   26.7405  -34.4266   -8.5630 C   0  0  0  0  0  0  0  0  0  0  0  0
   24.9814  -32.7716   -9.2264 C   0  0  0  0  0  0  0  0  0  0  0  0
   23.8196  -33.5105   -9.7913 C   0  0  2  0  0  0  0  0  0  0  0  0
   23.5246  -33.0871  -11.1402 N   0  0  0  0  0  0  0  0  0  0  0  0
   22.6046  -33.3984   -8.9246 C   0  0  0  0  0  0  0  0  0  0  0  0
   21.8584  -32.3898   -8.9423 O   0  0  0  0  0  0  0  0  0  0  0  0
   20.6586  -35.7185   -6.7284 C   0  0  0  0  0  0  0  0  0  0  0  0
   21.0781  -34.3359   -7.2312 C   0  0  2  0  0  0  0  0  0  0  0  0
   22.2652  -34.4489   -8.0494 N   0  0  0  0  0  0  0  0  0  0  0  0
   21.2820  -33.4379   -6.0764 C   0  0  0  0  0  0  0  0  0  0  0  0
   20.2402  -32.8823   -5.3552 O   0  0  0  0  0  0  0  0  0  0  0  0
   22.4551  -33.1609   -5.7264 O   0  0  0  0  0  0  0  0  0  0  0  0
  1  2  1  0
  2  3  1  0
  3  4  2  0
  3 10  1  0
  6  5  1  6
  7  6  1  0
  8  6  1  0
  9  8  1  1
 10  9  1  0
 11  9  1  0
 11 15  1  0
 12 11  2  0
 14 13  1  1
 14 15  1  0
 14 16  1  0
 16 17  1  0
 18 16  2  0
M  END
$$$$
