GLA.pdb
     RDKit          3D

 18 17  0  0  1  0  0  0  0  0999 V2000
   19.4644  -11.6569  -19.0586 N   0  0  0  0  0  0  0  0  0  0  0  0
   19.7486  -10.2467  -19.1625 C   0  0  0  0  0  0  0  0  0  0  0  0
   20.1570   -9.7373  -17.8506 C   0  0  0  0  0  0  0  0  0  0  0  0
   19.3826   -9.8323  -16.8814 O   0  0  0  0  0  0  0  0  0  0  0  0
   22.0034  -10.8528  -14.1905 C   0  0  0  0  0  0  0  0  0  0  0  0
   22.8846  -10.7706  -15.4512 C   0  0  2  0  0  0  0  0  0  0  0  0
   24.1802  -11.4286  -15.1116 C   0  0  0  0  0  0  0  0  0  0  0  0
   22.9983   -9.3209  -15.7703 C   0  0  0  0  0  0  0  0  0  0  0  0
   21.7649   -8.6582  -16.2750 C   0  0  2  0  0  0  0  0  0  0  0  0
   21.4142   -9.1226  -17.5968 N   0  0  0  0  0  0  0  0  0  0  0  0
   21.8767   -7.1660  -16.2515 C   0  0  0  0  0  0  0  0  0  0  0  0
   22.7061   -6.5439  -16.9583 O   0  0  0  0  0  0  0  0  0  0  0  0
   19.7857   -4.3303  -15.1724 C   0  0  0  0  0  0  0  0  0  0  0  0
   21.1578   -4.9697  -15.3936 C   0  0  2  0  0  0  0  0  0  0  0  0
   21.0321   -6.4102  -15.4148 N   0  0  0  0  0  0  0  0  0  0  0  0
   22.0865   -4.5078  -14.3420 C   0  0  0  0  0  0  0  0  0  0  0  0
   22.7492   -3.2946  -14.3956 O   0  0  0  0  0  0  0  0  0  0  0  0
   22.2893   -5.2471  -13.3481 O   0  0  0  0  0  0  0  0  0  0  0  0
  1  2  1  0
  2  3  1  0
  3  4  2  0
  3 10  1  0
  6  5  1  1
  7  6  1  0
  8  6  1  0
  9  8  1  6
 10  9  1  0
 11  9  1  0
 11 15  1  0
 12 11  2  0
 14 13  1  1
 14 15  1  0
 14 16  1  0
 16 17  1  0
 18 16  2  0
M  END
$$$$
