GLA.pdb
     RDKit          3D

 18 17  0  0  1  0  0  0  0  0999 V2000
   22.2904  -13.0814  -19.1784 N   0  0  0  0  0  0  0  0  0  0  0  0
   22.0268  -11.6919  -19.4613 C   0  0  0  0  0  0  0  0  0  0  0  0
   22.1314  -10.9172  -18.2219 C   0  0  0  0  0  0  0  0  0  0  0  0
   21.2333  -10.9969  -17.3646 O   0  0  0  0  0  0  0  0  0  0  0  0
   24.4785  -10.6382  -14.3810 C   0  0  0  0  0  0  0  0  0  0  0  0
   25.2376  -10.2536  -15.6649 C   0  0  2  0  0  0  0  0  0  0  0  0
   26.6643  -10.0542  -15.2753 C   0  0  0  0  0  0  0  0  0  0  0  0
   24.5657   -9.0288  -16.1795 C   0  0  0  0  0  0  0  0  0  0  0  0
   23.2008   -9.2133  -16.7436 C   0  0  2  0  0  0  0  0  0  0  0  0
   23.2197  -10.0533  -17.9183 N   0  0  0  0  0  0  0  0  0  0  0  0
   22.5313   -7.9077  -17.0383 C   0  0  0  0  0  0  0  0  0  0  0  0
   23.0145   -7.0713  -17.8393 O   0  0  0  0  0  0  0  0  0  0  0  0
   19.6652   -6.3575  -17.7172 C   0  0  0  0  0  0  0  0  0  0  0  0
   20.7299   -6.2774  -16.6214 C   0  0  2  0  0  0  0  0  0  0  0  0
   21.3146   -7.5825  -16.4069 N   0  0  0  0  0  0  0  0  0  0  0  0
   20.1232   -5.7305  -15.3908 C   0  0  0  0  0  0  0  0  0  0  0  0
   19.7523   -4.4048  -15.2531 O   0  0  0  0  0  0  0  0  0  0  0  0
   19.9318   -6.5005  -14.4182 O   0  0  0  0  0  0  0  0  0  0  0  0
  1  2  1  0
  2  3  1  0
  3  4  2  0
  3 10  1  0
  6  5  1  1
  7  6  1  0
  8  6  1  0
  9  8  1  6
 10  9  1  0
 11  9  1  0
 11 15  1  0
 12 11  2  0
 14 13  1  6
 14 15  1  0
 14 16  1  0
 16 17  1  0
 18 16  2  0
M  END
$$$$
