GLA.pdb
     RDKit          3D

 18 17  0  0  1  0  0  0  0  0999 V2000
   18.5140  -10.5439  -19.4178 N   0  0  0  0  0  0  0  0  0  0  0  0
   17.8105   -9.5331  -18.6670 C   0  0  0  0  0  0  0  0  0  0  0  0
   18.5633   -9.2237  -17.4484 C   0  0  0  0  0  0  0  0  0  0  0  0
   17.9806   -8.7167  -16.4730 O   0  0  0  0  0  0  0  0  0  0  0  0
   23.6115  -10.7899  -14.4311 C   0  0  0  0  0  0  0  0  0  0  0  0
   22.5111   -9.7149  -14.5093 C   0  0  2  0  0  0  0  0  0  0  0  0
   21.7373   -9.8009  -13.2362 C   0  0  0  0  0  0  0  0  0  0  0  0
   21.7208  -10.0344  -15.7299 C   0  0  0  0  0  0  0  0  0  0  0  0
   20.6586   -9.0603  -16.1011 C   0  0  2  0  0  0  0  0  0  0  0  0
   19.9559   -9.4685  -17.2950 N   0  0  0  0  0  0  0  0  0  0  0  0
   21.1952   -7.6714  -16.2526 C   0  0  0  0  0  0  0  0  0  0  0  0
   22.0299   -7.3674  -17.1389 O   0  0  0  0  0  0  0  0  0  0  0  0
   20.0320   -4.3562  -15.7487 C   0  0  0  0  0  0  0  0  0  0  0  0
   21.2275   -5.2975  -15.5893 C   0  0  2  0  0  0  0  0  0  0  0  0
   20.7638   -6.6514  -15.3819 N   0  0  0  0  0  0  0  0  0  0  0  0
   22.0766   -4.8238  -14.4774 C   0  0  0  0  0  0  0  0  0  0  0  0
   23.1874   -4.0199  -14.6613 O   0  0  0  0  0  0  0  0  0  0  0  0
   21.7819   -5.1634  -13.3055 O   0  0  0  0  0  0  0  0  0  0  0  0
  1  2  1  0
  2  3  1  0
  3  4  2  0
  3 10  1  0
  6  5  1  1
  7  6  1  0
  8  6  1  0
  9  8  1  6
 10  9  1  0
 11  9  1  0
 11 15  1  0
 12 11  2  0
 14 13  1  1
 14 15  1  0
 14 16  1  0
 16 17  1  0
 18 16  2  0
M  END
$$$$
