GLA.pdb
     RDKit          3D

 18 17  0  0  1  0  0  0  0  0999 V2000
   26.4126  -24.3742  -15.5748 N   0  0  0  0  0  0  0  0  0  0  0  0
   26.5377  -22.9637  -15.3010 C   0  0  0  0  0  0  0  0  0  0  0  0
   25.5424  -22.5751  -14.2980 C   0  0  0  0  0  0  0  0  0  0  0  0
   24.4939  -23.2341  -14.1791 O   0  0  0  0  0  0  0  0  0  0  0  0
   24.8473  -21.8441   -9.7025 C   0  0  0  0  0  0  0  0  0  0  0  0
   25.8581  -20.8923  -10.3695 C   0  0  2  0  0  0  0  0  0  0  0  0
   26.3746  -19.9948   -9.2948 C   0  0  0  0  0  0  0  0  0  0  0  0
   25.1035  -20.1908  -11.4441 C   0  0  0  0  0  0  0  0  0  0  0  0
   24.6123  -21.0375  -12.5651 C   0  0  2  0  0  0  0  0  0  0  0  0
   25.6930  -21.4641  -13.4229 N   0  0  0  0  0  0  0  0  0  0  0  0
   23.5438  -20.3554  -13.3607 C   0  0  0  0  0  0  0  0  0  0  0  0
   23.7946  -19.4180  -14.1563 O   0  0  0  0  0  0  0  0  0  0  0  0
   21.5421  -20.6639  -15.5736 C   0  0  0  0  0  0  0  0  0  0  0  0
   21.2089  -20.2386  -14.1424 C   0  0  2  0  0  0  0  0  0  0  0  0
   22.2013  -20.7616  -13.2297 N   0  0  0  0  0  0  0  0  0  0  0  0
   19.8457  -20.6945  -13.8027 C   0  0  0  0  0  0  0  0  0  0  0  0
   19.5844  -21.6468  -12.8337 O   0  0  0  0  0  0  0  0  0  0  0  0
   18.8717  -20.1980  -14.4194 O   0  0  0  0  0  0  0  0  0  0  0  0
  1  2  1  0
  2  3  1  0
  3  4  2  0
  3 10  1  0
  6  5  1  1
  7  6  1  0
  8  6  1  0
  9  8  1  1
 10  9  1  0
 11  9  1  0
 11 15  1  0
 12 11  2  0
 14 13  1  6
 14 15  1  0
 14 16  1  0
 16 17  1  0
 18 16  2  0
M  END
$$$$
