QDC.pdb
     RDKit          3D

 24 23  0  0  1  0  0  0  0  0999 V2000
   16.1625  -12.0702  -10.4374 N   0  0  0  0  0  0  0  0  0  0  0  0
   14.8010  -12.0838  -10.0586 C   0  0  0  0  0  0  0  0  0  0  0  0
   14.2688  -13.1664   -9.7565 O   0  0  0  0  0  0  0  0  0  0  0  0
   14.0280  -10.8305  -10.0244 C   0  0  0  0  0  0  0  0  0  0  0  0
   14.8628   -9.6177  -10.2789 C   0  0  0  0  0  0  0  0  0  0  0  0
   14.1380   -8.3148  -10.2875 C   0  0  2  0  0  0  0  0  0  0  0  0
   13.2664   -8.3679  -11.4891 N   0  0  0  0  0  0  0  0  0  0  0  0
   15.0837   -7.1913  -10.5416 C   0  0  0  0  0  0  0  0  0  0  0  0
   15.5719   -6.9823  -11.6991 O   0  0  0  0  0  0  0  0  0  0  0  0
   15.5160   -6.2718   -9.5453 N   0  0  0  0  0  0  0  0  0  0  0  0
   16.4267   -5.2029   -9.8088 C   0  0  1  0  0  0  0  0  0  0  0  0
   16.2973   -4.0489   -8.8655 C   0  0  0  0  0  0  0  0  0  0  0  0
   17.1179   -2.8960   -9.1670 C   0  0  0  0  0  0  0  0  0  0  0  0
   17.7892   -2.8563  -10.2154 O   0  0  0  0  0  0  0  0  0  0  0  0
   17.8407   -5.6768   -9.9339 C   0  0  0  0  0  0  0  0  0  0  0  0
   18.4716   -6.1618   -8.9581 O   0  0  0  0  0  0  0  0  0  0  0  0
   17.1855   -1.8174   -8.3189 O   0  0  0  0  0  0  0  0  0  0  0  0
   18.5470   -5.6039  -11.1648 N   0  0  0  0  0  0  0  0  0  0  0  0
   19.9058   -6.0240  -11.3366 C   0  0  1  0  0  0  0  0  0  0  0  0
   20.0547   -7.4571  -11.7246 C   0  0  0  0  0  0  0  0  0  0  0  0
   21.8142   -7.8291  -11.9038 S   0  0  0  0  0  0  0  0  0  0  0  0
   20.6527   -5.1786  -12.2966 C   0  0  0  0  0  0  0  0  0  0  0  0
   22.0352   -5.1361  -12.2490 O   0  0  0  0  0  0  0  0  0  0  0  0
   20.0556   -4.5002  -13.1524 O   0  0  0  0  0  0  0  0  0  0  0  0
  1  2  1  0
  2  4  1  0
  3  2  2  0
  4  5  1  0
  6  5  1  0
  6  7  1  6
  8  6  1  0
  8  9  2  0
 10  8  1  0
 11 10  1  0
 11 15  1  0
 11 12  1  1
 13 12  1  0
 13 17  1  0
 14 13  2  0
 15 16  2  0
 15 18  1  0
 18 19  1  0
 19 20  1  6
 21 20  1  0
 22 23  1  0
 22 19  1  0
 24 22  2  0
M  END
$$$$
