QDC.pdb
     RDKit          3D

 24 23  0  0  1  0  0  0  0  0999 V2000
   29.7428  -20.1200  -11.3785 N   0  0  0  0  0  0  0  0  0  0  0  0
   29.2694  -21.0114  -10.3892 C   0  0  0  0  0  0  0  0  0  0  0  0
   30.0911  -21.6528   -9.7109 O   0  0  0  0  0  0  0  0  0  0  0  0
   27.8222  -21.1750  -10.1693 C   0  0  0  0  0  0  0  0  0  0  0  0
   26.9907  -20.3113  -11.0611 C   0  0  0  0  0  0  0  0  0  0  0  0
   25.9518  -21.0130  -11.8680 C   0  0  2  0  0  0  0  0  0  0  0  0
   26.7072  -21.9645  -12.7228 N   0  0  0  0  0  0  0  0  0  0  0  0
   25.3004  -20.0680  -12.8186 C   0  0  0  0  0  0  0  0  0  0  0  0
   24.3846  -19.2687  -12.4385 O   0  0  0  0  0  0  0  0  0  0  0  0
   25.6315  -19.9706  -14.1991 N   0  0  0  0  0  0  0  0  0  0  0  0
   25.0431  -19.0113  -15.0795 C   0  0  1  0  0  0  0  0  0  0  0  0
   25.9793  -18.4926  -16.1248 C   0  0  0  0  0  0  0  0  0  0  0  0
   25.5256  -17.3267  -16.8518 C   0  0  0  0  0  0  0  0  0  0  0  0
   24.3701  -16.8915  -16.6881 O   0  0  0  0  0  0  0  0  0  0  0  0
   23.7513  -19.4908  -15.6632 C   0  0  0  0  0  0  0  0  0  0  0  0
   23.6828  -20.5300  -16.3709 O   0  0  0  0  0  0  0  0  0  0  0  0
   26.3421  -16.6662  -17.7374 O   0  0  0  0  0  0  0  0  0  0  0  0
   22.5307  -18.7956  -15.4483 N   0  0  0  0  0  0  0  0  0  0  0  0
   21.2630  -19.2222  -15.9614 C   0  0  1  0  0  0  0  0  0  0  0  0
   20.3135  -19.7016  -14.9150 C   0  0  0  0  0  0  0  0  0  0  0  0
   20.7628  -21.3907  -14.4548 S   0  0  0  0  0  0  0  0  0  0  0  0
   20.5978  -18.1869  -16.7861 C   0  0  0  0  0  0  0  0  0  0  0  0
   20.0873  -18.5172  -18.0293 O   0  0  0  0  0  0  0  0  0  0  0  0
   20.4885  -17.0160  -16.3787 O   0  0  0  0  0  0  0  0  0  0  0  0
  1  2  1  0
  2  4  1  0
  3  2  2  0
  4  5  1  0
  6  5  1  0
  6  7  1  6
  8  6  1  0
  8  9  2  0
 10  8  1  0
 11 10  1  0
 11 15  1  0
 11 12  1  6
 13 12  1  0
 13 17  1  0
 14 13  2  0
 15 16  2  0
 15 18  1  0
 18 19  1  0
 19 20  1  1
 21 20  1  0
 22 23  1  0
 22 19  1  0
 24 22  2  0
M  END
$$$$
