QDC.pdb
     RDKit          3D

 24 23  0  0  1  0  0  0  0  0999 V2000
   11.3106  -13.8608  -12.6828 N   0  0  0  0  0  0  0  0  0  0  0  0
   12.0564  -13.5417  -11.5254 C   0  0  0  0  0  0  0  0  0  0  0  0
   11.6283  -13.8982  -10.4136 O   0  0  0  0  0  0  0  0  0  0  0  0
   13.3219  -12.7968  -11.6403 C   0  0  0  0  0  0  0  0  0  0  0  0
   13.6213  -12.3584  -13.0370 C   0  0  0  0  0  0  0  0  0  0  0  0
   15.0406  -12.4906  -13.4740 C   0  0  2  0  0  0  0  0  0  0  0  0
   15.5555  -13.6822  -12.7518 N   0  0  0  0  0  0  0  0  0  0  0  0
   15.8527  -11.3478  -12.9685 C   0  0  0  0  0  0  0  0  0  0  0  0
   16.6823  -11.4931  -12.0131 O   0  0  0  0  0  0  0  0  0  0  0  0
   15.7818  -10.0261  -13.4910 N   0  0  0  0  0  0  0  0  0  0  0  0
   16.6032   -8.9545  -13.0238 C   0  0  1  0  0  0  0  0  0  0  0  0
   17.2294   -8.1484  -14.1176 C   0  0  0  0  0  0  0  0  0  0  0  0
   18.0767   -7.0573  -13.6877 C   0  0  0  0  0  0  0  0  0  0  0  0
   19.1846   -7.2864  -13.1667 O   0  0  0  0  0  0  0  0  0  0  0  0
   15.9025   -8.0966  -12.0175 C   0  0  0  0  0  0  0  0  0  0  0  0
   14.7096   -7.7241  -12.1720 O   0  0  0  0  0  0  0  0  0  0  0  0
   17.6950   -5.7460  -13.8366 O   0  0  0  0  0  0  0  0  0  0  0  0
   16.5493   -7.6564  -10.8313 N   0  0  0  0  0  0  0  0  0  0  0  0
   15.9350   -6.8169   -9.8463 C   0  0  1  0  0  0  0  0  0  0  0  0
   16.2624   -7.1906   -8.4393 C   0  0  0  0  0  0  0  0  0  0  0  0
   15.3116   -6.1342   -7.3229 S   0  0  0  0  0  0  0  0  0  0  0  0
   16.2293   -5.3796  -10.0503 C   0  0  0  0  0  0  0  0  0  0  0  0
   15.3741   -4.4200   -9.5373 O   0  0  0  0  0  0  0  0  0  0  0  0
   17.2395   -5.0155  -10.6796 O   0  0  0  0  0  0  0  0  0  0  0  0
  1  2  1  0
  2  4  1  0
  3  2  2  0
  4  5  1  0
  6  5  1  0
  6  7  1  1
  8  6  1  0
  8  9  2  0
 10  8  1  0
 11 10  1  0
 11 15  1  0
 11 12  1  6
 13 12  1  0
 13 17  1  0
 14 13  2  0
 15 16  2  0
 15 18  1  0
 18 19  1  0
 19 20  1  1
 21 20  1  0
 22 23  1  0
 22 19  1  0
 24 22  2  0
M  END
$$$$
