QDC.pdb
     RDKit          3D

 24 23  0  0  1  0  0  0  0  0999 V2000
   16.0032  -13.7602  -16.7110 N   0  0  0  0  0  0  0  0  0  0  0  0
   17.1890  -14.3281  -16.1926 C   0  0  0  0  0  0  0  0  0  0  0  0
   17.1593  -14.8738  -15.0755 O   0  0  0  0  0  0  0  0  0  0  0  0
   18.4397  -14.2711  -16.9684 C   0  0  0  0  0  0  0  0  0  0  0  0
   18.2690  -13.6436  -18.3137 C   0  0  0  0  0  0  0  0  0  0  0  0
   19.4824  -13.0007  -18.8944 C   0  0  2  0  0  0  0  0  0  0  0  0
   20.4046  -14.1249  -19.1981 N   0  0  0  0  0  0  0  0  0  0  0  0
   20.1872  -12.1862  -17.8642 C   0  0  0  0  0  0  0  0  0  0  0  0
   21.1760  -12.6521  -17.2107 O   0  0  0  0  0  0  0  0  0  0  0  0
   19.8339  -10.8502  -17.5249 N   0  0  0  0  0  0  0  0  0  0  0  0
   20.6085  -10.0355  -16.6431 C   0  0  1  0  0  0  0  0  0  0  0  0
   22.0373   -9.8799  -17.0587 C   0  0  0  0  0  0  0  0  0  0  0  0
   22.8567   -9.0574  -16.1953 C   0  0  0  0  0  0  0  0  0  0  0  0
   22.9249   -7.8268  -16.3752 O   0  0  0  0  0  0  0  0  0  0  0  0
   19.9539   -8.7198  -16.3605 C   0  0  0  0  0  0  0  0  0  0  0  0
   19.7357   -7.8737  -17.2672 O   0  0  0  0  0  0  0  0  0  0  0  0
   23.5798   -9.5968  -15.1593 O   0  0  0  0  0  0  0  0  0  0  0  0
   19.5433   -8.3558  -15.0498 N   0  0  0  0  0  0  0  0  0  0  0  0
   18.8384   -7.1488  -14.7356 C   0  0  1  0  0  0  0  0  0  0  0  0
   18.2235   -7.1401  -13.3761 C   0  0  0  0  0  0  0  0  0  0  0  0
   17.2437   -8.6452  -13.1735 S   0  0  0  0  0  0  0  0  0  0  0  0
   19.6718   -5.9355  -14.9018 C   0  0  0  0  0  0  0  0  0  0  0  0
   19.1175   -4.6839  -14.6983 O   0  0  0  0  0  0  0  0  0  0  0  0
   20.8710   -6.0212  -15.2237 O   0  0  0  0  0  0  0  0  0  0  0  0
  1  2  1  0
  2  4  1  0
  3  2  2  0
  4  5  1  0
  6  5  1  0
  6  7  1  1
  8  6  1  0
  8  9  2  0
 10  8  1  0
 11 10  1  0
 11 15  1  0
 11 12  1  6
 13 12  1  0
 13 17  1  0
 14 13  2  0
 15 16  2  0
 15 18  1  0
 18 19  1  0
 19 20  1  1
 21 20  1  0
 22 23  1  0
 22 19  1  0
 24 22  2  0
M  END
$$$$
