QDC.pdb
     RDKit          3D

 24 23  0  0  1  0  0  0  0  0999 V2000
   25.3843  -25.0231  -14.6631 N   0  0  0  0  0  0  0  0  0  0  0  0
   25.9495  -24.1358  -15.6069 C   0  0  0  0  0  0  0  0  0  0  0  0
   26.8706  -24.5389  -16.3387 O   0  0  0  0  0  0  0  0  0  0  0  0
   25.4510  -22.7542  -15.7175 C   0  0  0  0  0  0  0  0  0  0  0  0
   24.2673  -22.4848  -14.8464 C   0  0  0  0  0  0  0  0  0  0  0  0
   23.0747  -23.3493  -15.0776 C   0  0  2  0  0  0  0  0  0  0  0  0
   22.6264  -23.0246  -16.4560 N   0  0  0  0  0  0  0  0  0  0  0  0
   21.9485  -22.9349  -14.1939 C   0  0  0  0  0  0  0  0  0  0  0  0
   22.0758  -22.8995  -12.9272 O   0  0  0  0  0  0  0  0  0  0  0  0
   20.6633  -22.5491  -14.6676 N   0  0  0  0  0  0  0  0  0  0  0  0
   19.5693  -22.2422  -13.8014 C   0  0  1  0  0  0  0  0  0  0  0  0
   18.4870  -21.4396  -14.4516 C   0  0  0  0  0  0  0  0  0  0  0  0
   17.3982  -21.0372  -13.5879 C   0  0  0  0  0  0  0  0  0  0  0  0
   16.3095  -20.6748  -14.0725 O   0  0  0  0  0  0  0  0  0  0  0  0
   19.0356  -23.4551  -13.1060 C   0  0  0  0  0  0  0  0  0  0  0  0
   18.7140  -24.4981  -13.7340 O   0  0  0  0  0  0  0  0  0  0  0  0
   17.5240  -21.0401  -12.2199 O   0  0  0  0  0  0  0  0  0  0  0  0
   18.8635  -23.4929  -11.6960 N   0  0  0  0  0  0  0  0  0  0  0  0
   18.3495  -24.6223  -10.9800 C   0  0  1  0  0  0  0  0  0  0  0  0
   18.8028  -24.7001   -9.5606 C   0  0  0  0  0  0  0  0  0  0  0  0
   18.5968  -26.3987   -8.9786 S   0  0  0  0  0  0  0  0  0  0  0  0
   16.8714  -24.7087  -11.0255 C   0  0  0  0  0  0  0  0  0  0  0  0
   16.2552  -25.9422  -11.1438 O   0  0  0  0  0  0  0  0  0  0  0  0
   16.1674  -23.6845  -10.9587 O   0  0  0  0  0  0  0  0  0  0  0  0
  1  2  1  0
  2  4  1  0
  3  2  2  0
  4  5  1  0
  6  5  1  0
  6  7  1  6
  8  6  1  0
  8  9  2  0
 10  8  1  0
 11 10  1  0
 11 15  1  0
 11 12  1  6
 13 12  1  0
 13 17  1  0
 14 13  2  0
 15 16  2  0
 15 18  1  0
 18 19  1  0
 19 20  1  1
 21 20  1  0
 22 23  1  0
 22 19  1  0
 24 22  2  0
M  END
$$$$
