QDC.pdb
     RDKit          3D

 24 23  0  0  1  0  0  0  0  0999 V2000
   16.3623  -21.8149  -13.1676 N   0  0  0  0  0  0  0  0  0  0  0  0
   16.1137  -21.4207  -14.5019 C   0  0  0  0  0  0  0  0  0  0  0  0
   14.9711  -21.0448  -14.8178 O   0  0  0  0  0  0  0  0  0  0  0  0
   17.1962  -21.4571  -15.5001 C   0  0  0  0  0  0  0  0  0  0  0  0
   18.4534  -22.0763  -14.9818 C   0  0  0  0  0  0  0  0  0  0  0  0
   19.2788  -21.2234  -14.0794 C   0  0  2  0  0  0  0  0  0  0  0  0
   19.0443  -19.8324  -14.5449 N   0  0  0  0  0  0  0  0  0  0  0  0
   20.7305  -21.4712  -14.3080 C   0  0  0  0  0  0  0  0  0  0  0  0
   21.2746  -22.5771  -13.9870 O   0  0  0  0  0  0  0  0  0  0  0  0
   21.6191  -20.5249  -14.8909 N   0  0  0  0  0  0  0  0  0  0  0  0
   23.0276  -20.7380  -15.0008 C   0  0  1  0  0  0  0  0  0  0  0  0
   23.6256  -20.2029  -16.2634 C   0  0  0  0  0  0  0  0  0  0  0  0
   25.0553  -20.3754  -16.4038 C   0  0  0  0  0  0  0  0  0  0  0  0
   25.7889  -19.3963  -16.6373 O   0  0  0  0  0  0  0  0  0  0  0  0
   23.7696  -20.2812  -13.7841 C   0  0  0  0  0  0  0  0  0  0  0  0
   23.6413  -19.1173  -13.3211 O   0  0  0  0  0  0  0  0  0  0  0  0
   25.6478  -21.6092  -16.2860 O   0  0  0  0  0  0  0  0  0  0  0  0
   24.6605  -21.1403  -13.0859 N   0  0  0  0  0  0  0  0  0  0  0  0
   25.6349  -20.6873  -12.1385 C   0  0  1  0  0  0  0  0  0  0  0  0
   25.6265  -21.4404  -10.8504 C   0  0  0  0  0  0  0  0  0  0  0  0
   26.5212  -20.4773   -9.6101 S   0  0  0  0  0  0  0  0  0  0  0  0
   27.0105  -20.6763  -12.6880 C   0  0  0  0  0  0  0  0  0  0  0  0
   27.8258  -19.5764  -12.4864 O   0  0  0  0  0  0  0  0  0  0  0  0
   27.4505  -21.6455  -13.3330 O   0  0  0  0  0  0  0  0  0  0  0  0
  1  2  1  0
  2  4  1  0
  3  2  2  0
  4  5  1  0
  6  5  1  0
  6  7  1  6
  8  6  1  0
  8  9  2  0
 10  8  1  0
 11 10  1  0
 11 15  1  0
 11 12  1  6
 13 12  1  0
 13 17  1  0
 14 13  2  0
 15 16  2  0
 15 18  1  0
 18 19  1  0
 19 20  1  1
 21 20  1  0
 22 23  1  0
 22 19  1  0
 24 22  2  0
M  END
$$$$
