QDC.pdb
     RDKit          3D

 24 23  0  0  1  0  0  0  0  0999 V2000
   15.9210  -12.5491  -13.7887 N   0  0  0  0  0  0  0  0  0  0  0  0
   14.9735  -12.3235  -14.8127 C   0  0  0  0  0  0  0  0  0  0  0  0
   13.8372  -12.8171  -14.7038 O   0  0  0  0  0  0  0  0  0  0  0  0
   15.3322  -11.5148  -15.9904 C   0  0  0  0  0  0  0  0  0  0  0  0
   16.6791  -10.8779  -15.8781 C   0  0  0  0  0  0  0  0  0  0  0  0
   17.6302  -11.1585  -16.9915 C   0  0  2  0  0  0  0  0  0  0  0  0
   17.9191  -12.6122  -16.8929 N   0  0  0  0  0  0  0  0  0  0  0  0
   18.9366  -10.4843  -16.7465 C   0  0  0  0  0  0  0  0  0  0  0  0
   19.8985  -11.0881  -16.1701 O   0  0  0  0  0  0  0  0  0  0  0  0
   19.2251   -9.1429  -17.1240 N   0  0  0  0  0  0  0  0  0  0  0  0
   20.4722   -8.5029  -16.8476 C   0  0  1  0  0  0  0  0  0  0  0  0
   21.2590   -8.1528  -18.0710 C   0  0  0  0  0  0  0  0  0  0  0  0
   22.5316   -7.5058  -17.8357 C   0  0  0  0  0  0  0  0  0  0  0  0
   23.2547   -7.8626  -16.8864 O   0  0  0  0  0  0  0  0  0  0  0  0
   20.3219   -7.3395  -15.9182 C   0  0  0  0  0  0  0  0  0  0  0  0
   19.4327   -6.4634  -16.0829 O   0  0  0  0  0  0  0  0  0  0  0  0
   22.9826   -6.4878  -18.6403 O   0  0  0  0  0  0  0  0  0  0  0  0
   21.1780   -7.1628  -14.7979 N   0  0  0  0  0  0  0  0  0  0  0  0
   21.0091   -6.1365  -13.8127 C   0  0  1  0  0  0  0  0  0  0  0  0
   21.2972   -6.5797  -12.4174 C   0  0  0  0  0  0  0  0  0  0  0  0
   20.2199   -7.9748  -12.0183 S   0  0  0  0  0  0  0  0  0  0  0  0
   21.7970   -4.9179  -14.1100 C   0  0  0  0  0  0  0  0  0  0  0  0
   21.6880   -3.8081  -13.2904 O   0  0  0  0  0  0  0  0  0  0  0  0
   22.5616   -4.8728  -15.0911 O   0  0  0  0  0  0  0  0  0  0  0  0
  1  2  1  0
  2  4  1  0
  3  2  2  0
  4  5  1  0
  6  5  1  0
  6  7  1  1
  8  6  1  0
  8  9  2  0
 10  8  1  0
 11 10  1  0
 11 15  1  0
 11 12  1  6
 13 12  1  0
 13 17  1  0
 14 13  2  0
 15 16  2  0
 15 18  1  0
 18 19  1  0
 19 20  1  1
 21 20  1  0
 22 23  1  0
 22 19  1  0
 24 22  2  0
M  END
$$$$
