QDC.pdb
     RDKit          3D

 24 23  0  0  1  0  0  0  0  0999 V2000
   17.9803  -12.6552  -14.4518 N   0  0  0  0  0  0  0  0  0  0  0  0
   18.4597  -13.6468  -15.3373 C   0  0  0  0  0  0  0  0  0  0  0  0
   18.2396  -14.8435  -15.0804 O   0  0  0  0  0  0  0  0  0  0  0  0
   19.2094  -13.2628  -16.5456 C   0  0  0  0  0  0  0  0  0  0  0  0
   19.3791  -11.7850  -16.6873 C   0  0  0  0  0  0  0  0  0  0  0  0
   18.1705  -11.0263  -17.1194 C   0  0  2  0  0  0  0  0  0  0  0  0
   18.0189  -11.3361  -18.5643 N   0  0  0  0  0  0  0  0  0  0  0  0
   18.4246   -9.5590  -17.0602 C   0  0  0  0  0  0  0  0  0  0  0  0
   18.8641   -8.9192  -18.0700 O   0  0  0  0  0  0  0  0  0  0  0  0
   18.2049   -8.7574  -15.9052 N   0  0  0  0  0  0  0  0  0  0  0  0
   18.4528   -7.3508  -15.8697 C   0  0  1  0  0  0  0  0  0  0  0  0
   17.3141   -6.5475  -15.3252 C   0  0  0  0  0  0  0  0  0  0  0  0
   17.5337   -5.1195  -15.2468 C   0  0  0  0  0  0  0  0  0  0  0  0
   17.9618   -4.6038  -14.1969 O   0  0  0  0  0  0  0  0  0  0  0  0
   19.7509   -7.0176  -15.2039 C   0  0  0  0  0  0  0  0  0  0  0  0
   20.0855   -7.5246  -14.1009 O   0  0  0  0  0  0  0  0  0  0  0  0
   17.2811   -4.2914  -16.3134 O   0  0  0  0  0  0  0  0  0  0  0  0
   20.6765   -6.1087  -15.7839 N   0  0  0  0  0  0  0  0  0  0  0  0
   21.9781   -5.8385  -15.2498 C   0  0  1  0  0  0  0  0  0  0  0  0
   22.9753   -5.4018  -16.2702 C   0  0  0  0  0  0  0  0  0  0  0  0
   24.5562   -5.1054  -15.4459 S   0  0  0  0  0  0  0  0  0  0  0  0
   21.9529   -4.8566  -14.1410 C   0  0  0  0  0  0  0  0  0  0  0  0
   22.5743   -5.1544  -12.9407 O   0  0  0  0  0  0  0  0  0  0  0  0
   21.3788   -3.7598  -14.2693 O   0  0  0  0  0  0  0  0  0  0  0  0
  1  2  1  0
  2  4  1  0
  3  2  2  0
  4  5  1  0
  6  5  1  0
  6  7  1  6
  8  6  1  0
  8  9  2  0
 10  8  1  0
 11 10  1  0
 11 15  1  0
 11 12  1  1
 13 12  1  0
 13 17  1  0
 14 13  2  0
 15 16  2  0
 15 18  1  0
 18 19  1  0
 19 20  1  6
 21 20  1  0
 22 23  1  0
 22 19  1  0
 24 22  2  0
M  END
$$$$
