QDC.pdb
     RDKit          3D

 24 23  0  0  1  0  0  0  0  0999 V2000
   17.9321  -15.5471  -17.0782 N   0  0  0  0  0  0  0  0  0  0  0  0
   17.4460  -14.7465  -16.0199 C   0  0  0  0  0  0  0  0  0  0  0  0
   17.9612  -14.8565  -14.8934 O   0  0  0  0  0  0  0  0  0  0  0  0
   16.3442  -13.7973  -16.2533 C   0  0  0  0  0  0  0  0  0  0  0  0
   16.8142  -12.4424  -16.6728 C   0  0  0  0  0  0  0  0  0  0  0  0
   17.5063  -11.6372  -15.6261 C   0  0  2  0  0  0  0  0  0  0  0  0
   16.5047  -11.4753  -14.5412 N   0  0  0  0  0  0  0  0  0  0  0  0
   17.7732  -10.2563  -16.1190 C   0  0  0  0  0  0  0  0  0  0  0  0
   18.5122  -10.0442  -17.1344 O   0  0  0  0  0  0  0  0  0  0  0  0
   17.2419   -9.0793  -15.5212 N   0  0  0  0  0  0  0  0  0  0  0  0
   17.5849   -7.7603  -15.9499 C   0  0  1  0  0  0  0  0  0  0  0  0
   16.4078   -6.9244  -16.3425 C   0  0  0  0  0  0  0  0  0  0  0  0
   16.7076   -5.5684  -16.7484 C   0  0  0  0  0  0  0  0  0  0  0  0
   17.4562   -5.3516  -17.7200 O   0  0  0  0  0  0  0  0  0  0  0  0
   18.4783   -7.0589  -14.9755 C   0  0  0  0  0  0  0  0  0  0  0  0
   18.2223   -7.0190  -13.7432 O   0  0  0  0  0  0  0  0  0  0  0  0
   16.1844   -4.4849  -16.0855 O   0  0  0  0  0  0  0  0  0  0  0  0
   19.6660   -6.3992  -15.3919 N   0  0  0  0  0  0  0  0  0  0  0  0
   20.5633   -5.7242  -14.5021 C   0  0  1  0  0  0  0  0  0  0  0  0
   21.9084   -6.3612  -14.3963 C   0  0  0  0  0  0  0  0  0  0  0  0
   22.8928   -5.4402  -13.1924 S   0  0  0  0  0  0  0  0  0  0  0  0
   20.7278   -4.2890  -14.8299 C   0  0  0  0  0  0  0  0  0  0  0  0
   21.1147   -3.3959  -13.8460 O   0  0  0  0  0  0  0  0  0  0  0  0
   20.5228   -3.8675  -15.9829 O   0  0  0  0  0  0  0  0  0  0  0  0
  1  2  1  0
  2  4  1  0
  3  2  2  0
  4  5  1  0
  6  5  1  0
  6  7  1  1
  8  6  1  0
  8  9  2  0
 10  8  1  0
 11 10  1  0
 11 15  1  0
 11 12  1  1
 13 12  1  0
 13 17  1  0
 14 13  2  0
 15 16  2  0
 15 18  1  0
 18 19  1  0
 19 20  1  6
 21 20  1  0
 22 23  1  0
 22 19  1  0
 24 22  2  0
M  END
$$$$
