QDC.pdb
     RDKit          3D

 24 23  0  0  1  0  0  0  0  0999 V2000
   24.8617  -14.6461  -19.9915 N   0  0  0  0  0  0  0  0  0  0  0  0
   25.2460  -15.4230  -18.8753 C   0  0  0  0  0  0  0  0  0  0  0  0
   25.4667  -16.6369  -19.0314 O   0  0  0  0  0  0  0  0  0  0  0  0
   25.3813  -14.7988  -17.5481 C   0  0  0  0  0  0  0  0  0  0  0  0
   25.1918  -13.3169  -17.5733 C   0  0  0  0  0  0  0  0  0  0  0  0
   23.8625  -12.8196  -17.1165 C   0  0  2  0  0  0  0  0  0  0  0  0
   22.8844  -13.4102  -18.0656 N   0  0  0  0  0  0  0  0  0  0  0  0
   23.7579  -11.3463  -17.3158 C   0  0  0  0  0  0  0  0  0  0  0  0
   24.4407  -10.5306  -16.6156 O   0  0  0  0  0  0  0  0  0  0  0  0
   22.9120  -10.7300  -18.2800 N   0  0  0  0  0  0  0  0  0  0  0  0
   22.8273   -9.3147  -18.4564 C   0  0  1  0  0  0  0  0  0  0  0  0
   22.8153   -8.8813  -19.8883 C   0  0  0  0  0  0  0  0  0  0  0  0
   22.8125   -7.4518  -20.1119 C   0  0  0  0  0  0  0  0  0  0  0  0
   23.3761   -6.6863  -19.3071 O   0  0  0  0  0  0  0  0  0  0  0  0
   21.7065   -8.7088  -17.6714 C   0  0  0  0  0  0  0  0  0  0  0  0
   20.5820   -9.2668  -17.5724 O   0  0  0  0  0  0  0  0  0  0  0  0
   22.1962   -6.8942  -21.2058 O   0  0  0  0  0  0  0  0  0  0  0  0
   21.8536   -7.4680  -16.9947 N   0  0  0  0  0  0  0  0  0  0  0  0
   20.8285   -6.8613  -16.1989 C   0  0  1  0  0  0  0  0  0  0  0  0
   20.3855   -7.6922  -15.0414 C   0  0  0  0  0  0  0  0  0  0  0  0
   19.2062   -6.7371  -14.0599 S   0  0  0  0  0  0  0  0  0  0  0  0
   21.1980   -5.5104  -15.7164 C   0  0  0  0  0  0  0  0  0  0  0  0
   20.2315   -4.6835  -15.1712 O   0  0  0  0  0  0  0  0  0  0  0  0
   22.3711   -5.1015  -15.7928 O   0  0  0  0  0  0  0  0  0  0  0  0
  1  2  1  0
  2  4  1  0
  3  2  2  0
  4  5  1  0
  6  5  1  0
  6  7  1  6
  8  6  1  0
  8  9  2  0
 10  8  1  0
 11 10  1  0
 11 15  1  0
 11 12  1  6
 13 12  1  0
 13 17  1  0
 14 13  2  0
 15 16  2  0
 15 18  1  0
 18 19  1  0
 19 20  1  1
 21 20  1  0
 22 23  1  0
 22 19  1  0
 24 22  2  0
M  END
$$$$
