QDC.pdb
     RDKit          3D

 24 23  0  0  1  0  0  0  0  0999 V2000
   25.4055  -18.2438  -15.7366 N   0  0  0  0  0  0  0  0  0  0  0  0
   25.4937  -19.2767  -16.6972 C   0  0  0  0  0  0  0  0  0  0  0  0
   26.5892  -19.5050  -17.2399 O   0  0  0  0  0  0  0  0  0  0  0  0
   24.3018  -20.0681  -17.0473 C   0  0  0  0  0  0  0  0  0  0  0  0
   23.1112  -19.7415  -16.2055 C   0  0  0  0  0  0  0  0  0  0  0  0
   23.2078  -20.1114  -14.7644 C   0  0  2  0  0  0  0  0  0  0  0  0
   23.6436  -21.5314  -14.7606 N   0  0  0  0  0  0  0  0  0  0  0  0
   21.8575  -20.1167  -14.1336 C   0  0  0  0  0  0  0  0  0  0  0  0
   21.0658  -19.1258  -14.2496 O   0  0  0  0  0  0  0  0  0  0  0  0
   21.3396  -21.1977  -13.3668 N   0  0  0  0  0  0  0  0  0  0  0  0
   20.0139  -21.2153  -12.8343 C   0  0  1  0  0  0  0  0  0  0  0  0
   18.9522  -20.8956  -13.8386 C   0  0  0  0  0  0  0  0  0  0  0  0
   17.5935  -20.9049  -13.3412 C   0  0  0  0  0  0  0  0  0  0  0  0
   17.3560  -20.6297  -12.1498 O   0  0  0  0  0  0  0  0  0  0  0  0
   19.7197  -22.4737  -12.0796 C   0  0  0  0  0  0  0  0  0  0  0  0
   19.8190  -23.6106  -12.6118 O   0  0  0  0  0  0  0  0  0  0  0  0
   16.5300  -21.2136  -14.1541 O   0  0  0  0  0  0  0  0  0  0  0  0
   19.3116  -22.4507  -10.7187 N   0  0  0  0  0  0  0  0  0  0  0  0
   19.0707  -23.6242   -9.9330 C   0  0  1  0  0  0  0  0  0  0  0  0
   19.0175  -23.3717   -8.4634 C   0  0  0  0  0  0  0  0  0  0  0  0
   19.1482  -24.9532   -7.5985 S   0  0  0  0  0  0  0  0  0  0  0  0
   17.8497  -24.3536  -10.3472 C   0  0  0  0  0  0  0  0  0  0  0  0
   17.9107  -25.7120  -10.6047 O   0  0  0  0  0  0  0  0  0  0  0  0
   16.7609  -23.7629  -10.4689 O   0  0  0  0  0  0  0  0  0  0  0  0
  1  2  1  0
  2  4  1  0
  3  2  2  0
  4  5  1  0
  6  5  1  0
  6  7  1  6
  8  6  1  0
  8  9  2  0
 10  8  1  0
 11 10  1  0
 11 15  1  0
 11 12  1  6
 13 12  1  0
 13 17  1  0
 14 13  2  0
 15 16  2  0
 15 18  1  0
 18 19  1  0
 19 20  1  1
 21 20  1  0
 22 23  1  0
 22 19  1  0
 24 22  2  0
M  END
$$$$
