QDC.pdb
     RDKit          3D

 24 23  0  0  1  0  0  0  0  0999 V2000
   15.4967   -5.7199   -8.2975 N   0  0  0  0  0  0  0  0  0  0  0  0
   14.2925   -6.2585   -7.7902 C   0  0  0  0  0  0  0  0  0  0  0  0
   13.5481   -5.5346   -7.1059 O   0  0  0  0  0  0  0  0  0  0  0  0
   13.9297   -7.6582   -8.0708 C   0  0  0  0  0  0  0  0  0  0  0  0
   14.9099   -8.3528   -8.9593 C   0  0  0  0  0  0  0  0  0  0  0  0
   14.3887   -8.8042  -10.2813 C   0  0  2  0  0  0  0  0  0  0  0  0
   14.0235  -10.2304  -10.0835 N   0  0  0  0  0  0  0  0  0  0  0  0
   15.4794   -8.8187  -11.2968 C   0  0  0  0  0  0  0  0  0  0  0  0
   16.3531   -9.7450  -11.3208 O   0  0  0  0  0  0  0  0  0  0  0  0
   15.6419   -7.8295  -12.3069 N   0  0  0  0  0  0  0  0  0  0  0  0
   16.6596   -7.8925  -13.3077 C   0  0  1  0  0  0  0  0  0  0  0  0
   16.1626   -7.6371  -14.6955 C   0  0  0  0  0  0  0  0  0  0  0  0
   15.2037   -8.5931  -15.2052 C   0  0  0  0  0  0  0  0  0  0  0  0
   15.3084   -9.8022  -14.9251 O   0  0  0  0  0  0  0  0  0  0  0  0
   17.8472   -7.0481  -12.9665 C   0  0  0  0  0  0  0  0  0  0  0  0
   17.7375   -5.9660  -12.3320 O   0  0  0  0  0  0  0  0  0  0  0  0
   14.1565   -8.2070  -16.0062 O   0  0  0  0  0  0  0  0  0  0  0  0
   19.1647   -7.4250  -13.3423 N   0  0  0  0  0  0  0  0  0  0  0  0
   20.3324   -6.6412  -13.0695 C   0  0  1  0  0  0  0  0  0  0  0  0
   21.5332   -7.4469  -12.7017 C   0  0  0  0  0  0  0  0  0  0  0  0
   22.8961   -6.3194  -12.3302 S   0  0  0  0  0  0  0  0  0  0  0  0
   20.6818   -5.7235  -14.1786 C   0  0  0  0  0  0  0  0  0  0  0  0
   21.0492   -4.4177  -13.9046 O   0  0  0  0  0  0  0  0  0  0  0  0
   20.6509   -6.1078  -15.3620 O   0  0  0  0  0  0  0  0  0  0  0  0
  1  2  1  0
  2  4  1  0
  3  2  2  0
  4  5  1  0
  6  5  1  0
  6  7  1  1
  8  6  1  0
  8  9  2  0
 10  8  1  0
 11 10  1  0
 11 15  1  0
 11 12  1  6
 13 12  1  0
 13 17  1  0
 14 13  2  0
 15 16  2  0
 15 18  1  0
 18 19  1  0
 19 20  1  6
 21 20  1  0
 22 23  1  0
 22 19  1  0
 24 22  2  0
M  END
$$$$
