QDC.pdb
     RDKit          3D

 24 23  0  0  1  0  0  0  0  0999 V2000
   17.6035  -16.8641  -19.1704 N   0  0  0  0  0  0  0  0  0  0  0  0
   17.8538  -15.9764  -18.0995 C   0  0  0  0  0  0  0  0  0  0  0  0
   17.0240  -15.0850  -17.8473 O   0  0  0  0  0  0  0  0  0  0  0  0
   19.0818  -16.1093  -17.2972 C   0  0  0  0  0  0  0  0  0  0  0  0
   19.8162  -14.8191  -17.1281 C   0  0  0  0  0  0  0  0  0  0  0  0
   20.5100  -14.2976  -18.3404 C   0  0  2  0  0  0  0  0  0  0  0  0
   21.7233  -15.1426  -18.4819 N   0  0  0  0  0  0  0  0  0  0  0  0
   21.0215  -12.9189  -18.0984 C   0  0  0  0  0  0  0  0  0  0  0  0
   22.2276  -12.7095  -17.7470 O   0  0  0  0  0  0  0  0  0  0  0  0
   20.2350  -11.7409  -18.2349 N   0  0  0  0  0  0  0  0  0  0  0  0
   20.7698  -10.4227  -18.1022 C   0  0  1  0  0  0  0  0  0  0  0  0
   20.1923   -9.4336  -19.0647 C   0  0  0  0  0  0  0  0  0  0  0  0
   20.7140   -8.0873  -18.9708 C   0  0  0  0  0  0  0  0  0  0  0  0
   19.9483   -7.1272  -18.7631 O   0  0  0  0  0  0  0  0  0  0  0  0
   20.7273   -9.9302  -16.6896 C   0  0  0  0  0  0  0  0  0  0  0  0
   19.7071  -10.0679  -15.9645 O   0  0  0  0  0  0  0  0  0  0  0  0
   22.0553   -7.8227  -19.1055 O   0  0  0  0  0  0  0  0  0  0  0  0
   21.8398   -9.2793  -16.0915 N   0  0  0  0  0  0  0  0  0  0  0  0
   21.8508   -8.7795  -14.7489 C   0  0  1  0  0  0  0  0  0  0  0  0
   23.1477   -8.9756  -14.0377 C   0  0  0  0  0  0  0  0  0  0  0  0
   23.5397  -10.7399  -14.0233 S   0  0  0  0  0  0  0  0  0  0  0  0
   21.4576   -7.3539  -14.6621 C   0  0  0  0  0  0  0  0  0  0  0  0
   21.2073   -6.7806  -13.4277 O   0  0  0  0  0  0  0  0  0  0  0  0
   21.3472   -6.6562  -15.6869 O   0  0  0  0  0  0  0  0  0  0  0  0
  1  2  1  0
  2  4  1  0
  3  2  2  0
  4  5  1  0
  6  5  1  0
  6  7  1  1
  8  6  1  0
  8  9  2  0
 10  8  1  0
 11 10  1  0
 11 15  1  0
 11 12  1  6
 13 12  1  0
 13 17  1  0
 14 13  2  0
 15 16  2  0
 15 18  1  0
 18 19  1  0
 19 20  1  6
 21 20  1  0
 22 23  1  0
 22 19  1  0
 24 22  2  0
M  END
$$$$
