HYD.pdb
     RDKit          3D

 31 32  0  0  1  0  0  0  0  0999 V2000
    8.9871  -17.9857   19.7388 N   0  0  0  0  0  0  0  0  0  0  0  0
   10.0658  -17.0666   19.8182 C   0  0  1  0  0  0  0  0  0  0  0  0
   10.3557  -16.3452   18.5196 C   0  0  0  0  0  0  0  0  0  0  0  0
   10.3158  -17.3057   17.4135 C   0  0  0  0  0  0  0  0  0  0  0  0
    9.9957  -18.6339   17.5029 C   0  0  0  0  0  0  0  0  0  0  0  0
   10.0716  -19.1841   16.2650 N   0  0  0  0  0  0  0  0  0  0  0  0
   10.4360  -18.1884   15.4381 C   0  0  0  0  0  0  0  0  0  0  0  0
   10.5838  -17.0545   16.1285 N   0  0  0  0  0  0  0  0  0  0  0  0
    9.9712  -16.0745   20.9175 C   0  0  0  0  0  0  0  0  0  0  0  0
   10.9110  -15.2234   21.0522 O   0  0  0  0  0  0  0  0  0  0  0  0
    6.4018  -11.1820   27.5275 O   0  0  0  0  0  0  0  0  0  0  0  0
    6.6662  -12.0289   26.4398 C   0  0  0  0  0  0  0  0  0  0  0  0
    6.3502  -13.3691   26.4888 C   0  0  0  0  0  0  0  0  0  0  0  0
    6.6066  -14.2083   25.4244 C   0  0  0  0  0  0  0  0  0  0  0  0
    7.1889  -13.7493   24.2647 C   0  0  0  0  0  0  0  0  0  0  0  0
    7.4746  -14.6089   23.1186 C   0  0  0  0  0  0  0  0  0  0  0  0
    8.9234  -14.9659   22.9191 C   0  0  2  0  0  0  0  0  0  0  0  0
    8.9214  -15.9792   21.8475 N   0  0  0  0  0  0  0  0  0  0  0  0
    9.5434  -15.5606   24.1250 C   0  0  0  0  0  0  0  0  0  0  0  0
    9.6967  -14.8853   25.1679 O   0  0  0  0  0  0  0  0  0  0  0  0
    7.5062  -12.4050   24.2147 C   0  0  0  0  0  0  0  0  0  0  0  0
    7.2497  -11.5532   25.2856 C   0  0  0  0  0  0  0  0  0  0  0  0
    9.9761  -16.9084   24.1248 N   0  0  0  0  0  0  0  0  0  0  0  0
   10.5327  -17.5297   25.3104 C   0  0  1  0  0  0  0  0  0  0  0  0
    9.7392  -18.7370   25.7405 C   0  0  0  0  0  0  0  0  0  0  0  0
   10.3343  -19.4413   26.9005 C   0  0  0  0  0  0  0  0  0  0  0  0
   10.2511  -19.0534   28.0824 O   0  0  0  0  0  0  0  0  0  0  0  0
   11.9388  -17.9314   25.1361 C   0  0  0  0  0  0  0  0  0  0  0  0
   12.6924  -18.1647   26.2756 O   0  0  0  0  0  0  0  0  0  0  0  0
   11.0407  -20.6278   26.6477 O   0  0  0  0  0  0  0  0  0  0  0  0
   12.4952  -18.0753   24.0314 O   0  0  0  0  0  0  0  0  0  0  0  0
  2  1  1  6
  3  2  1  0
  3  4  1  0
  4  5  2  0
  5  6  1  0
  7  6  1  0
  8  4  1  0
  8  7  2  0
  9 18  1  0
  9  2  1  0
 10  9  2  0
 11 12  1  0
 12 13  2  0
 13 14  1  0
 15 16  1  0
 15 14  2  0
 17 16  1  1
 17 18  1  0
 19 17  1  0
 20 19  2  0
 21 15  1  0
 22 21  2  0
 22 12  1  0
 23 19  1  0
 24 23  1  0
 25 26  1  0
 24 25  1  6
 26 27  2  0
 28 29  1  0
 28 24  1  0
 30 26  1  0
 31 28  2  0
M  END
$$$$
