HYD.pdb
     RDKit          3D

 31 32  0  0  1  0  0  0  0  0999 V2000
   10.7004  -15.0003   18.6681 N   0  0  0  0  0  0  0  0  0  0  0  0
    9.4466  -14.7399   19.2804 C   0  0  1  0  0  0  0  0  0  0  0  0
    8.3324  -15.6505   18.8112 C   0  0  0  0  0  0  0  0  0  0  0  0
    8.0079  -15.3388   17.4165 C   0  0  0  0  0  0  0  0  0  0  0  0
    7.6300  -14.1184   16.9244 C   0  0  0  0  0  0  0  0  0  0  0  0
    7.4179  -14.2343   15.5893 N   0  0  0  0  0  0  0  0  0  0  0  0
    7.6679  -15.5196   15.2841 C   0  0  0  0  0  0  0  0  0  0  0  0
    8.0240  -16.1878   16.3846 N   0  0  0  0  0  0  0  0  0  0  0  0
    9.4616  -14.7108   20.7638 C   0  0  0  0  0  0  0  0  0  0  0  0
   10.5353  -15.0382   21.3685 O   0  0  0  0  0  0  0  0  0  0  0  0
    6.8938  -12.4759   29.0761 O   0  0  0  0  0  0  0  0  0  0  0  0
    6.9967  -12.7131   27.6965 C   0  0  0  0  0  0  0  0  0  0  0  0
    7.6813  -11.8446   26.8747 C   0  0  0  0  0  0  0  0  0  0  0  0
    7.7872  -12.0702   25.5179 C   0  0  0  0  0  0  0  0  0  0  0  0
    7.2161  -13.1708   24.9204 C   0  0  0  0  0  0  0  0  0  0  0  0
    7.3083  -13.4411   23.4878 C   0  0  0  0  0  0  0  0  0  0  0  0
    8.5359  -14.1922   23.0459 C   0  0  2  0  0  0  0  0  0  0  0  0
    8.3814  -14.3489   21.5875 N   0  0  0  0  0  0  0  0  0  0  0  0
    8.6395  -15.5385   23.6533 C   0  0  0  0  0  0  0  0  0  0  0  0
    7.8440  -16.4506   23.3333 O   0  0  0  0  0  0  0  0  0  0  0  0
    6.5292  -14.0426   25.7440 C   0  0  0  0  0  0  0  0  0  0  0  0
    6.4189  -13.8202   27.1139 C   0  0  0  0  0  0  0  0  0  0  0  0
    9.6429  -15.8240   24.6101 N   0  0  0  0  0  0  0  0  0  0  0  0
    9.7046  -17.1026   25.2904 C   0  0  1  0  0  0  0  0  0  0  0  0
   11.0854  -17.7051   25.2356 C   0  0  0  0  0  0  0  0  0  0  0  0
   11.5883  -17.8823   23.8530 C   0  0  0  0  0  0  0  0  0  0  0  0
   10.9785  -18.4894   22.9508 O   0  0  0  0  0  0  0  0  0  0  0  0
    9.2862  -17.0185   26.7000 C   0  0  0  0  0  0  0  0  0  0  0  0
    9.1653  -18.2014   27.4120 O   0  0  0  0  0  0  0  0  0  0  0  0
   12.8391  -17.3269   23.5405 O   0  0  0  0  0  0  0  0  0  0  0  0
    9.0339  -15.9537   27.2941 O   0  0  0  0  0  0  0  0  0  0  0  0
  2  1  1  1
  3  2  1  0
  3  4  1  0
  4  5  2  0
  5  6  1  0
  7  6  1  0
  8  4  1  0
  8  7  2  0
  9 18  1  0
  9  2  1  0
 10  9  2  0
 11 12  1  0
 12 13  2  0
 13 14  1  0
 15 16  1  0
 15 14  2  0
 17 16  1  1
 17 18  1  0
 19 17  1  0
 20 19  2  0
 21 15  1  0
 22 21  2  0
 22 12  1  0
 23 19  1  0
 24 23  1  0
 25 26  1  0
 24 25  1  1
 26 27  2  0
 28 29  1  0
 28 24  1  0
 30 26  1  0
 31 28  2  0
M  END
$$$$
