HYD.pdb
     RDKit          3D

 31 32  0  0  1  0  0  0  0  0999 V2000
   10.4737  -17.0742   18.9296 N   0  0  0  0  0  0  0  0  0  0  0  0
    9.2883  -17.0882   19.7104 C   0  0  1  0  0  0  0  0  0  0  0  0
    8.6713  -18.4614   19.8666 C   0  0  0  0  0  0  0  0  0  0  0  0
    8.1712  -18.9176   18.5668 C   0  0  0  0  0  0  0  0  0  0  0  0
    7.6834  -18.1264   17.5616 C   0  0  0  0  0  0  0  0  0  0  0  0
    7.3211  -18.9185   16.5213 N   0  0  0  0  0  0  0  0  0  0  0  0
    7.5911  -20.1790   16.9031 C   0  0  0  0  0  0  0  0  0  0  0  0
    8.1040  -20.1811   18.1365 N   0  0  0  0  0  0  0  0  0  0  0  0
    9.4028  -16.4495   21.0447 C   0  0  0  0  0  0  0  0  0  0  0  0
   10.4421  -16.6841   21.7451 O   0  0  0  0  0  0  0  0  0  0  0  0
    6.9113  -11.7690   28.3107 O   0  0  0  0  0  0  0  0  0  0  0  0
    7.0729  -12.3156   27.0280 C   0  0  0  0  0  0  0  0  0  0  0  0
    8.1459  -11.9680   26.2367 C   0  0  0  0  0  0  0  0  0  0  0  0
    8.3122  -12.5005   24.9751 C   0  0  0  0  0  0  0  0  0  0  0  0
    7.4170  -13.4024   24.4464 C   0  0  0  0  0  0  0  0  0  0  0  0
    7.5616  -13.9861   23.1150 C   0  0  0  0  0  0  0  0  0  0  0  0
    8.6451  -15.0216   22.9736 C   0  0  2  0  0  0  0  0  0  0  0  0
    8.4542  -15.5903   21.6263 N   0  0  0  0  0  0  0  0  0  0  0  0
    8.5314  -16.1160   23.9644 C   0  0  0  0  0  0  0  0  0  0  0  0
    7.5647  -16.9109   23.9353 O   0  0  0  0  0  0  0  0  0  0  0  0
    6.3402  -13.7517   25.2394 C   0  0  0  0  0  0  0  0  0  0  0  0
    6.1672  -13.2178   26.5134 C   0  0  0  0  0  0  0  0  0  0  0  0
    9.5157  -16.2878   24.9671 N   0  0  0  0  0  0  0  0  0  0  0  0
    9.4086  -17.3305   25.9686 C   0  0  1  0  0  0  0  0  0  0  0  0
    9.9974  -18.6337   25.4919 C   0  0  0  0  0  0  0  0  0  0  0  0
   11.3900  -18.4988   25.0036 C   0  0  0  0  0  0  0  0  0  0  0  0
   12.0449  -17.4380   25.0173 O   0  0  0  0  0  0  0  0  0  0  0  0
   10.0509  -16.9648   27.2424 C   0  0  0  0  0  0  0  0  0  0  0  0
   10.5972  -15.6958   27.3521 O   0  0  0  0  0  0  0  0  0  0  0  0
   12.0127  -19.6476   24.4904 O   0  0  0  0  0  0  0  0  0  0  0  0
   10.1351  -17.7214   28.2278 O   0  0  0  0  0  0  0  0  0  0  0  0
  2  1  1  1
  3  2  1  0
  3  4  1  0
  4  5  2  0
  5  6  1  0
  7  6  1  0
  8  4  1  0
  8  7  2  0
  9 18  1  0
  9  2  1  0
 10  9  2  0
 11 12  1  0
 12 13  2  0
 13 14  1  0
 15 16  1  0
 15 14  2  0
 17 16  1  1
 17 18  1  0
 19 17  1  0
 20 19  2  0
 21 15  1  0
 22 21  2  0
 22 12  1  0
 23 19  1  0
 24 23  1  0
 25 26  1  0
 24 25  1  6
 26 27  2  0
 28 29  1  0
 28 24  1  0
 30 26  1  0
 31 28  2  0
M  END
$$$$
