HYD.pdb
     RDKit          3D

 31 32  0  0  1  0  0  0  0  0999 V2000
   10.8293  -17.1827   19.8889 N   0  0  0  0  0  0  0  0  0  0  0  0
    9.9693  -16.1746   20.3978 C   0  0  1  0  0  0  0  0  0  0  0  0
    8.5561  -16.2432   19.8602 C   0  0  0  0  0  0  0  0  0  0  0  0
    8.2995  -15.0679   19.0232 C   0  0  0  0  0  0  0  0  0  0  0  0
    9.1894  -14.0692   18.7315 C   0  0  0  0  0  0  0  0  0  0  0  0
    8.5778  -13.1622   17.9288 N   0  0  0  0  0  0  0  0  0  0  0  0
    7.3265  -13.6169   17.7412 C   0  0  0  0  0  0  0  0  0  0  0  0
    7.1562  -14.7662   18.4004 N   0  0  0  0  0  0  0  0  0  0  0  0
    9.9246  -16.0696   21.8771 C   0  0  0  0  0  0  0  0  0  0  0  0
   11.0180  -16.1568   22.5272 O   0  0  0  0  0  0  0  0  0  0  0  0
    6.0410  -11.2680   28.3852 O   0  0  0  0  0  0  0  0  0  0  0  0
    6.3913  -12.0033   27.2420 C   0  0  0  0  0  0  0  0  0  0  0  0
    7.2566  -11.4872   26.3021 C   0  0  0  0  0  0  0  0  0  0  0  0
    7.6061  -12.2030   25.1759 C   0  0  0  0  0  0  0  0  0  0  0  0
    7.1092  -13.4641   24.9366 C   0  0  0  0  0  0  0  0  0  0  0  0
    7.4576  -14.2502   23.7556 C   0  0  0  0  0  0  0  0  0  0  0  0
    8.7602  -15.0006   23.8355 C   0  0  2  0  0  0  0  0  0  0  0  0
    8.7664  -15.8790   22.6508 N   0  0  0  0  0  0  0  0  0  0  0  0
    8.8666  -15.8463   25.0461 C   0  0  0  0  0  0  0  0  0  0  0  0
    8.9261  -15.3319   26.1859 O   0  0  0  0  0  0  0  0  0  0  0  0
    6.2412  -13.9825   25.8789 C   0  0  0  0  0  0  0  0  0  0  0  0
    5.8848  -13.2650   27.0174 C   0  0  0  0  0  0  0  0  0  0  0  0
    8.9025  -17.2575   24.9407 N   0  0  0  0  0  0  0  0  0  0  0  0
    8.9256  -18.1085   26.1141 C   0  0  1  0  0  0  0  0  0  0  0  0
    8.2624  -19.4381   25.8603 C   0  0  0  0  0  0  0  0  0  0  0  0
    6.9823  -19.3185   25.1234 C   0  0  0  0  0  0  0  0  0  0  0  0
    6.4130  -18.2399   24.8648 O   0  0  0  0  0  0  0  0  0  0  0  0
   10.2894  -18.3533   26.6133 C   0  0  0  0  0  0  0  0  0  0  0  0
   10.4293  -19.0616   27.7962 O   0  0  0  0  0  0  0  0  0  0  0  0
    6.3702  -20.5043   24.6876 O   0  0  0  0  0  0  0  0  0  0  0  0
   11.3254  -17.9654   26.0416 O   0  0  0  0  0  0  0  0  0  0  0  0
  2  1  1  1
  3  2  1  0
  3  4  1  0
  4  5  2  0
  5  6  1  0
  7  6  1  0
  8  4  1  0
  8  7  2  0
  9 18  1  0
  9  2  1  0
 10  9  2  0
 11 12  1  0
 12 13  2  0
 13 14  1  0
 15 16  1  0
 15 14  2  0
 17 16  1  1
 17 18  1  0
 19 17  1  0
 20 19  2  0
 21 15  1  0
 22 21  2  0
 22 12  1  0
 23 19  1  0
 24 23  1  0
 25 26  1  0
 24 25  1  6
 26 27  2  0
 28 29  1  0
 28 24  1  0
 30 26  1  0
 31 28  2  0
M  END
$$$$
