HYD.pdb
     RDKit          3D

 31 32  0  0  1  0  0  0  0  0999 V2000
   10.8485  -18.1576   19.2514 N   0  0  0  0  0  0  0  0  0  0  0  0
   11.4518  -16.8735   19.2058 C   0  0  1  0  0  0  0  0  0  0  0  0
   11.1516  -16.0978   17.9414 C   0  0  0  0  0  0  0  0  0  0  0  0
   11.9667  -16.6268   16.8444 C   0  0  0  0  0  0  0  0  0  0  0  0
   13.2539  -17.0839   16.9370 C   0  0  0  0  0  0  0  0  0  0  0  0
   13.6611  -17.4895   15.7079 N   0  0  0  0  0  0  0  0  0  0  0  0
   12.6210  -17.2756   14.8831 C   0  0  0  0  0  0  0  0  0  0  0  0
   11.5978  -16.7553   15.5663 N   0  0  0  0  0  0  0  0  0  0  0  0
   11.1886  -16.0095   20.3830 C   0  0  0  0  0  0  0  0  0  0  0  0
   11.9615  -15.0180   20.5957 O   0  0  0  0  0  0  0  0  0  0  0  0
    7.1826  -12.3206   17.3959 O   0  0  0  0  0  0  0  0  0  0  0  0
    7.5154  -12.9312   18.6152 C   0  0  0  0  0  0  0  0  0  0  0  0
    6.9999  -14.1620   18.9583 C   0  0  0  0  0  0  0  0  0  0  0  0
    7.3218  -14.7691   20.1544 C   0  0  0  0  0  0  0  0  0  0  0  0
    8.1713  -14.1769   21.0611 C   0  0  0  0  0  0  0  0  0  0  0  0
    8.5339  -14.7905   22.3363 C   0  0  0  0  0  0  0  0  0  0  0  0
    9.9588  -15.2631   22.4480 C   0  0  2  0  0  0  0  0  0  0  0  0
   10.1453  -16.1817   21.3093 N   0  0  0  0  0  0  0  0  0  0  0  0
   10.2239  -16.0086   23.6995 C   0  0  0  0  0  0  0  0  0  0  0  0
    9.9868  -15.4944   24.8160 O   0  0  0  0  0  0  0  0  0  0  0  0
    8.6889  -12.9422   20.7178 C   0  0  0  0  0  0  0  0  0  0  0  0
    8.3678  -12.3246   19.5121 C   0  0  0  0  0  0  0  0  0  0  0  0
   10.7514  -17.3216   23.6602 N   0  0  0  0  0  0  0  0  0  0  0  0
   11.0821  -18.0460   24.8717 C   0  0  1  0  0  0  0  0  0  0  0  0
   10.8884  -19.5323   24.7113 C   0  0  0  0  0  0  0  0  0  0  0  0
    9.6604  -19.8811   23.9589 C   0  0  0  0  0  0  0  0  0  0  0  0
    8.5350  -19.3899   24.1746 O   0  0  0  0  0  0  0  0  0  0  0  0
   12.4619  -17.7998   25.3238 C   0  0  0  0  0  0  0  0  0  0  0  0
   13.2736  -17.0078   24.5270 O   0  0  0  0  0  0  0  0  0  0  0  0
    9.7756  -20.8314   22.9320 O   0  0  0  0  0  0  0  0  0  0  0  0
   12.9473  -18.2567   26.3756 O   0  0  0  0  0  0  0  0  0  0  0  0
  2  1  1  1
  3  2  1  0
  3  4  1  0
  4  5  2  0
  5  6  1  0
  7  6  1  0
  8  4  1  0
  8  7  2  0
  9 18  1  0
  9  2  1  0
 10  9  2  0
 11 12  1  0
 12 13  2  0
 13 14  1  0
 15 16  1  0
 15 14  2  0
 17 16  1  1
 17 18  1  0
 19 17  1  0
 20 19  2  0
 21 15  1  0
 22 21  2  0
 22 12  1  0
 23 19  1  0
 24 23  1  0
 25 26  1  0
 24 25  1  6
 26 27  2  0
 28 29  1  0
 28 24  1  0
 30 26  1  0
 31 28  2  0
M  END
$$$$
