HYD.pdb
     RDKit          3D

 31 32  0  0  1  0  0  0  0  0999 V2000
    9.6883  -16.3475   18.2756 N   0  0  0  0  0  0  0  0  0  0  0  0
    8.7991  -16.7441   19.3085 C   0  0  1  0  0  0  0  0  0  0  0  0
    8.7557  -18.2389   19.5420 C   0  0  0  0  0  0  0  0  0  0  0  0
   10.0113  -18.8372   19.0804 C   0  0  0  0  0  0  0  0  0  0  0  0
   10.6954  -18.5102   17.9404 C   0  0  0  0  0  0  0  0  0  0  0  0
   11.8075  -19.2836   17.8634 N   0  0  0  0  0  0  0  0  0  0  0  0
   11.7885  -20.0705   18.9534 C   0  0  0  0  0  0  0  0  0  0  0  0
   10.7061  -19.8030   19.6891 N   0  0  0  0  0  0  0  0  0  0  0  0
    8.9902  -16.0523   20.6071 C   0  0  0  0  0  0  0  0  0  0  0  0
   10.1712  -15.7153   20.9497 O   0  0  0  0  0  0  0  0  0  0  0  0
    6.8969  -11.9385   28.3144 O   0  0  0  0  0  0  0  0  0  0  0  0
    6.9115  -12.5435   27.0479 C   0  0  0  0  0  0  0  0  0  0  0  0
    6.4281  -13.8206   26.8641 C   0  0  0  0  0  0  0  0  0  0  0  0
    6.4387  -14.4224   25.6229 C   0  0  0  0  0  0  0  0  0  0  0  0
    6.9312  -13.7787   24.5105 C   0  0  0  0  0  0  0  0  0  0  0  0
    6.9579  -14.3851   23.1817 C   0  0  0  0  0  0  0  0  0  0  0  0
    8.2597  -15.0303   22.7879 C   0  0  2  0  0  0  0  0  0  0  0  0
    7.9716  -15.7244   21.5189 N   0  0  0  0  0  0  0  0  0  0  0  0
    8.7301  -16.0308   23.7727 C   0  0  0  0  0  0  0  0  0  0  0  0
    8.1863  -17.1554   23.8556 O   0  0  0  0  0  0  0  0  0  0  0  0
    7.4163  -12.4976   24.6939 C   0  0  0  0  0  0  0  0  0  0  0  0
    7.4082  -11.8849   25.9440 C   0  0  0  0  0  0  0  0  0  0  0  0
    9.8073  -15.7370   24.6428 N   0  0  0  0  0  0  0  0  0  0  0  0
   10.2763  -16.6949   25.6247 C   0  0  1  0  0  0  0  0  0  0  0  0
   11.7559  -16.9538   25.4988 C   0  0  0  0  0  0  0  0  0  0  0  0
   12.1219  -17.6352   24.2348 C   0  0  0  0  0  0  0  0  0  0  0  0
   11.5138  -18.6128   23.7564 O   0  0  0  0  0  0  0  0  0  0  0  0
    9.9897  -16.2790   27.0081 C   0  0  0  0  0  0  0  0  0  0  0  0
   10.3011  -17.1636   28.0285 O   0  0  0  0  0  0  0  0  0  0  0  0
   13.2314  -17.1434   23.5293 O   0  0  0  0  0  0  0  0  0  0  0  0
    9.4859  -15.1841   27.3210 O   0  0  0  0  0  0  0  0  0  0  0  0
  2  1  1  6
  3  2  1  0
  3  4  1  0
  4  5  2  0
  5  6  1  0
  7  6  1  0
  8  4  1  0
  8  7  2  0
  9 18  1  0
  9  2  1  0
 10  9  2  0
 11 12  1  0
 12 13  2  0
 13 14  1  0
 15 16  1  0
 15 14  2  0
 17 16  1  1
 17 18  1  0
 19 17  1  0
 20 19  2  0
 21 15  1  0
 22 21  2  0
 22 12  1  0
 23 19  1  0
 24 23  1  0
 25 26  1  0
 24 25  1  1
 26 27  2  0
 28 29  1  0
 28 24  1  0
 30 26  1  0
 31 28  2  0
M  END
$$$$
