HYD.pdb
     RDKit          3D

 31 32  0  0  1  0  0  0  0  0999 V2000
   10.4338  -17.1159   19.2029 N   0  0  0  0  0  0  0  0  0  0  0  0
    9.5182  -17.3848   20.2537 C   0  0  1  0  0  0  0  0  0  0  0  0
    9.6005  -18.7958   20.7949 C   0  0  0  0  0  0  0  0  0  0  0  0
    9.2702  -19.7434   19.7269 C   0  0  0  0  0  0  0  0  0  0  0  0
    8.1315  -19.7451   18.9667 C   0  0  0  0  0  0  0  0  0  0  0  0
    8.1968  -20.7762   18.0874 N   0  0  0  0  0  0  0  0  0  0  0  0
    9.3705  -21.3893   18.3209 C   0  0  0  0  0  0  0  0  0  0  0  0
   10.0197  -20.7681   19.3094 N   0  0  0  0  0  0  0  0  0  0  0  0
    9.5545  -16.4250   21.3847 C   0  0  0  0  0  0  0  0  0  0  0  0
   10.6489  -15.8209   21.6358 O   0  0  0  0  0  0  0  0  0  0  0  0
    6.4249  -11.0105   27.8443 O   0  0  0  0  0  0  0  0  0  0  0  0
    6.6114  -11.8928   26.7686 C   0  0  0  0  0  0  0  0  0  0  0  0
    7.2756  -11.4944   25.6290 C   0  0  0  0  0  0  0  0  0  0  0  0
    7.4633  -12.3551   24.5674 C   0  0  0  0  0  0  0  0  0  0  0  0
    6.9976  -13.6500   24.5943 C   0  0  0  0  0  0  0  0  0  0  0  0
    7.1782  -14.5881   23.4892 C   0  0  0  0  0  0  0  0  0  0  0  0
    8.5848  -15.0819   23.2793 C   0  0  2  0  0  0  0  0  0  0  0  0
    8.4741  -16.1093   22.2269 N   0  0  0  0  0  0  0  0  0  0  0  0
    9.1631  -15.7106   24.4886 C   0  0  0  0  0  0  0  0  0  0  0  0
    9.3632  -15.0412   25.5274 O   0  0  0  0  0  0  0  0  0  0  0  0
    6.3311  -14.0504   25.7370 C   0  0  0  0  0  0  0  0  0  0  0  0
    6.1388  -13.1865   26.8117 C   0  0  0  0  0  0  0  0  0  0  0  0
    9.5019  -17.0850   24.4965 N   0  0  0  0  0  0  0  0  0  0  0  0
   10.1084  -17.7131   25.6538 C   0  0  1  0  0  0  0  0  0  0  0  0
    9.3025  -18.8884   26.1453 C   0  0  0  0  0  0  0  0  0  0  0  0
    8.8814  -18.7543   27.5597 C   0  0  0  0  0  0  0  0  0  0  0  0
    9.2461  -17.8381   28.3226 O   0  0  0  0  0  0  0  0  0  0  0  0
   11.4871  -18.1643   25.3998 C   0  0  0  0  0  0  0  0  0  0  0  0
   11.6994  -19.0381   24.3452 O   0  0  0  0  0  0  0  0  0  0  0  0
    8.0110  -19.7285   28.0736 O   0  0  0  0  0  0  0  0  0  0  0  0
   12.4751  -17.8118   26.0708 O   0  0  0  0  0  0  0  0  0  0  0  0
  2  1  1  6
  3  2  1  0
  3  4  1  0
  4  5  2  0
  5  6  1  0
  7  6  1  0
  8  4  1  0
  8  7  2  0
  9 18  1  0
  9  2  1  0
 10  9  2  0
 11 12  1  0
 12 13  2  0
 13 14  1  0
 15 16  1  0
 15 14  2  0
 17 16  1  1
 17 18  1  0
 19 17  1  0
 20 19  2  0
 21 15  1  0
 22 21  2  0
 22 12  1  0
 23 19  1  0
 24 23  1  0
 25 26  1  0
 24 25  1  6
 26 27  2  0
 28 29  1  0
 28 24  1  0
 30 26  1  0
 31 28  2  0
M  END
$$$$
