HYD.pdb
     RDKit          3D

 31 32  0  0  1  0  0  0  0  0999 V2000
   10.7608  -17.1909   19.7365 N   0  0  0  0  0  0  0  0  0  0  0  0
    9.7487  -17.4329   20.7019 C   0  0  1  0  0  0  0  0  0  0  0  0
    9.7897  -18.8223   21.3006 C   0  0  0  0  0  0  0  0  0  0  0  0
    9.5257  -19.8096   20.2502 C   0  0  0  0  0  0  0  0  0  0  0  0
    8.6201  -19.6877   19.2308 C   0  0  0  0  0  0  0  0  0  0  0  0
    8.6708  -20.8081   18.4673 N   0  0  0  0  0  0  0  0  0  0  0  0
    9.6035  -21.5975   19.0283 C   0  0  0  0  0  0  0  0  0  0  0  0
   10.1206  -20.9973   20.1039 N   0  0  0  0  0  0  0  0  0  0  0  0
    9.6653  -16.4325   21.7945 C   0  0  0  0  0  0  0  0  0  0  0  0
   10.7232  -15.8020   22.1250 O   0  0  0  0  0  0  0  0  0  0  0  0
    6.0993  -10.6919   27.6773 O   0  0  0  0  0  0  0  0  0  0  0  0
    6.3589  -11.6253   26.6616 C   0  0  0  0  0  0  0  0  0  0  0  0
    5.8504  -12.9043   26.7242 C   0  0  0  0  0  0  0  0  0  0  0  0
    6.1006  -13.8276   25.7303 C   0  0  0  0  0  0  0  0  0  0  0  0
    6.8681  -13.5174   24.6306 C   0  0  0  0  0  0  0  0  0  0  0  0
    7.1532  -14.4695   23.5599 C   0  0  0  0  0  0  0  0  0  0  0  0
    8.5222  -15.0946   23.5937 C   0  0  2  0  0  0  0  0  0  0  0  0
    8.5060  -16.1041   22.5186 N   0  0  0  0  0  0  0  0  0  0  0  0
    8.8138  -15.7786   24.8741 C   0  0  0  0  0  0  0  0  0  0  0  0
    8.8937  -15.1329   25.9436 O   0  0  0  0  0  0  0  0  0  0  0  0
    7.3785  -12.2346   24.5670 C   0  0  0  0  0  0  0  0  0  0  0  0
    7.1294  -11.2984   25.5669 C   0  0  0  0  0  0  0  0  0  0  0  0
    9.0079  -17.1801   24.9165 N   0  0  0  0  0  0  0  0  0  0  0  0
    9.3782  -17.8609   26.1417 C   0  0  1  0  0  0  0  0  0  0  0  0
    9.0310  -19.3272   26.0998 C   0  0  0  0  0  0  0  0  0  0  0  0
    7.5711  -19.5802   26.1203 C   0  0  0  0  0  0  0  0  0  0  0  0
    6.7027  -18.7000   26.2802 O   0  0  0  0  0  0  0  0  0  0  0  0
   10.8107  -17.7278   26.4566 C   0  0  0  0  0  0  0  0  0  0  0  0
   11.2666  -18.2748   27.6456 O   0  0  0  0  0  0  0  0  0  0  0  0
    7.1387  -20.9045   25.9474 O   0  0  0  0  0  0  0  0  0  0  0  0
   11.6395  -17.1558   25.7241 O   0  0  0  0  0  0  0  0  0  0  0  0
  2  1  1  1
  3  2  1  0
  3  4  1  0
  4  5  2  0
  5  6  1  0
  7  6  1  0
  8  4  1  0
  8  7  2  0
  9 18  1  0
  9  2  1  0
 10  9  2  0
 11 12  1  0
 12 13  2  0
 13 14  1  0
 15 16  1  0
 15 14  2  0
 17 16  1  1
 17 18  1  0
 19 17  1  0
 20 19  2  0
 21 15  1  0
 22 21  2  0
 22 12  1  0
 23 19  1  0
 24 23  1  0
 25 26  1  0
 24 25  1  6
 26 27  2  0
 28 29  1  0
 28 24  1  0
 30 26  1  0
 31 28  2  0
M  END
$$$$
