HYD.pdb
     RDKit          3D

 31 32  0  0  1  0  0  0  0  0999 V2000
   10.7825  -16.2248   18.4380 N   0  0  0  0  0  0  0  0  0  0  0  0
   10.0191  -16.8805   19.4391 C   0  0  1  0  0  0  0  0  0  0  0  0
   10.3827  -18.3366   19.6343 C   0  0  0  0  0  0  0  0  0  0  0  0
   10.2809  -19.0368   18.3509 C   0  0  0  0  0  0  0  0  0  0  0  0
    9.1299  -19.2938   17.6556 C   0  0  0  0  0  0  0  0  0  0  0  0
    9.4486  -19.9602   16.5175 N   0  0  0  0  0  0  0  0  0  0  0  0
   10.7856  -20.1014   16.5322 C   0  0  0  0  0  0  0  0  0  0  0  0
   11.2899  -19.5452   17.6371 N   0  0  0  0  0  0  0  0  0  0  0  0
    9.9921  -16.2026   20.7586 C   0  0  0  0  0  0  0  0  0  0  0  0
   11.0808  -15.7264   21.2210 O   0  0  0  0  0  0  0  0  0  0  0  0
    6.6317  -12.0534   27.9668 O   0  0  0  0  0  0  0  0  0  0  0  0
    6.8669  -12.6904   26.7383 C   0  0  0  0  0  0  0  0  0  0  0  0
    7.4519  -12.0167   25.6884 C   0  0  0  0  0  0  0  0  0  0  0  0
    7.6865  -12.6351   24.4779 C   0  0  0  0  0  0  0  0  0  0  0  0
    7.3487  -13.9516   24.2601 C   0  0  0  0  0  0  0  0  0  0  0  0
    7.5824  -14.6381   22.9920 C   0  0  0  0  0  0  0  0  0  0  0  0
    8.9218  -15.3115   22.8548 C   0  0  2  0  0  0  0  0  0  0  0  0
    8.8562  -16.0301   21.5685 N   0  0  0  0  0  0  0  0  0  0  0  0
    9.1862  -16.2961   23.9284 C   0  0  0  0  0  0  0  0  0  0  0  0
    8.5401  -17.3665   23.9918 O   0  0  0  0  0  0  0  0  0  0  0  0
    6.7618  -14.6281   25.3128 C   0  0  0  0  0  0  0  0  0  0  0  0
    6.5226  -14.0094   26.5368 C   0  0  0  0  0  0  0  0  0  0  0  0
   10.1778  -16.0482   24.9077 N   0  0  0  0  0  0  0  0  0  0  0  0
   10.4760  -17.0105   25.9503 C   0  0  1  0  0  0  0  0  0  0  0  0
   11.9538  -17.2882   26.0562 C   0  0  0  0  0  0  0  0  0  0  0  0
   12.5879  -17.5707   24.7470 C   0  0  0  0  0  0  0  0  0  0  0  0
   12.1702  -18.4098   23.9249 O   0  0  0  0  0  0  0  0  0  0  0  0
    9.9829  -16.5889   27.2724 C   0  0  0  0  0  0  0  0  0  0  0  0
   10.0779  -17.4932   28.3183 O   0  0  0  0  0  0  0  0  0  0  0  0
   13.7395  -16.8410   24.4120 O   0  0  0  0  0  0  0  0  0  0  0  0
    9.4861  -15.4725   27.5122 O   0  0  0  0  0  0  0  0  0  0  0  0
  2  1  1  6
  3  2  1  0
  3  4  1  0
  4  5  2  0
  5  6  1  0
  7  6  1  0
  8  4  1  0
  8  7  2  0
  9 18  1  0
  9  2  1  0
 10  9  2  0
 11 12  1  0
 12 13  2  0
 13 14  1  0
 15 16  1  0
 15 14  2  0
 17 16  1  1
 17 18  1  0
 19 17  1  0
 20 19  2  0
 21 15  1  0
 22 21  2  0
 22 12  1  0
 23 19  1  0
 24 23  1  0
 25 26  1  0
 24 25  1  1
 26 27  2  0
 28 29  1  0
 28 24  1  0
 30 26  1  0
 31 28  2  0
M  END
$$$$
