HYD.pdb
     RDKit          3D

 31 32  0  0  1  0  0  0  0  0999 V2000
   10.0460  -17.7346   17.7940 N   0  0  0  0  0  0  0  0  0  0  0  0
    9.6034  -18.3053   19.0160 C   0  0  1  0  0  0  0  0  0  0  0  0
    9.9465  -19.7713   19.1698 C   0  0  0  0  0  0  0  0  0  0  0  0
   11.1970  -20.0525   18.4592 C   0  0  0  0  0  0  0  0  0  0  0  0
   12.4141  -20.3125   19.0298 C   0  0  0  0  0  0  0  0  0  0  0  0
   13.3215  -20.5219   18.0430 N   0  0  0  0  0  0  0  0  0  0  0  0
   12.6494  -20.3875   16.8863 C   0  0  0  0  0  0  0  0  0  0  0  0
   11.3678  -20.1044   17.1347 N   0  0  0  0  0  0  0  0  0  0  0  0
   10.0165  -17.5759   20.2403 C   0  0  0  0  0  0  0  0  0  0  0  0
   11.1876  -17.0735   20.2839 O   0  0  0  0  0  0  0  0  0  0  0  0
    6.9894  -12.0603   18.6322 O   0  0  0  0  0  0  0  0  0  0  0  0
    7.3619  -12.9407   19.6600 C   0  0  0  0  0  0  0  0  0  0  0  0
    8.4730  -12.6968   20.4375 C   0  0  0  0  0  0  0  0  0  0  0  0
    8.8459  -13.5568   21.4496 C   0  0  0  0  0  0  0  0  0  0  0  0
    8.1286  -14.6972   21.7315 C   0  0  0  0  0  0  0  0  0  0  0  0
    8.4943  -15.6295   22.7951 C   0  0  0  0  0  0  0  0  0  0  0  0
    9.6687  -16.5238   22.4999 C   0  0  2  0  0  0  0  0  0  0  0  0
    9.2238  -17.3803   21.3847 N   0  0  0  0  0  0  0  0  0  0  0  0
   10.0342  -17.3933   23.6412 C   0  0  0  0  0  0  0  0  0  0  0  0
    9.4445  -18.4805   23.8352 O   0  0  0  0  0  0  0  0  0  0  0  0
    7.0140  -14.9426   20.9521 C   0  0  0  0  0  0  0  0  0  0  0  0
    6.6325  -14.0784   19.9295 C   0  0  0  0  0  0  0  0  0  0  0  0
   11.0608  -17.0137   24.5388 N   0  0  0  0  0  0  0  0  0  0  0  0
   11.6150  -17.9464   25.5004 C   0  0  1  0  0  0  0  0  0  0  0  0
   13.1186  -18.0154   25.4179 C   0  0  0  0  0  0  0  0  0  0  0  0
   13.7196  -18.8778   26.4624 C   0  0  0  0  0  0  0  0  0  0  0  0
   13.7034  -18.6261   27.6833 O   0  0  0  0  0  0  0  0  0  0  0  0
   11.2364  -17.6268   26.8872 C   0  0  0  0  0  0  0  0  0  0  0  0
   10.4716  -16.4918   27.1053 O   0  0  0  0  0  0  0  0  0  0  0  0
   14.3505  -20.0603   26.0447 O   0  0  0  0  0  0  0  0  0  0  0  0
   11.5584  -18.3101   27.8772 O   0  0  0  0  0  0  0  0  0  0  0  0
  2  1  1  6
  3  2  1  0
  3  4  1  0
  4  5  2  0
  5  6  1  0
  7  6  1  0
  8  4  1  0
  8  7  2  0
  9 18  1  0
  9  2  1  0
 10  9  2  0
 11 12  1  0
 12 13  2  0
 13 14  1  0
 15 16  1  0
 15 14  2  0
 17 16  1  1
 17 18  1  0
 19 17  1  0
 20 19  2  0
 21 15  1  0
 22 21  2  0
 22 12  1  0
 23 19  1  0
 24 23  1  0
 25 26  1  0
 24 25  1  1
 26 27  2  0
 28 29  1  0
 28 24  1  0
 30 26  1  0
 31 28  2  0
M  END
$$$$
