HYD.pdb
     RDKit          3D

 31 32  0  0  1  0  0  0  0  0999 V2000
   10.3033  -16.9245   18.5515 N   0  0  0  0  0  0  0  0  0  0  0  0
    9.2438  -17.1426   19.4706 C   0  0  1  0  0  0  0  0  0  0  0  0
    8.9904  -18.6019   19.7817 C   0  0  0  0  0  0  0  0  0  0  0  0
    8.4269  -19.2579   18.5985 C   0  0  0  0  0  0  0  0  0  0  0  0
    7.4343  -18.7667   17.7936 C   0  0  0  0  0  0  0  0  0  0  0  0
    7.1913  -19.6641   16.8054 N   0  0  0  0  0  0  0  0  0  0  0  0
    8.0355  -20.6886   17.0188 C   0  0  0  0  0  0  0  0  0  0  0  0
    8.7819  -20.4458   18.0997 N   0  0  0  0  0  0  0  0  0  0  0  0
    9.3428  -16.3824   20.7410 C   0  0  0  0  0  0  0  0  0  0  0  0
   10.4936  -16.2200   21.2655 O   0  0  0  0  0  0  0  0  0  0  0  0
    6.5995  -11.8953   28.0375 O   0  0  0  0  0  0  0  0  0  0  0  0
    6.7414  -12.4992   26.7784 C   0  0  0  0  0  0  0  0  0  0  0  0
    7.4539  -11.8855   25.7715 C   0  0  0  0  0  0  0  0  0  0  0  0
    7.5982  -12.4721   24.5313 C   0  0  0  0  0  0  0  0  0  0  0  0
    7.0392  -13.6956   24.2399 C   0  0  0  0  0  0  0  0  0  0  0  0
    7.1717  -14.3459   22.9385 C   0  0  0  0  0  0  0  0  0  0  0  0
    8.4606  -15.0901   22.7122 C   0  0  2  0  0  0  0  0  0  0  0  0
    8.2656  -15.8103   21.4399 N   0  0  0  0  0  0  0  0  0  0  0  0
    8.7489  -16.0823   23.7726 C   0  0  0  0  0  0  0  0  0  0  0  0
    8.0505  -17.1142   23.8938 O   0  0  0  0  0  0  0  0  0  0  0  0
    6.3242  -14.3120   25.2494 C   0  0  0  0  0  0  0  0  0  0  0  0
    6.1753  -13.7250   26.5030 C   0  0  0  0  0  0  0  0  0  0  0  0
    9.8230  -15.8855   24.6733 N   0  0  0  0  0  0  0  0  0  0  0  0
   10.1569  -16.8672   25.6864 C   0  0  1  0  0  0  0  0  0  0  0  0
   11.6075  -17.2725   25.6234 C   0  0  0  0  0  0  0  0  0  0  0  0
   11.9210  -18.1331   24.4584 C   0  0  0  0  0  0  0  0  0  0  0  0
   11.0717  -18.5951   23.6713 O   0  0  0  0  0  0  0  0  0  0  0  0
    9.8601  -16.4006   27.0513 C   0  0  0  0  0  0  0  0  0  0  0  0
    9.9504  -17.3197   28.0847 O   0  0  0  0  0  0  0  0  0  0  0  0
   13.2693  -18.4485   24.2278 O   0  0  0  0  0  0  0  0  0  0  0  0
    9.5333  -15.2337   27.3379 O   0  0  0  0  0  0  0  0  0  0  0  0
  2  1  1  1
  3  2  1  0
  3  4  1  0
  4  5  2  0
  5  6  1  0
  7  6  1  0
  8  4  1  0
  8  7  2  0
  9 18  1  0
  9  2  1  0
 10  9  2  0
 11 12  1  0
 12 13  2  0
 13 14  1  0
 15 16  1  0
 15 14  2  0
 17 16  1  1
 17 18  1  0
 19 17  1  0
 20 19  2  0
 21 15  1  0
 22 21  2  0
 22 12  1  0
 23 19  1  0
 24 23  1  0
 25 26  1  0
 24 25  1  1
 26 27  2  0
 28 29  1  0
 28 24  1  0
 30 26  1  0
 31 28  2  0
M  END
$$$$
