YAM.pdb
     RDKit          3D

 26 26  0  0  1  0  0  0  0  0999 V2000
   11.1054  -15.6738   31.6331 O   0  0  0  0  0  0  0  0  0  0  0  0
   10.8864  -15.6629   30.2552 C   0  0  0  0  0  0  0  0  0  0  0  0
   10.6653  -16.8886   29.6474 C   0  0  0  0  0  0  0  0  0  0  0  0
   10.4429  -16.9415   28.2879 C   0  0  0  0  0  0  0  0  0  0  0  0
   10.4485  -15.7563   27.5726 C   0  0  0  0  0  0  0  0  0  0  0  0
   10.2132  -15.7990   26.1242 C   0  0  0  0  0  0  0  0  0  0  0  0
   11.0251  -16.9040   25.4412 C   0  0  2  0  0  0  0  0  0  0  0  0
   12.4163  -16.5922   25.7008 N   0  0  0  0  0  0  0  0  0  0  0  0
   10.7015  -16.8209   23.9948 C   0  0  0  0  0  0  0  0  0  0  0  0
   11.2811  -15.9350   23.3211 O   0  0  0  0  0  0  0  0  0  0  0  0
   10.6670  -14.5307   28.1651 C   0  0  0  0  0  0  0  0  0  0  0  0
   10.8868  -14.4992   29.5218 C   0  0  0  0  0  0  0  0  0  0  0  0
    9.0469  -18.9354   21.4363 C   0  0  0  0  0  0  0  0  0  0  0  0
    9.3905  -17.5397   21.9676 C   0  0  2  0  0  0  0  0  0  0  0  0
    9.7849  -17.6754   23.3356 N   0  0  0  0  0  0  0  0  0  0  0  0
    8.1352  -16.6971   21.8733 C   0  0  0  0  0  0  0  0  0  0  0  0
    7.0246  -17.1658   22.1660 O   0  0  0  0  0  0  0  0  0  0  0  0
    8.2975  -12.3604   25.5437 C   0  0  0  0  0  0  0  0  0  0  0  0
    6.6147  -12.6811   24.9530 S   0  0  0  0  0  0  0  0  0  0  0  0
    6.7414  -13.9901   23.6719 C   0  0  0  0  0  0  0  0  0  0  0  0
    6.9591  -13.3878   22.3115 C   0  0  0  0  0  0  0  0  0  0  0  0
    7.1019  -14.4481   21.2592 C   0  0  2  0  0  0  0  0  0  0  0  0
    8.1850  -15.3573   21.4518 N   0  0  0  0  0  0  0  0  0  0  0  0
    7.3081  -13.8039   19.9510 C   0  0  0  0  0  0  0  0  0  0  0  0
    8.4413  -13.8230   19.3584 O   0  0  0  0  0  0  0  0  0  0  0  0
    6.3035  -13.1270   19.2532 O   0  0  0  0  0  0  0  0  0  0  0  0
  1  2  1  0
  2 12  2  0
  3  4  2  0
  3  2  1  0
  4  5  1  0
  5  6  1  0
  5 11  2  0
  7  8  1  6
  7  6  1  0
  7  9  1  0
  9 10  2  0
 12 11  1  0
 14 13  1  1
 14 16  1  0
 15  9  1  0
 15 14  1  0
 16 17  2  0
 18 19  1  0
 20 19  1  0
 21 20  1  0
 22 21  1  1
 22 24  1  0
 23 16  1  0
 23 22  1  0
 24 26  1  0
 25 24  2  0
M  END
$$$$
