YAM.pdb
     RDKit          3D

 26 26  0  0  1  0  0  0  0  0999 V2000
    8.2892  -12.1935   20.9044 O   0  0  0  0  0  0  0  0  0  0  0  0
    7.8243  -13.2239   21.7223 C   0  0  0  0  0  0  0  0  0  0  0  0
    7.4090  -14.3851   21.0900 C   0  0  0  0  0  0  0  0  0  0  0  0
    6.9394  -15.4383   21.8456 C   0  0  0  0  0  0  0  0  0  0  0  0
    6.8995  -15.2956   23.2219 C   0  0  0  0  0  0  0  0  0  0  0  0
    6.4012  -16.4097   24.0379 C   0  0  0  0  0  0  0  0  0  0  0  0
    6.9980  -17.7525   23.6050 C   0  0  2  0  0  0  0  0  0  0  0  0
    6.0731  -18.7663   24.0704 N   0  0  0  0  0  0  0  0  0  0  0  0
    8.3160  -17.8561   24.2803 C   0  0  0  0  0  0  0  0  0  0  0  0
    8.3262  -18.2371   25.4759 O   0  0  0  0  0  0  0  0  0  0  0  0
    7.3097  -14.1460   23.8631 C   0  0  0  0  0  0  0  0  0  0  0  0
    7.7747  -13.1073   23.0919 C   0  0  0  0  0  0  0  0  0  0  0  0
   11.8882  -17.7901   23.1841 C   0  0  0  0  0  0  0  0  0  0  0  0
   10.8296  -17.6936   24.2879 C   0  0  2  0  0  0  0  0  0  0  0  0
    9.5522  -17.5529   23.6602 N   0  0  0  0  0  0  0  0  0  0  0  0
   11.1408  -16.4583   25.1075 C   0  0  0  0  0  0  0  0  0  0  0  0
   12.2602  -15.9254   25.0648 O   0  0  0  0  0  0  0  0  0  0  0  0
    6.7554  -11.5862   24.8421 C   0  0  0  0  0  0  0  0  0  0  0  0
    7.2590  -12.3293   26.4161 S   0  0  0  0  0  0  0  0  0  0  0  0
    8.6579  -13.4596   26.0470 C   0  0  0  0  0  0  0  0  0  0  0  0
    9.2186  -14.0478   27.3122 C   0  0  0  0  0  0  0  0  0  0  0  0
   10.3712  -14.9653   27.0262 C   0  0  2  0  0  0  0  0  0  0  0  0
   10.1739  -15.8740   25.9436 N   0  0  0  0  0  0  0  0  0  0  0  0
   10.6500  -15.7761   28.2235 C   0  0  0  0  0  0  0  0  0  0  0  0
   11.4924  -15.4046   29.1112 O   0  0  0  0  0  0  0  0  0  0  0  0
   10.0312  -17.0006   28.4921 O   0  0  0  0  0  0  0  0  0  0  0  0
  1  2  1  0
  2 12  2  0
  3  4  2  0
  3  2  1  0
  4  5  1  0
  5  6  1  0
  5 11  2  0
  7  8  1  1
  7  6  1  0
  7  9  1  0
  9 10  2  0
 12 11  1  0
 14 13  1  6
 14 16  1  0
 15  9  1  0
 15 14  1  0
 16 17  2  0
 18 19  1  0
 20 19  1  0
 21 20  1  0
 22 21  1  1
 22 24  1  0
 23 16  1  0
 23 22  1  0
 24 26  1  0
 25 24  2  0
M  END
$$$$
