YAM.pdb
     RDKit          3D

 26 26  0  0  1  0  0  0  0  0999 V2000
    5.5064  -10.6323   26.6374 O   0  0  0  0  0  0  0  0  0  0  0  0
    5.9561  -11.9276   26.3792 C   0  0  0  0  0  0  0  0  0  0  0  0
    6.7160  -12.1092   25.2345 C   0  0  0  0  0  0  0  0  0  0  0  0
    7.1886  -13.3671   24.9264 C   0  0  0  0  0  0  0  0  0  0  0  0
    6.8837  -14.4130   25.7804 C   0  0  0  0  0  0  0  0  0  0  0  0
    7.3808  -15.7575   25.4634 C   0  0  0  0  0  0  0  0  0  0  0  0
    6.7042  -16.3432   24.2201 C   0  0  2  0  0  0  0  0  0  0  0  0
    5.8224  -17.3869   24.7028 N   0  0  0  0  0  0  0  0  0  0  0  0
    7.7952  -16.8898   23.3746 C   0  0  0  0  0  0  0  0  0  0  0  0
    8.1790  -18.0612   23.6095 O   0  0  0  0  0  0  0  0  0  0  0  0
    6.1291  -14.2457   26.9220 C   0  0  0  0  0  0  0  0  0  0  0  0
    5.6671  -12.9837   27.2117 C   0  0  0  0  0  0  0  0  0  0  0  0
    9.7129  -15.8326   20.3371 C   0  0  0  0  0  0  0  0  0  0  0  0
    9.6225  -16.5879   21.6674 C   0  0  2  0  0  0  0  0  0  0  0  0
    8.4231  -16.1735   22.3271 N   0  0  0  0  0  0  0  0  0  0  0  0
   10.8290  -16.1947   22.4947 C   0  0  0  0  0  0  0  0  0  0  0  0
   11.7359  -15.4973   22.0151 O   0  0  0  0  0  0  0  0  0  0  0  0
   11.5467  -13.7525   28.8167 C   0  0  0  0  0  0  0  0  0  0  0  0
   10.1318  -14.4916   27.9594 S   0  0  0  0  0  0  0  0  0  0  0  0
   10.6647  -14.8116   26.2319 C   0  0  0  0  0  0  0  0  0  0  0  0
   11.5549  -16.0214   26.1621 C   0  0  0  0  0  0  0  0  0  0  0  0
   12.0041  -16.2909   24.7558 C   0  0  2  0  0  0  0  0  0  0  0  0
   10.9626  -16.6054   23.8321 N   0  0  0  0  0  0  0  0  0  0  0  0
   12.9363  -17.4309   24.7580 C   0  0  0  0  0  0  0  0  0  0  0  0
   12.5974  -18.5831   24.3183 O   0  0  0  0  0  0  0  0  0  0  0  0
   14.2496  -17.3577   25.2316 O   0  0  0  0  0  0  0  0  0  0  0  0
  1  2  1  0
  2 12  2  0
  3  4  2  0
  3  2  1  0
  4  5  1  0
  5  6  1  0
  5 11  2  0
  7  8  1  1
  7  6  1  0
  7  9  1  0
  9 10  2  0
 12 11  1  0
 14 13  1  6
 14 16  1  0
 15  9  1  0
 15 14  1  0
 16 17  2  0
 18 19  1  0
 20 19  1  0
 21 20  1  0
 22 21  1  1
 22 24  1  0
 23 16  1  0
 23 22  1  0
 24 26  1  0
 25 24  2  0
M  END
$$$$
