YAM.pdb
     RDKit          3D

 26 26  0  0  1  0  0  0  0  0999 V2000
    8.4891  -13.6908   14.3188 O   0  0  0  0  0  0  0  0  0  0  0  0
    8.4390  -14.0538   15.6651 C   0  0  0  0  0  0  0  0  0  0  0  0
    7.7196  -13.2236   16.5102 C   0  0  0  0  0  0  0  0  0  0  0  0
    7.6342  -13.5304   17.8515 C   0  0  0  0  0  0  0  0  0  0  0  0
    8.2765  -14.6680   18.3095 C   0  0  0  0  0  0  0  0  0  0  0  0
    8.1934  -15.0057   19.7358 C   0  0  0  0  0  0  0  0  0  0  0  0
    7.7243  -16.4466   19.9600 C   0  0  2  0  0  0  0  0  0  0  0  0
    6.3153  -16.4624   19.6220 N   0  0  0  0  0  0  0  0  0  0  0  0
    7.9501  -16.7358   21.3984 C   0  0  0  0  0  0  0  0  0  0  0  0
    7.1198  -16.2760   22.2193 O   0  0  0  0  0  0  0  0  0  0  0  0
    8.9950  -15.5020   17.4794 C   0  0  0  0  0  0  0  0  0  0  0  0
    9.0682  -15.1787   16.1452 C   0  0  0  0  0  0  0  0  0  0  0  0
   10.4687  -18.7212   23.3738 C   0  0  0  0  0  0  0  0  0  0  0  0
    9.2547  -17.7909   23.2771 C   0  0  2  0  0  0  0  0  0  0  0  0
    9.0381  -17.4938   21.8950 N   0  0  0  0  0  0  0  0  0  0  0  0
    9.5953  -16.5218   24.0308 C   0  0  0  0  0  0  0  0  0  0  0  0
   10.3579  -15.6724   23.5452 O   0  0  0  0  0  0  0  0  0  0  0  0
    6.6212  -10.9170   28.4954 C   0  0  0  0  0  0  0  0  0  0  0  0
    6.3225  -12.3450   27.4206 S   0  0  0  0  0  0  0  0  0  0  0  0
    7.9419  -13.1753   27.1775 C   0  0  0  0  0  0  0  0  0  0  0  0
    7.8059  -14.3519   26.2512 C   0  0  0  0  0  0  0  0  0  0  0  0
    9.1184  -15.0543   26.0611 C   0  0  2  0  0  0  0  0  0  0  0  0
    9.0600  -16.2628   25.3043 N   0  0  0  0  0  0  0  0  0  0  0  0
    9.6760  -15.3986   27.3799 C   0  0  0  0  0  0  0  0  0  0  0  0
    9.5581  -16.5701   27.8794 O   0  0  0  0  0  0  0  0  0  0  0  0
   10.3705  -14.4940   28.1883 O   0  0  0  0  0  0  0  0  0  0  0  0
  1  2  1  0
  2 12  2  0
  3  4  2  0
  3  2  1  0
  4  5  1  0
  5  6  1  0
  5 11  2  0
  7  8  1  1
  7  6  1  0
  7  9  1  0
  9 10  2  0
 12 11  1  0
 14 13  1  6
 14 16  1  0
 15  9  1  0
 15 14  1  0
 16 17  2  0
 18 19  1  0
 20 19  1  0
 21 20  1  0
 22 21  1  1
 22 24  1  0
 23 16  1  0
 23 22  1  0
 24 26  1  0
 25 24  2  0
M  END
$$$$
