YAM.pdb
     RDKit          3D

 26 26  0  0  1  0  0  0  0  0999 V2000
    8.0004  -12.9443   15.9983 O   0  0  0  0  0  0  0  0  0  0  0  0
    8.1156  -13.4645   17.2879 C   0  0  0  0  0  0  0  0  0  0  0  0
    8.9479  -14.5611   17.4477 C   0  0  0  0  0  0  0  0  0  0  0  0
    9.1018  -15.1193   18.6988 C   0  0  0  0  0  0  0  0  0  0  0  0
    8.4125  -14.5582   19.7601 C   0  0  0  0  0  0  0  0  0  0  0  0
    8.5677  -15.1434   21.0975 C   0  0  0  0  0  0  0  0  0  0  0  0
    7.9913  -16.5605   21.1764 C   0  0  2  0  0  0  0  0  0  0  0  0
    6.5508  -16.4040   21.1672 N   0  0  0  0  0  0  0  0  0  0  0  0
    8.4761  -17.1334   22.4572 C   0  0  0  0  0  0  0  0  0  0  0  0
    7.9711  -16.6915   23.5177 O   0  0  0  0  0  0  0  0  0  0  0  0
    7.5818  -13.4675   19.6145 C   0  0  0  0  0  0  0  0  0  0  0  0
    7.4417  -12.9255   18.3589 C   0  0  0  0  0  0  0  0  0  0  0  0
   10.9110  -19.8368   23.4337 C   0  0  0  0  0  0  0  0  0  0  0  0
    9.8979  -18.7396   23.7775 C   0  0  2  0  0  0  0  0  0  0  0  0
    9.4665  -18.1407   22.5525 N   0  0  0  0  0  0  0  0  0  0  0  0
   10.6141  -17.7126   24.6301 C   0  0  0  0  0  0  0  0  0  0  0  0
   11.4521  -16.9419   24.1376 O   0  0  0  0  0  0  0  0  0  0  0  0
    8.3044  -13.2688   27.6678 C   0  0  0  0  0  0  0  0  0  0  0  0
    9.7346  -13.2318   28.7798 S   0  0  0  0  0  0  0  0  0  0  0  0
   10.6128  -14.8304   28.5698 C   0  0  0  0  0  0  0  0  0  0  0  0
    9.9670  -15.6581   27.4934 C   0  0  0  0  0  0  0  0  0  0  0  0
   10.9192  -16.6780   26.9409 C   0  0  2  0  0  0  0  0  0  0  0  0
   10.3545  -17.5972   26.0066 N   0  0  0  0  0  0  0  0  0  0  0  0
   11.4687  -17.4750   28.0506 C   0  0  0  0  0  0  0  0  0  0  0  0
   12.2501  -16.9671   28.9265 O   0  0  0  0  0  0  0  0  0  0  0  0
   11.1911  -18.8316   28.2426 O   0  0  0  0  0  0  0  0  0  0  0  0
  1  2  1  0
  2 12  2  0
  3  4  2  0
  3  2  1  0
  4  5  1  0
  5  6  1  0
  5 11  2  0
  7  8  1  1
  7  6  1  0
  7  9  1  0
  9 10  2  0
 12 11  1  0
 14 13  1  6
 14 16  1  0
 15  9  1  0
 15 14  1  0
 16 17  2  0
 18 19  1  0
 20 19  1  0
 21 20  1  0
 22 21  1  1
 22 24  1  0
 23 16  1  0
 23 22  1  0
 24 26  1  0
 25 24  2  0
M  END
$$$$
