YAM.pdb
     RDKit          3D

 26 26  0  0  1  0  0  0  0  0999 V2000
    9.4311  -23.6442   20.3079 O   0  0  0  0  0  0  0  0  0  0  0  0
    9.4368  -22.3933   20.9260 C   0  0  0  0  0  0  0  0  0  0  0  0
    8.4917  -21.4771   20.4923 C   0  0  0  0  0  0  0  0  0  0  0  0
    8.4484  -20.2241   21.0655 C   0  0  0  0  0  0  0  0  0  0  0  0
    9.3598  -19.9241   22.0634 C   0  0  0  0  0  0  0  0  0  0  0  0
    9.3243  -18.5931   22.6817 C   0  0  0  0  0  0  0  0  0  0  0  0
    9.6978  -17.4872   21.6897 C   0  0  2  0  0  0  0  0  0  0  0  0
   11.1195  -17.6326   21.4500 N   0  0  0  0  0  0  0  0  0  0  0  0
    9.3801  -16.2030   22.3633 C   0  0  0  0  0  0  0  0  0  0  0  0
   10.1292  -15.8404   23.3026 O   0  0  0  0  0  0  0  0  0  0  0  0
   10.3047  -20.8263   22.5038 C   0  0  0  0  0  0  0  0  0  0  0  0
   10.3315  -22.0705   21.9196 C   0  0  0  0  0  0  0  0  0  0  0  0
    7.0129  -13.3658   21.7099 C   0  0  0  0  0  0  0  0  0  0  0  0
    8.0203  -14.0965   22.6042 C   0  0  2  0  0  0  0  0  0  0  0  0
    8.2908  -15.3697   22.0116 N   0  0  0  0  0  0  0  0  0  0  0  0
    7.3698  -14.2854   23.9591 C   0  0  0  0  0  0  0  0  0  0  0  0
    6.6154  -15.2449   24.1803 O   0  0  0  0  0  0  0  0  0  0  0  0
   11.6230  -15.4586   28.2807 C   0  0  0  0  0  0  0  0  0  0  0  0
   10.2055  -14.4775   28.8387 S   0  0  0  0  0  0  0  0  0  0  0  0
    8.9176  -14.6163   27.5376 C   0  0  0  0  0  0  0  0  0  0  0  0
    8.1293  -13.3407   27.4270 C   0  0  0  0  0  0  0  0  0  0  0  0
    7.0931  -13.4288   26.3450 C   0  0  2  0  0  0  0  0  0  0  0  0
    7.5980  -13.3816   25.0110 N   0  0  0  0  0  0  0  0  0  0  0  0
    6.1502  -12.3068   26.4885 C   0  0  0  0  0  0  0  0  0  0  0  0
    6.1908  -11.2862   25.7187 O   0  0  0  0  0  0  0  0  0  0  0  0
    5.1459  -12.2572   27.4597 O   0  0  0  0  0  0  0  0  0  0  0  0
  1  2  1  0
  2 12  2  0
  3  4  2  0
  3  2  1  0
  4  5  1  0
  5  6  1  0
  5 11  2  0
  7  8  1  1
  7  6  1  0
  7  9  1  0
  9 10  2  0
 12 11  1  0
 14 13  1  6
 14 16  1  0
 15  9  1  0
 15 14  1  0
 16 17  2  0
 18 19  1  0
 20 19  1  0
 21 20  1  0
 22 21  1  1
 22 24  1  0
 23 16  1  0
 23 22  1  0
 24 26  1  0
 25 24  2  0
M  END
$$$$
