YAM.pdb
     RDKit          3D

 26 26  0  0  1  0  0  0  0  0999 V2000
    8.3917  -13.3435   15.6373 O   0  0  0  0  0  0  0  0  0  0  0  0
    8.1995  -13.6840   16.9767 C   0  0  0  0  0  0  0  0  0  0  0  0
    8.8159  -14.8427   17.4220 C   0  0  0  0  0  0  0  0  0  0  0  0
    8.6623  -15.2309   18.7359 C   0  0  0  0  0  0  0  0  0  0  0  0
    7.8904  -14.4410   19.5705 C   0  0  0  0  0  0  0  0  0  0  0  0
    7.7189  -14.8436   20.9718 C   0  0  0  0  0  0  0  0  0  0  0  0
    7.5848  -16.3621   21.1224 C   0  0  2  0  0  0  0  0  0  0  0  0
    6.2053  -16.6721   20.8046 N   0  0  0  0  0  0  0  0  0  0  0  0
    7.9067  -16.6671   22.5391 C   0  0  0  0  0  0  0  0  0  0  0  0
    7.0485  -16.3703   23.4053 O   0  0  0  0  0  0  0  0  0  0  0  0
    7.2721  -13.2863   19.1400 C   0  0  0  0  0  0  0  0  0  0  0  0
    7.4374  -12.9164   17.8263 C   0  0  0  0  0  0  0  0  0  0  0  0
   10.5903  -18.5912   24.3139 C   0  0  0  0  0  0  0  0  0  0  0  0
    9.4140  -17.6091   24.3239 C   0  0  2  0  0  0  0  0  0  0  0  0
    9.1149  -17.2683   22.9675 N   0  0  0  0  0  0  0  0  0  0  0  0
    9.8607  -16.3747   25.0798 C   0  0  0  0  0  0  0  0  0  0  0  0
   10.7499  -15.6350   24.6318 O   0  0  0  0  0  0  0  0  0  0  0  0
    7.7508  -10.5586   26.6743 C   0  0  0  0  0  0  0  0  0  0  0  0
    6.7710  -12.0753   26.5219 S   0  0  0  0  0  0  0  0  0  0  0  0
    7.9520  -13.4392   26.1813 C   0  0  0  0  0  0  0  0  0  0  0  0
    8.5531  -13.9577   27.4583 C   0  0  0  0  0  0  0  0  0  0  0  0
    9.6413  -14.9546   27.1865 C   0  0  2  0  0  0  0  0  0  0  0  0
    9.2841  -16.0252   26.3130 N   0  0  0  0  0  0  0  0  0  0  0  0
   10.0677  -15.5612   28.4589 C   0  0  0  0  0  0  0  0  0  0  0  0
    9.7573  -16.7612   28.7741 O   0  0  0  0  0  0  0  0  0  0  0  0
   10.8349  -14.8930   29.4178 O   0  0  0  0  0  0  0  0  0  0  0  0
  1  2  1  0
  2 12  2  0
  3  4  2  0
  3  2  1  0
  4  5  1  0
  5  6  1  0
  5 11  2  0
  7  8  1  1
  7  6  1  0
  7  9  1  0
  9 10  2  0
 12 11  1  0
 14 13  1  6
 14 16  1  0
 15  9  1  0
 15 14  1  0
 16 17  2  0
 18 19  1  0
 20 19  1  0
 21 20  1  0
 22 21  1  1
 22 24  1  0
 23 16  1  0
 23 22  1  0
 24 26  1  0
 25 24  2  0
M  END
$$$$
