YAM.pdb
     RDKit          3D

 26 26  0  0  1  0  0  0  0  0999 V2000
    7.1739  -22.5748   29.3175 O   0  0  0  0  0  0  0  0  0  0  0  0
    7.2679  -21.6285   28.2965 C   0  0  0  0  0  0  0  0  0  0  0  0
    8.5314  -21.1306   28.0199 C   0  0  0  0  0  0  0  0  0  0  0  0
    8.6873  -20.1927   27.0215 C   0  0  0  0  0  0  0  0  0  0  0  0
    7.5649  -19.7788   26.3250 C   0  0  0  0  0  0  0  0  0  0  0  0
    7.7175  -18.7803   25.2597 C   0  0  0  0  0  0  0  0  0  0  0  0
    7.1124  -19.2547   23.9348 C   0  0  2  0  0  0  0  0  0  0  0  0
    7.6865  -20.5609   23.6815 N   0  0  0  0  0  0  0  0  0  0  0  0
    7.5269  -18.2619   22.9119 C   0  0  0  0  0  0  0  0  0  0  0  0
    8.6948  -18.3477   22.4609 O   0  0  0  0  0  0  0  0  0  0  0  0
    6.3028  -20.2663   26.5903 C   0  0  0  0  0  0  0  0  0  0  0  0
    6.1683  -21.2008   27.5896 C   0  0  0  0  0  0  0  0  0  0  0  0
    5.9056  -15.3543   21.1546 C   0  0  0  0  0  0  0  0  0  0  0  0
    7.1397  -16.1324   21.6236 C   0  0  2  0  0  0  0  0  0  0  0  0
    6.6893  -17.2323   22.4191 N   0  0  0  0  0  0  0  0  0  0  0  0
    7.9743  -15.1919   22.4684 C   0  0  0  0  0  0  0  0  0  0  0  0
    8.5156  -14.1926   21.9713 O   0  0  0  0  0  0  0  0  0  0  0  0
    6.1147  -10.4531   26.5482 C   0  0  0  0  0  0  0  0  0  0  0  0
    6.1892  -12.2619   26.4694 S   0  0  0  0  0  0  0  0  0  0  0  0
    7.9204  -12.7048   26.0478 C   0  0  0  0  0  0  0  0  0  0  0  0
    8.0924  -14.1976   25.9930 C   0  0  0  0  0  0  0  0  0  0  0  0
    8.8758  -14.6149   24.7830 C   0  0  2  0  0  0  0  0  0  0  0  0
    8.1641  -15.4185   23.8424 N   0  0  0  0  0  0  0  0  0  0  0  0
   10.0491  -15.3937   25.2137 C   0  0  0  0  0  0  0  0  0  0  0  0
   10.3872  -15.4834   26.4439 O   0  0  0  0  0  0  0  0  0  0  0  0
   10.8824  -16.0910   24.3341 O   0  0  0  0  0  0  0  0  0  0  0  0
  1  2  1  0
  2 12  2  0
  3  4  2  0
  3  2  1  0
  4  5  1  0
  5  6  1  0
  5 11  2  0
  7  8  1  6
  7  6  1  0
  7  9  1  0
  9 10  2  0
 12 11  1  0
 14 13  1  1
 14 16  1  0
 15  9  1  0
 15 14  1  0
 16 17  2  0
 18 19  1  0
 20 19  1  0
 21 20  1  0
 22 21  1  1
 22 24  1  0
 23 16  1  0
 23 22  1  0
 24 26  1  0
 25 24  2  0
M  END
$$$$
