YAM.pdb
     RDKit          3D

 26 26  0  0  1  0  0  0  0  0999 V2000
    6.7443  -13.3308   27.4806 O   0  0  0  0  0  0  0  0  0  0  0  0
    6.7394  -14.5939   26.8878 C   0  0  0  0  0  0  0  0  0  0  0  0
    5.5777  -14.9735   26.2345 C   0  0  0  0  0  0  0  0  0  0  0  0
    5.5129  -16.2106   25.6295 C   0  0  0  0  0  0  0  0  0  0  0  0
    6.6219  -17.0363   25.6974 C   0  0  0  0  0  0  0  0  0  0  0  0
    6.5656  -18.3563   25.0574 C   0  0  0  0  0  0  0  0  0  0  0  0
    6.1672  -18.2640   23.5812 C   0  0  2  0  0  0  0  0  0  0  0  0
    6.0697  -19.6309   23.1102 N   0  0  0  0  0  0  0  0  0  0  0  0
    7.2609  -17.5234   22.9034 C   0  0  0  0  0  0  0  0  0  0  0  0
    8.3522  -18.1215   22.7415 O   0  0  0  0  0  0  0  0  0  0  0  0
    7.7834  -16.6706   26.3441 C   0  0  0  0  0  0  0  0  0  0  0  0
    7.8280  -15.4330   26.9410 C   0  0  0  0  0  0  0  0  0  0  0  0
    7.5004  -14.1975   21.1550 C   0  0  0  0  0  0  0  0  0  0  0  0
    8.0684  -15.5693   21.5345 C   0  0  2  0  0  0  0  0  0  0  0  0
    7.1464  -16.1931   22.4325 N   0  0  0  0  0  0  0  0  0  0  0  0
    9.3914  -15.3343   22.2338 C   0  0  0  0  0  0  0  0  0  0  0  0
   10.3326  -14.7718   21.6537 O   0  0  0  0  0  0  0  0  0  0  0  0
   10.8688  -13.3366   28.6734 C   0  0  0  0  0  0  0  0  0  0  0  0
    9.4510  -13.3583   27.5451 S   0  0  0  0  0  0  0  0  0  0  0  0
   10.1070  -13.7442   25.8743 C   0  0  0  0  0  0  0  0  0  0  0  0
   10.5290  -15.1846   25.7849 C   0  0  0  0  0  0  0  0  0  0  0  0
   10.7706  -15.5976   24.3625 C   0  0  2  0  0  0  0  0  0  0  0  0
    9.5982  -15.7446   23.5621 N   0  0  0  0  0  0  0  0  0  0  0  0
   11.4665  -16.8954   24.3493 C   0  0  0  0  0  0  0  0  0  0  0  0
   10.9266  -17.9478   23.8626 O   0  0  0  0  0  0  0  0  0  0  0  0
   12.7542  -17.0900   24.8574 O   0  0  0  0  0  0  0  0  0  0  0  0
  1  2  1  0
  2 12  2  0
  3  4  2  0
  3  2  1  0
  4  5  1  0
  5  6  1  0
  5 11  2  0
  7  8  1  6
  7  6  1  0
  7  9  1  0
  9 10  2  0
 12 11  1  0
 14 13  1  1
 14 16  1  0
 15  9  1  0
 15 14  1  0
 16 17  2  0
 18 19  1  0
 20 19  1  0
 21 20  1  0
 22 21  1  1
 22 24  1  0
 23 16  1  0
 23 22  1  0
 24 26  1  0
 25 24  2  0
M  END
$$$$
