YAM.pdb
     RDKit          3D

 26 26  0  0  1  0  0  0  0  0999 V2000
    6.9386  -22.6840   28.6992 O   0  0  0  0  0  0  0  0  0  0  0  0
    6.9708  -21.6409   27.7730 C   0  0  0  0  0  0  0  0  0  0  0  0
    5.7792  -21.3342   27.1351 C   0  0  0  0  0  0  0  0  0  0  0  0
    5.7486  -20.3131   26.2093 C   0  0  0  0  0  0  0  0  0  0  0  0
    6.9209  -19.6247   25.9486 C   0  0  0  0  0  0  0  0  0  0  0  0
    6.9017  -18.5353   24.9646 C   0  0  0  0  0  0  0  0  0  0  0  0
    6.5343  -19.0319   23.5628 C   0  0  2  0  0  0  0  0  0  0  0  0
    7.1725  -20.3250   23.4200 N   0  0  0  0  0  0  0  0  0  0  0  0
    7.0884  -18.0349   22.6127 C   0  0  0  0  0  0  0  0  0  0  0  0
    8.2474  -18.2337   22.1746 O   0  0  0  0  0  0  0  0  0  0  0  0
    8.1125  -19.9198   26.5762 C   0  0  0  0  0  0  0  0  0  0  0  0
    8.1222  -20.9414   27.4961 C   0  0  0  0  0  0  0  0  0  0  0  0
    5.8904  -14.8050   21.0922 C   0  0  0  0  0  0  0  0  0  0  0  0
    7.0041  -15.7628   21.5288 C   0  0  2  0  0  0  0  0  0  0  0  0
    6.3922  -16.8824   22.1749 N   0  0  0  0  0  0  0  0  0  0  0  0
    7.8838  -15.0172   22.5111 C   0  0  0  0  0  0  0  0  0  0  0  0
    7.7598  -13.7951   22.6837 O   0  0  0  0  0  0  0  0  0  0  0  0
    9.6764  -13.6590   29.5666 C   0  0  0  0  0  0  0  0  0  0  0  0
    8.5809  -14.3756   28.3136 S   0  0  0  0  0  0  0  0  0  0  0  0
    9.6139  -14.7106   26.8331 C   0  0  0  0  0  0  0  0  0  0  0  0
    8.7531  -14.9960   25.6337 C   0  0  0  0  0  0  0  0  0  0  0  0
    9.5832  -15.2119   24.4024 C   0  0  2  0  0  0  0  0  0  0  0  0
    8.8694  -15.6830   23.2599 N   0  0  0  0  0  0  0  0  0  0  0  0
   10.6304  -16.2050   24.6953 C   0  0  0  0  0  0  0  0  0  0  0  0
   11.5016  -16.0191   25.6131 O   0  0  0  0  0  0  0  0  0  0  0  0
   10.7638  -17.4162   24.0101 O   0  0  0  0  0  0  0  0  0  0  0  0
  1  2  1  0
  2 12  2  0
  3  4  2  0
  3  2  1  0
  4  5  1  0
  5  6  1  0
  5 11  2  0
  7  8  1  6
  7  6  1  0
  7  9  1  0
  9 10  2  0
 12 11  1  0
 14 13  1  1
 14 16  1  0
 15  9  1  0
 15 14  1  0
 16 17  2  0
 18 19  1  0
 20 19  1  0
 21 20  1  0
 22 21  1  1
 22 24  1  0
 23 16  1  0
 23 22  1  0
 24 26  1  0
 25 24  2  0
M  END
$$$$
