YAM.pdb
     RDKit          3D

 26 26  0  0  1  0  0  0  0  0999 V2000
    8.0943  -12.3961   16.5247 O   0  0  0  0  0  0  0  0  0  0  0  0
    8.0200  -13.0450   17.7577 C   0  0  0  0  0  0  0  0  0  0  0  0
    9.1711  -13.0550   18.5295 C   0  0  0  0  0  0  0  0  0  0  0  0
    9.1590  -13.6810   19.7577 C   0  0  0  0  0  0  0  0  0  0  0  0
    7.9857  -14.2826   20.1792 C   0  0  0  0  0  0  0  0  0  0  0  0
    7.9599  -14.9528   21.4851 C   0  0  0  0  0  0  0  0  0  0  0  0
    8.1755  -16.4643   21.3609 C   0  0  2  0  0  0  0  0  0  0  0  0
    6.9173  -17.0072   20.8896 N   0  0  0  0  0  0  0  0  0  0  0  0
    8.5089  -16.9477   22.7244 C   0  0  0  0  0  0  0  0  0  0  0  0
    7.5546  -17.2051   23.4975 O   0  0  0  0  0  0  0  0  0  0  0  0
    6.8340  -14.2796   19.4212 C   0  0  0  0  0  0  0  0  0  0  0  0
    6.8665  -13.6502   18.1995 C   0  0  0  0  0  0  0  0  0  0  0  0
   11.2460  -18.7357   24.2808 C   0  0  0  0  0  0  0  0  0  0  0  0
   10.1598  -17.6738   24.4828 C   0  0  2  0  0  0  0  0  0  0  0  0
    9.8293  -17.1342   23.2002 N   0  0  0  0  0  0  0  0  0  0  0  0
   10.7445  -16.5894   25.3641 C   0  0  0  0  0  0  0  0  0  0  0  0
   11.7743  -16.7871   26.0268 O   0  0  0  0  0  0  0  0  0  0  0  0
    7.7597  -11.0378   27.2184 C   0  0  0  0  0  0  0  0  0  0  0  0
    6.5134  -12.3453   27.0751 S   0  0  0  0  0  0  0  0  0  0  0  0
    7.3307  -13.9149   27.5643 C   0  0  0  0  0  0  0  0  0  0  0  0
    7.9657  -14.5806   26.3750 C   0  0  0  0  0  0  0  0  0  0  0  0
    9.4431  -14.7577   26.5700 C   0  0  2  0  0  0  0  0  0  0  0  0
   10.1416  -15.3235   25.4615 N   0  0  0  0  0  0  0  0  0  0  0  0
    9.6740  -15.6447   27.7226 C   0  0  0  0  0  0  0  0  0  0  0  0
    9.4153  -16.8964   27.6757 O   0  0  0  0  0  0  0  0  0  0  0  0
   10.1865  -15.2071   28.9474 O   0  0  0  0  0  0  0  0  0  0  0  0
  1  2  1  0
  2 12  2  0
  3  4  2  0
  3  2  1  0
  4  5  1  0
  5  6  1  0
  5 11  2  0
  7  8  1  1
  7  6  1  0
  7  9  1  0
  9 10  2  0
 12 11  1  0
 14 13  1  6
 14 16  1  0
 15  9  1  0
 15 14  1  0
 16 17  2  0
 18 19  1  0
 20 19  1  0
 21 20  1  0
 22 21  1  6
 22 24  1  0
 23 16  1  0
 23 22  1  0
 24 26  1  0
 25 24  2  0
M  END
$$$$
