YAM.pdb
     RDKit          3D

 26 26  0  0  1  0  0  0  0  0999 V2000
    8.1951  -13.3480   15.7393 O   0  0  0  0  0  0  0  0  0  0  0  0
    8.0202  -13.8376   17.0341 C   0  0  0  0  0  0  0  0  0  0  0  0
    7.7398  -12.9069   18.0220 C   0  0  0  0  0  0  0  0  0  0  0  0
    7.5569  -13.3306   19.3210 C   0  0  0  0  0  0  0  0  0  0  0  0
    7.6609  -14.6838   19.5936 C   0  0  0  0  0  0  0  0  0  0  0  0
    7.4685  -15.1478   20.9731 C   0  0  0  0  0  0  0  0  0  0  0  0
    7.5814  -16.6711   21.0892 C   0  0  2  0  0  0  0  0  0  0  0  0
    6.2283  -17.1786   20.9820 N   0  0  0  0  0  0  0  0  0  0  0  0
    8.1679  -16.9415   22.4259 C   0  0  0  0  0  0  0  0  0  0  0  0
    7.4371  -16.7527   23.4284 O   0  0  0  0  0  0  0  0  0  0  0  0
    7.9392  -15.6197   18.6202 C   0  0  0  0  0  0  0  0  0  0  0  0
    8.1182  -15.1770   17.3310 C   0  0  0  0  0  0  0  0  0  0  0  0
   11.4855  -18.1884   23.7024 C   0  0  0  0  0  0  0  0  0  0  0  0
   10.0782  -17.6221   23.9199 C   0  0  2  0  0  0  0  0  0  0  0  0
    9.4924  -17.3961   22.6349 N   0  0  0  0  0  0  0  0  0  0  0  0
   10.2278  -16.3076   24.6575 C   0  0  0  0  0  0  0  0  0  0  0  0
   10.8362  -15.3530   24.1503 O   0  0  0  0  0  0  0  0  0  0  0  0
    6.7286  -10.4528   27.9003 C   0  0  0  0  0  0  0  0  0  0  0  0
    6.6525  -11.9774   26.9240 S   0  0  0  0  0  0  0  0  0  0  0  0
    8.2089  -12.8953   27.2493 C   0  0  0  0  0  0  0  0  0  0  0  0
    8.2594  -14.1647   26.4449 C   0  0  0  0  0  0  0  0  0  0  0  0
    9.5411  -14.9099   26.6769 C   0  0  2  0  0  0  0  0  0  0  0  0
    9.6833  -16.1239   25.9401 N   0  0  0  0  0  0  0  0  0  0  0  0
    9.6444  -15.2579   28.1042 C   0  0  0  0  0  0  0  0  0  0  0  0
    9.6424  -14.3654   29.0201 O   0  0  0  0  0  0  0  0  0  0  0  0
    9.7517  -16.5692   28.5767 O   0  0  0  0  0  0  0  0  0  0  0  0
  1  2  1  0
  2 12  2  0
  3  4  2  0
  3  2  1  0
  4  5  1  0
  5  6  1  0
  5 11  2  0
  7  8  1  1
  7  6  1  0
  7  9  1  0
  9 10  2  0
 12 11  1  0
 14 13  1  6
 14 16  1  0
 15  9  1  0
 15 14  1  0
 16 17  2  0
 18 19  1  0
 20 19  1  0
 21 20  1  0
 22 21  1  1
 22 24  1  0
 23 16  1  0
 23 22  1  0
 24 26  1  0
 25 24  2  0
M  END
$$$$
