WQD.pdb
     RDKit          3D

 32 33  0  0  1  0  0  0  0  0999 V2000
    6.2883  -18.1175   24.6033 N   0  0  0  0  0  0  0  0  0  0  0  0
    7.0235  -16.8935   24.3436 C   0  0  1  0  0  0  0  0  0  0  0  0
    7.5257  -16.2489   25.5822 C   0  0  0  0  0  0  0  0  0  0  0  0
    6.8307  -15.0431   26.0180 C   0  0  0  0  0  0  0  0  0  0  0  0
    5.4918  -15.0537   26.4332 C   0  0  0  0  0  0  0  0  0  0  0  0
    5.1376  -13.8095   26.7884 N   0  0  0  0  0  0  0  0  0  0  0  0
    6.1830  -12.9590   26.6297 C   0  0  0  0  0  0  0  0  0  0  0  0
    6.2966  -11.6063   26.8564 C   0  0  0  0  0  0  0  0  0  0  0  0
    7.4872  -10.9676   26.6057 C   0  0  0  0  0  0  0  0  0  0  0  0
    8.5323  -11.7282   26.1292 C   0  0  0  0  0  0  0  0  0  0  0  0
    8.4163  -13.0825   25.9030 C   0  0  0  0  0  0  0  0  0  0  0  0
    7.2236  -13.7408   26.1512 C   0  0  0  0  0  0  0  0  0  0  0  0
    8.0004  -17.0114   23.2520 C   0  0  0  0  0  0  0  0  0  0  0  0
    8.5975  -18.1052   23.0837 O   0  0  0  0  0  0  0  0  0  0  0  0
    9.0513  -13.0257   17.8758 N   0  0  0  0  0  0  0  0  0  0  0  0
    8.0187  -13.9156   18.3549 C   0  0  0  0  0  0  0  0  0  0  0  0
    6.8468  -13.5829   18.0774 O   0  0  0  0  0  0  0  0  0  0  0  0
    8.3866  -15.1260   19.1125 C   0  0  0  0  0  0  0  0  0  0  0  0
    9.2221  -14.9005   20.3163 C   0  0  0  0  0  0  0  0  0  0  0  0
    9.2672  -16.0260   21.3048 C   0  0  2  0  0  0  0  0  0  0  0  0
    8.3083  -15.9416   22.3605 N   0  0  0  0  0  0  0  0  0  0  0  0
   10.6501  -16.1772   21.8791 C   0  0  0  0  0  0  0  0  0  0  0  0
   11.0616  -15.4450   22.8148 O   0  0  0  0  0  0  0  0  0  0  0  0
   11.5444  -17.1669   21.3728 N   0  0  0  0  0  0  0  0  0  0  0  0
   12.8478  -17.2910   21.9421 C   0  0  1  0  0  0  0  0  0  0  0  0
   13.2864  -18.7484   21.9912 C   0  0  0  0  0  0  0  0  0  0  0  0
   14.6827  -18.8882   22.4608 C   0  0  0  0  0  0  0  0  0  0  0  0
   15.5533  -19.1651   21.6101 O   0  0  0  0  0  0  0  0  0  0  0  0
   13.8289  -16.4888   21.1655 C   0  0  0  0  0  0  0  0  0  0  0  0
   13.5124  -16.1596   19.8537 O   0  0  0  0  0  0  0  0  0  0  0  0
   15.0868  -18.7338   23.7724 O   0  0  0  0  0  0  0  0  0  0  0  0
   14.9176  -16.0991   21.6337 O   0  0  0  0  0  0  0  0  0  0  0  0
  2  1  1  1
  2  3  1  0
  3  4  1  0
  4  5  2  0
  5  6  1  0
  7  6  1  0
  8  7  2  0
  9  8  1  0
 10 11  1  0
 10  9  2  0
 11 12  2  0
 12  4  1  0
 12  7  1  0
 13 21  1  0
 13  2  1  0
 14 13  2  0
 16 17  2  0
 16 15  1  0
 18 16  1  0
 19 18  1  0
 20 21  1  0
 20 19  1  1
 22 20  1  0
 23 22  2  0
 24 22  1  0
 25 29  1  0
 25 24  1  0
 26 27  1  0
 25 26  1  6
 27 28  2  0
 29 30  1  0
 31 27  1  0
 32 29  2  0
M  END
$$$$
