WQD.pdb
     RDKit          3D

 32 33  0  0  1  0  0  0  0  0999 V2000
    6.7082  -14.8504   22.5613 N   0  0  0  0  0  0  0  0  0  0  0  0
    8.0629  -14.9663   23.0687 C   0  0  1  0  0  0  0  0  0  0  0  0
    8.1276  -15.6349   24.3918 C   0  0  0  0  0  0  0  0  0  0  0  0
    7.3206  -15.0518   25.4575 C   0  0  0  0  0  0  0  0  0  0  0  0
    6.5206  -15.8282   26.3075 C   0  0  0  0  0  0  0  0  0  0  0  0
    5.9151  -15.0206   27.1911 N   0  0  0  0  0  0  0  0  0  0  0  0
    6.2736  -13.7303   26.9722 C   0  0  0  0  0  0  0  0  0  0  0  0
    5.9125  -12.5659   27.6108 C   0  0  0  0  0  0  0  0  0  0  0  0
    6.4224  -11.3637   27.1829 C   0  0  0  0  0  0  0  0  0  0  0  0
    7.2890  -11.3821   26.1123 C   0  0  0  0  0  0  0  0  0  0  0  0
    7.6494  -12.5493   25.4745 C   0  0  0  0  0  0  0  0  0  0  0  0
    7.1447  -13.7687   25.8940 C   0  0  0  0  0  0  0  0  0  0  0  0
    9.0287  -15.4464   22.0704 C   0  0  0  0  0  0  0  0  0  0  0  0
    9.6825  -16.4937   22.3090 O   0  0  0  0  0  0  0  0  0  0  0  0
    9.3488  -12.9332   16.3081 N   0  0  0  0  0  0  0  0  0  0  0  0
    8.2842  -13.7376   16.8626 C   0  0  0  0  0  0  0  0  0  0  0  0
    7.1596  -13.5791   16.3418 O   0  0  0  0  0  0  0  0  0  0  0  0
    8.5694  -14.6713   17.9676 C   0  0  0  0  0  0  0  0  0  0  0  0
    9.9660  -14.6697   18.4649 C   0  0  0  0  0  0  0  0  0  0  0  0
   10.1770  -15.2455   19.8324 C   0  0  2  0  0  0  0  0  0  0  0  0
    9.2641  -14.7836   20.8296 N   0  0  0  0  0  0  0  0  0  0  0  0
   11.5931  -15.0250   20.2920 C   0  0  0  0  0  0  0  0  0  0  0  0
   12.1232  -13.8849   20.2780 O   0  0  0  0  0  0  0  0  0  0  0  0
   12.3839  -16.1154   20.7622 N   0  0  0  0  0  0  0  0  0  0  0  0
   13.8035  -15.9767   20.8235 C   0  0  1  0  0  0  0  0  0  0  0  0
   14.4163  -17.0267   21.7405 C   0  0  0  0  0  0  0  0  0  0  0  0
   14.1034  -16.7661   23.1631 C   0  0  0  0  0  0  0  0  0  0  0  0
   14.1217  -15.5796   23.5508 O   0  0  0  0  0  0  0  0  0  0  0  0
   14.3917  -16.0818   19.4626 C   0  0  0  0  0  0  0  0  0  0  0  0
   15.7621  -15.9003   19.3265 O   0  0  0  0  0  0  0  0  0  0  0  0
   13.7937  -17.7435   24.0884 O   0  0  0  0  0  0  0  0  0  0  0  0
   13.7164  -16.3240   18.4420 O   0  0  0  0  0  0  0  0  0  0  0  0
  2  1  1  6
  2  3  1  0
  3  4  1  0
  4  5  2  0
  5  6  1  0
  7  6  1  0
  8  7  2  0
  9  8  1  0
 10 11  1  0
 10  9  2  0
 11 12  2  0
 12  4  1  0
 12  7  1  0
 13 21  1  0
 13  2  1  0
 14 13  2  0
 16 17  2  0
 16 15  1  0
 18 16  1  0
 19 18  1  0
 20 21  1  0
 20 19  1  6
 22 20  1  0
 23 22  2  0
 24 22  1  0
 25 29  1  0
 25 24  1  0
 26 27  1  0
 25 26  1  1
 27 28  2  0
 29 30  1  0
 31 27  1  0
 32 29  2  0
M  END
$$$$
