WQD.pdb
     RDKit          3D

 32 33  0  0  1  0  0  0  0  0999 V2000
    6.4083  -17.9201   25.0603 N   0  0  0  0  0  0  0  0  0  0  0  0
    7.0790  -16.7173   24.6027 C   0  0  1  0  0  0  0  0  0  0  0  0
    8.0184  -16.1628   25.6088 C   0  0  0  0  0  0  0  0  0  0  0  0
    7.5361  -15.0372   26.4008 C   0  0  0  0  0  0  0  0  0  0  0  0
    7.1579  -15.1685   27.7443 C   0  0  0  0  0  0  0  0  0  0  0  0
    6.7779  -13.9682   28.2075 N   0  0  0  0  0  0  0  0  0  0  0  0
    6.8839  -13.0318   27.2312 C   0  0  0  0  0  0  0  0  0  0  0  0
    6.6093  -11.6831   27.2319 C   0  0  0  0  0  0  0  0  0  0  0  0
    6.8002  -10.9449   26.0887 C   0  0  0  0  0  0  0  0  0  0  0  0
    7.2672  -11.6042   24.9730 C   0  0  0  0  0  0  0  0  0  0  0  0
    7.5416  -12.9547   24.9747 C   0  0  0  0  0  0  0  0  0  0  0  0
    7.3550  -13.7122   26.1186 C   0  0  0  0  0  0  0  0  0  0  0  0
    7.6062  -16.8189   23.2346 C   0  0  0  0  0  0  0  0  0  0  0  0
    7.9592  -17.9446   22.7994 O   0  0  0  0  0  0  0  0  0  0  0  0
    7.1218  -12.4044   18.4820 N   0  0  0  0  0  0  0  0  0  0  0  0
    7.8049  -13.5306   17.8881 C   0  0  0  0  0  0  0  0  0  0  0  0
    8.0002  -13.4559   16.6562 O   0  0  0  0  0  0  0  0  0  0  0  0
    8.2245  -14.6634   18.7336 C   0  0  0  0  0  0  0  0  0  0  0  0
    7.7779  -14.6099   20.1463 C   0  0  0  0  0  0  0  0  0  0  0  0
    8.1510  -15.7851   20.9981 C   0  0  2  0  0  0  0  0  0  0  0  0
    7.7366  -15.6978   22.3626 N   0  0  0  0  0  0  0  0  0  0  0  0
    9.6314  -16.0472   20.9276 C   0  0  0  0  0  0  0  0  0  0  0  0
   10.2377  -16.1262   19.8288 O   0  0  0  0  0  0  0  0  0  0  0  0
   10.3984  -16.2154   22.1187 N   0  0  0  0  0  0  0  0  0  0  0  0
   11.8194  -16.0908   22.0611 C   0  0  1  0  0  0  0  0  0  0  0  0
   12.4039  -15.8508   23.4465 C   0  0  0  0  0  0  0  0  0  0  0  0
   12.1811  -17.0045   24.3461 C   0  0  0  0  0  0  0  0  0  0  0  0
   11.1737  -17.7121   24.1395 O   0  0  0  0  0  0  0  0  0  0  0  0
   12.4204  -17.3090   21.4577 C   0  0  0  0  0  0  0  0  0  0  0  0
   13.7957  -17.3329   21.2645 O   0  0  0  0  0  0  0  0  0  0  0  0
   13.0096  -17.3504   25.3956 O   0  0  0  0  0  0  0  0  0  0  0  0
   11.7515  -18.3059   21.1182 O   0  0  0  0  0  0  0  0  0  0  0  0
  2  1  1  1
  2  3  1  0
  3  4  1  0
  4  5  2  0
  5  6  1  0
  7  6  1  0
  8  7  2  0
  9  8  1  0
 10 11  1  0
 10  9  2  0
 11 12  2  0
 12  4  1  0
 12  7  1  0
 13 21  1  0
 13  2  1  0
 14 13  2  0
 16 17  2  0
 16 15  1  0
 18 16  1  0
 19 18  1  0
 20 21  1  0
 20 19  1  6
 22 20  1  0
 23 22  2  0
 24 22  1  0
 25 29  1  0
 25 24  1  0
 26 27  1  0
 25 26  1  1
 27 28  2  0
 29 30  1  0
 31 27  1  0
 32 29  2  0
M  END
$$$$
