WQD.pdb
     RDKit          3D

 32 33  0  0  1  0  0  0  0  0999 V2000
    6.3196  -18.4652   24.8155 N   0  0  0  0  0  0  0  0  0  0  0  0
    6.6401  -17.0621   24.6292 C   0  0  1  0  0  0  0  0  0  0  0  0
    7.1800  -16.4262   25.8564 C   0  0  0  0  0  0  0  0  0  0  0  0
    6.6148  -15.1330   26.2238 C   0  0  0  0  0  0  0  0  0  0  0  0
    5.2351  -14.9248   26.3591 C   0  0  0  0  0  0  0  0  0  0  0  0
    5.0217  -13.6503   26.7190 N   0  0  0  0  0  0  0  0  0  0  0  0
    6.2012  -12.9891   26.8319 C   0  0  0  0  0  0  0  0  0  0  0  0
    6.4834  -11.6846   27.1678 C   0  0  0  0  0  0  0  0  0  0  0  0
    7.7878  -11.2541   27.2058 C   0  0  0  0  0  0  0  0  0  0  0  0
    8.7715  -12.1684   26.8992 C   0  0  0  0  0  0  0  0  0  0  0  0
    8.4867  -13.4741   26.5633 C   0  0  0  0  0  0  0  0  0  0  0  0
    7.1776  -13.9235   26.5211 C   0  0  0  0  0  0  0  0  0  0  0  0
    7.3864  -16.7856   23.3937 C   0  0  0  0  0  0  0  0  0  0  0  0
    7.9578  -17.7360   22.8009 O   0  0  0  0  0  0  0  0  0  0  0  0
    6.8444  -13.7672   18.2581 N   0  0  0  0  0  0  0  0  0  0  0  0
    8.2297  -13.9947   18.6000 C   0  0  0  0  0  0  0  0  0  0  0  0
    8.8919  -14.6485   17.7662 O   0  0  0  0  0  0  0  0  0  0  0  0
    8.7710  -13.4602   19.8631 C   0  0  0  0  0  0  0  0  0  0  0  0
    8.0057  -13.8035   21.0856 C   0  0  0  0  0  0  0  0  0  0  0  0
    8.1984  -15.1932   21.6125 C   0  0  2  0  0  0  0  0  0  0  0  0
    7.4953  -15.4835   22.8219 N   0  0  0  0  0  0  0  0  0  0  0  0
    9.6615  -15.5015   21.7834 C   0  0  0  0  0  0  0  0  0  0  0  0
   10.3534  -14.9518   22.6780 O   0  0  0  0  0  0  0  0  0  0  0  0
   10.3134  -16.4369   20.9258 N   0  0  0  0  0  0  0  0  0  0  0  0
   11.6624  -16.8164   21.1987 C   0  0  1  0  0  0  0  0  0  0  0  0
   11.9403  -18.2333   20.7151 C   0  0  0  0  0  0  0  0  0  0  0  0
   12.4902  -19.0855   21.7926 C   0  0  0  0  0  0  0  0  0  0  0  0
   12.7349  -18.5432   22.8901 O   0  0  0  0  0  0  0  0  0  0  0  0
   12.6063  -15.8640   20.5577 C   0  0  0  0  0  0  0  0  0  0  0  0
   13.9180  -15.8363   21.0137 O   0  0  0  0  0  0  0  0  0  0  0  0
   12.7506  -20.4360   21.6668 O   0  0  0  0  0  0  0  0  0  0  0  0
   12.2780  -15.0922   19.6342 O   0  0  0  0  0  0  0  0  0  0  0  0
  2  1  1  1
  2  3  1  0
  3  4  1  0
  4  5  2  0
  5  6  1  0
  7  6  1  0
  8  7  2  0
  9  8  1  0
 10 11  1  0
 10  9  2  0
 11 12  2  0
 12  4  1  0
 12  7  1  0
 13 21  1  0
 13  2  1  0
 14 13  2  0
 16 17  2  0
 16 15  1  0
 18 16  1  0
 19 18  1  0
 20 21  1  0
 20 19  1  1
 22 20  1  0
 23 22  2  0
 24 22  1  0
 25 29  1  0
 25 24  1  0
 26 27  1  0
 25 26  1  6
 27 28  2  0
 29 30  1  0
 31 27  1  0
 32 29  2  0
M  END
$$$$
