WQD.pdb
     RDKit          3D

 32 33  0  0  1  0  0  0  0  0999 V2000
    6.6298  -17.4915   23.9538 N   0  0  0  0  0  0  0  0  0  0  0  0
    7.4472  -16.3139   23.7280 C   0  0  1  0  0  0  0  0  0  0  0  0
    8.1676  -15.8699   24.9470 C   0  0  0  0  0  0  0  0  0  0  0  0
    7.4272  -15.0140   25.8669 C   0  0  0  0  0  0  0  0  0  0  0  0
    6.5002  -15.5219   26.7876 C   0  0  0  0  0  0  0  0  0  0  0  0
    5.9968  -14.5047   27.5027 N   0  0  0  0  0  0  0  0  0  0  0  0
    6.5460  -13.3304   27.1021 C   0  0  0  0  0  0  0  0  0  0  0  0
    6.3428  -12.0387   27.5315 C   0  0  0  0  0  0  0  0  0  0  0  0
    7.0344  -11.0056   26.9459 C   0  0  0  0  0  0  0  0  0  0  0  0
    7.9166  -11.3191   25.9355 C   0  0  0  0  0  0  0  0  0  0  0  0
    8.1186  -12.6133   25.5072 C   0  0  0  0  0  0  0  0  0  0  0  0
    7.4300  -13.6652   26.0874 C   0  0  0  0  0  0  0  0  0  0  0  0
    8.2588  -16.3837   22.5047 C   0  0  0  0  0  0  0  0  0  0  0  0
    8.7939  -17.4772   22.1897 O   0  0  0  0  0  0  0  0  0  0  0  0
    7.6862  -13.5394   16.6338 N   0  0  0  0  0  0  0  0  0  0  0  0
    9.0706  -13.4828   17.0437 C   0  0  0  0  0  0  0  0  0  0  0  0
    9.7769  -12.6422   16.4474 O   0  0  0  0  0  0  0  0  0  0  0  0
    9.5584  -14.3810   18.1065 C   0  0  0  0  0  0  0  0  0  0  0  0
    8.8125  -14.3252   19.3865 C   0  0  0  0  0  0  0  0  0  0  0  0
    9.2233  -15.3194   20.4300 C   0  0  2  0  0  0  0  0  0  0  0  0
    8.4712  -15.2668   21.6436 N   0  0  0  0  0  0  0  0  0  0  0  0
   10.6928  -15.2003   20.7319 C   0  0  0  0  0  0  0  0  0  0  0  0
   11.1459  -14.2832   21.4631 O   0  0  0  0  0  0  0  0  0  0  0  0
   11.6252  -16.1351   20.1912 N   0  0  0  0  0  0  0  0  0  0  0  0
   13.0218  -15.9425   20.4163 C   0  0  1  0  0  0  0  0  0  0  0  0
   13.7783  -17.2603   20.3177 C   0  0  0  0  0  0  0  0  0  0  0  0
   13.4967  -18.1450   21.4699 C   0  0  0  0  0  0  0  0  0  0  0  0
   13.5025  -17.6313   22.6077 O   0  0  0  0  0  0  0  0  0  0  0  0
   13.5716  -14.9642   19.4417 C   0  0  0  0  0  0  0  0  0  0  0  0
   14.9162  -14.6295   19.5387 O   0  0  0  0  0  0  0  0  0  0  0  0
   13.2288  -19.4963   21.3724 O   0  0  0  0  0  0  0  0  0  0  0  0
   12.8862  -14.4322   18.5453 O   0  0  0  0  0  0  0  0  0  0  0  0
  2  1  1  1
  2  3  1  0
  3  4  1  0
  4  5  2  0
  5  6  1  0
  7  6  1  0
  8  7  2  0
  9  8  1  0
 10 11  1  0
 10  9  2  0
 11 12  2  0
 12  4  1  0
 12  7  1  0
 13 21  1  0
 13  2  1  0
 14 13  2  0
 16 17  2  0
 16 15  1  0
 18 16  1  0
 19 18  1  0
 20 21  1  0
 20 19  1  6
 22 20  1  0
 23 22  2  0
 24 22  1  0
 25 29  1  0
 25 24  1  0
 26 27  1  0
 25 26  1  6
 27 28  2  0
 29 30  1  0
 31 27  1  0
 32 29  2  0
M  END
$$$$
