WQD.pdb
     RDKit          3D

 32 33  0  0  1  0  0  0  0  0999 V2000
    6.3778  -17.3658   24.2480 N   0  0  0  0  0  0  0  0  0  0  0  0
    7.2743  -16.3201   23.7910 C   0  0  1  0  0  0  0  0  0  0  0  0
    7.9650  -15.6253   24.9056 C   0  0  0  0  0  0  0  0  0  0  0  0
    7.1643  -14.6903   25.6875 C   0  0  0  0  0  0  0  0  0  0  0  0
    6.0058  -15.0809   26.3733 C   0  0  0  0  0  0  0  0  0  0  0  0
    5.4987  -14.0152   27.0111 N   0  0  0  0  0  0  0  0  0  0  0  0
    6.2677  -12.9206   26.7836 C   0  0  0  0  0  0  0  0  0  0  0  0
    6.1476  -11.6196   27.2161 C   0  0  0  0  0  0  0  0  0  0  0  0
    7.0752  -10.6816   26.8314 C   0  0  0  0  0  0  0  0  0  0  0  0
    8.1028  -11.0973   26.0136 C   0  0  0  0  0  0  0  0  0  0  0  0
    8.2212  -12.4006   25.5818 C   0  0  0  0  0  0  0  0  0  0  0  0
    7.2951  -13.3576   25.9611 C   0  0  0  0  0  0  0  0  0  0  0  0
    8.1341  -16.7269   22.6707 C   0  0  0  0  0  0  0  0  0  0  0  0
    8.6745  -17.8620   22.6978 O   0  0  0  0  0  0  0  0  0  0  0  0
    8.1702  -14.2788   16.7703 N   0  0  0  0  0  0  0  0  0  0  0  0
    8.2991  -13.4769   17.9654 C   0  0  0  0  0  0  0  0  0  0  0  0
    8.0656  -12.2574   17.8258 O   0  0  0  0  0  0  0  0  0  0  0  0
    8.6794  -14.1146   19.2393 C   0  0  0  0  0  0  0  0  0  0  0  0
    8.9833  -15.5638   19.1661 C   0  0  0  0  0  0  0  0  0  0  0  0
    9.2721  -16.2412   20.4714 C   0  0  2  0  0  0  0  0  0  0  0  0
    8.3881  -15.8961   21.5395 N   0  0  0  0  0  0  0  0  0  0  0  0
   10.6985  -16.0071   20.8905 C   0  0  0  0  0  0  0  0  0  0  0  0
   11.0069  -15.1099   21.7157 O   0  0  0  0  0  0  0  0  0  0  0  0
   11.7541  -16.8053   20.3575 N   0  0  0  0  0  0  0  0  0  0  0  0
   13.1085  -16.3997   20.5559 C   0  0  1  0  0  0  0  0  0  0  0  0
   13.2702  -14.9031   20.3262 C   0  0  0  0  0  0  0  0  0  0  0  0
   14.2099  -14.6136   19.2204 C   0  0  0  0  0  0  0  0  0  0  0  0
   15.0934  -13.7551   19.4227 O   0  0  0  0  0  0  0  0  0  0  0  0
   13.5591  -16.7574   21.9263 C   0  0  0  0  0  0  0  0  0  0  0  0
   14.9163  -16.9666   22.1348 O   0  0  0  0  0  0  0  0  0  0  0  0
   14.1760  -15.2268   17.9833 O   0  0  0  0  0  0  0  0  0  0  0  0
   12.7800  -16.8779   22.8932 O   0  0  0  0  0  0  0  0  0  0  0  0
  2  1  1  1
  2  3  1  0
  3  4  1  0
  4  5  2  0
  5  6  1  0
  7  6  1  0
  8  7  2  0
  9  8  1  0
 10 11  1  0
 10  9  2  0
 11 12  2  0
 12  4  1  0
 12  7  1  0
 13 21  1  0
 13  2  1  0
 14 13  2  0
 16 17  2  0
 16 15  1  0
 18 16  1  0
 19 18  1  0
 20 21  1  0
 20 19  1  6
 22 20  1  0
 23 22  2  0
 24 22  1  0
 25 29  1  0
 25 24  1  0
 26 27  1  0
 25 26  1  1
 27 28  2  0
 29 30  1  0
 31 27  1  0
 32 29  2  0
M  END
$$$$
