WQD.pdb
     RDKit          3D

 32 33  0  0  1  0  0  0  0  0999 V2000
    6.3510  -17.8028   24.6693 N   0  0  0  0  0  0  0  0  0  0  0  0
    7.0142  -16.5625   24.3115 C   0  0  1  0  0  0  0  0  0  0  0  0
    7.6941  -15.9195   25.4632 C   0  0  0  0  0  0  0  0  0  0  0  0
    6.9493  -14.8785   26.1621 C   0  0  0  0  0  0  0  0  0  0  0  0
    5.9300  -15.1685   27.0798 C   0  0  0  0  0  0  0  0  0  0  0  0
    5.4456  -14.0170   27.5688 N   0  0  0  0  0  0  0  0  0  0  0  0
    6.0963  -12.9611   27.0183 C   0  0  0  0  0  0  0  0  0  0  0  0
    5.9484  -11.6054   27.2035 C   0  0  0  0  0  0  0  0  0  0  0  0
    6.7443  -10.7281   26.5069 C   0  0  0  0  0  0  0  0  0  0  0  0
    7.6717  -11.2592   25.6377 C   0  0  0  0  0  0  0  0  0  0  0  0
    7.8182  -12.6170   25.4538 C   0  0  0  0  0  0  0  0  0  0  0  0
    7.0244  -13.5139   26.1488 C   0  0  0  0  0  0  0  0  0  0  0  0
    7.8086  -16.6517   23.0783 C   0  0  0  0  0  0  0  0  0  0  0  0
    8.4475  -17.7082   22.8397 O   0  0  0  0  0  0  0  0  0  0  0  0
    7.6642  -12.6800   17.9185 N   0  0  0  0  0  0  0  0  0  0  0  0
    8.5813  -13.7395   17.5661 C   0  0  0  0  0  0  0  0  0  0  0  0
    9.0154  -13.7112   16.3948 O   0  0  0  0  0  0  0  0  0  0  0  0
    8.9475  -14.7566   18.5688 C   0  0  0  0  0  0  0  0  0  0  0  0
    8.2897  -14.6210   19.8905 C   0  0  0  0  0  0  0  0  0  0  0  0
    8.6338  -15.6681   20.9060 C   0  0  2  0  0  0  0  0  0  0  0  0
    7.8917  -15.5945   22.1246 N   0  0  0  0  0  0  0  0  0  0  0  0
   10.1092  -15.6597   21.2028 C   0  0  0  0  0  0  0  0  0  0  0  0
   10.6337  -14.7743   21.9254 O   0  0  0  0  0  0  0  0  0  0  0  0
   10.9653  -16.6674   20.6670 N   0  0  0  0  0  0  0  0  0  0  0  0
   12.3727  -16.5835   20.8909 C   0  0  1  0  0  0  0  0  0  0  0  0
   13.0013  -17.9694   20.9453 C   0  0  0  0  0  0  0  0  0  0  0  0
   12.9031  -18.5665   22.2957 C   0  0  0  0  0  0  0  0  0  0  0  0
   12.6992  -17.7945   23.2553 O   0  0  0  0  0  0  0  0  0  0  0  0
   13.0175  -15.7721   19.8255 C   0  0  0  0  0  0  0  0  0  0  0  0
   14.3706  -15.4844   19.9509 O   0  0  0  0  0  0  0  0  0  0  0  0
   13.0216  -19.9157   22.5657 O   0  0  0  0  0  0  0  0  0  0  0  0
   12.4041  -15.3395   18.8290 O   0  0  0  0  0  0  0  0  0  0  0  0
  2  1  1  1
  2  3  1  0
  3  4  1  0
  4  5  2  0
  5  6  1  0
  7  6  1  0
  8  7  2  0
  9  8  1  0
 10 11  1  0
 10  9  2  0
 11 12  2  0
 12  4  1  0
 12  7  1  0
 13 21  1  0
 13  2  1  0
 14 13  2  0
 16 17  2  0
 16 15  1  0
 18 16  1  0
 19 18  1  0
 20 21  1  0
 20 19  1  6
 22 20  1  0
 23 22  2  0
 24 22  1  0
 25 29  1  0
 25 24  1  0
 26 27  1  0
 25 26  1  6
 27 28  2  0
 29 30  1  0
 31 27  1  0
 32 29  2  0
M  END
$$$$
