WQD.pdb
     RDKit          3D

 32 33  0  0  1  0  0  0  0  0999 V2000
    6.5892  -18.3146   24.5839 N   0  0  0  0  0  0  0  0  0  0  0  0
    6.8373  -16.9017   24.3646 C   0  0  1  0  0  0  0  0  0  0  0  0
    7.4754  -16.2408   25.5300 C   0  0  0  0  0  0  0  0  0  0  0  0
    6.7945  -15.0691   26.0688 C   0  0  0  0  0  0  0  0  0  0  0  0
    5.4551  -15.0994   26.4813 C   0  0  0  0  0  0  0  0  0  0  0  0
    5.1156  -13.8866   26.9434 N   0  0  0  0  0  0  0  0  0  0  0  0
    6.1714  -13.0384   26.8594 C   0  0  0  0  0  0  0  0  0  0  0  0
    6.3012  -11.7120   27.2029 C   0  0  0  0  0  0  0  0  0  0  0  0
    7.4997  -11.0684   27.0090 C   0  0  0  0  0  0  0  0  0  0  0  0
    8.5360  -11.7974   26.4682 C   0  0  0  0  0  0  0  0  0  0  0  0
    8.4039  -13.1254   26.1251 C   0  0  0  0  0  0  0  0  0  0  0  0
    7.2030  -13.7882   26.3149 C   0  0  0  0  0  0  0  0  0  0  0  0
    7.4436  -16.6040   23.0594 C   0  0  0  0  0  0  0  0  0  0  0  0
    8.2770  -17.4120   22.5757 O   0  0  0  0  0  0  0  0  0  0  0  0
    6.7209  -14.6065   17.8019 N   0  0  0  0  0  0  0  0  0  0  0  0
    8.0183  -14.0932   18.1776 C   0  0  0  0  0  0  0  0  0  0  0  0
    8.9663  -14.4232   17.4335 O   0  0  0  0  0  0  0  0  0  0  0  0
    8.1510  -13.2358   19.3698 C   0  0  0  0  0  0  0  0  0  0  0  0
    7.4201  -13.6948   20.5751 C   0  0  0  0  0  0  0  0  0  0  0  0
    7.8668  -15.0021   21.1560 C   0  0  2  0  0  0  0  0  0  0  0  0
    7.1313  -15.4371   22.3010 N   0  0  0  0  0  0  0  0  0  0  0  0
    9.3377  -14.9709   21.4730 C   0  0  0  0  0  0  0  0  0  0  0  0
    9.7818  -14.3906   22.4963 O   0  0  0  0  0  0  0  0  0  0  0  0
   10.2816  -15.6058   20.6120 N   0  0  0  0  0  0  0  0  0  0  0  0
   11.5746  -15.9419   21.1155 C   0  0  1  0  0  0  0  0  0  0  0  0
   11.4703  -16.9024   22.2924 C   0  0  0  0  0  0  0  0  0  0  0  0
   12.8020  -17.3435   22.7635 C   0  0  0  0  0  0  0  0  0  0  0  0
   13.8037  -16.8817   22.1789 O   0  0  0  0  0  0  0  0  0  0  0  0
   12.4077  -16.5408   20.0402 C   0  0  0  0  0  0  0  0  0  0  0  0
   13.5287  -15.8400   19.6142 O   0  0  0  0  0  0  0  0  0  0  0  0
   13.0112  -18.2288   23.8026 O   0  0  0  0  0  0  0  0  0  0  0  0
   12.1491  -17.6376   19.5048 O   0  0  0  0  0  0  0  0  0  0  0  0
  2  1  1  1
  2  3  1  0
  3  4  1  0
  4  5  2  0
  5  6  1  0
  7  6  1  0
  8  7  2  0
  9  8  1  0
 10 11  1  0
 10  9  2  0
 11 12  2  0
 12  4  1  0
 12  7  1  0
 13 21  1  0
 13  2  1  0
 14 13  2  0
 16 17  2  0
 16 15  1  0
 18 16  1  0
 19 18  1  0
 20 21  1  0
 20 19  1  1
 22 20  1  0
 23 22  2  0
 24 22  1  0
 25 29  1  0
 25 24  1  0
 26 27  1  0
 25 26  1  1
 27 28  2  0
 29 30  1  0
 31 27  1  0
 32 29  2  0
M  END
$$$$
