WQD.pdb
     RDKit          3D

 32 33  0  0  1  0  0  0  0  0999 V2000
    6.8333  -17.4412   23.6964 N   0  0  0  0  0  0  0  0  0  0  0  0
    8.0138  -16.5983   23.7390 C   0  0  1  0  0  0  0  0  0  0  0  0
    8.2868  -16.0567   25.0933 C   0  0  0  0  0  0  0  0  0  0  0  0
    7.3044  -15.1236   25.6329 C   0  0  0  0  0  0  0  0  0  0  0  0
    6.1658  -15.5487   26.3315 C   0  0  0  0  0  0  0  0  0  0  0  0
    5.4654  -14.4713   26.7166 N   0  0  0  0  0  0  0  0  0  0  0  0
    6.0847  -13.3359   26.3062 C   0  0  0  0  0  0  0  0  0  0  0  0
    5.7478  -12.0104   26.4601 C   0  0  0  0  0  0  0  0  0  0  0  0
    6.5577  -11.0324   25.9348 C   0  0  0  0  0  0  0  0  0  0  0  0
    7.6923  -11.4343   25.2649 C   0  0  0  0  0  0  0  0  0  0  0  0
    8.0278  -12.7621   25.1121 C   0  0  0  0  0  0  0  0  0  0  0  0
    7.2225  -13.7593   25.6360 C   0  0  0  0  0  0  0  0  0  0  0  0
    9.1741  -17.1708   23.0419 C   0  0  0  0  0  0  0  0  0  0  0  0
    9.5882  -18.3088   23.3805 O   0  0  0  0  0  0  0  0  0  0  0  0
   13.1822  -19.2413   19.1312 N   0  0  0  0  0  0  0  0  0  0  0  0
   12.6139  -18.0020   18.6526 C   0  0  0  0  0  0  0  0  0  0  0  0
   12.0604  -18.0577   17.5338 O   0  0  0  0  0  0  0  0  0  0  0  0
   12.7078  -16.7844   19.4788 C   0  0  0  0  0  0  0  0  0  0  0  0
   11.4395  -16.3282   20.0963 C   0  0  0  0  0  0  0  0  0  0  0  0
   11.0896  -16.9502   21.4141 C   0  0  2  0  0  0  0  0  0  0  0  0
    9.8609  -16.4997   21.9874 N   0  0  0  0  0  0  0  0  0  0  0  0
   12.2112  -16.7745   22.4021 C   0  0  0  0  0  0  0  0  0  0  0  0
   12.4046  -15.6834   22.9964 O   0  0  0  0  0  0  0  0  0  0  0  0
   13.0976  -17.8530   22.6965 N   0  0  0  0  0  0  0  0  0  0  0  0
   14.1822  -17.6422   23.6006 C   0  0  1  0  0  0  0  0  0  0  0  0
   14.4232  -18.8745   24.4621 C   0  0  0  0  0  0  0  0  0  0  0  0
   14.4526  -20.1143   23.6547 C   0  0  0  0  0  0  0  0  0  0  0  0
   14.2401  -20.0106   22.4289 O   0  0  0  0  0  0  0  0  0  0  0  0
   15.4180  -17.2934   22.8520 C   0  0  0  0  0  0  0  0  0  0  0  0
   16.5327  -16.8953   23.5789 O   0  0  0  0  0  0  0  0  0  0  0  0
   14.6980  -21.3745   24.1637 O   0  0  0  0  0  0  0  0  0  0  0  0
   15.5010  -17.3409   21.6081 O   0  0  0  0  0  0  0  0  0  0  0  0
  2  1  1  1
  2  3  1  0
  3  4  1  0
  4  5  2  0
  5  6  1  0
  7  6  1  0
  8  7  2  0
  9  8  1  0
 10 11  1  0
 10  9  2  0
 11 12  2  0
 12  4  1  0
 12  7  1  0
 13 21  1  0
 13  2  1  0
 14 13  2  0
 16 17  2  0
 16 15  1  0
 18 16  1  0
 19 18  1  0
 20 21  1  0
 20 19  1  6
 22 20  1  0
 23 22  2  0
 24 22  1  0
 25 29  1  0
 25 24  1  0
 26 27  1  0
 25 26  1  6
 27 28  2  0
 29 30  1  0
 31 27  1  0
 32 29  2  0
M  END
$$$$
