WQD.pdb
     RDKit          3D

 32 33  0  0  1  0  0  0  0  0999 V2000
    7.3339  -17.4749   24.4023 N   0  0  0  0  0  0  0  0  0  0  0  0
    8.2877  -16.5253   23.8597 C   0  0  1  0  0  0  0  0  0  0  0  0
    8.6678  -15.4707   24.8320 C   0  0  0  0  0  0  0  0  0  0  0  0
    7.5743  -14.7787   25.5045 C   0  0  0  0  0  0  0  0  0  0  0  0
    6.4946  -15.4599   26.0837 C   0  0  0  0  0  0  0  0  0  0  0  0
    5.6635  -14.5645   26.6380 N   0  0  0  0  0  0  0  0  0  0  0  0
    6.1380  -13.3063   26.4564 C   0  0  0  0  0  0  0  0  0  0  0  0
    5.6375  -12.0824   26.8380 C   0  0  0  0  0  0  0  0  0  0  0  0
    6.3213  -10.9336   26.5202 C   0  0  0  0  0  0  0  0  0  0  0  0
    7.5001  -11.0649   25.8196 C   0  0  0  0  0  0  0  0  0  0  0  0
    7.9994  -12.2915   25.4386 C   0  0  0  0  0  0  0  0  0  0  0  0
    7.3226  -13.4582   25.7518 C   0  0  0  0  0  0  0  0  0  0  0  0
    9.4047  -17.1547   23.1415 C   0  0  0  0  0  0  0  0  0  0  0  0
    9.8592  -18.2497   23.5605 O   0  0  0  0  0  0  0  0  0  0  0  0
   13.6915  -13.9406   18.8427 N   0  0  0  0  0  0  0  0  0  0  0  0
   12.2770  -14.1450   19.0554 C   0  0  0  0  0  0  0  0  0  0  0  0
   11.5274  -13.7191   18.1511 O   0  0  0  0  0  0  0  0  0  0  0  0
   11.8095  -14.8237   20.2781 C   0  0  0  0  0  0  0  0  0  0  0  0
   11.6743  -16.2970   20.1826 C   0  0  0  0  0  0  0  0  0  0  0  0
   11.2611  -17.0015   21.4391 C   0  0  2  0  0  0  0  0  0  0  0  0
   10.0053  -16.5864   21.9793 N   0  0  0  0  0  0  0  0  0  0  0  0
   12.3328  -16.8916   22.4900 C   0  0  0  0  0  0  0  0  0  0  0  0
   12.3573  -15.9413   23.3132 O   0  0  0  0  0  0  0  0  0  0  0  0
   13.3637  -17.8734   22.5840 N   0  0  0  0  0  0  0  0  0  0  0  0
   14.4773  -17.6404   23.4465 C   0  0  1  0  0  0  0  0  0  0  0  0
   14.9959  -16.2165   23.2972 C   0  0  0  0  0  0  0  0  0  0  0  0
   16.2444  -16.1650   22.5045 C   0  0  0  0  0  0  0  0  0  0  0  0
   17.2545  -15.6732   23.0487 O   0  0  0  0  0  0  0  0  0  0  0  0
   14.0985  -17.9000   24.8601 C   0  0  0  0  0  0  0  0  0  0  0  0
   12.7496  -18.0376   25.1612 O   0  0  0  0  0  0  0  0  0  0  0  0
   16.3676  -16.6227   21.2072 O   0  0  0  0  0  0  0  0  0  0  0  0
   14.9306  -17.9997   25.7843 O   0  0  0  0  0  0  0  0  0  0  0  0
  2  1  1  1
  2  3  1  0
  3  4  1  0
  4  5  2  0
  5  6  1  0
  7  6  1  0
  8  7  2  0
  9  8  1  0
 10 11  1  0
 10  9  2  0
 11 12  2  0
 12  4  1  0
 12  7  1  0
 13 21  1  0
 13  2  1  0
 14 13  2  0
 16 17  2  0
 16 15  1  0
 18 16  1  0
 19 18  1  0
 20 21  1  0
 20 19  1  6
 22 20  1  0
 23 22  2  0
 24 22  1  0
 25 29  1  0
 25 24  1  0
 26 27  1  0
 25 26  1  1
 27 28  2  0
 29 30  1  0
 31 27  1  0
 32 29  2  0
M  END
$$$$
