WQD.pdb
     RDKit          3D

 32 33  0  0  1  0  0  0  0  0999 V2000
    6.3935  -17.5480   24.3004 N   0  0  0  0  0  0  0  0  0  0  0  0
    7.3075  -16.5446   23.7866 C   0  0  1  0  0  0  0  0  0  0  0  0
    7.9415  -15.7391   24.8595 C   0  0  0  0  0  0  0  0  0  0  0  0
    7.0676  -14.8374   25.6012 C   0  0  0  0  0  0  0  0  0  0  0  0
    5.8886  -15.2725   26.2224 C   0  0  0  0  0  0  0  0  0  0  0  0
    5.3109  -14.2291   26.8365 N   0  0  0  0  0  0  0  0  0  0  0  0
    6.0518  -13.1069   26.6549 C   0  0  0  0  0  0  0  0  0  0  0  0
    5.8629  -11.8135   27.0858 C   0  0  0  0  0  0  0  0  0  0  0  0
    6.7760  -10.8412   26.7552 C   0  0  0  0  0  0  0  0  0  0  0  0
    7.8599  -11.2158   25.9920 C   0  0  0  0  0  0  0  0  0  0  0  0
    8.0471  -12.5115   25.5618 C   0  0  0  0  0  0  0  0  0  0  0  0
    7.1365  -13.5026   25.8869 C   0  0  0  0  0  0  0  0  0  0  0  0
    8.2214  -17.0515   22.7534 C   0  0  0  0  0  0  0  0  0  0  0  0
    8.7409  -18.1869   22.9028 O   0  0  0  0  0  0  0  0  0  0  0  0
    8.3493  -15.4458   16.9959 N   0  0  0  0  0  0  0  0  0  0  0  0
    8.0400  -14.5486   18.0854 C   0  0  0  0  0  0  0  0  0  0  0  0
    7.1569  -13.6966   17.8499 O   0  0  0  0  0  0  0  0  0  0  0  0
    8.7506  -14.6825   19.3704 C   0  0  0  0  0  0  0  0  0  0  0  0
    9.7135  -15.8064   19.4573 C   0  0  0  0  0  0  0  0  0  0  0  0
    9.5825  -16.6921   20.6592 C   0  0  2  0  0  0  0  0  0  0  0  0
    8.5514  -16.3189   21.5750 N   0  0  0  0  0  0  0  0  0  0  0  0
   10.8962  -16.8054   21.3847 C   0  0  0  0  0  0  0  0  0  0  0  0
   11.3941  -15.8331   22.0075 O   0  0  0  0  0  0  0  0  0  0  0  0
   11.6231  -18.0331   21.3871 N   0  0  0  0  0  0  0  0  0  0  0  0
   12.8588  -18.1150   22.0973 C   0  0  1  0  0  0  0  0  0  0  0  0
   13.1787  -19.5554   22.4736 C   0  0  0  0  0  0  0  0  0  0  0  0
   14.5157  -19.6785   23.0957 C   0  0  0  0  0  0  0  0  0  0  0  0
   15.3880  -20.3152   22.4693 O   0  0  0  0  0  0  0  0  0  0  0  0
   13.9620  -17.5436   21.2815 C   0  0  0  0  0  0  0  0  0  0  0  0
   13.7899  -17.4754   19.9049 O   0  0  0  0  0  0  0  0  0  0  0  0
   14.8630  -19.1387   24.3185 O   0  0  0  0  0  0  0  0  0  0  0  0
   15.0297  -17.1244   21.7721 O   0  0  0  0  0  0  0  0  0  0  0  0
  2  1  1  1
  2  3  1  0
  3  4  1  0
  4  5  2  0
  5  6  1  0
  7  6  1  0
  8  7  2  0
  9  8  1  0
 10 11  1  0
 10  9  2  0
 11 12  2  0
 12  4  1  0
 12  7  1  0
 13 21  1  0
 13  2  1  0
 14 13  2  0
 16 17  2  0
 16 15  1  0
 18 16  1  0
 19 18  1  0
 20 21  1  0
 20 19  1  6
 22 20  1  0
 23 22  2  0
 24 22  1  0
 25 29  1  0
 25 24  1  0
 26 27  1  0
 25 26  1  6
 27 28  2  0
 29 30  1  0
 31 27  1  0
 32 29  2  0
M  END
$$$$
