WQD.pdb
     RDKit          3D

 32 33  0  0  1  0  0  0  0  0999 V2000
    6.3500  -17.5511   24.3159 N   0  0  0  0  0  0  0  0  0  0  0  0
    7.2076  -16.5097   23.7810 C   0  0  1  0  0  0  0  0  0  0  0  0
    7.9545  -15.7800   24.8353 C   0  0  0  0  0  0  0  0  0  0  0  0
    7.1662  -14.9435   25.7330 C   0  0  0  0  0  0  0  0  0  0  0  0
    6.3370  -15.4795   26.7281 C   0  0  0  0  0  0  0  0  0  0  0  0
    5.7585  -14.4726   27.3998 N   0  0  0  0  0  0  0  0  0  0  0  0
    6.1633  -13.2784   26.8985 C   0  0  0  0  0  0  0  0  0  0  0  0
    5.8424  -11.9880   27.2533 C   0  0  0  0  0  0  0  0  0  0  0  0
    6.3959  -10.9320   26.5700 C   0  0  0  0  0  0  0  0  0  0  0  0
    7.2639  -11.2220   25.5404 C   0  0  0  0  0  0  0  0  0  0  0  0
    7.5840  -12.5149   25.1869 C   0  0  0  0  0  0  0  0  0  0  0  0
    7.0352  -13.5896   25.8660 C   0  0  0  0  0  0  0  0  0  0  0  0
    8.0050  -16.9378   22.6231 C   0  0  0  0  0  0  0  0  0  0  0  0
    8.6188  -18.0340   22.6773 O   0  0  0  0  0  0  0  0  0  0  0  0
    8.1503  -12.9298   17.2261 N   0  0  0  0  0  0  0  0  0  0  0  0
    7.5578  -13.7087   18.2891 C   0  0  0  0  0  0  0  0  0  0  0  0
    6.3569  -14.0151   18.1299 O   0  0  0  0  0  0  0  0  0  0  0  0
    8.3700  -14.0915   19.4586 C   0  0  0  0  0  0  0  0  0  0  0  0
    9.1301  -15.3574   19.3255 C   0  0  0  0  0  0  0  0  0  0  0  0
    9.2642  -16.1774   20.5728 C   0  0  2  0  0  0  0  0  0  0  0  0
    8.1184  -16.1706   21.4262 N   0  0  0  0  0  0  0  0  0  0  0  0
   10.4858  -15.7692   21.3514 C   0  0  0  0  0  0  0  0  0  0  0  0
   10.4189  -14.9584   22.3102 O   0  0  0  0  0  0  0  0  0  0  0  0
   11.7696  -16.2964   21.0207 N   0  0  0  0  0  0  0  0  0  0  0  0
   12.6271  -16.7600   22.0637 C   0  0  1  0  0  0  0  0  0  0  0  0
   11.9429  -17.8355   22.8966 C   0  0  0  0  0  0  0  0  0  0  0  0
   12.8643  -18.4347   23.8874 C   0  0  0  0  0  0  0  0  0  0  0  0
   13.3014  -17.6936   24.7920 O   0  0  0  0  0  0  0  0  0  0  0  0
   13.8954  -17.2855   21.4940 C   0  0  0  0  0  0  0  0  0  0  0  0
   13.8202  -18.1010   20.3722 O   0  0  0  0  0  0  0  0  0  0  0  0
   13.2726  -19.7540   23.8792 O   0  0  0  0  0  0  0  0  0  0  0  0
   15.0185  -17.0301   21.9733 O   0  0  0  0  0  0  0  0  0  0  0  0
  2  1  1  1
  2  3  1  0
  3  4  1  0
  4  5  2  0
  5  6  1  0
  7  6  1  0
  8  7  2  0
  9  8  1  0
 10 11  1  0
 10  9  2  0
 11 12  2  0
 12  4  1  0
 12  7  1  0
 13 21  1  0
 13  2  1  0
 14 13  2  0
 16 17  2  0
 16 15  1  0
 18 16  1  0
 19 18  1  0
 20 21  1  0
 20 19  1  6
 22 20  1  0
 23 22  2  0
 24 22  1  0
 25 29  1  0
 25 24  1  0
 26 27  1  0
 25 26  1  6
 27 28  2  0
 29 30  1  0
 31 27  1  0
 32 29  2  0
M  END
$$$$
