WQD.pdb
     RDKit          3D

 32 33  0  0  1  0  0  0  0  0999 V2000
    7.0813  -17.6845   24.7882 N   0  0  0  0  0  0  0  0  0  0  0  0
    7.6680  -16.5480   24.1026 C   0  0  1  0  0  0  0  0  0  0  0  0
    8.1834  -15.5153   25.0354 C   0  0  0  0  0  0  0  0  0  0  0  0
    7.1868  -14.7206   25.7439 C   0  0  0  0  0  0  0  0  0  0  0  0
    6.1132  -15.3000   26.4345 C   0  0  0  0  0  0  0  0  0  0  0  0
    5.3815  -14.3256   26.9956 N   0  0  0  0  0  0  0  0  0  0  0  0
    5.9173  -13.1117   26.7118 C   0  0  0  0  0  0  0  0  0  0  0  0
    5.5220  -11.8401   27.0595 C   0  0  0  0  0  0  0  0  0  0  0  0
    6.2494  -10.7557   26.6313 C   0  0  0  0  0  0  0  0  0  0  0  0
    7.3631  -10.9987   25.8578 C   0  0  0  0  0  0  0  0  0  0  0  0
    7.7571  -12.2728   25.5109 C   0  0  0  0  0  0  0  0  0  0  0  0
    7.0353  -13.3758   25.9350 C   0  0  0  0  0  0  0  0  0  0  0  0
    8.5765  -16.9219   23.0096 C   0  0  0  0  0  0  0  0  0  0  0  0
    9.0671  -18.0796   22.9937 O   0  0  0  0  0  0  0  0  0  0  0  0
    7.3478  -13.4096   18.6426 N   0  0  0  0  0  0  0  0  0  0  0  0
    8.7897  -13.3869   18.5515 C   0  0  0  0  0  0  0  0  0  0  0  0
    9.2845  -12.3460   18.0691 O   0  0  0  0  0  0  0  0  0  0  0  0
    9.5727  -14.5456   19.0190 C   0  0  0  0  0  0  0  0  0  0  0  0
    8.7812  -15.6992   19.5099 C   0  0  0  0  0  0  0  0  0  0  0  0
    9.3706  -16.4584   20.6597 C   0  0  2  0  0  0  0  0  0  0  0  0
    8.9326  -16.0341   21.9517 N   0  0  0  0  0  0  0  0  0  0  0  0
   10.8742  -16.4407   20.5967 C   0  0  0  0  0  0  0  0  0  0  0  0
   11.5126  -17.1909   19.8152 O   0  0  0  0  0  0  0  0  0  0  0  0
   11.6275  -15.5623   21.4313 N   0  0  0  0  0  0  0  0  0  0  0  0
   12.6643  -16.0955   22.2552 C   0  0  1  0  0  0  0  0  0  0  0  0
   12.4998  -17.5984   22.4370 C   0  0  0  0  0  0  0  0  0  0  0  0
   13.6450  -18.1946   23.1601 C   0  0  0  0  0  0  0  0  0  0  0  0
   14.3279  -19.0481   22.5572 O   0  0  0  0  0  0  0  0  0  0  0  0
   13.9963  -15.7952   21.6680 C   0  0  0  0  0  0  0  0  0  0  0  0
   14.0401  -15.2419   20.3947 O   0  0  0  0  0  0  0  0  0  0  0  0
   14.0083  -17.8720   24.4529 O   0  0  0  0  0  0  0  0  0  0  0  0
   15.0712  -16.0154   22.2615 O   0  0  0  0  0  0  0  0  0  0  0  0
  2  1  1  1
  2  3  1  0
  3  4  1  0
  4  5  2  0
  5  6  1  0
  7  6  1  0
  8  7  2  0
  9  8  1  0
 10 11  1  0
 10  9  2  0
 11 12  2  0
 12  4  1  0
 12  7  1  0
 13 21  1  0
 13  2  1  0
 14 13  2  0
 16 17  2  0
 16 15  1  0
 18 16  1  0
 19 18  1  0
 20 21  1  0
 20 19  1  6
 22 20  1  0
 23 22  2  0
 24 22  1  0
 25 29  1  0
 25 24  1  0
 26 27  1  0
 25 26  1  6
 27 28  2  0
 29 30  1  0
 31 27  1  0
 32 29  2  0
M  END
$$$$
