WQD.pdb
     RDKit          3D

 32 33  0  0  1  0  0  0  0  0999 V2000
    6.7157  -18.3925   25.3248 N   0  0  0  0  0  0  0  0  0  0  0  0
    6.6244  -17.4496   24.2254 C   0  0  1  0  0  0  0  0  0  0  0  0
    6.1521  -16.1094   24.6531 C   0  0  0  0  0  0  0  0  0  0  0  0
    6.9839  -15.4028   25.6205 C   0  0  0  0  0  0  0  0  0  0  0  0
    8.0536  -16.0178   26.2857 C   0  0  0  0  0  0  0  0  0  0  0  0
    8.6368  -15.1193   27.0933 N   0  0  0  0  0  0  0  0  0  0  0  0
    8.0041  -13.9225   27.0006 C   0  0  0  0  0  0  0  0  0  0  0  0
    8.2354  -12.7211   27.6308 C   0  0  0  0  0  0  0  0  0  0  0  0
    7.4311  -11.6401   27.3606 C   0  0  0  0  0  0  0  0  0  0  0  0
    6.4101  -11.8146   26.4525 C   0  0  0  0  0  0  0  0  0  0  0  0
    6.1805  -13.0186   25.8226 C   0  0  0  0  0  0  0  0  0  0  0  0
    6.9822  -14.1169   26.0836 C   0  0  0  0  0  0  0  0  0  0  0  0
    7.8007  -17.4535   23.3445 C   0  0  0  0  0  0  0  0  0  0  0  0
    8.7095  -18.2992   23.5447 O   0  0  0  0  0  0  0  0  0  0  0  0
    6.4397  -17.0163   19.2121 N   0  0  0  0  0  0  0  0  0  0  0  0
    7.6357  -17.2752   18.4436 C   0  0  0  0  0  0  0  0  0  0  0  0
    7.4892  -18.0178   17.4495 O   0  0  0  0  0  0  0  0  0  0  0  0
    8.9162  -16.6693   18.8528 C   0  0  0  0  0  0  0  0  0  0  0  0
    8.8679  -15.8299   20.0738 C   0  0  0  0  0  0  0  0  0  0  0  0
    9.0867  -16.5458   21.3722 C   0  0  2  0  0  0  0  0  0  0  0  0
    7.9672  -16.5423   22.2599 N   0  0  0  0  0  0  0  0  0  0  0  0
   10.3030  -16.0107   22.0787 C   0  0  0  0  0  0  0  0  0  0  0  0
   10.2185  -15.1073   22.9493 O   0  0  0  0  0  0  0  0  0  0  0  0
   11.6019  -16.5184   21.7779 N   0  0  0  0  0  0  0  0  0  0  0  0
   12.6458  -16.3900   22.7432 C   0  0  1  0  0  0  0  0  0  0  0  0
   12.2792  -17.0951   24.0421 C   0  0  0  0  0  0  0  0  0  0  0  0
   13.3780  -17.0341   25.0314 C   0  0  0  0  0  0  0  0  0  0  0  0
   14.3812  -16.3510   24.7393 O   0  0  0  0  0  0  0  0  0  0  0  0
   13.9173  -16.9404   22.2050 C   0  0  0  0  0  0  0  0  0  0  0  0
   13.9055  -18.2303   21.6899 O   0  0  0  0  0  0  0  0  0  0  0  0
   13.3691  -17.6798   26.2522 O   0  0  0  0  0  0  0  0  0  0  0  0
   14.9890  -16.3019   22.1940 O   0  0  0  0  0  0  0  0  0  0  0  0
  2  1  1  1
  2  3  1  0
  3  4  1  0
  4  5  2  0
  5  6  1  0
  7  6  1  0
  8  7  2  0
  9  8  1  0
 10 11  1  0
 10  9  2  0
 11 12  2  0
 12  4  1  0
 12  7  1  0
 13 21  1  0
 13  2  1  0
 14 13  2  0
 16 17  2  0
 16 15  1  0
 18 16  1  0
 19 18  1  0
 20 21  1  0
 20 19  1  6
 22 20  1  0
 23 22  2  0
 24 22  1  0
 25 29  1  0
 25 24  1  0
 26 27  1  0
 25 26  1  1
 27 28  2  0
 29 30  1  0
 31 27  1  0
 32 29  2  0
M  END
$$$$
