WQD.pdb
     RDKit          3D

 32 33  0  0  1  0  0  0  0  0999 V2000
    6.9379  -17.9267   24.7191 N   0  0  0  0  0  0  0  0  0  0  0  0
    7.2222  -16.6146   24.1679 C   0  0  1  0  0  0  0  0  0  0  0  0
    7.9303  -15.7286   25.1247 C   0  0  0  0  0  0  0  0  0  0  0  0
    7.1050  -14.7957   25.8833 C   0  0  0  0  0  0  0  0  0  0  0  0
    6.0412  -15.2174   26.6931 C   0  0  0  0  0  0  0  0  0  0  0  0
    5.4848  -14.1433   27.2731 N   0  0  0  0  0  0  0  0  0  0  0  0
    6.1295  -13.0133   26.8875 C   0  0  0  0  0  0  0  0  0  0  0  0
    5.9203  -11.6922   27.2114 C   0  0  0  0  0  0  0  0  0  0  0  0
    6.7256  -10.7187   26.6709 C   0  0  0  0  0  0  0  0  0  0  0  0
    7.7250  -11.1205   25.8122 C   0  0  0  0  0  0  0  0  0  0  0  0
    7.9328  -12.4440   25.4894 C   0  0  0  0  0  0  0  0  0  0  0  0
    7.1304  -13.4367   26.0261 C   0  0  0  0  0  0  0  0  0  0  0  0
    7.7818  -16.6530   22.8096 C   0  0  0  0  0  0  0  0  0  0  0  0
    8.4539  -17.6551   22.4552 O   0  0  0  0  0  0  0  0  0  0  0  0
    9.6243  -12.6447   18.2884 N   0  0  0  0  0  0  0  0  0  0  0  0
    8.4790  -13.3163   17.7184 C   0  0  0  0  0  0  0  0  0  0  0  0
    7.8813  -12.6933   16.8151 O   0  0  0  0  0  0  0  0  0  0  0  0
    8.0924  -14.6520   18.2089 C   0  0  0  0  0  0  0  0  0  0  0  0
    7.5011  -14.6903   19.5679 C   0  0  0  0  0  0  0  0  0  0  0  0
    8.1773  -15.5946   20.5532 C   0  0  2  0  0  0  0  0  0  0  0  0
    7.5984  -15.6053   21.8593 N   0  0  0  0  0  0  0  0  0  0  0  0
    9.6461  -15.2801   20.6460 C   0  0  0  0  0  0  0  0  0  0  0  0
   10.0807  -14.3629   21.3883 O   0  0  0  0  0  0  0  0  0  0  0  0
   10.5989  -16.0217   19.8860 N   0  0  0  0  0  0  0  0  0  0  0  0
   11.9875  -15.7141   20.0103 C   0  0  1  0  0  0  0  0  0  0  0  0
   12.5268  -16.1579   21.3634 C   0  0  0  0  0  0  0  0  0  0  0  0
   12.5705  -17.6322   21.4827 C   0  0  0  0  0  0  0  0  0  0  0  0
   12.0990  -18.3022   20.5408 O   0  0  0  0  0  0  0  0  0  0  0  0
   12.7593  -16.3600   18.9166 C   0  0  0  0  0  0  0  0  0  0  0  0
   14.0993  -16.0234   18.7745 O   0  0  0  0  0  0  0  0  0  0  0  0
   13.0957  -18.3152   22.5620 O   0  0  0  0  0  0  0  0  0  0  0  0
   12.2630  -17.1859   18.1241 O   0  0  0  0  0  0  0  0  0  0  0  0
  2  1  1  1
  2  3  1  0
  3  4  1  0
  4  5  2  0
  5  6  1  0
  7  6  1  0
  8  7  2  0
  9  8  1  0
 10 11  1  0
 10  9  2  0
 11 12  2  0
 12  4  1  0
 12  7  1  0
 13 21  1  0
 13  2  1  0
 14 13  2  0
 16 17  2  0
 16 15  1  0
 18 16  1  0
 19 18  1  0
 20 21  1  0
 20 19  1  6
 22 20  1  0
 23 22  2  0
 24 22  1  0
 25 29  1  0
 25 24  1  0
 26 27  1  0
 25 26  1  1
 27 28  2  0
 29 30  1  0
 31 27  1  0
 32 29  2  0
M  END
$$$$
