WQD.pdb
     RDKit          3D

 32 33  0  0  1  0  0  0  0  0999 V2000
    5.7772  -16.9522   23.7564 N   0  0  0  0  0  0  0  0  0  0  0  0
    6.9943  -16.4351   23.1587 C   0  0  1  0  0  0  0  0  0  0  0  0
    7.9699  -15.9494   24.1659 C   0  0  0  0  0  0  0  0  0  0  0  0
    7.4514  -15.0635   25.2020 C   0  0  0  0  0  0  0  0  0  0  0  0
    6.7759  -15.5418   26.3334 C   0  0  0  0  0  0  0  0  0  0  0  0
    6.4367  -14.5010   27.1087 N   0  0  0  0  0  0  0  0  0  0  0  0
    6.8555  -13.3391   26.5466 C   0  0  0  0  0  0  0  0  0  0  0  0
    6.7361  -12.0329   26.9636 C   0  0  0  0  0  0  0  0  0  0  0  0
    7.2523  -11.0184   26.1937 C   0  0  0  0  0  0  0  0  0  0  0  0
    7.8777  -11.3649   25.0162 C   0  0  0  0  0  0  0  0  0  0  0  0
    7.9962  -12.6734   24.6007 C   0  0  0  0  0  0  0  0  0  0  0  0
    7.4820  -13.7070   25.3655 C   0  0  0  0  0  0  0  0  0  0  0  0
    7.5492  -17.2986   22.1069 C   0  0  0  0  0  0  0  0  0  0  0  0
    6.8808  -18.2893   21.7159 O   0  0  0  0  0  0  0  0  0  0  0  0
    7.2777  -12.8895   18.9655 N   0  0  0  0  0  0  0  0  0  0  0  0
    8.0071  -13.6515   17.9781 C   0  0  0  0  0  0  0  0  0  0  0  0
    8.0563  -13.1485   16.8354 O   0  0  0  0  0  0  0  0  0  0  0  0
    8.6355  -14.9308   18.3559 C   0  0  0  0  0  0  0  0  0  0  0  0
    8.3591  -15.3990   19.7351 C   0  0  0  0  0  0  0  0  0  0  0  0
    8.9944  -16.6985   20.1273 C   0  0  2  0  0  0  0  0  0  0  0  0
    8.8173  -17.0686   21.4958 N   0  0  0  0  0  0  0  0  0  0  0  0
   10.4589  -16.7031   19.7804 C   0  0  0  0  0  0  0  0  0  0  0  0
   10.9204  -15.9958   18.8488 O   0  0  0  0  0  0  0  0  0  0  0  0
   11.3765  -17.5192   20.5066 N   0  0  0  0  0  0  0  0  0  0  0  0
   12.5847  -16.9439   21.0041 C   0  0  1  0  0  0  0  0  0  0  0  0
   12.8053  -15.5519   20.4274 C   0  0  0  0  0  0  0  0  0  0  0  0
   14.1860  -15.0722   20.6585 C   0  0  0  0  0  0  0  0  0  0  0  0
   14.9603  -15.8219   21.2883 O   0  0  0  0  0  0  0  0  0  0  0  0
   12.5539  -16.8821   22.4889 C   0  0  0  0  0  0  0  0  0  0  0  0
   13.5555  -17.5396   23.1917 O   0  0  0  0  0  0  0  0  0  0  0  0
   14.6745  -13.8549   20.2261 O   0  0  0  0  0  0  0  0  0  0  0  0
   11.6757  -16.2710   23.1304 O   0  0  0  0  0  0  0  0  0  0  0  0
  2  1  1  1
  2  3  1  0
  3  4  1  0
  4  5  2  0
  5  6  1  0
  7  6  1  0
  8  7  2  0
  9  8  1  0
 10 11  1  0
 10  9  2  0
 11 12  2  0
 12  4  1  0
 12  7  1  0
 13 21  1  0
 13  2  1  0
 14 13  2  0
 16 17  2  0
 16 15  1  0
 18 16  1  0
 19 18  1  0
 20 21  1  0
 20 19  1  1
 22 20  1  0
 23 22  2  0
 24 22  1  0
 25 29  1  0
 25 24  1  0
 26 27  1  0
 25 26  1  6
 27 28  2  0
 29 30  1  0
 31 27  1  0
 32 29  2  0
M  END
$$$$
