WQD.pdb
     RDKit          3D

 32 33  0  0  1  0  0  0  0  0999 V2000
    6.6437  -17.1730   23.9035 N   0  0  0  0  0  0  0  0  0  0  0  0
    7.1671  -15.9141   23.4063 C   0  0  1  0  0  0  0  0  0  0  0  0
    8.1795  -15.3137   24.3099 C   0  0  0  0  0  0  0  0  0  0  0  0
    7.6840  -14.7432   25.5572 C   0  0  0  0  0  0  0  0  0  0  0  0
    7.2281  -15.5361   26.6196 C   0  0  0  0  0  0  0  0  0  0  0  0
    6.8549  -14.7358   27.6295 N   0  0  0  0  0  0  0  0  0  0  0  0
    7.0399  -13.4346   27.2921 C   0  0  0  0  0  0  0  0  0  0  0  0
    6.8016  -12.2722   27.9893 C   0  0  0  0  0  0  0  0  0  0  0  0
    7.0755  -11.0571   27.4089 C   0  0  0  0  0  0  0  0  0  0  0  0
    7.5862  -11.0609   26.1296 C   0  0  0  0  0  0  0  0  0  0  0  0
    7.8241  -12.2260   25.4333 C   0  0  0  0  0  0  0  0  0  0  0  0
    7.5540  -13.4582   26.0044 C   0  0  0  0  0  0  0  0  0  0  0  0
    7.5309  -15.9466   21.9828 C   0  0  0  0  0  0  0  0  0  0  0  0
    7.5686  -17.0540   21.3883 O   0  0  0  0  0  0  0  0  0  0  0  0
    9.5678  -14.7366   16.0422 N   0  0  0  0  0  0  0  0  0  0  0  0
    9.4636  -13.7968   17.1347 C   0  0  0  0  0  0  0  0  0  0  0  0
   10.5448  -13.3260   17.5478 O   0  0  0  0  0  0  0  0  0  0  0  0
    8.1385  -13.4510   17.6812 C   0  0  0  0  0  0  0  0  0  0  0  0
    8.0365  -13.4428   19.1603 C   0  0  0  0  0  0  0  0  0  0  0  0
    8.1485  -14.7768   19.8339 C   0  0  2  0  0  0  0  0  0  0  0  0
    7.8429  -14.7763   21.2295 N   0  0  0  0  0  0  0  0  0  0  0  0
    9.5101  -15.3767   19.6074 C   0  0  0  0  0  0  0  0  0  0  0  0
    9.7436  -16.1399   18.6357 O   0  0  0  0  0  0  0  0  0  0  0  0
   10.5876  -15.0938   20.4986 N   0  0  0  0  0  0  0  0  0  0  0  0
   11.8097  -15.8214   20.3745 C   0  0  1  0  0  0  0  0  0  0  0  0
   13.0052  -14.8792   20.3335 C   0  0  0  0  0  0  0  0  0  0  0  0
   13.0634  -14.1176   19.0661 C   0  0  0  0  0  0  0  0  0  0  0  0
   12.8654  -14.7451   18.0053 O   0  0  0  0  0  0  0  0  0  0  0  0
   11.9552  -16.7819   21.4994 C   0  0  0  0  0  0  0  0  0  0  0  0
   13.0747  -17.6038   21.5171 O   0  0  0  0  0  0  0  0  0  0  0  0
   13.3213  -12.7637   18.9774 O   0  0  0  0  0  0  0  0  0  0  0  0
   11.1236  -16.8843   22.4238 O   0  0  0  0  0  0  0  0  0  0  0  0
  2  1  1  1
  2  3  1  0
  3  4  1  0
  4  5  2  0
  5  6  1  0
  7  6  1  0
  8  7  2  0
  9  8  1  0
 10 11  1  0
 10  9  2  0
 11 12  2  0
 12  4  1  0
 12  7  1  0
 13 21  1  0
 13  2  1  0
 14 13  2  0
 16 17  2  0
 16 15  1  0
 18 16  1  0
 19 18  1  0
 20 21  1  0
 20 19  1  1
 22 20  1  0
 23 22  2  0
 24 22  1  0
 25 29  1  0
 25 24  1  0
 26 27  1  0
 25 26  1  1
 27 28  2  0
 29 30  1  0
 31 27  1  0
 32 29  2  0
M  END
$$$$
