WQD.pdb
     RDKit          3D

 32 33  0  0  1  0  0  0  0  0999 V2000
    7.5231  -16.5302   23.1276 N   0  0  0  0  0  0  0  0  0  0  0  0
    8.7726  -16.2439   23.8080 C   0  0  1  0  0  0  0  0  0  0  0  0
    8.5773  -15.8113   25.2139 C   0  0  0  0  0  0  0  0  0  0  0  0
    7.4429  -14.9326   25.4745 C   0  0  0  0  0  0  0  0  0  0  0  0
    6.1320  -15.4126   25.6023 C   0  0  0  0  0  0  0  0  0  0  0  0
    5.3141  -14.3795   25.8543 N   0  0  0  0  0  0  0  0  0  0  0  0
    6.0195  -13.2213   25.9016 C   0  0  0  0  0  0  0  0  0  0  0  0
    5.6209  -11.9228   26.1233 C   0  0  0  0  0  0  0  0  0  0  0  0
    6.5499  -10.9103   26.1145 C   0  0  0  0  0  0  0  0  0  0  0  0
    7.8638  -11.2508   25.8791 C   0  0  0  0  0  0  0  0  0  0  0  0
    8.2607  -12.5517   25.6575 C   0  0  0  0  0  0  0  0  0  0  0  0
    7.3369  -13.5832   25.6637 C   0  0  0  0  0  0  0  0  0  0  0  0
    9.8067  -17.2671   23.5996 C   0  0  0  0  0  0  0  0  0  0  0  0
   10.8594  -17.2185   24.2859 O   0  0  0  0  0  0  0  0  0  0  0  0
    9.9266  -18.3935   17.7408 N   0  0  0  0  0  0  0  0  0  0  0  0
    8.6575  -18.0800   18.3563 C   0  0  0  0  0  0  0  0  0  0  0  0
    7.6524  -18.2309   17.6294 O   0  0  0  0  0  0  0  0  0  0  0  0
    8.6146  -17.6213   19.7569 C   0  0  0  0  0  0  0  0  0  0  0  0
    9.9312  -17.3708   20.3908 C   0  0  0  0  0  0  0  0  0  0  0  0
   10.3736  -18.3798   21.4069 C   0  0  2  0  0  0  0  0  0  0  0  0
    9.6778  -18.3266   22.6536 N   0  0  0  0  0  0  0  0  0  0  0  0
   11.8569  -18.2846   21.6432 C   0  0  0  0  0  0  0  0  0  0  0  0
   12.6880  -18.4849   20.7210 O   0  0  0  0  0  0  0  0  0  0  0  0
   12.3690  -17.9606   22.9348 N   0  0  0  0  0  0  0  0  0  0  0  0
   13.7740  -18.0457   23.1735 C   0  0  1  0  0  0  0  0  0  0  0  0
   14.3688  -16.6681   23.4333 C   0  0  0  0  0  0  0  0  0  0  0  0
   14.9867  -16.0962   22.2163 C   0  0  0  0  0  0  0  0  0  0  0  0
   14.8727  -16.7405   21.1531 O   0  0  0  0  0  0  0  0  0  0  0  0
   14.0486  -18.9454   24.3243 C   0  0  0  0  0  0  0  0  0  0  0  0
   13.1696  -18.9191   25.3994 O   0  0  0  0  0  0  0  0  0  0  0  0
   15.6790  -14.9018   22.1771 O   0  0  0  0  0  0  0  0  0  0  0  0
   15.0263  -19.7190   24.3700 O   0  0  0  0  0  0  0  0  0  0  0  0
  2  1  1  1
  2  3  1  0
  3  4  1  0
  4  5  2  0
  5  6  1  0
  7  6  1  0
  8  7  2  0
  9  8  1  0
 10 11  1  0
 10  9  2  0
 11 12  2  0
 12  4  1  0
 12  7  1  0
 13 21  1  0
 13  2  1  0
 14 13  2  0
 16 17  2  0
 16 15  1  0
 18 16  1  0
 19 18  1  0
 20 21  1  0
 20 19  1  6
 22 20  1  0
 23 22  2  0
 24 22  1  0
 25 29  1  0
 25 24  1  0
 26 27  1  0
 25 26  1  1
 27 28  2  0
 29 30  1  0
 31 27  1  0
 32 29  2  0
M  END
$$$$
