VLW.pdb
     RDKit          3D

 30 31  0  0  1  0  0  0  0  0999 V2000
    9.8776  -19.7966   22.2053 C   0  0  0  0  0  0  0  0  0  0  0  0
   10.5137  -19.6993   20.8371 C   0  0  1  0  0  0  0  0  0  0  0  0
   10.5578  -21.0487   20.1472 C   0  0  0  0  0  0  0  0  0  0  0  0
    9.7711  -18.6783   19.9754 C   0  0  2  0  0  0  0  0  0  0  0  0
   10.2160  -18.7461   18.6177 N   0  0  0  0  0  0  0  0  0  0  0  0
   10.0770  -17.3301   20.5845 C   0  0  0  0  0  0  0  0  0  0  0  0
   11.2038  -16.8265   20.5026 O   0  0  0  0  0  0  0  0  0  0  0  0
    8.8018  -13.3636   19.5023 C   0  0  0  0  0  0  0  0  0  0  0  0
    7.6906  -14.0959   20.2484 C   0  0  2  0  0  0  0  0  0  0  0  0
    6.3940  -13.4447   20.0114 C   0  0  0  0  0  0  0  0  0  0  0  0
    8.1074  -14.3652   21.6329 C   0  0  0  0  0  0  0  0  0  0  0  0
    9.2211  -15.3141   21.8841 C   0  0  2  0  0  0  0  0  0  0  0  0
    9.0692  -16.6039   21.2715 N   0  0  0  0  0  0  0  0  0  0  0  0
    9.6786  -15.3673   23.2837 C   0  0  0  0  0  0  0  0  0  0  0  0
   10.2668  -14.3718   23.7566 O   0  0  0  0  0  0  0  0  0  0  0  0
    9.4982  -16.4764   24.1387 N   0  0  0  0  0  0  0  0  0  0  0  0
   10.0050  -16.5241   25.5277 C   0  0  1  0  0  0  0  0  0  0  0  0
    8.9018  -16.6740   26.4925 C   0  0  0  0  0  0  0  0  0  0  0  0
    7.8017  -15.7450   26.2355 C   0  0  0  0  0  0  0  0  0  0  0  0
    6.5827  -16.0608   25.6540 C   0  0  0  0  0  0  0  0  0  0  0  0
    5.8309  -14.9623   25.5324 N   0  0  0  0  0  0  0  0  0  0  0  0
    6.5085  -13.9133   26.0162 C   0  0  0  0  0  0  0  0  0  0  0  0
    6.2154  -12.5716   26.1563 C   0  0  0  0  0  0  0  0  0  0  0  0
    7.0946  -11.6992   26.7157 C   0  0  0  0  0  0  0  0  0  0  0  0
    8.3201  -12.1405   27.1639 C   0  0  0  0  0  0  0  0  0  0  0  0
    8.6312  -13.4681   27.0332 C   0  0  0  0  0  0  0  0  0  0  0  0
    7.7541  -14.3650   26.4691 C   0  0  0  0  0  0  0  0  0  0  0  0
   11.0784  -17.5029   25.6493 C   0  0  0  0  0  0  0  0  0  0  0  0
   11.7496  -17.7735   26.6691 O   0  0  0  0  0  0  0  0  0  0  0  0
   11.4285  -18.2504   24.5050 O   0  0  0  0  0  0  0  0  0  0  0  0
  2  1  1  1
  3  2  1  0
  4  2  1  0
  4  5  1  6
  6  7  2  0
  6  4  1  0
  9  8  1  1
  9 11  1  0
 10  9  1  0
 12 11  1  1
 12 13  1  0
 13  6  1  0
 14 12  1  0
 14 16  1  0
 15 14  2  0
 17 16  1  0
 17 28  1  0
 17 18  1  1
 19 18  1  0
 20 19  2  0
 21 22  1  0
 21 20  1  0
 22 27  2  0
 23 24  2  0
 23 22  1  0
 24 25  1  0
 25 26  2  0
 27 19  1  0
 27 26  1  0
 28 29  2  0
 28 30  1  0
M  END
$$$$
