VLW.pdb
     RDKit          3D

 30 31  0  0  1  0  0  0  0  0999 V2000
    8.5131  -19.0868   22.1915 C   0  0  0  0  0  0  0  0  0  0  0  0
    8.5053  -18.6151   20.7549 C   0  0  1  0  0  0  0  0  0  0  0  0
    8.1678  -19.7441   19.8009 C   0  0  0  0  0  0  0  0  0  0  0  0
    7.5280  -17.4529   20.5807 C   0  0  2  0  0  0  0  0  0  0  0  0
    7.4434  -17.0673   19.2059 N   0  0  0  0  0  0  0  0  0  0  0  0
    8.0731  -16.3296   21.4312 C   0  0  0  0  0  0  0  0  0  0  0  0
    9.0667  -15.6807   21.0823 O   0  0  0  0  0  0  0  0  0  0  0  0
    5.9665  -13.2298   26.4259 C   0  0  0  0  0  0  0  0  0  0  0  0
    7.1114  -13.3822   25.4290 C   0  0  2  0  0  0  0  0  0  0  0  0
    7.5493  -12.0662   24.9412 C   0  0  0  0  0  0  0  0  0  0  0  0
    6.7892  -14.4311   24.4498 C   0  0  0  0  0  0  0  0  0  0  0  0
    7.8588  -14.9441   23.5573 C   0  0  2  0  0  0  0  0  0  0  0  0
    7.4523  -15.9904   22.6618 N   0  0  0  0  0  0  0  0  0  0  0  0
    9.1475  -15.1965   24.2256 C   0  0  0  0  0  0  0  0  0  0  0  0
    9.7089  -14.2489   24.8150 O   0  0  0  0  0  0  0  0  0  0  0  0
    9.8016  -16.4477   24.2471 N   0  0  0  0  0  0  0  0  0  0  0  0
   11.1443  -16.6540   24.8328 C   0  0  1  0  0  0  0  0  0  0  0  0
   11.0931  -17.5974   25.9633 C   0  0  0  0  0  0  0  0  0  0  0  0
   10.2637  -17.1088   27.0645 C   0  0  0  0  0  0  0  0  0  0  0  0
    9.0629  -17.6570   27.4905 C   0  0  0  0  0  0  0  0  0  0  0  0
    8.5544  -16.9327   28.4923 N   0  0  0  0  0  0  0  0  0  0  0  0
    9.3791  -15.9106   28.7550 C   0  0  0  0  0  0  0  0  0  0  0  0
    9.3610  -14.8841   29.6778 C   0  0  0  0  0  0  0  0  0  0  0  0
   10.3604  -13.9660   29.7502 C   0  0  0  0  0  0  0  0  0  0  0  0
   11.4335  -14.0390   28.8897 C   0  0  0  0  0  0  0  0  0  0  0  0
   11.4704  -15.0494   27.9655 C   0  0  0  0  0  0  0  0  0  0  0  0
   10.4677  -15.9868   27.8775 C   0  0  0  0  0  0  0  0  0  0  0  0
   12.1139  -16.9770   23.7933 C   0  0  0  0  0  0  0  0  0  0  0  0
   13.3450  -17.1503   23.9283 O   0  0  0  0  0  0  0  0  0  0  0  0
   11.6464  -17.1182   22.4696 O   0  0  0  0  0  0  0  0  0  0  0  0
  2  1  1  1
  3  2  1  0
  4  2  1  0
  4  5  1  6
  6  7  2  0
  6  4  1  0
  9  8  1  6
  9 11  1  0
 10  9  1  0
 12 11  1  1
 12 13  1  0
 13  6  1  0
 14 12  1  0
 14 16  1  0
 15 14  2  0
 17 16  1  0
 17 28  1  0
 17 18  1  1
 19 18  1  0
 20 19  2  0
 21 22  1  0
 21 20  1  0
 22 27  2  0
 23 24  2  0
 23 22  1  0
 24 25  1  0
 25 26  2  0
 27 19  1  0
 27 26  1  0
 28 29  2  0
 28 30  1  0
M  END
$$$$
