VLW.pdb
     RDKit          3D

 30 31  0  0  1  0  0  0  0  0999 V2000
    7.7386  -19.4903   22.2604 C   0  0  0  0  0  0  0  0  0  0  0  0
    8.2340  -19.9752   20.9167 C   0  0  1  0  0  0  0  0  0  0  0  0
    7.4162  -21.1483   20.4129 C   0  0  0  0  0  0  0  0  0  0  0  0
    8.2209  -18.8338   19.9001 C   0  0  2  0  0  0  0  0  0  0  0  0
    8.5896  -19.3101   18.6028 N   0  0  0  0  0  0  0  0  0  0  0  0
    9.2150  -17.8185   20.4129 C   0  0  0  0  0  0  0  0  0  0  0  0
   10.4334  -18.0264   20.3617 O   0  0  0  0  0  0  0  0  0  0  0  0
    7.0970  -14.5695   19.7963 C   0  0  0  0  0  0  0  0  0  0  0  0
    7.7382  -13.8498   20.9788 C   0  0  2  0  0  0  0  0  0  0  0  0
    7.3164  -12.4419   21.0164 C   0  0  0  0  0  0  0  0  0  0  0  0
    9.1740  -14.1626   21.0393 C   0  0  0  0  0  0  0  0  0  0  0  0
    9.6037  -15.5238   21.4471 C   0  0  2  0  0  0  0  0  0  0  0  0
    8.7699  -16.5916   20.9709 N   0  0  0  0  0  0  0  0  0  0  0  0
    9.9831  -15.6488   22.8654 C   0  0  0  0  0  0  0  0  0  0  0  0
   10.7840  -14.8179   23.3435 O   0  0  0  0  0  0  0  0  0  0  0  0
    9.5010  -16.6531   23.7330 N   0  0  0  0  0  0  0  0  0  0  0  0
    9.9010  -16.7624   25.1530 C   0  0  1  0  0  0  0  0  0  0  0  0
    9.7019  -15.4866   25.8623 C   0  0  0  0  0  0  0  0  0  0  0  0
    8.2966  -15.0837   25.9084 C   0  0  0  0  0  0  0  0  0  0  0  0
    7.2047  -15.8874   25.6160 C   0  0  0  0  0  0  0  0  0  0  0  0
    6.0729  -15.1838   25.7190 N   0  0  0  0  0  0  0  0  0  0  0  0
    6.3704  -13.9269   26.0734 C   0  0  0  0  0  0  0  0  0  0  0  0
    5.6100  -12.8044   26.3332 C   0  0  0  0  0  0  0  0  0  0  0  0
    6.1741  -11.6257   26.7066 C   0  0  0  0  0  0  0  0  0  0  0  0
    7.5414  -11.5212   26.8368 C   0  0  0  0  0  0  0  0  0  0  0  0
    8.3144  -12.6232   26.5826 C   0  0  0  0  0  0  0  0  0  0  0  0
    7.7608  -13.8237   26.2031 C   0  0  0  0  0  0  0  0  0  0  0  0
    9.2791  -17.9257   25.7736 C   0  0  0  0  0  0  0  0  0  0  0  0
    8.4000  -18.6695   25.2861 O   0  0  0  0  0  0  0  0  0  0  0  0
    9.6913  -18.2844   27.0745 O   0  0  0  0  0  0  0  0  0  0  0  0
  2  1  1  1
  3  2  1  0
  4  2  1  0
  4  5  1  6
  6  7  2  0
  6  4  1  0
  9  8  1  6
  9 11  1  0
 10  9  1  0
 12 11  1  1
 12 13  1  0
 13  6  1  0
 14 12  1  0
 14 16  1  0
 15 14  2  0
 17 16  1  0
 17 28  1  0
 17 18  1  1
 19 18  1  0
 20 19  2  0
 21 22  1  0
 21 20  1  0
 22 27  2  0
 23 24  2  0
 23 22  1  0
 24 25  1  0
 25 26  2  0
 27 19  1  0
 27 26  1  0
 28 29  2  0
 28 30  1  0
M  END
$$$$
