VLW.pdb
     RDKit          3D

 30 31  0  0  1  0  0  0  0  0999 V2000
    9.8976  -20.0622   18.5128 C   0  0  0  0  0  0  0  0  0  0  0  0
    8.4993  -20.0423   19.0875 C   0  0  1  0  0  0  0  0  0  0  0  0
    7.7828  -21.3577   18.8526 C   0  0  0  0  0  0  0  0  0  0  0  0
    8.5406  -19.7107   20.5790 C   0  0  2  0  0  0  0  0  0  0  0  0
    7.2309  -19.7872   21.1488 N   0  0  0  0  0  0  0  0  0  0  0  0
    9.0959  -18.3088   20.6707 C   0  0  0  0  0  0  0  0  0  0  0  0
   10.2750  -18.0628   20.3892 O   0  0  0  0  0  0  0  0  0  0  0  0
    8.6354  -12.9463   21.9577 C   0  0  0  0  0  0  0  0  0  0  0  0
    8.0238  -13.4541   20.6555 C   0  0  2  0  0  0  0  0  0  0  0  0
    7.0302  -12.4984   20.1450 C   0  0  0  0  0  0  0  0  0  0  0  0
    7.6423  -14.8675   20.7968 C   0  0  0  0  0  0  0  0  0  0  0  0
    8.6670  -15.8577   21.2131 C   0  0  2  0  0  0  0  0  0  0  0  0
    8.2699  -17.2318   21.0864 N   0  0  0  0  0  0  0  0  0  0  0  0
    9.3415  -15.5453   22.4853 C   0  0  0  0  0  0  0  0  0  0  0  0
    9.9367  -14.4521   22.5915 O   0  0  0  0  0  0  0  0  0  0  0  0
    9.3641  -16.4037   23.6062 N   0  0  0  0  0  0  0  0  0  0  0  0
   10.0978  -16.0947   24.8530 C   0  0  1  0  0  0  0  0  0  0  0  0
    9.2383  -16.2760   26.0358 C   0  0  0  0  0  0  0  0  0  0  0  0
    7.9874  -15.5241   25.9407 C   0  0  0  0  0  0  0  0  0  0  0  0
    6.7642  -16.0207   25.5152 C   0  0  0  0  0  0  0  0  0  0  0  0
    5.8469  -15.0485   25.5128 N   0  0  0  0  0  0  0  0  0  0  0  0
    6.4168  -13.9089   25.9255 C   0  0  0  0  0  0  0  0  0  0  0  0
    5.9467  -12.6269   26.1281 C   0  0  0  0  0  0  0  0  0  0  0  0
    6.7505  -11.6315   26.5863 C   0  0  0  0  0  0  0  0  0  0  0  0
    8.0761  -11.8823   26.8642 C   0  0  0  0  0  0  0  0  0  0  0  0
    8.5630  -13.1477   26.6688 C   0  0  0  0  0  0  0  0  0  0  0  0
    7.7643  -14.1670   26.2052 C   0  0  0  0  0  0  0  0  0  0  0  0
   11.3696  -16.8063   24.8902 C   0  0  0  0  0  0  0  0  0  0  0  0
   12.3051  -16.6507   25.7053 O   0  0  0  0  0  0  0  0  0  0  0  0
   11.6083  -17.7917   23.9090 O   0  0  0  0  0  0  0  0  0  0  0  0
  2  1  1  1
  3  2  1  0
  4  2  1  0
  4  5  1  6
  6  7  2  0
  6  4  1  0
  9  8  1  1
  9 11  1  0
 10  9  1  0
 12 11  1  1
 12 13  1  0
 13  6  1  0
 14 12  1  0
 14 16  1  0
 15 14  2  0
 17 16  1  0
 17 28  1  0
 17 18  1  1
 19 18  1  0
 20 19  2  0
 21 22  1  0
 21 20  1  0
 22 27  2  0
 23 24  2  0
 23 22  1  0
 24 25  1  0
 25 26  2  0
 27 19  1  0
 27 26  1  0
 28 29  2  0
 28 30  1  0
M  END
$$$$
