VLW.pdb
     RDKit          3D

 30 31  0  0  1  0  0  0  0  0999 V2000
    9.3851  -20.1357   17.6030 C   0  0  0  0  0  0  0  0  0  0  0  0
    9.7055  -18.8108   18.2572 C   0  0  1  0  0  0  0  0  0  0  0  0
    8.8999  -17.6804   17.6471 C   0  0  0  0  0  0  0  0  0  0  0  0
    9.4668  -18.8891   19.7649 C   0  0  2  0  0  0  0  0  0  0  0  0
    8.0894  -19.1550   20.0439 N   0  0  0  0  0  0  0  0  0  0  0  0
    9.8872  -17.5467   20.3155 C   0  0  0  0  0  0  0  0  0  0  0  0
   11.0609  -17.1617   20.2494 O   0  0  0  0  0  0  0  0  0  0  0  0
    8.9336  -13.1594   19.4963 C   0  0  0  0  0  0  0  0  0  0  0  0
    7.7385  -13.8821   20.1103 C   0  0  2  0  0  0  0  0  0  0  0  0
    6.5234  -13.0631   19.9911 C   0  0  0  0  0  0  0  0  0  0  0  0
    8.1021  -14.4255   21.4277 C   0  0  0  0  0  0  0  0  0  0  0  0
    9.2072  -15.4117   21.5261 C   0  0  2  0  0  0  0  0  0  0  0  0
    8.9364  -16.6885   20.9275 N   0  0  0  0  0  0  0  0  0  0  0  0
    9.8381  -15.4964   22.8550 C   0  0  0  0  0  0  0  0  0  0  0  0
   10.6771  -14.6272   23.1729 O   0  0  0  0  0  0  0  0  0  0  0  0
    9.5593  -16.5022   23.8060 N   0  0  0  0  0  0  0  0  0  0  0  0
   10.1327  -16.5142   25.1696 C   0  0  1  0  0  0  0  0  0  0  0  0
    9.8129  -15.2712   25.8929 C   0  0  0  0  0  0  0  0  0  0  0  0
    8.3788  -14.9845   25.9089 C   0  0  0  0  0  0  0  0  0  0  0  0
    7.3629  -15.8728   25.5883 C   0  0  0  0  0  0  0  0  0  0  0  0
    6.1754  -15.2645   25.6687 N   0  0  0  0  0  0  0  0  0  0  0  0
    6.3613  -13.9899   26.0354 C   0  0  0  0  0  0  0  0  0  0  0  0
    5.5061  -12.9348   26.2829 C   0  0  0  0  0  0  0  0  0  0  0  0
    5.9636  -11.7164   26.6742 C   0  0  0  0  0  0  0  0  0  0  0  0
    7.3145  -11.5015   26.8360 C   0  0  0  0  0  0  0  0  0  0  0  0
    8.1804  -12.5351   26.5943 C   0  0  0  0  0  0  0  0  0  0  0  0
    7.7353  -13.7744   26.1970 C   0  0  0  0  0  0  0  0  0  0  0  0
    9.7830  -17.7479   25.8630 C   0  0  0  0  0  0  0  0  0  0  0  0
    9.0893  -18.6939   25.4299 O   0  0  0  0  0  0  0  0  0  0  0  0
   10.2649  -17.9311   27.1764 O   0  0  0  0  0  0  0  0  0  0  0  0
  2  1  1  6
  3  2  1  0
  4  2  1  0
  4  5  1  6
  6  7  2  0
  6  4  1  0
  9  8  1  1
  9 11  1  0
 10  9  1  0
 12 11  1  1
 12 13  1  0
 13  6  1  0
 14 12  1  0
 14 16  1  0
 15 14  2  0
 17 16  1  0
 17 28  1  0
 17 18  1  1
 19 18  1  0
 20 19  2  0
 21 22  1  0
 21 20  1  0
 22 27  2  0
 23 24  2  0
 23 22  1  0
 24 25  1  0
 25 26  2  0
 27 19  1  0
 27 26  1  0
 28 29  2  0
 28 30  1  0
M  END
$$$$
