VLW.pdb
     RDKit          3D

 30 31  0  0  1  0  0  0  0  0999 V2000
    7.6905  -20.9608   20.6194 C   0  0  0  0  0  0  0  0  0  0  0  0
    8.4470  -19.7173   21.0288 C   0  0  1  0  0  0  0  0  0  0  0  0
    9.7024  -20.0611   21.8064 C   0  0  0  0  0  0  0  0  0  0  0  0
    8.7885  -18.8728   19.8014 C   0  0  2  0  0  0  0  0  0  0  0  0
    9.6320  -19.6028   18.9062 N   0  0  0  0  0  0  0  0  0  0  0  0
    9.4885  -17.6441   20.3328 C   0  0  0  0  0  0  0  0  0  0  0  0
   10.7224  -17.5806   20.3933 O   0  0  0  0  0  0  0  0  0  0  0  0
    9.2542  -13.2379   19.0733 C   0  0  0  0  0  0  0  0  0  0  0  0
    8.0118  -13.6539   19.8550 C   0  0  2  0  0  0  0  0  0  0  0  0
    6.9595  -12.6347   19.7318 C   0  0  0  0  0  0  0  0  0  0  0  0
    8.3945  -14.1209   21.1961 C   0  0  0  0  0  0  0  0  0  0  0  0
    9.2746  -15.3092   21.3270 C   0  0  2  0  0  0  0  0  0  0  0  0
    8.7395  -16.5241   20.7795 N   0  0  0  0  0  0  0  0  0  0  0  0
    9.8914  -15.4730   22.6552 C   0  0  0  0  0  0  0  0  0  0  0  0
   10.7788  -14.6659   23.0037 O   0  0  0  0  0  0  0  0  0  0  0  0
    9.5476  -16.4896   23.5728 N   0  0  0  0  0  0  0  0  0  0  0  0
   10.1291  -16.5923   24.9291 C   0  0  1  0  0  0  0  0  0  0  0  0
    9.8654  -15.3746   25.7153 C   0  0  0  0  0  0  0  0  0  0  0  0
    8.4362  -15.1014   25.8640 C   0  0  0  0  0  0  0  0  0  0  0  0
    7.4031  -15.9969   25.6305 C   0  0  0  0  0  0  0  0  0  0  0  0
    6.2226  -15.4002   25.8233 N   0  0  0  0  0  0  0  0  0  0  0  0
    6.4301  -14.1263   26.1810 C   0  0  0  0  0  0  0  0  0  0  0  0
    5.5920  -13.0809   26.5133 C   0  0  0  0  0  0  0  0  0  0  0  0
    6.0727  -11.8609   26.8704 C   0  0  0  0  0  0  0  0  0  0  0  0
    7.4309  -11.6346   26.9100 C   0  0  0  0  0  0  0  0  0  0  0  0
    8.2800  -12.6585   26.5829 C   0  0  0  0  0  0  0  0  0  0  0  0
    7.8113  -13.8992   26.2185 C   0  0  0  0  0  0  0  0  0  0  0  0
    9.7337  -17.8435   25.5640 C   0  0  0  0  0  0  0  0  0  0  0  0
   10.0455  -18.2497   26.7049 O   0  0  0  0  0  0  0  0  0  0  0  0
    8.9036  -18.7235   24.8379 O   0  0  0  0  0  0  0  0  0  0  0  0
  2  1  1  6
  3  2  1  0
  4  2  1  0
  4  5  1  6
  6  7  2  0
  6  4  1  0
  9  8  1  1
  9 11  1  0
 10  9  1  0
 12 11  1  1
 12 13  1  0
 13  6  1  0
 14 12  1  0
 14 16  1  0
 15 14  2  0
 17 16  1  0
 17 28  1  0
 17 18  1  1
 19 18  1  0
 20 19  2  0
 21 22  1  0
 21 20  1  0
 22 27  2  0
 23 24  2  0
 23 22  1  0
 24 25  1  0
 25 26  2  0
 27 19  1  0
 27 26  1  0
 28 29  2  0
 28 30  1  0
M  END
$$$$
