VLW.pdb
     RDKit          3D

 30 31  0  0  1  0  0  0  0  0999 V2000
    8.0473  -16.1361   19.0138 C   0  0  0  0  0  0  0  0  0  0  0  0
    6.9463  -16.4354   20.0059 C   0  0  1  0  0  0  0  0  0  0  0  0
    5.8090  -17.2021   19.3597 C   0  0  0  0  0  0  0  0  0  0  0  0
    7.5025  -17.2053   21.2034 C   0  0  2  0  0  0  0  0  0  0  0  0
    6.4416  -17.6507   22.0530 N   0  0  0  0  0  0  0  0  0  0  0  0
    8.4114  -16.2380   21.9247 C   0  0  0  0  0  0  0  0  0  0  0  0
    9.4910  -15.8820   21.4369 O   0  0  0  0  0  0  0  0  0  0  0  0
    6.6593  -12.5023   23.4576 C   0  0  0  0  0  0  0  0  0  0  0  0
    6.6656  -13.5861   24.5313 C   0  0  2  0  0  0  0  0  0  0  0  0
    5.7144  -13.2564   25.6028 C   0  0  0  0  0  0  0  0  0  0  0  0
    8.0497  -13.9291   24.8914 C   0  0  0  0  0  0  0  0  0  0  0  0
    8.8308  -14.8237   24.0007 C   0  0  2  0  0  0  0  0  0  0  0  0
    8.0444  -15.7110   23.1906 N   0  0  0  0  0  0  0  0  0  0  0  0
    9.9898  -15.4692   24.6421 C   0  0  0  0  0  0  0  0  0  0  0  0
   10.8882  -14.7435   25.1182 O   0  0  0  0  0  0  0  0  0  0  0  0
   10.1599  -16.8662   24.7579 N   0  0  0  0  0  0  0  0  0  0  0  0
   11.3370  -17.4921   25.3989 C   0  0  1  0  0  0  0  0  0  0  0  0
   10.9375  -18.3333   26.5406 C   0  0  0  0  0  0  0  0  0  0  0  0
   10.0542  -17.6322   27.4719 C   0  0  0  0  0  0  0  0  0  0  0  0
    8.7393  -17.9655   27.7610 C   0  0  0  0  0  0  0  0  0  0  0  0
    8.2189  -17.0860   28.6227 N   0  0  0  0  0  0  0  0  0  0  0  0
    9.1465  -16.1680   28.9239 C   0  0  0  0  0  0  0  0  0  0  0  0
    9.1625  -15.0662   29.7554 C   0  0  0  0  0  0  0  0  0  0  0  0
   10.2705  -14.2930   29.9015 C   0  0  0  0  0  0  0  0  0  0  0  0
   11.4238  -14.5955   29.2116 C   0  0  0  0  0  0  0  0  0  0  0  0
   11.4287  -15.6842   28.3803 C   0  0  0  0  0  0  0  0  0  0  0  0
   10.3166  -16.4774   28.2197 C   0  0  0  0  0  0  0  0  0  0  0  0
   12.1758  -18.1480   24.4032 C   0  0  0  0  0  0  0  0  0  0  0  0
   11.9420  -18.2853   23.1825 O   0  0  0  0  0  0  0  0  0  0  0  0
   13.4006  -18.7042   24.8290 O   0  0  0  0  0  0  0  0  0  0  0  0
  2  1  1  6
  3  2  1  0
  4  2  1  0
  4  5  1  1
  6  7  2  0
  6  4  1  0
  9  8  1  6
  9 11  1  0
 10  9  1  0
 12 11  1  1
 12 13  1  0
 13  6  1  0
 14 12  1  0
 14 16  1  0
 15 14  2  0
 17 16  1  0
 17 28  1  0
 17 18  1  1
 19 18  1  0
 20 19  2  0
 21 22  1  0
 21 20  1  0
 22 27  2  0
 23 24  2  0
 23 22  1  0
 24 25  1  0
 25 26  2  0
 27 19  1  0
 27 26  1  0
 28 29  2  0
 28 30  1  0
M  END
$$$$
