VLW.pdb
     RDKit          3D

 30 31  0  0  1  0  0  0  0  0999 V2000
   11.6576  -19.6698   20.1765 C   0  0  0  0  0  0  0  0  0  0  0  0
   12.4856  -18.7215   19.3390 C   0  0  1  0  0  0  0  0  0  0  0  0
   13.2121  -19.4520   18.2265 C   0  0  0  0  0  0  0  0  0  0  0  0
   11.6072  -17.6086   18.7681 C   0  0  2  0  0  0  0  0  0  0  0  0
   12.3335  -16.8352   17.8089 N   0  0  0  0  0  0  0  0  0  0  0  0
   11.1955  -16.7652   19.9519 C   0  0  0  0  0  0  0  0  0  0  0  0
   12.0317  -16.1626   20.6360 O   0  0  0  0  0  0  0  0  0  0  0  0
    8.4230  -13.1680   20.1878 C   0  0  0  0  0  0  0  0  0  0  0  0
    7.6306  -14.4634   20.0409 C   0  0  2  0  0  0  0  0  0  0  0  0
    6.2308  -14.1756   19.6958 C   0  0  0  0  0  0  0  0  0  0  0  0
    7.9132  -15.3569   21.1744 C   0  0  0  0  0  0  0  0  0  0  0  0
    9.2980  -15.8494   21.3826 C   0  0  2  0  0  0  0  0  0  0  0  0
    9.8273  -16.6441   20.3101 N   0  0  0  0  0  0  0  0  0  0  0  0
    9.5571  -16.4051   22.7225 C   0  0  0  0  0  0  0  0  0  0  0  0
    9.7408  -17.6359   22.8319 O   0  0  0  0  0  0  0  0  0  0  0  0
    9.6126  -15.6369   23.9059 N   0  0  0  0  0  0  0  0  0  0  0  0
    9.8337  -16.2222   25.2464 C   0  0  1  0  0  0  0  0  0  0  0  0
    9.6613  -15.2113   26.3041 C   0  0  0  0  0  0  0  0  0  0  0  0
    8.3191  -14.6302   26.3113 C   0  0  0  0  0  0  0  0  0  0  0  0
    7.1304  -15.3133   26.1014 C   0  0  0  0  0  0  0  0  0  0  0  0
    6.0982  -14.4646   26.1351 N   0  0  0  0  0  0  0  0  0  0  0  0
    6.5572  -13.2271   26.3625 C   0  0  0  0  0  0  0  0  0  0  0  0
    5.9487  -11.9968   26.5102 C   0  0  0  0  0  0  0  0  0  0  0  0
    6.6625  -10.8685   26.7639 C   0  0  0  0  0  0  0  0  0  0  0  0
    8.0337  -10.9266   26.8818 C   0  0  0  0  0  0  0  0  0  0  0  0
    8.6574  -12.1377   26.7376 C   0  0  0  0  0  0  0  0  0  0  0  0
    7.9511  -13.2895   26.4799 C   0  0  0  0  0  0  0  0  0  0  0  0
    9.0482  -17.4391   25.4114 C   0  0  0  0  0  0  0  0  0  0  0  0
    8.0425  -17.7903   24.7565 O   0  0  0  0  0  0  0  0  0  0  0  0
    9.4375  -18.3499   26.4162 O   0  0  0  0  0  0  0  0  0  0  0  0
  2  1  1  6
  3  2  1  0
  4  2  1  0
  4  5  1  6
  6  7  2  0
  6  4  1  0
  9  8  1  1
  9 11  1  0
 10  9  1  0
 12 11  1  6
 12 13  1  0
 13  6  1  0
 14 12  1  0
 14 16  1  0
 15 14  2  0
 17 16  1  0
 17 28  1  0
 17 18  1  1
 19 18  1  0
 20 19  2  0
 21 22  1  0
 21 20  1  0
 22 27  2  0
 23 24  2  0
 23 22  1  0
 24 25  1  0
 25 26  2  0
 27 19  1  0
 27 26  1  0
 28 29  2  0
 28 30  1  0
M  END
$$$$
