VLW.pdb
     RDKit          3D

 30 31  0  0  1  0  0  0  0  0999 V2000
    7.8786  -21.2510   21.5408 C   0  0  0  0  0  0  0  0  0  0  0  0
    8.5580  -19.9093   21.6981 C   0  0  1  0  0  0  0  0  0  0  0  0
   10.0068  -20.0655   22.1171 C   0  0  0  0  0  0  0  0  0  0  0  0
    8.4562  -19.1050   20.4024 C   0  0  2  0  0  0  0  0  0  0  0  0
    9.1024  -19.7949   19.3289 N   0  0  0  0  0  0  0  0  0  0  0  0
    9.1303  -17.7836   20.6876 C   0  0  0  0  0  0  0  0  0  0  0  0
   10.3486  -17.6348   20.5334 O   0  0  0  0  0  0  0  0  0  0  0  0
    7.3336  -12.1603   20.2178 C   0  0  0  0  0  0  0  0  0  0  0  0
    8.3502  -13.2974   20.2504 C   0  0  2  0  0  0  0  0  0  0  0  0
    8.5852  -13.8184   18.8958 C   0  0  0  0  0  0  0  0  0  0  0  0
    8.0135  -14.2422   21.3260 C   0  0  0  0  0  0  0  0  0  0  0  0
    8.9004  -15.4068   21.5730 C   0  0  2  0  0  0  0  0  0  0  0  0
    8.3744  -16.6722   21.1440 N   0  0  0  0  0  0  0  0  0  0  0  0
    9.5143  -15.4378   22.9122 C   0  0  0  0  0  0  0  0  0  0  0  0
   10.2165  -14.4680   23.2685 O   0  0  0  0  0  0  0  0  0  0  0  0
    9.3644  -16.4983   23.8324 N   0  0  0  0  0  0  0  0  0  0  0  0
    9.9737  -16.4982   25.1804 C   0  0  1  0  0  0  0  0  0  0  0  0
    8.9505  -16.6619   26.2275 C   0  0  0  0  0  0  0  0  0  0  0  0
    7.8313  -15.7338   26.0683 C   0  0  0  0  0  0  0  0  0  0  0  0
    6.5725  -16.0462   25.5770 C   0  0  0  0  0  0  0  0  0  0  0  0
    5.8105  -14.9490   25.5286 N   0  0  0  0  0  0  0  0  0  0  0  0
    6.5201  -13.9042   25.9743 C   0  0  0  0  0  0  0  0  0  0  0  0
    6.2347  -12.5657   26.1554 C   0  0  0  0  0  0  0  0  0  0  0  0
    7.1515  -11.6978   26.6586 C   0  0  0  0  0  0  0  0  0  0  0  0
    8.4088  -12.1406   27.0058 C   0  0  0  0  0  0  0  0  0  0  0  0
    8.7128  -13.4650   26.8329 C   0  0  0  0  0  0  0  0  0  0  0  0
    7.7979  -14.3573   26.3245 C   0  0  0  0  0  0  0  0  0  0  0  0
   11.0858  -17.4387   25.2413 C   0  0  0  0  0  0  0  0  0  0  0  0
   11.4227  -18.2760   24.3757 O   0  0  0  0  0  0  0  0  0  0  0  0
   11.8982  -17.4329   26.3949 O   0  0  0  0  0  0  0  0  0  0  0  0
  2  1  1  6
  3  2  1  0
  4  2  1  0
  4  5  1  6
  6  7  2  0
  6  4  1  0
  9  8  1  6
  9 11  1  0
 10  9  1  0
 12 11  1  1
 12 13  1  0
 13  6  1  0
 14 12  1  0
 14 16  1  0
 15 14  2  0
 17 16  1  0
 17 28  1  0
 17 18  1  1
 19 18  1  0
 20 19  2  0
 21 22  1  0
 21 20  1  0
 22 27  2  0
 23 24  2  0
 23 22  1  0
 24 25  1  0
 25 26  2  0
 27 19  1  0
 27 26  1  0
 28 29  2  0
 28 30  1  0
M  END
$$$$
