VLW.pdb
     RDKit          3D

 30 31  0  0  1  0  0  0  0  0999 V2000
   10.2186  -20.1616   17.7275 C   0  0  0  0  0  0  0  0  0  0  0  0
   10.2828  -18.8049   18.3919 C   0  0  1  0  0  0  0  0  0  0  0  0
    9.3502  -17.8138   17.7233 C   0  0  0  0  0  0  0  0  0  0  0  0
    9.9623  -18.9250   19.8815 C   0  0  2  0  0  0  0  0  0  0  0  0
    8.6161  -19.3687   20.0732 N   0  0  0  0  0  0  0  0  0  0  0  0
   10.1701  -17.5438   20.4569 C   0  0  0  0  0  0  0  0  0  0  0  0
   11.2830  -17.0037   20.4510 O   0  0  0  0  0  0  0  0  0  0  0  0
    8.5189  -13.3251   19.6211 C   0  0  0  0  0  0  0  0  0  0  0  0
    7.4719  -14.2564   20.2246 C   0  0  2  0  0  0  0  0  0  0  0  0
    6.1275  -13.6766   20.0912 C   0  0  0  0  0  0  0  0  0  0  0  0
    7.9160  -14.7225   21.5469 C   0  0  0  0  0  0  0  0  0  0  0  0
    9.1520  -15.5381   21.6514 C   0  0  2  0  0  0  0  0  0  0  0  0
    9.0833  -16.8276   21.0234 N   0  0  0  0  0  0  0  0  0  0  0  0
    9.7629  -15.5581   22.9922 C   0  0  0  0  0  0  0  0  0  0  0  0
   10.5652  -14.6499   23.2952 O   0  0  0  0  0  0  0  0  0  0  0  0
    9.5037  -16.5427   23.9706 N   0  0  0  0  0  0  0  0  0  0  0  0
   10.0860  -16.5121   25.3301 C   0  0  1  0  0  0  0  0  0  0  0  0
    9.8144  -15.2268   25.9970 C   0  0  0  0  0  0  0  0  0  0  0  0
    8.4049  -14.8433   25.9233 C   0  0  0  0  0  0  0  0  0  0  0  0
    7.3513  -15.6655   25.5524 C   0  0  0  0  0  0  0  0  0  0  0  0
    6.2056  -14.9768   25.5540 N   0  0  0  0  0  0  0  0  0  0  0  0
    6.4566  -13.7121   25.9165 C   0  0  0  0  0  0  0  0  0  0  0  0
    5.6627  -12.5977   26.0998 C   0  0  0  0  0  0  0  0  0  0  0  0
    6.1788  -11.4071   26.5038 C   0  0  0  0  0  0  0  0  0  0  0  0
    7.5294  -11.2819   26.7441 C   0  0  0  0  0  0  0  0  0  0  0  0
    8.3350  -12.3756   26.5671 C   0  0  0  0  0  0  0  0  0  0  0  0
    7.8302  -13.5879   26.1581 C   0  0  0  0  0  0  0  0  0  0  0  0
    9.6988  -17.6997   26.0815 C   0  0  0  0  0  0  0  0  0  0  0  0
    8.9323  -18.6167   25.7136 O   0  0  0  0  0  0  0  0  0  0  0  0
   10.2304  -17.8682   27.3776 O   0  0  0  0  0  0  0  0  0  0  0  0
  2  1  1  6
  3  2  1  0
  4  2  1  0
  4  5  1  6
  6  7  2  0
  6  4  1  0
  9  8  1  1
  9 11  1  0
 10  9  1  0
 12 11  1  1
 12 13  1  0
 13  6  1  0
 14 12  1  0
 14 16  1  0
 15 14  2  0
 17 16  1  0
 17 28  1  0
 17 18  1  1
 19 18  1  0
 20 19  2  0
 21 22  1  0
 21 20  1  0
 22 27  2  0
 23 24  2  0
 23 22  1  0
 24 25  1  0
 25 26  2  0
 27 19  1  0
 27 26  1  0
 28 29  2  0
 28 30  1  0
M  END
$$$$
