VLW.pdb
     RDKit          3D

 30 31  0  0  1  0  0  0  0  0999 V2000
   10.8062  -20.0373   20.0451 C   0  0  0  0  0  0  0  0  0  0  0  0
   11.6713  -19.2223   19.1105 C   0  0  1  0  0  0  0  0  0  0  0  0
   12.1141  -20.0367   17.9107 C   0  0  0  0  0  0  0  0  0  0  0  0
   10.9316  -17.9620   18.6624 C   0  0  2  0  0  0  0  0  0  0  0  0
   11.6670  -17.2824   17.6410 N   0  0  0  0  0  0  0  0  0  0  0  0
   10.7956  -17.1062   19.8998 C   0  0  0  0  0  0  0  0  0  0  0  0
   11.7880  -16.7262   20.5330 O   0  0  0  0  0  0  0  0  0  0  0  0
    8.8348  -13.2759   19.9980 C   0  0  0  0  0  0  0  0  0  0  0  0
    7.7477  -14.3242   20.2152 C   0  0  2  0  0  0  0  0  0  0  0  0
    6.4153  -13.7329   20.0242 C   0  0  0  0  0  0  0  0  0  0  0  0
    8.0185  -15.0816   21.4465 C   0  0  0  0  0  0  0  0  0  0  0  0
    9.2434  -15.9161   21.5307 C   0  0  2  0  0  0  0  0  0  0  0  0
    9.5142  -16.7154   20.3690 N   0  0  0  0  0  0  0  0  0  0  0  0
    9.4081  -16.6380   22.8047 C   0  0  0  0  0  0  0  0  0  0  0  0
    8.5966  -17.5455   23.0846 O   0  0  0  0  0  0  0  0  0  0  0  0
   10.4294  -16.3737   23.7432 N   0  0  0  0  0  0  0  0  0  0  0  0
   10.1722  -16.1365   25.1805 C   0  0  1  0  0  0  0  0  0  0  0  0
    9.8597  -14.7201   25.4390 C   0  0  0  0  0  0  0  0  0  0  0  0
    8.4499  -14.5071   25.7652 C   0  0  0  0  0  0  0  0  0  0  0  0
    7.4487  -15.4665   25.7345 C   0  0  0  0  0  0  0  0  0  0  0  0
    6.2720  -14.9159   26.0492 N   0  0  0  0  0  0  0  0  0  0  0  0
    6.4511  -13.6110   26.2920 C   0  0  0  0  0  0  0  0  0  0  0  0
    5.6057  -12.5867   26.6684 C   0  0  0  0  0  0  0  0  0  0  0  0
    6.0581  -11.3222   26.8764 C   0  0  0  0  0  0  0  0  0  0  0  0
    7.3938  -11.0275   26.7139 C   0  0  0  0  0  0  0  0  0  0  0  0
    8.2496  -12.0295   26.3397 C   0  0  0  0  0  0  0  0  0  0  0  0
    7.8093  -13.3146   26.1241 C   0  0  0  0  0  0  0  0  0  0  0  0
    9.2000  -17.0941   25.6932 C   0  0  0  0  0  0  0  0  0  0  0  0
    8.1629  -17.5029   25.1268 O   0  0  0  0  0  0  0  0  0  0  0  0
    9.4216  -17.6449   26.9732 O   0  0  0  0  0  0  0  0  0  0  0  0
  2  1  1  1
  3  2  1  0
  4  2  1  0
  4  5  1  6
  6  7  2  0
  6  4  1  0
  9  8  1  1
  9 11  1  0
 10  9  1  0
 12 11  1  6
 12 13  1  0
 13  6  1  0
 14 12  1  0
 14 16  1  0
 15 14  2  0
 17 16  1  0
 17 28  1  0
 17 18  1  6
 19 18  1  0
 20 19  2  0
 21 22  1  0
 21 20  1  0
 22 27  2  0
 23 24  2  0
 23 22  1  0
 24 25  1  0
 25 26  2  0
 27 19  1  0
 27 26  1  0
 28 29  2  0
 28 30  1  0
M  END
$$$$
