VLW.pdb
     RDKit          3D

 30 31  0  0  1  0  0  0  0  0999 V2000
   10.3240  -20.1457   19.6667 C   0  0  0  0  0  0  0  0  0  0  0  0
   11.1260  -19.7494   18.4477 C   0  0  1  0  0  0  0  0  0  0  0  0
   11.1423  -20.8544   17.4096 C   0  0  0  0  0  0  0  0  0  0  0  0
   10.5786  -18.4548   17.8471 C   0  0  2  0  0  0  0  0  0  0  0  0
   11.2862  -18.1154   16.6513 N   0  0  0  0  0  0  0  0  0  0  0  0
   10.7659  -17.3994   18.9117 C   0  0  0  0  0  0  0  0  0  0  0  0
   11.8926  -17.0708   19.3025 O   0  0  0  0  0  0  0  0  0  0  0  0
    9.1714  -13.1075   19.5222 C   0  0  0  0  0  0  0  0  0  0  0  0
    8.0618  -14.1291   19.7521 C   0  0  2  0  0  0  0  0  0  0  0  0
    6.7541  -13.4617   19.8301 C   0  0  0  0  0  0  0  0  0  0  0  0
    8.4491  -15.0596   20.8232 C   0  0  0  0  0  0  0  0  0  0  0  0
    9.6581  -15.9033   20.6496 C   0  0  2  0  0  0  0  0  0  0  0  0
    9.6429  -16.7551   19.4937 N   0  0  0  0  0  0  0  0  0  0  0  0
   10.1223  -16.5713   21.8782 C   0  0  0  0  0  0  0  0  0  0  0  0
   10.1338  -17.8200   21.9097 O   0  0  0  0  0  0  0  0  0  0  0  0
   10.5595  -15.8927   23.0368 N   0  0  0  0  0  0  0  0  0  0  0  0
    9.6656  -15.5475   24.1637 C   0  0  1  0  0  0  0  0  0  0  0  0
    8.5699  -14.6663   23.7240 C   0  0  0  0  0  0  0  0  0  0  0  0
    7.6174  -14.3778   24.7958 C   0  0  0  0  0  0  0  0  0  0  0  0
    6.5358  -15.1644   25.1632 C   0  0  0  0  0  0  0  0  0  0  0  0
    5.8539  -14.5785   26.1525 N   0  0  0  0  0  0  0  0  0  0  0  0
    6.4457  -13.4181   26.4636 C   0  0  0  0  0  0  0  0  0  0  0  0
    6.1862  -12.4363   27.3988 C   0  0  0  0  0  0  0  0  0  0  0  0
    6.9772  -11.3385   27.5257 C   0  0  0  0  0  0  0  0  0  0  0  0
    8.0754  -11.1765   26.7103 C   0  0  0  0  0  0  0  0  0  0  0  0
    8.3501  -12.1387   25.7748 C   0  0  0  0  0  0  0  0  0  0  0  0
    7.5603  -13.2557   25.6318 C   0  0  0  0  0  0  0  0  0  0  0  0
    9.2522  -16.7492   24.8780 C   0  0  0  0  0  0  0  0  0  0  0  0
    9.0647  -16.8770   26.1077 O   0  0  0  0  0  0  0  0  0  0  0  0
    9.0284  -17.9235   24.1285 O   0  0  0  0  0  0  0  0  0  0  0  0
  2  1  1  1
  3  2  1  0
  4  2  1  0
  4  5  1  6
  6  7  2  0
  6  4  1  0
  9  8  1  1
  9 11  1  0
 10  9  1  0
 12 11  1  1
 12 13  1  0
 13  6  1  0
 14 12  1  0
 14 16  1  0
 15 14  2  0
 17 16  1  0
 17 28  1  0
 17 18  1  6
 19 18  1  0
 20 19  2  0
 21 22  1  0
 21 20  1  0
 22 27  2  0
 23 24  2  0
 23 22  1  0
 24 25  1  0
 25 26  2  0
 27 19  1  0
 27 26  1  0
 28 29  2  0
 28 30  1  0
M  END
$$$$
