WNY.pdb
     RDKit          3D

 35 37  0  0  1  0  0  0  0  0999 V2000
   26.9132  -22.5503  -12.6104 N   0  0  0  0  0  0  0  0  0  0  0  0
   26.0435  -21.5994  -11.9782 C   0  0  1  0  0  0  0  0  0  0  0  0
   26.7485  -20.3378  -11.5563 C   0  0  0  0  0  0  0  0  0  0  0  0
   27.8296  -20.6277  -10.6009 C   0  0  0  0  0  0  0  0  0  0  0  0
   29.1303  -21.0384  -10.9520 C   0  0  0  0  0  0  0  0  0  0  0  0
   29.8538  -21.1768   -9.8391 N   0  0  0  0  0  0  0  0  0  0  0  0
   29.0853  -20.8754   -8.7698 C   0  0  0  0  0  0  0  0  0  0  0  0
   29.3353  -20.8643   -7.4225 C   0  0  0  0  0  0  0  0  0  0  0  0
   28.3557  -20.5206   -6.5308 C   0  0  0  0  0  0  0  0  0  0  0  0
   27.1013  -20.1803   -6.9741 C   0  0  0  0  0  0  0  0  0  0  0  0
   26.8324  -20.1862   -8.3266 C   0  0  0  0  0  0  0  0  0  0  0  0
   27.8274  -20.5338   -9.2285 C   0  0  0  0  0  0  0  0  0  0  0  0
   24.9532  -21.2079  -12.9090 C   0  0  0  0  0  0  0  0  0  0  0  0
   25.2425  -20.9226  -14.1045 O   0  0  0  0  0  0  0  0  0  0  0  0
   23.4355  -23.1409  -15.6495 N   0  0  0  0  0  0  0  0  0  0  0  0
   23.5122  -23.7124  -14.3634 C   0  0  0  0  0  0  0  0  0  0  0  0
   24.3033  -24.6571  -14.1660 O   0  0  0  0  0  0  0  0  0  0  0  0
   22.6793  -23.2102  -13.2713 C   0  0  0  0  0  0  0  0  0  0  0  0
   22.5145  -21.7122  -13.2767 C   0  0  2  0  0  0  0  0  0  0  0  0
   23.6237  -21.1496  -12.4857 N   0  0  0  0  0  0  0  0  0  0  0  0
   21.2593  -21.3301  -12.5396 C   0  0  0  0  0  0  0  0  0  0  0  0
   21.1260  -21.5229  -11.2907 O   0  0  0  0  0  0  0  0  0  0  0  0
   20.9477  -15.8697  -16.9855 O   0  0  0  0  0  0  0  0  0  0  0  0
   20.5685  -16.5273  -15.8185 C   0  0  0  0  0  0  0  0  0  0  0  0
   21.5184  -17.1503  -15.0389 C   0  0  0  0  0  0  0  0  0  0  0  0
   21.1537  -17.8105  -13.8712 C   0  0  0  0  0  0  0  0  0  0  0  0
   19.8446  -17.8713  -13.4459 C   0  0  0  0  0  0  0  0  0  0  0  0
   19.4678  -18.5789  -12.1960 C   0  0  0  0  0  0  0  0  0  0  0  0
   19.1072  -20.0345  -12.4520 C   0  0  2  0  0  0  0  0  0  0  0  0
   20.1445  -20.7324  -13.1812 N   0  0  0  0  0  0  0  0  0  0  0  0
   17.8901  -20.0184  -13.2934 C   0  0  0  0  0  0  0  0  0  0  0  0
   17.8574  -20.5054  -14.5916 O   0  0  0  0  0  0  0  0  0  0  0  0
   18.9008  -17.2461  -14.2306 C   0  0  0  0  0  0  0  0  0  0  0  0
   19.2578  -16.5841  -15.3993 C   0  0  0  0  0  0  0  0  0  0  0  0
   16.8264  -19.5463  -12.8302 O   0  0  0  0  0  0  0  0  0  0  0  0
  2  1  1  6
  3  2  1  0
  4  3  1  0
  4  5  2  0
  6  5  1  0
  7  6  1  0
  8  7  2  0
  9  8  1  0
 10  9  2  0
 10 11  1  0
 11 12  2  0
 12  7  1  0
 12  4  1  0
 13 20  1  0
 13  2  1  0
 14 13  2  0
 16 18  1  0
 16 15  1  0
 17 16  2  0
 19 18  1  1
 19 20  1  0
 21 22  2  0
 21 19  1  0
 23 24  1  0
 24 34  2  0
 24 25  1  0
 25 26  2  0
 26 27  1  0
 27 28  1  0
 29 28  1  6
 29 30  1  0
 30 21  1  0
 31 29  1  0
 31 32  1  0
 33 27  2  0
 34 33  1  0
 35 31  2  0
M  END
$$$$
