WNY.pdb
     RDKit          3D

 35 37  0  0  1  0  0  0  0  0999 V2000
   27.9350  -22.1587  -14.0060 N   0  0  0  0  0  0  0  0  0  0  0  0
   26.8195  -21.7196  -13.2165 C   0  0  1  0  0  0  0  0  0  0  0  0
   27.0503  -20.3898  -12.5493 C   0  0  0  0  0  0  0  0  0  0  0  0
   27.9790  -20.5189  -11.4152 C   0  0  0  0  0  0  0  0  0  0  0  0
   29.3804  -20.6084  -11.5239 C   0  0  0  0  0  0  0  0  0  0  0  0
   29.9042  -20.6802  -10.2985 N   0  0  0  0  0  0  0  0  0  0  0  0
   28.9078  -20.6426   -9.3871 C   0  0  0  0  0  0  0  0  0  0  0  0
   28.9022  -20.6908   -8.0176 C   0  0  0  0  0  0  0  0  0  0  0  0
   27.7262  -20.6425   -7.3195 C   0  0  0  0  0  0  0  0  0  0  0  0
   26.5280  -20.5449   -7.9832 C   0  0  0  0  0  0  0  0  0  0  0  0
   26.5152  -20.4951   -9.3612 C   0  0  0  0  0  0  0  0  0  0  0  0
   27.7088  -20.5431  -10.0666 C   0  0  0  0  0  0  0  0  0  0  0  0
   25.6118  -21.5829  -14.0717 C   0  0  0  0  0  0  0  0  0  0  0  0
   25.7399  -21.6489  -15.3261 O   0  0  0  0  0  0  0  0  0  0  0  0
   24.9417  -24.8466  -15.1766 N   0  0  0  0  0  0  0  0  0  0  0  0
   24.0042  -23.8135  -15.3780 C   0  0  0  0  0  0  0  0  0  0  0  0
   23.8905  -23.3112  -16.5147 O   0  0  0  0  0  0  0  0  0  0  0  0
   23.1735  -23.3323  -14.2749 C   0  0  0  0  0  0  0  0  0  0  0  0
   23.1090  -21.8298  -14.1778 C   0  0  2  0  0  0  0  0  0  0  0  0
   24.3471  -21.3830  -13.5146 N   0  0  0  0  0  0  0  0  0  0  0  0
   21.9893  -21.4212  -13.2589 C   0  0  0  0  0  0  0  0  0  0  0  0
   21.3858  -22.2589  -12.5181 O   0  0  0  0  0  0  0  0  0  0  0  0
   22.4961  -14.1673  -15.5215 O   0  0  0  0  0  0  0  0  0  0  0  0
   21.8624  -15.3922  -15.3309 C   0  0  0  0  0  0  0  0  0  0  0  0
   20.7695  -15.4802  -14.4966 C   0  0  0  0  0  0  0  0  0  0  0  0
   20.1273  -16.6969  -14.2974 C   0  0  0  0  0  0  0  0  0  0  0  0
   20.5480  -17.8538  -14.9159 C   0  0  0  0  0  0  0  0  0  0  0  0
   19.8528  -19.1474  -14.6957 C   0  0  0  0  0  0  0  0  0  0  0  0
   20.1395  -19.7204  -13.3159 C   0  0  2  0  0  0  0  0  0  0  0  0
   21.5314  -20.0829  -13.1551 N   0  0  0  0  0  0  0  0  0  0  0  0
   19.3308  -20.9544  -13.2031 C   0  0  0  0  0  0  0  0  0  0  0  0
   18.0722  -20.9875  -12.6213 O   0  0  0  0  0  0  0  0  0  0  0  0
   21.6412  -17.7579  -15.7484 C   0  0  0  0  0  0  0  0  0  0  0  0
   22.2884  -16.5450  -15.9526 C   0  0  0  0  0  0  0  0  0  0  0  0
   19.7862  -22.0329  -13.6483 O   0  0  0  0  0  0  0  0  0  0  0  0
  2  1  1  6
  3  2  1  0
  4  3  1  0
  4  5  2  0
  6  5  1  0
  7  6  1  0
  8  7  2  0
  9  8  1  0
 10  9  2  0
 10 11  1  0
 11 12  2  0
 12  7  1  0
 12  4  1  0
 13 20  1  0
 13  2  1  0
 14 13  2  0
 16 18  1  0
 16 15  1  0
 17 16  2  0
 19 18  1  1
 19 20  1  0
 21 22  2  0
 21 19  1  0
 23 24  1  0
 24 34  2  0
 24 25  1  0
 25 26  2  0
 26 27  1  0
 27 28  1  0
 29 28  1  6
 29 30  1  0
 30 21  1  0
 31 29  1  0
 31 32  1  0
 33 27  2  0
 34 33  1  0
 35 31  2  0
M  END
$$$$
