WNY.pdb
     RDKit          3D

 35 37  0  0  1  0  0  0  0  0999 V2000
   26.9451  -19.6319  -11.3717 N   0  0  0  0  0  0  0  0  0  0  0  0
   26.5378  -21.0070  -11.3123 C   0  0  1  0  0  0  0  0  0  0  0  0
   25.9047  -21.3833   -9.9991 C   0  0  0  0  0  0  0  0  0  0  0  0
   26.7033  -20.8926   -8.8647 C   0  0  0  0  0  0  0  0  0  0  0  0
   26.1789  -20.2637   -7.7188 C   0  0  0  0  0  0  0  0  0  0  0  0
   27.1817  -19.9831   -6.8841 N   0  0  0  0  0  0  0  0  0  0  0  0
   28.3444  -20.3996   -7.4313 C   0  0  0  0  0  0  0  0  0  0  0  0
   29.6436  -20.3464   -6.9989 C   0  0  0  0  0  0  0  0  0  0  0  0
   30.6594  -20.8446   -7.7688 C   0  0  0  0  0  0  0  0  0  0  0  0
   30.3915  -21.4078   -8.9923 C   0  0  0  0  0  0  0  0  0  0  0  0
   29.0897  -21.4697   -9.4428 C   0  0  0  0  0  0  0  0  0  0  0  0
   28.0617  -20.9650   -8.6599 C   0  0  0  0  0  0  0  0  0  0  0  0
   25.5448  -21.2914  -12.3808 C   0  0  0  0  0  0  0  0  0  0  0  0
   24.9322  -20.3272  -12.9189 O   0  0  0  0  0  0  0  0  0  0  0  0
   24.4803  -24.8991  -16.7603 N   0  0  0  0  0  0  0  0  0  0  0  0
   23.8964  -24.7925  -15.4819 C   0  0  0  0  0  0  0  0  0  0  0  0
   22.6936  -25.0922  -15.3379 O   0  0  0  0  0  0  0  0  0  0  0  0
   24.6833  -24.3376  -14.3362 C   0  0  0  0  0  0  0  0  0  0  0  0
   24.4224  -22.9031  -13.9553 C   0  0  2  0  0  0  0  0  0  0  0  0
   25.2793  -22.5981  -12.7955 N   0  0  0  0  0  0  0  0  0  0  0  0
   23.0083  -22.7507  -13.4630 C   0  0  0  0  0  0  0  0  0  0  0  0
   22.5335  -23.4834  -12.5398 O   0  0  0  0  0  0  0  0  0  0  0  0
   21.7528  -17.3214  -18.1644 O   0  0  0  0  0  0  0  0  0  0  0  0
   21.4400  -18.0030  -16.9915 C   0  0  0  0  0  0  0  0  0  0  0  0
   20.1570  -18.4588  -16.7807 C   0  0  0  0  0  0  0  0  0  0  0  0
   19.8309  -19.1408  -15.6141 C   0  0  0  0  0  0  0  0  0  0  0  0
   20.7620  -19.3888  -14.6294 C   0  0  0  0  0  0  0  0  0  0  0  0
   20.4015  -20.1195  -13.3880 C   0  0  0  0  0  0  0  0  0  0  0  0
   20.7781  -21.5915  -13.4636 C   0  0  2  0  0  0  0  0  0  0  0  0
   22.1121  -21.7860  -13.9901 N   0  0  0  0  0  0  0  0  0  0  0  0
   19.8212  -22.2165  -14.4034 C   0  0  0  0  0  0  0  0  0  0  0  0
   20.1964  -22.7485  -15.6280 O   0  0  0  0  0  0  0  0  0  0  0  0
   22.0424  -18.9301  -14.8474 C   0  0  0  0  0  0  0  0  0  0  0  0
   22.3760  -18.2475  -16.0112 C   0  0  0  0  0  0  0  0  0  0  0  0
   18.6081  -22.2788  -14.0977 O   0  0  0  0  0  0  0  0  0  0  0  0
  2  1  1  1
  3  2  1  0
  4  3  1  0
  4  5  2  0
  6  5  1  0
  7  6  1  0
  8  7  2  0
  9  8  1  0
 10  9  2  0
 10 11  1  0
 11 12  2  0
 12  7  1  0
 12  4  1  0
 13 20  1  0
 13  2  1  0
 14 13  2  0
 16 18  1  0
 16 15  1  0
 17 16  2  0
 19 18  1  1
 19 20  1  0
 21 22  2  0
 21 19  1  0
 23 24  1  0
 24 34  2  0
 24 25  1  0
 25 26  2  0
 26 27  1  0
 27 28  1  0
 29 28  1  6
 29 30  1  0
 30 21  1  0
 31 29  1  0
 31 32  1  0
 33 27  2  0
 34 33  1  0
 35 31  2  0
M  END
$$$$
