WNY.pdb
     RDKit          3D

 35 37  0  0  1  0  0  0  0  0999 V2000
   31.9436   -7.4501  -19.7707 N   0  0  0  0  0  0  0  0  0  0  0  0
   32.0509   -8.6059  -18.9264 C   0  0  1  0  0  0  0  0  0  0  0  0
   31.3452   -8.4452  -17.6061 C   0  0  0  0  0  0  0  0  0  0  0  0
   32.1090   -7.5744  -16.6984 C   0  0  0  0  0  0  0  0  0  0  0  0
   31.7432   -6.2629  -16.3380 C   0  0  0  0  0  0  0  0  0  0  0  0
   32.6434   -5.7857  -15.4762 N   0  0  0  0  0  0  0  0  0  0  0  0
   33.5870   -6.7264  -15.2538 C   0  0  0  0  0  0  0  0  0  0  0  0
   34.7137   -6.7426  -14.4739 C   0  0  0  0  0  0  0  0  0  0  0  0
   35.5224   -7.8459  -14.4338 C   0  0  0  0  0  0  0  0  0  0  0  0
   35.2164   -8.9587  -15.1779 C   0  0  0  0  0  0  0  0  0  0  0  0
   34.0864   -8.9596  -15.9682 C   0  0  0  0  0  0  0  0  0  0  0  0
   33.2676   -7.8404  -16.0062 C   0  0  0  0  0  0  0  0  0  0  0  0
   31.4597   -9.7891  -19.6039 C   0  0  0  0  0  0  0  0  0  0  0  0
   30.5290   -9.6141  -20.4391 O   0  0  0  0  0  0  0  0  0  0  0  0
   30.8468  -14.7414  -21.2171 N   0  0  0  0  0  0  0  0  0  0  0  0
   31.9875  -14.6614  -20.3930 C   0  0  0  0  0  0  0  0  0  0  0  0
   32.6697  -15.6885  -20.2008 O   0  0  0  0  0  0  0  0  0  0  0  0
   32.3718  -13.3958  -19.7692 C   0  0  0  0  0  0  0  0  0  0  0  0
   31.4226  -12.2633  -20.0656 C   0  0  2  0  0  0  0  0  0  0  0  0
   31.9126  -11.0819  -19.3330 N   0  0  0  0  0  0  0  0  0  0  0  0
   30.0666  -12.5636  -19.4857 C   0  0  0  0  0  0  0  0  0  0  0  0
   29.8011  -12.3714  -18.2581 O   0  0  0  0  0  0  0  0  0  0  0  0
   26.2599  -13.1733  -25.9601 O   0  0  0  0  0  0  0  0  0  0  0  0
   26.3509  -12.9863  -24.5835 C   0  0  0  0  0  0  0  0  0  0  0  0
   26.0048  -14.0069  -23.7252 C   0  0  0  0  0  0  0  0  0  0  0  0
   26.0909  -13.8338  -22.3486 C   0  0  0  0  0  0  0  0  0  0  0  0
   26.5201  -12.6510  -21.7874 C   0  0  0  0  0  0  0  0  0  0  0  0
   26.6088  -12.4788  -20.3152 C   0  0  0  0  0  0  0  0  0  0  0  0
   27.6911  -13.3555  -19.7032 C   0  0  2  0  0  0  0  0  0  0  0  0
   28.9971  -13.0783  -20.2621 N   0  0  0  0  0  0  0  0  0  0  0  0
   27.3360  -14.7510  -20.0436 C   0  0  0  0  0  0  0  0  0  0  0  0
   26.1474  -15.3494  -19.6532 O   0  0  0  0  0  0  0  0  0  0  0  0
   26.8645  -11.6354  -22.6520 C   0  0  0  0  0  0  0  0  0  0  0  0
   26.7810  -11.8011  -24.0294 C   0  0  0  0  0  0  0  0  0  0  0  0
   28.1336  -15.4436  -20.7167 O   0  0  0  0  0  0  0  0  0  0  0  0
  2  1  1  6
  3  2  1  0
  4  3  1  0
  4  5  2  0
  6  5  1  0
  7  6  1  0
  8  7  2  0
  9  8  1  0
 10  9  2  0
 10 11  1  0
 11 12  2  0
 12  7  1  0
 12  4  1  0
 13 20  1  0
 13  2  1  0
 14 13  2  0
 16 18  1  0
 16 15  1  0
 17 16  2  0
 19 18  1  1
 19 20  1  0
 21 22  2  0
 21 19  1  0
 23 24  1  0
 24 34  2  0
 24 25  1  0
 25 26  2  0
 26 27  1  0
 27 28  1  0
 29 28  1  6
 29 30  1  0
 30 21  1  0
 31 29  1  0
 31 32  1  0
 33 27  2  0
 34 33  1  0
 35 31  2  0
M  END
$$$$
