WNY.pdb
     RDKit          3D

 35 37  0  0  1  0  0  0  0  0999 V2000
   26.5243  -18.5758   -9.2245 N   0  0  0  0  0  0  0  0  0  0  0  0
   26.8193  -19.8958   -9.7052 C   0  0  1  0  0  0  0  0  0  0  0  0
   26.4715  -20.9790   -8.7191 C   0  0  0  0  0  0  0  0  0  0  0  0
   26.8907  -20.6118   -7.3572 C   0  0  0  0  0  0  0  0  0  0  0  0
   26.0205  -20.2195   -6.3215 C   0  0  0  0  0  0  0  0  0  0  0  0
   26.7372  -19.9943   -5.2184 N   0  0  0  0  0  0  0  0  0  0  0  0
   28.0423  -20.2207   -5.4832 C   0  0  0  0  0  0  0  0  0  0  0  0
   29.1731  -20.1304   -4.7144 C   0  0  0  0  0  0  0  0  0  0  0  0
   30.4036  -20.4136   -5.2419 C   0  0  0  0  0  0  0  0  0  0  0  0
   30.5252  -20.7942   -6.5558 C   0  0  0  0  0  0  0  0  0  0  0  0
   29.3976  -20.8904   -7.3437 C   0  0  0  0  0  0  0  0  0  0  0  0
   28.1512  -20.6038   -6.8063 C   0  0  0  0  0  0  0  0  0  0  0  0
   26.0551  -20.1677  -10.9504 C   0  0  0  0  0  0  0  0  0  0  0  0
   24.9646  -19.5612  -11.1437 O   0  0  0  0  0  0  0  0  0  0  0  0
   26.6545  -21.3276  -16.5270 N   0  0  0  0  0  0  0  0  0  0  0  0
   26.3718  -22.2037  -15.4597 C   0  0  0  0  0  0  0  0  0  0  0  0
   25.6797  -23.2194  -15.6761 O   0  0  0  0  0  0  0  0  0  0  0  0
   26.8790  -21.9322  -14.1152 C   0  0  0  0  0  0  0  0  0  0  0  0
   25.8832  -21.2374  -13.2225 C   0  0  2  0  0  0  0  0  0  0  0  0
   26.5195  -21.0774  -11.9027 N   0  0  0  0  0  0  0  0  0  0  0  0
   24.6918  -22.1274  -12.9905 C   0  0  0  0  0  0  0  0  0  0  0  0
   24.5753  -22.8382  -11.9437 O   0  0  0  0  0  0  0  0  0  0  0  0
   20.4142  -16.6731  -14.7675 O   0  0  0  0  0  0  0  0  0  0  0  0
   20.7327  -17.9093  -14.2120 C   0  0  0  0  0  0  0  0  0  0  0  0
   19.8411  -18.9558  -14.3027 C   0  0  0  0  0  0  0  0  0  0  0  0
   20.1463  -20.1953  -13.7526 C   0  0  0  0  0  0  0  0  0  0  0  0
   21.3370  -20.4311  -13.1009 C   0  0  0  0  0  0  0  0  0  0  0  0
   21.6517  -21.7602  -12.5181 C   0  0  0  0  0  0  0  0  0  0  0  0
   22.3025  -22.6876  -13.5334 C   0  0  2  0  0  0  0  0  0  0  0  0
   23.6229  -22.2353  -13.9164 N   0  0  0  0  0  0  0  0  0  0  0  0
   21.4420  -22.6543  -14.7367 C   0  0  0  0  0  0  0  0  0  0  0  0
   20.1463  -23.1485  -14.7582 O   0  0  0  0  0  0  0  0  0  0  0  0
   22.2232  -19.3801  -13.0143 C   0  0  0  0  0  0  0  0  0  0  0  0
   21.9251  -18.1380  -13.5618 C   0  0  0  0  0  0  0  0  0  0  0  0
   21.8857  -22.1598  -15.7986 O   0  0  0  0  0  0  0  0  0  0  0  0
  2  1  1  1
  3  2  1  0
  4  3  1  0
  4  5  2  0
  6  5  1  0
  7  6  1  0
  8  7  2  0
  9  8  1  0
 10  9  2  0
 10 11  1  0
 11 12  2  0
 12  7  1  0
 12  4  1  0
 13 20  1  0
 13  2  1  0
 14 13  2  0
 16 18  1  0
 16 15  1  0
 17 16  2  0
 19 18  1  6
 19 20  1  0
 21 22  2  0
 21 19  1  0
 23 24  1  0
 24 34  2  0
 24 25  1  0
 25 26  2  0
 26 27  1  0
 27 28  1  0
 29 28  1  1
 29 30  1  0
 30 21  1  0
 31 29  1  0
 31 32  1  0
 33 27  2  0
 34 33  1  0
 35 31  2  0
M  END
$$$$
