WNY.pdb
     RDKit          3D

 35 37  0  0  1  0  0  0  0  0999 V2000
   27.1030  -19.5027  -17.0307 N   0  0  0  0  0  0  0  0  0  0  0  0
   26.7180  -20.0534  -15.7622 C   0  0  1  0  0  0  0  0  0  0  0  0
   26.4298  -19.0042  -14.7216 C   0  0  0  0  0  0  0  0  0  0  0  0
   26.7845  -19.4804  -13.3751 C   0  0  0  0  0  0  0  0  0  0  0  0
   28.0649  -19.9170  -12.9831 C   0  0  0  0  0  0  0  0  0  0  0  0
   28.0320  -20.2429  -11.6894 N   0  0  0  0  0  0  0  0  0  0  0  0
   26.7845  -20.0402  -11.2123 C   0  0  0  0  0  0  0  0  0  0  0  0
   26.2249  -20.2211   -9.9746 C   0  0  0  0  0  0  0  0  0  0  0  0
   24.9036  -19.9407   -9.7551 C   0  0  0  0  0  0  0  0  0  0  0  0
   24.1141  -19.4720  -10.7763 C   0  0  0  0  0  0  0  0  0  0  0  0
   24.6610  -19.2840  -12.0282 C   0  0  0  0  0  0  0  0  0  0  0  0
   26.0010  -19.5679  -12.2478 C   0  0  0  0  0  0  0  0  0  0  0  0
   25.4895  -20.8756  -15.9148 C   0  0  0  0  0  0  0  0  0  0  0  0
   25.2536  -21.4219  -17.0285 O   0  0  0  0  0  0  0  0  0  0  0  0
   24.9363  -23.7243  -16.7877 N   0  0  0  0  0  0  0  0  0  0  0  0
   25.3275  -24.0620  -15.4764 C   0  0  0  0  0  0  0  0  0  0  0  0
   26.1897  -24.9488  -15.3104 O   0  0  0  0  0  0  0  0  0  0  0  0
   24.7352  -23.3868  -14.3223 C   0  0  0  0  0  0  0  0  0  0  0  0
   23.7896  -22.2736  -14.6933 C   0  0  2  0  0  0  0  0  0  0  0  0
   24.5979  -21.0517  -14.8547 N   0  0  0  0  0  0  0  0  0  0  0  0
   22.8544  -21.9901  -13.5486 C   0  0  0  0  0  0  0  0  0  0  0  0
   23.2510  -21.9788  -12.3414 O   0  0  0  0  0  0  0  0  0  0  0  0
   21.2827  -16.1480  -16.4805 O   0  0  0  0  0  0  0  0  0  0  0  0
   21.2282  -17.0613  -15.4311 C   0  0  0  0  0  0  0  0  0  0  0  0
   20.0377  -17.2872  -14.7754 C   0  0  0  0  0  0  0  0  0  0  0  0
   19.9691  -18.1963  -13.7260 C   0  0  0  0  0  0  0  0  0  0  0  0
   21.0722  -18.9030  -13.2997 C   0  0  0  0  0  0  0  0  0  0  0  0
   20.9859  -19.8723  -12.1780 C   0  0  0  0  0  0  0  0  0  0  0  0
   20.6175  -21.2680  -12.6584 C   0  0  2  0  0  0  0  0  0  0  0  0
   21.4750  -21.7177  -13.7342 N   0  0  0  0  0  0  0  0  0  0  0  0
   19.2373  -21.1749  -13.1836 C   0  0  0  0  0  0  0  0  0  0  0  0
   18.1274  -20.9859  -12.3738 O   0  0  0  0  0  0  0  0  0  0  0  0
   22.2587  -18.6718  -13.9601 C   0  0  0  0  0  0  0  0  0  0  0  0
   22.3351  -17.7644  -15.0101 C   0  0  0  0  0  0  0  0  0  0  0  0
   19.0392  -21.2689  -14.4168 O   0  0  0  0  0  0  0  0  0  0  0  0
  2  1  1  6
  3  2  1  0
  4  3  1  0
  4  5  2  0
  6  5  1  0
  7  6  1  0
  8  7  2  0
  9  8  1  0
 10  9  2  0
 10 11  1  0
 11 12  2  0
 12  7  1  0
 12  4  1  0
 13 20  1  0
 13  2  1  0
 14 13  2  0
 16 18  1  0
 16 15  1  0
 17 16  2  0
 19 18  1  1
 19 20  1  0
 21 22  2  0
 21 19  1  0
 23 24  1  0
 24 34  2  0
 24 25  1  0
 25 26  2  0
 26 27  1  0
 27 28  1  0
 29 28  1  6
 29 30  1  0
 30 21  1  0
 31 29  1  0
 31 32  1  0
 33 27  2  0
 34 33  1  0
 35 31  2  0
M  END
$$$$
