WNY.pdb
     RDKit          3D

 35 37  0  0  1  0  0  0  0  0999 V2000
   23.8248  -21.2601   -8.4443 N   0  0  0  0  0  0  0  0  0  0  0  0
   24.8318  -20.6859   -9.2908 C   0  0  1  0  0  0  0  0  0  0  0  0
   26.2207  -21.1762   -8.9791 C   0  0  0  0  0  0  0  0  0  0  0  0
   26.5223  -21.0407   -7.5451 C   0  0  0  0  0  0  0  0  0  0  0  0
   26.1962  -21.9901   -6.5571 C   0  0  0  0  0  0  0  0  0  0  0  0
   26.6478  -21.5577   -5.3780 N   0  0  0  0  0  0  0  0  0  0  0  0
   27.2568  -20.3638   -5.5468 C   0  0  0  0  0  0  0  0  0  0  0  0
   27.8722  -19.5056   -4.6734 C   0  0  0  0  0  0  0  0  0  0  0  0
   28.4134  -18.3279   -5.1124 C   0  0  0  0  0  0  0  0  0  0  0  0
   28.3478  -17.9858   -6.4407 C   0  0  0  0  0  0  0  0  0  0  0  0
   27.7324  -18.8378   -7.3334 C   0  0  0  0  0  0  0  0  0  0  0  0
   27.1855  -20.0316   -6.8861 C   0  0  0  0  0  0  0  0  0  0  0  0
   24.5531  -21.0178  -10.7123 C   0  0  0  0  0  0  0  0  0  0  0  0
   24.3917  -22.2272  -11.0377 O   0  0  0  0  0  0  0  0  0  0  0  0
   22.2507  -22.5483  -12.4170 N   0  0  0  0  0  0  0  0  0  0  0  0
   21.5343  -21.3738  -12.1106 C   0  0  0  0  0  0  0  0  0  0  0  0
   20.3654  -21.4705  -11.6845 O   0  0  0  0  0  0  0  0  0  0  0  0
   22.1462  -20.0574  -12.2873 C   0  0  0  0  0  0  0  0  0  0  0  0
   23.5490  -20.1118  -12.8353 C   0  0  2  0  0  0  0  0  0  0  0  0
   24.4686  -20.0215  -11.6870 N   0  0  0  0  0  0  0  0  0  0  0  0
   23.8235  -18.8890  -13.6688 C   0  0  0  0  0  0  0  0  0  0  0  0
   23.6462  -17.7136  -13.2196 O   0  0  0  0  0  0  0  0  0  0  0  0
   29.1788  -21.5713  -13.2935 O   0  0  0  0  0  0  0  0  0  0  0  0
   28.4175  -20.6496  -14.0070 C   0  0  0  0  0  0  0  0  0  0  0  0
   28.4647  -19.3132  -13.6755 C   0  0  0  0  0  0  0  0  0  0  0  0
   27.7098  -18.3822  -14.3796 C   0  0  0  0  0  0  0  0  0  0  0  0
   26.8916  -18.7476  -15.4260 C   0  0  0  0  0  0  0  0  0  0  0  0
   26.0908  -17.7434  -16.1711 C   0  0  0  0  0  0  0  0  0  0  0  0
   24.6210  -17.7834  -15.7805 C   0  0  2  0  0  0  0  0  0  0  0  0
   24.2957  -18.9608  -15.0043 N   0  0  0  0  0  0  0  0  0  0  0  0
   23.8571  -17.8460  -17.0462 C   0  0  0  0  0  0  0  0  0  0  0  0
   23.8507  -16.8218  -17.9812 O   0  0  0  0  0  0  0  0  0  0  0  0
   26.8497  -20.0854  -15.7516 C   0  0  0  0  0  0  0  0  0  0  0  0
   27.6016  -21.0221  -15.0523 C   0  0  0  0  0  0  0  0  0  0  0  0
   23.1762  -18.8648  -17.3058 O   0  0  0  0  0  0  0  0  0  0  0  0
  2  1  1  1
  3  2  1  0
  4  3  1  0
  4  5  2  0
  6  5  1  0
  7  6  1  0
  8  7  2  0
  9  8  1  0
 10  9  2  0
 10 11  1  0
 11 12  2  0
 12  7  1  0
 12  4  1  0
 13 20  1  0
 13  2  1  0
 14 13  2  0
 16 18  1  0
 16 15  1  0
 17 16  2  0
 19 18  1  1
 19 20  1  0
 21 22  2  0
 21 19  1  0
 23 24  1  0
 24 34  2  0
 24 25  1  0
 25 26  2  0
 26 27  1  0
 27 28  1  0
 29 28  1  6
 29 30  1  0
 30 21  1  0
 31 29  1  0
 31 32  1  0
 33 27  2  0
 34 33  1  0
 35 31  2  0
M  END
$$$$
