WNY.pdb
     RDKit          3D

 35 37  0  0  1  0  0  0  0  0999 V2000
   15.1054  -16.6678    3.6776 N   0  0  0  0  0  0  0  0  0  0  0  0
   15.9336  -17.5365    4.4648 C   0  0  1  0  0  0  0  0  0  0  0  0
   17.0160  -18.2115    3.6650 C   0  0  0  0  0  0  0  0  0  0  0  0
   16.5218  -19.4492    3.0411 C   0  0  0  0  0  0  0  0  0  0  0  0
   15.5673  -19.5081    2.0070 C   0  0  0  0  0  0  0  0  0  0  0  0
   15.3825  -20.7843    1.6632 N   0  0  0  0  0  0  0  0  0  0  0  0
   16.1738  -21.5687    2.4268 C   0  0  0  0  0  0  0  0  0  0  0  0
   16.3581  -22.9255    2.4813 C   0  0  0  0  0  0  0  0  0  0  0  0
   17.2350  -23.4783    3.3747 C   0  0  0  0  0  0  0  0  0  0  0  0
   17.9469  -22.6786    4.2346 C   0  0  0  0  0  0  0  0  0  0  0  0
   17.7739  -21.3112    4.1933 C   0  0  0  0  0  0  0  0  0  0  0  0
   16.8852  -20.7532    3.2859 C   0  0  0  0  0  0  0  0  0  0  0  0
   16.5980  -16.7650    5.5473 C   0  0  0  0  0  0  0  0  0  0  0  0
   16.5193  -15.5048    5.5371 O   0  0  0  0  0  0  0  0  0  0  0  0
   18.4606  -15.1305    9.9609 N   0  0  0  0  0  0  0  0  0  0  0  0
   17.2158  -15.7908    9.9268 C   0  0  0  0  0  0  0  0  0  0  0  0
   16.4193  -15.6322   10.8744 O   0  0  0  0  0  0  0  0  0  0  0  0
   16.8565  -16.6510    8.8001 C   0  0  0  0  0  0  0  0  0  0  0  0
   17.8915  -16.6762    7.7050 C   0  0  2  0  0  0  0  0  0  0  0  0
   17.3037  -17.4062    6.5674 N   0  0  0  0  0  0  0  0  0  0  0  0
   19.0789  -17.4931    8.1381 C   0  0  0  0  0  0  0  0  0  0  0  0
   19.0922  -18.7608    8.0523 O   0  0  0  0  0  0  0  0  0  0  0  0
   23.0427  -11.4673    9.1326 O   0  0  0  0  0  0  0  0  0  0  0  0
   22.9465  -12.8406    8.9249 C   0  0  0  0  0  0  0  0  0  0  0  0
   23.5994  -13.7125    9.7687 C   0  0  0  0  0  0  0  0  0  0  0  0
   23.5119  -15.0859    9.5729 C   0  0  0  0  0  0  0  0  0  0  0  0
   22.7789  -15.6306    8.5413 C   0  0  0  0  0  0  0  0  0  0  0  0
   22.6924  -17.0997    8.3432 C   0  0  0  0  0  0  0  0  0  0  0  0
   21.4404  -17.6871    8.9771 C   0  0  2  0  0  0  0  0  0  0  0  0
   20.2584  -16.9108    8.6689 N   0  0  0  0  0  0  0  0  0  0  0  0
   21.6524  -17.6337   10.4406 C   0  0  0  0  0  0  0  0  0  0  0  0
   22.6063  -18.3957   11.0984 O   0  0  0  0  0  0  0  0  0  0  0  0
   22.1291  -14.7526    7.7020 C   0  0  0  0  0  0  0  0  0  0  0  0
   22.2119  -13.3782    7.8914 C   0  0  0  0  0  0  0  0  0  0  0  0
   20.9466  -16.8696   11.1384 O   0  0  0  0  0  0  0  0  0  0  0  0
  2  1  1  6
  3  2  1  0
  4  3  1  0
  4  5  2  0
  6  5  1  0
  7  6  1  0
  8  7  2  0
  9  8  1  0
 10  9  2  0
 10 11  1  0
 11 12  2  0
 12  7  1  0
 12  4  1  0
 13 20  1  0
 13  2  1  0
 14 13  2  0
 16 18  1  0
 16 15  1  0
 17 16  2  0
 19 18  1  1
 19 20  1  0
 21 22  2  0
 21 19  1  0
 23 24  1  0
 24 34  2  0
 24 25  1  0
 25 26  2  0
 26 27  1  0
 27 28  1  0
 29 28  1  6
 29 30  1  0
 30 21  1  0
 31 29  1  0
 31 32  1  0
 33 27  2  0
 34 33  1  0
 35 31  2  0
M  END
$$$$
