WNY.pdb
     RDKit          3D

 35 37  0  0  1  0  0  0  0  0999 V2000
   27.8927  -21.8454  -13.6958 N   0  0  0  0  0  0  0  0  0  0  0  0
   26.7273  -21.8552  -12.8580 C   0  0  1  0  0  0  0  0  0  0  0  0
   26.6326  -20.6527  -11.9571 C   0  0  0  0  0  0  0  0  0  0  0  0
   27.6526  -20.7014  -10.8975 C   0  0  0  0  0  0  0  0  0  0  0  0
   29.0368  -20.8461  -11.1138 C   0  0  0  0  0  0  0  0  0  0  0  0
   29.6627  -20.8161   -9.9355 N   0  0  0  0  0  0  0  0  0  0  0  0
   28.7501  -20.6586   -8.9521 C   0  0  0  0  0  0  0  0  0  0  0  0
   28.8618  -20.5742   -7.5889 C   0  0  0  0  0  0  0  0  0  0  0  0
   27.7521  -20.4209   -6.8030 C   0  0  0  0  0  0  0  0  0  0  0  0
   26.5036  -20.3493   -7.3704 C   0  0  0  0  0  0  0  0  0  0  0  0
   26.3729  -20.4324   -8.7406 C   0  0  0  0  0  0  0  0  0  0  0  0
   27.4995  -20.5866   -9.5352 C   0  0  0  0  0  0  0  0  0  0  0  0
   25.4986  -21.8809  -13.6936 C   0  0  0  0  0  0  0  0  0  0  0  0
   25.3179  -20.9650  -14.5439 O   0  0  0  0  0  0  0  0  0  0  0  0
   24.1369  -26.3967  -15.0900 N   0  0  0  0  0  0  0  0  0  0  0  0
   23.5802  -25.1441  -15.4185 C   0  0  0  0  0  0  0  0  0  0  0  0
   23.7121  -24.7082  -16.5804 O   0  0  0  0  0  0  0  0  0  0  0  0
   22.8573  -24.3614  -14.4169 C   0  0  0  0  0  0  0  0  0  0  0  0
   23.3001  -22.9230  -14.3392 C   0  0  2  0  0  0  0  0  0  0  0  0
   24.5471  -22.8933  -13.5541 N   0  0  0  0  0  0  0  0  0  0  0  0
   22.3046  -22.1206  -13.5452 C   0  0  0  0  0  0  0  0  0  0  0  0
   21.8677  -22.5134  -12.4186 O   0  0  0  0  0  0  0  0  0  0  0  0
   22.4036  -16.7107  -18.4506 O   0  0  0  0  0  0  0  0  0  0  0  0
   22.1302  -17.1808  -17.1690 C   0  0  0  0  0  0  0  0  0  0  0  0
   20.8565  -17.0767  -16.6540 C   0  0  0  0  0  0  0  0  0  0  0  0
   20.5697  -17.5421  -15.3759 C   0  0  0  0  0  0  0  0  0  0  0  0
   21.5317  -18.1204  -14.5770 C   0  0  0  0  0  0  0  0  0  0  0  0
   21.2125  -18.6145  -13.2136 C   0  0  0  0  0  0  0  0  0  0  0  0
   20.8561  -20.0935  -13.2128 C   0  0  2  0  0  0  0  0  0  0  0  0
   21.7874  -20.8786  -13.9944 N   0  0  0  0  0  0  0  0  0  0  0  0
   19.5242  -20.1994  -13.8487 C   0  0  0  0  0  0  0  0  0  0  0  0
   18.3662  -19.6957  -13.2753 O   0  0  0  0  0  0  0  0  0  0  0  0
   22.8026  -18.2209  -15.0988 C   0  0  0  0  0  0  0  0  0  0  0  0
   23.0969  -17.7580  -16.3758 C   0  0  0  0  0  0  0  0  0  0  0  0
   19.4146  -20.7679  -14.9595 O   0  0  0  0  0  0  0  0  0  0  0  0
  2  1  1  6
  3  2  1  0
  4  3  1  0
  4  5  2  0
  6  5  1  0
  7  6  1  0
  8  7  2  0
  9  8  1  0
 10  9  2  0
 10 11  1  0
 11 12  2  0
 12  7  1  0
 12  4  1  0
 13 20  1  0
 13  2  1  0
 14 13  2  0
 16 18  1  0
 16 15  1  0
 17 16  2  0
 19 18  1  1
 19 20  1  0
 21 22  2  0
 21 19  1  0
 23 24  1  0
 24 34  2  0
 24 25  1  0
 25 26  2  0
 26 27  1  0
 27 28  1  0
 29 28  1  6
 29 30  1  0
 30 21  1  0
 31 29  1  0
 31 32  1  0
 33 27  2  0
 34 33  1  0
 35 31  2  0
M  END
$$$$
