WNY.pdb
     RDKit          3D

 35 37  0  0  1  0  0  0  0  0999 V2000
   26.9023  -21.0301  -15.6835 N   0  0  0  0  0  0  0  0  0  0  0  0
   26.2838  -21.6909  -14.5694 C   0  0  1  0  0  0  0  0  0  0  0  0
   26.1087  -20.7971  -13.3706 C   0  0  0  0  0  0  0  0  0  0  0  0
   27.3999  -20.2535  -12.9205 C   0  0  0  0  0  0  0  0  0  0  0  0
   27.9233  -19.0000  -13.2927 C   0  0  0  0  0  0  0  0  0  0  0  0
   29.0920  -18.8198  -12.6739 N   0  0  0  0  0  0  0  0  0  0  0  0
   29.3612  -19.9012  -11.9104 C   0  0  0  0  0  0  0  0  0  0  0  0
   30.4150  -20.2206  -11.0947 C   0  0  0  0  0  0  0  0  0  0  0  0
   30.4466  -21.4138  -10.4255 C   0  0  0  0  0  0  0  0  0  0  0  0
   29.4185  -22.3140  -10.5616 C   0  0  0  0  0  0  0  0  0  0  0  0
   28.3502  -22.0087  -11.3784 C   0  0  0  0  0  0  0  0  0  0  0  0
   28.3200  -20.7980  -12.0548 C   0  0  0  0  0  0  0  0  0  0  0  0
   24.9363  -22.1859  -14.9540 C   0  0  0  0  0  0  0  0  0  0  0  0
   24.1321  -21.3936  -15.5198 O   0  0  0  0  0  0  0  0  0  0  0  0
   21.1446  -25.3551  -16.3792 N   0  0  0  0  0  0  0  0  0  0  0  0
   22.2386  -26.1292  -15.9426 C   0  0  0  0  0  0  0  0  0  0  0  0
   22.2543  -27.3518  -16.1927 O   0  0  0  0  0  0  0  0  0  0  0  0
   23.3428  -25.5148  -15.2065 C   0  0  0  0  0  0  0  0  0  0  0  0
   23.2157  -24.0200  -15.0632 C   0  0  2  0  0  0  0  0  0  0  0  0
   24.5475  -23.5029  -14.7006 N   0  0  0  0  0  0  0  0  0  0  0  0
   22.3235  -23.6891  -13.8971 C   0  0  0  0  0  0  0  0  0  0  0  0
   22.6620  -23.9377  -12.6978 O   0  0  0  0  0  0  0  0  0  0  0  0
   21.8248  -16.9736  -15.2923 O   0  0  0  0  0  0  0  0  0  0  0  0
   21.5939  -18.1071  -14.5177 C   0  0  0  0  0  0  0  0  0  0  0  0
   20.3757  -18.2821  -13.8984 C   0  0  0  0  0  0  0  0  0  0  0  0
   20.1317  -19.4091  -13.1222 C   0  0  0  0  0  0  0  0  0  0  0  0
   21.0829  -20.3888  -12.9390 C   0  0  0  0  0  0  0  0  0  0  0  0
   20.8097  -21.5888  -12.1081 C   0  0  0  0  0  0  0  0  0  0  0  0
   20.2149  -22.7249  -12.9265 C   0  0  2  0  0  0  0  0  0  0  0  0
   21.0516  -23.0810  -14.0526 N   0  0  0  0  0  0  0  0  0  0  0  0
   18.9268  -22.2248  -13.4555 C   0  0  0  0  0  0  0  0  0  0  0  0
   17.8562  -21.8772  -12.6452 O   0  0  0  0  0  0  0  0  0  0  0  0
   22.2983  -20.2068  -13.5612 C   0  0  0  0  0  0  0  0  0  0  0  0
   22.5496  -19.0826  -14.3389 C   0  0  0  0  0  0  0  0  0  0  0  0
   18.7743  -22.1015  -14.6926 O   0  0  0  0  0  0  0  0  0  0  0  0
  2  1  1  6
  3  2  1  0
  4  3  1  0
  4  5  2  0
  6  5  1  0
  7  6  1  0
  8  7  2  0
  9  8  1  0
 10  9  2  0
 10 11  1  0
 11 12  2  0
 12  7  1  0
 12  4  1  0
 13 20  1  0
 13  2  1  0
 14 13  2  0
 16 18  1  0
 16 15  1  0
 17 16  2  0
 19 18  1  1
 19 20  1  0
 21 22  2  0
 21 19  1  0
 23 24  1  0
 24 34  2  0
 24 25  1  0
 25 26  2  0
 26 27  1  0
 27 28  1  0
 29 28  1  6
 29 30  1  0
 30 21  1  0
 31 29  1  0
 31 32  1  0
 33 27  2  0
 34 33  1  0
 35 31  2  0
M  END
$$$$
