WNY.pdb
     RDKit          3D

 35 37  0  0  1  0  0  0  0  0999 V2000
   25.4783   -8.6256  -19.0142 N   0  0  0  0  0  0  0  0  0  0  0  0
   24.8182   -8.9613  -17.7846 C   0  0  1  0  0  0  0  0  0  0  0  0
   25.5541   -8.4775  -16.5635 C   0  0  0  0  0  0  0  0  0  0  0  0
   26.8405   -9.1749  -16.4078 C   0  0  0  0  0  0  0  0  0  0  0  0
   28.1059   -8.5948  -16.6227 C   0  0  0  0  0  0  0  0  0  0  0  0
   29.0471   -9.5029  -16.3571 N   0  0  0  0  0  0  0  0  0  0  0  0
   28.4561  -10.6566  -15.9769 C   0  0  0  0  0  0  0  0  0  0  0  0
   28.9578  -11.8774  -15.6086 C   0  0  0  0  0  0  0  0  0  0  0  0
   28.1209  -12.9059  -15.2704 C   0  0  0  0  0  0  0  0  0  0  0  0
   26.7592  -12.7302  -15.2952 C   0  0  0  0  0  0  0  0  0  0  0  0
   26.2372  -11.5081  -15.6633 C   0  0  0  0  0  0  0  0  0  0  0  0
   27.0877  -10.4667  -16.0046 C   0  0  0  0  0  0  0  0  0  0  0  0
   23.4610   -8.3567  -17.7528 C   0  0  0  0  0  0  0  0  0  0  0  0
   23.2855   -7.2198  -18.2735 O   0  0  0  0  0  0  0  0  0  0  0  0
   20.6279  -10.0282  -19.6301 N   0  0  0  0  0  0  0  0  0  0  0  0
   19.9352  -10.4562  -18.4797 C   0  0  0  0  0  0  0  0  0  0  0  0
   19.1723  -11.4403  -18.5625 O   0  0  0  0  0  0  0  0  0  0  0  0
   20.1036   -9.7614  -17.2039 C   0  0  0  0  0  0  0  0  0  0  0  0
   20.9943   -8.5487  -17.2894 C   0  0  2  0  0  0  0  0  0  0  0  0
   22.3848   -9.0200  -17.1599 N   0  0  0  0  0  0  0  0  0  0  0  0
   20.7598   -7.6536  -16.1024 C   0  0  0  0  0  0  0  0  0  0  0  0
   21.4774   -7.7203  -15.0558 O   0  0  0  0  0  0  0  0  0  0  0  0
   18.3938   -1.7898  -19.9791 O   0  0  0  0  0  0  0  0  0  0  0  0
   18.9036   -2.4422  -18.8598 C   0  0  0  0  0  0  0  0  0  0  0  0
   18.3276   -2.2429  -17.6242 C   0  0  0  0  0  0  0  0  0  0  0  0
   18.8265   -2.8879  -16.4984 C   0  0  0  0  0  0  0  0  0  0  0  0
   19.9041   -3.7436  -16.5653 C   0  0  0  0  0  0  0  0  0  0  0  0
   20.4272   -4.4275  -15.3555 C   0  0  0  0  0  0  0  0  0  0  0  0
   19.6342   -5.6824  -15.0229 C   0  0  2  0  0  0  0  0  0  0  0  0
   19.7293   -6.6797  -16.0675 N   0  0  0  0  0  0  0  0  0  0  0  0
   18.2188   -5.2634  -14.9198 C   0  0  0  0  0  0  0  0  0  0  0  0
   17.7641   -4.3467  -13.9836 O   0  0  0  0  0  0  0  0  0  0  0  0
   20.4746   -3.9378  -17.8040 C   0  0  0  0  0  0  0  0  0  0  0  0
   19.9814   -3.2965  -18.9341 C   0  0  0  0  0  0  0  0  0  0  0  0
   17.3734   -5.7478  -15.7068 O   0  0  0  0  0  0  0  0  0  0  0  0
  2  1  1  6
  3  2  1  0
  4  3  1  0
  4  5  2  0
  6  5  1  0
  7  6  1  0
  8  7  2  0
  9  8  1  0
 10  9  2  0
 10 11  1  0
 11 12  2  0
 12  7  1  0
 12  4  1  0
 13 20  1  0
 13  2  1  0
 14 13  2  0
 16 18  1  0
 16 15  1  0
 17 16  2  0
 19 18  1  1
 19 20  1  0
 21 22  2  0
 21 19  1  0
 23 24  1  0
 24 34  2  0
 24 25  1  0
 25 26  2  0
 26 27  1  0
 27 28  1  0
 29 28  1  6
 29 30  1  0
 30 21  1  0
 31 29  1  0
 31 32  1  0
 33 27  2  0
 34 33  1  0
 35 31  2  0
M  END
$$$$
