HIV.pdb
     RDKit          3D

 26 26  0  0  1  0  0  0  0  0999 V2000
   27.8082  -20.0204  -16.1956 N   0  0  0  0  0  0  0  0  0  0  0  0
   27.0301  -19.2198  -15.3055 C   0  0  1  0  0  0  0  0  0  0  0  0
   26.2928  -18.1361  -16.0909 C   0  0  0  0  0  0  0  0  0  0  0  0
   27.2718  -17.1599  -16.6564 C   0  0  0  0  0  0  0  0  0  0  0  0
   27.8689  -16.1074  -16.0157 C   0  0  0  0  0  0  0  0  0  0  0  0
   28.6789  -15.4984  -16.9113 N   0  0  0  0  0  0  0  0  0  0  0  0
   28.6076  -16.1314  -18.0814 C   0  0  0  0  0  0  0  0  0  0  0  0
   27.7412  -17.1474  -17.9090 N   0  0  0  0  0  0  0  0  0  0  0  0
   26.1044  -19.9849  -14.4656 C   0  0  0  0  0  0  0  0  0  0  0  0
   25.4314  -20.9113  -15.0224 O   0  0  0  0  0  0  0  0  0  0  0  0
   26.9543  -21.1485   -9.1727 C   0  0  0  0  0  0  0  0  0  0  0  0
   26.5226  -21.2872  -10.6109 C   0  0  0  0  0  0  0  0  0  0  0  0
   25.2207  -20.6188  -10.8977 C   0  0  2  0  0  0  0  0  0  0  0  0
   24.1294  -21.3716  -10.1674 C   0  0  0  0  0  0  0  0  0  0  0  0
   24.8843  -20.5448  -12.3735 C   0  0  2  0  0  0  0  0  0  0  0  0
   25.8934  -19.7855  -13.0950 N   0  0  0  0  0  0  0  0  0  0  0  0
   23.5265  -19.9951  -12.6284 C   0  0  0  0  0  0  0  0  0  0  0  0
   23.2093  -18.7903  -12.4957 O   0  0  0  0  0  0  0  0  0  0  0  0
   21.5212  -19.6302  -15.5656 C   0  0  0  0  0  0  0  0  0  0  0  0
   20.6540  -20.4771  -14.6629 C   0  0  1  0  0  0  0  0  0  0  0  0
   20.6841  -21.8878  -15.1708 C   0  0  0  0  0  0  0  0  0  0  0  0
   21.1187  -20.3789  -13.2228 C   0  0  2  0  0  0  0  0  0  0  0  0
   22.4667  -20.8713  -13.0603 N   0  0  0  0  0  0  0  0  0  0  0  0
   20.2167  -21.2177  -12.4180 C   0  0  0  0  0  0  0  0  0  0  0  0
   18.9884  -20.7381  -12.0177 O   0  0  0  0  0  0  0  0  0  0  0  0
   20.5586  -22.3686  -12.0932 O   0  0  0  0  0  0  0  0  0  0  0  0
  2  1  1  6
  2  3  1  0
  2  9  1  0
  3  4  1  0
  4  5  2  0
  6  5  1  0
  7  6  1  0
  8  7  2  0
  8  4  1  0
  9 10  2  0
 12 11  1  0
 13 12  1  0
 13 14  1  1
 15 13  1  0
 16  9  1  0
 15 16  1  6
 17 18  2  0
 17 15  1  0
 20 19  1  6
 20 21  1  0
 20 22  1  0
 22 23  1  6
 23 17  1  0
 24 22  1  0
 24 25  1  0
 26 24  2  0
M  END
$$$$
