HIV.pdb
     RDKit          3D

 26 26  0  0  1  0  0  0  0  0999 V2000
   17.5115  -10.9088  -17.8208 N   0  0  0  0  0  0  0  0  0  0  0  0
   18.5035   -9.9313  -18.1353 C   0  0  1  0  0  0  0  0  0  0  0  0
   17.8658   -8.7702  -18.8972 C   0  0  0  0  0  0  0  0  0  0  0  0
   17.4128   -9.2307  -20.2440 C   0  0  0  0  0  0  0  0  0  0  0  0
   18.1089   -9.1836  -21.4221 C   0  0  0  0  0  0  0  0  0  0  0  0
   17.3120   -9.7070  -22.3813 N   0  0  0  0  0  0  0  0  0  0  0  0
   16.1499  -10.0766  -21.8447 C   0  0  0  0  0  0  0  0  0  0  0  0
   16.2272   -9.7781  -20.5342 N   0  0  0  0  0  0  0  0  0  0  0  0
   19.2590   -9.4498  -16.9756 C   0  0  0  0  0  0  0  0  0  0  0  0
   18.6267   -9.3006  -15.8805 O   0  0  0  0  0  0  0  0  0  0  0  0
   23.2166  -12.0316  -15.0150 C   0  0  0  0  0  0  0  0  0  0  0  0
   22.0518  -11.1148  -15.2921 C   0  0  0  0  0  0  0  0  0  0  0  0
   22.4543   -9.6865  -15.4406 C   0  0  2  0  0  0  0  0  0  0  0  0
   23.1428   -9.2522  -14.1645 C   0  0  0  0  0  0  0  0  0  0  0  0
   21.2969   -8.7533  -15.7343 C   0  0  2  0  0  0  0  0  0  0  0  0
   20.6246   -9.1372  -16.9656 N   0  0  0  0  0  0  0  0  0  0  0  0
   21.7054   -7.3244  -15.7784 C   0  0  0  0  0  0  0  0  0  0  0  0
   22.3666   -6.8008  -16.7049 O   0  0  0  0  0  0  0  0  0  0  0  0
   20.2291   -4.1160  -16.3005 C   0  0  0  0  0  0  0  0  0  0  0  0
   20.7241   -4.0722  -14.8732 C   0  0  1  0  0  0  0  0  0  0  0  0
   19.5563   -4.3118  -13.9634 C   0  0  0  0  0  0  0  0  0  0  0  0
   21.8333   -5.0831  -14.6566 C   0  0  2  0  0  0  0  0  0  0  0  0
   21.3383   -6.4391  -14.7018 N   0  0  0  0  0  0  0  0  0  0  0  0
   22.3902   -4.8354  -13.3174 C   0  0  0  0  0  0  0  0  0  0  0  0
   23.2519   -3.7815  -13.1032 O   0  0  0  0  0  0  0  0  0  0  0  0
   22.0855   -5.5783  -12.3675 O   0  0  0  0  0  0  0  0  0  0  0  0
  2  1  1  1
  2  3  1  0
  2  9  1  0
  3  4  1  0
  4  5  2  0
  6  5  1  0
  7  6  1  0
  8  7  2  0
  8  4  1  0
  9 10  2  0
 12 11  1  0
 13 12  1  0
 13 14  1  1
 15 13  1  0
 16  9  1  0
 15 16  1  6
 17 18  2  0
 17 15  1  0
 20 19  1  6
 20 21  1  0
 20 22  1  0
 22 23  1  1
 23 17  1  0
 24 22  1  0
 24 25  1  0
 26 24  2  0
M  END
$$$$
