HIV.pdb
     RDKit          3D

 26 26  0  0  1  0  0  0  0  0999 V2000
   22.0690  -18.9946  -17.3052 N   0  0  0  0  0  0  0  0  0  0  0  0
   22.7096  -18.2988  -16.2356 C   0  0  1  0  0  0  0  0  0  0  0  0
   21.6811  -17.9243  -15.1694 C   0  0  0  0  0  0  0  0  0  0  0  0
   20.7276  -16.9111  -15.7131 C   0  0  0  0  0  0  0  0  0  0  0  0
   20.9483  -15.5737  -15.9062 C   0  0  0  0  0  0  0  0  0  0  0  0
   19.8115  -15.0480  -16.4162 N   0  0  0  0  0  0  0  0  0  0  0  0
   18.8950  -16.0062  -16.5470 C   0  0  0  0  0  0  0  0  0  0  0  0
   19.4718  -17.1422  -16.1118 N   0  0  0  0  0  0  0  0  0  0  0  0
   23.8424  -19.0181  -15.6465 C   0  0  0  0  0  0  0  0  0  0  0  0
   23.6320  -20.1974  -15.2151 O   0  0  0  0  0  0  0  0  0  0  0  0
   28.7921  -18.9373  -17.8102 C   0  0  0  0  0  0  0  0  0  0  0  0
   27.4876  -19.2683  -17.1298 C   0  0  0  0  0  0  0  0  0  0  0  0
   27.5263  -19.0527  -15.6547 C   0  0  2  0  0  0  0  0  0  0  0  0
   28.6079  -19.9380  -15.0736 C   0  0  0  0  0  0  0  0  0  0  0  0
   26.2099  -19.3399  -14.9608 C   0  0  2  0  0  0  0  0  0  0  0  0
   25.1449  -18.5191  -15.5153 N   0  0  0  0  0  0  0  0  0  0  0  0
   26.2888  -19.1773  -13.4850 C   0  0  0  0  0  0  0  0  0  0  0  0
   26.5131  -18.0931  -12.8987 O   0  0  0  0  0  0  0  0  0  0  0  0
   23.7136  -20.2473  -10.9136 C   0  0  0  0  0  0  0  0  0  0  0  0
   25.0265  -20.8650  -10.4909 C   0  0  1  0  0  0  0  0  0  0  0  0
   24.9698  -22.3349  -10.7826 C   0  0  0  0  0  0  0  0  0  0  0  0
   26.1897  -20.1887  -11.1903 C   0  0  2  0  0  0  0  0  0  0  0  0
   26.1006  -20.3193  -12.6259 N   0  0  0  0  0  0  0  0  0  0  0  0
   27.4179  -20.8605  -10.7373 C   0  0  0  0  0  0  0  0  0  0  0  0
   28.1491  -21.6402  -11.6069 O   0  0  0  0  0  0  0  0  0  0  0  0
   27.8048  -20.7280   -9.5626 O   0  0  0  0  0  0  0  0  0  0  0  0
  2  1  1  6
  2  3  1  0
  2  9  1  0
  3  4  1  0
  4  5  2  0
  6  5  1  0
  7  6  1  0
  8  7  2  0
  8  4  1  0
  9 10  2  0
 12 11  1  0
 13 12  1  0
 13 14  1  1
 15 13  1  0
 16  9  1  0
 15 16  1  6
 17 18  2  0
 17 15  1  0
 20 19  1  6
 20 21  1  0
 20 22  1  0
 22 23  1  6
 23 17  1  0
 24 22  1  0
 24 25  1  0
 26 24  2  0
M  END
$$$$
