HIV.pdb
     RDKit          3D

 26 26  0  0  1  0  0  0  0  0999 V2000
   20.8284  -13.5251  -17.8623 N   0  0  0  0  0  0  0  0  0  0  0  0
   20.9440  -12.1196  -18.0859 C   0  0  1  0  0  0  0  0  0  0  0  0
   19.6352  -11.5747  -18.6561 C   0  0  0  0  0  0  0  0  0  0  0  0
   19.3523  -12.2070  -19.9795 C   0  0  0  0  0  0  0  0  0  0  0  0
   18.3530  -13.0906  -20.2880 C   0  0  0  0  0  0  0  0  0  0  0  0
   18.4778  -13.3974  -21.5992 N   0  0  0  0  0  0  0  0  0  0  0  0
   19.5146  -12.7391  -22.1157 C   0  0  0  0  0  0  0  0  0  0  0  0
   20.0402  -12.0139  -21.1105 N   0  0  0  0  0  0  0  0  0  0  0  0
   21.3632  -11.3579  -16.9062 C   0  0  0  0  0  0  0  0  0  0  0  0
   20.7044  -11.5277  -15.8299 O   0  0  0  0  0  0  0  0  0  0  0  0
   26.5306  -10.2670  -15.4174 C   0  0  0  0  0  0  0  0  0  0  0  0
   25.2000   -9.8786  -16.0115 C   0  0  0  0  0  0  0  0  0  0  0  0
   24.0592  -10.0803  -15.0725 C   0  0  2  0  0  0  0  0  0  0  0  0
   24.0308  -11.5381  -14.6661 C   0  0  0  0  0  0  0  0  0  0  0  0
   22.7146   -9.6902  -15.6526 C   0  0  2  0  0  0  0  0  0  0  0  0
   22.4319  -10.4533  -16.8580 N   0  0  0  0  0  0  0  0  0  0  0  0
   22.6004   -8.2306  -15.9121 C   0  0  0  0  0  0  0  0  0  0  0  0
   22.9712   -7.6632  -16.9658 O   0  0  0  0  0  0  0  0  0  0  0  0
   20.4559   -3.9645  -15.3851 C   0  0  0  0  0  0  0  0  0  0  0  0
   20.5220   -5.4719  -15.2988 C   0  0  1  0  0  0  0  0  0  0  0  0
   19.8929   -6.0414  -16.5353 C   0  0  0  0  0  0  0  0  0  0  0  0
   21.9536   -5.9388  -15.1198 C   0  0  2  0  0  0  0  0  0  0  0  0
   22.0292   -7.3658  -14.9104 N   0  0  0  0  0  0  0  0  0  0  0  0
   22.4834   -5.2643  -13.9243 C   0  0  0  0  0  0  0  0  0  0  0  0
   22.9924   -3.9867  -14.0110 O   0  0  0  0  0  0  0  0  0  0  0  0
   22.4750   -5.8453  -12.8246 O   0  0  0  0  0  0  0  0  0  0  0  0
  2  1  1  1
  2  3  1  0
  2  9  1  0
  3  4  1  0
  4  5  2  0
  6  5  1  0
  7  6  1  0
  8  7  2  0
  8  4  1  0
  9 10  2  0
 12 11  1  0
 13 12  1  0
 13 14  1  6
 15 13  1  0
 16  9  1  0
 15 16  1  6
 17 18  2  0
 17 15  1  0
 20 19  1  6
 20 21  1  0
 20 22  1  0
 22 23  1  1
 23 17  1  0
 24 22  1  0
 24 25  1  0
 26 24  2  0
M  END
$$$$
