HIV.pdb
     RDKit          3D

 26 26  0  0  1  0  0  0  0  0999 V2000
   17.3546  -14.3265  -18.2398 N   0  0  0  0  0  0  0  0  0  0  0  0
   17.5046  -13.7024  -16.9644 C   0  0  1  0  0  0  0  0  0  0  0  0
   18.3120  -14.6073  -16.0347 C   0  0  0  0  0  0  0  0  0  0  0  0
   17.5314  -15.8407  -15.7178 C   0  0  0  0  0  0  0  0  0  0  0  0
   16.6713  -16.0405  -14.6714 C   0  0  0  0  0  0  0  0  0  0  0  0
   16.1921  -17.3006  -14.7796 N   0  0  0  0  0  0  0  0  0  0  0  0
   16.7208  -17.8896  -15.8514 C   0  0  0  0  0  0  0  0  0  0  0  0
   17.5395  -16.9819  -16.4157 N   0  0  0  0  0  0  0  0  0  0  0  0
   18.0797  -12.3557  -17.0204 C   0  0  0  0  0  0  0  0  0  0  0  0
   19.0684  -12.1687  -17.8006 O   0  0  0  0  0  0  0  0  0  0  0  0
   15.0321   -9.0529  -17.9110 C   0  0  0  0  0  0  0  0  0  0  0  0
   16.5350   -8.9878  -18.0160 C   0  0  0  0  0  0  0  0  0  0  0  0
   17.2095   -8.8756  -16.6907 C   0  0  2  0  0  0  0  0  0  0  0  0
   17.8513   -7.5078  -16.5988 C   0  0  0  0  0  0  0  0  0  0  0  0
   18.2565   -9.9436  -16.4461 C   0  0  2  0  0  0  0  0  0  0  0  0
   17.6345  -11.2486  -16.2862 N   0  0  0  0  0  0  0  0  0  0  0  0
   19.1377   -9.6328  -15.2895 C   0  0  0  0  0  0  0  0  0  0  0  0
   18.7815   -9.6813  -14.0893 O   0  0  0  0  0  0  0  0  0  0  0  0
   22.6450  -11.1241  -14.7264 C   0  0  0  0  0  0  0  0  0  0  0  0
   22.7591   -9.6207  -14.6229 C   0  0  1  0  0  0  0  0  0  0  0  0
   23.4235   -9.1131  -15.8678 C   0  0  0  0  0  0  0  0  0  0  0  0
   21.3970   -8.9909  -14.4054 C   0  0  2  0  0  0  0  0  0  0  0  0
   20.5071   -9.2433  -15.5145 N   0  0  0  0  0  0  0  0  0  0  0  0
   21.6035   -7.5382  -14.2957 C   0  0  0  0  0  0  0  0  0  0  0  0
   22.0096   -6.9784  -13.1038 O   0  0  0  0  0  0  0  0  0  0  0  0
   21.4122   -6.8044  -15.2816 O   0  0  0  0  0  0  0  0  0  0  0  0
  2  1  1  6
  2  3  1  0
  2  9  1  0
  3  4  1  0
  4  5  2  0
  6  5  1  0
  7  6  1  0
  8  7  2  0
  8  4  1  0
  9 10  2  0
 12 11  1  0
 13 12  1  0
 13 14  1  6
 15 13  1  0
 16  9  1  0
 15 16  1  1
 17 18  2  0
 17 15  1  0
 20 19  1  6
 20 21  1  0
 20 22  1  0
 22 23  1  6
 23 17  1  0
 24 22  1  0
 24 25  1  0
 26 24  2  0
M  END
$$$$
