HIV.pdb
     RDKit          3D

 26 26  0  0  1  0  0  0  0  0999 V2000
   19.1804  -15.6139  -16.7334 N   0  0  0  0  0  0  0  0  0  0  0  0
   19.6500  -14.4195  -17.3591 C   0  0  1  0  0  0  0  0  0  0  0  0
   18.4973  -13.7233  -18.0814 C   0  0  0  0  0  0  0  0  0  0  0  0
   17.9800  -14.5962  -19.1776 C   0  0  0  0  0  0  0  0  0  0  0  0
   18.3724  -14.6132  -20.4892 C   0  0  0  0  0  0  0  0  0  0  0  0
   17.6373  -15.5592  -21.1167 N   0  0  0  0  0  0  0  0  0  0  0  0
   16.8050  -16.1291  -20.2464 C   0  0  0  0  0  0  0  0  0  0  0  0
   17.0271  -15.5280  -19.0624 N   0  0  0  0  0  0  0  0  0  0  0  0
   20.3370  -13.4975  -16.4505 C   0  0  0  0  0  0  0  0  0  0  0  0
   19.8184  -13.3037  -15.3040 O   0  0  0  0  0  0  0  0  0  0  0  0
   25.2676  -14.0235  -14.9887 C   0  0  0  0  0  0  0  0  0  0  0  0
   23.8069  -13.6628  -15.0907 C   0  0  0  0  0  0  0  0  0  0  0  0
   23.5814  -12.2578  -15.5370 C   0  0  2  0  0  0  0  0  0  0  0  0
   24.1703  -11.3289  -14.4970 C   0  0  0  0  0  0  0  0  0  0  0  0
   22.1219  -11.9132  -15.7552 C   0  0  2  0  0  0  0  0  0  0  0  0
   21.5220  -12.8060  -16.7342 N   0  0  0  0  0  0  0  0  0  0  0  0
   21.9165  -10.4918  -16.1404 C   0  0  0  0  0  0  0  0  0  0  0  0
   22.3438   -9.9711  -17.1968 O   0  0  0  0  0  0  0  0  0  0  0  0
   19.3421   -6.4060  -16.0592 C   0  0  0  0  0  0  0  0  0  0  0  0
   19.5248   -7.8849  -15.8079 C   0  0  1  0  0  0  0  0  0  0  0  0
   18.9247   -8.6349  -16.9595 C   0  0  0  0  0  0  0  0  0  0  0  0
   20.9903   -8.2205  -15.6097 C   0  0  2  0  0  0  0  0  0  0  0  0
   21.1799   -9.6112  -15.2690 N   0  0  0  0  0  0  0  0  0  0  0  0
   21.4764   -7.3969  -14.4916 C   0  0  0  0  0  0  0  0  0  0  0  0
   22.0414   -6.1624  -14.7273 O   0  0  0  0  0  0  0  0  0  0  0  0
   21.3799   -7.8116  -13.3229 O   0  0  0  0  0  0  0  0  0  0  0  0
  2  1  1  1
  2  3  1  0
  2  9  1  0
  3  4  1  0
  4  5  2  0
  6  5  1  0
  7  6  1  0
  8  7  2  0
  8  4  1  0
  9 10  2  0
 12 11  1  0
 13 12  1  0
 13 14  1  1
 15 13  1  0
 16  9  1  0
 15 16  1  6
 17 18  2  0
 17 15  1  0
 20 19  1  6
 20 21  1  0
 20 22  1  0
 22 23  1  1
 23 17  1  0
 24 22  1  0
 24 25  1  0
 26 24  2  0
M  END
$$$$
