HIV.pdb
     RDKit          3D

 26 26  0  0  1  0  0  0  0  0999 V2000
   22.7862  -20.6164  -14.1656 N   0  0  0  0  0  0  0  0  0  0  0  0
   22.0138  -20.0735  -13.0945 C   0  0  1  0  0  0  0  0  0  0  0  0
   20.5839  -19.8117  -13.5655 C   0  0  0  0  0  0  0  0  0  0  0  0
   20.5882  -18.8260  -14.6878 C   0  0  0  0  0  0  0  0  0  0  0  0
   20.7073  -17.4646  -14.6050 C   0  0  0  0  0  0  0  0  0  0  0  0
   20.6606  -16.9792  -15.8665 N   0  0  0  0  0  0  0  0  0  0  0  0
   20.5173  -17.9856  -16.7278 C   0  0  0  0  0  0  0  0  0  0  0  0
   20.4746  -19.1108  -15.9899 N   0  0  0  0  0  0  0  0  0  0  0  0
   22.0272  -20.8856  -11.8747 C   0  0  0  0  0  0  0  0  0  0  0  0
   21.6714  -22.1041  -11.9736 O   0  0  0  0  0  0  0  0  0  0  0  0
   25.7845  -19.9164   -8.1810 C   0  0  0  0  0  0  0  0  0  0  0  0
   24.8719  -20.7662   -9.0290 C   0  0  0  0  0  0  0  0  0  0  0  0
   23.4972  -20.8907   -8.4647 C   0  0  2  0  0  0  0  0  0  0  0  0
   23.5453  -21.8656   -7.3078 C   0  0  0  0  0  0  0  0  0  0  0  0
   22.4629  -21.3512   -9.4722 C   0  0  2  0  0  0  0  0  0  0  0  0
   22.3994  -20.4363  -10.6010 N   0  0  0  0  0  0  0  0  0  0  0  0
   21.1169  -21.5422   -8.8701 C   0  0  0  0  0  0  0  0  0  0  0  0
   20.2969  -20.6204   -8.6516 O   0  0  0  0  0  0  0  0  0  0  0  0
   17.2522  -24.4320   -8.2159 C   0  0  0  0  0  0  0  0  0  0  0  0
   18.6311  -24.1795   -8.7805 C   0  0  1  0  0  0  0  0  0  0  0  0
   18.4883  -23.8361  -10.2333 C   0  0  0  0  0  0  0  0  0  0  0  0
   19.3399  -23.0876   -8.0028 C   0  0  2  0  0  0  0  0  0  0  0  0
   20.6792  -22.8631   -8.4946 N   0  0  0  0  0  0  0  0  0  0  0  0
   19.4268  -23.5377   -6.6047 C   0  0  0  0  0  0  0  0  0  0  0  0
   18.4638  -23.1685   -5.6908 O   0  0  0  0  0  0  0  0  0  0  0  0
   20.3734  -24.2566   -6.2381 O   0  0  0  0  0  0  0  0  0  0  0  0
  2  1  1  6
  2  3  1  0
  2  9  1  0
  3  4  1  0
  4  5  2  0
  6  5  1  0
  7  6  1  0
  8  7  2  0
  8  4  1  0
  9 10  2  0
 12 11  1  0
 13 12  1  0
 13 14  1  1
 15 13  1  0
 16  9  1  0
 15 16  1  6
 17 18  2  0
 17 15  1  0
 20 19  1  1
 20 21  1  0
 20 22  1  0
 22 23  1  6
 23 17  1  0
 24 22  1  0
 24 25  1  0
 26 24  2  0
M  END
$$$$
