HIV.pdb
     RDKit          3D

 26 26  0  0  1  0  0  0  0  0999 V2000
   27.7506  -18.6892  -17.1367 N   0  0  0  0  0  0  0  0  0  0  0  0
   27.2423  -18.2889  -15.8639 C   0  0  1  0  0  0  0  0  0  0  0  0
   26.1720  -17.2136  -16.0465 C   0  0  0  0  0  0  0  0  0  0  0  0
   26.8133  -15.9057  -16.3770 C   0  0  0  0  0  0  0  0  0  0  0  0
   27.3433  -15.5134  -17.5769 C   0  0  0  0  0  0  0  0  0  0  0  0
   27.8134  -14.2554  -17.4170 N   0  0  0  0  0  0  0  0  0  0  0  0
   27.5959  -13.8525  -16.1658 C   0  0  0  0  0  0  0  0  0  0  0  0
   26.9822  -14.8751  -15.5411 N   0  0  0  0  0  0  0  0  0  0  0  0
   26.7435  -19.3957  -15.0430 C   0  0  0  0  0  0  0  0  0  0  0  0
   26.0600  -20.2993  -15.6239 O   0  0  0  0  0  0  0  0  0  0  0  0
   29.2086  -21.3402  -10.5649 C   0  0  0  0  0  0  0  0  0  0  0  0
   28.4083  -21.2943  -11.8422 C   0  0  0  0  0  0  0  0  0  0  0  0
   26.9871  -20.8968  -11.6279 C   0  0  2  0  0  0  0  0  0  0  0  0
   26.2807  -22.0275  -10.9112 C   0  0  0  0  0  0  0  0  0  0  0  0
   26.2456  -20.5670  -12.9078 C   0  0  2  0  0  0  0  0  0  0  0  0
   26.9540  -19.5481  -13.6663 N   0  0  0  0  0  0  0  0  0  0  0  0
   24.8348  -20.1628  -12.6688 C   0  0  0  0  0  0  0  0  0  0  0  0
   24.4840  -19.1026  -12.1008 O   0  0  0  0  0  0  0  0  0  0  0  0
   22.3535  -19.3538  -15.1277 C   0  0  0  0  0  0  0  0  0  0  0  0
   21.7073  -20.4564  -14.3209 C   0  0  1  0  0  0  0  0  0  0  0  0
   21.7678  -21.7224  -15.1225 C   0  0  0  0  0  0  0  0  0  0  0  0
   22.3826  -20.6026  -12.9711 C   0  0  2  0  0  0  0  0  0  0  0  0
   23.7594  -21.0184  -13.1033 N   0  0  0  0  0  0  0  0  0  0  0  0
   21.6513  -21.6429  -12.2309 C   0  0  0  0  0  0  0  0  0  0  0  0
   20.4455  -21.3551  -11.6290 O   0  0  0  0  0  0  0  0  0  0  0  0
   22.1187  -22.7922  -12.1437 O   0  0  0  0  0  0  0  0  0  0  0  0
  2  1  1  6
  2  3  1  0
  2  9  1  0
  3  4  1  0
  4  5  2  0
  6  5  1  0
  7  6  1  0
  8  7  2  0
  8  4  1  0
  9 10  2  0
 12 11  1  0
 13 12  1  0
 13 14  1  6
 15 13  1  0
 16  9  1  0
 15 16  1  1
 17 18  2  0
 17 15  1  0
 20 19  1  6
 20 21  1  0
 20 22  1  0
 22 23  1  6
 23 17  1  0
 24 22  1  0
 24 25  1  0
 26 24  2  0
M  END
$$$$
