HIV.pdb
     RDKit          3D

 26 26  0  0  1  0  0  0  0  0999 V2000
   17.4676  -11.8835  -16.8424 N   0  0  0  0  0  0  0  0  0  0  0  0
   18.0547  -10.6173  -17.1439 C   0  0  1  0  0  0  0  0  0  0  0  0
   16.9593   -9.5701  -17.3402 C   0  0  0  0  0  0  0  0  0  0  0  0
   16.1524   -9.8964  -18.5540 C   0  0  0  0  0  0  0  0  0  0  0  0
   14.7917  -10.0162  -18.6467 C   0  0  0  0  0  0  0  0  0  0  0  0
   14.5012  -10.3204  -19.9321 N   0  0  0  0  0  0  0  0  0  0  0  0
   15.6277  -10.3939  -20.6397 C   0  0  0  0  0  0  0  0  0  0  0  0
   16.6308  -10.1316  -19.7809 N   0  0  0  0  0  0  0  0  0  0  0  0
   19.0451  -10.1673  -16.1620 C   0  0  0  0  0  0  0  0  0  0  0  0
   18.6903  -10.1330  -14.9397 O   0  0  0  0  0  0  0  0  0  0  0  0
   23.7369  -12.1040  -15.0703 C   0  0  0  0  0  0  0  0  0  0  0  0
   22.4109  -11.3858  -15.0819 C   0  0  0  0  0  0  0  0  0  0  0  0
   22.5388   -9.9266  -15.3615 C   0  0  2  0  0  0  0  0  0  0  0  0
   23.4046   -9.3106  -14.2835 C   0  0  0  0  0  0  0  0  0  0  0  0
   21.2114   -9.1979  -15.4227 C   0  0  2  0  0  0  0  0  0  0  0  0
   20.3567   -9.7688  -16.4517 N   0  0  0  0  0  0  0  0  0  0  0  0
   21.3669   -7.7321  -15.6180 C   0  0  0  0  0  0  0  0  0  0  0  0
   21.8273   -7.1962  -16.6527 O   0  0  0  0  0  0  0  0  0  0  0  0
   19.8957   -3.2048  -14.7240 C   0  0  0  0  0  0  0  0  0  0  0  0
   19.7403   -4.7055  -14.6358 C   0  0  1  0  0  0  0  0  0  0  0  0
   18.7892   -5.1432  -15.7094 C   0  0  0  0  0  0  0  0  0  0  0  0
   21.0865   -5.3940  -14.7503 C   0  0  2  0  0  0  0  0  0  0  0  0
   20.9741   -6.8227  -14.5710 N   0  0  0  0  0  0  0  0  0  0  0  0
   21.9409   -4.8564  -13.6799 C   0  0  0  0  0  0  0  0  0  0  0  0
   22.7323   -3.7513  -13.9065 O   0  0  0  0  0  0  0  0  0  0  0  0
   21.9540   -5.3981  -12.5604 O   0  0  0  0  0  0  0  0  0  0  0  0
  2  1  1  1
  2  3  1  0
  2  9  1  0
  3  4  1  0
  4  5  2  0
  6  5  1  0
  7  6  1  0
  8  7  2  0
  8  4  1  0
  9 10  2  0
 12 11  1  0
 13 12  1  0
 13 14  1  1
 15 13  1  0
 16  9  1  0
 15 16  1  6
 17 18  2  0
 17 15  1  0
 20 19  1  6
 20 21  1  0
 20 22  1  0
 22 23  1  1
 23 17  1  0
 24 22  1  0
 24 25  1  0
 26 24  2  0
M  END
$$$$
