HIV.pdb
     RDKit          3D

 26 26  0  0  1  0  0  0  0  0999 V2000
   26.6031  -20.4468  -15.8827 N   0  0  0  0  0  0  0  0  0  0  0  0
   27.2008  -21.0208  -14.7200 C   0  0  1  0  0  0  0  0  0  0  0  0
   28.7222  -20.9079  -14.8080 C   0  0  0  0  0  0  0  0  0  0  0  0
   29.2417  -21.8238  -15.8674 C   0  0  0  0  0  0  0  0  0  0  0  0
   29.5523  -21.5122  -17.1640 C   0  0  0  0  0  0  0  0  0  0  0  0
   29.9850  -22.6476  -17.7579 N   0  0  0  0  0  0  0  0  0  0  0  0
   29.9551  -23.6503  -16.8811 C   0  0  0  0  0  0  0  0  0  0  0  0
   29.4973  -23.1293  -15.7272 N   0  0  0  0  0  0  0  0  0  0  0  0
   26.7030  -20.4698  -13.4565 C   0  0  0  0  0  0  0  0  0  0  0  0
   26.9006  -19.2317  -13.2347 O   0  0  0  0  0  0  0  0  0  0  0  0
   21.8594  -19.9415  -12.6176 C   0  0  0  0  0  0  0  0  0  0  0  0
   23.3665  -19.9034  -12.5802 C   0  0  0  0  0  0  0  0  0  0  0  0
   23.9377  -20.5506  -11.3641 C   0  0  2  0  0  0  0  0  0  0  0  0
   23.3723  -19.8535  -10.1453 C   0  0  0  0  0  0  0  0  0  0  0  0
   25.4519  -20.5178  -11.3091 C   0  0  2  0  0  0  0  0  0  0  0  0
   26.0245  -21.1901  -12.4648 N   0  0  0  0  0  0  0  0  0  0  0  0
   25.9952  -21.0831  -10.0458 C   0  0  0  0  0  0  0  0  0  0  0  0
   25.9115  -22.2873   -9.7102 O   0  0  0  0  0  0  0  0  0  0  0  0
   29.3493  -19.6983   -7.9500 C   0  0  0  0  0  0  0  0  0  0  0  0
   28.0740  -19.7872   -7.1440 C   0  0  1  0  0  0  0  0  0  0  0  0
   27.5276  -18.4010   -6.9747 C   0  0  0  0  0  0  0  0  0  0  0  0
   27.0783  -20.7156   -7.8120 C   0  0  2  0  0  0  0  0  0  0  0  0
   26.6746  -20.2242   -9.1087 N   0  0  0  0  0  0  0  0  0  0  0  0
   25.8904  -20.7732   -6.9456 C   0  0  0  0  0  0  0  0  0  0  0  0
   25.9245  -21.4730   -5.7590 O   0  0  0  0  0  0  0  0  0  0  0  0
   24.8449  -20.1885   -7.2803 O   0  0  0  0  0  0  0  0  0  0  0  0
  2  1  1  6
  2  3  1  0
  2  9  1  0
  3  4  1  0
  4  5  2  0
  6  5  1  0
  7  6  1  0
  8  7  2  0
  8  4  1  0
  9 10  2  0
 12 11  1  0
 13 12  1  0
 13 14  1  1
 15 13  1  0
 16  9  1  0
 15 16  1  6
 17 18  2  0
 17 15  1  0
 20 19  1  6
 20 21  1  0
 20 22  1  0
 22 23  1  6
 23 17  1  0
 24 22  1  0
 24 25  1  0
 26 24  2  0
M  END
$$$$
