HIV.pdb
     RDKit          3D

 26 26  0  0  1  0  0  0  0  0999 V2000
   23.0473  -20.5819  -13.9615 N   0  0  0  0  0  0  0  0  0  0  0  0
   22.2580  -20.0167  -12.9146 C   0  0  1  0  0  0  0  0  0  0  0  0
   20.8435  -19.7395  -13.4218 C   0  0  0  0  0  0  0  0  0  0  0  0
   20.8797  -18.6978  -14.4918 C   0  0  0  0  0  0  0  0  0  0  0  0
   21.8991  -17.8309  -14.7811 C   0  0  0  0  0  0  0  0  0  0  0  0
   21.4962  -17.0698  -15.8240 N   0  0  0  0  0  0  0  0  0  0  0  0
   20.2677  -17.4306  -16.1924 C   0  0  0  0  0  0  0  0  0  0  0  0
   19.9037  -18.4294  -15.3664 N   0  0  0  0  0  0  0  0  0  0  0  0
   22.2310  -20.8160  -11.6865 C   0  0  0  0  0  0  0  0  0  0  0  0
   21.8953  -22.0401  -11.7869 O   0  0  0  0  0  0  0  0  0  0  0  0
   25.9612  -20.0099   -8.0375 C   0  0  0  0  0  0  0  0  0  0  0  0
   24.9954  -20.8680   -8.8155 C   0  0  0  0  0  0  0  0  0  0  0  0
   23.6116  -20.8414   -8.2603 C   0  0  2  0  0  0  0  0  0  0  0  0
   23.5620  -21.7678   -7.0642 C   0  0  0  0  0  0  0  0  0  0  0  0
   22.5453  -21.2458   -9.2585 C   0  0  2  0  0  0  0  0  0  0  0  0
   22.5440  -20.3488  -10.4034 N   0  0  0  0  0  0  0  0  0  0  0  0
   21.1905  -21.3307   -8.6519 C   0  0  0  0  0  0  0  0  0  0  0  0
   20.4231  -20.3549   -8.4830 O   0  0  0  0  0  0  0  0  0  0  0  0
   18.2966  -22.9803   -9.9532 C   0  0  0  0  0  0  0  0  0  0  0  0
   18.4740  -23.6054   -8.5888 C   0  0  1  0  0  0  0  0  0  0  0  0
   19.0636  -24.9721   -8.7712 C   0  0  0  0  0  0  0  0  0  0  0  0
   19.3340  -22.7266   -7.7014 C   0  0  2  0  0  0  0  0  0  0  0  0
   20.6797  -22.6045   -8.2114 N   0  0  0  0  0  0  0  0  0  0  0  0
   19.3937  -23.3711   -6.3800 C   0  0  0  0  0  0  0  0  0  0  0  0
   18.3078  -23.3294   -5.5328 O   0  0  0  0  0  0  0  0  0  0  0  0
   20.4284  -23.9594   -6.0188 O   0  0  0  0  0  0  0  0  0  0  0  0
  2  1  1  6
  2  3  1  0
  2  9  1  0
  3  4  1  0
  4  5  2  0
  6  5  1  0
  7  6  1  0
  8  7  2  0
  8  4  1  0
  9 10  2  0
 12 11  1  0
 13 12  1  0
 13 14  1  1
 15 13  1  0
 16  9  1  0
 15 16  1  6
 17 18  2  0
 17 15  1  0
 20 19  1  6
 20 21  1  0
 20 22  1  0
 22 23  1  6
 23 17  1  0
 24 22  1  0
 24 25  1  0
 26 24  2  0
M  END
$$$$
