WAE.pdb
     RDKit          3D

 29 30  0  0  1  0  0  0  0  0999 V2000
    6.2897  -18.3465   24.7150 N   0  0  0  0  0  0  0  0  0  0  0  0
    6.5853  -16.9632   24.3525 C   0  0  1  0  0  0  0  0  0  0  0  0
    7.3990  -16.3983   25.4803 C   0  0  0  0  0  0  0  0  0  0  0  0
    6.8315  -15.1350   26.0165 C   0  0  0  0  0  0  0  0  0  0  0  0
    5.6656  -15.0220   26.7582 C   0  0  0  0  0  0  0  0  0  0  0  0
    5.5193  -13.7152   27.0376 N   0  0  0  0  0  0  0  0  0  0  0  0
    6.5189  -13.0013   26.5185 C   0  0  0  0  0  0  0  0  0  0  0  0
    6.8379  -11.6432   26.5142 C   0  0  0  0  0  0  0  0  0  0  0  0
    7.9624  -11.1557   25.8837 C   0  0  0  0  0  0  0  0  0  0  0  0
    8.8141  -12.0237   25.2289 C   0  0  0  0  0  0  0  0  0  0  0  0
    8.4892  -13.3704   25.2384 C   0  0  0  0  0  0  0  0  0  0  0  0
    7.3628  -13.8661   25.8689 C   0  0  0  0  0  0  0  0  0  0  0  0
    7.2998  -16.8992   23.0524 C   0  0  0  0  0  0  0  0  0  0  0  0
    8.2636  -17.6600   22.7805 O   0  0  0  0  0  0  0  0  0  0  0  0
    7.2225  -14.5162   20.0778 C   0  0  0  0  0  0  0  0  0  0  0  0
    7.7565  -15.6737   20.8886 C   0  0  2  0  0  0  0  0  0  0  0  0
    6.9364  -15.9689   22.0291 N   0  0  0  0  0  0  0  0  0  0  0  0
    9.1733  -15.4168   21.2587 C   0  0  0  0  0  0  0  0  0  0  0  0
    9.4072  -14.6293   22.2087 O   0  0  0  0  0  0  0  0  0  0  0  0
   10.2539  -16.0310   20.5744 N   0  0  0  0  0  0  0  0  0  0  0  0
   11.5990  -16.1020   21.1589 C   0  0  1  0  0  0  0  0  0  0  0  0
   11.5746  -16.8537   22.4603 C   0  0  0  0  0  0  0  0  0  0  0  0
   12.9072  -17.1174   23.0650 C   0  0  0  0  0  0  0  0  0  0  0  0
   12.7356  -17.8947   24.3148 C   0  0  0  0  0  0  0  0  0  0  0  0
   12.3565  -19.0841   24.2418 O   0  0  0  0  0  0  0  0  0  0  0  0
   12.5167  -16.6361   20.1526 C   0  0  0  0  0  0  0  0  0  0  0  0
   12.1361  -17.2433   19.1247 O   0  0  0  0  0  0  0  0  0  0  0  0
   12.9753  -17.3686   25.5758 O   0  0  0  0  0  0  0  0  0  0  0  0
   13.8961  -16.4888   20.2967 O   0  0  0  0  0  0  0  0  0  0  0  0
  2  1  1  1
  2  3  1  0
  2 13  1  0
  3  4  1  0
  4 12  1  0
  5  6  1  0
  5  4  2  0
  6  7  1  0
  7 12  2  0
  7  8  1  0
  8  9  2  0
  9 10  1  0
 11 10  2  0
 12 11  1  0
 13 14  2  0
 16 15  1  1
 17 13  1  0
 17 16  1  0
 18 16  1  0
 18 19  2  0
 20 18  1  0
 21 20  1  0
 21 26  1  0
 21 22  1  1
 23 24  1  0
 23 22  1  0
 24 25  2  0
 26 27  2  0
 26 29  1  0
 28 24  1  0
M  END
$$$$
