WAE.pdb
     RDKit          3D

 29 30  0  0  1  0  0  0  0  0999 V2000
    6.2773  -17.4443   24.5423 N   0  0  0  0  0  0  0  0  0  0  0  0
    6.8388  -16.2022   24.0188 C   0  0  1  0  0  0  0  0  0  0  0  0
    7.9026  -15.7801   24.9900 C   0  0  0  0  0  0  0  0  0  0  0  0
    7.3791  -14.8931   26.0599 C   0  0  0  0  0  0  0  0  0  0  0  0
    6.8173  -15.3124   27.2561 C   0  0  0  0  0  0  0  0  0  0  0  0
    6.4788  -14.1977   27.9270 N   0  0  0  0  0  0  0  0  0  0  0  0
    6.7923  -13.1061   27.2281 C   0  0  0  0  0  0  0  0  0  0  0  0
    6.6572  -11.7370   27.4593 C   0  0  0  0  0  0  0  0  0  0  0  0
    7.0748  -10.7939   26.5450 C   0  0  0  0  0  0  0  0  0  0  0  0
    7.6482  -11.1970   25.3549 C   0  0  0  0  0  0  0  0  0  0  0  0
    7.7782  -12.5584   25.1341 C   0  0  0  0  0  0  0  0  0  0  0  0
    7.3614  -13.5098   26.0469 C   0  0  0  0  0  0  0  0  0  0  0  0
    7.3719  -16.4005   22.6472 C   0  0  0  0  0  0  0  0  0  0  0  0
    8.0032  -17.4372   22.3182 O   0  0  0  0  0  0  0  0  0  0  0  0
    7.6690  -14.2196   19.5355 C   0  0  0  0  0  0  0  0  0  0  0  0
    7.8655  -15.4803   20.3446 C   0  0  2  0  0  0  0  0  0  0  0  0
    7.2004  -15.4255   21.6154 N   0  0  0  0  0  0  0  0  0  0  0  0
    9.3174  -15.7724   20.4752 C   0  0  0  0  0  0  0  0  0  0  0  0
   10.0354  -14.9543   21.1018 O   0  0  0  0  0  0  0  0  0  0  0  0
    9.9046  -16.9372   19.9169 N   0  0  0  0  0  0  0  0  0  0  0  0
   11.3513  -17.1800   19.9801 C   0  0  1  0  0  0  0  0  0  0  0  0
   11.6668  -18.2578   20.9790 C   0  0  0  0  0  0  0  0  0  0  0  0
   11.4727  -17.8782   22.4036 C   0  0  0  0  0  0  0  0  0  0  0  0
   11.9230  -18.9890   23.2748 C   0  0  0  0  0  0  0  0  0  0  0  0
   11.2821  -20.0627   23.2683 O   0  0  0  0  0  0  0  0  0  0  0  0
   11.8414  -17.4295   18.6245 C   0  0  0  0  0  0  0  0  0  0  0  0
   11.2422  -18.1547   17.7967 O   0  0  0  0  0  0  0  0  0  0  0  0
   13.0295  -18.9013   24.1069 O   0  0  0  0  0  0  0  0  0  0  0  0
   13.0320  -16.8547   18.1803 O   0  0  0  0  0  0  0  0  0  0  0  0
  2  1  1  1
  2  3  1  0
  2 13  1  0
  3  4  1  0
  4 12  1  0
  5  6  1  0
  5  4  2  0
  6  7  1  0
  7 12  2  0
  7  8  1  0
  8  9  2  0
  9 10  1  0
 11 10  2  0
 12 11  1  0
 13 14  2  0
 16 15  1  1
 17 13  1  0
 17 16  1  0
 18 16  1  0
 18 19  2  0
 20 18  1  0
 21 20  1  0
 21 26  1  0
 21 22  1  1
 23 24  1  0
 23 22  1  0
 24 25  2  0
 26 27  2  0
 26 29  1  0
 28 24  1  0
M  END
$$$$
