WAE.pdb
     RDKit          3D

 29 30  0  0  1  0  0  0  0  0999 V2000
    6.4639  -17.1024   24.3908 N   0  0  0  0  0  0  0  0  0  0  0  0
    6.9692  -15.8563   23.8215 C   0  0  1  0  0  0  0  0  0  0  0  0
    8.1283  -15.4418   24.6805 C   0  0  0  0  0  0  0  0  0  0  0  0
    7.6992  -14.7537   25.9246 C   0  0  0  0  0  0  0  0  0  0  0  0
    7.4156  -15.3699   27.1338 C   0  0  0  0  0  0  0  0  0  0  0  0
    7.0679  -14.3902   27.9861 N   0  0  0  0  0  0  0  0  0  0  0  0
    7.1153  -13.1988   27.3888 C   0  0  0  0  0  0  0  0  0  0  0  0
    6.8565  -11.8942   27.8097 C   0  0  0  0  0  0  0  0  0  0  0  0
    6.9852  -10.8120   26.9660 C   0  0  0  0  0  0  0  0  0  0  0  0
    7.3822  -11.0042   25.6572 C   0  0  0  0  0  0  0  0  0  0  0  0
    7.6369  -12.3030   25.2482 C   0  0  0  0  0  0  0  0  0  0  0  0
    7.5097  -13.3932   26.0893 C   0  0  0  0  0  0  0  0  0  0  0  0
    7.3572  -16.0440   22.4005 C   0  0  0  0  0  0  0  0  0  0  0  0
    7.5403  -17.1840   21.9021 O   0  0  0  0  0  0  0  0  0  0  0  0
    7.9666  -13.7636   19.4044 C   0  0  0  0  0  0  0  0  0  0  0  0
    7.9937  -15.0752   20.1536 C   0  0  2  0  0  0  0  0  0  0  0  0
    7.5465  -14.9407   21.5109 N   0  0  0  0  0  0  0  0  0  0  0  0
    9.3485  -15.6801   20.0591 C   0  0  0  0  0  0  0  0  0  0  0  0
    9.7809  -15.9976   18.9235 O   0  0  0  0  0  0  0  0  0  0  0  0
   10.1547  -15.9049   21.2048 N   0  0  0  0  0  0  0  0  0  0  0  0
   11.5020  -16.4794   21.1016 C   0  0  1  0  0  0  0  0  0  0  0  0
   12.4966  -15.4319   20.6859 C   0  0  0  0  0  0  0  0  0  0  0  0
   12.9127  -15.4837   19.2593 C   0  0  0  0  0  0  0  0  0  0  0  0
   14.1296  -14.6594   19.0712 C   0  0  0  0  0  0  0  0  0  0  0  0
   14.4266  -14.2706   17.9204 O   0  0  0  0  0  0  0  0  0  0  0  0
   11.8132  -17.1656   22.3555 C   0  0  0  0  0  0  0  0  0  0  0  0
   11.6659  -16.6413   23.4840 O   0  0  0  0  0  0  0  0  0  0  0  0
   14.9668  -14.2914   20.1143 O   0  0  0  0  0  0  0  0  0  0  0  0
   12.3019  -18.4719   22.3505 O   0  0  0  0  0  0  0  0  0  0  0  0
  2  1  1  1
  2  3  1  0
  2 13  1  0
  3  4  1  0
  4 12  1  0
  5  6  1  0
  5  4  2  0
  6  7  1  0
  7 12  2  0
  7  8  1  0
  8  9  2  0
  9 10  1  0
 11 10  2  0
 12 11  1  0
 13 14  2  0
 16 15  1  1
 17 13  1  0
 17 16  1  0
 18 16  1  0
 18 19  2  0
 20 18  1  0
 21 20  1  0
 21 26  1  0
 21 22  1  1
 23 24  1  0
 23 22  1  0
 24 25  2  0
 26 27  2  0
 26 29  1  0
 28 24  1  0
M  END
$$$$
