WAE.pdb
     RDKit          3D

 29 30  0  0  1  0  0  0  0  0999 V2000
    6.7107  -17.3768   24.9707 N   0  0  0  0  0  0  0  0  0  0  0  0
    7.6097  -16.5358   24.1853 C   0  0  1  0  0  0  0  0  0  0  0  0
    8.5909  -15.9478   25.1573 C   0  0  0  0  0  0  0  0  0  0  0  0
    7.9573  -14.9894   26.0982 C   0  0  0  0  0  0  0  0  0  0  0  0
    7.5374  -15.2785   27.3875 C   0  0  0  0  0  0  0  0  0  0  0  0
    7.0250  -14.1390   27.8837 N   0  0  0  0  0  0  0  0  0  0  0  0
    7.0967  -13.1536   26.9881 C   0  0  0  0  0  0  0  0  0  0  0  0
    6.7169  -11.8113   26.9936 C   0  0  0  0  0  0  0  0  0  0  0  0
    6.9091  -10.9900   25.9036 C   0  0  0  0  0  0  0  0  0  0  0  0
    7.4954  -11.4932   24.7587 C   0  0  0  0  0  0  0  0  0  0  0  0
    7.8693  -12.8271   24.7625 C   0  0  0  0  0  0  0  0  0  0  0  0
    7.6793  -13.6565   25.8524 C   0  0  0  0  0  0  0  0  0  0  0  0
    8.2750  -17.3262   23.1187 C   0  0  0  0  0  0  0  0  0  0  0  0
    8.4301  -18.5711   23.2066 O   0  0  0  0  0  0  0  0  0  0  0  0
    9.4758  -16.6764   19.5775 C   0  0  0  0  0  0  0  0  0  0  0  0
    9.4350  -17.4484   20.8755 C   0  0  2  0  0  0  0  0  0  0  0  0
    8.7802  -16.7212   21.9256 N   0  0  0  0  0  0  0  0  0  0  0  0
   10.8092  -17.8741   21.2505 C   0  0  0  0  0  0  0  0  0  0  0  0
   11.4069  -18.6850   20.5005 O   0  0  0  0  0  0  0  0  0  0  0  0
   11.4541  -17.3934   22.4194 N   0  0  0  0  0  0  0  0  0  0  0  0
   12.7880  -17.8625   22.8150 C   0  0  1  0  0  0  0  0  0  0  0  0
   13.8578  -17.1103   22.0742 C   0  0  0  0  0  0  0  0  0  0  0  0
   13.9924  -15.6753   22.4397 C   0  0  0  0  0  0  0  0  0  0  0  0
   15.2632  -15.1449   21.8925 C   0  0  0  0  0  0  0  0  0  0  0  0
   16.2877  -15.1667   22.6091 O   0  0  0  0  0  0  0  0  0  0  0  0
   12.8883  -17.8059   24.2734 C   0  0  0  0  0  0  0  0  0  0  0  0
   12.0596  -17.2087   24.9993 O   0  0  0  0  0  0  0  0  0  0  0  0
   15.3793  -14.6195   20.6138 O   0  0  0  0  0  0  0  0  0  0  0  0
   13.9411  -18.4322   24.9400 O   0  0  0  0  0  0  0  0  0  0  0  0
  2  1  1  1
  2  3  1  0
  2 13  1  0
  3  4  1  0
  4 12  1  0
  5  6  1  0
  5  4  2  0
  6  7  1  0
  7 12  2  0
  7  8  1  0
  8  9  2  0
  9 10  1  0
 11 10  2  0
 12 11  1  0
 13 14  2  0
 16 15  1  6
 17 13  1  0
 17 16  1  0
 18 16  1  0
 18 19  2  0
 20 18  1  0
 21 20  1  0
 21 26  1  0
 21 22  1  6
 23 24  1  0
 23 22  1  0
 24 25  2  0
 26 27  2  0
 26 29  1  0
 28 24  1  0
M  END
$$$$
