WAE.pdb
     RDKit          3D

 29 30  0  0  1  0  0  0  0  0999 V2000
    7.4515  -17.1602   22.7742 N   0  0  0  0  0  0  0  0  0  0  0  0
    8.3039  -16.0234   22.4376 C   0  0  1  0  0  0  0  0  0  0  0  0
    7.4755  -14.7936   22.6716 C   0  0  0  0  0  0  0  0  0  0  0  0
    6.9335  -14.7249   24.0524 C   0  0  0  0  0  0  0  0  0  0  0  0
    6.3481  -15.7735   24.7453 C   0  0  0  0  0  0  0  0  0  0  0  0
    5.9991  -15.2849   25.9481 N   0  0  0  0  0  0  0  0  0  0  0  0
    6.3281  -13.9969   26.0539 C   0  0  0  0  0  0  0  0  0  0  0  0
    6.1913  -13.0428   27.0624 C   0  0  0  0  0  0  0  0  0  0  0  0
    6.6281  -11.7447   26.9084 C   0  0  0  0  0  0  0  0  0  0  0  0
    7.2233  -11.3557   25.7243 C   0  0  0  0  0  0  0  0  0  0  0  0
    7.3548  -12.3098   24.7286 C   0  0  0  0  0  0  0  0  0  0  0  0
    6.9188  -13.6137   24.8765 C   0  0  0  0  0  0  0  0  0  0  0  0
    9.5442  -16.0333   23.2539 C   0  0  0  0  0  0  0  0  0  0  0  0
   10.5405  -15.3221   22.9656 O   0  0  0  0  0  0  0  0  0  0  0  0
   10.7007  -17.5750   26.5255 C   0  0  0  0  0  0  0  0  0  0  0  0
   10.9138  -17.0175   25.1375 C   0  0  2  0  0  0  0  0  0  0  0  0
    9.6827  -16.8517   24.4183 N   0  0  0  0  0  0  0  0  0  0  0  0
   11.8924  -17.8610   24.4019 C   0  0  0  0  0  0  0  0  0  0  0  0
   11.6485  -18.1489   23.2040 O   0  0  0  0  0  0  0  0  0  0  0  0
   13.0797  -18.3428   25.0114 N   0  0  0  0  0  0  0  0  0  0  0  0
   14.2843  -18.6432   24.2274 C   0  0  1  0  0  0  0  0  0  0  0  0
   14.6104  -17.5085   23.2973 C   0  0  0  0  0  0  0  0  0  0  0  0
   15.3616  -17.8894   22.0718 C   0  0  0  0  0  0  0  0  0  0  0  0
   15.7032  -16.6687   21.3044 C   0  0  0  0  0  0  0  0  0  0  0  0
   15.1822  -16.4931   20.1813 O   0  0  0  0  0  0  0  0  0  0  0  0
   15.3580  -19.0172   25.1480 C   0  0  0  0  0  0  0  0  0  0  0  0
   15.8801  -20.1561   25.1728 O   0  0  0  0  0  0  0  0  0  0  0  0
   16.5796  -15.6992   21.7695 O   0  0  0  0  0  0  0  0  0  0  0  0
   15.8629  -18.0962   26.0656 O   0  0  0  0  0  0  0  0  0  0  0  0
  2  1  1  1
  2  3  1  0
  2 13  1  0
  3  4  1  0
  4 12  1  0
  5  6  1  0
  5  4  2  0
  6  7  1  0
  7 12  2  0
  7  8  1  0
  8  9  2  0
  9 10  1  0
 11 10  2  0
 12 11  1  0
 13 14  2  0
 16 15  1  1
 17 13  1  0
 17 16  1  0
 18 16  1  0
 18 19  2  0
 20 18  1  0
 21 20  1  0
 21 26  1  0
 21 22  1  1
 23 24  1  0
 23 22  1  0
 24 25  2  0
 26 27  2  0
 26 29  1  0
 28 24  1  0
M  END
$$$$
