WAE.pdb
     RDKit          3D

 29 30  0  0  1  0  0  0  0  0999 V2000
    6.7821  -17.3516   23.2578 N   0  0  0  0  0  0  0  0  0  0  0  0
    7.1278  -15.9543   23.0120 C   0  0  1  0  0  0  0  0  0  0  0  0
    8.1095  -15.5703   24.0807 C   0  0  0  0  0  0  0  0  0  0  0  0
    7.4473  -15.0468   25.3024 C   0  0  0  0  0  0  0  0  0  0  0  0
    6.8108  -15.8106   26.2687 C   0  0  0  0  0  0  0  0  0  0  0  0
    6.3534  -14.9482   27.1930 N   0  0  0  0  0  0  0  0  0  0  0  0
    6.6624  -13.6922   26.8683 C   0  0  0  0  0  0  0  0  0  0  0  0
    6.4303  -12.4532   27.4656 C   0  0  0  0  0  0  0  0  0  0  0  0
    6.8695  -11.2739   26.9034 C   0  0  0  0  0  0  0  0  0  0  0  0
    7.5639  -11.2982   25.7098 C   0  0  0  0  0  0  0  0  0  0  0  0
    7.7897  -12.5331   25.1240 C   0  0  0  0  0  0  0  0  0  0  0  0
    7.3518  -13.7199   25.6826 C   0  0  0  0  0  0  0  0  0  0  0  0
    7.6824  -15.7800   21.6457 C   0  0  0  0  0  0  0  0  0  0  0  0
    8.1387  -16.7451   20.9808 O   0  0  0  0  0  0  0  0  0  0  0  0
    8.0894  -12.8622   19.2194 C   0  0  0  0  0  0  0  0  0  0  0  0
    8.1742  -14.3079   19.6498 C   0  0  2  0  0  0  0  0  0  0  0  0
    7.7320  -14.5046   21.0012 N   0  0  0  0  0  0  0  0  0  0  0  0
    9.5513  -14.8200   19.4224 C   0  0  0  0  0  0  0  0  0  0  0  0
    9.9711  -14.8954   18.2411 O   0  0  0  0  0  0  0  0  0  0  0  0
   10.3924  -15.2206   20.4926 N   0  0  0  0  0  0  0  0  0  0  0  0
   11.7983  -15.5846   20.2766 C   0  0  1  0  0  0  0  0  0  0  0  0
   12.5381  -14.4683   19.5942 C   0  0  0  0  0  0  0  0  0  0  0  0
   14.0155  -14.6274   19.5395 C   0  0  0  0  0  0  0  0  0  0  0  0
   14.5542  -13.8375   18.4074 C   0  0  0  0  0  0  0  0  0  0  0  0
   14.0874  -14.0230   17.2624 O   0  0  0  0  0  0  0  0  0  0  0  0
   12.3691  -16.0165   21.5525 C   0  0  0  0  0  0  0  0  0  0  0  0
   13.5479  -16.4222   21.6789 O   0  0  0  0  0  0  0  0  0  0  0  0
   15.5599  -12.8928   18.5506 O   0  0  0  0  0  0  0  0  0  0  0  0
   11.6044  -15.9952   22.7187 O   0  0  0  0  0  0  0  0  0  0  0  0
  2  1  1  1
  2  3  1  0
  2 13  1  0
  3  4  1  0
  4 12  1  0
  5  6  1  0
  5  4  2  0
  6  7  1  0
  7 12  2  0
  7  8  1  0
  8  9  2  0
  9 10  1  0
 11 10  2  0
 12 11  1  0
 13 14  2  0
 16 15  1  1
 17 13  1  0
 17 16  1  0
 18 16  1  0
 18 19  2  0
 20 18  1  0
 21 20  1  0
 21 26  1  0
 21 22  1  1
 23 24  1  0
 23 22  1  0
 24 25  2  0
 26 27  2  0
 26 29  1  0
 28 24  1  0
M  END
$$$$
