WAE.pdb
     RDKit          3D

 29 30  0  0  1  0  0  0  0  0999 V2000
    6.4045  -17.0498   23.3004 N   0  0  0  0  0  0  0  0  0  0  0  0
    7.1278  -15.8383   22.9242 C   0  0  1  0  0  0  0  0  0  0  0  0
    8.1932  -15.6454   23.9639 C   0  0  0  0  0  0  0  0  0  0  0  0
    7.6699  -15.0296   25.2097 C   0  0  0  0  0  0  0  0  0  0  0  0
    7.1478  -15.7166   26.2949 C   0  0  0  0  0  0  0  0  0  0  0  0
    6.7937  -14.7860   27.1980 N   0  0  0  0  0  0  0  0  0  0  0  0
    7.0604  -13.5590   26.7488 C   0  0  0  0  0  0  0  0  0  0  0  0
    6.8924  -12.2780   27.2749 C   0  0  0  0  0  0  0  0  0  0  0  0
    7.2622  -11.1458   26.5814 C   0  0  0  0  0  0  0  0  0  0  0  0
    7.8191  -11.2618   25.3228 C   0  0  0  0  0  0  0  0  0  0  0  0
    7.9820  -12.5377   24.8086 C   0  0  0  0  0  0  0  0  0  0  0  0
    7.6132  -13.6777   25.4988 C   0  0  0  0  0  0  0  0  0  0  0  0
    7.6895  -15.9624   21.5552 C   0  0  0  0  0  0  0  0  0  0  0  0
    7.9717  -17.0772   21.0464 O   0  0  0  0  0  0  0  0  0  0  0  0
    8.5901  -13.5469   18.7417 C   0  0  0  0  0  0  0  0  0  0  0  0
    8.5055  -14.8983   19.4118 C   0  0  2  0  0  0  0  0  0  0  0  0
    7.9442  -14.8222   20.7307 N   0  0  0  0  0  0  0  0  0  0  0  0
    9.8418  -15.5498   19.3996 C   0  0  0  0  0  0  0  0  0  0  0  0
   10.1888  -16.1778   18.3688 O   0  0  0  0  0  0  0  0  0  0  0  0
   10.7236  -15.4809   20.5091 N   0  0  0  0  0  0  0  0  0  0  0  0
   11.9699  -16.2557   20.5556 C   0  0  1  0  0  0  0  0  0  0  0  0
   13.0476  -15.5782   19.7564 C   0  0  0  0  0  0  0  0  0  0  0  0
   12.8599  -14.1177   19.5493 C   0  0  0  0  0  0  0  0  0  0  0  0
   13.9838  -13.5863   18.7430 C   0  0  0  0  0  0  0  0  0  0  0  0
   14.9165  -14.3550   18.4224 O   0  0  0  0  0  0  0  0  0  0  0  0
   12.3066  -16.5131   21.9558 C   0  0  0  0  0  0  0  0  0  0  0  0
   13.2864  -17.2075   22.3134 O   0  0  0  0  0  0  0  0  0  0  0  0
   14.0583  -12.2673   18.3198 O   0  0  0  0  0  0  0  0  0  0  0  0
   11.5294  -15.9816   22.9848 O   0  0  0  0  0  0  0  0  0  0  0  0
  2  1  1  1
  2  3  1  0
  2 13  1  0
  3  4  1  0
  4 12  1  0
  5  6  1  0
  5  4  2  0
  6  7  1  0
  7 12  2  0
  7  8  1  0
  8  9  2  0
  9 10  1  0
 11 10  2  0
 12 11  1  0
 13 14  2  0
 16 15  1  1
 17 13  1  0
 17 16  1  0
 18 16  1  0
 18 19  2  0
 20 18  1  0
 21 20  1  0
 21 26  1  0
 21 22  1  1
 23 24  1  0
 23 22  1  0
 24 25  2  0
 26 27  2  0
 26 29  1  0
 28 24  1  0
M  END
$$$$
