WAE.pdb
     RDKit          3D

 29 30  0  0  1  0  0  0  0  0999 V2000
    8.2049  -16.6337   26.1884 N   0  0  0  0  0  0  0  0  0  0  0  0
    7.1201  -17.3564   25.5304 C   0  0  1  0  0  0  0  0  0  0  0  0
    6.1318  -16.3174   25.0867 C   0  0  0  0  0  0  0  0  0  0  0  0
    6.7732  -15.0135   24.7808 C   0  0  0  0  0  0  0  0  0  0  0  0
    7.5082  -14.7203   23.6424 C   0  0  0  0  0  0  0  0  0  0  0  0
    7.9044  -13.4416   23.7659 N   0  0  0  0  0  0  0  0  0  0  0  0
    7.4648  -12.9140   24.9090 C   0  0  0  0  0  0  0  0  0  0  0  0
    7.5908  -11.6604   25.5079 C   0  0  0  0  0  0  0  0  0  0  0  0
    7.0226  -11.3705   26.7297 C   0  0  0  0  0  0  0  0  0  0  0  0
    6.3008  -12.3393   27.3993 C   0  0  0  0  0  0  0  0  0  0  0  0
    6.1811  -13.5810   26.7970 C   0  0  0  0  0  0  0  0  0  0  0  0
    6.7486  -13.8785   25.5715 C   0  0  0  0  0  0  0  0  0  0  0  0
    7.6360  -18.1663   24.3977 C   0  0  0  0  0  0  0  0  0  0  0  0
    6.8701  -18.7685   23.6025 O   0  0  0  0  0  0  0  0  0  0  0  0
    9.0758  -18.7105   21.7244 C   0  0  0  0  0  0  0  0  0  0  0  0
    9.5748  -19.1253   23.0887 C   0  0  2  0  0  0  0  0  0  0  0  0
    9.0351  -18.3116   24.1408 N   0  0  0  0  0  0  0  0  0  0  0  0
   11.0614  -19.1490   23.0944 C   0  0  0  0  0  0  0  0  0  0  0  0
   11.6486  -19.8767   22.2559 O   0  0  0  0  0  0  0  0  0  0  0  0
   11.8235  -18.3800   24.0115 N   0  0  0  0  0  0  0  0  0  0  0  0
   13.2895  -18.4518   24.0497 C   0  0  1  0  0  0  0  0  0  0  0  0
   13.8986  -17.2403   23.4013 C   0  0  0  0  0  0  0  0  0  0  0  0
   15.3746  -17.1229   23.5381 C   0  0  0  0  0  0  0  0  0  0  0  0
   15.8396  -15.9075   22.8294 C   0  0  0  0  0  0  0  0  0  0  0  0
   16.4378  -15.0201   23.4761 O   0  0  0  0  0  0  0  0  0  0  0  0
   13.7084  -18.6913   25.4307 C   0  0  0  0  0  0  0  0  0  0  0  0
   14.8834  -18.9817   25.7549 O   0  0  0  0  0  0  0  0  0  0  0  0
   15.6451  -15.6983   21.4718 O   0  0  0  0  0  0  0  0  0  0  0  0
   12.7919  -18.6045   26.4785 O   0  0  0  0  0  0  0  0  0  0  0  0
  2  1  1  6
  2  3  1  0
  2 13  1  0
  3  4  1  0
  4 12  1  0
  5  6  1  0
  5  4  2  0
  6  7  1  0
  7 12  2  0
  7  8  1  0
  8  9  2  0
  9 10  1  0
 11 10  2  0
 12 11  1  0
 13 14  2  0
 16 15  1  6
 17 13  1  0
 17 16  1  0
 18 16  1  0
 18 19  2  0
 20 18  1  0
 21 20  1  0
 21 26  1  0
 21 22  1  1
 23 24  1  0
 23 22  1  0
 24 25  2  0
 26 27  2  0
 26 29  1  0
 28 24  1  0
M  END
$$$$
