WAE.pdb
     RDKit          3D

 29 30  0  0  1  0  0  0  0  0999 V2000
    8.6997  -15.9239   23.5826 N   0  0  0  0  0  0  0  0  0  0  0  0
    9.1685  -16.5087   24.8357 C   0  0  1  0  0  0  0  0  0  0  0  0
    7.9592  -16.6429   25.7148 C   0  0  0  0  0  0  0  0  0  0  0  0
    7.2333  -15.3589   25.8866 C   0  0  0  0  0  0  0  0  0  0  0  0
    5.8563  -15.2097   25.9497 C   0  0  0  0  0  0  0  0  0  0  0  0
    5.6244  -13.8949   26.1077 N   0  0  0  0  0  0  0  0  0  0  0  0
    6.7679  -13.2099   26.1478 C   0  0  0  0  0  0  0  0  0  0  0  0
    7.0818  -11.8582   26.2905 C   0  0  0  0  0  0  0  0  0  0  0  0
    8.3831  -11.4041   26.2980 C   0  0  0  0  0  0  0  0  0  0  0  0
    9.4248  -12.3006   26.1610 C   0  0  0  0  0  0  0  0  0  0  0  0
    9.1035  -13.6407   26.0198 C   0  0  0  0  0  0  0  0  0  0  0  0
    7.8003  -14.1031   26.0114 C   0  0  0  0  0  0  0  0  0  0  0  0
    9.8382  -17.8115   24.5926 C   0  0  0  0  0  0  0  0  0  0  0  0
   10.0907  -18.6180   25.5239 O   0  0  0  0  0  0  0  0  0  0  0  0
   10.5310  -19.9820   21.5983 C   0  0  0  0  0  0  0  0  0  0  0  0
   10.8323  -19.5048   22.9997 C   0  0  2  0  0  0  0  0  0  0  0  0
   10.2371  -18.2301   23.2848 N   0  0  0  0  0  0  0  0  0  0  0  0
   12.3014  -19.5096   23.2274 C   0  0  0  0  0  0  0  0  0  0  0  0
   12.9308  -20.5788   23.0323 O   0  0  0  0  0  0  0  0  0  0  0  0
   13.0013  -18.3514   23.6541 N   0  0  0  0  0  0  0  0  0  0  0  0
   14.4544  -18.3600   23.8651 C   0  0  1  0  0  0  0  0  0  0  0  0
   15.0753  -17.0951   23.3420 C   0  0  0  0  0  0  0  0  0  0  0  0
   14.6152  -16.6742   21.9921 C   0  0  0  0  0  0  0  0  0  0  0  0
   15.2967  -15.4152   21.6100 C   0  0  0  0  0  0  0  0  0  0  0  0
   16.0897  -14.8854   22.4188 O   0  0  0  0  0  0  0  0  0  0  0  0
   14.7187  -18.6420   25.2760 C   0  0  0  0  0  0  0  0  0  0  0  0
   15.8487  -18.9566   25.7168 O   0  0  0  0  0  0  0  0  0  0  0  0
   15.1005  -14.7851   20.3898 O   0  0  0  0  0  0  0  0  0  0  0  0
   13.6950  -18.5713   26.2206 O   0  0  0  0  0  0  0  0  0  0  0  0
  2  1  1  6
  2  3  1  0
  2 13  1  0
  3  4  1  0
  4 12  1  0
  5  6  1  0
  5  4  2  0
  6  7  1  0
  7 12  2  0
  7  8  1  0
  8  9  2  0
  9 10  1  0
 11 10  2  0
 12 11  1  0
 13 14  2  0
 16 15  1  6
 17 13  1  0
 17 16  1  0
 18 16  1  0
 18 19  2  0
 20 18  1  0
 21 20  1  0
 21 26  1  0
 21 22  1  1
 23 24  1  0
 23 22  1  0
 24 25  2  0
 26 27  2  0
 26 29  1  0
 28 24  1  0
M  END
$$$$
