WAE.pdb
     RDKit          3D

 29 30  0  0  1  0  0  0  0  0999 V2000
    6.6199  -17.3914   23.9806 N   0  0  0  0  0  0  0  0  0  0  0  0
    7.8082  -16.6494   23.5687 C   0  0  1  0  0  0  0  0  0  0  0  0
    8.3539  -16.0073   24.8110 C   0  0  0  0  0  0  0  0  0  0  0  0
    7.3964  -15.0552   25.4290 C   0  0  0  0  0  0  0  0  0  0  0  0
    6.1982  -15.3937   26.0390 C   0  0  0  0  0  0  0  0  0  0  0  0
    5.6475  -14.2412   26.4581 N   0  0  0  0  0  0  0  0  0  0  0  0
    6.4236  -13.2014   26.1501 C   0  0  0  0  0  0  0  0  0  0  0  0
    6.3214  -11.8246   26.3499 C   0  0  0  0  0  0  0  0  0  0  0  0
    7.2923  -10.9466   25.9187 C   0  0  0  0  0  0  0  0  0  0  0  0
    8.4109  -11.4255   25.2651 C   0  0  0  0  0  0  0  0  0  0  0  0
    8.5038  -12.7940   25.0712 C   0  0  0  0  0  0  0  0  0  0  0  0
    7.5334  -13.6804   25.5012 C   0  0  0  0  0  0  0  0  0  0  0  0
    8.7936  -17.5496   22.9179 C   0  0  0  0  0  0  0  0  0  0  0  0
    8.9913  -18.7255   23.3174 O   0  0  0  0  0  0  0  0  0  0  0  0
   10.8259  -17.4623   19.7142 C   0  0  0  0  0  0  0  0  0  0  0  0
   10.4674  -18.0038   21.0782 C   0  0  2  0  0  0  0  0  0  0  0  0
    9.5785  -17.1355   21.7967 N   0  0  0  0  0  0  0  0  0  0  0  0
   11.7074  -18.3049   21.8412 C   0  0  0  0  0  0  0  0  0  0  0  0
   12.4910  -19.1741   21.3851 O   0  0  0  0  0  0  0  0  0  0  0  0
   12.0237  -17.6436   23.0560 N   0  0  0  0  0  0  0  0  0  0  0  0
   13.2383  -17.9630   23.8167 C   0  0  1  0  0  0  0  0  0  0  0  0
   14.4184  -17.2038   23.2783 C   0  0  0  0  0  0  0  0  0  0  0  0
   14.2507  -15.7273   23.2233 C   0  0  0  0  0  0  0  0  0  0  0  0
   15.5254  -15.1024   22.7987 C   0  0  0  0  0  0  0  0  0  0  0  0
   15.7691  -14.9922   21.5772 O   0  0  0  0  0  0  0  0  0  0  0  0
   12.9653  -17.7557   25.2389 C   0  0  0  0  0  0  0  0  0  0  0  0
   11.9165  -17.2220   25.6695 O   0  0  0  0  0  0  0  0  0  0  0  0
   16.4738  -14.6277   23.6929 O   0  0  0  0  0  0  0  0  0  0  0  0
   13.8869  -18.1543   26.2069 O   0  0  0  0  0  0  0  0  0  0  0  0
  2  1  1  1
  2  3  1  0
  2 13  1  0
  3  4  1  0
  4 12  1  0
  5  6  1  0
  5  4  2  0
  6  7  1  0
  7 12  2  0
  7  8  1  0
  8  9  2  0
  9 10  1  0
 11 10  2  0
 12 11  1  0
 13 14  2  0
 16 15  1  6
 17 13  1  0
 17 16  1  0
 18 16  1  0
 18 19  2  0
 20 18  1  0
 21 20  1  0
 21 26  1  0
 21 22  1  6
 23 24  1  0
 23 22  1  0
 24 25  2  0
 26 27  2  0
 26 29  1  0
 28 24  1  0
M  END
$$$$
