WAE.pdb
     RDKit          3D

 29 30  0  0  1  0  0  0  0  0999 V2000
    7.2762  -17.4846   25.4508 N   0  0  0  0  0  0  0  0  0  0  0  0
    7.2666  -16.2735   24.6352 C   0  0  1  0  0  0  0  0  0  0  0  0
    8.3357  -15.3812   25.1956 C   0  0  0  0  0  0  0  0  0  0  0  0
    7.9087  -14.6903   26.4388 C   0  0  0  0  0  0  0  0  0  0  0  0
    8.0524  -15.1807   27.7276 C   0  0  0  0  0  0  0  0  0  0  0  0
    7.5379  -14.2479   28.5476 N   0  0  0  0  0  0  0  0  0  0  0  0
    7.0807  -13.2037   27.8555 C   0  0  0  0  0  0  0  0  0  0  0  0
    6.4680  -12.0014   28.2093 C   0  0  0  0  0  0  0  0  0  0  0  0
    6.0828  -11.0699   27.2695 C   0  0  0  0  0  0  0  0  0  0  0  0
    6.3016  -11.3158   25.9281 C   0  0  0  0  0  0  0  0  0  0  0  0
    6.9105  -12.5121   25.5862 C   0  0  0  0  0  0  0  0  0  0  0  0
    7.2994  -13.4511   26.5239 C   0  0  0  0  0  0  0  0  0  0  0  0
    7.4941  -16.5987   23.2043 C   0  0  0  0  0  0  0  0  0  0  0  0
    8.2261  -17.5557   22.8440 O   0  0  0  0  0  0  0  0  0  0  0  0
    6.9025  -14.5239   20.0845 C   0  0  0  0  0  0  0  0  0  0  0  0
    7.4709  -15.7020   20.8404 C   0  0  2  0  0  0  0  0  0  0  0  0
    6.8951  -15.8442   22.1476 N   0  0  0  0  0  0  0  0  0  0  0  0
    8.9539  -15.6054   20.8802 C   0  0  0  0  0  0  0  0  0  0  0  0
    9.4733  -14.7031   21.5826 O   0  0  0  0  0  0  0  0  0  0  0  0
    9.7865  -16.4956   20.1539 N   0  0  0  0  0  0  0  0  0  0  0  0
   11.2314  -16.5788   20.4016 C   0  0  1  0  0  0  0  0  0  0  0  0
   11.5053  -16.9651   21.8281 C   0  0  0  0  0  0  0  0  0  0  0  0
   12.9387  -17.1735   22.1642 C   0  0  0  0  0  0  0  0  0  0  0  0
   13.0634  -17.5092   23.6021 C   0  0  0  0  0  0  0  0  0  0  0  0
   14.1708  -17.8881   24.0423 O   0  0  0  0  0  0  0  0  0  0  0  0
   11.8265  -17.4596   19.3965 C   0  0  0  0  0  0  0  0  0  0  0  0
   11.1799  -18.3373   18.7786 O   0  0  0  0  0  0  0  0  0  0  0  0
   12.0063  -17.4251   24.4965 O   0  0  0  0  0  0  0  0  0  0  0  0
   13.1791  -17.3588   19.0720 O   0  0  0  0  0  0  0  0  0  0  0  0
  2  1  1  1
  2  3  1  0
  2 13  1  0
  3  4  1  0
  4 12  1  0
  5  6  1  0
  5  4  2  0
  6  7  1  0
  7 12  2  0
  7  8  1  0
  8  9  2  0
  9 10  1  0
 11 10  2  0
 12 11  1  0
 13 14  2  0
 16 15  1  1
 17 13  1  0
 17 16  1  0
 18 16  1  0
 18 19  2  0
 20 18  1  0
 21 20  1  0
 21 26  1  0
 21 22  1  1
 23 24  1  0
 23 22  1  0
 24 25  2  0
 26 27  2  0
 26 29  1  0
 28 24  1  0
M  END
$$$$
