WAE.pdb
     RDKit          3D

 29 30  0  0  1  0  0  0  0  0999 V2000
    7.1808  -17.6260   24.2156 N   0  0  0  0  0  0  0  0  0  0  0  0
    8.0847  -16.5648   23.7807 C   0  0  1  0  0  0  0  0  0  0  0  0
    8.5007  -15.8322   25.0230 C   0  0  0  0  0  0  0  0  0  0  0  0
    7.4130  -14.9876   25.5787 C   0  0  0  0  0  0  0  0  0  0  0  0
    6.2162  -15.4509   26.1034 C   0  0  0  0  0  0  0  0  0  0  0  0
    5.5257  -14.3640   26.4895 N   0  0  0  0  0  0  0  0  0  0  0  0
    6.2128  -13.2486   26.2406 C   0  0  0  0  0  0  0  0  0  0  0  0
    5.9598  -11.8913   26.4397 C   0  0  0  0  0  0  0  0  0  0  0  0
    6.8648  -10.9158   26.0804 C   0  0  0  0  0  0  0  0  0  0  0  0
    8.0674  -11.2732   25.5027 C   0  0  0  0  0  0  0  0  0  0  0  0
    8.3099  -12.6232   25.3088 C   0  0  0  0  0  0  0  0  0  0  0  0
    7.4064  -13.6069   25.6669 C   0  0  0  0  0  0  0  0  0  0  0  0
    9.2430  -17.1279   23.0417 C   0  0  0  0  0  0  0  0  0  0  0  0
    9.8988  -18.1102   23.4736 O   0  0  0  0  0  0  0  0  0  0  0  0
   11.0163  -16.4073   19.7454 C   0  0  0  0  0  0  0  0  0  0  0  0
   10.9028  -16.9761   21.1404 C   0  0  2  0  0  0  0  0  0  0  0  0
    9.6846  -16.5884   21.7932 N   0  0  0  0  0  0  0  0  0  0  0  0
   12.1100  -16.6159   21.9298 C   0  0  0  0  0  0  0  0  0  0  0  0
   12.3943  -15.3997   22.0616 O   0  0  0  0  0  0  0  0  0  0  0  0
   12.9383  -17.5990   22.5303 N   0  0  0  0  0  0  0  0  0  0  0  0
   14.0955  -17.2348   23.3574 C   0  0  1  0  0  0  0  0  0  0  0  0
   14.3046  -18.2423   24.4530 C   0  0  0  0  0  0  0  0  0  0  0  0
   13.2036  -18.3342   25.4482 C   0  0  0  0  0  0  0  0  0  0  0  0
   13.5057  -19.4125   26.4186 C   0  0  0  0  0  0  0  0  0  0  0  0
   14.5280  -20.1122   26.2485 O   0  0  0  0  0  0  0  0  0  0  0  0
   15.2476  -17.0256   22.4805 C   0  0  0  0  0  0  0  0  0  0  0  0
   15.2732  -17.3797   21.2787 O   0  0  0  0  0  0  0  0  0  0  0  0
   12.7068  -19.6912   27.5179 O   0  0  0  0  0  0  0  0  0  0  0  0
   16.4021  -16.4048   22.9568 O   0  0  0  0  0  0  0  0  0  0  0  0
  2  1  1  1
  2  3  1  0
  2 13  1  0
  3  4  1  0
  4 12  1  0
  5  6  1  0
  5  4  2  0
  6  7  1  0
  7 12  2  0
  7  8  1  0
  8  9  2  0
  9 10  1  0
 11 10  2  0
 12 11  1  0
 13 14  2  0
 16 15  1  6
 17 13  1  0
 17 16  1  0
 18 16  1  0
 18 19  2  0
 20 18  1  0
 21 20  1  0
 21 26  1  0
 21 22  1  1
 23 24  1  0
 23 22  1  0
 24 25  2  0
 26 27  2  0
 26 29  1  0
 28 24  1  0
M  END
$$$$
