WAE.pdb
     RDKit          3D

 29 30  0  0  1  0  0  0  0  0999 V2000
    9.0636  -16.6459   24.9988 N   0  0  0  0  0  0  0  0  0  0  0  0
    7.6413  -16.9763   24.9863 C   0  0  1  0  0  0  0  0  0  0  0  0
    7.1210  -16.6443   26.3546 C   0  0  0  0  0  0  0  0  0  0  0  0
    8.2091  -16.4027   27.3358 C   0  0  0  0  0  0  0  0  0  0  0  0
    8.9254  -17.3814   28.0075 C   0  0  0  0  0  0  0  0  0  0  0  0
    9.8056  -16.7356   28.7921 N   0  0  0  0  0  0  0  0  0  0  0  0
    9.6872  -15.4144   28.6554 C   0  0  0  0  0  0  0  0  0  0  0  0
   10.3391  -14.3203   29.2245 C   0  0  0  0  0  0  0  0  0  0  0  0
   10.0120  -13.0213   28.9001 C   0  0  0  0  0  0  0  0  0  0  0  0
    9.0088  -12.7734   27.9838 C   0  0  0  0  0  0  0  0  0  0  0  0
    8.3670  -13.8660   27.4240 C   0  0  0  0  0  0  0  0  0  0  0  0
    8.6901  -15.1716   27.7449 C   0  0  0  0  0  0  0  0  0  0  0  0
    6.9347  -16.2280   23.9158 C   0  0  0  0  0  0  0  0  0  0  0  0
    5.7563  -16.5029   23.5735 O   0  0  0  0  0  0  0  0  0  0  0  0
    7.3899  -13.6054   21.3127 C   0  0  0  0  0  0  0  0  0  0  0  0
    7.5604  -15.0328   21.7775 C   0  0  2  0  0  0  0  0  0  0  0  0
    7.5501  -15.1486   23.2082 N   0  0  0  0  0  0  0  0  0  0  0  0
    8.7848  -15.6166   21.1689 C   0  0  0  0  0  0  0  0  0  0  0  0
    8.8896  -15.6089   19.9174 O   0  0  0  0  0  0  0  0  0  0  0  0
    9.8245  -16.1752   21.9565 N   0  0  0  0  0  0  0  0  0  0  0  0
   11.0437  -16.7246   21.3502 C   0  0  1  0  0  0  0  0  0  0  0  0
   12.2610  -16.0011   21.8540 C   0  0  0  0  0  0  0  0  0  0  0  0
   13.5633  -16.5988   21.4566 C   0  0  0  0  0  0  0  0  0  0  0  0
   14.6690  -15.7923   22.0248 C   0  0  0  0  0  0  0  0  0  0  0  0
   14.4522  -15.0976   23.0416 O   0  0  0  0  0  0  0  0  0  0  0  0
   11.0547  -18.1729   21.5565 C   0  0  0  0  0  0  0  0  0  0  0  0
   10.4089  -18.7454   22.4650 O   0  0  0  0  0  0  0  0  0  0  0  0
   15.9460  -15.7659   21.4836 O   0  0  0  0  0  0  0  0  0  0  0  0
   11.8063  -19.0050   20.7271 O   0  0  0  0  0  0  0  0  0  0  0  0
  2  1  1  1
  2  3  1  0
  2 13  1  0
  3  4  1  0
  4 12  1  0
  5  6  1  0
  5  4  2  0
  6  7  1  0
  7 12  2  0
  7  8  1  0
  8  9  2  0
  9 10  1  0
 11 10  2  0
 12 11  1  0
 13 14  2  0
 16 15  1  1
 17 13  1  0
 17 16  1  0
 18 16  1  0
 18 19  2  0
 20 18  1  0
 21 20  1  0
 21 26  1  0
 21 22  1  1
 23 24  1  0
 23 22  1  0
 24 25  2  0
 26 27  2  0
 26 29  1  0
 28 24  1  0
M  END
$$$$
