DSR.pdb
     RDKit          3D

 26 25  0  0  1  0  0  0  0  0999 V2000
   25.9564  -17.1855  -18.7202 N   0  0  0  0  0  0  0  0  0  0  0  0
   25.3631  -18.4488  -18.3563 C   0  0  1  0  0  0  0  0  0  0  0  0
   26.5172  -19.2935  -17.8003 C   0  0  0  0  0  0  0  0  0  0  0  0
   27.2006  -19.9595  -18.9142 C   0  0  0  0  0  0  0  0  0  0  0  0
   26.8261  -19.7533  -20.0881 O   0  0  0  0  0  0  0  0  0  0  0  0
   24.3645  -18.3313  -17.2796 C   0  0  0  0  0  0  0  0  0  0  0  0
   24.7161  -17.9283  -16.1443 O   0  0  0  0  0  0  0  0  0  0  0  0
   28.2497  -20.8084  -18.6702 O   0  0  0  0  0  0  0  0  0  0  0  0
   20.3426  -19.6361  -17.6074 O   0  0  0  0  0  0  0  0  0  0  0  0
   20.6359  -18.4976  -16.8699 C   0  0  0  0  0  0  0  0  0  0  0  0
   22.0669  -18.4880  -16.3453 C   0  0  2  0  0  0  0  0  0  0  0  0
   22.9978  -18.6573  -17.4666 N   0  0  0  0  0  0  0  0  0  0  0  0
   22.2578  -19.6043  -15.4061 C   0  0  0  0  0  0  0  0  0  0  0  0
   22.7274  -20.6865  -15.8054 O   0  0  0  0  0  0  0  0  0  0  0  0
   27.5552  -21.2148   -9.9100 N   0  0  0  0  0  0  0  0  0  0  0  0
   27.0940  -21.2037  -11.2482 C   0  0  0  0  0  0  0  0  0  0  0  0
   27.9643  -21.2120  -12.2122 N   0  0  0  0  0  0  0  0  0  0  0  0
   25.7030  -21.1837  -11.5404 N   0  0  0  0  0  0  0  0  0  0  0  0
   24.7190  -21.0705  -10.4786 C   0  0  0  0  0  0  0  0  0  0  0  0
   23.3091  -21.1222  -11.0274 C   0  0  0  0  0  0  0  0  0  0  0  0
   23.1095  -20.0983  -12.1114 C   0  0  0  0  0  0  0  0  0  0  0  0
   22.1135  -20.5553  -13.1258 C   0  0  2  0  0  0  0  0  0  0  0  0
   21.9091  -19.4460  -14.0546 N   0  0  0  0  0  0  0  0  0  0  0  0
   20.8079  -20.9298  -12.5614 C   0  0  0  0  0  0  0  0  0  0  0  0
   20.5137  -22.1881  -12.0676 O   0  0  0  0  0  0  0  0  0  0  0  0
   19.8540  -20.0876  -12.4986 O   0  0  0  0  0  0  0  0  0  0  0  0
  2  1  1  1
  2  3  1  0
  3  4  1  0
  4  8  1  0
  4  5  2  0
  6  2  1  0
  7  6  2  0
  9 10  1  0
 11 10  1  6
 11 12  1  0
 12  6  1  0
 13 11  1  0
 13 23  1  0
 14 13  2  0
 16 15  1  0
 17 16  2  0
 18 16  1  0
 19 18  1  0
 20 19  1  0
 21 20  1  0
 22 21  1  1
 22 23  1  0
 24 22  1  0
 25 24  1  0
 26 24  2  0
M  END
$$$$
