DSR.pdb
     RDKit          3D

 26 25  0  0  1  0  0  0  0  0999 V2000
   21.7270   -8.6475  -12.7864 N   0  0  0  0  0  0  0  0  0  0  0  0
   20.7233   -7.6284  -12.9718 C   0  0  1  0  0  0  0  0  0  0  0  0
   19.8828   -8.0999  -14.1659 C   0  0  0  0  0  0  0  0  0  0  0  0
   20.3190   -7.3834  -15.3690 C   0  0  0  0  0  0  0  0  0  0  0  0
   21.2667   -6.5720  -15.3021 O   0  0  0  0  0  0  0  0  0  0  0  0
   19.8046   -7.5048  -11.8269 C   0  0  0  0  0  0  0  0  0  0  0  0
   19.6044   -8.4921  -11.0786 O   0  0  0  0  0  0  0  0  0  0  0  0
   19.6890   -7.6016  -16.5674 O   0  0  0  0  0  0  0  0  0  0  0  0
   18.1673   -4.8126   -8.2881 O   0  0  0  0  0  0  0  0  0  0  0  0
   18.8571   -4.9909   -9.4791 C   0  0  0  0  0  0  0  0  0  0  0  0
   18.3751   -6.2060  -10.2628 C   0  0  2  0  0  0  0  0  0  0  0  0
   19.1216   -6.3006  -11.5223 N   0  0  0  0  0  0  0  0  0  0  0  0
   16.9453   -6.0581  -10.5764 C   0  0  0  0  0  0  0  0  0  0  0  0
   16.5880   -5.4513  -11.6036 O   0  0  0  0  0  0  0  0  0  0  0  0
   10.3451   -8.5974   -5.5716 N   0  0  0  0  0  0  0  0  0  0  0  0
   10.7427   -7.2520   -5.7597 C   0  0  0  0  0  0  0  0  0  0  0  0
   10.4701   -6.3817   -4.8350 N   0  0  0  0  0  0  0  0  0  0  0  0
   11.4292   -6.8521   -6.9385 N   0  0  0  0  0  0  0  0  0  0  0  0
   11.5462   -7.7489   -8.0745 C   0  0  0  0  0  0  0  0  0  0  0  0
   12.3155   -7.1039   -9.2076 C   0  0  0  0  0  0  0  0  0  0  0  0
   13.7967   -7.1344   -8.9460 C   0  0  0  0  0  0  0  0  0  0  0  0
   14.5642   -6.4668  -10.0392 C   0  0  2  0  0  0  0  0  0  0  0  0
   15.9817   -6.6048   -9.7127 N   0  0  0  0  0  0  0  0  0  0  0  0
   14.2654   -5.0353  -10.1971 C   0  0  0  0  0  0  0  0  0  0  0  0
   13.4783   -4.5192  -11.2109 O   0  0  0  0  0  0  0  0  0  0  0  0
   14.7321   -4.1736   -9.3829 O   0  0  0  0  0  0  0  0  0  0  0  0
  2  1  1  1
  2  3  1  0
  3  4  1  0
  4  8  1  0
  4  5  2  0
  6  2  1  0
  7  6  2  0
  9 10  1  0
 11 10  1  6
 11 12  1  0
 12  6  1  0
 13 11  1  0
 13 23  1  0
 14 13  2  0
 16 15  1  0
 17 16  2  0
 18 16  1  0
 19 18  1  0
 20 19  1  0
 21 20  1  0
 22 21  1  1
 22 23  1  0
 24 22  1  0
 25 24  1  0
 26 24  2  0
M  END
$$$$
