DSR.pdb
     RDKit          3D

 26 25  0  0  1  0  0  0  0  0999 V2000
   16.8085  -16.3984  -14.1099 N   0  0  0  0  0  0  0  0  0  0  0  0
   16.1717  -15.2125  -14.6279 C   0  0  1  0  0  0  0  0  0  0  0  0
   14.8906  -15.0459  -13.7998 C   0  0  0  0  0  0  0  0  0  0  0  0
   13.9742  -16.1477  -14.1119 C   0  0  0  0  0  0  0  0  0  0  0  0
   13.3939  -16.1816  -15.2178 O   0  0  0  0  0  0  0  0  0  0  0  0
   16.9704  -13.9910  -14.4267 C   0  0  0  0  0  0  0  0  0  0  0  0
   17.4492  -13.7385  -13.2946 O   0  0  0  0  0  0  0  0  0  0  0  0
   13.7524  -17.1408  -13.1925 O   0  0  0  0  0  0  0  0  0  0  0  0
   17.9276  -11.2497  -17.5269 O   0  0  0  0  0  0  0  0  0  0  0  0
   18.8070  -11.5035  -16.4837 C   0  0  0  0  0  0  0  0  0  0  0  0
   18.0954  -11.9142  -15.2000 C   0  0  2  0  0  0  0  0  0  0  0  0
   17.2304  -13.0681  -15.4706 N   0  0  0  0  0  0  0  0  0  0  0  0
   17.2577  -10.8038  -14.7208 C   0  0  0  0  0  0  0  0  0  0  0  0
   16.0309  -10.8055  -14.9357 O   0  0  0  0  0  0  0  0  0  0  0  0
   13.2206   -9.5135   -8.2867 N   0  0  0  0  0  0  0  0  0  0  0  0
   13.1599  -10.0503   -9.5950 C   0  0  0  0  0  0  0  0  0  0  0  0
   12.5064  -11.1556   -9.7904 N   0  0  0  0  0  0  0  0  0  0  0  0
   13.8010   -9.3966  -10.6823 N   0  0  0  0  0  0  0  0  0  0  0  0
   14.8253   -8.3938  -10.4510 C   0  0  0  0  0  0  0  0  0  0  0  0
   15.4734   -7.9598  -11.7485 C   0  0  0  0  0  0  0  0  0  0  0  0
   16.3327   -9.0545  -12.3200 C   0  0  0  0  0  0  0  0  0  0  0  0
   17.0132   -8.6226  -13.5770 C   0  0  2  0  0  0  0  0  0  0  0  0
   17.8461   -9.7393  -14.0180 N   0  0  0  0  0  0  0  0  0  0  0  0
   17.8740   -7.4403  -13.4201 C   0  0  0  0  0  0  0  0  0  0  0  0
   17.3974   -6.1702  -13.1486 O   0  0  0  0  0  0  0  0  0  0  0  0
   19.1399   -7.5306  -13.5306 O   0  0  0  0  0  0  0  0  0  0  0  0
  2  1  1  1
  2  3  1  0
  3  4  1  0
  4  8  1  0
  4  5  2  0
  6  2  1  0
  7  6  2  0
  9 10  1  0
 11 10  1  6
 11 12  1  0
 12  6  1  0
 13 11  1  0
 13 23  1  0
 14 13  2  0
 16 15  1  0
 17 16  2  0
 18 16  1  0
 19 18  1  0
 20 19  1  0
 21 20  1  0
 22 21  1  1
 22 23  1  0
 24 22  1  0
 25 24  1  0
 26 24  2  0
M  END
$$$$
