DSR.pdb
     RDKit          3D

 26 25  0  0  1  0  0  0  0  0999 V2000
   26.0102  -21.3575  -14.7521 N   0  0  0  0  0  0  0  0  0  0  0  0
   24.8256  -21.9878  -15.2812 C   0  0  1  0  0  0  0  0  0  0  0  0
   25.1060  -23.4951  -15.2184 C   0  0  0  0  0  0  0  0  0  0  0  0
   26.0396  -23.8518  -16.2919 C   0  0  0  0  0  0  0  0  0  0  0  0
   26.4212  -22.9800  -17.1014 O   0  0  0  0  0  0  0  0  0  0  0  0
   23.6249  -21.7438  -14.4632 C   0  0  0  0  0  0  0  0  0  0  0  0
   23.3148  -22.5516  -13.5544 O   0  0  0  0  0  0  0  0  0  0  0  0
   26.4944  -25.1402  -16.4096 O   0  0  0  0  0  0  0  0  0  0  0  0
   20.1090  -18.6721  -13.0321 O   0  0  0  0  0  0  0  0  0  0  0  0
   21.1546  -18.9681  -13.8953 C   0  0  0  0  0  0  0  0  0  0  0  0
   21.6780  -20.3889  -13.7210 C   0  0  2  0  0  0  0  0  0  0  0  0
   22.7854  -20.6180  -14.6559 N   0  0  0  0  0  0  0  0  0  0  0  0
   20.6066  -21.3519  -14.0200 C   0  0  0  0  0  0  0  0  0  0  0  0
   20.3570  -21.6663  -15.1990 O   0  0  0  0  0  0  0  0  0  0  0  0
   19.5314  -28.6088  -10.3926 N   0  0  0  0  0  0  0  0  0  0  0  0
   20.3496  -27.8075  -11.2246 C   0  0  0  0  0  0  0  0  0  0  0  0
   21.6130  -28.0918  -11.3239 N   0  0  0  0  0  0  0  0  0  0  0  0
   19.8052  -26.7081  -11.9425 N   0  0  0  0  0  0  0  0  0  0  0  0
   18.3808  -26.4279  -11.9108 C   0  0  0  0  0  0  0  0  0  0  0  0
   18.0503  -25.1692  -12.6842 C   0  0  0  0  0  0  0  0  0  0  0  0
   19.1074  -24.1169  -12.4880 C   0  0  0  0  0  0  0  0  0  0  0  0
   18.8106  -22.8828  -13.2745 C   0  0  2  0  0  0  0  0  0  0  0  0
   19.8645  -21.9176  -12.9700 N   0  0  0  0  0  0  0  0  0  0  0  0
   17.5142  -22.2643  -12.9578 C   0  0  0  0  0  0  0  0  0  0  0  0
   16.2942  -22.7907  -13.3426 O   0  0  0  0  0  0  0  0  0  0  0  0
   17.4496  -21.1791  -12.2935 O   0  0  0  0  0  0  0  0  0  0  0  0
  2  1  1  1
  2  3  1  0
  3  4  1  0
  4  8  1  0
  4  5  2  0
  6  2  1  0
  7  6  2  0
  9 10  1  0
 11 10  1  6
 11 12  1  0
 12  6  1  0
 13 11  1  0
 13 23  1  0
 14 13  2  0
 16 15  1  0
 17 16  2  0
 18 16  1  0
 19 18  1  0
 20 19  1  0
 21 20  1  0
 22 21  1  1
 22 23  1  0
 24 22  1  0
 25 24  1  0
 26 24  2  0
M  END
$$$$
