DSR.pdb
     RDKit          3D

 26 25  0  0  1  0  0  0  0  0999 V2000
   28.0417  -21.5977  -16.1025 N   0  0  0  0  0  0  0  0  0  0  0  0
   27.6462  -20.6043  -15.1345 C   0  0  1  0  0  0  0  0  0  0  0  0
   27.0829  -19.4381  -15.9574 C   0  0  0  0  0  0  0  0  0  0  0  0
   28.1721  -18.8270  -16.7265 C   0  0  0  0  0  0  0  0  0  0  0  0
   27.9502  -18.3737  -17.8694 O   0  0  0  0  0  0  0  0  0  0  0  0
   26.5634  -21.0602  -14.2457 C   0  0  0  0  0  0  0  0  0  0  0  0
   25.6216  -21.7464  -14.7115 O   0  0  0  0  0  0  0  0  0  0  0  0
   29.4338  -18.7521  -16.1942 O   0  0  0  0  0  0  0  0  0  0  0  0
   25.9207  -19.6177  -10.3235 O   0  0  0  0  0  0  0  0  0  0  0  0
   25.6875  -20.9615  -10.5804 C   0  0  0  0  0  0  0  0  0  0  0  0
   25.4081  -21.2399  -12.0526 C   0  0  2  0  0  0  0  0  0  0  0  0
   26.5324  -20.7560  -12.8616 N   0  0  0  0  0  0  0  0  0  0  0  0
   24.1907  -20.5267  -12.4695 C   0  0  0  0  0  0  0  0  0  0  0  0
   24.2729  -19.5121  -13.1871 O   0  0  0  0  0  0  0  0  0  0  0  0
   19.1971  -18.0777  -16.6102 N   0  0  0  0  0  0  0  0  0  0  0  0
   20.4010  -17.8379  -17.3151 C   0  0  0  0  0  0  0  0  0  0  0  0
   20.5327  -16.7253  -17.9721 N   0  0  0  0  0  0  0  0  0  0  0  0
   21.4529  -18.7939  -17.3089 N   0  0  0  0  0  0  0  0  0  0  0  0
   21.3942  -19.9625  -16.4491 C   0  0  0  0  0  0  0  0  0  0  0  0
   21.8842  -19.6433  -15.0527 C   0  0  0  0  0  0  0  0  0  0  0  0
   21.8776  -20.8691  -14.1805 C   0  0  0  0  0  0  0  0  0  0  0  0
   21.7302  -20.5184  -12.7366 C   0  0  2  0  0  0  0  0  0  0  0  0
   22.9323  -20.9943  -12.0558 N   0  0  0  0  0  0  0  0  0  0  0  0
   20.5606  -21.1277  -12.0853 C   0  0  0  0  0  0  0  0  0  0  0  0
   20.4923  -22.4577  -11.7109 O   0  0  0  0  0  0  0  0  0  0  0  0
   19.5204  -20.4391  -11.8267 O   0  0  0  0  0  0  0  0  0  0  0  0
  2  1  1  6
  2  3  1  0
  3  4  1  0
  4  8  1  0
  4  5  2  0
  6  2  1  0
  7  6  2  0
  9 10  1  0
 11 10  1  1
 11 12  1  0
 12  6  1  0
 13 11  1  0
 13 23  1  0
 14 13  2  0
 16 15  1  0
 17 16  2  0
 18 16  1  0
 19 18  1  0
 20 19  1  0
 21 20  1  0
 22 21  1  6
 22 23  1  0
 24 22  1  0
 25 24  1  0
 26 24  2  0
M  END
$$$$
