DSR.pdb
     RDKit          3D

 26 25  0  0  1  0  0  0  0  0999 V2000
   14.9210   -9.4154   -8.9711 N   0  0  0  0  0  0  0  0  0  0  0  0
   15.0894   -9.3095  -10.3997 C   0  0  1  0  0  0  0  0  0  0  0  0
   13.6671   -9.2426  -10.9717 C   0  0  0  0  0  0  0  0  0  0  0  0
   13.0027  -10.5312  -10.7501 C   0  0  0  0  0  0  0  0  0  0  0  0
   13.6207  -11.4636  -10.1936 O   0  0  0  0  0  0  0  0  0  0  0  0
   15.7728   -8.0713  -10.8124 C   0  0  0  0  0  0  0  0  0  0  0  0
   16.0081   -7.8643  -12.0275 O   0  0  0  0  0  0  0  0  0  0  0  0
   11.7047  -10.7154  -11.1525 O   0  0  0  0  0  0  0  0  0  0  0  0
   17.2273   -5.2531   -8.0629 O   0  0  0  0  0  0  0  0  0  0  0  0
   16.8643   -4.8045   -9.3251 C   0  0  0  0  0  0  0  0  0  0  0  0
   16.9119   -5.9056  -10.3778 C   0  0  2  0  0  0  0  0  0  0  0  0
   16.1860   -7.0818   -9.8854 N   0  0  0  0  0  0  0  0  0  0  0  0
   18.3094   -6.2901  -10.6299 C   0  0  0  0  0  0  0  0  0  0  0  0
   18.8187   -7.2440  -10.0120 O   0  0  0  0  0  0  0  0  0  0  0  0
   19.7260  -10.6897  -15.5404 N   0  0  0  0  0  0  0  0  0  0  0  0
   20.8481  -10.1056  -16.1753 C   0  0  0  0  0  0  0  0  0  0  0  0
   21.0246  -10.3052  -17.4465 N   0  0  0  0  0  0  0  0  0  0  0  0
   21.7712   -9.3126  -15.4408 N   0  0  0  0  0  0  0  0  0  0  0  0
   21.5014   -8.9352  -14.0649 C   0  0  0  0  0  0  0  0  0  0  0  0
   20.9547   -7.5262  -13.9780 C   0  0  0  0  0  0  0  0  0  0  0  0
   20.0441   -7.3683  -12.7909 C   0  0  0  0  0  0  0  0  0  0  0  0
   20.3473   -6.1232  -12.0243 C   0  0  2  0  0  0  0  0  0  0  0  0
   19.0697   -5.5774  -11.5720 N   0  0  0  0  0  0  0  0  0  0  0  0
   21.0391   -5.0877  -12.8070 C   0  0  0  0  0  0  0  0  0  0  0  0
   22.4154   -4.9766  -12.8925 O   0  0  0  0  0  0  0  0  0  0  0  0
   20.3843   -4.2147  -13.4644 O   0  0  0  0  0  0  0  0  0  0  0  0
  2  1  1  1
  2  3  1  0
  3  4  1  0
  4  8  1  0
  4  5  2  0
  6  2  1  0
  7  6  2  0
  9 10  1  0
 11 10  1  1
 11 12  1  0
 12  6  1  0
 13 11  1  0
 13 23  1  0
 14 13  2  0
 16 15  1  0
 17 16  2  0
 18 16  1  0
 19 18  1  0
 20 19  1  0
 21 20  1  0
 22 21  1  6
 22 23  1  0
 24 22  1  0
 25 24  1  0
 26 24  2  0
M  END
$$$$
