DSR.pdb
     RDKit          3D

 26 25  0  0  1  0  0  0  0  0999 V2000
   19.6637  -11.6731  -15.5700 N   0  0  0  0  0  0  0  0  0  0  0  0
   18.7577  -10.5612  -15.4173 C   0  0  1  0  0  0  0  0  0  0  0  0
   17.3780  -11.1916  -15.1852 C   0  0  0  0  0  0  0  0  0  0  0  0
   16.8342  -11.6367  -16.4726 C   0  0  0  0  0  0  0  0  0  0  0  0
   17.1625  -11.0485  -17.5248 O   0  0  0  0  0  0  0  0  0  0  0  0
   19.0513   -9.7326  -14.2353 C   0  0  0  0  0  0  0  0  0  0  0  0
   18.8302  -10.1852  -13.0859 O   0  0  0  0  0  0  0  0  0  0  0  0
   15.9659  -12.6970  -16.5242 O   0  0  0  0  0  0  0  0  0  0  0  0
   20.9134   -5.6307  -12.3330 O   0  0  0  0  0  0  0  0  0  0  0  0
   20.7305   -6.4695  -13.4234 C   0  0  0  0  0  0  0  0  0  0  0  0
   19.8415   -7.6655  -13.1040 C   0  0  2  0  0  0  0  0  0  0  0  0
   19.5826   -8.4222  -14.3341 N   0  0  0  0  0  0  0  0  0  0  0  0
   18.5557   -7.1969  -12.5637 C   0  0  0  0  0  0  0  0  0  0  0  0
   17.6969   -6.7093  -13.3225 O   0  0  0  0  0  0  0  0  0  0  0  0
   12.2833  -10.6907   -7.9811 N   0  0  0  0  0  0  0  0  0  0  0  0
   11.8519   -9.3834   -8.3105 C   0  0  0  0  0  0  0  0  0  0  0  0
   10.5925   -9.0893   -8.1912 N   0  0  0  0  0  0  0  0  0  0  0  0
   12.7755   -8.4031   -8.7651 N   0  0  0  0  0  0  0  0  0  0  0  0
   14.0459   -8.7902   -9.3521 C   0  0  0  0  0  0  0  0  0  0  0  0
   14.8828   -7.5779   -9.7011 C   0  0  0  0  0  0  0  0  0  0  0  0
   16.2191   -7.9825  -10.2615 C   0  0  0  0  0  0  0  0  0  0  0  0
   17.0363   -6.7953  -10.6519 C   0  0  2  0  0  0  0  0  0  0  0  0
   18.2982   -7.3017  -11.1868 N   0  0  0  0  0  0  0  0  0  0  0  0
   17.3411   -5.8821   -9.5398 C   0  0  0  0  0  0  0  0  0  0  0  0
   16.4532   -4.9417   -9.0490 O   0  0  0  0  0  0  0  0  0  0  0  0
   18.4733   -5.9131   -8.9565 O   0  0  0  0  0  0  0  0  0  0  0  0
  2  1  1  1
  2  3  1  0
  3  4  1  0
  4  8  1  0
  4  5  2  0
  6  2  1  0
  7  6  2  0
  9 10  1  0
 11 10  1  6
 11 12  1  0
 12  6  1  0
 13 11  1  0
 13 23  1  0
 14 13  2  0
 16 15  1  0
 17 16  2  0
 18 16  1  0
 19 18  1  0
 20 19  1  0
 21 20  1  0
 22 21  1  1
 22 23  1  0
 24 22  1  0
 25 24  1  0
 26 24  2  0
M  END
$$$$
