DSR.pdb
     RDKit          3D

 26 25  0  0  1  0  0  0  0  0999 V2000
   20.8513  -15.8703  -16.3183 N   0  0  0  0  0  0  0  0  0  0  0  0
   20.5157  -14.6157  -16.9458 C   0  0  1  0  0  0  0  0  0  0  0  0
   18.9929  -14.6501  -17.1318 C   0  0  0  0  0  0  0  0  0  0  0  0
   18.6722  -15.4973  -18.2854 C   0  0  0  0  0  0  0  0  0  0  0  0
   19.5924  -16.0143  -18.9539 O   0  0  0  0  0  0  0  0  0  0  0  0
   20.8149  -13.4468  -16.1006 C   0  0  0  0  0  0  0  0  0  0  0  0
   20.0636  -13.1666  -15.1352 O   0  0  0  0  0  0  0  0  0  0  0  0
   17.3648  -15.7231  -18.6321 O   0  0  0  0  0  0  0  0  0  0  0  0
   24.3150  -11.0770  -16.4970 O   0  0  0  0  0  0  0  0  0  0  0  0
   23.7045  -11.3007  -15.2709 C   0  0  0  0  0  0  0  0  0  0  0  0
   22.1994  -11.5085  -15.3915 C   0  0  2  0  0  0  0  0  0  0  0  0
   21.9329  -12.6057  -16.3284 N   0  0  0  0  0  0  0  0  0  0  0  0
   21.5705  -10.2849  -15.9129 C   0  0  0  0  0  0  0  0  0  0  0  0
   21.5564  -10.0600  -17.1378 O   0  0  0  0  0  0  0  0  0  0  0  0
   13.9404   -7.3284  -14.8847 N   0  0  0  0  0  0  0  0  0  0  0  0
   14.7580   -8.3444  -15.4352 C   0  0  0  0  0  0  0  0  0  0  0  0
   14.2141   -9.4752  -15.7700 N   0  0  0  0  0  0  0  0  0  0  0  0
   16.1520   -8.1381  -15.6215 N   0  0  0  0  0  0  0  0  0  0  0  0
   16.7897   -6.9094  -15.1832 C   0  0  0  0  0  0  0  0  0  0  0  0
   18.2531   -6.8809  -15.5698 C   0  0  0  0  0  0  0  0  0  0  0  0
   18.9585   -8.1319  -15.1219 C   0  0  0  0  0  0  0  0  0  0  0  0
   20.3900   -8.1407  -15.5467 C   0  0  2  0  0  0  0  0  0  0  0  0
   20.9840   -9.3690  -15.0238 N   0  0  0  0  0  0  0  0  0  0  0  0
   21.1736   -7.0010  -15.0461 C   0  0  0  0  0  0  0  0  0  0  0  0
   21.9807   -7.0539  -13.9238 O   0  0  0  0  0  0  0  0  0  0  0  0
   21.1460   -5.8741  -15.6397 O   0  0  0  0  0  0  0  0  0  0  0  0
  2  1  1  1
  2  3  1  0
  3  4  1  0
  4  8  1  0
  4  5  2  0
  6  2  1  0
  7  6  2  0
  9 10  1  0
 11 10  1  6
 11 12  1  0
 12  6  1  0
 13 11  1  0
 13 23  1  0
 14 13  2  0
 16 15  1  0
 17 16  2  0
 18 16  1  0
 19 18  1  0
 20 19  1  0
 21 20  1  0
 22 21  1  1
 22 23  1  0
 24 22  1  0
 25 24  1  0
 26 24  2  0
M  END
$$$$
