DSR.pdb
     RDKit          3D

 26 25  0  0  1  0  0  0  0  0999 V2000
   19.6561  -12.4114  -15.5514 N   0  0  0  0  0  0  0  0  0  0  0  0
   18.5683  -11.4739  -15.6858 C   0  0  1  0  0  0  0  0  0  0  0  0
   17.4746  -11.9833  -14.7376 C   0  0  0  0  0  0  0  0  0  0  0  0
   16.8850  -13.2025  -15.3009 C   0  0  0  0  0  0  0  0  0  0  0  0
   15.7238  -13.5373  -14.9837 O   0  0  0  0  0  0  0  0  0  0  0  0
   18.9174  -10.1135  -15.2410 C   0  0  0  0  0  0  0  0  0  0  0  0
   19.7066   -9.9556  -14.2781 O   0  0  0  0  0  0  0  0  0  0  0  0
   17.6052  -13.9760  -16.1747 O   0  0  0  0  0  0  0  0  0  0  0  0
   18.9962   -7.3421  -17.7792 O   0  0  0  0  0  0  0  0  0  0  0  0
   19.3578   -6.8144  -16.5476 C   0  0  0  0  0  0  0  0  0  0  0  0
   18.8270   -7.6336  -15.3770 C   0  0  2  0  0  0  0  0  0  0  0  0
   18.3954   -8.9501  -15.8600 N   0  0  0  0  0  0  0  0  0  0  0  0
   17.6682   -6.9514  -14.7799 C   0  0  0  0  0  0  0  0  0  0  0  0
   16.5581   -6.9917  -15.3429 O   0  0  0  0  0  0  0  0  0  0  0  0
   14.7215   -7.5301   -7.1548 N   0  0  0  0  0  0  0  0  0  0  0  0
   14.3435   -8.0119   -8.4309 C   0  0  0  0  0  0  0  0  0  0  0  0
   13.7572   -9.1676   -8.5172 N   0  0  0  0  0  0  0  0  0  0  0  0
   14.5980   -7.2496   -9.6034 N   0  0  0  0  0  0  0  0  0  0  0  0
   15.1535   -5.9108   -9.5171 C   0  0  0  0  0  0  0  0  0  0  0  0
   15.3919   -5.3243  -10.8922 C   0  0  0  0  0  0  0  0  0  0  0  0
   16.4373   -6.1039  -11.6423 C   0  0  0  0  0  0  0  0  0  0  0  0
   16.6723   -5.5423  -13.0057 C   0  0  2  0  0  0  0  0  0  0  0  0
   17.8172   -6.2535  -13.5700 N   0  0  0  0  0  0  0  0  0  0  0  0
   16.9720   -4.1023  -13.0204 C   0  0  0  0  0  0  0  0  0  0  0  0
   16.0180   -3.1145  -12.8538 O   0  0  0  0  0  0  0  0  0  0  0  0
   18.1619   -3.6812  -13.1932 O   0  0  0  0  0  0  0  0  0  0  0  0
  2  1  1  1
  2  3  1  0
  3  4  1  0
  4  8  1  0
  4  5  2  0
  6  2  1  0
  7  6  2  0
  9 10  1  0
 11 10  1  6
 11 12  1  0
 12  6  1  0
 13 11  1  0
 13 23  1  0
 14 13  2  0
 16 15  1  0
 17 16  2  0
 18 16  1  0
 19 18  1  0
 20 19  1  0
 21 20  1  0
 22 21  1  1
 22 23  1  0
 24 22  1  0
 25 24  1  0
 26 24  2  0
M  END
$$$$
