DSR.pdb
     RDKit          3D

 26 25  0  0  1  0  0  0  0  0999 V2000
   28.7472  -29.5332  -16.1995 N   0  0  0  0  0  0  0  0  0  0  0  0
   28.3957  -28.5269  -17.1711 C   0  0  1  0  0  0  0  0  0  0  0  0
   27.2263  -29.1223  -17.9665 C   0  0  0  0  0  0  0  0  0  0  0  0
   27.7322  -30.1986  -18.8249 C   0  0  0  0  0  0  0  0  0  0  0  0
   27.3211  -31.3677  -18.6663 O   0  0  0  0  0  0  0  0  0  0  0  0
   27.9042  -27.2792  -16.5613 C   0  0  0  0  0  0  0  0  0  0  0  0
   27.3141  -27.3165  -15.4543 O   0  0  0  0  0  0  0  0  0  0  0  0
   28.6556  -29.9249  -19.8011 O   0  0  0  0  0  0  0  0  0  0  0  0
   28.8889  -23.7416  -18.2194 O   0  0  0  0  0  0  0  0  0  0  0  0
   28.3983  -23.6061  -16.9283 C   0  0  0  0  0  0  0  0  0  0  0  0
   27.5885  -24.8155  -16.4759 C   0  0  2  0  0  0  0  0  0  0  0  0
   28.0687  -26.0124  -17.1756 N   0  0  0  0  0  0  0  0  0  0  0  0
   26.1699  -24.6153  -16.8107 C   0  0  0  0  0  0  0  0  0  0  0  0
   25.7283  -24.9833  -17.9156 O   0  0  0  0  0  0  0  0  0  0  0  0
   20.8261  -27.9099  -13.7819 N   0  0  0  0  0  0  0  0  0  0  0  0
   21.7315  -27.3353  -12.8579 C   0  0  0  0  0  0  0  0  0  0  0  0
   22.3878  -28.1160  -12.0539 N   0  0  0  0  0  0  0  0  0  0  0  0
   21.9247  -25.9281  -12.8047 N   0  0  0  0  0  0  0  0  0  0  0  0
   21.2390  -25.0451  -13.7313 C   0  0  0  0  0  0  0  0  0  0  0  0
   21.9922  -24.9284  -15.0394 C   0  0  0  0  0  0  0  0  0  0  0  0
   23.1386  -23.9613  -14.9226 C   0  0  0  0  0  0  0  0  0  0  0  0
   23.8970  -23.8468  -16.2037 C   0  0  2  0  0  0  0  0  0  0  0  0
   25.3125  -24.0074  -15.8788 N   0  0  0  0  0  0  0  0  0  0  0  0
   23.7259  -22.5580  -16.8916 C   0  0  0  0  0  0  0  0  0  0  0  0
   22.6178  -22.2313  -17.6525 O   0  0  0  0  0  0  0  0  0  0  0  0
   24.6181  -21.6515  -16.8187 O   0  0  0  0  0  0  0  0  0  0  0  0
  2  1  1  1
  2  3  1  0
  3  4  1  0
  4  8  1  0
  4  5  2  0
  6  2  1  0
  7  6  2  0
  9 10  1  0
 11 10  1  6
 11 12  1  0
 12  6  1  0
 13 11  1  0
 13 23  1  0
 14 13  2  0
 16 15  1  0
 17 16  2  0
 18 16  1  0
 19 18  1  0
 20 19  1  0
 21 20  1  0
 22 21  1  1
 22 23  1  0
 24 22  1  0
 25 24  1  0
 26 24  2  0
M  END
$$$$
