DSR.pdb
     RDKit          3D

 26 25  0  0  1  0  0  0  0  0999 V2000
   21.0422  -10.4796  -15.4699 N   0  0  0  0  0  0  0  0  0  0  0  0
   20.3648   -9.2063  -15.4679 C   0  0  1  0  0  0  0  0  0  0  0  0
   18.8864   -9.5332  -15.7174 C   0  0  0  0  0  0  0  0  0  0  0  0
   18.7492  -10.1373  -17.0469 C   0  0  0  0  0  0  0  0  0  0  0  0
   19.3267   -9.6226  -18.0280 O   0  0  0  0  0  0  0  0  0  0  0  0
   20.4344   -8.5149  -14.1689 C   0  0  0  0  0  0  0  0  0  0  0  0
   20.3056   -9.1700  -13.1062 O   0  0  0  0  0  0  0  0  0  0  0  0
   17.9883  -11.2656  -17.2158 O   0  0  0  0  0  0  0  0  0  0  0  0
   20.8973   -4.2994  -13.6956 O   0  0  0  0  0  0  0  0  0  0  0  0
   21.4768   -5.1936  -12.8064 C   0  0  0  0  0  0  0  0  0  0  0  0
   20.7208   -6.5143  -12.7224 C   0  0  2  0  0  0  0  0  0  0  0  0
   20.6446   -7.1176  -14.0577 N   0  0  0  0  0  0  0  0  0  0  0  0
   19.3522   -6.2720  -12.2397 C   0  0  0  0  0  0  0  0  0  0  0  0
   18.4480   -5.9726  -13.0421 O   0  0  0  0  0  0  0  0  0  0  0  0
   13.0478  -10.4380   -8.6876 N   0  0  0  0  0  0  0  0  0  0  0  0
   12.6161   -9.0923   -8.6081 C   0  0  0  0  0  0  0  0  0  0  0  0
   11.3937   -8.8456   -8.2452 N   0  0  0  0  0  0  0  0  0  0  0  0
   13.4998   -8.0231   -8.9187 N   0  0  0  0  0  0  0  0  0  0  0  0
   14.8883   -8.2773   -9.2588 C   0  0  0  0  0  0  0  0  0  0  0  0
   15.6323   -6.9880   -9.5343 C   0  0  0  0  0  0  0  0  0  0  0  0
   17.0290   -7.2596  -10.0228 C   0  0  0  0  0  0  0  0  0  0  0  0
   17.7447   -5.9981  -10.3780 C   0  0  2  0  0  0  0  0  0  0  0  0
   19.0670   -6.3800  -10.8685 N   0  0  0  0  0  0  0  0  0  0  0  0
   17.9221   -5.0690   -9.2516 C   0  0  0  0  0  0  0  0  0  0  0  0
   16.9748   -4.1388   -8.8629 O   0  0  0  0  0  0  0  0  0  0  0  0
   18.9906   -5.0751   -8.5577 O   0  0  0  0  0  0  0  0  0  0  0  0
  2  1  1  1
  2  3  1  0
  3  4  1  0
  4  8  1  0
  4  5  2  0
  6  2  1  0
  7  6  2  0
  9 10  1  0
 11 10  1  6
 11 12  1  0
 12  6  1  0
 13 11  1  0
 13 23  1  0
 14 13  2  0
 16 15  1  0
 17 16  2  0
 18 16  1  0
 19 18  1  0
 20 19  1  0
 21 20  1  0
 22 21  1  1
 22 23  1  0
 24 22  1  0
 25 24  1  0
 26 24  2  0
M  END
$$$$
