DSR.pdb
     RDKit          3D

 26 25  0  0  1  0  0  0  0  0999 V2000
   35.4429  -35.6362   -0.7853 N   0  0  0  0  0  0  0  0  0  0  0  0
   34.6047  -36.3493   -1.7177 C   0  0  1  0  0  0  0  0  0  0  0  0
   33.6631  -37.1958   -0.8508 C   0  0  0  0  0  0  0  0  0  0  0  0
   33.6247  -38.5623   -1.3823 C   0  0  0  0  0  0  0  0  0  0  0  0
   34.2553  -38.8441   -2.4234 O   0  0  0  0  0  0  0  0  0  0  0  0
   33.7537  -35.4612   -2.5284 C   0  0  0  0  0  0  0  0  0  0  0  0
   33.0076  -34.6255   -1.9627 O   0  0  0  0  0  0  0  0  0  0  0  0
   32.8981  -39.5314   -0.7394 O   0  0  0  0  0  0  0  0  0  0  0  0
   32.4600  -33.7271   -6.9112 O   0  0  0  0  0  0  0  0  0  0  0  0
   33.2148  -34.6156   -6.1583 C   0  0  0  0  0  0  0  0  0  0  0  0
   32.8718  -34.5692   -4.6739 C   0  0  2  0  0  0  0  0  0  0  0  0
   33.7360  -35.5045   -3.9451 N   0  0  0  0  0  0  0  0  0  0  0  0
   31.4715  -34.9748   -4.4760 C   0  0  0  0  0  0  0  0  0  0  0  0
   31.1759  -36.1806   -4.3769 O   0  0  0  0  0  0  0  0  0  0  0  0
   24.6706  -33.5591   -6.0429 N   0  0  0  0  0  0  0  0  0  0  0  0
   23.9406  -33.1784   -4.8915 C   0  0  0  0  0  0  0  0  0  0  0  0
   22.6837  -33.4959   -4.8116 N   0  0  0  0  0  0  0  0  0  0  0  0
   24.5654  -32.4602   -3.8358 N   0  0  0  0  0  0  0  0  0  0  0  0
   25.9898  -32.1801   -3.8647 C   0  0  0  0  0  0  0  0  0  0  0  0
   26.7989  -33.4546   -3.9780 C   0  0  0  0  0  0  0  0  0  0  0  0
   28.2730  -33.1597   -4.0366 C   0  0  0  0  0  0  0  0  0  0  0  0
   29.0799  -34.4069   -4.1881 C   0  0  2  0  0  0  0  0  0  0  0  0
   30.4665  -33.9966   -4.3982 N   0  0  0  0  0  0  0  0  0  0  0  0
   28.6736  -35.2530   -5.3206 C   0  0  0  0  0  0  0  0  0  0  0  0
   28.9717  -34.9688   -6.6413 O   0  0  0  0  0  0  0  0  0  0  0  0
   28.0059  -36.3220   -5.1350 O   0  0  0  0  0  0  0  0  0  0  0  0
  2  1  1  1
  2  3  1  0
  3  4  1  0
  4  8  1  0
  4  5  2  0
  6  2  1  0
  7  6  2  0
  9 10  1  0
 11 10  1  6
 11 12  1  0
 12  6  1  0
 13 11  1  0
 13 23  1  0
 14 13  2  0
 16 15  1  0
 17 16  2  0
 18 16  1  0
 19 18  1  0
 20 19  1  0
 21 20  1  0
 22 21  1  6
 22 23  1  0
 24 22  1  0
 25 24  1  0
 26 24  2  0
M  END
$$$$
