DSR.pdb
     RDKit          3D

 26 25  0  0  1  0  0  0  0  0999 V2000
   25.1197  -22.4686  -14.8647 N   0  0  0  0  0  0  0  0  0  0  0  0
   24.0357  -21.5787  -15.2015 C   0  0  1  0  0  0  0  0  0  0  0  0
   23.2348  -22.3087  -16.2880 C   0  0  0  0  0  0  0  0  0  0  0  0
   24.0724  -22.4509  -17.4836 C   0  0  0  0  0  0  0  0  0  0  0  0
   24.0335  -23.5070  -18.1499 O   0  0  0  0  0  0  0  0  0  0  0  0
   23.1116  -21.3405  -14.0792 C   0  0  0  0  0  0  0  0  0  0  0  0
   23.1291  -22.1048  -13.0840 O   0  0  0  0  0  0  0  0  0  0  0  0
   24.8983  -21.4273  -17.8719 O   0  0  0  0  0  0  0  0  0  0  0  0
   20.1363  -18.4197  -14.1839 O   0  0  0  0  0  0  0  0  0  0  0  0
   20.7075  -18.6805  -12.9463 C   0  0  0  0  0  0  0  0  0  0  0  0
   21.3559  -20.0580  -12.8753 C   0  0  2  0  0  0  0  0  0  0  0  0
   22.1847  -20.2681  -14.0676 N   0  0  0  0  0  0  0  0  0  0  0  0
   20.3131  -21.0953  -12.8416 C   0  0  0  0  0  0  0  0  0  0  0  0
   19.9673  -21.6713  -13.8904 O   0  0  0  0  0  0  0  0  0  0  0  0
   17.0045  -25.3379   -5.9758 N   0  0  0  0  0  0  0  0  0  0  0  0
   18.0915  -25.5724   -6.8515 C   0  0  0  0  0  0  0  0  0  0  0  0
   19.0820  -26.3051   -6.4405 N   0  0  0  0  0  0  0  0  0  0  0  0
   18.1064  -25.0186   -8.1606 N   0  0  0  0  0  0  0  0  0  0  0  0
   17.0234  -24.1698   -8.6241 C   0  0  0  0  0  0  0  0  0  0  0  0
   17.2277  -23.7552  -10.0657 C   0  0  0  0  0  0  0  0  0  0  0  0
   18.3422  -22.7523  -10.1905 C   0  0  0  0  0  0  0  0  0  0  0  0
   18.5814  -22.3672  -11.6132 C   0  0  2  0  0  0  0  0  0  0  0  0
   19.7074  -21.4359  -11.6208 N   0  0  0  0  0  0  0  0  0  0  0  0
   17.4356  -21.7095  -12.2598 C   0  0  0  0  0  0  0  0  0  0  0  0
   16.5825  -22.3425  -13.1459 O   0  0  0  0  0  0  0  0  0  0  0  0
   17.1648  -20.4862  -12.0288 O   0  0  0  0  0  0  0  0  0  0  0  0
  2  1  1  1
  2  3  1  0
  3  4  1  0
  4  8  1  0
  4  5  2  0
  6  2  1  0
  7  6  2  0
  9 10  1  0
 11 10  1  6
 11 12  1  0
 12  6  1  0
 13 11  1  0
 13 23  1  0
 14 13  2  0
 16 15  1  0
 17 16  2  0
 18 16  1  0
 19 18  1  0
 20 19  1  0
 21 20  1  0
 22 21  1  1
 22 23  1  0
 24 22  1  0
 25 24  1  0
 26 24  2  0
M  END
$$$$
