DSR.pdb
     RDKit          3D

 26 25  0  0  1  0  0  0  0  0999 V2000
   13.2950  -21.1143   -4.3353 N   0  0  0  0  0  0  0  0  0  0  0  0
   13.3795  -22.4787   -3.8754 C   0  0  1  0  0  0  0  0  0  0  0  0
   14.0356  -23.2543   -5.0255 C   0  0  0  0  0  0  0  0  0  0  0  0
   13.1375  -23.2384   -6.1850 C   0  0  0  0  0  0  0  0  0  0  0  0
   11.9126  -23.4276   -6.0274 O   0  0  0  0  0  0  0  0  0  0  0  0
   14.2526  -22.6411   -2.7000 C   0  0  0  0  0  0  0  0  0  0  0  0
   15.3885  -23.1575   -2.8336 O   0  0  0  0  0  0  0  0  0  0  0  0
   13.6390  -23.0166   -7.4420 O   0  0  0  0  0  0  0  0  0  0  0  0
   13.2121  -21.0297    0.9493 O   0  0  0  0  0  0  0  0  0  0  0  0
   14.5666  -21.1963    0.6968 C   0  0  0  0  0  0  0  0  0  0  0  0
   14.8460  -22.3059   -0.3100 C   0  0  2  0  0  0  0  0  0  0  0  0
   13.8652  -22.2338   -1.3988 N   0  0  0  0  0  0  0  0  0  0  0  0
   14.7191  -23.6156    0.3481 C   0  0  0  0  0  0  0  0  0  0  0  0
   13.6036  -24.1594    0.4529 O   0  0  0  0  0  0  0  0  0  0  0  0
   17.1232  -28.3834   -3.1974 N   0  0  0  0  0  0  0  0  0  0  0  0
   17.1027  -26.9847   -3.4141 C   0  0  0  0  0  0  0  0  0  0  0  0
   16.7430  -26.5351   -4.5783 N   0  0  0  0  0  0  0  0  0  0  0  0
   17.4686  -26.0807   -2.3799 N   0  0  0  0  0  0  0  0  0  0  0  0
   17.9023  -26.5673   -1.0824 C   0  0  0  0  0  0  0  0  0  0  0  0
   16.7210  -26.9308   -0.2082 C   0  0  0  0  0  0  0  0  0  0  0  0
   16.8806  -26.3748    1.1806 C   0  0  0  0  0  0  0  0  0  0  0  0
   15.7190  -25.5213    1.5703 C   0  0  2  0  0  0  0  0  0  0  0  0
   15.8620  -24.2532    0.8586 N   0  0  0  0  0  0  0  0  0  0  0  0
   15.6392  -25.2343    3.0107 C   0  0  0  0  0  0  0  0  0  0  0  0
   16.1584  -24.0955    3.5999 O   0  0  0  0  0  0  0  0  0  0  0  0
   15.0709  -26.0463    3.8113 O   0  0  0  0  0  0  0  0  0  0  0  0
  2  1  1  6
  2  3  1  0
  3  4  1  0
  4  8  1  0
  4  5  2  0
  6  2  1  0
  7  6  2  0
  9 10  1  0
 11 10  1  1
 11 12  1  0
 12  6  1  0
 13 11  1  0
 13 23  1  0
 14 13  2  0
 16 15  1  0
 17 16  2  0
 18 16  1  0
 19 18  1  0
 20 19  1  0
 21 20  1  0
 22 21  1  1
 22 23  1  0
 24 22  1  0
 25 24  1  0
 26 24  2  0
M  END
$$$$
