DSR.pdb
     RDKit          3D

 26 25  0  0  1  0  0  0  0  0999 V2000
   21.2399   -4.8386  -15.7292 N   0  0  0  0  0  0  0  0  0  0  0  0
   21.3804   -5.8644  -14.7251 C   0  0  1  0  0  0  0  0  0  0  0  0
   20.9818   -5.1950  -13.4031 C   0  0  0  0  0  0  0  0  0  0  0  0
   22.0485   -4.2756  -12.9932 C   0  0  0  0  0  0  0  0  0  0  0  0
   21.8357   -3.0447  -12.9698 O   0  0  0  0  0  0  0  0  0  0  0  0
   20.4608   -6.9982  -14.9224 C   0  0  0  0  0  0  0  0  0  0  0  0
   19.3934   -6.8315  -15.5609 O   0  0  0  0  0  0  0  0  0  0  0  0
   23.2792   -4.7638  -12.6357 O   0  0  0  0  0  0  0  0  0  0  0  0
   19.6845  -11.7722  -15.0361 O   0  0  0  0  0  0  0  0  0  0  0  0
   20.5267  -10.6752  -14.9212 C   0  0  0  0  0  0  0  0  0  0  0  0
   19.7698   -9.3737  -14.6844 C   0  0  2  0  0  0  0  0  0  0  0  0
   20.7277   -8.2951  -14.4163 N   0  0  0  0  0  0  0  0  0  0  0  0
   18.8889   -9.5184  -13.5149 C   0  0  0  0  0  0  0  0  0  0  0  0
   19.3414   -9.3597  -12.3655 O   0  0  0  0  0  0  0  0  0  0  0  0
   15.4934   -5.6939   -7.6558 N   0  0  0  0  0  0  0  0  0  0  0  0
   14.5189   -6.7151   -7.7606 C   0  0  0  0  0  0  0  0  0  0  0  0
   13.4731   -6.6660   -6.9920 N   0  0  0  0  0  0  0  0  0  0  0  0
   14.6749   -7.7800   -8.6891 N   0  0  0  0  0  0  0  0  0  0  0  0
   15.5263   -7.6338   -9.8562 C   0  0  0  0  0  0  0  0  0  0  0  0
   15.5090   -8.8839  -10.7099 C   0  0  0  0  0  0  0  0  0  0  0  0
   16.4676   -8.7680  -11.8636 C   0  0  0  0  0  0  0  0  0  0  0  0
   16.6897  -10.0850  -12.5312 C   0  0  2  0  0  0  0  0  0  0  0  0
   17.5330   -9.8363  -13.6983 N   0  0  0  0  0  0  0  0  0  0  0  0
   15.4565  -10.7448  -12.9865 C   0  0  0  0  0  0  0  0  0  0  0  0
   14.7209  -11.6235  -12.2115 O   0  0  0  0  0  0  0  0  0  0  0  0
   14.9913  -10.5334  -14.1536 O   0  0  0  0  0  0  0  0  0  0  0  0
  2  1  1  6
  2  3  1  0
  3  4  1  0
  4  8  1  0
  4  5  2  0
  6  2  1  0
  7  6  2  0
  9 10  1  0
 11 10  1  1
 11 12  1  0
 12  6  1  0
 13 11  1  0
 13 23  1  0
 14 13  2  0
 16 15  1  0
 17 16  2  0
 18 16  1  0
 19 18  1  0
 20 19  1  0
 21 20  1  0
 22 21  1  6
 22 23  1  0
 24 22  1  0
 25 24  1  0
 26 24  2  0
M  END
$$$$
