LWG.pdb
     RDKit          3D

 27 28  0  0  1  0  0  0  0  0999 V2000
    7.3793  -12.4161   17.7267 C   0  0  0  0  0  0  0  0  0  0  0  0
    7.9567  -13.8134   18.0068 C   0  0  1  0  0  0  0  0  0  0  0  0
    8.5222  -14.3368   16.6870 C   0  0  0  0  0  0  0  0  0  0  0  0
    9.0545  -13.6694   19.0086 C   0  0  0  0  0  0  0  0  0  0  0  0
    9.5235  -14.9856   19.6025 C   0  0  2  0  0  0  0  0  0  0  0  0
    8.4759  -15.9689   19.3574 N   0  0  0  0  0  0  0  0  0  0  0  0
    9.6823  -14.8152   21.0747 C   0  0  0  0  0  0  0  0  0  0  0  0
   10.5229  -13.9894   21.4771 O   0  0  0  0  0  0  0  0  0  0  0  0
    8.8934  -15.5694   21.9821 N   0  0  0  0  0  0  0  0  0  0  0  0
    8.7057  -15.3931   23.3679 C   0  0  1  0  0  0  0  0  0  0  0  0
    7.2852  -15.6031   23.8808 C   0  0  0  0  0  0  0  0  0  0  0  0
    7.1058  -15.1092   25.2604 C   0  0  0  0  0  0  0  0  0  0  0  0
    6.9099  -15.8804   26.3729 C   0  0  0  0  0  0  0  0  0  0  0  0
    6.7602  -15.0324   27.4162 N   0  0  0  0  0  0  0  0  0  0  0  0
    6.8545  -13.7564   27.0023 C   0  0  0  0  0  0  0  0  0  0  0  0
    6.7668  -12.5400   27.6928 C   0  0  0  0  0  0  0  0  0  0  0  0
    6.8971  -11.3437   27.0217 C   0  0  0  0  0  0  0  0  0  0  0  0
    7.1148  -11.3926   25.6644 C   0  0  0  0  0  0  0  0  0  0  0  0
    7.2021  -12.5828   24.9829 C   0  0  0  0  0  0  0  0  0  0  0  0
    7.0725  -13.7968   25.6427 C   0  0  0  0  0  0  0  0  0  0  0  0
    9.7130  -15.9816   24.2606 C   0  0  0  0  0  0  0  0  0  0  0  0
    9.6875  -15.8723   25.5042 O   0  0  0  0  0  0  0  0  0  0  0  0
   10.7924  -16.7293   23.7015 N   0  0  0  0  0  0  0  0  0  0  0  0
   11.8713  -17.2436   24.5266 C   0  0  0  0  0  0  0  0  0  0  0  0
   11.5899  -18.6595   24.8610 C   0  0  0  0  0  0  0  0  0  0  0  0
   10.4787  -19.2122   24.6711 O   0  0  0  0  0  0  0  0  0  0  0  0
   12.6015  -19.4517   25.4228 O   0  0  0  0  0  0  0  0  0  0  0  0
  2  4  1  0
  2  1  1  6
  3  2  1  0
  5  4  1  0
  5  6  1  1
  7  5  1  0
  8  7  2  0
  9  7  1  0
 10  9  1  0
 10 11  1  1
 11 12  1  0
 12 20  1  0
 12 13  2  0
 13 14  1  0
 15 14  1  0
 15 16  2  0
 17 16  1  0
 18 17  2  0
 19 18  1  0
 19 20  2  0
 20 15  1  0
 21 22  2  0
 21 10  1  0
 23 21  1  0
 24 23  1  0
 25 24  1  0
 26 25  2  0
 27 25  1  0
M  END
$$$$
