LWG.pdb
     RDKit          3D

 27 28  0  0  1  0  0  0  0  0999 V2000
    6.9025  -12.5635   19.5735 C   0  0  0  0  0  0  0  0  0  0  0  0
    7.6617  -13.8979   19.6580 C   0  0  1  0  0  0  0  0  0  0  0  0
    8.7373  -13.8703   18.5728 C   0  0  0  0  0  0  0  0  0  0  0  0
    8.3008  -13.9836   21.0049 C   0  0  0  0  0  0  0  0  0  0  0  0
    9.0221  -15.2945   21.2626 C   0  0  2  0  0  0  0  0  0  0  0  0
    8.0116  -16.3441   21.3021 N   0  0  0  0  0  0  0  0  0  0  0  0
    9.6847  -15.2204   22.5956 C   0  0  0  0  0  0  0  0  0  0  0  0
   10.5132  -14.3099   22.7834 O   0  0  0  0  0  0  0  0  0  0  0  0
    9.3723  -16.1576   23.6148 N   0  0  0  0  0  0  0  0  0  0  0  0
    9.8977  -16.2740   24.9175 C   0  0  1  0  0  0  0  0  0  0  0  0
    8.8764  -16.4537   26.0353 C   0  0  0  0  0  0  0  0  0  0  0  0
    7.7121  -15.5586   25.8837 C   0  0  0  0  0  0  0  0  0  0  0  0
    6.4772  -15.9157   25.4166 C   0  0  0  0  0  0  0  0  0  0  0  0
    5.7219  -14.7934   25.4083 N   0  0  0  0  0  0  0  0  0  0  0  0
    6.4350  -13.7434   25.8525 C   0  0  0  0  0  0  0  0  0  0  0  0
    6.1034  -12.3925   26.0236 C   0  0  0  0  0  0  0  0  0  0  0  0
    7.0364  -11.4984   26.5018 C   0  0  0  0  0  0  0  0  0  0  0  0
    8.2893  -11.9807   26.8011 C   0  0  0  0  0  0  0  0  0  0  0  0
    8.6191  -13.3046   26.6357 C   0  0  0  0  0  0  0  0  0  0  0  0
    7.6922  -14.2186   26.1545 C   0  0  0  0  0  0  0  0  0  0  0  0
   11.0720  -17.1394   25.0914 C   0  0  0  0  0  0  0  0  0  0  0  0
   11.6513  -17.3127   26.1838 O   0  0  0  0  0  0  0  0  0  0  0  0
   11.6004  -17.8370   23.9641 N   0  0  0  0  0  0  0  0  0  0  0  0
   12.6853  -18.7931   24.0993 C   0  0  0  0  0  0  0  0  0  0  0  0
   13.9623  -18.1256   23.7536 C   0  0  0  0  0  0  0  0  0  0  0  0
   14.0514  -16.9136   23.4382 O   0  0  0  0  0  0  0  0  0  0  0  0
   15.1549  -18.8631   23.7705 O   0  0  0  0  0  0  0  0  0  0  0  0
  2  4  1  0
  2  1  1  1
  3  2  1  0
  5  4  1  0
  5  6  1  1
  7  5  1  0
  8  7  2  0
  9  7  1  0
 10  9  1  0
 10 11  1  1
 11 12  1  0
 12 20  1  0
 12 13  2  0
 13 14  1  0
 15 14  1  0
 15 16  2  0
 17 16  1  0
 18 17  2  0
 19 18  1  0
 19 20  2  0
 20 15  1  0
 21 22  2  0
 21 10  1  0
 23 21  1  0
 24 23  1  0
 25 24  1  0
 26 25  2  0
 27 25  1  0
M  END
$$$$
