LWG.pdb
     RDKit          3D

 27 28  0  0  1  0  0  0  0  0999 V2000
    6.9143  -12.4236   19.7611 C   0  0  0  0  0  0  0  0  0  0  0  0
    7.5240  -13.8331   19.8368 C   0  0  1  0  0  0  0  0  0  0  0  0
    8.4239  -13.9978   18.6126 C   0  0  0  0  0  0  0  0  0  0  0  0
    8.3412  -13.9186   21.0836 C   0  0  0  0  0  0  0  0  0  0  0  0
    8.9538  -15.2865   21.3263 C   0  0  2  0  0  0  0  0  0  0  0  0
    7.8584  -16.2454   21.3953 N   0  0  0  0  0  0  0  0  0  0  0  0
    9.6551  -15.2686   22.6414 C   0  0  0  0  0  0  0  0  0  0  0  0
   10.5515  -14.4211   22.8109 O   0  0  0  0  0  0  0  0  0  0  0  0
    9.3032  -16.1874   23.6644 N   0  0  0  0  0  0  0  0  0  0  0  0
    9.7744  -16.2773   24.9898 C   0  0  1  0  0  0  0  0  0  0  0  0
    8.7171  -16.5346   26.0578 C   0  0  0  0  0  0  0  0  0  0  0  0
    7.5836  -15.5931   25.9665 C   0  0  0  0  0  0  0  0  0  0  0  0
    6.3242  -15.8895   25.5229 C   0  0  0  0  0  0  0  0  0  0  0  0
    5.6115  -14.7406   25.5706 N   0  0  0  0  0  0  0  0  0  0  0  0
    6.3750  -13.7323   26.0275 C   0  0  0  0  0  0  0  0  0  0  0  0
    6.0989  -12.3763   26.2497 C   0  0  0  0  0  0  0  0  0  0  0  0
    7.0771  -11.5329   26.7295 C   0  0  0  0  0  0  0  0  0  0  0  0
    8.3185  -12.0701   26.9788 C   0  0  0  0  0  0  0  0  0  0  0  0
    8.5940  -13.3992   26.7631 C   0  0  0  0  0  0  0  0  0  0  0  0
    7.6211  -14.2626   26.2795 C   0  0  0  0  0  0  0  0  0  0  0  0
   10.9960  -17.0619   25.2147 C   0  0  0  0  0  0  0  0  0  0  0  0
   11.4848  -17.2776   26.3432 O   0  0  0  0  0  0  0  0  0  0  0  0
   11.6821  -17.6244   24.0970 N   0  0  0  0  0  0  0  0  0  0  0  0
   12.9122  -18.3794   24.2590 C   0  0  0  0  0  0  0  0  0  0  0  0
   13.4331  -18.7458   22.9209 C   0  0  0  0  0  0  0  0  0  0  0  0
   14.0624  -17.9534   22.1778 O   0  0  0  0  0  0  0  0  0  0  0  0
   13.2266  -20.0430   22.4298 O   0  0  0  0  0  0  0  0  0  0  0  0
  2  4  1  0
  2  1  1  6
  3  2  1  0
  5  4  1  0
  5  6  1  1
  7  5  1  0
  8  7  2  0
  9  7  1  0
 10  9  1  0
 10 11  1  1
 11 12  1  0
 12 20  1  0
 12 13  2  0
 13 14  1  0
 15 14  1  0
 15 16  2  0
 17 16  1  0
 18 17  2  0
 19 18  1  0
 19 20  2  0
 20 15  1  0
 21 22  2  0
 21 10  1  0
 23 21  1  0
 24 23  1  0
 25 24  1  0
 26 25  2  0
 27 25  1  0
M  END
$$$$
