LWG.pdb
     RDKit          3D

 27 28  0  0  1  0  0  0  0  0999 V2000
    7.4038  -12.0067   19.1698 C   0  0  0  0  0  0  0  0  0  0  0  0
    7.7565  -13.5032   19.1910 C   0  0  1  0  0  0  0  0  0  0  0  0
    8.4279  -13.8238   17.8561 C   0  0  0  0  0  0  0  0  0  0  0  0
    8.7152  -13.7380   20.3114 C   0  0  0  0  0  0  0  0  0  0  0  0
    9.0543  -15.2008   20.5362 C   0  0  2  0  0  0  0  0  0  0  0  0
    7.8259  -15.9632   20.3517 N   0  0  0  0  0  0  0  0  0  0  0  0
    9.5155  -15.3730   21.9430 C   0  0  0  0  0  0  0  0  0  0  0  0
   10.5439  -14.7661   22.2962 O   0  0  0  0  0  0  0  0  0  0  0  0
    8.7974  -16.1992   22.8465 N   0  0  0  0  0  0  0  0  0  0  0  0
    9.0778  -16.5122   24.1919 C   0  0  1  0  0  0  0  0  0  0  0  0
    7.8855  -16.5002   25.1422 C   0  0  0  0  0  0  0  0  0  0  0  0
    7.9756  -15.4208   26.1454 C   0  0  0  0  0  0  0  0  0  0  0  0
    8.5407  -15.5202   27.3869 C   0  0  0  0  0  0  0  0  0  0  0  0
    8.3804  -14.3189   27.9877 N   0  0  0  0  0  0  0  0  0  0  0  0
    7.7356  -13.4670   27.1712 C   0  0  0  0  0  0  0  0  0  0  0  0
    7.3393  -12.1328   27.3353 C   0  0  0  0  0  0  0  0  0  0  0  0
    6.6742  -11.4714   26.3260 C   0  0  0  0  0  0  0  0  0  0  0  0
    6.4197  -12.1655   25.1662 C   0  0  0  0  0  0  0  0  0  0  0  0
    6.8067  -13.4738   25.0001 C   0  0  0  0  0  0  0  0  0  0  0  0
    7.4767  -14.1554   26.0063 C   0  0  0  0  0  0  0  0  0  0  0  0
    9.9787  -17.6452   24.4424 C   0  0  0  0  0  0  0  0  0  0  0  0
    9.7637  -18.8063   24.0365 O   0  0  0  0  0  0  0  0  0  0  0  0
   11.1776  -17.4347   25.1873 N   0  0  0  0  0  0  0  0  0  0  0  0
   12.1756  -18.4793   25.3366 C   0  0  0  0  0  0  0  0  0  0  0  0
   11.8404  -19.3005   26.5238 C   0  0  0  0  0  0  0  0  0  0  0  0
   10.7921  -19.1532   27.1987 O   0  0  0  0  0  0  0  0  0  0  0  0
   12.7244  -20.3058   26.9413 O   0  0  0  0  0  0  0  0  0  0  0  0
  2  4  1  0
  2  1  1  6
  3  2  1  0
  5  4  1  0
  5  6  1  1
  7  5  1  0
  8  7  2  0
  9  7  1  0
 10  9  1  0
 10 11  1  1
 11 12  1  0
 12 20  1  0
 12 13  2  0
 13 14  1  0
 15 14  1  0
 15 16  2  0
 17 16  1  0
 18 17  2  0
 19 18  1  0
 19 20  2  0
 20 15  1  0
 21 22  2  0
 21 10  1  0
 23 21  1  0
 24 23  1  0
 25 24  1  0
 26 25  2  0
 27 25  1  0
M  END
$$$$
