LWG.pdb
     RDKit          3D

 27 28  0  0  1  0  0  0  0  0999 V2000
    7.4926  -12.4879   19.7524 C   0  0  0  0  0  0  0  0  0  0  0  0
    7.7117  -13.9718   20.0907 C   0  0  1  0  0  0  0  0  0  0  0  0
    7.9355  -14.7040   18.7681 C   0  0  0  0  0  0  0  0  0  0  0  0
    8.9329  -14.0778   20.9433 C   0  0  0  0  0  0  0  0  0  0  0  0
    9.2198  -15.4846   21.4369 C   0  0  2  0  0  0  0  0  0  0  0  0
    7.9356  -16.1479   21.6246 N   0  0  0  0  0  0  0  0  0  0  0  0
    9.9079  -15.3964   22.7561 C   0  0  0  0  0  0  0  0  0  0  0  0
   10.9021  -14.6518   22.8446 O   0  0  0  0  0  0  0  0  0  0  0  0
    9.4363  -16.1359   23.8720 N   0  0  0  0  0  0  0  0  0  0  0  0
    9.9099  -16.1561   25.1993 C   0  0  1  0  0  0  0  0  0  0  0  0
    8.8476  -16.2900   26.2849 C   0  0  0  0  0  0  0  0  0  0  0  0
    7.6910  -15.4020   26.0537 C   0  0  0  0  0  0  0  0  0  0  0  0
    6.4636  -15.7834   25.5861 C   0  0  0  0  0  0  0  0  0  0  0  0
    5.7143  -14.6611   25.4916 N   0  0  0  0  0  0  0  0  0  0  0  0
    6.4239  -13.5877   25.8820 C   0  0  0  0  0  0  0  0  0  0  0  0
    6.0959  -12.2273   25.9602 C   0  0  0  0  0  0  0  0  0  0  0  0
    7.0239  -11.3082   26.3988 C   0  0  0  0  0  0  0  0  0  0  0  0
    8.2683  -11.7752   26.7528 C   0  0  0  0  0  0  0  0  0  0  0  0
    8.5946  -13.1081   26.6785 C   0  0  0  0  0  0  0  0  0  0  0  0
    7.6726  -14.0474   26.2383 C   0  0  0  0  0  0  0  0  0  0  0  0
   11.0952  -16.9789   25.4752 C   0  0  0  0  0  0  0  0  0  0  0  0
   11.7058  -16.9740   26.5643 O   0  0  0  0  0  0  0  0  0  0  0  0
   11.5976  -17.8455   24.4587 N   0  0  0  0  0  0  0  0  0  0  0  0
   12.8327  -18.5896   24.6333 C   0  0  0  0  0  0  0  0  0  0  0  0
   12.5878  -19.7203   25.5592 C   0  0  0  0  0  0  0  0  0  0  0  0
   11.4637  -19.9866   26.0511 O   0  0  0  0  0  0  0  0  0  0  0  0
   13.6517  -20.5573   25.9253 O   0  0  0  0  0  0  0  0  0  0  0  0
  2  4  1  0
  2  1  1  6
  3  2  1  0
  5  4  1  0
  5  6  1  1
  7  5  1  0
  8  7  2  0
  9  7  1  0
 10  9  1  0
 10 11  1  1
 11 12  1  0
 12 20  1  0
 12 13  2  0
 13 14  1  0
 15 14  1  0
 15 16  2  0
 17 16  1  0
 18 17  2  0
 19 18  1  0
 19 20  2  0
 20 15  1  0
 21 22  2  0
 21 10  1  0
 23 21  1  0
 24 23  1  0
 25 24  1  0
 26 25  2  0
 27 25  1  0
M  END
$$$$
