LWG.pdb
     RDKit          3D

 27 28  0  0  1  0  0  0  0  0999 V2000
    7.2863  -12.3562   19.5473 C   0  0  0  0  0  0  0  0  0  0  0  0
    7.6220  -13.8393   19.7749 C   0  0  1  0  0  0  0  0  0  0  0  0
    8.2447  -14.3610   18.4804 C   0  0  0  0  0  0  0  0  0  0  0  0
    8.6148  -13.9248   20.8869 C   0  0  0  0  0  0  0  0  0  0  0  0
    8.9733  -15.3454   21.2853 C   0  0  2  0  0  0  0  0  0  0  0  0
    7.7233  -16.0601   21.5114 N   0  0  0  0  0  0  0  0  0  0  0  0
    9.7368  -15.3040   22.5646 C   0  0  0  0  0  0  0  0  0  0  0  0
   10.7625  -14.5991   22.6071 O   0  0  0  0  0  0  0  0  0  0  0  0
    9.2998  -16.0424   23.6952 N   0  0  0  0  0  0  0  0  0  0  0  0
    9.8432  -16.0982   24.9945 C   0  0  1  0  0  0  0  0  0  0  0  0
    8.8506  -16.3587   26.1223 C   0  0  0  0  0  0  0  0  0  0  0  0
    7.6594  -15.4910   26.0357 C   0  0  0  0  0  0  0  0  0  0  0  0
    6.4023  -15.8834   25.6664 C   0  0  0  0  0  0  0  0  0  0  0  0
    5.6241  -14.7771   25.6885 N   0  0  0  0  0  0  0  0  0  0  0  0
    6.3441  -13.7031   26.0578 C   0  0  0  0  0  0  0  0  0  0  0  0
    5.9963  -12.3555   26.2234 C   0  0  0  0  0  0  0  0  0  0  0  0
    6.9414  -11.4321   26.6140 C   0  0  0  0  0  0  0  0  0  0  0  0
    8.2226  -11.8821   26.8327 C   0  0  0  0  0  0  0  0  0  0  0  0
    8.5685  -13.2025   26.6722 C   0  0  0  0  0  0  0  0  0  0  0  0
    7.6297  -14.1457   26.2787 C   0  0  0  0  0  0  0  0  0  0  0  0
   11.0923  -16.8520   25.1665 C   0  0  0  0  0  0  0  0  0  0  0  0
   11.7409  -16.8873   26.2329 O   0  0  0  0  0  0  0  0  0  0  0  0
   11.6160  -17.5986   24.0688 N   0  0  0  0  0  0  0  0  0  0  0  0
   12.9310  -18.2127   24.1229 C   0  0  0  0  0  0  0  0  0  0  0  0
   12.7920  -19.6092   24.5987 C   0  0  0  0  0  0  0  0  0  0  0  0
   11.6949  -20.1309   24.9156 O   0  0  0  0  0  0  0  0  0  0  0  0
   13.9320  -20.4179   24.7122 O   0  0  0  0  0  0  0  0  0  0  0  0
  2  4  1  0
  2  1  1  6
  3  2  1  0
  5  4  1  0
  5  6  1  1
  7  5  1  0
  8  7  2  0
  9  7  1  0
 10  9  1  0
 10 11  1  1
 11 12  1  0
 12 20  1  0
 12 13  2  0
 13 14  1  0
 15 14  1  0
 15 16  2  0
 17 16  1  0
 18 17  2  0
 19 18  1  0
 19 20  2  0
 20 15  1  0
 21 22  2  0
 21 10  1  0
 23 21  1  0
 24 23  1  0
 25 24  1  0
 26 25  2  0
 27 25  1  0
M  END
$$$$
