LWG.pdb
     RDKit          3D

 27 28  0  0  1  0  0  0  0  0999 V2000
    6.9584  -12.5531   19.7378 C   0  0  0  0  0  0  0  0  0  0  0  0
    7.6137  -13.9416   19.8212 C   0  0  1  0  0  0  0  0  0  0  0  0
    8.4162  -14.1357   18.5353 C   0  0  0  0  0  0  0  0  0  0  0  0
    8.5311  -13.9515   20.9993 C   0  0  0  0  0  0  0  0  0  0  0  0
    9.1527  -15.3070   21.2850 C   0  0  2  0  0  0  0  0  0  0  0  0
    8.0747  -16.2878   21.2782 N   0  0  0  0  0  0  0  0  0  0  0  0
    9.7604  -15.2759   22.6456 C   0  0  0  0  0  0  0  0  0  0  0  0
   10.5772  -14.3703   22.8972 O   0  0  0  0  0  0  0  0  0  0  0  0
    9.4104  -16.2474   23.6194 N   0  0  0  0  0  0  0  0  0  0  0  0
    9.8113  -16.3514   24.9667 C   0  0  1  0  0  0  0  0  0  0  0  0
    8.7030  -16.6444   25.9720 C   0  0  0  0  0  0  0  0  0  0  0  0
    7.5734  -15.7010   25.8558 C   0  0  0  0  0  0  0  0  0  0  0  0
    6.3089  -16.0067   25.4337 C   0  0  0  0  0  0  0  0  0  0  0  0
    5.6023  -14.8532   25.4454 N   0  0  0  0  0  0  0  0  0  0  0  0
    6.3745  -13.8329   25.8590 C   0  0  0  0  0  0  0  0  0  0  0  0
    6.1069  -12.4684   26.0341 C   0  0  0  0  0  0  0  0  0  0  0  0
    7.0933  -11.6132   26.4749 C   0  0  0  0  0  0  0  0  0  0  0  0
    8.3341  -12.1474   26.7333 C   0  0  0  0  0  0  0  0  0  0  0  0
    8.6012  -13.4849   26.5638 C   0  0  0  0  0  0  0  0  0  0  0  0
    7.6201  -14.3602   26.1199 C   0  0  0  0  0  0  0  0  0  0  0  0
   11.0329  -17.1187   25.2447 C   0  0  0  0  0  0  0  0  0  0  0  0
   11.4816  -17.3180   26.3927 O   0  0  0  0  0  0  0  0  0  0  0  0
   11.7672  -17.6830   24.1589 N   0  0  0  0  0  0  0  0  0  0  0  0
   12.9656  -18.4736   24.3785 C   0  0  0  0  0  0  0  0  0  0  0  0
   13.4408  -19.0008   23.0777 C   0  0  0  0  0  0  0  0  0  0  0  0
   12.7709  -18.9451   22.0173 O   0  0  0  0  0  0  0  0  0  0  0  0
   14.7053  -19.6014   22.9952 O   0  0  0  0  0  0  0  0  0  0  0  0
  2  4  1  0
  2  1  1  6
  3  2  1  0
  5  4  1  0
  5  6  1  1
  7  5  1  0
  8  7  2  0
  9  7  1  0
 10  9  1  0
 10 11  1  1
 11 12  1  0
 12 20  1  0
 12 13  2  0
 13 14  1  0
 15 14  1  0
 15 16  2  0
 17 16  1  0
 18 17  2  0
 19 18  1  0
 19 20  2  0
 20 15  1  0
 21 22  2  0
 21 10  1  0
 23 21  1  0
 24 23  1  0
 25 24  1  0
 26 25  2  0
 27 25  1  0
M  END
$$$$
