LWG.pdb
     RDKit          3D

 27 28  0  0  1  0  0  0  0  0999 V2000
    6.7681  -12.4997   19.7114 C   0  0  0  0  0  0  0  0  0  0  0  0
    7.5521  -13.8222   19.7365 C   0  0  1  0  0  0  0  0  0  0  0  0
    8.5737  -13.7585   18.6016 C   0  0  0  0  0  0  0  0  0  0  0  0
    8.2564  -13.9192   21.0495 C   0  0  0  0  0  0  0  0  0  0  0  0
    9.0274  -15.2131   21.2414 C   0  0  2  0  0  0  0  0  0  0  0  0
    8.0565  -16.3001   21.2379 N   0  0  0  0  0  0  0  0  0  0  0  0
    9.6972  -15.1765   22.5724 C   0  0  0  0  0  0  0  0  0  0  0  0
   10.5193  -14.2656   22.7848 O   0  0  0  0  0  0  0  0  0  0  0  0
    9.3984  -16.1486   23.5625 N   0  0  0  0  0  0  0  0  0  0  0  0
    9.8150  -16.2161   24.9073 C   0  0  1  0  0  0  0  0  0  0  0  0
    8.7252  -16.5223   25.9288 C   0  0  0  0  0  0  0  0  0  0  0  0
    7.5710  -15.6092   25.8119 C   0  0  0  0  0  0  0  0  0  0  0  0
    6.3086  -15.9537   25.4142 C   0  0  0  0  0  0  0  0  0  0  0  0
    5.5738  -14.8178   25.4149 N   0  0  0  0  0  0  0  0  0  0  0  0
    6.3263  -13.7713   25.7981 C   0  0  0  0  0  0  0  0  0  0  0  0
    6.0276  -12.4107   25.9517 C   0  0  0  0  0  0  0  0  0  0  0  0
    6.9986  -11.5234   26.3620 C   0  0  0  0  0  0  0  0  0  0  0  0
    8.2559  -12.0221   26.6119 C   0  0  0  0  0  0  0  0  0  0  0  0
    8.5536  -13.3555   26.4633 C   0  0  0  0  0  0  0  0  0  0  0  0
    7.5882  -14.2629   26.0503 C   0  0  0  0  0  0  0  0  0  0  0  0
   11.0608  -16.9425   25.1871 C   0  0  0  0  0  0  0  0  0  0  0  0
   11.4629  -17.2143   26.3375 O   0  0  0  0  0  0  0  0  0  0  0  0
   11.8766  -17.3775   24.0999 N   0  0  0  0  0  0  0  0  0  0  0  0
   13.1113  -18.1103   24.3190 C   0  0  0  0  0  0  0  0  0  0  0  0
   13.6983  -18.4696   23.0066 C   0  0  0  0  0  0  0  0  0  0  0  0
   13.5338  -17.7934   21.9617 O   0  0  0  0  0  0  0  0  0  0  0  0
   14.4860  -19.6243   22.8942 O   0  0  0  0  0  0  0  0  0  0  0  0
  2  4  1  0
  2  1  1  1
  3  2  1  0
  5  4  1  0
  5  6  1  1
  7  5  1  0
  8  7  2  0
  9  7  1  0
 10  9  1  0
 10 11  1  1
 11 12  1  0
 12 20  1  0
 12 13  2  0
 13 14  1  0
 15 14  1  0
 15 16  2  0
 17 16  1  0
 18 17  2  0
 19 18  1  0
 19 20  2  0
 20 15  1  0
 21 22  2  0
 21 10  1  0
 23 21  1  0
 24 23  1  0
 25 24  1  0
 26 25  2  0
 27 25  1  0
M  END
$$$$
