LWG.pdb
     RDKit          3D

 27 28  0  0  1  0  0  0  0  0999 V2000
    7.0835  -12.6732   18.3837 C   0  0  0  0  0  0  0  0  0  0  0  0
    7.8602  -14.0002   18.3845 C   0  0  1  0  0  0  0  0  0  0  0  0
    8.1323  -14.3604   16.9244 C   0  0  0  0  0  0  0  0  0  0  0  0
    9.1508  -13.7819   19.1031 C   0  0  0  0  0  0  0  0  0  0  0  0
    9.7692  -15.0523   19.6590 C   0  0  2  0  0  0  0  0  0  0  0  0
    8.8838  -16.1550   19.3065 N   0  0  0  0  0  0  0  0  0  0  0  0
    9.8278  -14.9441   21.1444 C   0  0  0  0  0  0  0  0  0  0  0  0
   10.6032  -14.1028   21.6360 O   0  0  0  0  0  0  0  0  0  0  0  0
    9.0189  -15.7727   21.9651 N   0  0  0  0  0  0  0  0  0  0  0  0
    8.6960  -15.6407   23.3308 C   0  0  1  0  0  0  0  0  0  0  0  0
    7.2091  -15.5685   23.6609 C   0  0  0  0  0  0  0  0  0  0  0  0
    6.9613  -15.1457   25.0535 C   0  0  0  0  0  0  0  0  0  0  0  0
    6.4950  -15.9392   26.0652 C   0  0  0  0  0  0  0  0  0  0  0  0
    6.3818  -15.1525   27.1598 N   0  0  0  0  0  0  0  0  0  0  0  0
    6.7592  -13.8936   26.8752 C   0  0  0  0  0  0  0  0  0  0  0  0
    6.8167  -12.7340   27.6602 C   0  0  0  0  0  0  0  0  0  0  0  0
    7.2452  -11.5423   27.1172 C   0  0  0  0  0  0  0  0  0  0  0  0
    7.6101  -11.5386   25.7911 C   0  0  0  0  0  0  0  0  0  0  0  0
    7.5561  -12.6731   25.0173 C   0  0  0  0  0  0  0  0  0  0  0  0
    7.1264  -13.8815   25.5475 C   0  0  0  0  0  0  0  0  0  0  0  0
    9.4369  -16.4836   24.2788 C   0  0  0  0  0  0  0  0  0  0  0  0
    9.3123  -16.4086   25.5189 O   0  0  0  0  0  0  0  0  0  0  0  0
   10.3565  -17.4548   23.7812 N   0  0  0  0  0  0  0  0  0  0  0  0
   10.9654  -18.4447   24.6523 C   0  0  0  0  0  0  0  0  0  0  0  0
   12.3232  -17.9859   25.0287 C   0  0  0  0  0  0  0  0  0  0  0  0
   12.7557  -16.8296   24.8004 O   0  0  0  0  0  0  0  0  0  0  0  0
   13.1971  -18.8705   25.6770 O   0  0  0  0  0  0  0  0  0  0  0  0
  2  4  1  0
  2  1  1  6
  3  2  1  0
  5  4  1  0
  5  6  1  1
  7  5  1  0
  8  7  2  0
  9  7  1  0
 10  9  1  0
 10 11  1  6
 11 12  1  0
 12 20  1  0
 12 13  2  0
 13 14  1  0
 15 14  1  0
 15 16  2  0
 17 16  1  0
 18 17  2  0
 19 18  1  0
 19 20  2  0
 20 15  1  0
 21 22  2  0
 21 10  1  0
 23 21  1  0
 24 23  1  0
 25 24  1  0
 26 25  2  0
 27 25  1  0
M  END
$$$$
