HNA.pdb
     RDKit          3D

 24 24  0  0  1  0  0  0  0  0999 V2000
   22.5183  -11.7880  -18.0131 N   0  0  0  0  0  0  0  0  0  0  0  0
   22.7686  -11.1272  -16.7667 C   0  0  1  0  0  0  0  0  0  0  0  0
   24.2043  -10.6059  -16.8191 C   0  0  0  0  0  0  0  0  0  0  0  0
   25.1215  -11.7580  -16.7777 C   0  0  0  0  0  0  0  0  0  0  0  0
   25.2846  -12.6189  -15.7343 C   0  0  0  0  0  0  0  0  0  0  0  0
   26.2141  -13.5456  -16.0728 N   0  0  0  0  0  0  0  0  0  0  0  0
   26.6103  -13.2408  -17.3218 C   0  0  0  0  0  0  0  0  0  0  0  0
   25.9420  -12.1460  -17.7554 N   0  0  0  0  0  0  0  0  0  0  0  0
   21.8893   -9.9743  -16.5345 C   0  0  0  0  0  0  0  0  0  0  0  0
   21.5936   -9.2536  -17.5289 O   0  0  0  0  0  0  0  0  0  0  0  0
   18.2698  -11.0010  -13.8328 N   0  0  0  0  0  0  0  0  0  0  0  0
   18.5039   -9.9375  -14.7420 C   0  0  0  0  0  0  0  0  0  0  0  0
   18.0390  -10.0570  -15.8978 O   0  0  0  0  0  0  0  0  0  0  0  0
   19.2741   -8.7776  -14.2572 C   0  0  0  0  0  0  0  0  0  0  0  0
   20.4750   -8.4749  -15.1220 C   0  0  2  0  0  0  0  0  0  0  0  0
   21.3498   -9.6167  -15.2653 N   0  0  0  0  0  0  0  0  0  0  0  0
   21.2002   -7.2733  -14.6637 C   0  0  0  0  0  0  0  0  0  0  0  0
   22.3384   -7.3975  -14.1731 O   0  0  0  0  0  0  0  0  0  0  0  0
   22.2905   -5.1791  -13.1415 C   0  0  0  0  0  0  0  0  0  0  0  0
   21.3445   -4.8359  -14.3040 C   0  0  2  0  0  0  0  0  0  0  0  0
   20.6413   -5.9846  -14.7649 N   0  0  0  0  0  0  0  0  0  0  0  0
   22.1428   -4.1561  -15.3191 C   0  0  0  0  0  0  0  0  0  0  0  0
   22.2874   -4.7223  -16.5697 O   0  0  0  0  0  0  0  0  0  0  0  0
   22.7115   -3.0654  -15.1037 O   0  0  0  0  0  0  0  0  0  0  0  0
  2  1  1  6
  3  2  1  0
  4  8  1  0
  4  3  1  0
  5  4  2  0
  6  5  1  0
  6  7  1  0
  7  8  2  0
  9 10  2  0
  9  2  1  0
 12 14  1  0
 12 11  1  0
 13 12  2  0
 15 14  1  1
 15 16  1  0
 16  9  1  0
 17 15  1  0
 18 17  2  0
 20 19  1  1
 20 21  1  0
 21 17  1  0
 22 23  1  0
 22 20  1  0
 24 22  2  0
M  END
$$$$
