HNA.pdb
     RDKit          3D

 24 24  0  0  1  0  0  0  0  0999 V2000
   25.7714  -32.3771  -18.3723 N   0  0  0  0  0  0  0  0  0  0  0  0
   25.4358  -31.6373  -17.1919 C   0  0  1  0  0  0  0  0  0  0  0  0
   26.4320  -30.4826  -17.0914 C   0  0  0  0  0  0  0  0  0  0  0  0
   27.7383  -31.0268  -16.6819 C   0  0  0  0  0  0  0  0  0  0  0  0
   28.8641  -31.0775  -17.4478 C   0  0  0  0  0  0  0  0  0  0  0  0
   29.8599  -31.6459  -16.7249 N   0  0  0  0  0  0  0  0  0  0  0  0
   29.3314  -31.9373  -15.5226 C   0  0  0  0  0  0  0  0  0  0  0  0
   28.0317  -31.5588  -15.4943 N   0  0  0  0  0  0  0  0  0  0  0  0
   24.0887  -31.0546  -17.2359 C   0  0  0  0  0  0  0  0  0  0  0  0
   23.5473  -30.9160  -18.3688 O   0  0  0  0  0  0  0  0  0  0  0  0
   18.8262  -30.8647  -15.5464 N   0  0  0  0  0  0  0  0  0  0  0  0
   19.7879  -29.9068  -15.1338 C   0  0  0  0  0  0  0  0  0  0  0  0
   19.3851  -28.7397  -14.9293 O   0  0  0  0  0  0  0  0  0  0  0  0
   21.1826  -30.3584  -14.9782 C   0  0  0  0  0  0  0  0  0  0  0  0
   22.0164  -30.1054  -16.2121 C   0  0  2  0  0  0  0  0  0  0  0  0
   23.3549  -30.6370  -16.0884 N   0  0  0  0  0  0  0  0  0  0  0  0
   22.0179  -28.6804  -16.5984 C   0  0  0  0  0  0  0  0  0  0  0  0
   22.9111  -27.9305  -16.1609 O   0  0  0  0  0  0  0  0  0  0  0  0
   20.7346  -25.8999  -16.5058 C   0  0  0  0  0  0  0  0  0  0  0  0
   21.0056  -26.7509  -17.7573 C   0  0  2  0  0  0  0  0  0  0  0  0
   21.0352  -28.1407  -17.4506 N   0  0  0  0  0  0  0  0  0  0  0  0
   22.2229  -26.2317  -18.3727 C   0  0  0  0  0  0  0  0  0  0  0  0
   22.9187  -25.2096  -17.7590 O   0  0  0  0  0  0  0  0  0  0  0  0
   22.6716  -26.6784  -19.4490 O   0  0  0  0  0  0  0  0  0  0  0  0
  2  1  1  6
  3  2  1  0
  4  8  1  0
  4  3  1  0
  5  4  2  0
  6  5  1  0
  6  7  1  0
  7  8  2  0
  9 10  2  0
  9  2  1  0
 12 14  1  0
 12 11  1  0
 13 12  2  0
 15 14  1  1
 15 16  1  0
 16  9  1  0
 17 15  1  0
 18 17  2  0
 20 19  1  1
 20 21  1  0
 21 17  1  0
 22 23  1  0
 22 20  1  0
 24 22  2  0
M  END
$$$$
