HNA.pdb
     RDKit          3D

 24 24  0  0  1  0  0  0  0  0999 V2000
   15.2429  -10.6206  -14.7236 N   0  0  0  0  0  0  0  0  0  0  0  0
   16.5653  -10.5735  -14.1739 C   0  0  1  0  0  0  0  0  0  0  0  0
   17.5354  -10.8492  -15.3222 C   0  0  0  0  0  0  0  0  0  0  0  0
   17.4886  -12.2873  -15.6383 C   0  0  0  0  0  0  0  0  0  0  0  0
   18.2988  -13.2516  -15.1186 C   0  0  0  0  0  0  0  0  0  0  0  0
   17.9508  -14.4489  -15.6504 N   0  0  0  0  0  0  0  0  0  0  0  0
   16.9297  -14.2034  -16.4912 C   0  0  0  0  0  0  0  0  0  0  0  0
   16.6451  -12.8797  -16.4851 N   0  0  0  0  0  0  0  0  0  0  0  0
   16.9122   -9.2633  -13.6088 C   0  0  0  0  0  0  0  0  0  0  0  0
   16.4367   -8.2378  -14.1726 O   0  0  0  0  0  0  0  0  0  0  0  0
   18.7044   -5.3777  -10.8154 N   0  0  0  0  0  0  0  0  0  0  0  0
   18.0418   -6.2893   -9.9537 C   0  0  0  0  0  0  0  0  0  0  0  0
   17.7996   -5.9048   -8.7877 O   0  0  0  0  0  0  0  0  0  0  0  0
   17.6909   -7.6145  -10.4962 C   0  0  0  0  0  0  0  0  0  0  0  0
   18.0268   -7.7495  -11.9628 C   0  0  2  0  0  0  0  0  0  0  0  0
   17.7471   -9.0738  -12.4700 N   0  0  0  0  0  0  0  0  0  0  0  0
   19.4090   -7.3221  -12.2571 C   0  0  0  0  0  0  0  0  0  0  0  0
   20.3562   -7.8622  -11.6549 O   0  0  0  0  0  0  0  0  0  0  0  0
   21.0851   -5.5602  -15.0700 C   0  0  0  0  0  0  0  0  0  0  0  0
   21.0258   -6.0389  -13.6101 C   0  0  2  0  0  0  0  0  0  0  0  0
   19.6904   -6.3173  -13.2029 N   0  0  0  0  0  0  0  0  0  0  0  0
   21.7182   -5.0392  -12.8032 C   0  0  0  0  0  0  0  0  0  0  0  0
   23.0586   -5.1998  -12.5152 O   0  0  0  0  0  0  0  0  0  0  0  0
   21.1424   -4.0266  -12.3533 O   0  0  0  0  0  0  0  0  0  0  0  0
  2  1  1  6
  3  2  1  0
  4  8  1  0
  4  3  1  0
  5  4  2  0
  6  5  1  0
  6  7  1  0
  7  8  2  0
  9 10  2  0
  9  2  1  0
 12 14  1  0
 12 11  1  0
 13 12  2  0
 15 14  1  1
 15 16  1  0
 16  9  1  0
 17 15  1  0
 18 17  2  0
 20 19  1  6
 20 21  1  0
 21 17  1  0
 22 23  1  0
 22 20  1  0
 24 22  2  0
M  END
$$$$
