HNA.pdb
     RDKit          3D

 24 24  0  0  1  0  0  0  0  0999 V2000
   14.4379  -11.6366  -13.8912 N   0  0  0  0  0  0  0  0  0  0  0  0
   15.7303  -11.2751  -13.3891 C   0  0  1  0  0  0  0  0  0  0  0  0
   16.7132  -11.4080  -14.5518 C   0  0  0  0  0  0  0  0  0  0  0  0
   16.7853  -12.8264  -14.9430 C   0  0  0  0  0  0  0  0  0  0  0  0
   17.6238  -13.7636  -14.4186 C   0  0  0  0  0  0  0  0  0  0  0  0
   17.3936  -14.9496  -15.0332 N   0  0  0  0  0  0  0  0  0  0  0  0
   16.4150  -14.7246  -15.9284 C   0  0  0  0  0  0  0  0  0  0  0  0
   16.0410  -13.4244  -15.8747 N   0  0  0  0  0  0  0  0  0  0  0  0
   15.7994   -9.8889  -12.9097 C   0  0  0  0  0  0  0  0  0  0  0  0
   14.7136   -9.2534  -12.7970 O   0  0  0  0  0  0  0  0  0  0  0  0
   15.9267   -6.7459   -8.4895 N   0  0  0  0  0  0  0  0  0  0  0  0
   16.1634   -6.7068   -9.8878 C   0  0  0  0  0  0  0  0  0  0  0  0
   16.3712   -5.5858  -10.4039 O   0  0  0  0  0  0  0  0  0  0  0  0
   16.1465   -7.9849  -10.6223 C   0  0  0  0  0  0  0  0  0  0  0  0
   16.9818   -7.9433  -11.8802 C   0  0  2  0  0  0  0  0  0  0  0  0
   17.0070   -9.2163  -12.5645 N   0  0  0  0  0  0  0  0  0  0  0  0
   18.3395   -7.4212  -11.6277 C   0  0  0  0  0  0  0  0  0  0  0  0
   19.0801   -8.0123  -10.8192 O   0  0  0  0  0  0  0  0  0  0  0  0
   20.9650   -7.2080  -13.0143 C   0  0  0  0  0  0  0  0  0  0  0  0
   20.2217   -6.0170  -12.3872 C   0  0  2  0  0  0  0  0  0  0  0  0
   18.8251   -6.2693  -12.2765 N   0  0  0  0  0  0  0  0  0  0  0  0
   20.5723   -4.8346  -13.1675 C   0  0  0  0  0  0  0  0  0  0  0  0
   21.8702   -4.3649  -13.1543 O   0  0  0  0  0  0  0  0  0  0  0  0
   19.7358   -4.2172  -13.8593 O   0  0  0  0  0  0  0  0  0  0  0  0
  2  1  1  6
  3  2  1  0
  4  8  1  0
  4  3  1  0
  5  4  2  0
  6  5  1  0
  6  7  1  0
  7  8  2  0
  9 10  2  0
  9  2  1  0
 12 14  1  0
 12 11  1  0
 13 12  2  0
 15 14  1  1
 15 16  1  0
 16  9  1  0
 17 15  1  0
 18 17  2  0
 20 19  1  6
 20 21  1  0
 21 17  1  0
 22 23  1  0
 22 20  1  0
 24 22  2  0
M  END
$$$$
