HNA.pdb
     RDKit          3D

 24 24  0  0  1  0  0  0  0  0999 V2000
   15.8629  -10.2748  -15.9013 N   0  0  0  0  0  0  0  0  0  0  0  0
   16.9627  -10.3798  -14.9890 C   0  0  1  0  0  0  0  0  0  0  0  0
   18.1849  -10.7902  -15.8096 C   0  0  0  0  0  0  0  0  0  0  0  0
   18.1252  -12.2437  -16.0419 C   0  0  0  0  0  0  0  0  0  0  0  0
   18.2685  -13.2155  -15.0976 C   0  0  0  0  0  0  0  0  0  0  0  0
   18.1515  -14.4266  -15.6950 N   0  0  0  0  0  0  0  0  0  0  0  0
   17.9376  -14.1821  -17.0004 C   0  0  0  0  0  0  0  0  0  0  0  0
   17.9211  -12.8453  -17.2149 N   0  0  0  0  0  0  0  0  0  0  0  0
   17.2854   -9.1126  -14.3211 C   0  0  0  0  0  0  0  0  0  0  0  0
   16.9064   -8.0440  -14.8779 O   0  0  0  0  0  0  0  0  0  0  0  0
   18.5256   -5.3901  -11.0919 N   0  0  0  0  0  0  0  0  0  0  0  0
   18.2252   -6.5150  -10.2812 C   0  0  0  0  0  0  0  0  0  0  0  0
   18.2268   -6.3461   -9.0412 O   0  0  0  0  0  0  0  0  0  0  0  0
   17.9355   -7.7915  -10.9594 C   0  0  0  0  0  0  0  0  0  0  0  0
   18.1911   -7.7303  -12.4469 C   0  0  2  0  0  0  0  0  0  0  0  0
   17.9957   -9.0098  -13.0903 N   0  0  0  0  0  0  0  0  0  0  0  0
   19.5108   -7.1468  -12.7597 C   0  0  0  0  0  0  0  0  0  0  0  0
   20.5430   -7.7766  -12.4605 O   0  0  0  0  0  0  0  0  0  0  0  0
   20.9191   -4.7618  -15.1453 C   0  0  0  0  0  0  0  0  0  0  0  0
   20.9154   -5.3651  -13.7311 C   0  0  2  0  0  0  0  0  0  0  0  0
   19.6386   -5.8935  -13.3892 N   0  0  0  0  0  0  0  0  0  0  0  0
   21.4170   -4.3364  -12.8255 C   0  0  0  0  0  0  0  0  0  0  0  0
   22.7340   -3.9319  -12.9101 O   0  0  0  0  0  0  0  0  0  0  0  0
   20.6953   -3.7957  -11.9616 O   0  0  0  0  0  0  0  0  0  0  0  0
  2  1  1  6
  3  2  1  0
  4  8  1  0
  4  3  1  0
  5  4  2  0
  6  5  1  0
  6  7  1  0
  7  8  2  0
  9 10  2  0
  9  2  1  0
 12 14  1  0
 12 11  1  0
 13 12  2  0
 15 14  1  1
 15 16  1  0
 16  9  1  0
 17 15  1  0
 18 17  2  0
 20 19  1  6
 20 21  1  0
 21 17  1  0
 22 23  1  0
 22 20  1  0
 24 22  2  0
M  END
$$$$
