HNA.pdb
     RDKit          3D

 24 24  0  0  1  0  0  0  0  0999 V2000
   17.0660  -12.4680  -15.9564 N   0  0  0  0  0  0  0  0  0  0  0  0
   18.3251  -11.7842  -15.9664 C   0  0  1  0  0  0  0  0  0  0  0  0
   18.8823  -11.8971  -17.3849 C   0  0  0  0  0  0  0  0  0  0  0  0
   19.3720  -13.2718  -17.5866 C   0  0  0  0  0  0  0  0  0  0  0  0
   20.6473  -13.7085  -17.3876 C   0  0  0  0  0  0  0  0  0  0  0  0
   20.7072  -15.0311  -17.6782 N   0  0  0  0  0  0  0  0  0  0  0  0
   19.4658  -15.3897  -18.0524 C   0  0  0  0  0  0  0  0  0  0  0  0
   18.6463  -14.3133  -17.9969 N   0  0  0  0  0  0  0  0  0  0  0  0
   18.2114  -10.3548  -15.6499 C   0  0  0  0  0  0  0  0  0  0  0  0
   17.3183   -9.6917  -16.2485 O   0  0  0  0  0  0  0  0  0  0  0  0
   16.7401   -8.8633  -12.9202 N   0  0  0  0  0  0  0  0  0  0  0  0
   17.8363   -8.2880  -12.2274 C   0  0  0  0  0  0  0  0  0  0  0  0
   17.7253   -8.1525  -10.9883 O   0  0  0  0  0  0  0  0  0  0  0  0
   19.0174   -7.8955  -13.0177 C   0  0  0  0  0  0  0  0  0  0  0  0
   18.8832   -8.2520  -14.4794 C   0  0  2  0  0  0  0  0  0  0  0  0
   19.0398   -9.6695  -14.7151 N   0  0  0  0  0  0  0  0  0  0  0  0
   19.7783   -7.4447  -15.3319 C   0  0  0  0  0  0  0  0  0  0  0  0
   21.0076   -7.6390  -15.2821 O   0  0  0  0  0  0  0  0  0  0  0  0
   19.3735   -5.0036  -18.1750 C   0  0  0  0  0  0  0  0  0  0  0  0
   20.1507   -5.7223  -17.0599 C   0  0  2  0  0  0  0  0  0  0  0  0
   19.2818   -6.4566  -16.2041 N   0  0  0  0  0  0  0  0  0  0  0  0
   20.9666   -4.7152  -16.3891 C   0  0  0  0  0  0  0  0  0  0  0  0
   21.9599   -4.0605  -17.0892 O   0  0  0  0  0  0  0  0  0  0  0  0
   20.8038   -4.4133  -15.1883 O   0  0  0  0  0  0  0  0  0  0  0  0
  2  1  1  6
  3  2  1  0
  4  8  1  0
  4  3  1  0
  5  4  2  0
  6  5  1  0
  6  7  1  0
  7  8  2  0
  9 10  2  0
  9  2  1  0
 12 14  1  0
 12 11  1  0
 13 12  2  0
 15 14  1  1
 15 16  1  0
 16  9  1  0
 17 15  1  0
 18 17  2  0
 20 19  1  6
 20 21  1  0
 21 17  1  0
 22 23  1  0
 22 20  1  0
 24 22  2  0
M  END
$$$$
