HNA.pdb
     RDKit          3D

 24 24  0  0  1  0  0  0  0  0999 V2000
   19.4804  -15.1177  -17.9562 N   0  0  0  0  0  0  0  0  0  0  0  0
   18.7977  -13.8965  -17.6469 C   0  0  1  0  0  0  0  0  0  0  0  0
   18.1939  -14.0642  -16.2530 C   0  0  0  0  0  0  0  0  0  0  0  0
   17.0568  -14.9962  -16.3454 C   0  0  0  0  0  0  0  0  0  0  0  0
   15.8283  -14.7170  -16.8645 C   0  0  0  0  0  0  0  0  0  0  0  0
   15.0527  -15.8249  -16.7735 N   0  0  0  0  0  0  0  0  0  0  0  0
   15.8165  -16.7714  -16.1987 C   0  0  0  0  0  0  0  0  0  0  0  0
   17.0446  -16.2657  -15.9357 N   0  0  0  0  0  0  0  0  0  0  0  0
   19.6875  -12.7292  -17.6044 C   0  0  0  0  0  0  0  0  0  0  0  0
   20.8552  -12.8990  -17.1536 O   0  0  0  0  0  0  0  0  0  0  0  0
   22.2303   -8.3365  -19.9501 N   0  0  0  0  0  0  0  0  0  0  0  0
   21.0606   -8.2741  -19.1497 C   0  0  0  0  0  0  0  0  0  0  0  0
   20.8959   -7.2482  -18.4523 O   0  0  0  0  0  0  0  0  0  0  0  0
   20.1326   -9.4185  -19.2011 C   0  0  0  0  0  0  0  0  0  0  0  0
   20.2714  -10.3333  -18.0072 C   0  0  2  0  0  0  0  0  0  0  0  0
   19.3210  -11.4221  -18.0367 N   0  0  0  0  0  0  0  0  0  0  0  0
   20.2270   -9.5914  -16.7315 C   0  0  0  0  0  0  0  0  0  0  0  0
   19.1233   -9.3066  -16.2292 O   0  0  0  0  0  0  0  0  0  0  0  0
   22.5556   -8.8910  -13.9223 C   0  0  0  0  0  0  0  0  0  0  0  0
   21.3449   -8.5358  -14.8009 C   0  0  2  0  0  0  0  0  0  0  0  0
   21.4005   -9.1940  -16.0619 N   0  0  0  0  0  0  0  0  0  0  0  0
   21.2791   -7.0795  -14.8706 C   0  0  0  0  0  0  0  0  0  0  0  0
   21.0547   -6.3480  -13.7217 O   0  0  0  0  0  0  0  0  0  0  0  0
   21.4190   -6.4538  -15.9422 O   0  0  0  0  0  0  0  0  0  0  0  0
  2  1  1  1
  3  2  1  0
  4  8  1  0
  4  3  1  0
  5  4  2  0
  6  5  1  0
  6  7  1  0
  7  8  2  0
  9 10  2  0
  9  2  1  0
 12 14  1  0
 12 11  1  0
 13 12  2  0
 15 14  1  6
 15 16  1  0
 16  9  1  0
 17 15  1  0
 18 17  2  0
 20 19  1  1
 20 21  1  0
 21 17  1  0
 22 23  1  0
 22 20  1  0
 24 22  2  0
M  END
$$$$
