HNA.pdb
     RDKit          3D

 24 24  0  0  1  0  0  0  0  0999 V2000
   28.9430   -9.6988  -19.8510 N   0  0  0  0  0  0  0  0  0  0  0  0
   28.5632   -9.8436  -18.4770 C   0  0  1  0  0  0  0  0  0  0  0  0
   29.7666   -9.4208  -17.6351 C   0  0  0  0  0  0  0  0  0  0  0  0
   30.8119  -10.4508  -17.7636 C   0  0  0  0  0  0  0  0  0  0  0  0
   30.7091  -11.6185  -18.4582 C   0  0  0  0  0  0  0  0  0  0  0  0
   31.8744  -12.3009  -18.3418 N   0  0  0  0  0  0  0  0  0  0  0  0
   32.6788  -11.5419  -17.5759 C   0  0  0  0  0  0  0  0  0  0  0  0
   32.0297  -10.4081  -17.2207 N   0  0  0  0  0  0  0  0  0  0  0  0
   27.4342   -8.9865  -18.0938 C   0  0  0  0  0  0  0  0  0  0  0  0
   27.5396   -7.7468  -18.3120 O   0  0  0  0  0  0  0  0  0  0  0  0
   22.6703   -6.7098  -19.3495 N   0  0  0  0  0  0  0  0  0  0  0  0
   23.6313   -6.8659  -18.3177 C   0  0  0  0  0  0  0  0  0  0  0  0
   23.4823   -6.1752  -17.2847 O   0  0  0  0  0  0  0  0  0  0  0  0
   24.7275   -7.8260  -18.5409 C   0  0  0  0  0  0  0  0  0  0  0  0
   25.1047   -8.5791  -17.2869 C   0  0  2  0  0  0  0  0  0  0  0  0
   26.2318   -9.4602  -17.4941 N   0  0  0  0  0  0  0  0  0  0  0  0
   23.9504   -9.2834  -16.6942 C   0  0  0  0  0  0  0  0  0  0  0  0
   23.5501  -10.3429  -17.2126 O   0  0  0  0  0  0  0  0  0  0  0  0
   22.0526   -9.2374  -13.4844 C   0  0  0  0  0  0  0  0  0  0  0  0
   22.1668   -9.4748  -14.9992 C   0  0  2  0  0  0  0  0  0  0  0  0
   23.2850   -8.7912  -15.5548 N   0  0  0  0  0  0  0  0  0  0  0  0
   20.8778   -9.1225  -15.5861 C   0  0  0  0  0  0  0  0  0  0  0  0
   19.7505   -9.8434  -15.2471 O   0  0  0  0  0  0  0  0  0  0  0  0
   20.7462   -8.1812  -16.3960 O   0  0  0  0  0  0  0  0  0  0  0  0
  2  1  1  6
  3  2  1  0
  4  8  1  0
  4  3  1  0
  5  4  2  0
  6  5  1  0
  6  7  1  0
  7  8  2  0
  9 10  2  0
  9  2  1  0
 12 14  1  0
 12 11  1  0
 13 12  2  0
 15 14  1  6
 15 16  1  0
 16  9  1  0
 17 15  1  0
 18 17  2  0
 20 19  1  1
 20 21  1  0
 21 17  1  0
 22 23  1  0
 22 20  1  0
 24 22  2  0
M  END
$$$$
