HNA.pdb
     RDKit          3D

 24 24  0  0  1  0  0  0  0  0999 V2000
   19.1331  -11.4255  -17.6333 N   0  0  0  0  0  0  0  0  0  0  0  0
   20.2597  -10.6071  -17.2955 C   0  0  1  0  0  0  0  0  0  0  0  0
   20.8707  -10.1250  -18.6108 C   0  0  0  0  0  0  0  0  0  0  0  0
   21.4973  -11.2756  -19.2844 C   0  0  0  0  0  0  0  0  0  0  0  0
   22.6099  -11.9430  -18.8680 C   0  0  0  0  0  0  0  0  0  0  0  0
   22.8773  -12.9391  -19.7475 N   0  0  0  0  0  0  0  0  0  0  0  0
   21.9238  -12.8701  -20.6940 C   0  0  0  0  0  0  0  0  0  0  0  0
   21.0774  -11.8516  -20.4119 N   0  0  0  0  0  0  0  0  0  0  0  0
   19.8989   -9.4170  -16.5147 C   0  0  0  0  0  0  0  0  0  0  0  0
   19.0399   -8.6322  -17.0066 O   0  0  0  0  0  0  0  0  0  0  0  0
   17.6966   -8.9064  -13.7328 N   0  0  0  0  0  0  0  0  0  0  0  0
   18.6306   -8.6612  -12.6934 C   0  0  0  0  0  0  0  0  0  0  0  0
   18.2826   -8.9544  -11.5276 O   0  0  0  0  0  0  0  0  0  0  0  0
   19.9343   -8.0821  -13.0653 C   0  0  0  0  0  0  0  0  0  0  0  0
   20.0752   -7.8767  -14.5552 C   0  0  2  0  0  0  0  0  0  0  0  0
   20.4524   -9.0907  -15.2432 N   0  0  0  0  0  0  0  0  0  0  0  0
   20.9761   -6.7524  -14.8777 C   0  0  0  0  0  0  0  0  0  0  0  0
   22.2029   -6.9551  -14.9515 O   0  0  0  0  0  0  0  0  0  0  0  0
   20.6272   -3.0869  -15.7342 C   0  0  0  0  0  0  0  0  0  0  0  0
   21.3730   -4.3479  -15.2679 C   0  0  2  0  0  0  0  0  0  0  0  0
   20.4881   -5.4511  -15.1054 N   0  0  0  0  0  0  0  0  0  0  0  0
   22.1253   -3.9827  -14.0718 C   0  0  0  0  0  0  0  0  0  0  0  0
   23.2393   -3.1751  -14.1829 O   0  0  0  0  0  0  0  0  0  0  0  0
   21.8010   -4.3750  -12.9315 O   0  0  0  0  0  0  0  0  0  0  0  0
  2  1  1  6
  3  2  1  0
  4  8  1  0
  4  3  1  0
  5  4  2  0
  6  5  1  0
  6  7  1  0
  7  8  2  0
  9 10  2  0
  9  2  1  0
 12 14  1  0
 12 11  1  0
 13 12  2  0
 15 14  1  1
 15 16  1  0
 16  9  1  0
 17 15  1  0
 18 17  2  0
 20 19  1  1
 20 21  1  0
 21 17  1  0
 22 23  1  0
 22 20  1  0
 24 22  2  0
M  END
$$$$
