HNA.pdb
     RDKit          3D

 24 24  0  0  1  0  0  0  0  0999 V2000
   19.3274  -10.7473  -17.2887 N   0  0  0  0  0  0  0  0  0  0  0  0
   19.2166  -10.7901  -15.8608 C   0  0  1  0  0  0  0  0  0  0  0  0
   19.2470  -12.2634  -15.4555 C   0  0  0  0  0  0  0  0  0  0  0  0
   18.0911  -12.9406  -16.0681 C   0  0  0  0  0  0  0  0  0  0  0  0
   17.0041  -12.3335  -16.6217 C   0  0  0  0  0  0  0  0  0  0  0  0
   16.1562  -13.2870  -17.0794 N   0  0  0  0  0  0  0  0  0  0  0  0
   16.7349  -14.4689  -16.8002 C   0  0  0  0  0  0  0  0  0  0  0  0
   17.9203  -14.2588  -16.1807 N   0  0  0  0  0  0  0  0  0  0  0  0
   20.3274  -10.1205  -15.1724 C   0  0  0  0  0  0  0  0  0  0  0  0
   20.3558  -10.1803  -13.9109 O   0  0  0  0  0  0  0  0  0  0  0  0
   24.1503  -11.5893  -15.8328 N   0  0  0  0  0  0  0  0  0  0  0  0
   24.0398  -10.5380  -14.8866 C   0  0  0  0  0  0  0  0  0  0  0  0
   24.1734  -10.8362  -13.6786 O   0  0  0  0  0  0  0  0  0  0  0  0
   23.7772   -9.1803  -15.3975 C   0  0  0  0  0  0  0  0  0  0  0  0
   22.3808   -8.6999  -15.0795 C   0  0  2  0  0  0  0  0  0  0  0  0
   21.3715   -9.4102  -15.8319 N   0  0  0  0  0  0  0  0  0  0  0  0
   22.2519   -7.2359  -15.2212 C   0  0  0  0  0  0  0  0  0  0  0  0
   21.8490   -6.7602  -16.2995 O   0  0  0  0  0  0  0  0  0  0  0  0
   23.0045   -4.5372  -15.7521 C   0  0  0  0  0  0  0  0  0  0  0  0
   22.5316   -4.9449  -14.3471 C   0  0  2  0  0  0  0  0  0  0  0  0
   22.5723   -6.3566  -14.1687 N   0  0  0  0  0  0  0  0  0  0  0  0
   21.2201   -4.3377  -14.1437 C   0  0  0  0  0  0  0  0  0  0  0  0
   21.0962   -2.9630  -14.1299 O   0  0  0  0  0  0  0  0  0  0  0  0
   20.1860   -5.0181  -13.9787 O   0  0  0  0  0  0  0  0  0  0  0  0
  2  1  1  6
  3  2  1  0
  4  8  1  0
  4  3  1  0
  5  4  2  0
  6  5  1  0
  6  7  1  0
  7  8  2  0
  9 10  2  0
  9  2  1  0
 12 14  1  0
 12 11  1  0
 13 12  2  0
 15 14  1  6
 15 16  1  0
 16  9  1  0
 17 15  1  0
 18 17  2  0
 20 19  1  6
 20 21  1  0
 21 17  1  0
 22 23  1  0
 22 20  1  0
 24 22  2  0
M  END
$$$$
