HNA.pdb
     RDKit          3D

 24 24  0  0  1  0  0  0  0  0999 V2000
   17.3955  -10.4504  -14.8723 N   0  0  0  0  0  0  0  0  0  0  0  0
   18.7371  -10.1421  -15.2700 C   0  0  1  0  0  0  0  0  0  0  0  0
   18.8333  -10.4235  -16.7691 C   0  0  0  0  0  0  0  0  0  0  0  0
   18.9475  -11.8791  -16.9649 C   0  0  0  0  0  0  0  0  0  0  0  0
   20.0854  -12.5622  -17.2734 C   0  0  0  0  0  0  0  0  0  0  0  0
   19.7907  -13.8816  -17.3713 N   0  0  0  0  0  0  0  0  0  0  0  0
   18.4734  -13.9914  -17.1213 C   0  0  0  0  0  0  0  0  0  0  0  0
   17.9550  -12.7657  -16.8721 N   0  0  0  0  0  0  0  0  0  0  0  0
   19.0944   -8.7331  -15.0621 C   0  0  0  0  0  0  0  0  0  0  0  0
   18.1530   -7.8931  -15.0004 O   0  0  0  0  0  0  0  0  0  0  0  0
   23.2942   -4.6154  -14.2072 N   0  0  0  0  0  0  0  0  0  0  0  0
   22.1903   -5.2214  -13.5539 C   0  0  0  0  0  0  0  0  0  0  0  0
   21.5132   -4.5032  -12.7846 O   0  0  0  0  0  0  0  0  0  0  0  0
   21.9267   -6.6453  -13.8305 C   0  0  0  0  0  0  0  0  0  0  0  0
   20.6967   -6.8538  -14.6822 C   0  0  2  0  0  0  0  0  0  0  0  0
   20.4289   -8.2532  -14.9260 N   0  0  0  0  0  0  0  0  0  0  0  0
   20.7491   -6.0718  -15.9335 C   0  0  0  0  0  0  0  0  0  0  0  0
   21.5190   -6.4295  -16.8450 O   0  0  0  0  0  0  0  0  0  0  0  0
   18.6188   -3.5352  -17.6418 C   0  0  0  0  0  0  0  0  0  0  0  0
   19.9683   -4.2165  -17.3615 C   0  0  2  0  0  0  0  0  0  0  0  0
   19.9509   -4.9281  -16.1287 N   0  0  0  0  0  0  0  0  0  0  0  0
   20.9971   -3.1862  -17.4616 C   0  0  0  0  0  0  0  0  0  0  0  0
   21.1811   -2.5151  -18.6537 O   0  0  0  0  0  0  0  0  0  0  0  0
   21.7319   -2.8787  -16.4999 O   0  0  0  0  0  0  0  0  0  0  0  0
  2  1  1  6
  3  2  1  0
  4  8  1  0
  4  3  1  0
  5  4  2  0
  6  5  1  0
  6  7  1  0
  7  8  2  0
  9 10  2  0
  9  2  1  0
 12 14  1  0
 12 11  1  0
 13 12  2  0
 15 14  1  6
 15 16  1  0
 16  9  1  0
 17 15  1  0
 18 17  2  0
 20 19  1  1
 20 21  1  0
 21 17  1  0
 22 23  1  0
 22 20  1  0
 24 22  2  0
M  END
$$$$
