KNW.pdb
     RDKit          3D

 32 33  0  0  1  0  0  0  0  0999 V2000
   27.2563  -19.8041  -15.7148 N   0  0  0  0  0  0  0  0  0  0  0  0
   27.4634  -18.6279  -14.9297 C   0  0  1  0  0  0  0  0  0  0  0  0
   27.0596  -17.3618  -15.6197 C   0  0  0  0  0  0  0  0  0  0  0  0
   28.0621  -16.8489  -16.6004 C   0  0  0  0  0  0  0  0  0  0  0  0
   29.2346  -17.7760  -16.7990 C   0  0  0  0  0  0  0  0  0  0  0  0
   30.2462  -17.0676  -17.6859 C   0  0  0  0  0  0  0  0  0  0  0  0
   29.7473  -16.8345  -19.0156 N   0  0  0  0  0  0  0  0  0  0  0  0
   26.6534  -18.7137  -13.6611 C   0  0  0  0  0  0  0  0  0  0  0  0
   26.3924  -17.6864  -12.9882 O   0  0  0  0  0  0  0  0  0  0  0  0
   23.2255  -20.4382  -14.6454 N   0  0  0  0  0  0  0  0  0  0  0  0
   23.3254  -19.7579  -13.3848 C   0  0  0  0  0  0  0  0  0  0  0  0
   22.8655  -18.5826  -13.2924 O   0  0  0  0  0  0  0  0  0  0  0  0
   23.9621  -20.4872  -12.2806 C   0  0  0  0  0  0  0  0  0  0  0  0
   25.3164  -19.9471  -11.9813 C   0  0  2  0  0  0  0  0  0  0  0  0
   26.1560  -19.9449  -13.1782 N   0  0  0  0  0  0  0  0  0  0  0  0
   26.0466  -20.7678  -10.9526 C   0  0  0  0  0  0  0  0  0  0  0  0
   26.8430  -21.6496  -11.4242 O   0  0  0  0  0  0  0  0  0  0  0  0
   25.8675  -20.5735   -9.5803 N   0  0  0  0  0  0  0  0  0  0  0  0
   26.3463  -21.4611   -8.5804 C   0  0  1  0  0  0  0  0  0  0  0  0
   27.7687  -21.1619   -8.1886 C   0  0  0  0  0  0  0  0  0  0  0  0
   27.7743  -19.9798   -7.2836 C   0  0  0  0  0  0  0  0  0  0  0  0
   27.1846  -18.7613   -7.4822 C   0  0  0  0  0  0  0  0  0  0  0  0
   27.4520  -17.9995   -6.3889 N   0  0  0  0  0  0  0  0  0  0  0  0
   28.1878  -18.6844   -5.5024 C   0  0  0  0  0  0  0  0  0  0  0  0
   28.7157  -18.3697   -4.2486 C   0  0  0  0  0  0  0  0  0  0  0  0
   29.4492  -19.2926   -3.5444 C   0  0  0  0  0  0  0  0  0  0  0  0
   29.6686  -20.5330   -4.0697 C   0  0  0  0  0  0  0  0  0  0  0  0
   29.1347  -20.8300   -5.3216 C   0  0  0  0  0  0  0  0  0  0  0  0
   28.3958  -19.9186   -6.0456 C   0  0  0  0  0  0  0  0  0  0  0  0
   25.4694  -21.5068   -7.3836 C   0  0  0  0  0  0  0  0  0  0  0  0
   24.4162  -20.8732   -7.2628 O   0  0  0  0  0  0  0  0  0  0  0  0
   25.8772  -22.3277   -6.3298 O   0  0  0  0  0  0  0  0  0  0  0  0
  2  1  1  6
  2  3  1  0
  3  4  1  0
  4  5  1  0
  6  5  1  0
  7  6  1  0
  8  9  2  0
  8  2  1  0
 10 11  1  0
 11 13  1  0
 12 11  2  0
 14 13  1  6
 14 15  1  0
 15  8  1  0
 16 14  1  0
 16 18  1  0
 17 16  2  0
 19 18  1  0
 19 30  1  0
 20 21  1  0
 19 20  1  1
 21 29  1  0
 22 21  2  0
 22 23  1  0
 23 24  1  0
 24 25  1  0
 25 26  2  0
 27 26  1  0
 28 27  2  0
 29 24  2  0
 29 28  1  0
 30 31  2  0
 30 32  1  0
M  END
$$$$
