KNW.pdb
     RDKit          3D

 32 33  0  0  1  0  0  0  0  0999 V2000
   28.8784  -20.8216  -17.5015 N   0  0  0  0  0  0  0  0  0  0  0  0
   28.2307  -21.6419  -16.5266 C   0  0  1  0  0  0  0  0  0  0  0  0
   29.1524  -22.1655  -15.4689 C   0  0  0  0  0  0  0  0  0  0  0  0
   30.0826  -23.2353  -15.9382 C   0  0  0  0  0  0  0  0  0  0  0  0
   29.3750  -24.4221  -16.5421 C   0  0  0  0  0  0  0  0  0  0  0  0
   30.0619  -25.6819  -16.0392 C   0  0  0  0  0  0  0  0  0  0  0  0
   29.3542  -26.8805  -16.4055 N   0  0  0  0  0  0  0  0  0  0  0  0
   27.1612  -20.8467  -15.8219 C   0  0  0  0  0  0  0  0  0  0  0  0
   27.0575  -19.6071  -15.9919 O   0  0  0  0  0  0  0  0  0  0  0  0
   22.8902  -18.5414  -14.6516 N   0  0  0  0  0  0  0  0  0  0  0  0
   22.8196  -19.9756  -14.6578 C   0  0  0  0  0  0  0  0  0  0  0  0
   21.8034  -20.5344  -14.1514 O   0  0  0  0  0  0  0  0  0  0  0  0
   23.9475  -20.6975  -15.2605 C   0  0  0  0  0  0  0  0  0  0  0  0
   25.1524  -20.6501  -14.3880 C   0  0  2  0  0  0  0  0  0  0  0  0
   26.2358  -21.4576  -14.9462 N   0  0  0  0  0  0  0  0  0  0  0  0
   24.8845  -21.1940  -13.0104 C   0  0  0  0  0  0  0  0  0  0  0  0
   24.2925  -22.3265  -12.9774 O   0  0  0  0  0  0  0  0  0  0  0  0
   25.2619  -20.5087  -11.8524 N   0  0  0  0  0  0  0  0  0  0  0  0
   24.9353  -20.9285  -10.5356 C   0  0  1  0  0  0  0  0  0  0  0  0
   25.4890  -19.9992   -9.4888 C   0  0  0  0  0  0  0  0  0  0  0  0
   26.9089  -20.3650   -9.2309 C   0  0  0  0  0  0  0  0  0  0  0  0
   27.7579  -21.0742  -10.0359 C   0  0  0  0  0  0  0  0  0  0  0  0
   28.9512  -21.1581   -9.3910 N   0  0  0  0  0  0  0  0  0  0  0  0
   28.8958  -20.5303   -8.2080 C   0  0  0  0  0  0  0  0  0  0  0  0
   29.8258  -20.3273   -7.1865 C   0  0  0  0  0  0  0  0  0  0  0  0
   29.4848  -19.6254   -6.0565 C   0  0  0  0  0  0  0  0  0  0  0  0
   28.2249  -19.1179   -5.9239 C   0  0  0  0  0  0  0  0  0  0  0  0
   27.3098  -19.3298   -6.9527 C   0  0  0  0  0  0  0  0  0  0  0  0
   27.6309  -20.0316   -8.0951 C   0  0  0  0  0  0  0  0  0  0  0  0
   23.4777  -21.1314  -10.3411 C   0  0  0  0  0  0  0  0  0  0  0  0
   22.5988  -20.4322  -10.8549 O   0  0  0  0  0  0  0  0  0  0  0  0
   23.0894  -22.1904   -9.5176 O   0  0  0  0  0  0  0  0  0  0  0  0
  2  1  1  6
  2  3  1  0
  3  4  1  0
  4  5  1  0
  6  5  1  0
  7  6  1  0
  8  9  2  0
  8  2  1  0
 10 11  1  0
 11 13  1  0
 12 11  2  0
 14 13  1  6
 14 15  1  0
 15  8  1  0
 16 14  1  0
 16 18  1  0
 17 16  2  0
 19 18  1  0
 19 30  1  0
 20 21  1  0
 19 20  1  1
 21 29  1  0
 22 21  2  0
 22 23  1  0
 23 24  1  0
 24 25  1  0
 25 26  2  0
 27 26  1  0
 28 27  2  0
 29 24  2  0
 29 28  1  0
 30 31  2  0
 30 32  1  0
M  END
$$$$
