KNW.pdb
     RDKit          3D

 32 33  0  0  1  0  0  0  0  0999 V2000
   29.3702  -19.5338  -17.6787 N   0  0  0  0  0  0  0  0  0  0  0  0
   28.6037  -18.4431  -17.1633 C   0  0  1  0  0  0  0  0  0  0  0  0
   28.4099  -17.3254  -18.1409 C   0  0  0  0  0  0  0  0  0  0  0  0
   29.5518  -17.1268  -19.0825 C   0  0  0  0  0  0  0  0  0  0  0  0
   30.7263  -16.4164  -18.4585 C   0  0  0  0  0  0  0  0  0  0  0  0
   31.6206  -15.9154  -19.5815 C   0  0  0  0  0  0  0  0  0  0  0  0
   32.8178  -15.2827  -19.0938 N   0  0  0  0  0  0  0  0  0  0  0  0
   27.2304  -18.9263  -16.7716 C   0  0  0  0  0  0  0  0  0  0  0  0
   26.3451  -18.1223  -16.3896 O   0  0  0  0  0  0  0  0  0  0  0  0
   23.7934  -20.9178  -19.2916 N   0  0  0  0  0  0  0  0  0  0  0  0
   25.0347  -21.3543  -18.7166 C   0  0  0  0  0  0  0  0  0  0  0  0
   26.0705  -21.3599  -19.4437 O   0  0  0  0  0  0  0  0  0  0  0  0
   25.0100  -21.7668  -17.3074 C   0  0  0  0  0  0  0  0  0  0  0  0
   25.5345  -20.6951  -16.4177 C   0  0  2  0  0  0  0  0  0  0  0  0
   26.8827  -20.2950  -16.8175 N   0  0  0  0  0  0  0  0  0  0  0  0
   25.6317  -21.1379  -14.9825 C   0  0  0  0  0  0  0  0  0  0  0  0
   26.6327  -21.8845  -14.7093 O   0  0  0  0  0  0  0  0  0  0  0  0
   24.6947  -20.7542  -14.0192 N   0  0  0  0  0  0  0  0  0  0  0  0
   24.7889  -21.0820  -12.6407 C   0  0  1  0  0  0  0  0  0  0  0  0
   26.0960  -20.6397  -12.0391 C   0  0  0  0  0  0  0  0  0  0  0  0
   26.0715  -20.9331  -10.5797 C   0  0  0  0  0  0  0  0  0  0  0  0
   25.6737  -22.0840   -9.9561 C   0  0  0  0  0  0  0  0  0  0  0  0
   25.8286  -21.8942   -8.6194 N   0  0  0  0  0  0  0  0  0  0  0  0
   26.3094  -20.6688   -8.3672 C   0  0  0  0  0  0  0  0  0  0  0  0
   26.6403  -19.9926   -7.1912 C   0  0  0  0  0  0  0  0  0  0  0  0
   27.1267  -18.7090   -7.2331 C   0  0  0  0  0  0  0  0  0  0  0  0
   27.2910  -18.0814   -8.4338 C   0  0  0  0  0  0  0  0  0  0  0  0
   26.9558  -18.7709   -9.5970 C   0  0  0  0  0  0  0  0  0  0  0  0
   26.4658  -20.0594   -9.5778 C   0  0  0  0  0  0  0  0  0  0  0  0
   23.6441  -20.5685  -11.8475 C   0  0  0  0  0  0  0  0  0  0  0  0
   23.1955  -19.4206  -11.9280 O   0  0  0  0  0  0  0  0  0  0  0  0
   23.0435  -21.4568  -10.9527 O   0  0  0  0  0  0  0  0  0  0  0  0
  2  1  1  6
  2  3  1  0
  3  4  1  0
  4  5  1  0
  6  5  1  0
  7  6  1  0
  8  9  2  0
  8  2  1  0
 10 11  1  0
 11 13  1  0
 12 11  2  0
 14 13  1  6
 14 15  1  0
 15  8  1  0
 16 14  1  0
 16 18  1  0
 17 16  2  0
 19 18  1  0
 19 30  1  0
 20 21  1  0
 19 20  1  1
 21 29  1  0
 22 21  2  0
 22 23  1  0
 23 24  1  0
 24 25  1  0
 25 26  2  0
 27 26  1  0
 28 27  2  0
 29 24  2  0
 29 28  1  0
 30 31  2  0
 30 32  1  0
M  END
$$$$
