KNW.pdb
     RDKit          3D

 32 33  0  0  1  0  0  0  0  0999 V2000
   13.6862  -23.7272    4.3850 N   0  0  0  0  0  0  0  0  0  0  0  0
   13.8706  -24.6728    5.4408 C   0  0  1  0  0  0  0  0  0  0  0  0
   14.2586  -26.0394    4.9674 C   0  0  0  0  0  0  0  0  0  0  0  0
   13.1301  -27.0159    4.9153 C   0  0  0  0  0  0  0  0  0  0  0  0
   12.9271  -27.7666    6.2072 C   0  0  0  0  0  0  0  0  0  0  0  0
   11.8453  -28.8099    5.9770 C   0  0  0  0  0  0  0  0  0  0  0  0
   11.5680  -29.5874    7.1560 N   0  0  0  0  0  0  0  0  0  0  0  0
   14.9665  -24.2000    6.3618 C   0  0  0  0  0  0  0  0  0  0  0  0
   16.0016  -23.6521    5.9095 O   0  0  0  0  0  0  0  0  0  0  0  0
   14.4961  -21.7019   11.2083 N   0  0  0  0  0  0  0  0  0  0  0  0
   15.3595  -22.1315   10.1444 C   0  0  0  0  0  0  0  0  0  0  0  0
   15.9136  -21.2530    9.4214 O   0  0  0  0  0  0  0  0  0  0  0  0
   15.5386  -23.5789    9.9722 C   0  0  0  0  0  0  0  0  0  0  0  0
   15.9955  -23.9105    8.5951 C   0  0  2  0  0  0  0  0  0  0  0  0
   14.8767  -24.3517    7.7637 N   0  0  0  0  0  0  0  0  0  0  0  0
   17.0028  -25.0287    8.5788 C   0  0  0  0  0  0  0  0  0  0  0  0
   16.5128  -26.2014    8.4411 O   0  0  0  0  0  0  0  0  0  0  0  0
   18.3755  -24.7969    8.7013 N   0  0  0  0  0  0  0  0  0  0  0  0
   19.3594  -25.8209    8.7064 C   0  0  1  0  0  0  0  0  0  0  0  0
   19.4209  -26.5569    7.3946 C   0  0  0  0  0  0  0  0  0  0  0  0
   19.7959  -25.5918    6.3248 C   0  0  0  0  0  0  0  0  0  0  0  0
   19.8071  -24.2251    6.3862 C   0  0  0  0  0  0  0  0  0  0  0  0
   20.2212  -23.7691    5.1748 N   0  0  0  0  0  0  0  0  0  0  0  0
   20.4744  -24.7907    4.3450 C   0  0  0  0  0  0  0  0  0  0  0  0
   20.9149  -24.8641    3.0220 C   0  0  0  0  0  0  0  0  0  0  0  0
   21.0933  -26.0796    2.4084 C   0  0  0  0  0  0  0  0  0  0  0  0
   20.8393  -27.2325    3.0932 C   0  0  0  0  0  0  0  0  0  0  0  0
   20.4005  -27.1408    4.4122 C   0  0  0  0  0  0  0  0  0  0  0  0
   20.2145  -25.9312    5.0472 C   0  0  0  0  0  0  0  0  0  0  0  0
   20.7036  -25.3256    9.0952 C   0  0  0  0  0  0  0  0  0  0  0  0
   20.9840  -24.1379    9.2854 O   0  0  0  0  0  0  0  0  0  0  0  0
   21.7101  -26.2809    9.2532 O   0  0  0  0  0  0  0  0  0  0  0  0
  2  1  1  6
  2  3  1  0
  3  4  1  0
  4  5  1  0
  6  5  1  0
  7  6  1  0
  8  9  2  0
  8  2  1  0
 10 11  1  0
 11 13  1  0
 12 11  2  0
 14 13  1  1
 14 15  1  0
 15  8  1  0
 16 14  1  0
 16 18  1  0
 17 16  2  0
 19 18  1  0
 19 30  1  0
 20 21  1  0
 19 20  1  6
 21 29  1  0
 22 21  2  0
 22 23  1  0
 23 24  1  0
 24 25  1  0
 25 26  2  0
 27 26  1  0
 28 27  2  0
 29 24  2  0
 29 28  1  0
 30 31  2  0
 30 32  1  0
M  END
$$$$
