KNW.pdb
     RDKit          3D

 32 33  0  0  1  0  0  0  0  0999 V2000
   29.5701  -22.3730  -18.0968 N   0  0  0  0  0  0  0  0  0  0  0  0
   29.3057  -23.2312  -16.9849 C   0  0  1  0  0  0  0  0  0  0  0  0
   30.2518  -23.0448  -15.8392 C   0  0  0  0  0  0  0  0  0  0  0  0
   31.6199  -23.5948  -16.0755 C   0  0  0  0  0  0  0  0  0  0  0  0
   31.6209  -25.0508  -16.4676 C   0  0  0  0  0  0  0  0  0  0  0  0
   33.0630  -25.4707  -16.7038 C   0  0  0  0  0  0  0  0  0  0  0  0
   33.1957  -26.8851  -16.9347 N   0  0  0  0  0  0  0  0  0  0  0  0
   27.9190  -22.9664  -16.4561 C   0  0  0  0  0  0  0  0  0  0  0  0
   27.4266  -21.8118  -16.4783 O   0  0  0  0  0  0  0  0  0  0  0  0
   24.6804  -26.8847  -16.7842 N   0  0  0  0  0  0  0  0  0  0  0  0
   24.6169  -25.4572  -16.6424 C   0  0  0  0  0  0  0  0  0  0  0  0
   24.2889  -24.7625  -17.6479 O   0  0  0  0  0  0  0  0  0  0  0  0
   24.9410  -24.9017  -15.3222 C   0  0  0  0  0  0  0  0  0  0  0  0
   25.7761  -23.6751  -15.4383 C   0  0  2  0  0  0  0  0  0  0  0  0
   27.1191  -23.9988  -15.9168 N   0  0  0  0  0  0  0  0  0  0  0  0
   25.9536  -22.9752  -14.1178 C   0  0  0  0  0  0  0  0  0  0  0  0
   27.1651  -22.7396  -13.7845 O   0  0  0  0  0  0  0  0  0  0  0  0
   24.8685  -22.6068  -13.3179 N   0  0  0  0  0  0  0  0  0  0  0  0
   24.9850  -21.8905  -12.0971 C   0  0  1  0  0  0  0  0  0  0  0  0
   26.4083  -21.4995  -11.8010 C   0  0  0  0  0  0  0  0  0  0  0  0
   26.4554  -20.8556  -10.4594 C   0  0  0  0  0  0  0  0  0  0  0  0
   25.4342  -20.2566   -9.7737 C   0  0  0  0  0  0  0  0  0  0  0  0
   25.9436  -19.8155   -8.5935 N   0  0  0  0  0  0  0  0  0  0  0  0
   27.2478  -20.1100   -8.5004 C   0  0  0  0  0  0  0  0  0  0  0  0
   28.2133  -19.8849   -7.5171 C   0  0  0  0  0  0  0  0  0  0  0  0
   29.5071  -20.3097   -7.6939 C   0  0  0  0  0  0  0  0  0  0  0  0
   29.8602  -20.9598   -8.8408 C   0  0  0  0  0  0  0  0  0  0  0  0
   28.8844  -21.1760   -9.8112 C   0  0  0  0  0  0  0  0  0  0  0  0
   27.5801  -20.7578   -9.6543 C   0  0  0  0  0  0  0  0  0  0  0  0
   24.0908  -20.7073  -12.0365 C   0  0  0  0  0  0  0  0  0  0  0  0
   23.9565  -19.9812  -11.0465 O   0  0  0  0  0  0  0  0  0  0  0  0
   23.3572  -20.4074  -13.1865 O   0  0  0  0  0  0  0  0  0  0  0  0
  2  1  1  6
  2  3  1  0
  3  4  1  0
  4  5  1  0
  6  5  1  0
  7  6  1  0
  8  9  2  0
  8  2  1  0
 10 11  1  0
 11 13  1  0
 12 11  2  0
 14 13  1  1
 14 15  1  0
 15  8  1  0
 16 14  1  0
 16 18  1  0
 17 16  2  0
 19 18  1  0
 19 30  1  0
 20 21  1  0
 19 20  1  6
 21 29  1  0
 22 21  2  0
 22 23  1  0
 23 24  1  0
 24 25  1  0
 25 26  2  0
 27 26  1  0
 28 27  2  0
 29 24  2  0
 29 28  1  0
 30 31  2  0
 30 32  1  0
M  END
$$$$
