KNW.pdb
     RDKit          3D

 32 33  0  0  1  0  0  0  0  0999 V2000
   28.3105  -22.1634  -19.1938 N   0  0  0  0  0  0  0  0  0  0  0  0
   28.4812  -22.4598  -17.8060 C   0  0  1  0  0  0  0  0  0  0  0  0
   29.7555  -21.9279  -17.2267 C   0  0  0  0  0  0  0  0  0  0  0  0
   30.3261  -20.7609  -17.9631 C   0  0  0  0  0  0  0  0  0  0  0  0
   29.6228  -19.4612  -17.6633 C   0  0  0  0  0  0  0  0  0  0  0  0
   30.3311  -18.3576  -18.4330 C   0  0  0  0  0  0  0  0  0  0  0  0
   29.7089  -17.0722  -18.2537 N   0  0  0  0  0  0  0  0  0  0  0  0
   27.3519  -21.8524  -17.0132 C   0  0  0  0  0  0  0  0  0  0  0  0
   26.9755  -20.6729  -17.2208 O   0  0  0  0  0  0  0  0  0  0  0  0
   22.4297  -22.3128  -13.9394 N   0  0  0  0  0  0  0  0  0  0  0  0
   23.1272  -21.8831  -15.1188 C   0  0  0  0  0  0  0  0  0  0  0  0
   22.7097  -20.8563  -15.7294 O   0  0  0  0  0  0  0  0  0  0  0  0
   24.2901  -22.6779  -15.5342 C   0  0  0  0  0  0  0  0  0  0  0  0
   25.5627  -21.9411  -15.3040 C   0  0  2  0  0  0  0  0  0  0  0  0
   26.6727  -22.5793  -16.0098 N   0  0  0  0  0  0  0  0  0  0  0  0
   25.9494  -21.9050  -13.8500 C   0  0  0  0  0  0  0  0  0  0  0  0
   27.0924  -22.4086  -13.5775 O   0  0  0  0  0  0  0  0  0  0  0  0
   25.1174  -21.3550  -12.8711 N   0  0  0  0  0  0  0  0  0  0  0  0
   25.4573  -21.2646  -11.4951 C   0  0  1  0  0  0  0  0  0  0  0  0
   26.7951  -20.6081  -11.2819 C   0  0  0  0  0  0  0  0  0  0  0  0
   26.9151  -20.2278   -9.8475 C   0  0  0  0  0  0  0  0  0  0  0  0
   26.0107  -19.5525   -9.0742 C   0  0  0  0  0  0  0  0  0  0  0  0
   26.5476  -19.4374   -7.8311 N   0  0  0  0  0  0  0  0  0  0  0  0
   27.7572  -20.0126   -7.7821 C   0  0  0  0  0  0  0  0  0  0  0  0
   28.7039  -20.1681   -6.7675 C   0  0  0  0  0  0  0  0  0  0  0  0
   29.8883  -20.8204   -7.0072 C   0  0  0  0  0  0  0  0  0  0  0  0
   30.1496  -21.3248   -8.2481 C   0  0  0  0  0  0  0  0  0  0  0  0
   29.1940  -21.1606   -9.2485 C   0  0  0  0  0  0  0  0  0  0  0  0
   27.9989  -20.5090   -9.0297 C   0  0  0  0  0  0  0  0  0  0  0  0
   24.4079  -20.5956  -10.6860 C   0  0  0  0  0  0  0  0  0  0  0  0
   23.7794  -19.5946  -11.0443 O   0  0  0  0  0  0  0  0  0  0  0  0
   24.1232  -21.1482   -9.4353 O   0  0  0  0  0  0  0  0  0  0  0  0
  2  1  1  6
  2  3  1  0
  3  4  1  0
  4  5  1  0
  6  5  1  0
  7  6  1  0
  8  9  2  0
  8  2  1  0
 10 11  1  0
 11 13  1  0
 12 11  2  0
 14 13  1  1
 14 15  1  0
 15  8  1  0
 16 14  1  0
 16 18  1  0
 17 16  2  0
 19 18  1  0
 19 30  1  0
 20 21  1  0
 19 20  1  6
 21 29  1  0
 22 21  2  0
 22 23  1  0
 23 24  1  0
 24 25  1  0
 25 26  2  0
 27 26  1  0
 28 27  2  0
 29 24  2  0
 29 28  1  0
 30 31  2  0
 30 32  1  0
M  END
$$$$
