KNW.pdb
     RDKit          3D

 32 33  0  0  1  0  0  0  0  0999 V2000
   28.6990  -21.7353  -18.3011 N   0  0  0  0  0  0  0  0  0  0  0  0
   29.3995  -20.6538  -17.6825 C   0  0  1  0  0  0  0  0  0  0  0  0
   29.8262  -19.5841  -18.6395 C   0  0  0  0  0  0  0  0  0  0  0  0
   29.1300  -19.6264  -19.9598 C   0  0  0  0  0  0  0  0  0  0  0  0
   27.7081  -19.1276  -19.9037 C   0  0  0  0  0  0  0  0  0  0  0  0
   27.1413  -19.1702  -21.3139 C   0  0  0  0  0  0  0  0  0  0  0  0
   25.9442  -19.9641  -21.4043 N   0  0  0  0  0  0  0  0  0  0  0  0
   28.5142  -19.9955  -16.6550 C   0  0  0  0  0  0  0  0  0  0  0  0
   28.8946  -18.9752  -16.0302 O   0  0  0  0  0  0  0  0  0  0  0  0
   23.0230  -18.9464  -14.7816 N   0  0  0  0  0  0  0  0  0  0  0  0
   24.4122  -18.5838  -14.8098 C   0  0  0  0  0  0  0  0  0  0  0  0
   24.8461  -17.7785  -13.9354 O   0  0  0  0  0  0  0  0  0  0  0  0
   25.2380  -19.1834  -15.8657 C   0  0  0  0  0  0  0  0  0  0  0  0
   26.4463  -19.8447  -15.3018 C   0  0  2  0  0  0  0  0  0  0  0  0
   27.2271  -20.4944  -16.3533 N   0  0  0  0  0  0  0  0  0  0  0  0
   26.1000  -20.9186  -14.3058 C   0  0  0  0  0  0  0  0  0  0  0  0
   26.2523  -22.1176  -14.7223 O   0  0  0  0  0  0  0  0  0  0  0  0
   25.6486  -20.6220  -13.0169 N   0  0  0  0  0  0  0  0  0  0  0  0
   25.2635  -21.6004  -12.0623 C   0  0  1  0  0  0  0  0  0  0  0  0
   26.3771  -21.9294  -11.1043 C   0  0  0  0  0  0  0  0  0  0  0  0
   26.3776  -20.9192  -10.0106 C   0  0  0  0  0  0  0  0  0  0  0  0
   25.3937  -20.0259   -9.6855 C   0  0  0  0  0  0  0  0  0  0  0  0
   25.8339  -19.3102   -8.6174 N   0  0  0  0  0  0  0  0  0  0  0  0
   27.0583  -19.7125   -8.2493 C   0  0  0  0  0  0  0  0  0  0  0  0
   27.9341  -19.3139   -7.2375 C   0  0  0  0  0  0  0  0  0  0  0  0
   29.1574  -19.9201   -7.0894 C   0  0  0  0  0  0  0  0  0  0  0  0
   29.5277  -20.9238   -7.9368 C   0  0  0  0  0  0  0  0  0  0  0  0
   28.6417  -21.3087   -8.9405 C   0  0  0  0  0  0  0  0  0  0  0  0
   27.4093  -20.7136   -9.1072 C   0  0  0  0  0  0  0  0  0  0  0  0
   24.0282  -21.2317  -11.3266 C   0  0  0  0  0  0  0  0  0  0  0  0
   23.5686  -20.0873  -11.2592 O   0  0  0  0  0  0  0  0  0  0  0  0
   23.3499  -22.2612  -10.6704 O   0  0  0  0  0  0  0  0  0  0  0  0
  2  1  1  6
  2  3  1  0
  3  4  1  0
  4  5  1  0
  6  5  1  0
  7  6  1  0
  8  9  2  0
  8  2  1  0
 10 11  1  0
 11 13  1  0
 12 11  2  0
 14 13  1  6
 14 15  1  0
 15  8  1  0
 16 14  1  0
 16 18  1  0
 17 16  2  0
 19 18  1  0
 19 30  1  0
 20 21  1  0
 19 20  1  1
 21 29  1  0
 22 21  2  0
 22 23  1  0
 23 24  1  0
 24 25  1  0
 25 26  2  0
 27 26  1  0
 28 27  2  0
 29 24  2  0
 29 28  1  0
 30 31  2  0
 30 32  1  0
M  END
$$$$
