KNW.pdb
     RDKit          3D

 32 33  0  0  1  0  0  0  0  0999 V2000
   27.7369  -20.4341  -15.9383 N   0  0  0  0  0  0  0  0  0  0  0  0
   27.7248  -19.1425  -15.3263 C   0  0  1  0  0  0  0  0  0  0  0  0
   27.3097  -18.0397  -16.2503 C   0  0  0  0  0  0  0  0  0  0  0  0
   27.0848  -18.4719  -17.6619 C   0  0  0  0  0  0  0  0  0  0  0  0
   26.6529  -17.3489  -18.5708 C   0  0  0  0  0  0  0  0  0  0  0  0
   26.4720  -17.9210  -19.9679 C   0  0  0  0  0  0  0  0  0  0  0  0
   26.0118  -16.9372  -20.9123 N   0  0  0  0  0  0  0  0  0  0  0  0
   26.7555  -19.1355  -14.1717 C   0  0  0  0  0  0  0  0  0  0  0  0
   26.5240  -18.0838  -13.5264 O   0  0  0  0  0  0  0  0  0  0  0  0
   22.0370  -19.7816  -11.6265 N   0  0  0  0  0  0  0  0  0  0  0  0
   22.9800  -20.8580  -11.7447 C   0  0  0  0  0  0  0  0  0  0  0  0
   23.0046  -21.7439  -10.8413 O   0  0  0  0  0  0  0  0  0  0  0  0
   23.8577  -20.8513  -12.9220 C   0  0  0  0  0  0  0  0  0  0  0  0
   25.1772  -20.2359  -12.6133 C   0  0  2  0  0  0  0  0  0  0  0  0
   26.0703  -20.3037  -13.7689 N   0  0  0  0  0  0  0  0  0  0  0  0
   25.8874  -20.9370  -11.4868 C   0  0  0  0  0  0  0  0  0  0  0  0
   26.8909  -21.6486  -11.8344 O   0  0  0  0  0  0  0  0  0  0  0  0
   25.4786  -20.8127  -10.1562 N   0  0  0  0  0  0  0  0  0  0  0  0
   26.3242  -21.0396   -9.0380 C   0  0  1  0  0  0  0  0  0  0  0  0
   27.5916  -20.2306   -9.1102 C   0  0  0  0  0  0  0  0  0  0  0  0
   28.4898  -20.6535   -8.0007 C   0  0  0  0  0  0  0  0  0  0  0  0
   29.3833  -21.6895   -7.9855 C   0  0  0  0  0  0  0  0  0  0  0  0
   29.9802  -21.6909   -6.7646 N   0  0  0  0  0  0  0  0  0  0  0  0
   29.5029  -20.6971   -6.0024 C   0  0  0  0  0  0  0  0  0  0  0  0
   29.7762  -20.2718   -4.7008 C   0  0  0  0  0  0  0  0  0  0  0  0
   29.1188  -19.1928   -4.1627 C   0  0  0  0  0  0  0  0  0  0  0  0
   28.1870  -18.5242   -4.9026 C   0  0  0  0  0  0  0  0  0  0  0  0
   27.9268  -18.9622   -6.1992 C   0  0  0  0  0  0  0  0  0  0  0  0
   28.5748  -20.0429   -6.7587 C   0  0  0  0  0  0  0  0  0  0  0  0
   25.6346  -20.8226   -7.7416 C   0  0  0  0  0  0  0  0  0  0  0  0
   24.8639  -19.8866   -7.5066 O   0  0  0  0  0  0  0  0  0  0  0  0
   25.8848  -21.7497   -6.7274 O   0  0  0  0  0  0  0  0  0  0  0  0
  2  1  1  6
  2  3  1  0
  3  4  1  0
  4  5  1  0
  6  5  1  0
  7  6  1  0
  8  9  2  0
  8  2  1  0
 10 11  1  0
 11 13  1  0
 12 11  2  0
 14 13  1  6
 14 15  1  0
 15  8  1  0
 16 14  1  0
 16 18  1  0
 17 16  2  0
 19 18  1  0
 19 30  1  0
 20 21  1  0
 19 20  1  6
 21 29  1  0
 22 21  2  0
 22 23  1  0
 23 24  1  0
 24 25  1  0
 25 26  2  0
 27 26  1  0
 28 27  2  0
 29 24  2  0
 29 28  1  0
 30 31  2  0
 30 32  1  0
M  END
$$$$
