KNW.pdb
     RDKit          3D

 32 33  0  0  1  0  0  0  0  0999 V2000
   27.3173  -23.1816  -17.7586 N   0  0  0  0  0  0  0  0  0  0  0  0
   27.6619  -22.3250  -16.6676 C   0  0  1  0  0  0  0  0  0  0  0  0
   28.8502  -21.4540  -16.9350 C   0  0  0  0  0  0  0  0  0  0  0  0
   29.7648  -21.9701  -17.9966 C   0  0  0  0  0  0  0  0  0  0  0  0
   29.4540  -21.4301  -19.3698 C   0  0  0  0  0  0  0  0  0  0  0  0
   30.5240  -21.9355  -20.3245 C   0  0  0  0  0  0  0  0  0  0  0  0
   30.2407  -21.6051  -21.6964 N   0  0  0  0  0  0  0  0  0  0  0  0
   26.5068  -21.4075  -16.3565 C   0  0  0  0  0  0  0  0  0  0  0  0
   26.5826  -20.5604  -15.4330 O   0  0  0  0  0  0  0  0  0  0  0  0
   22.7890  -18.4576  -15.9188 N   0  0  0  0  0  0  0  0  0  0  0  0
   22.9774  -18.5794  -17.3371 C   0  0  0  0  0  0  0  0  0  0  0  0
   22.4845  -17.6916  -18.0923 O   0  0  0  0  0  0  0  0  0  0  0  0
   23.7395  -19.7411  -17.8127 C   0  0  0  0  0  0  0  0  0  0  0  0
   24.1900  -20.5964  -16.6810 C   0  0  2  0  0  0  0  0  0  0  0  0
   25.2977  -21.4606  -17.0858 N   0  0  0  0  0  0  0  0  0  0  0  0
   23.1013  -21.5081  -16.1825 C   0  0  0  0  0  0  0  0  0  0  0  0
   22.6248  -22.3144  -17.0526 O   0  0  0  0  0  0  0  0  0  0  0  0
   22.6492  -21.4755  -14.8605 N   0  0  0  0  0  0  0  0  0  0  0  0
   21.6238  -22.3138  -14.3479 C   0  0  1  0  0  0  0  0  0  0  0  0
   22.0228  -22.9747  -13.0555 C   0  0  0  0  0  0  0  0  0  0  0  0
   22.5715  -21.9369  -12.1400 C   0  0  0  0  0  0  0  0  0  0  0  0
   21.8832  -21.0217  -11.3915 C   0  0  0  0  0  0  0  0  0  0  0  0
   22.7997  -20.2850  -10.7100 N   0  0  0  0  0  0  0  0  0  0  0  0
   24.0436  -20.6949  -10.9946 C   0  0  0  0  0  0  0  0  0  0  0  0
   25.3088  -20.2828  -10.5712 C   0  0  0  0  0  0  0  0  0  0  0  0
   26.4415  -20.9021  -11.0393 C   0  0  0  0  0  0  0  0  0  0  0  0
   26.3370  -21.9325  -11.9282 C   0  0  0  0  0  0  0  0  0  0  0  0
   25.0671  -22.3306  -12.3399 C   0  0  0  0  0  0  0  0  0  0  0  0
   23.9172  -21.7227  -11.8830 C   0  0  0  0  0  0  0  0  0  0  0  0
   20.3254  -21.6098  -14.1998 C   0  0  0  0  0  0  0  0  0  0  0  0
   20.1939  -20.3821  -14.1703 O   0  0  0  0  0  0  0  0  0  0  0  0
   19.1825  -22.4047  -14.0874 O   0  0  0  0  0  0  0  0  0  0  0  0
  2  1  1  6
  2  3  1  0
  3  4  1  0
  4  5  1  0
  6  5  1  0
  7  6  1  0
  8  9  2  0
  8  2  1  0
 10 11  1  0
 11 13  1  0
 12 11  2  0
 14 13  1  6
 14 15  1  0
 15  8  1  0
 16 14  1  0
 16 18  1  0
 17 16  2  0
 19 18  1  0
 19 30  1  0
 20 21  1  0
 19 20  1  1
 21 29  1  0
 22 21  2  0
 22 23  1  0
 23 24  1  0
 24 25  1  0
 25 26  2  0
 27 26  1  0
 28 27  2  0
 29 24  2  0
 29 28  1  0
 30 31  2  0
 30 32  1  0
M  END
$$$$
