KNW.pdb
     RDKit          3D

 32 33  0  0  1  0  0  0  0  0999 V2000
   21.3696  -19.1800  -12.8806 N   0  0  0  0  0  0  0  0  0  0  0  0
   21.5372  -20.4865  -13.4354 C   0  0  1  0  0  0  0  0  0  0  0  0
   20.9440  -20.6437  -14.8013 C   0  0  0  0  0  0  0  0  0  0  0  0
   21.1023  -19.4482  -15.6821 C   0  0  0  0  0  0  0  0  0  0  0  0
   20.5102  -18.1907  -15.0976 C   0  0  0  0  0  0  0  0  0  0  0  0
   20.2110  -17.2377  -16.2440 C   0  0  0  0  0  0  0  0  0  0  0  0
   18.8458  -17.3234  -16.6915 N   0  0  0  0  0  0  0  0  0  0  0  0
   23.0061  -20.8037  -13.5560 C   0  0  0  0  0  0  0  0  0  0  0  0
   23.4197  -21.6544  -14.3814 O   0  0  0  0  0  0  0  0  0  0  0  0
   28.2463  -20.5016  -13.6576 N   0  0  0  0  0  0  0  0  0  0  0  0
   27.2587  -19.6099  -14.1973 C   0  0  0  0  0  0  0  0  0  0  0  0
   27.6252  -18.4617  -14.5829 O   0  0  0  0  0  0  0  0  0  0  0  0
   25.8773  -20.1037  -14.2636 C   0  0  0  0  0  0  0  0  0  0  0  0
   25.3821  -20.5159  -12.9219 C   0  0  2  0  0  0  0  0  0  0  0  0
   23.9739  -20.1616  -12.7514 N   0  0  0  0  0  0  0  0  0  0  0  0
   26.1279  -19.8401  -11.8029 C   0  0  0  0  0  0  0  0  0  0  0  0
   25.6850  -18.6878  -11.4708 O   0  0  0  0  0  0  0  0  0  0  0  0
   27.2234  -20.4352  -11.1714 N   0  0  0  0  0  0  0  0  0  0  0  0
   27.3051  -20.6737   -9.7738 C   0  0  1  0  0  0  0  0  0  0  0  0
   26.2777  -19.8893   -9.0022 C   0  0  0  0  0  0  0  0  0  0  0  0
   26.9578  -19.1947   -7.8746 C   0  0  0  0  0  0  0  0  0  0  0  0
   27.3743  -17.8930   -7.8125 C   0  0  0  0  0  0  0  0  0  0  0  0
   27.9375  -17.7063   -6.5898 N   0  0  0  0  0  0  0  0  0  0  0  0
   27.8958  -18.8369   -5.8711 C   0  0  0  0  0  0  0  0  0  0  0  0
   28.3267  -19.1719   -4.5859 C   0  0  0  0  0  0  0  0  0  0  0  0
   28.1472  -20.4415   -4.0944 C   0  0  0  0  0  0  0  0  0  0  0  0
   27.5416  -21.3913   -4.8649 C   0  0  0  0  0  0  0  0  0  0  0  0
   27.1180  -21.0398   -6.1447 C   0  0  0  0  0  0  0  0  0  0  0  0
   27.2885  -19.7717   -6.6578 C   0  0  0  0  0  0  0  0  0  0  0  0
   27.2323  -22.1161   -9.4309 C   0  0  0  0  0  0  0  0  0  0  0  0
   26.2710  -22.8486   -9.6855 O   0  0  0  0  0  0  0  0  0  0  0  0
   28.3349  -22.6684   -8.7753 O   0  0  0  0  0  0  0  0  0  0  0  0
  2  1  1  6
  2  3  1  0
  3  4  1  0
  4  5  1  0
  6  5  1  0
  7  6  1  0
  8  9  2  0
  8  2  1  0
 10 11  1  0
 11 13  1  0
 12 11  2  0
 14 13  1  6
 14 15  1  0
 15  8  1  0
 16 14  1  0
 16 18  1  0
 17 16  2  0
 19 18  1  0
 19 30  1  0
 20 21  1  0
 19 20  1  1
 21 29  1  0
 22 21  2  0
 22 23  1  0
 23 24  1  0
 24 25  1  0
 25 26  2  0
 27 26  1  0
 28 27  2  0
 29 24  2  0
 29 28  1  0
 30 31  2  0
 30 32  1  0
M  END
$$$$
