KNW.pdb
     RDKit          3D

 32 33  0  0  1  0  0  0  0  0999 V2000
   24.2394  -18.2834  -16.3052 N   0  0  0  0  0  0  0  0  0  0  0  0
   24.4813  -18.4546  -14.9070 C   0  0  1  0  0  0  0  0  0  0  0  0
   23.2428  -18.3934  -14.0675 C   0  0  0  0  0  0  0  0  0  0  0  0
   21.9692  -18.4642  -14.8439 C   0  0  0  0  0  0  0  0  0  0  0  0
   21.4059  -17.1105  -15.1958 C   0  0  0  0  0  0  0  0  0  0  0  0
   20.0819  -17.3263  -15.9116 C   0  0  0  0  0  0  0  0  0  0  0  0
   19.5543  -16.1117  -16.4752 N   0  0  0  0  0  0  0  0  0  0  0  0
   25.1119  -19.8016  -14.6608 C   0  0  0  0  0  0  0  0  0  0  0  0
   24.5324  -20.8610  -15.0042 O   0  0  0  0  0  0  0  0  0  0  0  0
   28.3987  -22.5057  -16.4922 N   0  0  0  0  0  0  0  0  0  0  0  0
   28.4103  -21.2642  -15.7707 C   0  0  0  0  0  0  0  0  0  0  0  0
   28.4833  -20.1836  -16.4253 O   0  0  0  0  0  0  0  0  0  0  0  0
   28.3347  -21.3417  -14.3062 C   0  0  0  0  0  0  0  0  0  0  0  0
   26.9267  -21.2664  -13.8295 C   0  0  2  0  0  0  0  0  0  0  0  0
   26.3737  -19.9291  -14.0378 N   0  0  0  0  0  0  0  0  0  0  0  0
   26.8039  -21.5514  -12.3568 C   0  0  0  0  0  0  0  0  0  0  0  0
   27.2654  -22.6826  -11.9804 O   0  0  0  0  0  0  0  0  0  0  0  0
   26.2297  -20.6398  -11.4667 N   0  0  0  0  0  0  0  0  0  0  0  0
   26.0935  -20.8661  -10.0713 C   0  0  1  0  0  0  0  0  0  0  0  0
   27.0800  -20.0632   -9.2661 C   0  0  0  0  0  0  0  0  0  0  0  0
   26.8029  -20.2813   -7.8197 C   0  0  0  0  0  0  0  0  0  0  0  0
   25.7524  -20.9494   -7.2523 C   0  0  0  0  0  0  0  0  0  0  0  0
   25.9187  -20.8946   -5.9046 N   0  0  0  0  0  0  0  0  0  0  0  0
   27.0330  -20.2188   -5.5916 C   0  0  0  0  0  0  0  0  0  0  0  0
   27.6438  -19.8865   -4.3807 C   0  0  0  0  0  0  0  0  0  0  0  0
   28.8138  -19.1678   -4.3591 C   0  0  0  0  0  0  0  0  0  0  0  0
   29.3914  -18.7708   -5.5302 C   0  0  0  0  0  0  0  0  0  0  0  0
   28.7685  -19.1110   -6.7289 C   0  0  0  0  0  0  0  0  0  0  0  0
   27.5938  -19.8313   -6.7734 C   0  0  0  0  0  0  0  0  0  0  0  0
   24.7096  -20.6408   -9.5841 C   0  0  0  0  0  0  0  0  0  0  0  0
   23.8879  -19.8971  -10.1292 O   0  0  0  0  0  0  0  0  0  0  0  0
   24.3251  -21.3242   -8.4284 O   0  0  0  0  0  0  0  0  0  0  0  0
  2  1  1  6
  2  3  1  0
  3  4  1  0
  4  5  1  0
  6  5  1  0
  7  6  1  0
  8  9  2  0
  8  2  1  0
 10 11  1  0
 11 13  1  0
 12 11  2  0
 14 13  1  1
 14 15  1  0
 15  8  1  0
 16 14  1  0
 16 18  1  0
 17 16  2  0
 19 18  1  0
 19 30  1  0
 20 21  1  0
 19 20  1  1
 21 29  1  0
 22 21  2  0
 22 23  1  0
 23 24  1  0
 24 25  1  0
 25 26  2  0
 27 26  1  0
 28 27  2  0
 29 24  2  0
 29 28  1  0
 30 31  2  0
 30 32  1  0
M  END
$$$$
