KNW.pdb
     RDKit          3D

 32 33  0  0  1  0  0  0  0  0999 V2000
   29.0253  -21.3758  -15.8243 N   0  0  0  0  0  0  0  0  0  0  0  0
   27.8453  -20.6892  -16.2474 C   0  0  1  0  0  0  0  0  0  0  0  0
   27.7809  -20.4520  -17.7245 C   0  0  0  0  0  0  0  0  0  0  0  0
   28.8349  -21.1625  -18.5082 C   0  0  0  0  0  0  0  0  0  0  0  0
   28.7765  -20.8770  -19.9876 C   0  0  0  0  0  0  0  0  0  0  0  0
   29.9062  -21.6433  -20.6571 C   0  0  0  0  0  0  0  0  0  0  0  0
   29.9804  -21.3935  -22.0725 N   0  0  0  0  0  0  0  0  0  0  0  0
   26.6268  -21.4971  -15.8794 C   0  0  0  0  0  0  0  0  0  0  0  0
   26.6758  -22.7498  -15.8126 O   0  0  0  0  0  0  0  0  0  0  0  0
   25.0864  -22.9191  -11.5084 N   0  0  0  0  0  0  0  0  0  0  0  0
   24.8219  -21.5851  -11.9694 C   0  0  0  0  0  0  0  0  0  0  0  0
   24.0096  -20.8680  -11.3156 O   0  0  0  0  0  0  0  0  0  0  0  0
   25.5240  -21.1455  -13.1819 C   0  0  0  0  0  0  0  0  0  0  0  0
   24.6624  -21.2791  -14.3881 C   0  0  2  0  0  0  0  0  0  0  0  0
   25.3859  -20.8838  -15.5955 N   0  0  0  0  0  0  0  0  0  0  0  0
   23.4406  -20.4030  -14.3199 C   0  0  0  0  0  0  0  0  0  0  0  0
   23.6555  -19.1954  -13.9595 O   0  0  0  0  0  0  0  0  0  0  0  0
   22.1643  -20.8783  -14.6334 N   0  0  0  0  0  0  0  0  0  0  0  0
   20.9956  -20.0717  -14.6515 C   0  0  1  0  0  0  0  0  0  0  0  0
   20.3978  -19.9679  -16.0292 C   0  0  0  0  0  0  0  0  0  0  0  0
   21.3475  -19.2285  -16.9055 C   0  0  0  0  0  0  0  0  0  0  0  0
   22.6703  -19.4947  -17.1313 C   0  0  0  0  0  0  0  0  0  0  0  0
   23.1281  -18.5585  -18.0037 N   0  0  0  0  0  0  0  0  0  0  0  0
   22.1497  -17.7075  -18.3423 C   0  0  0  0  0  0  0  0  0  0  0  0
   22.0959  -16.5956  -19.1853 C   0  0  0  0  0  0  0  0  0  0  0  0
   20.9264  -15.8944  -19.3479 C   0  0  0  0  0  0  0  0  0  0  0  0
   19.8005  -16.2830  -18.6816 C   0  0  0  0  0  0  0  0  0  0  0  0
   19.8721  -17.3944  -17.8447 C   0  0  0  0  0  0  0  0  0  0  0  0
   21.0356  -18.1123  -17.6667 C   0  0  0  0  0  0  0  0  0  0  0  0
   19.9760  -20.5137  -13.6675 C   0  0  0  0  0  0  0  0  0  0  0  0
   20.0698  -21.5288  -12.9702 O   0  0  0  0  0  0  0  0  0  0  0  0
   18.8376  -19.7160  -13.5324 O   0  0  0  0  0  0  0  0  0  0  0  0
  2  1  1  6
  2  3  1  0
  3  4  1  0
  4  5  1  0
  6  5  1  0
  7  6  1  0
  8  9  2  0
  8  2  1  0
 10 11  1  0
 11 13  1  0
 12 11  2  0
 14 13  1  1
 14 15  1  0
 15  8  1  0
 16 14  1  0
 16 18  1  0
 17 16  2  0
 19 18  1  0
 19 30  1  0
 20 21  1  0
 19 20  1  6
 21 29  1  0
 22 21  2  0
 22 23  1  0
 23 24  1  0
 24 25  1  0
 25 26  2  0
 27 26  1  0
 28 27  2  0
 29 24  2  0
 29 28  1  0
 30 31  2  0
 30 32  1  0
M  END
$$$$
