KNW.pdb
     RDKit          3D

 32 33  0  0  1  0  0  0  0  0999 V2000
   25.5100  -16.9067  -14.0604 N   0  0  0  0  0  0  0  0  0  0  0  0
   24.6860  -17.8702  -14.7205 C   0  0  1  0  0  0  0  0  0  0  0  0
   24.6182  -17.6912  -16.2057 C   0  0  0  0  0  0  0  0  0  0  0  0
   23.9582  -16.4252  -16.6432 C   0  0  0  0  0  0  0  0  0  0  0  0
   22.6427  -16.1657  -15.9534 C   0  0  0  0  0  0  0  0  0  0  0  0
   22.0824  -14.8585  -16.4909 C   0  0  0  0  0  0  0  0  0  0  0  0
   20.7721  -14.5648  -15.9731 N   0  0  0  0  0  0  0  0  0  0  0  0
   25.2232  -19.2563  -14.4698 C   0  0  0  0  0  0  0  0  0  0  0  0
   24.7044  -20.2608  -15.0155 O   0  0  0  0  0  0  0  0  0  0  0  0
   29.5596  -19.3048  -15.0403 N   0  0  0  0  0  0  0  0  0  0  0  0
   28.6576  -20.4209  -14.9901 C   0  0  0  0  0  0  0  0  0  0  0  0
   28.2360  -20.9087  -16.0791 O   0  0  0  0  0  0  0  0  0  0  0  0
   28.2867  -20.9211  -13.6602 C   0  0  0  0  0  0  0  0  0  0  0  0
   26.8159  -20.8498  -13.4430 C   0  0  2  0  0  0  0  0  0  0  0  0
   26.3262  -19.4832  -13.6162 N   0  0  0  0  0  0  0  0  0  0  0  0
   26.4207  -21.2688  -12.0525 C   0  0  0  0  0  0  0  0  0  0  0  0
   26.6758  -22.4861  -11.7570 O   0  0  0  0  0  0  0  0  0  0  0  0
   25.8218  -20.3857  -11.1501 N   0  0  0  0  0  0  0  0  0  0  0  0
   25.3051  -20.7686   -9.8839 C   0  0  1  0  0  0  0  0  0  0  0  0
   25.8223  -19.8964   -8.7713 C   0  0  0  0  0  0  0  0  0  0  0  0
   27.1601  -20.3999   -8.3548 C   0  0  0  0  0  0  0  0  0  0  0  0
   28.0172  -21.2015   -9.0579 C   0  0  0  0  0  0  0  0  0  0  0  0
   29.1163  -21.3966   -8.2827 N   0  0  0  0  0  0  0  0  0  0  0  0
   28.9931  -20.7510   -7.1146 C   0  0  0  0  0  0  0  0  0  0  0  0
   29.8190  -20.6292   -5.9953 C   0  0  0  0  0  0  0  0  0  0  0  0
   29.4268  -19.8818   -4.9120 C   0  0  0  0  0  0  0  0  0  0  0  0
   28.2181  -19.2483   -4.9228 C   0  0  0  0  0  0  0  0  0  0  0  0
   27.4069  -19.3805   -6.0476 C   0  0  0  0  0  0  0  0  0  0  0  0
   27.7808  -20.1260   -7.1455 C   0  0  0  0  0  0  0  0  0  0  0  0
   23.8220  -20.8263   -9.8611 C   0  0  0  0  0  0  0  0  0  0  0  0
   23.0959  -20.5546  -10.8225 O   0  0  0  0  0  0  0  0  0  0  0  0
   23.2211  -21.2165   -8.6622 O   0  0  0  0  0  0  0  0  0  0  0  0
  2  1  1  1
  2  3  1  0
  3  4  1  0
  4  5  1  0
  6  5  1  0
  7  6  1  0
  8  9  2  0
  8  2  1  0
 10 11  1  0
 11 13  1  0
 12 11  2  0
 14 13  1  1
 14 15  1  0
 15  8  1  0
 16 14  1  0
 16 18  1  0
 17 16  2  0
 19 18  1  0
 19 30  1  0
 20 21  1  0
 19 20  1  1
 21 29  1  0
 22 21  2  0
 22 23  1  0
 23 24  1  0
 24 25  1  0
 25 26  2  0
 27 26  1  0
 28 27  2  0
 29 24  2  0
 29 28  1  0
 30 31  2  0
 30 32  1  0
M  END
$$$$
