KNW.pdb
     RDKit          3D

 32 33  0  0  1  0  0  0  0  0999 V2000
   26.7853  -21.0930  -16.7342 N   0  0  0  0  0  0  0  0  0  0  0  0
   26.8059  -19.7405  -16.2727 C   0  0  1  0  0  0  0  0  0  0  0  0
   26.4380  -18.7380  -17.3225 C   0  0  0  0  0  0  0  0  0  0  0  0
   27.0922  -18.9647  -18.6456 C   0  0  0  0  0  0  0  0  0  0  0  0
   28.2783  -18.0661  -18.8894 C   0  0  0  0  0  0  0  0  0  0  0  0
   28.8797  -18.4399  -20.2350 C   0  0  0  0  0  0  0  0  0  0  0  0
   30.0414  -17.6541  -20.5582 N   0  0  0  0  0  0  0  0  0  0  0  0
   25.8221  -19.5733  -15.1427 C   0  0  0  0  0  0  0  0  0  0  0  0
   24.7570  -18.9277  -15.3010 O   0  0  0  0  0  0  0  0  0  0  0  0
   22.1246  -22.0472  -11.9897 N   0  0  0  0  0  0  0  0  0  0  0  0
   22.7005  -20.7828  -12.3528 C   0  0  0  0  0  0  0  0  0  0  0  0
   22.2610  -19.7347  -11.7964 O   0  0  0  0  0  0  0  0  0  0  0  0
   23.7723  -20.8003  -13.3565 C   0  0  0  0  0  0  0  0  0  0  0  0
   24.9847  -20.0871  -12.8700 C   0  0  2  0  0  0  0  0  0  0  0  0
   26.0542  -20.1321  -13.8659 N   0  0  0  0  0  0  0  0  0  0  0  0
   25.5468  -20.7012  -11.6161 C   0  0  0  0  0  0  0  0  0  0  0  0
   25.9412  -21.9117  -11.7318 O   0  0  0  0  0  0  0  0  0  0  0  0
   25.6337  -19.9937  -10.4141 N   0  0  0  0  0  0  0  0  0  0  0  0
   26.2474  -20.4961   -9.2361 C   0  0  1  0  0  0  0  0  0  0  0  0
   27.1412  -19.4768   -8.5816 C   0  0  0  0  0  0  0  0  0  0  0  0
   28.1422  -20.1910   -7.7423 C   0  0  0  0  0  0  0  0  0  0  0  0
   28.8721  -21.3034   -8.0612 C   0  0  0  0  0  0  0  0  0  0  0  0
   29.6565  -21.5933   -6.9899 N   0  0  0  0  0  0  0  0  0  0  0  0
   29.4553  -20.7099   -6.0022 C   0  0  0  0  0  0  0  0  0  0  0  0
   29.9967  -20.5624   -4.7236 C   0  0  0  0  0  0  0  0  0  0  0  0
   29.5947  -19.5351   -3.9057 C   0  0  0  0  0  0  0  0  0  0  0  0
   28.6562  -18.6449   -4.3410 C   0  0  0  0  0  0  0  0  0  0  0  0
   28.1268  -18.8070   -5.6193 C   0  0  0  0  0  0  0  0  0  0  0  0
   28.5158  -19.8311   -6.4564 C   0  0  0  0  0  0  0  0  0  0  0  0
   25.2666  -21.0381   -8.2626 C   0  0  0  0  0  0  0  0  0  0  0  0
   24.1166  -20.6119   -8.1163 O   0  0  0  0  0  0  0  0  0  0  0  0
   25.6883  -22.1036   -7.4642 O   0  0  0  0  0  0  0  0  0  0  0  0
  2  1  1  6
  2  3  1  0
  3  4  1  0
  4  5  1  0
  6  5  1  0
  7  6  1  0
  8  9  2  0
  8  2  1  0
 10 11  1  0
 11 13  1  0
 12 11  2  0
 14 13  1  6
 14 15  1  0
 15  8  1  0
 16 14  1  0
 16 18  1  0
 17 16  2  0
 19 18  1  0
 19 30  1  0
 20 21  1  0
 19 20  1  1
 21 29  1  0
 22 21  2  0
 22 23  1  0
 23 24  1  0
 24 25  1  0
 25 26  2  0
 27 26  1  0
 28 27  2  0
 29 24  2  0
 29 28  1  0
 30 31  2  0
 30 32  1  0
M  END
$$$$
