KSQ.pdb
     RDKit          3D

 25 24  0  0  1  0  0  0  0  0999 V2000
    4.0205  -22.1282   20.9749 N   0  0  0  0  0  0  0  0  0  0  0  0
    4.1185  -20.8454   21.6516 C   0  0  1  0  0  0  0  0  0  0  0  0
    3.0107  -20.7472   22.6505 C   0  0  0  0  0  0  0  0  0  0  0  0
    2.1208  -21.9715   22.6490 C   0  0  0  0  0  0  0  0  0  0  0  0
    1.0517  -21.8630   23.7308 C   0  0  0  0  0  0  0  0  0  0  0  0
    0.0867  -23.0264   23.6435 C   0  0  0  0  0  0  0  0  0  0  0  0
   -0.8435  -22.8887   24.7436 N   0  0  0  0  0  0  0  0  0  0  0  0
    5.4558  -20.6586   22.2610 C   0  0  0  0  0  0  0  0  0  0  0  0
    6.1706  -21.6755   22.4193 O   0  0  0  0  0  0  0  0  0  0  0  0
    6.9845  -16.9439   23.4577 O   0  0  0  0  0  0  0  0  0  0  0  0
    7.8895  -17.9400   23.0803 C   0  0  0  0  0  0  0  0  0  0  0  0
    7.2739  -19.3162   23.2623 C   0  0  2  0  0  0  0  0  0  0  0  0
    5.9745  -19.4105   22.6736 N   0  0  0  0  0  0  0  0  0  0  0  0
    7.1497  -19.5272   24.7316 C   0  0  0  0  0  0  0  0  0  0  0  0
    6.0712  -19.2435   25.3362 O   0  0  0  0  0  0  0  0  0  0  0  0
    7.8261  -24.5287   27.4575 N   0  0  0  0  0  0  0  0  0  0  0  0
    7.7528  -23.6645   28.6000 C   0  0  0  0  0  0  0  0  0  0  0  0
    7.5810  -24.1733   29.7339 O   0  0  0  0  0  0  0  0  0  0  0  0
    7.8767  -22.2043   28.4709 C   0  0  0  0  0  0  0  0  0  0  0  0
    8.0127  -21.8204   27.0297 C   0  0  0  0  0  0  0  0  0  0  0  0
    8.1771  -20.3418   26.8977 C   0  0  2  0  0  0  0  0  0  0  0  0
    8.2554  -20.0517   25.4524 N   0  0  0  0  0  0  0  0  0  0  0  0
    9.4226  -19.8592   27.5553 C   0  0  0  0  0  0  0  0  0  0  0  0
   10.5755  -19.6367   26.8436 O   0  0  0  0  0  0  0  0  0  0  0  0
    9.4038  -19.6558   28.7857 O   0  0  0  0  0  0  0  0  0  0  0  0
  2  1  1  1
  3  2  1  0
  3  4  1  0
  5  4  1  0
  5  6  1  0
  7  6  1  0
  8  2  1  0
  8  9  2  0
 11 10  1  0
 12 11  1  1
 12 13  1  0
 13  8  1  0
 14 12  1  0
 14 22  1  0
 15 14  2  0
 16 17  1  0
 17 19  1  0
 18 17  2  0
 19 20  1  0
 21 20  1  6
 21 22  1  0
 21 23  1  0
 23 25  2  0
 23 24  1  0
M  END
$$$$
