KSQ.pdb
     RDKit          3D

 25 24  0  0  1  0  0  0  0  0999 V2000
    2.7935  -20.2237   20.7190 N   0  0  0  0  0  0  0  0  0  0  0  0
    3.0987  -19.1642   21.6664 C   0  0  1  0  0  0  0  0  0  0  0  0
    2.1127  -19.2287   22.7882 C   0  0  0  0  0  0  0  0  0  0  0  0
    0.7200  -19.5840   22.3138 C   0  0  0  0  0  0  0  0  0  0  0  0
    0.3832  -21.0295   22.6631 C   0  0  0  0  0  0  0  0  0  0  0  0
   -1.0424  -21.3537   22.2692 C   0  0  0  0  0  0  0  0  0  0  0  0
   -1.9067  -20.6809   23.2153 N   0  0  0  0  0  0  0  0  0  0  0  0
    4.5021  -19.2470   22.1335 C   0  0  0  0  0  0  0  0  0  0  0  0
    5.0187  -20.3848   22.2258 O   0  0  0  0  0  0  0  0  0  0  0  0
    6.7922  -15.9411   23.3241 O   0  0  0  0  0  0  0  0  0  0  0  0
    7.4517  -16.9913   22.6794 C   0  0  0  0  0  0  0  0  0  0  0  0
    6.6696  -18.2842   22.8299 C   0  0  2  0  0  0  0  0  0  0  0  0
    5.2922  -18.1279   22.4805 N   0  0  0  0  0  0  0  0  0  0  0  0
    6.7583  -18.6610   24.2683 C   0  0  0  0  0  0  0  0  0  0  0  0
    5.8568  -18.3045   25.0864 O   0  0  0  0  0  0  0  0  0  0  0  0
    6.2832  -23.2073   26.7714 N   0  0  0  0  0  0  0  0  0  0  0  0
    7.2434  -22.8485   27.7748 C   0  0  0  0  0  0  0  0  0  0  0  0
    7.1814  -23.4037   28.8982 O   0  0  0  0  0  0  0  0  0  0  0  0
    8.2937  -21.8518   27.5148 C   0  0  0  0  0  0  0  0  0  0  0  0
    8.1791  -21.3299   26.1157 C   0  0  0  0  0  0  0  0  0  0  0  0
    8.0060  -19.8465   26.1255 C   0  0  2  0  0  0  0  0  0  0  0  0
    7.8671  -19.4269   24.7170 N   0  0  0  0  0  0  0  0  0  0  0  0
    9.1802  -19.1528   26.7225 C   0  0  0  0  0  0  0  0  0  0  0  0
   10.1233  -18.5288   25.9437 O   0  0  0  0  0  0  0  0  0  0  0  0
    9.2978  -19.1461   27.9642 O   0  0  0  0  0  0  0  0  0  0  0  0
  2  1  1  6
  3  2  1  0
  3  4  1  0
  5  4  1  0
  5  6  1  0
  7  6  1  0
  8  2  1  0
  8  9  2  0
 11 10  1  0
 12 11  1  1
 12 13  1  0
 13  8  1  0
 14 12  1  0
 14 22  1  0
 15 14  2  0
 16 17  1  0
 17 19  1  0
 18 17  2  0
 19 20  1  0
 21 20  1  6
 21 22  1  0
 21 23  1  0
 23 25  2  0
 23 24  1  0
M  END
$$$$
