KSQ.pdb
     RDKit          3D

 25 24  0  0  1  0  0  0  0  0999 V2000
    8.3377  -13.0507   17.9954 N   0  0  0  0  0  0  0  0  0  0  0  0
    8.6836  -14.3554   18.5351 C   0  0  1  0  0  0  0  0  0  0  0  0
   10.1692  -14.5142   18.4837 C   0  0  0  0  0  0  0  0  0  0  0  0
   10.6582  -14.9369   17.1151 C   0  0  0  0  0  0  0  0  0  0  0  0
   12.1780  -15.0596   17.0992 C   0  0  0  0  0  0  0  0  0  0  0  0
   12.6618  -15.5002   15.7338 C   0  0  0  0  0  0  0  0  0  0  0  0
   14.1081  -15.4561   15.7624 N   0  0  0  0  0  0  0  0  0  0  0  0
    8.1364  -14.5360   19.8998 C   0  0  0  0  0  0  0  0  0  0  0  0
    8.0926  -13.5314   20.6473 O   0  0  0  0  0  0  0  0  0  0  0  0
    7.1765  -18.2178   21.6629 O   0  0  0  0  0  0  0  0  0  0  0  0
    6.2990  -17.1551   21.8954 C   0  0  0  0  0  0  0  0  0  0  0  0
    7.0009  -15.8265   21.6763 C   0  0  2  0  0  0  0  0  0  0  0  0
    7.6622  -15.7656   20.4102 N   0  0  0  0  0  0  0  0  0  0  0  0
    8.0216  -15.7104   22.7550 C   0  0  0  0  0  0  0  0  0  0  0  0
    9.2567  -15.8297   22.4915 O   0  0  0  0  0  0  0  0  0  0  0  0
    5.5413  -11.6105   26.5843 N   0  0  0  0  0  0  0  0  0  0  0  0
    6.5001  -12.6361   26.8780 C   0  0  0  0  0  0  0  0  0  0  0  0
    6.6630  -12.9888   28.0711 O   0  0  0  0  0  0  0  0  0  0  0  0
    7.2891  -13.2803   25.8166 C   0  0  0  0  0  0  0  0  0  0  0  0
    7.8257  -14.5946   26.2937 C   0  0  0  0  0  0  0  0  0  0  0  0
    8.5591  -15.2883   25.1931 C   0  0  2  0  0  0  0  0  0  0  0  0
    7.5966  -15.4637   24.0875 N   0  0  0  0  0  0  0  0  0  0  0  0
    9.0599  -16.6256   25.6141 C   0  0  0  0  0  0  0  0  0  0  0  0
   10.2530  -16.7741   26.2773 O   0  0  0  0  0  0  0  0  0  0  0  0
    8.3671  -17.6289   25.3508 O   0  0  0  0  0  0  0  0  0  0  0  0
  2  1  1  1
  3  2  1  0
  3  4  1  0
  5  4  1  0
  5  6  1  0
  7  6  1  0
  8  2  1  0
  8  9  2  0
 11 10  1  0
 12 11  1  1
 12 13  1  0
 13  8  1  0
 14 12  1  0
 14 22  1  0
 15 14  2  0
 16 17  1  0
 17 19  1  0
 18 17  2  0
 19 20  1  0
 21 20  1  1
 21 22  1  0
 21 23  1  0
 23 25  2  0
 23 24  1  0
M  END
$$$$
