KSQ.pdb
     RDKit          3D

 25 24  0  0  1  0  0  0  0  0999 V2000
    9.9698  -19.9448   20.2419 N   0  0  0  0  0  0  0  0  0  0  0  0
   10.9164  -19.6283   21.2988 C   0  0  1  0  0  0  0  0  0  0  0  0
   11.8727  -18.5981   20.7900 C   0  0  0  0  0  0  0  0  0  0  0  0
   12.5562  -19.0264   19.5093 C   0  0  0  0  0  0  0  0  0  0  0  0
   13.4569  -17.9154   18.9806 C   0  0  0  0  0  0  0  0  0  0  0  0
   14.1967  -18.3746   17.7419 C   0  0  0  0  0  0  0  0  0  0  0  0
   14.8667  -17.2145   17.1943 N   0  0  0  0  0  0  0  0  0  0  0  0
   10.2206  -19.2013   22.5349 C   0  0  0  0  0  0  0  0  0  0  0  0
    9.2056  -18.4771   22.4111 O   0  0  0  0  0  0  0  0  0  0  0  0
   11.2623  -20.4453   26.4376 O   0  0  0  0  0  0  0  0  0  0  0  0
    9.9356  -20.1481   26.1136 C   0  0  0  0  0  0  0  0  0  0  0  0
    9.8769  -19.1372   24.9820 C   0  0  2  0  0  0  0  0  0  0  0  0
   10.6278  -19.5578   23.8405 N   0  0  0  0  0  0  0  0  0  0  0  0
   10.4766  -17.8811   25.5125 C   0  0  0  0  0  0  0  0  0  0  0  0
   11.6959  -17.6058   25.2967 O   0  0  0  0  0  0  0  0  0  0  0  0
    8.0471  -12.4950   28.1010 N   0  0  0  0  0  0  0  0  0  0  0  0
    8.2271  -12.6710   26.6889 C   0  0  0  0  0  0  0  0  0  0  0  0
    7.9318  -11.7257   25.9185 O   0  0  0  0  0  0  0  0  0  0  0  0
    8.7495  -13.9272   26.1294 C   0  0  0  0  0  0  0  0  0  0  0  0
    9.0432  -14.9021   27.2277 C   0  0  0  0  0  0  0  0  0  0  0  0
   10.2128  -15.7575   26.8661 C   0  0  2  0  0  0  0  0  0  0  0  0
    9.6663  -16.9904   26.2656 N   0  0  0  0  0  0  0  0  0  0  0  0
   11.0269  -16.1208   28.0584 C   0  0  0  0  0  0  0  0  0  0  0  0
   11.0484  -17.4005   28.5557 O   0  0  0  0  0  0  0  0  0  0  0  0
   11.7023  -15.2292   28.6103 O   0  0  0  0  0  0  0  0  0  0  0  0
  2  1  1  6
  3  2  1  0
  3  4  1  0
  5  4  1  0
  5  6  1  0
  7  6  1  0
  8  2  1  0
  8  9  2  0
 11 10  1  0
 12 11  1  1
 12 13  1  0
 13  8  1  0
 14 12  1  0
 14 22  1  0
 15 14  2  0
 16 17  1  0
 17 19  1  0
 18 17  2  0
 19 20  1  0
 21 20  1  1
 21 22  1  0
 21 23  1  0
 23 25  2  0
 23 24  1  0
M  END
$$$$
