KSQ.pdb
     RDKit          3D

 25 24  0  0  1  0  0  0  0  0999 V2000
   10.0448  -16.6559   19.2133 N   0  0  0  0  0  0  0  0  0  0  0  0
    8.9457  -16.6395   20.1646 C   0  0  1  0  0  0  0  0  0  0  0  0
    8.2862  -17.9810   20.1548 C   0  0  0  0  0  0  0  0  0  0  0  0
    8.1603  -18.5529   18.7591 C   0  0  0  0  0  0  0  0  0  0  0  0
    6.7066  -18.5389   18.2992 C   0  0  0  0  0  0  0  0  0  0  0  0
    6.5623  -19.2498   16.9701 C   0  0  0  0  0  0  0  0  0  0  0  0
    5.1556  -19.2318   16.6306 N   0  0  0  0  0  0  0  0  0  0  0  0
    9.4074  -16.2395   21.5142 C   0  0  0  0  0  0  0  0  0  0  0  0
   10.5972  -16.4867   21.8195 O   0  0  0  0  0  0  0  0  0  0  0  0
    6.8674  -14.9094   24.5790 O   0  0  0  0  0  0  0  0  0  0  0  0
    8.1679  -14.3977   24.5664 C   0  0  0  0  0  0  0  0  0  0  0  0
    9.0934  -15.3131   23.7843 C   0  0  2  0  0  0  0  0  0  0  0  0
    8.5935  -15.5989   22.4758 N   0  0  0  0  0  0  0  0  0  0  0  0
    9.1714  -16.5854   24.5549 C   0  0  0  0  0  0  0  0  0  0  0  0
    8.4113  -17.5605   24.2709 O   0  0  0  0  0  0  0  0  0  0  0  0
   13.2661  -20.2727   24.4102 N   0  0  0  0  0  0  0  0  0  0  0  0
   12.6697  -20.7762   25.6136 C   0  0  0  0  0  0  0  0  0  0  0  0
   13.0226  -21.9027   26.0388 O   0  0  0  0  0  0  0  0  0  0  0  0
   11.6617  -20.0034   26.3558 C   0  0  0  0  0  0  0  0  0  0  0  0
   11.4064  -18.6943   25.6747 C   0  0  0  0  0  0  0  0  0  0  0  0
   10.3007  -17.9586   26.3579 C   0  0  2  0  0  0  0  0  0  0  0  0
   10.1094  -16.6969   25.6155 N   0  0  0  0  0  0  0  0  0  0  0  0
   10.6348  -17.6402   27.7733 C   0  0  0  0  0  0  0  0  0  0  0  0
   10.5501  -18.5853   28.7656 O   0  0  0  0  0  0  0  0  0  0  0  0
   11.0000  -16.4802   28.0506 O   0  0  0  0  0  0  0  0  0  0  0  0
  2  1  1  6
  3  2  1  0
  3  4  1  0
  5  4  1  0
  5  6  1  0
  7  6  1  0
  8  2  1  0
  8  9  2  0
 11 10  1  0
 12 11  1  1
 12 13  1  0
 13  8  1  0
 14 12  1  0
 14 22  1  0
 15 14  2  0
 16 17  1  0
 17 19  1  0
 18 17  2  0
 19 20  1  0
 21 20  1  6
 21 22  1  0
 21 23  1  0
 23 25  2  0
 23 24  1  0
M  END
$$$$
