KSQ.pdb
     RDKit          3D

 25 24  0  0  1  0  0  0  0  0999 V2000
    6.8739  -17.1493   20.7491 N   0  0  0  0  0  0  0  0  0  0  0  0
    8.1099  -16.5618   21.2393 C   0  0  1  0  0  0  0  0  0  0  0  0
    8.0209  -15.0762   21.0979 C   0  0  0  0  0  0  0  0  0  0  0  0
    8.4540  -14.5991   19.7283 C   0  0  0  0  0  0  0  0  0  0  0  0
    8.4069  -13.0771   19.6473 C   0  0  0  0  0  0  0  0  0  0  0  0
    8.7436  -12.6084   18.2474 C   0  0  0  0  0  0  0  0  0  0  0  0
    8.4942  -11.1834   18.2065 N   0  0  0  0  0  0  0  0  0  0  0  0
    8.3944  -16.9875   22.6294 C   0  0  0  0  0  0  0  0  0  0  0  0
    7.4588  -16.9250   23.4605 O   0  0  0  0  0  0  0  0  0  0  0  0
   12.2732  -17.7518   24.1704 O   0  0  0  0  0  0  0  0  0  0  0  0
   11.1857  -18.4475   24.7060 C   0  0  0  0  0  0  0  0  0  0  0  0
    9.8946  -17.6849   24.4660 C   0  0  2  0  0  0  0  0  0  0  0  0
    9.6500  -17.4581   23.0759 N   0  0  0  0  0  0  0  0  0  0  0  0
   10.0547  -16.3685   25.1444 C   0  0  0  0  0  0  0  0  0  0  0  0
   10.1170  -15.2967   24.4687 O   0  0  0  0  0  0  0  0  0  0  0  0
    6.2294  -13.3240   26.5733 N   0  0  0  0  0  0  0  0  0  0  0  0
    7.1857  -12.6021   27.3618 C   0  0  0  0  0  0  0  0  0  0  0  0
    6.8879  -11.4553   27.7745 O   0  0  0  0  0  0  0  0  0  0  0  0
    8.4984  -13.1757   27.6966 C   0  0  0  0  0  0  0  0  0  0  0  0
    8.6871  -14.4849   26.9942 C   0  0  0  0  0  0  0  0  0  0  0  0
   10.0302  -15.0567   27.3100 C   0  0  2  0  0  0  0  0  0  0  0  0
   10.1374  -16.3247   26.5616 N   0  0  0  0  0  0  0  0  0  0  0  0
   10.1874  -15.3390   28.7633 C   0  0  0  0  0  0  0  0  0  0  0  0
   10.6909  -14.4015   29.6309 O   0  0  0  0  0  0  0  0  0  0  0  0
    9.8488  -16.4610   29.1902 O   0  0  0  0  0  0  0  0  0  0  0  0
  2  1  1  1
  3  2  1  0
  3  4  1  0
  5  4  1  0
  5  6  1  0
  7  6  1  0
  8  2  1  0
  8  9  2  0
 11 10  1  0
 12 11  1  6
 12 13  1  0
 13  8  1  0
 14 12  1  0
 14 22  1  0
 15 14  2  0
 16 17  1  0
 17 19  1  0
 18 17  2  0
 19 20  1  0
 21 20  1  1
 21 22  1  0
 21 23  1  0
 23 25  2  0
 23 24  1  0
M  END
$$$$
