KSQ.pdb
     RDKit          3D

 25 24  0  0  1  0  0  0  0  0999 V2000
   11.6494  -17.6000   17.2167 N   0  0  0  0  0  0  0  0  0  0  0  0
   12.9256  -17.9349   17.8269 C   0  0  1  0  0  0  0  0  0  0  0  0
   14.0158  -17.6306   16.8503 C   0  0  0  0  0  0  0  0  0  0  0  0
   14.0270  -18.5895   15.6793 C   0  0  0  0  0  0  0  0  0  0  0  0
   15.2084  -18.3033   14.7587 C   0  0  0  0  0  0  0  0  0  0  0  0
   15.2661  -19.3178   13.6362 C   0  0  0  0  0  0  0  0  0  0  0  0
   16.4599  -19.0335   12.8692 N   0  0  0  0  0  0  0  0  0  0  0  0
   13.1047  -17.2346   19.1199 C   0  0  0  0  0  0  0  0  0  0  0  0
   13.8354  -16.2168   19.1345 O   0  0  0  0  0  0  0  0  0  0  0  0
   10.9416  -18.1953   22.5382 O   0  0  0  0  0  0  0  0  0  0  0  0
   11.4002  -16.8841   22.3834 C   0  0  0  0  0  0  0  0  0  0  0  0
   12.6487  -16.8544   21.5195 C   0  0  2  0  0  0  0  0  0  0  0  0
   12.5056  -17.6404   20.3339 N   0  0  0  0  0  0  0  0  0  0  0  0
   13.7435  -17.4329   22.3475 C   0  0  0  0  0  0  0  0  0  0  0  0
   14.1144  -18.6343   22.1801 O   0  0  0  0  0  0  0  0  0  0  0  0
   18.3345  -14.3341   21.4648 N   0  0  0  0  0  0  0  0  0  0  0  0
   18.2380  -15.2254   22.5846 C   0  0  0  0  0  0  0  0  0  0  0  0
   19.1120  -15.1659   23.4828 O   0  0  0  0  0  0  0  0  0  0  0  0
   17.1416  -16.1992   22.7021 C   0  0  0  0  0  0  0  0  0  0  0  0
   16.5862  -16.1901   24.0929 C   0  0  0  0  0  0  0  0  0  0  0  0
   15.4419  -17.1435   24.2031 C   0  0  2  0  0  0  0  0  0  0  0  0
   14.3709  -16.6225   23.3307 N   0  0  0  0  0  0  0  0  0  0  0  0
   14.9269  -17.2367   25.5968 C   0  0  0  0  0  0  0  0  0  0  0  0
   13.6787  -16.7772   25.9379 O   0  0  0  0  0  0  0  0  0  0  0  0
   15.6593  -17.7479   26.4674 O   0  0  0  0  0  0  0  0  0  0  0  0
  2  1  1  6
  3  2  1  0
  3  4  1  0
  5  4  1  0
  5  6  1  0
  7  6  1  0
  8  2  1  0
  8  9  2  0
 11 10  1  0
 12 11  1  1
 12 13  1  0
 13  8  1  0
 14 12  1  0
 14 22  1  0
 15 14  2  0
 16 17  1  0
 17 19  1  0
 18 17  2  0
 19 20  1  0
 21 20  1  1
 21 22  1  0
 21 23  1  0
 23 25  2  0
 23 24  1  0
M  END
$$$$
