KSQ.pdb
     RDKit          3D

 25 24  0  0  1  0  0  0  0  0999 V2000
    7.9522  -12.8424   17.1612 N   0  0  0  0  0  0  0  0  0  0  0  0
    7.7163  -14.1040   17.8438 C   0  0  1  0  0  0  0  0  0  0  0  0
    8.2337  -15.2141   16.9866 C   0  0  0  0  0  0  0  0  0  0  0  0
    8.4998  -14.7702   15.5643 C   0  0  0  0  0  0  0  0  0  0  0  0
    9.0586  -15.9215   14.7352 C   0  0  0  0  0  0  0  0  0  0  0  0
    9.3428  -15.4681   13.3188 C   0  0  0  0  0  0  0  0  0  0  0  0
    9.7108  -16.6460   12.5628 N   0  0  0  0  0  0  0  0  0  0  0  0
    8.3134  -14.1028   19.1995 C   0  0  0  0  0  0  0  0  0  0  0  0
    9.5313  -13.8258   19.2990 O   0  0  0  0  0  0  0  0  0  0  0  0
    6.5862  -15.9740   22.5167 O   0  0  0  0  0  0  0  0  0  0  0  0
    7.3228  -14.8156   22.7795 C   0  0  0  0  0  0  0  0  0  0  0  0
    8.2769  -14.5197   21.6357 C   0  0  2  0  0  0  0  0  0  0  0  0
    7.5986  -14.3934   20.3836 N   0  0  0  0  0  0  0  0  0  0  0  0
    9.2098  -15.6784   21.5595 C   0  0  0  0  0  0  0  0  0  0  0  0
    9.2163  -16.4369   20.5428 O   0  0  0  0  0  0  0  0  0  0  0  0
   14.3642  -14.0475   19.5093 N   0  0  0  0  0  0  0  0  0  0  0  0
   13.8980  -15.3347   19.9373 C   0  0  0  0  0  0  0  0  0  0  0  0
   13.7660  -16.2452   19.0841 O   0  0  0  0  0  0  0  0  0  0  0  0
   13.5764  -15.6084   21.3464 C   0  0  0  0  0  0  0  0  0  0  0  0
   12.1474  -15.2609   21.6296 C   0  0  0  0  0  0  0  0  0  0  0  0
   11.4949  -16.3451   22.4228 C   0  0  2  0  0  0  0  0  0  0  0  0
   10.0960  -15.9270   22.6412 N   0  0  0  0  0  0  0  0  0  0  0  0
   12.1522  -16.5410   23.7441 C   0  0  0  0  0  0  0  0  0  0  0  0
   13.2849  -17.3049   23.8812 O   0  0  0  0  0  0  0  0  0  0  0  0
   11.6499  -15.9909   24.7445 O   0  0  0  0  0  0  0  0  0  0  0  0
  2  1  1  6
  3  2  1  0
  3  4  1  0
  5  4  1  0
  5  6  1  0
  7  6  1  0
  8  2  1  0
  8  9  2  0
 11 10  1  0
 12 11  1  1
 12 13  1  0
 13  8  1  0
 14 12  1  0
 14 22  1  0
 15 14  2  0
 16 17  1  0
 17 19  1  0
 18 17  2  0
 19 20  1  0
 21 20  1  6
 21 22  1  0
 21 23  1  0
 23 25  2  0
 23 24  1  0
M  END
$$$$
