KSQ.pdb
     RDKit          3D

 25 24  0  0  1  0  0  0  0  0999 V2000
    7.8722  -17.7647   20.1466 N   0  0  0  0  0  0  0  0  0  0  0  0
    8.9508  -17.0044   20.7562 C   0  0  1  0  0  0  0  0  0  0  0  0
    8.6460  -15.5476   20.6161 C   0  0  0  0  0  0  0  0  0  0  0  0
    8.6597  -15.0903   19.1733 C   0  0  0  0  0  0  0  0  0  0  0  0
    8.3304  -13.6048   19.0748 C   0  0  0  0  0  0  0  0  0  0  0  0
    8.3999  -13.1388   17.6358 C   0  0  0  0  0  0  0  0  0  0  0  0
    7.9893  -11.7511   17.6197 N   0  0  0  0  0  0  0  0  0  0  0  0
    9.1670  -17.4102   22.1644 C   0  0  0  0  0  0  0  0  0  0  0  0
    8.1609  -17.4974   22.9061 O   0  0  0  0  0  0  0  0  0  0  0  0
   12.8578  -18.6889   23.8128 O   0  0  0  0  0  0  0  0  0  0  0  0
   11.6292  -19.1299   24.3123 C   0  0  0  0  0  0  0  0  0  0  0  0
   10.5570  -18.0763   24.0969 C   0  0  2  0  0  0  0  0  0  0  0  0
   10.4318  -17.7042   22.7222 N   0  0  0  0  0  0  0  0  0  0  0  0
   10.9820  -16.8819   24.8788 C   0  0  0  0  0  0  0  0  0  0  0  0
   11.4321  -15.8516   24.2913 O   0  0  0  0  0  0  0  0  0  0  0  0
    8.8644  -12.9574   29.1287 N   0  0  0  0  0  0  0  0  0  0  0  0
    8.5011  -13.4923   27.8483 C   0  0  0  0  0  0  0  0  0  0  0  0
    7.7340  -12.8281   27.1102 O   0  0  0  0  0  0  0  0  0  0  0  0
    9.0077  -14.7933   27.3848 C   0  0  0  0  0  0  0  0  0  0  0  0
   10.3479  -14.6277   26.7373 C   0  0  0  0  0  0  0  0  0  0  0  0
   11.2563  -15.7476   27.1259 C   0  0  2  0  0  0  0  0  0  0  0  0
   10.8779  -16.9077   26.2950 N   0  0  0  0  0  0  0  0  0  0  0  0
   11.1074  -16.1127   28.5615 C   0  0  0  0  0  0  0  0  0  0  0  0
   10.4786  -17.2695   28.9511 O   0  0  0  0  0  0  0  0  0  0  0  0
   11.5708  -15.3381   29.4223 O   0  0  0  0  0  0  0  0  0  0  0  0
  2  1  1  1
  3  2  1  0
  3  4  1  0
  5  4  1  0
  5  6  1  0
  7  6  1  0
  8  2  1  0
  8  9  2  0
 11 10  1  0
 12 11  1  6
 12 13  1  0
 13  8  1  0
 14 12  1  0
 14 22  1  0
 15 14  2  0
 16 17  1  0
 17 19  1  0
 18 17  2  0
 19 20  1  0
 21 20  1  6
 21 22  1  0
 21 23  1  0
 23 25  2  0
 23 24  1  0
M  END
$$$$
