KSQ.pdb
     RDKit          3D

 25 24  0  0  1  0  0  0  0  0999 V2000
    6.2982  -16.8779   21.0340 N   0  0  0  0  0  0  0  0  0  0  0  0
    7.5240  -16.1710   21.3671 C   0  0  1  0  0  0  0  0  0  0  0  0
    7.2275  -14.7073   21.4332 C   0  0  0  0  0  0  0  0  0  0  0  0
    7.0894  -14.0829   20.0614 C   0  0  0  0  0  0  0  0  0  0  0  0
    8.4463  -13.6256   19.5374 C   0  0  0  0  0  0  0  0  0  0  0  0
    8.2816  -12.8198   18.2661 C   0  0  0  0  0  0  0  0  0  0  0  0
    9.6045  -12.3992   17.8568 N   0  0  0  0  0  0  0  0  0  0  0  0
    8.1221  -16.6902   22.6190 C   0  0  0  0  0  0  0  0  0  0  0  0
    7.3574  -16.8853   23.5922 O   0  0  0  0  0  0  0  0  0  0  0  0
   12.2767  -16.8463   23.4027 O   0  0  0  0  0  0  0  0  0  0  0  0
   11.4563  -17.8140   23.9894 C   0  0  0  0  0  0  0  0  0  0  0  0
   10.0225  -17.3203   24.0686 C   0  0  2  0  0  0  0  0  0  0  0  0
    9.4957  -16.9783   22.7844 N   0  0  0  0  0  0  0  0  0  0  0  0
   10.0485  -16.0958   24.9164 C   0  0  0  0  0  0  0  0  0  0  0  0
   10.0692  -14.9434   24.3867 O   0  0  0  0  0  0  0  0  0  0  0  0
    6.1812  -13.1794   26.3292 N   0  0  0  0  0  0  0  0  0  0  0  0
    7.0675  -12.5699   27.2782 C   0  0  0  0  0  0  0  0  0  0  0  0
    6.7499  -11.4648   27.7802 O   0  0  0  0  0  0  0  0  0  0  0  0
    8.3312  -13.2106   27.6741 C   0  0  0  0  0  0  0  0  0  0  0  0
    8.5686  -14.4410   26.8539 C   0  0  0  0  0  0  0  0  0  0  0  0
    9.8707  -15.0713   27.2252 C   0  0  2  0  0  0  0  0  0  0  0  0
   10.0500  -16.2316   26.3302 N   0  0  0  0  0  0  0  0  0  0  0  0
    9.8778  -15.5446   28.6367 C   0  0  0  0  0  0  0  0  0  0  0  0
    9.7400  -16.8734   28.9537 O   0  0  0  0  0  0  0  0  0  0  0  0
   10.0132  -14.7007   29.5451 O   0  0  0  0  0  0  0  0  0  0  0  0
  2  1  1  1
  3  2  1  0
  3  4  1  0
  5  4  1  0
  5  6  1  0
  7  6  1  0
  8  2  1  0
  8  9  2  0
 11 10  1  0
 12 11  1  6
 12 13  1  0
 13  8  1  0
 14 12  1  0
 14 22  1  0
 15 14  2  0
 16 17  1  0
 17 19  1  0
 18 17  2  0
 19 20  1  0
 21 20  1  6
 21 22  1  0
 21 23  1  0
 23 25  2  0
 23 24  1  0
M  END
$$$$
