KSQ.pdb
     RDKit          3D

 25 24  0  0  1  0  0  0  0  0999 V2000
    8.3498  -17.7521   16.5887 N   0  0  0  0  0  0  0  0  0  0  0  0
    7.6386  -17.8751   17.8506 C   0  0  1  0  0  0  0  0  0  0  0  0
    7.6053  -19.3178   18.2408 C   0  0  0  0  0  0  0  0  0  0  0  0
    7.1893  -20.2166   17.0963 C   0  0  0  0  0  0  0  0  0  0  0  0
    7.1543  -21.6748   17.5405 C   0  0  0  0  0  0  0  0  0  0  0  0
    6.7446  -22.5714   16.3912 C   0  0  0  0  0  0  0  0  0  0  0  0
    6.9045  -23.9374   16.8417 N   0  0  0  0  0  0  0  0  0  0  0  0
    8.2414  -17.0143   18.8948 C   0  0  0  0  0  0  0  0  0  0  0  0
    9.4901  -17.0115   18.9975 O   0  0  0  0  0  0  0  0  0  0  0  0
    6.0587  -15.0696   21.8450 O   0  0  0  0  0  0  0  0  0  0  0  0
    7.2027  -14.3956   21.4084 C   0  0  0  0  0  0  0  0  0  0  0  0
    8.1604  -15.3571   20.7271 C   0  0  2  0  0  0  0  0  0  0  0  0
    7.4996  -16.1991   19.7793 N   0  0  0  0  0  0  0  0  0  0  0  0
    8.7343  -16.2095   21.8055 C   0  0  0  0  0  0  0  0  0  0  0  0
    8.2534  -17.3585   22.0456 O   0  0  0  0  0  0  0  0  0  0  0  0
   14.9546  -16.2621   21.5659 N   0  0  0  0  0  0  0  0  0  0  0  0
   14.0239  -16.0578   22.6381 C   0  0  0  0  0  0  0  0  0  0  0  0
   14.4313  -15.5305   23.7012 O   0  0  0  0  0  0  0  0  0  0  0  0
   12.6108  -16.4485   22.5168 C   0  0  0  0  0  0  0  0  0  0  0  0
   11.8611  -16.0765   23.7588 C   0  0  0  0  0  0  0  0  0  0  0  0
   10.4357  -16.5104   23.6564 C   0  0  2  0  0  0  0  0  0  0  0  0
    9.8300  -15.7211   22.5657 N   0  0  0  0  0  0  0  0  0  0  0  0
    9.6832  -16.2520   24.9148 C   0  0  0  0  0  0  0  0  0  0  0  0
    9.7674  -17.0976   25.9933 O   0  0  0  0  0  0  0  0  0  0  0  0
    8.9611  -15.2369   24.9770 O   0  0  0  0  0  0  0  0  0  0  0  0
  2  1  1  6
  3  2  1  0
  3  4  1  0
  5  4  1  0
  5  6  1  0
  7  6  1  0
  8  2  1  0
  8  9  2  0
 11 10  1  0
 12 11  1  1
 12 13  1  0
 13  8  1  0
 14 12  1  0
 14 22  1  0
 15 14  2  0
 16 17  1  0
 17 19  1  0
 18 17  2  0
 19 20  1  0
 21 20  1  1
 21 22  1  0
 21 23  1  0
 23 25  2  0
 23 24  1  0
M  END
$$$$
