KSQ.pdb
     RDKit          3D

 25 24  0  0  1  0  0  0  0  0999 V2000
    9.7472  -16.6966   18.0833 N   0  0  0  0  0  0  0  0  0  0  0  0
    9.0024  -17.1067   19.2625 C   0  0  1  0  0  0  0  0  0  0  0  0
    9.0347  -18.5985   19.3522 C   0  0  0  0  0  0  0  0  0  0  0  0
    8.4462  -19.2641   18.1268 C   0  0  0  0  0  0  0  0  0  0  0  0
    7.0322  -19.7602   18.4087 C   0  0  0  0  0  0  0  0  0  0  0  0
    6.4869  -20.5181   17.2167 C   0  0  0  0  0  0  0  0  0  0  0  0
    5.1900  -21.0338   17.5999 N   0  0  0  0  0  0  0  0  0  0  0  0
    9.5228  -16.4493   20.4838 C   0  0  0  0  0  0  0  0  0  0  0  0
   10.7575  -16.4996   20.6909 O   0  0  0  0  0  0  0  0  0  0  0  0
    7.1155  -15.0337   23.5639 O   0  0  0  0  0  0  0  0  0  0  0  0
    8.2975  -14.3185   23.3522 C   0  0  0  0  0  0  0  0  0  0  0  0
    9.2989  -15.1601   22.5810 C   0  0  2  0  0  0  0  0  0  0  0  0
    8.7175  -15.7714   21.4267 N   0  0  0  0  0  0  0  0  0  0  0  0
    9.7502  -16.2309   23.5130 C   0  0  0  0  0  0  0  0  0  0  0  0
    9.1998  -17.3737   23.4993 O   0  0  0  0  0  0  0  0  0  0  0  0
   14.8859  -16.2149   22.1971 N   0  0  0  0  0  0  0  0  0  0  0  0
   14.3497  -16.1962   23.5274 C   0  0  0  0  0  0  0  0  0  0  0  0
   14.7055  -15.2830   24.3108 O   0  0  0  0  0  0  0  0  0  0  0  0
   13.3959  -17.2170   23.9881 C   0  0  0  0  0  0  0  0  0  0  0  0
   12.8313  -16.8355   25.3218 C   0  0  0  0  0  0  0  0  0  0  0  0
   11.3464  -16.9952   25.3239 C   0  0  2  0  0  0  0  0  0  0  0  0
   10.8076  -15.9587   24.4213 N   0  0  0  0  0  0  0  0  0  0  0  0
   10.7674  -16.8016   26.6817 C   0  0  0  0  0  0  0  0  0  0  0  0
   11.0608  -17.6509   27.7199 O   0  0  0  0  0  0  0  0  0  0  0  0
    9.9970  -15.8383   26.8668 O   0  0  0  0  0  0  0  0  0  0  0  0
  2  1  1  6
  3  2  1  0
  3  4  1  0
  5  4  1  0
  5  6  1  0
  7  6  1  0
  8  2  1  0
  8  9  2  0
 11 10  1  0
 12 11  1  1
 12 13  1  0
 13  8  1  0
 14 12  1  0
 14 22  1  0
 15 14  2  0
 16 17  1  0
 17 19  1  0
 18 17  2  0
 19 20  1  0
 21 20  1  1
 21 22  1  0
 21 23  1  0
 23 25  2  0
 23 24  1  0
M  END
$$$$
