KSQ.pdb
     RDKit          3D

 25 24  0  0  1  0  0  0  0  0999 V2000
    7.0126  -20.2352   21.2014 N   0  0  0  0  0  0  0  0  0  0  0  0
    8.2048  -19.4037   21.1794 C   0  0  1  0  0  0  0  0  0  0  0  0
    8.0600  -18.3908   20.0896 C   0  0  0  0  0  0  0  0  0  0  0  0
    8.0372  -19.0213   18.7138 C   0  0  0  0  0  0  0  0  0  0  0  0
    8.0216  -17.9497   17.6292 C   0  0  0  0  0  0  0  0  0  0  0  0
    8.0314  -18.5841   16.2544 C   0  0  0  0  0  0  0  0  0  0  0  0
    8.0239  -17.5051   15.2899 N   0  0  0  0  0  0  0  0  0  0  0  0
    8.4561  -18.7873   22.5028 C   0  0  0  0  0  0  0  0  0  0  0  0
    8.8862  -17.6107   22.5249 O   0  0  0  0  0  0  0  0  0  0  0  0
    6.4617  -19.6923   25.9017 O   0  0  0  0  0  0  0  0  0  0  0  0
    7.1758  -18.5028   25.7326 C   0  0  0  0  0  0  0  0  0  0  0  0
    8.4665  -18.7591   24.9746 C   0  0  2  0  0  0  0  0  0  0  0  0
    8.2421  -19.4402   23.7378 N   0  0  0  0  0  0  0  0  0  0  0  0
    9.3018  -19.6250   25.8527 C   0  0  0  0  0  0  0  0  0  0  0  0
    9.1470  -20.8840   25.8545 O   0  0  0  0  0  0  0  0  0  0  0  0
   15.1334  -18.8407   26.6730 N   0  0  0  0  0  0  0  0  0  0  0  0
   14.3107  -19.4440   25.6647 C   0  0  0  0  0  0  0  0  0  0  0  0
   14.7999  -19.6506   24.5280 O   0  0  0  0  0  0  0  0  0  0  0  0
   12.9158  -19.8252   25.9348 C   0  0  0  0  0  0  0  0  0  0  0  0
   12.5342  -19.4425   27.3316 C   0  0  0  0  0  0  0  0  0  0  0  0
   11.1167  -19.8232   27.6073 C   0  0  2  0  0  0  0  0  0  0  0  0
   10.2779  -19.0246   26.6918 N   0  0  0  0  0  0  0  0  0  0  0  0
   10.7219  -19.5216   29.0107 C   0  0  0  0  0  0  0  0  0  0  0  0
   11.1947  -20.2586   30.0683 O   0  0  0  0  0  0  0  0  0  0  0  0
    9.9405  -18.5714   29.2165 O   0  0  0  0  0  0  0  0  0  0  0  0
  2  1  1  1
  3  2  1  0
  3  4  1  0
  5  4  1  0
  5  6  1  0
  7  6  1  0
  8  2  1  0
  8  9  2  0
 11 10  1  0
 12 11  1  1
 12 13  1  0
 13  8  1  0
 14 12  1  0
 14 22  1  0
 15 14  2  0
 16 17  1  0
 17 19  1  0
 18 17  2  0
 19 20  1  0
 21 20  1  1
 21 22  1  0
 21 23  1  0
 23 25  2  0
 23 24  1  0
M  END
$$$$
