KSQ.pdb
     RDKit          3D

 25 24  0  0  1  0  0  0  0  0999 V2000
    8.8095  -17.4245   17.9081 N   0  0  0  0  0  0  0  0  0  0  0  0
    8.0280  -17.0634   19.0795 C   0  0  1  0  0  0  0  0  0  0  0  0
    7.3166  -18.2823   19.5725 C   0  0  0  0  0  0  0  0  0  0  0  0
    8.2669  -19.4149   19.8965 C   0  0  0  0  0  0  0  0  0  0  0  0
    8.4722  -20.3117   18.6806 C   0  0  0  0  0  0  0  0  0  0  0  0
    9.2820  -21.5357   19.0530 C   0  0  0  0  0  0  0  0  0  0  0  0
    9.5632  -22.2474   17.8247 N   0  0  0  0  0  0  0  0  0  0  0  0
    8.8756  -16.4363   20.1200 C   0  0  0  0  0  0  0  0  0  0  0  0
   10.1161  -16.5886   20.0303 O   0  0  0  0  0  0  0  0  0  0  0  0
    7.5725  -14.9527   23.8674 O   0  0  0  0  0  0  0  0  0  0  0  0
    8.5358  -14.2230   23.1652 C   0  0  0  0  0  0  0  0  0  0  0  0
    9.2614  -15.1148   22.1731 C   0  0  2  0  0  0  0  0  0  0  0  0
    8.3753  -15.6797   21.2038 N   0  0  0  0  0  0  0  0  0  0  0  0
    9.8666  -16.2190   22.9688 C   0  0  0  0  0  0  0  0  0  0  0  0
    9.2645  -17.3282   23.0970 O   0  0  0  0  0  0  0  0  0  0  0  0
   11.8124  -20.1686   21.2381 N   0  0  0  0  0  0  0  0  0  0  0  0
   13.0185  -20.0949   22.0112 C   0  0  0  0  0  0  0  0  0  0  0  0
   13.8079  -21.0700   21.9959 O   0  0  0  0  0  0  0  0  0  0  0  0
   13.3479  -18.9069   22.8138 C   0  0  0  0  0  0  0  0  0  0  0  0
   12.3131  -17.8426   22.6145 C   0  0  0  0  0  0  0  0  0  0  0  0
   12.0312  -17.1423   23.9032 C   0  0  2  0  0  0  0  0  0  0  0  0
   11.1300  -16.0171   23.5854 N   0  0  0  0  0  0  0  0  0  0  0  0
   13.2714  -16.6061   24.5284 C   0  0  0  0  0  0  0  0  0  0  0  0
   13.5137  -15.2571   24.6106 O   0  0  0  0  0  0  0  0  0  0  0  0
   14.1036  -17.4150   24.9854 O   0  0  0  0  0  0  0  0  0  0  0  0
  2  1  1  6
  3  2  1  0
  3  4  1  0
  5  4  1  0
  5  6  1  0
  7  6  1  0
  8  2  1  0
  8  9  2  0
 11 10  1  0
 12 11  1  1
 12 13  1  0
 13  8  1  0
 14 12  1  0
 14 22  1  0
 15 14  2  0
 16 17  1  0
 17 19  1  0
 18 17  2  0
 19 20  1  0
 21 20  1  6
 21 22  1  0
 21 23  1  0
 23 25  2  0
 23 24  1  0
M  END
$$$$
