KSQ.pdb
     RDKit          3D

 25 24  0  0  1  0  0  0  0  0999 V2000
    9.1272  -15.3586   18.6455 N   0  0  0  0  0  0  0  0  0  0  0  0
    8.6974  -14.2807   19.5211 C   0  0  1  0  0  0  0  0  0  0  0  0
    7.6587  -13.4742   18.8102 C   0  0  0  0  0  0  0  0  0  0  0  0
    7.2069  -14.1225   17.5193 C   0  0  0  0  0  0  0  0  0  0  0  0
    8.1261  -13.7302   16.3678 C   0  0  0  0  0  0  0  0  0  0  0  0
    7.6093  -14.2911   15.0598 C   0  0  0  0  0  0  0  0  0  0  0  0
    8.4992  -13.8251   14.0179 N   0  0  0  0  0  0  0  0  0  0  0  0
    8.2234  -14.8019   20.8242 C   0  0  0  0  0  0  0  0  0  0  0  0
    7.9531  -13.9693   21.7207 O   0  0  0  0  0  0  0  0  0  0  0  0
    9.0611  -18.6230   22.2369 O   0  0  0  0  0  0  0  0  0  0  0  0
    7.8035  -18.1206   22.5825 C   0  0  0  0  0  0  0  0  0  0  0  0
    7.7798  -16.6077   22.4529 C   0  0  2  0  0  0  0  0  0  0  0  0
    8.0575  -16.1740   21.1192 N   0  0  0  0  0  0  0  0  0  0  0  0
    8.8484  -16.0945   23.3549 C   0  0  0  0  0  0  0  0  0  0  0  0
    9.7436  -15.3106   22.9153 O   0  0  0  0  0  0  0  0  0  0  0  0
    5.9698  -12.6387   25.7533 N   0  0  0  0  0  0  0  0  0  0  0  0
    7.0466  -12.4863   26.6887 C   0  0  0  0  0  0  0  0  0  0  0  0
    7.0542  -11.4854   27.4453 O   0  0  0  0  0  0  0  0  0  0  0  0
    8.1332  -13.4737   26.7804 C   0  0  0  0  0  0  0  0  0  0  0  0
    8.0006  -14.4940   25.6921 C   0  0  0  0  0  0  0  0  0  0  0  0
    9.0734  -15.5260   25.8120 C   0  0  2  0  0  0  0  0  0  0  0  0
    8.8552  -16.4930   24.7181 N   0  0  0  0  0  0  0  0  0  0  0  0
    9.0100  -16.2466   27.1132 C   0  0  0  0  0  0  0  0  0  0  0  0
    9.7312  -15.8308   28.2051 O   0  0  0  0  0  0  0  0  0  0  0  0
    8.2781  -17.2530   27.1995 O   0  0  0  0  0  0  0  0  0  0  0  0
  2  1  1  6
  3  2  1  0
  3  4  1  0
  5  4  1  0
  5  6  1  0
  7  6  1  0
  8  2  1  0
  8  9  2  0
 11 10  1  0
 12 11  1  6
 12 13  1  0
 13  8  1  0
 14 12  1  0
 14 22  1  0
 15 14  2  0
 16 17  1  0
 17 19  1  0
 18 17  2  0
 19 20  1  0
 21 20  1  1
 21 22  1  0
 21 23  1  0
 23 25  2  0
 23 24  1  0
M  END
$$$$
