KSQ.pdb
     RDKit          3D

 25 24  0  0  1  0  0  0  0  0999 V2000
    8.9843  -13.9196   18.1490 N   0  0  0  0  0  0  0  0  0  0  0  0
    9.9142  -14.5845   19.0469 C   0  0  1  0  0  0  0  0  0  0  0  0
   11.0623  -13.6644   19.3115 C   0  0  0  0  0  0  0  0  0  0  0  0
   12.2216  -13.9003   18.3674 C   0  0  0  0  0  0  0  0  0  0  0  0
   13.4552  -14.3659   19.1332 C   0  0  0  0  0  0  0  0  0  0  0  0
   14.6636  -14.4054   18.2218 C   0  0  0  0  0  0  0  0  0  0  0  0
   15.7758  -14.8856   19.0135 N   0  0  0  0  0  0  0  0  0  0  0  0
    9.2396  -15.0285   20.2888 C   0  0  0  0  0  0  0  0  0  0  0  0
    8.3130  -14.3131   20.7357 O   0  0  0  0  0  0  0  0  0  0  0  0
    9.5560  -18.8600   21.9058 O   0  0  0  0  0  0  0  0  0  0  0  0
    8.4422  -18.0494   22.1424 C   0  0  0  0  0  0  0  0  0  0  0  0
    8.8443  -16.5853   22.1678 C   0  0  2  0  0  0  0  0  0  0  0  0
    9.5739  -16.2037   20.9990 N   0  0  0  0  0  0  0  0  0  0  0  0
    9.7240  -16.4141   23.3576 C   0  0  0  0  0  0  0  0  0  0  0  0
   10.9858  -16.3898   23.2302 O   0  0  0  0  0  0  0  0  0  0  0  0
    7.3357  -12.1525   26.8081 N   0  0  0  0  0  0  0  0  0  0  0  0
    8.2421  -13.1629   27.2718 C   0  0  0  0  0  0  0  0  0  0  0  0
    8.3474  -13.3615   28.5062 O   0  0  0  0  0  0  0  0  0  0  0  0
    9.0431  -13.9675   26.3363 C   0  0  0  0  0  0  0  0  0  0  0  0
    9.1808  -15.3698   26.8440 C   0  0  0  0  0  0  0  0  0  0  0  0
    9.9483  -16.2031   25.8709 C   0  0  2  0  0  0  0  0  0  0  0  0
    9.1335  -16.2778   24.6421 N   0  0  0  0  0  0  0  0  0  0  0  0
   10.1808  -17.5824   26.3808 C   0  0  0  0  0  0  0  0  0  0  0  0
   11.1555  -17.8547   27.3087 O   0  0  0  0  0  0  0  0  0  0  0  0
    9.4638  -18.5052   25.9449 O   0  0  0  0  0  0  0  0  0  0  0  0
  2  1  1  6
  3  2  1  0
  3  4  1  0
  5  4  1  0
  5  6  1  0
  7  6  1  0
  8  2  1  0
  8  9  2  0
 11 10  1  0
 12 11  1  6
 12 13  1  0
 13  8  1  0
 14 12  1  0
 14 22  1  0
 15 14  2  0
 16 17  1  0
 17 19  1  0
 18 17  2  0
 19 20  1  0
 21 20  1  1
 21 22  1  0
 21 23  1  0
 23 25  2  0
 23 24  1  0
M  END
$$$$
