MKP.pdb
     RDKit          3D

 25 25  0  0  1  0  0  0  0  0999 V2000
    7.4004  -11.6019   20.0573 C   0  0  0  0  0  0  0  0  0  0  0  0
    8.5502  -12.5504   19.0563 S   0  0  0  0  0  0  0  0  0  0  0  0
    8.4427  -14.3260   19.4073 C   0  0  0  0  0  0  0  0  0  0  0  0
    7.2938  -14.6240   20.3575 C   0  0  0  0  0  0  0  0  0  0  0  0
    7.3536  -16.1100   20.7009 C   0  0  2  0  0  0  0  0  0  0  0  0
    6.3639  -16.7614   19.8700 N   0  0  0  0  0  0  0  0  0  0  0  0
    6.9420  -16.2358   22.1163 C   0  0  0  0  0  0  0  0  0  0  0  0
    5.7231  -16.2507   22.3969 O   0  0  0  0  0  0  0  0  0  0  0  0
    7.8736  -16.3410   23.1815 N   0  0  0  0  0  0  0  0  0  0  0  0
    7.4410  -16.3275   24.6025 C   0  0  1  0  0  0  0  0  0  0  0  0
    7.5408  -17.7954   24.9998 C   0  0  0  0  0  0  0  0  0  0  0  0
    7.1587  -18.0510   26.4088 C   0  0  0  0  0  0  0  0  0  0  0  0
    7.5264  -19.4807   26.8347 C   0  0  0  0  0  0  0  0  0  0  0  0
    7.2053  -19.6930   28.2923 C   0  0  0  0  0  0  0  0  0  0  0  0
    7.6549  -21.0056   28.6821 N   0  0  0  0  0  0  0  0  0  0  0  0
    8.3674  -15.4906   25.3938 C   0  0  0  0  0  0  0  0  0  0  0  0
    9.4858  -16.0170   25.6439 O   0  0  0  0  0  0  0  0  0  0  0  0
    8.0770  -14.2015   25.8541 N   0  0  0  0  0  0  0  0  0  0  0  0
    7.2350  -13.2712   25.0621 C   0  0  0  0  0  0  0  0  0  0  0  0
    6.3602  -12.6716   26.1237 C   0  0  0  0  0  0  0  0  0  0  0  0
    7.0943  -12.8791   27.4344 C   0  0  0  0  0  0  0  0  0  0  0  0
    8.4728  -13.3914   26.9508 C   0  0  1  0  0  0  0  0  0  0  0  0
    9.1993  -13.9915   28.0503 C   0  0  0  0  0  0  0  0  0  0  0  0
    9.1395  -15.1386   28.5072 O   0  0  0  0  0  0  0  0  0  0  0  0
   10.1219  -13.1349   28.7059 O   0  0  0  0  0  0  0  0  0  0  0  0
  1  2  1  0
  3  2  1  0
  4  5  1  0
  4  3  1  0
  5  6  1  6
  7  5  1  0
  7  8  2  0
  9  7  1  0
 10  9  1  0
 10 11  1  1
 11 12  1  0
 13 12  1  0
 14 13  1  0
 14 15  1  0
 16 10  1  0
 17 16  2  0
 18 16  1  0
 18 22  1  0
 19 18  1  0
 20 19  1  0
 20 21  1  0
 21 22  1  0
 22 23  1  1
 23 24  2  0
 23 25  1  0
M  END
$$$$
