MKP.pdb
     RDKit          3D

 25 25  0  0  1  0  0  0  0  0999 V2000
    8.7530  -11.6188   19.7587 C   0  0  0  0  0  0  0  0  0  0  0  0
    8.4885  -12.7901   18.4239 S   0  0  0  0  0  0  0  0  0  0  0  0
    8.2927  -14.4832   19.0423 C   0  0  0  0  0  0  0  0  0  0  0  0
    7.5851  -14.4922   20.3880 C   0  0  0  0  0  0  0  0  0  0  0  0
    7.4252  -15.9489   20.8147 C   0  0  2  0  0  0  0  0  0  0  0  0
    6.3416  -16.4900   20.0228 N   0  0  0  0  0  0  0  0  0  0  0  0
    7.0126  -15.9326   22.2353 C   0  0  0  0  0  0  0  0  0  0  0  0
    5.8143  -15.7126   22.5188 O   0  0  0  0  0  0  0  0  0  0  0  0
    7.9208  -16.1565   23.3025 N   0  0  0  0  0  0  0  0  0  0  0  0
    7.4669  -16.2176   24.7155 C   0  0  1  0  0  0  0  0  0  0  0  0
    7.6084  -17.6972   25.0520 C   0  0  0  0  0  0  0  0  0  0  0  0
    6.5927  -18.5508   24.3915 C   0  0  0  0  0  0  0  0  0  0  0  0
    6.8411  -20.0387   24.6832 C   0  0  0  0  0  0  0  0  0  0  0  0
    5.8263  -20.8908   23.9644 C   0  0  0  0  0  0  0  0  0  0  0  0
    6.1815  -22.2777   24.1299 N   0  0  0  0  0  0  0  0  0  0  0  0
    8.3536  -15.3862   25.5565 C   0  0  0  0  0  0  0  0  0  0  0  0
    9.5249  -15.8302   25.7038 O   0  0  0  0  0  0  0  0  0  0  0  0
    7.9739  -14.1850   26.1655 N   0  0  0  0  0  0  0  0  0  0  0  0
    6.9731  -13.2858   25.5399 C   0  0  0  0  0  0  0  0  0  0  0  0
    6.1393  -12.8870   26.7221 C   0  0  0  0  0  0  0  0  0  0  0  0
    7.0048  -13.1304   27.9432 C   0  0  0  0  0  0  0  0  0  0  0  0
    8.3803  -13.4396   27.3035 C   0  0  1  0  0  0  0  0  0  0  0  0
    9.2600  -14.0531   28.2763 C   0  0  0  0  0  0  0  0  0  0  0  0
   10.0850  -13.5342   29.0368 O   0  0  0  0  0  0  0  0  0  0  0  0
    9.1633  -15.4658   28.3743 O   0  0  0  0  0  0  0  0  0  0  0  0
  1  2  1  0
  3  2  1  0
  4  5  1  0
  4  3  1  0
  5  6  1  6
  7  5  1  0
  7  8  2  0
  9  7  1  0
 10  9  1  0
 10 11  1  1
 11 12  1  0
 13 12  1  0
 14 13  1  0
 14 15  1  0
 16 10  1  0
 17 16  2  0
 18 16  1  0
 18 22  1  0
 19 18  1  0
 20 19  1  0
 20 21  1  0
 21 22  1  0
 22 23  1  1
 23 24  2  0
 23 25  1  0
M  END
$$$$
