MKP.pdb
     RDKit          3D

 25 25  0  0  1  0  0  0  0  0999 V2000
    8.2844  -12.4035   28.3644 C   0  0  0  0  0  0  0  0  0  0  0  0
    6.8144  -11.7231   27.5898 S   0  0  0  0  0  0  0  0  0  0  0  0
    5.9078  -12.9783   26.6466 C   0  0  0  0  0  0  0  0  0  0  0  0
    6.8415  -13.7445   25.7232 C   0  0  0  0  0  0  0  0  0  0  0  0
    5.9996  -14.7609   24.9565 C   0  0  2  0  0  0  0  0  0  0  0  0
    5.7923  -15.8784   25.8522 N   0  0  0  0  0  0  0  0  0  0  0  0
    6.8200  -15.2154   23.8124 C   0  0  0  0  0  0  0  0  0  0  0  0
    7.3932  -16.3254   23.8772 O   0  0  0  0  0  0  0  0  0  0  0  0
    6.9896  -14.4442   22.6333 N   0  0  0  0  0  0  0  0  0  0  0  0
    7.8046  -14.9316   21.4911 C   0  0  1  0  0  0  0  0  0  0  0  0
    7.9426  -13.6886   20.6201 C   0  0  0  0  0  0  0  0  0  0  0  0
    8.7871  -13.9011   19.4209 C   0  0  0  0  0  0  0  0  0  0  0  0
    7.9299  -14.0318   18.1525 C   0  0  0  0  0  0  0  0  0  0  0  0
    8.8083  -14.2325   16.9439 C   0  0  0  0  0  0  0  0  0  0  0  0
    7.9897  -14.1796   15.7589 N   0  0  0  0  0  0  0  0  0  0  0  0
    9.1195  -15.3939   21.9831 C   0  0  0  0  0  0  0  0  0  0  0  0
    9.7645  -14.5508   22.6642 O   0  0  0  0  0  0  0  0  0  0  0  0
    9.6559  -16.6638   21.7428 N   0  0  0  0  0  0  0  0  0  0  0  0
    8.7830  -17.8550   21.5990 C   0  0  0  0  0  0  0  0  0  0  0  0
    9.4178  -18.5606   20.4367 C   0  0  0  0  0  0  0  0  0  0  0  0
   10.8408  -18.0419   20.3614 C   0  0  0  0  0  0  0  0  0  0  0  0
   10.9554  -17.2315   21.6755 C   0  0  1  0  0  0  0  0  0  0  0  0
   12.1095  -16.3583   21.6279 C   0  0  0  0  0  0  0  0  0  0  0  0
   12.3745  -15.4373   20.8471 O   0  0  0  0  0  0  0  0  0  0  0  0
   13.0881  -16.5927   22.6289 O   0  0  0  0  0  0  0  0  0  0  0  0
  1  2  1  0
  3  2  1  0
  4  5  1  0
  4  3  1  0
  5  6  1  1
  7  5  1  0
  7  8  2  0
  9  7  1  0
 10  9  1  0
 10 11  1  6
 11 12  1  0
 13 12  1  0
 14 13  1  0
 14 15  1  0
 16 10  1  0
 17 16  2  0
 18 16  1  0
 18 22  1  0
 19 18  1  0
 20 19  1  0
 20 21  1  0
 21 22  1  0
 22 23  1  6
 23 24  2  0
 23 25  1  0
M  END
$$$$
