MKP.pdb
     RDKit          3D

 25 25  0  0  1  0  0  0  0  0999 V2000
    7.5281  -11.0097   27.7776 C   0  0  0  0  0  0  0  0  0  0  0  0
    6.0625  -11.8081   27.1154 S   0  0  0  0  0  0  0  0  0  0  0  0
    6.3362  -13.5748   26.8136 C   0  0  0  0  0  0  0  0  0  0  0  0
    7.3428  -13.7857   25.6939 C   0  0  0  0  0  0  0  0  0  0  0  0
    7.4924  -15.2904   25.4861 C   0  0  2  0  0  0  0  0  0  0  0  0
    8.0612  -15.8170   26.7081 N   0  0  0  0  0  0  0  0  0  0  0  0
    8.4697  -15.4729   24.3906 C   0  0  0  0  0  0  0  0  0  0  0  0
    9.6827  -15.2671   24.6162 O   0  0  0  0  0  0  0  0  0  0  0  0
    8.0926  -15.8741   23.0826 N   0  0  0  0  0  0  0  0  0  0  0  0
    9.0779  -15.9496   21.9736 C   0  0  1  0  0  0  0  0  0  0  0  0
    9.6278  -17.3648   22.1063 C   0  0  0  0  0  0  0  0  0  0  0  0
   11.0953  -17.4462   21.9155 C   0  0  0  0  0  0  0  0  0  0  0  0
   11.5790  -18.9044   21.9338 C   0  0  0  0  0  0  0  0  0  0  0  0
   13.0677  -18.9664   21.7048 C   0  0  0  0  0  0  0  0  0  0  0  0
   13.6787  -19.6750   22.8010 N   0  0  0  0  0  0  0  0  0  0  0  0
    8.3847  -15.7595   20.6821 C   0  0  0  0  0  0  0  0  0  0  0  0
    7.9585  -16.8160   20.1410 O   0  0  0  0  0  0  0  0  0  0  0  0
    8.1857  -14.5209   20.0621 N   0  0  0  0  0  0  0  0  0  0  0  0
    8.0337  -13.2767   20.8561 C   0  0  0  0  0  0  0  0  0  0  0  0
    8.8729  -12.3100   20.0731 C   0  0  0  0  0  0  0  0  0  0  0  0
    8.9850  -12.8917   18.6771 C   0  0  0  0  0  0  0  0  0  0  0  0
    7.9722  -14.0611   18.7360 C   0  0  1  0  0  0  0  0  0  0  0  0
    8.1870  -14.9677   17.6276 C   0  0  0  0  0  0  0  0  0  0  0  0
    7.4923  -15.1731   16.6259 O   0  0  0  0  0  0  0  0  0  0  0  0
    9.3757  -15.7402   17.6987 O   0  0  0  0  0  0  0  0  0  0  0  0
  1  2  1  0
  3  2  1  0
  4  5  1  0
  4  3  1  0
  5  6  1  1
  7  5  1  0
  7  8  2  0
  9  7  1  0
 10  9  1  0
 10 11  1  6
 11 12  1  0
 13 12  1  0
 14 13  1  0
 14 15  1  0
 16 10  1  0
 17 16  2  0
 18 16  1  0
 18 22  1  0
 19 18  1  0
 20 19  1  0
 20 21  1  0
 21 22  1  0
 22 23  1  6
 23 24  2  0
 23 25  1  0
M  END
$$$$
