MKP.pdb
     RDKit          3D

 25 25  0  0  1  0  0  0  0  0999 V2000
    7.1759  -11.4136   21.4844 C   0  0  0  0  0  0  0  0  0  0  0  0
    8.7194  -12.0052   20.7834 S   0  0  0  0  0  0  0  0  0  0  0  0
    8.5113  -13.5995   19.9454 C   0  0  0  0  0  0  0  0  0  0  0  0
    7.3120  -14.3525   20.4990 C   0  0  0  0  0  0  0  0  0  0  0  0
    7.7461  -15.7956   20.7416 C   0  0  2  0  0  0  0  0  0  0  0  0
    6.7887  -16.6319   20.0500 N   0  0  0  0  0  0  0  0  0  0  0  0
    7.6238  -16.0371   22.1960 C   0  0  0  0  0  0  0  0  0  0  0  0
    6.4967  -15.9606   22.7332 O   0  0  0  0  0  0  0  0  0  0  0  0
    8.7355  -16.3543   23.0189 N   0  0  0  0  0  0  0  0  0  0  0  0
    8.5897  -16.5676   24.4817 C   0  0  1  0  0  0  0  0  0  0  0  0
    8.9593  -18.0368   24.6472 C   0  0  0  0  0  0  0  0  0  0  0  0
    8.3173  -18.9215   23.6465 C   0  0  0  0  0  0  0  0  0  0  0  0
    8.8085  -20.3705   23.7879 C   0  0  0  0  0  0  0  0  0  0  0  0
    8.1689  -21.2459   22.7405 C   0  0  0  0  0  0  0  0  0  0  0  0
    8.7830  -22.5491   22.7840 N   0  0  0  0  0  0  0  0  0  0  0  0
    9.5325  -15.6895   25.2062 C   0  0  0  0  0  0  0  0  0  0  0  0
   10.7468  -16.0193   25.1207 O   0  0  0  0  0  0  0  0  0  0  0  0
    9.1593  -14.5612   25.9449 N   0  0  0  0  0  0  0  0  0  0  0  0
    8.2272  -13.5492   25.3893 C   0  0  0  0  0  0  0  0  0  0  0  0
    7.3409  -13.2705   26.5676 C   0  0  0  0  0  0  0  0  0  0  0  0
    8.1260  -13.7030   27.7908 C   0  0  0  0  0  0  0  0  0  0  0  0
    9.5247  -13.9843   27.1896 C   0  0  1  0  0  0  0  0  0  0  0  0
   10.3257  -14.7524   28.1197 C   0  0  0  0  0  0  0  0  0  0  0  0
   10.3674  -15.9733   28.3091 O   0  0  0  0  0  0  0  0  0  0  0  0
   11.1973  -13.9905   28.9411 O   0  0  0  0  0  0  0  0  0  0  0  0
  1  2  1  0
  3  2  1  0
  4  5  1  0
  4  3  1  0
  5  6  1  6
  7  5  1  0
  7  8  2  0
  9  7  1  0
 10  9  1  0
 10 11  1  6
 11 12  1  0
 13 12  1  0
 14 13  1  0
 14 15  1  0
 16 10  1  0
 17 16  2  0
 18 16  1  0
 18 22  1  0
 19 18  1  0
 20 19  1  0
 20 21  1  0
 21 22  1  0
 22 23  1  1
 23 24  2  0
 23 25  1  0
M  END
$$$$
