MKP.pdb
     RDKit          3D

 25 25  0  0  1  0  0  0  0  0999 V2000
    6.8162  -11.0488   26.9105 C   0  0  0  0  0  0  0  0  0  0  0  0
    6.5773  -12.4501   28.0075 S   0  0  0  0  0  0  0  0  0  0  0  0
    5.9885  -13.9130   27.1129 C   0  0  0  0  0  0  0  0  0  0  0  0
    6.8765  -14.2124   25.9157 C   0  0  0  0  0  0  0  0  0  0  0  0
    6.2770  -15.4114   25.1858 C   0  0  2  0  0  0  0  0  0  0  0  0
    6.4933  -16.5595   26.0397 N   0  0  0  0  0  0  0  0  0  0  0  0
    7.0619  -15.5888   23.9443 C   0  0  0  0  0  0  0  0  0  0  0  0
    7.7671  -16.6134   23.8110 O   0  0  0  0  0  0  0  0  0  0  0  0
    7.0531  -14.6422   22.8871 N   0  0  0  0  0  0  0  0  0  0  0  0
    7.8740  -14.8295   21.6634 C   0  0  1  0  0  0  0  0  0  0  0  0
    7.8940  -13.4331   21.0532 C   0  0  0  0  0  0  0  0  0  0  0  0
    8.7029  -13.3436   19.8147 C   0  0  0  0  0  0  0  0  0  0  0  0
    7.9775  -13.9956   18.6276 C   0  0  0  0  0  0  0  0  0  0  0  0
    8.8431  -13.9498   17.3942 C   0  0  0  0  0  0  0  0  0  0  0  0
    8.1699  -14.6450   16.3263 N   0  0  0  0  0  0  0  0  0  0  0  0
    9.2326  -15.2719   22.0420 C   0  0  0  0  0  0  0  0  0  0  0  0
    9.8868  -14.4546   22.7453 O   0  0  0  0  0  0  0  0  0  0  0  0
    9.7993  -16.4980   21.6767 N   0  0  0  0  0  0  0  0  0  0  0  0
    8.9545  -17.6853   21.3968 C   0  0  0  0  0  0  0  0  0  0  0  0
    9.6175  -18.2511   20.1753 C   0  0  0  0  0  0  0  0  0  0  0  0
   11.0295  -17.6981   20.1740 C   0  0  0  0  0  0  0  0  0  0  0  0
   11.1117  -17.0286   21.5675 C   0  0  1  0  0  0  0  0  0  0  0  0
   12.2468  -16.1316   21.6274 C   0  0  0  0  0  0  0  0  0  0  0  0
   13.2266  -16.1428   22.3811 O   0  0  0  0  0  0  0  0  0  0  0  0
   12.2362  -15.0771   20.6774 O   0  0  0  0  0  0  0  0  0  0  0  0
  1  2  1  0
  3  2  1  0
  4  5  1  0
  4  3  1  0
  5  6  1  1
  7  5  1  0
  7  8  2  0
  9  7  1  0
 10  9  1  0
 10 11  1  1
 11 12  1  0
 13 12  1  0
 14 13  1  0
 14 15  1  0
 16 10  1  0
 17 16  2  0
 18 16  1  0
 18 22  1  0
 19 18  1  0
 20 19  1  0
 20 21  1  0
 21 22  1  0
 22 23  1  6
 23 24  2  0
 23 25  1  0
M  END
$$$$
