MKP.pdb
     RDKit          3D

 25 25  0  0  1  0  0  0  0  0999 V2000
    9.0390  -11.5126   19.8562 C   0  0  0  0  0  0  0  0  0  0  0  0
    7.9797  -12.5318   18.8253 S   0  0  0  0  0  0  0  0  0  0  0  0
    7.6532  -14.1460   19.5835 C   0  0  0  0  0  0  0  0  0  0  0  0
    8.9518  -14.8580   19.9275 C   0  0  0  0  0  0  0  0  0  0  0  0
    8.5891  -16.2177   20.5186 C   0  0  2  0  0  0  0  0  0  0  0  0
    7.7050  -16.8545   19.5662 N   0  0  0  0  0  0  0  0  0  0  0  0
    7.8342  -15.9523   21.7629 C   0  0  0  0  0  0  0  0  0  0  0  0
    6.6131  -15.6908   21.6902 O   0  0  0  0  0  0  0  0  0  0  0  0
    8.4356  -15.9802   23.0479 N   0  0  0  0  0  0  0  0  0  0  0  0
    7.6270  -15.8994   24.2914 C   0  0  1  0  0  0  0  0  0  0  0  0
    7.4304  -17.3644   24.6621 C   0  0  0  0  0  0  0  0  0  0  0  0
    6.4689  -18.0701   23.7824 C   0  0  0  0  0  0  0  0  0  0  0  0
    6.3044  -19.5389   24.2025 C   0  0  0  0  0  0  0  0  0  0  0  0
    5.3783  -20.2557   23.2532 C   0  0  0  0  0  0  0  0  0  0  0  0
    5.2568  -21.6301   23.6695 N   0  0  0  0  0  0  0  0  0  0  0  0
    8.3899  -15.1777   25.3316 C   0  0  0  0  0  0  0  0  0  0  0  0
    9.4998  -15.6926   25.6376 O   0  0  0  0  0  0  0  0  0  0  0  0
    7.9605  -14.0040   25.9609 N   0  0  0  0  0  0  0  0  0  0  0  0
    7.2021  -12.9652   25.2210 C   0  0  0  0  0  0  0  0  0  0  0  0
    6.1408  -12.5952   26.2152 C   0  0  0  0  0  0  0  0  0  0  0  0
    6.6720  -13.0227   27.5698 C   0  0  0  0  0  0  0  0  0  0  0  0
    8.1353  -13.4009   27.2343 C   0  0  1  0  0  0  0  0  0  0  0  0
    8.7136  -14.1752   28.3126 C   0  0  0  0  0  0  0  0  0  0  0  0
    8.5618  -15.3674   28.6018 O   0  0  0  0  0  0  0  0  0  0  0  0
    9.5888  -13.4592   29.1705 O   0  0  0  0  0  0  0  0  0  0  0  0
  1  2  1  0
  3  2  1  0
  4  5  1  0
  4  3  1  0
  5  6  1  6
  7  5  1  0
  7  8  2  0
  9  7  1  0
 10  9  1  0
 10 11  1  1
 11 12  1  0
 13 12  1  0
 14 13  1  0
 14 15  1  0
 16 10  1  0
 17 16  2  0
 18 16  1  0
 18 22  1  0
 19 18  1  0
 20 19  1  0
 20 21  1  0
 21 22  1  0
 22 23  1  1
 23 24  2  0
 23 25  1  0
M  END
$$$$
