MKP.pdb
     RDKit          3D

 25 25  0  0  1  0  0  0  0  0999 V2000
    8.2987  -11.3872   19.8646 C   0  0  0  0  0  0  0  0  0  0  0  0
    8.2084  -12.5147   18.4702 S   0  0  0  0  0  0  0  0  0  0  0  0
    8.2297  -14.2477   19.0028 C   0  0  0  0  0  0  0  0  0  0  0  0
    7.3346  -14.4554   20.2142 C   0  0  0  0  0  0  0  0  0  0  0  0
    7.4325  -15.9256   20.6126 C   0  0  2  0  0  0  0  0  0  0  0  0
    6.4308  -16.6263   19.8383 N   0  0  0  0  0  0  0  0  0  0  0  0
    7.0660  -16.0031   22.0438 C   0  0  0  0  0  0  0  0  0  0  0  0
    5.8648  -15.8835   22.3720 O   0  0  0  0  0  0  0  0  0  0  0  0
    8.0219  -16.2085   23.0723 N   0  0  0  0  0  0  0  0  0  0  0  0
    7.6279  -16.2797   24.5028 C   0  0  1  0  0  0  0  0  0  0  0  0
    7.8604  -17.7465   24.8445 C   0  0  0  0  0  0  0  0  0  0  0  0
    7.5882  -18.0702   26.2649 C   0  0  0  0  0  0  0  0  0  0  0  0
    7.2349  -19.5553   26.4397 C   0  0  0  0  0  0  0  0  0  0  0  0
    6.9205  -19.8535   27.8835 C   0  0  0  0  0  0  0  0  0  0  0  0
    6.4706  -21.2185   27.9902 N   0  0  0  0  0  0  0  0  0  0  0  0
    8.5020  -15.3949   25.3014 C   0  0  0  0  0  0  0  0  0  0  0  0
    9.6869  -15.8013   25.4481 O   0  0  0  0  0  0  0  0  0  0  0  0
    8.0971  -14.1835   25.8728 N   0  0  0  0  0  0  0  0  0  0  0  0
    7.1240  -13.2957   25.1896 C   0  0  0  0  0  0  0  0  0  0  0  0
    6.2408  -12.8768   26.3281 C   0  0  0  0  0  0  0  0  0  0  0  0
    7.0535  -13.0986   27.5891 C   0  0  0  0  0  0  0  0  0  0  0  0
    8.4548  -13.4182   27.0138 C   0  0  1  0  0  0  0  0  0  0  0  0
    9.2922  -14.0143   28.0337 C   0  0  0  0  0  0  0  0  0  0  0  0
    9.3412  -15.1822   28.4358 O   0  0  0  0  0  0  0  0  0  0  0  0
   10.1960  -13.1248   28.6714 O   0  0  0  0  0  0  0  0  0  0  0  0
  1  2  1  0
  3  2  1  0
  4  5  1  0
  4  3  1  0
  5  6  1  6
  7  5  1  0
  7  8  2  0
  9  7  1  0
 10  9  1  0
 10 11  1  1
 11 12  1  0
 13 12  1  0
 14 13  1  0
 14 15  1  0
 16 10  1  0
 17 16  2  0
 18 16  1  0
 18 22  1  0
 19 18  1  0
 20 19  1  0
 20 21  1  0
 21 22  1  0
 22 23  1  1
 23 24  2  0
 23 25  1  0
M  END
$$$$
