MKP.pdb
     RDKit          3D

 25 25  0  0  1  0  0  0  0  0999 V2000
    8.1465  -10.9976   26.6087 C   0  0  0  0  0  0  0  0  0  0  0  0
    6.4726  -11.3789   27.1346 S   0  0  0  0  0  0  0  0  0  0  0  0
    5.7922  -12.8002   26.2379 C   0  0  0  0  0  0  0  0  0  0  0  0
    6.8546  -13.8662   26.0217 C   0  0  0  0  0  0  0  0  0  0  0  0
    6.2298  -14.9754   25.1797 C   0  0  2  0  0  0  0  0  0  0  0  0
    5.2788  -15.6516   26.0357 N   0  0  0  0  0  0  0  0  0  0  0  0
    7.3191  -15.9180   24.8430 C   0  0  0  0  0  0  0  0  0  0  0  0
    7.7260  -16.7154   25.7166 O   0  0  0  0  0  0  0  0  0  0  0  0
    7.9308  -15.9607   23.5632 N   0  0  0  0  0  0  0  0  0  0  0  0
    9.0243  -16.9164   23.2510 C   0  0  1  0  0  0  0  0  0  0  0  0
    9.1307  -16.8238   21.7335 C   0  0  0  0  0  0  0  0  0  0  0  0
   10.0831  -17.7977   21.1498 C   0  0  0  0  0  0  0  0  0  0  0  0
    9.9776  -17.8296   19.6173 C   0  0  0  0  0  0  0  0  0  0  0  0
   10.9135  -18.8654   19.0483 C   0  0  0  0  0  0  0  0  0  0  0  0
   10.7292  -18.9256   17.6202 N   0  0  0  0  0  0  0  0  0  0  0  0
   10.2720  -16.4721   23.9071 C   0  0  0  0  0  0  0  0  0  0  0  0
   10.7951  -15.4337   23.4184 O   0  0  0  0  0  0  0  0  0  0  0  0
   10.8704  -17.1170   24.9953 N   0  0  0  0  0  0  0  0  0  0  0  0
   10.0576  -17.6665   26.1084 C   0  0  0  0  0  0  0  0  0  0  0  0
   10.7252  -18.9883   26.3508 C   0  0  0  0  0  0  0  0  0  0  0  0
   12.1206  -18.8626   25.7706 C   0  0  0  0  0  0  0  0  0  0  0  0
   12.1964  -17.3509   25.4454 C   0  0  1  0  0  0  0  0  0  0  0  0
   13.3057  -17.0841   24.5538 C   0  0  0  0  0  0  0  0  0  0  0  0
   14.4113  -16.5850   24.7919 O   0  0  0  0  0  0  0  0  0  0  0  0
   13.0951  -17.4502   23.1987 O   0  0  0  0  0  0  0  0  0  0  0  0
  1  2  1  0
  3  2  1  0
  4  5  1  0
  4  3  1  0
  5  6  1  1
  7  5  1  0
  7  8  2  0
  9  7  1  0
 10  9  1  0
 10 11  1  6
 11 12  1  0
 13 12  1  0
 14 13  1  0
 14 15  1  0
 16 10  1  0
 17 16  2  0
 18 16  1  0
 18 22  1  0
 19 18  1  0
 20 19  1  0
 20 21  1  0
 21 22  1  0
 22 23  1  6
 23 24  2  0
 23 25  1  0
M  END
$$$$
