MKP.pdb
     RDKit          3D

 25 25  0  0  1  0  0  0  0  0999 V2000
    9.1612  -11.5425   19.7591 C   0  0  0  0  0  0  0  0  0  0  0  0
    8.5286  -12.5824   18.4392 S   0  0  0  0  0  0  0  0  0  0  0  0
    8.3669  -14.3108   18.9622 C   0  0  0  0  0  0  0  0  0  0  0  0
    7.6331  -14.4109   20.2901 C   0  0  0  0  0  0  0  0  0  0  0  0
    7.7008  -15.8662   20.7453 C   0  0  2  0  0  0  0  0  0  0  0  0
    6.7608  -16.5960   19.9220 N   0  0  0  0  0  0  0  0  0  0  0  0
    7.2268  -15.8954   22.1464 C   0  0  0  0  0  0  0  0  0  0  0  0
    6.0520  -15.5480   22.3991 O   0  0  0  0  0  0  0  0  0  0  0  0
    8.0500  -16.3026   23.2283 N   0  0  0  0  0  0  0  0  0  0  0  0
    7.5639  -16.2807   24.6318 C   0  0  1  0  0  0  0  0  0  0  0  0
    7.5807  -17.7548   25.0180 C   0  0  0  0  0  0  0  0  0  0  0  0
    6.2943  -18.4449   24.7625 C   0  0  0  0  0  0  0  0  0  0  0  0
    6.5175  -19.9189   24.3909 C   0  0  0  0  0  0  0  0  0  0  0  0
    5.2182  -20.5562   23.9687 C   0  0  0  0  0  0  0  0  0  0  0  0
    5.4531  -21.9496   23.6850 N   0  0  0  0  0  0  0  0  0  0  0  0
    8.4965  -15.4940   25.4662 C   0  0  0  0  0  0  0  0  0  0  0  0
    9.6368  -16.0081   25.6273 O   0  0  0  0  0  0  0  0  0  0  0  0
    8.1894  -14.2625   26.0554 N   0  0  0  0  0  0  0  0  0  0  0  0
    7.3608  -13.2546   25.3488 C   0  0  0  0  0  0  0  0  0  0  0  0
    6.4595  -12.7747   26.4484 C   0  0  0  0  0  0  0  0  0  0  0  0
    7.1651  -13.1199   27.7455 C   0  0  0  0  0  0  0  0  0  0  0  0
    8.5567  -13.5738   27.2414 C   0  0  1  0  0  0  0  0  0  0  0  0
    9.2613  -14.2867   28.2863 C   0  0  0  0  0  0  0  0  0  0  0  0
    9.2141  -15.4811   28.6012 O   0  0  0  0  0  0  0  0  0  0  0  0
   10.1415  -13.4965   29.0711 O   0  0  0  0  0  0  0  0  0  0  0  0
  1  2  1  0
  3  2  1  0
  4  5  1  0
  4  3  1  0
  5  6  1  6
  7  5  1  0
  7  8  2  0
  9  7  1  0
 10  9  1  0
 10 11  1  1
 11 12  1  0
 13 12  1  0
 14 13  1  0
 14 15  1  0
 16 10  1  0
 17 16  2  0
 18 16  1  0
 18 22  1  0
 19 18  1  0
 20 19  1  0
 20 21  1  0
 21 22  1  0
 22 23  1  1
 23 24  2  0
 23 25  1  0
M  END
$$$$
