TNF.pdb
     RDKit          3D

 27 27  0  0  1  0  0  0  0  0999 V2000
    5.5522  -20.6723   23.8464 C   0  0  0  0  0  0  0  0  0  0  0  0
    6.5970  -19.6092   23.6056 C   0  0  1  0  0  0  0  0  0  0  0  0
    7.8148  -19.9615   24.2153 O   0  0  0  0  0  0  0  0  0  0  0  0
    6.7825  -19.4581   22.1036 C   0  0  2  0  0  0  0  0  0  0  0  0
    7.3325  -20.7094   21.5765 N   0  0  0  0  0  0  0  0  0  0  0  0
    7.7588  -18.3430   21.8976 C   0  0  0  0  0  0  0  0  0  0  0  0
    8.9512  -18.6537   21.6664 O   0  0  0  0  0  0  0  0  0  0  0  0
    9.6656  -14.1498   20.2900 N   0  0  0  0  0  0  0  0  0  0  0  0
    8.2882  -13.9013   20.4416 C   0  0  0  0  0  0  0  0  0  0  0  0
    7.7487  -12.9751   19.7920 O   0  0  0  0  0  0  0  0  0  0  0  0
    7.5156  -14.7283   21.3534 C   0  0  0  0  0  0  0  0  0  0  0  0
    8.3852  -15.8731   21.8982 C   0  0  2  0  0  0  0  0  0  0  0  0
    7.4061  -16.9923   21.9504 N   0  0  0  0  0  0  0  0  0  0  0  0
    8.8834  -15.6132   23.2547 C   0  0  0  0  0  0  0  0  0  0  0  0
    9.8729  -14.8163   23.4383 O   0  0  0  0  0  0  0  0  0  0  0  0
    8.3563  -16.1770   24.4266 N   0  0  0  0  0  0  0  0  0  0  0  0
    8.9420  -15.9146   25.7422 C   0  0  1  0  0  0  0  0  0  0  0  0
    7.8545  -15.4596   26.7062 C   0  0  0  0  0  0  0  0  0  0  0  0
    7.4884  -14.0497   26.4986 C   0  0  0  0  0  0  0  0  0  0  0  0
    6.1834  -13.7187   26.2390 C   0  0  0  0  0  0  0  0  0  0  0  0
    5.8300  -12.3993   26.0536 C   0  0  0  0  0  0  0  0  0  0  0  0
    6.7775  -11.3908   26.1254 C   0  0  0  0  0  0  0  0  0  0  0  0
    8.0787  -11.7530   26.3876 C   0  0  0  0  0  0  0  0  0  0  0  0
    8.4418  -13.0601   26.5735 C   0  0  0  0  0  0  0  0  0  0  0  0
    9.6184  -17.1370   26.2338 C   0  0  0  0  0  0  0  0  0  0  0  0
   10.2957  -17.1252   27.4567 O   0  0  0  0  0  0  0  0  0  0  0  0
    9.6332  -18.2272   25.6130 O   0  0  0  0  0  0  0  0  0  0  0  0
  2  1  1  6
  2  4  1  0
  3  2  1  0
  4  5  1  1
  6  4  1  0
  7  6  2  0
  8  9  1  0
  9 10  2  0
 12 11  1  1
 11  9  1  0
 12 13  1  0
 13  6  1  0
 14 15  2  0
 14 12  1  0
 16 14  1  0
 17 18  1  1
 17 16  1  0
 19 20  2  0
 19 18  1  0
 21 20  1  0
 22 21  2  0
 23 24  2  0
 23 22  1  0
 24 19  1  0
 25 17  1  0
 26 25  1  0
 27 25  2  0
M  END
$$$$
