TNF.pdb
     RDKit          3D

 27 27  0  0  1  0  0  0  0  0999 V2000
    9.6153  -14.0715   17.2533 C   0  0  0  0  0  0  0  0  0  0  0  0
    9.2236  -14.5001   18.6471 C   0  0  1  0  0  0  0  0  0  0  0  0
   10.0806  -13.9258   19.6034 O   0  0  0  0  0  0  0  0  0  0  0  0
    7.7883  -14.0609   18.8925 C   0  0  2  0  0  0  0  0  0  0  0  0
    7.7360  -12.5978   18.8396 N   0  0  0  0  0  0  0  0  0  0  0  0
    7.4176  -14.5370   20.2619 C   0  0  0  0  0  0  0  0  0  0  0  0
    7.3836  -13.6849   21.1809 O   0  0  0  0  0  0  0  0  0  0  0  0
    4.7690  -18.9266   23.1349 N   0  0  0  0  0  0  0  0  0  0  0  0
    6.0900  -18.5194   22.8679 C   0  0  0  0  0  0  0  0  0  0  0  0
    6.9955  -18.7639   23.6992 O   0  0  0  0  0  0  0  0  0  0  0  0
    6.3783  -17.8199   21.6271 C   0  0  0  0  0  0  0  0  0  0  0  0
    6.7694  -16.3618   21.9180 C   0  0  2  0  0  0  0  0  0  0  0  0
    7.1124  -15.8679   20.5570 N   0  0  0  0  0  0  0  0  0  0  0  0
    7.9550  -16.2512   22.7771 C   0  0  0  0  0  0  0  0  0  0  0  0
    9.0915  -16.6872   22.3696 O   0  0  0  0  0  0  0  0  0  0  0  0
    7.9673  -15.6861   24.0614 N   0  0  0  0  0  0  0  0  0  0  0  0
    9.2079  -15.5158   24.8194 C   0  0  1  0  0  0  0  0  0  0  0  0
    9.4990  -14.0320   25.0000 C   0  0  0  0  0  0  0  0  0  0  0  0
    8.3671  -13.3187   25.6121 C   0  0  0  0  0  0  0  0  0  0  0  0
    8.3802  -13.0524   26.9571 C   0  0  0  0  0  0  0  0  0  0  0  0
    7.3287  -12.3753   27.5367 C   0  0  0  0  0  0  0  0  0  0  0  0
    6.2477  -11.9543   26.7789 C   0  0  0  0  0  0  0  0  0  0  0  0
    6.2623  -12.2355   25.4321 C   0  0  0  0  0  0  0  0  0  0  0  0
    7.3011  -12.9071   24.8451 C   0  0  0  0  0  0  0  0  0  0  0  0
    9.0858  -16.2020   26.1261 C   0  0  0  0  0  0  0  0  0  0  0  0
    7.9245  -16.9126   26.4441 O   0  0  0  0  0  0  0  0  0  0  0  0
    9.9788  -16.1946   27.0075 O   0  0  0  0  0  0  0  0  0  0  0  0
  2  1  1  6
  2  4  1  0
  3  2  1  0
  4  5  1  1
  6  4  1  0
  7  6  2  0
  8  9  1  0
  9 10  2  0
 12 11  1  6
 11  9  1  0
 12 13  1  0
 13  6  1  0
 14 15  2  0
 14 12  1  0
 16 14  1  0
 17 18  1  1
 17 16  1  0
 19 20  2  0
 19 18  1  0
 21 20  1  0
 22 21  2  0
 23 24  2  0
 23 22  1  0
 24 19  1  0
 25 17  1  0
 26 25  1  0
 27 25  2  0
M  END
$$$$
