TNF.pdb
     RDKit          3D

 27 27  0  0  1  0  0  0  0  0999 V2000
    8.2959  -12.3400   19.5733 C   0  0  0  0  0  0  0  0  0  0  0  0
    8.5001  -13.3872   20.6418 C   0  0  1  0  0  0  0  0  0  0  0  0
    7.4411  -13.3663   21.5675 O   0  0  0  0  0  0  0  0  0  0  0  0
    8.5827  -14.7463   19.9642 C   0  0  2  0  0  0  0  0  0  0  0  0
    7.3341  -14.9764   19.2335 N   0  0  0  0  0  0  0  0  0  0  0  0
    8.7347  -15.7637   21.0510 C   0  0  0  0  0  0  0  0  0  0  0  0
    7.6916  -16.3093   21.4824 O   0  0  0  0  0  0  0  0  0  0  0  0
    9.8336  -19.9885   21.7908 N   0  0  0  0  0  0  0  0  0  0  0  0
   10.6498  -18.9462   21.3118 C   0  0  0  0  0  0  0  0  0  0  0  0
   10.8767  -18.8494   20.0830 O   0  0  0  0  0  0  0  0  0  0  0  0
   11.2157  -17.9985   22.2571 C   0  0  0  0  0  0  0  0  0  0  0  0
   10.1266  -17.0383   22.7628 C   0  0  2  0  0  0  0  0  0  0  0  0
    9.9680  -16.1270   21.5975 N   0  0  0  0  0  0  0  0  0  0  0  0
   10.5565  -16.2525   23.9263 C   0  0  0  0  0  0  0  0  0  0  0  0
   11.5998  -15.5081   23.8539 O   0  0  0  0  0  0  0  0  0  0  0  0
    9.9050  -16.2338   25.1690 N   0  0  0  0  0  0  0  0  0  0  0  0
   10.5146  -15.6253   26.3525 C   0  0  1  0  0  0  0  0  0  0  0  0
   10.2904  -14.1193   26.3280 C   0  0  0  0  0  0  0  0  0  0  0  0
    8.8599  -13.7751   26.3149 C   0  0  0  0  0  0  0  0  0  0  0  0
    8.2289  -13.4526   27.4887 C   0  0  0  0  0  0  0  0  0  0  0  0
    6.8915  -13.1187   27.4840 C   0  0  0  0  0  0  0  0  0  0  0  0
    6.1651  -13.1024   26.3042 C   0  0  0  0  0  0  0  0  0  0  0  0
    6.8249  -13.4302   25.1421 C   0  0  0  0  0  0  0  0  0  0  0  0
    8.1529  -13.7634   25.1342 C   0  0  0  0  0  0  0  0  0  0  0  0
    9.9377  -16.2343   27.5730 C   0  0  0  0  0  0  0  0  0  0  0  0
   10.4006  -15.8561   28.8368 O   0  0  0  0  0  0  0  0  0  0  0  0
    9.0294  -17.0999   27.5618 O   0  0  0  0  0  0  0  0  0  0  0  0
  2  1  1  6
  2  4  1  0
  3  2  1  0
  4  5  1  1
  6  4  1  0
  7  6  2  0
  8  9  1  0
  9 10  2  0
 12 11  1  6
 11  9  1  0
 12 13  1  0
 13  6  1  0
 14 15  2  0
 14 12  1  0
 16 14  1  0
 17 18  1  1
 17 16  1  0
 19 20  2  0
 19 18  1  0
 21 20  1  0
 22 21  2  0
 23 24  2  0
 23 22  1  0
 24 19  1  0
 25 17  1  0
 26 25  1  0
 27 25  2  0
M  END
$$$$
