TNF.pdb
     RDKit          3D

 27 27  0  0  1  0  0  0  0  0999 V2000
    9.4687  -12.7351   19.8823 C   0  0  0  0  0  0  0  0  0  0  0  0
    8.2732  -13.1978   19.0845 C   0  0  1  0  0  0  0  0  0  0  0  0
    8.0871  -12.3858   17.9510 O   0  0  0  0  0  0  0  0  0  0  0  0
    8.5110  -14.6409   18.6674 C   0  0  2  0  0  0  0  0  0  0  0  0
    7.3101  -15.1302   17.9860 N   0  0  0  0  0  0  0  0  0  0  0  0
    8.7415  -15.4224   19.9227 C   0  0  0  0  0  0  0  0  0  0  0  0
    7.7328  -15.7670   20.5827 O   0  0  0  0  0  0  0  0  0  0  0  0
   10.2596  -18.8557   20.0008 N   0  0  0  0  0  0  0  0  0  0  0  0
   11.5366  -18.3614   20.3278 C   0  0  0  0  0  0  0  0  0  0  0  0
   12.5561  -18.9018   19.8386 O   0  0  0  0  0  0  0  0  0  0  0  0
   11.6472  -17.2282   21.2310 C   0  0  0  0  0  0  0  0  0  0  0  0
   10.2524  -16.6677   21.5532 C   0  0  2  0  0  0  0  0  0  0  0  0
   10.0107  -15.7795   20.3843 N   0  0  0  0  0  0  0  0  0  0  0  0
   10.2335  -15.8581   22.7780 C   0  0  0  0  0  0  0  0  0  0  0  0
   10.6542  -14.6454   22.7579 O   0  0  0  0  0  0  0  0  0  0  0  0
    9.7762  -16.3019   24.0282 N   0  0  0  0  0  0  0  0  0  0  0  0
    9.2286  -15.3788   25.0235 C   0  0  1  0  0  0  0  0  0  0  0  0
    8.1151  -14.5504   24.3968 C   0  0  0  0  0  0  0  0  0  0  0  0
    7.5520  -13.5766   25.3452 C   0  0  0  0  0  0  0  0  0  0  0  0
    6.2240  -13.6449   25.6795 C   0  0  0  0  0  0  0  0  0  0  0  0
    5.6906  -12.7430   26.5752 C   0  0  0  0  0  0  0  0  0  0  0  0
    6.4785  -11.7588   27.1502 C   0  0  0  0  0  0  0  0  0  0  0  0
    7.8073  -11.7149   26.7959 C   0  0  0  0  0  0  0  0  0  0  0  0
    8.3484  -12.6052   25.9075 C   0  0  0  0  0  0  0  0  0  0  0  0
    8.7353  -16.1467   26.1898 C   0  0  0  0  0  0  0  0  0  0  0  0
    9.1116  -15.7812   27.4857 O   0  0  0  0  0  0  0  0  0  0  0  0
    7.9756  -17.1416   26.1030 O   0  0  0  0  0  0  0  0  0  0  0  0
  2  1  1  6
  2  4  1  0
  3  2  1  0
  4  5  1  1
  6  4  1  0
  7  6  2  0
  8  9  1  0
  9 10  2  0
 12 11  1  6
 11  9  1  0
 12 13  1  0
 13  6  1  0
 14 15  2  0
 14 12  1  0
 16 14  1  0
 17 18  1  6
 17 16  1  0
 19 20  2  0
 19 18  1  0
 21 20  1  0
 22 21  2  0
 23 24  2  0
 23 22  1  0
 24 19  1  0
 25 17  1  0
 26 25  1  0
 27 25  2  0
M  END
$$$$
