TNF.pdb
     RDKit          3D

 27 27  0  0  1  0  0  0  0  0999 V2000
    9.0677  -12.6695   20.8027 C   0  0  0  0  0  0  0  0  0  0  0  0
    8.0270  -12.9294   19.7401 C   0  0  1  0  0  0  0  0  0  0  0  0
    8.0331  -11.9044   18.7767 O   0  0  0  0  0  0  0  0  0  0  0  0
    8.3382  -14.2682   19.0889 C   0  0  2  0  0  0  0  0  0  0  0  0
    7.3057  -14.5477   18.0880 N   0  0  0  0  0  0  0  0  0  0  0  0
    8.2922  -15.2985   20.1732 C   0  0  0  0  0  0  0  0  0  0  0  0
    7.1775  -15.8053   20.4424 O   0  0  0  0  0  0  0  0  0  0  0  0
   11.4520  -18.1928   19.3576 N   0  0  0  0  0  0  0  0  0  0  0  0
   10.5667  -18.3622   20.4391 C   0  0  0  0  0  0  0  0  0  0  0  0
    9.6641  -19.2293   20.3732 O   0  0  0  0  0  0  0  0  0  0  0  0
   10.7182  -17.5236   21.6163 C   0  0  0  0  0  0  0  0  0  0  0  0
    9.4021  -16.7880   21.9173 C   0  0  2  0  0  0  0  0  0  0  0  0
    9.4184  -15.7142   20.8875 N   0  0  0  0  0  0  0  0  0  0  0  0
    9.3875  -16.1699   23.2491 C   0  0  0  0  0  0  0  0  0  0  0  0
   10.3692  -15.4371   23.6325 O   0  0  0  0  0  0  0  0  0  0  0  0
    8.3538  -16.3076   24.1880 N   0  0  0  0  0  0  0  0  0  0  0  0
    8.4393  -15.7164   25.5243 C   0  0  1  0  0  0  0  0  0  0  0  0
    7.0553  -15.2717   25.9779 C   0  0  0  0  0  0  0  0  0  0  0  0
    6.9153  -13.8070   25.9655 C   0  0  0  0  0  0  0  0  0  0  0  0
    5.7266  -13.2357   26.3404 C   0  0  0  0  0  0  0  0  0  0  0  0
    5.5903  -11.8640   26.3417 C   0  0  0  0  0  0  0  0  0  0  0  0
    6.6420  -11.0429   25.9679 C   0  0  0  0  0  0  0  0  0  0  0  0
    7.8226  -11.6444   25.5970 C   0  0  0  0  0  0  0  0  0  0  0  0
    7.9699  -13.0057   25.5917 C   0  0  0  0  0  0  0  0  0  0  0  0
    9.0211  -16.7025   26.4637 C   0  0  0  0  0  0  0  0  0  0  0  0
    9.7292  -16.2719   27.5896 O   0  0  0  0  0  0  0  0  0  0  0  0
    8.9258  -17.9456   26.3223 O   0  0  0  0  0  0  0  0  0  0  0  0
  2  1  1  1
  2  4  1  0
  3  2  1  0
  4  5  1  6
  6  4  1  0
  7  6  2  0
  8  9  1  0
  9 10  2  0
 12 11  1  1
 11  9  1  0
 12 13  1  0
 13  6  1  0
 14 15  2  0
 14 12  1  0
 16 14  1  0
 17 18  1  1
 17 16  1  0
 19 20  2  0
 19 18  1  0
 21 20  1  0
 22 21  2  0
 23 24  2  0
 23 22  1  0
 24 19  1  0
 25 17  1  0
 26 25  1  0
 27 25  2  0
M  END
$$$$
