TNF.pdb
     RDKit          3D

 27 27  0  0  1  0  0  0  0  0999 V2000
    7.3490  -12.3219   20.1687 C   0  0  0  0  0  0  0  0  0  0  0  0
    7.6646  -13.5300   21.0176 C   0  0  1  0  0  0  0  0  0  0  0  0
    6.4818  -14.1453   21.4664 O   0  0  0  0  0  0  0  0  0  0  0  0
    8.4789  -14.5010   20.1767 C   0  0  2  0  0  0  0  0  0  0  0  0
    7.6550  -14.9400   19.0478 N   0  0  0  0  0  0  0  0  0  0  0  0
    8.8056  -15.6671   21.0559 C   0  0  0  0  0  0  0  0  0  0  0  0
    7.9774  -16.6072   21.1009 O   0  0  0  0  0  0  0  0  0  0  0  0
   12.6595  -17.6032   20.1578 N   0  0  0  0  0  0  0  0  0  0  0  0
   11.8249  -18.0003   21.2198 C   0  0  0  0  0  0  0  0  0  0  0  0
   11.1634  -19.0608   21.1270 O   0  0  0  0  0  0  0  0  0  0  0  0
   11.7469  -17.1679   22.4085 C   0  0  0  0  0  0  0  0  0  0  0  0
   10.2784  -16.8693   22.7523 C   0  0  2  0  0  0  0  0  0  0  0  0
    9.9741  -15.7533   21.8165 N   0  0  0  0  0  0  0  0  0  0  0  0
   10.1017  -16.3959   24.1309 C   0  0  0  0  0  0  0  0  0  0  0  0
   10.8404  -15.4516   24.5898 O   0  0  0  0  0  0  0  0  0  0  0  0
    9.1569  -16.8983   25.0386 N   0  0  0  0  0  0  0  0  0  0  0  0
    9.1280  -16.4733   26.4390 C   0  0  1  0  0  0  0  0  0  0  0  0
    7.7392  -15.9562   26.7895 C   0  0  0  0  0  0  0  0  0  0  0  0
    7.5573  -14.5515   26.3914 C   0  0  0  0  0  0  0  0  0  0  0  0
    6.7263  -14.2450   25.3447 C   0  0  0  0  0  0  0  0  0  0  0  0
    6.5420  -12.9308   24.9718 C   0  0  0  0  0  0  0  0  0  0  0  0
    7.1868  -11.9030   25.6410 C   0  0  0  0  0  0  0  0  0  0  0  0
    8.0142  -12.2407   26.6872 C   0  0  0  0  0  0  0  0  0  0  0  0
    8.2050  -13.5424   27.0668 C   0  0  0  0  0  0  0  0  0  0  0  0
    9.5129  -17.6096   27.3074 C   0  0  0  0  0  0  0  0  0  0  0  0
    9.7746  -18.8654   26.7516 O   0  0  0  0  0  0  0  0  0  0  0  0
    9.6262  -17.5312   28.5545 O   0  0  0  0  0  0  0  0  0  0  0  0
  2  1  1  6
  2  4  1  0
  3  2  1  0
  4  5  1  6
  6  4  1  0
  7  6  2  0
  8  9  1  0
  9 10  2  0
 12 11  1  1
 11  9  1  0
 12 13  1  0
 13  6  1  0
 14 15  2  0
 14 12  1  0
 16 14  1  0
 17 18  1  1
 17 16  1  0
 19 20  2  0
 19 18  1  0
 21 20  1  0
 22 21  2  0
 23 24  2  0
 23 22  1  0
 24 19  1  0
 25 17  1  0
 26 25  1  0
 27 25  2  0
M  END
$$$$
