TNF.pdb
     RDKit          3D

 27 27  0  0  1  0  0  0  0  0999 V2000
    9.8173  -14.0884   17.3848 C   0  0  0  0  0  0  0  0  0  0  0  0
    9.4334  -14.4791   18.7919 C   0  0  1  0  0  0  0  0  0  0  0  0
   10.1705  -13.7373   19.7328 O   0  0  0  0  0  0  0  0  0  0  0  0
    7.9445  -14.2222   18.9660 C   0  0  2  0  0  0  0  0  0  0  0  0
    7.6996  -12.7871   18.8023 N   0  0  0  0  0  0  0  0  0  0  0  0
    7.5914  -14.6462   20.3570 C   0  0  0  0  0  0  0  0  0  0  0  0
    7.5851  -13.7629   21.2467 O   0  0  0  0  0  0  0  0  0  0  0  0
    5.1547  -18.3202   23.8334 N   0  0  0  0  0  0  0  0  0  0  0  0
    6.3522  -18.5439   23.1277 C   0  0  0  0  0  0  0  0  0  0  0  0
    7.2195  -19.3133   23.6037 O   0  0  0  0  0  0  0  0  0  0  0  0
    6.5594  -17.8743   21.8545 C   0  0  0  0  0  0  0  0  0  0  0  0
    6.9411  -16.4029   22.0843 C   0  0  2  0  0  0  0  0  0  0  0  0
    7.2732  -15.9618   20.7027 N   0  0  0  0  0  0  0  0  0  0  0  0
    8.1303  -16.2492   22.9317 C   0  0  0  0  0  0  0  0  0  0  0  0
    9.2693  -16.6868   22.5327 O   0  0  0  0  0  0  0  0  0  0  0  0
    8.1438  -15.6391   24.1953 N   0  0  0  0  0  0  0  0  0  0  0  0
    9.3448  -15.6199   25.0319 C   0  0  1  0  0  0  0  0  0  0  0  0
    9.6964  -14.1826   25.3915 C   0  0  0  0  0  0  0  0  0  0  0  0
    8.5048  -13.3960   25.7470 C   0  0  0  0  0  0  0  0  0  0  0  0
    7.8233  -12.7173   24.7698 C   0  0  0  0  0  0  0  0  0  0  0  0
    6.6999  -11.9866   25.0925 C   0  0  0  0  0  0  0  0  0  0  0  0
    6.2412  -11.9241   26.3985 C   0  0  0  0  0  0  0  0  0  0  0  0
    6.9451  -12.6153   27.3575 C   0  0  0  0  0  0  0  0  0  0  0  0
    8.0622  -13.3445   27.0491 C   0  0  0  0  0  0  0  0  0  0  0  0
    9.1134  -16.4360   26.2459 C   0  0  0  0  0  0  0  0  0  0  0  0
   10.1482  -16.6471   27.1619 O   0  0  0  0  0  0  0  0  0  0  0  0
    8.0168  -16.9765   26.5282 O   0  0  0  0  0  0  0  0  0  0  0  0
  2  1  1  6
  2  4  1  0
  3  2  1  0
  4  5  1  1
  6  4  1  0
  7  6  2  0
  8  9  1  0
  9 10  2  0
 12 11  1  6
 11  9  1  0
 12 13  1  0
 13  6  1  0
 14 15  2  0
 14 12  1  0
 16 14  1  0
 17 18  1  1
 17 16  1  0
 19 20  2  0
 19 18  1  0
 21 20  1  0
 22 21  2  0
 23 24  2  0
 23 22  1  0
 24 19  1  0
 25 17  1  0
 26 25  1  0
 27 25  2  0
M  END
$$$$
