TNF.pdb
     RDKit          3D

 27 27  0  0  1  0  0  0  0  0999 V2000
    7.2692  -12.5017   19.9156 C   0  0  0  0  0  0  0  0  0  0  0  0
    7.8397  -13.6000   20.7806 C   0  0  1  0  0  0  0  0  0  0  0  0
    6.8259  -14.2133   21.5388 O   0  0  0  0  0  0  0  0  0  0  0  0
    8.5099  -14.6192   19.8723 C   0  0  2  0  0  0  0  0  0  0  0  0
    7.4946  -15.1820   18.9788 N   0  0  0  0  0  0  0  0  0  0  0  0
    9.0632  -15.6911   20.7579 C   0  0  0  0  0  0  0  0  0  0  0  0
    8.5164  -16.8184   20.7121 O   0  0  0  0  0  0  0  0  0  0  0  0
   12.9226  -18.7474   22.4484 N   0  0  0  0  0  0  0  0  0  0  0  0
   13.1156  -17.3690   22.6597 C   0  0  0  0  0  0  0  0  0  0  0  0
   14.0068  -16.9804   23.4506 O   0  0  0  0  0  0  0  0  0  0  0  0
   12.2729  -16.4194   21.9525 C   0  0  0  0  0  0  0  0  0  0  0  0
   10.8073  -16.5839   22.3868 C   0  0  2  0  0  0  0  0  0  0  0  0
   10.1449  -15.4946   21.6197 N   0  0  0  0  0  0  0  0  0  0  0  0
   10.6087  -16.3440   23.8217 C   0  0  0  0  0  0  0  0  0  0  0  0
   11.2182  -17.0684   24.6887 O   0  0  0  0  0  0  0  0  0  0  0  0
    9.7788  -15.3506   24.3635 N   0  0  0  0  0  0  0  0  0  0  0  0
    8.9059  -15.6123   25.5089 C   0  0  1  0  0  0  0  0  0  0  0  0
    7.4599  -15.3234   25.1284 C   0  0  0  0  0  0  0  0  0  0  0  0
    7.0697  -13.9425   25.4538 C   0  0  0  0  0  0  0  0  0  0  0  0
    5.9134  -13.7111   26.1534 C   0  0  0  0  0  0  0  0  0  0  0  0
    5.5458  -12.4212   26.4716 C   0  0  0  0  0  0  0  0  0  0  0  0
    6.3301  -11.3430   26.0945 C   0  0  0  0  0  0  0  0  0  0  0  0
    7.4846  -11.6058   25.3937 C   0  0  0  0  0  0  0  0  0  0  0  0
    7.8602  -12.8826   25.0719 C   0  0  0  0  0  0  0  0  0  0  0  0
    9.0753  -17.0167   25.9476 C   0  0  0  0  0  0  0  0  0  0  0  0
    9.8900  -17.8896   25.2204 O   0  0  0  0  0  0  0  0  0  0  0  0
    8.5214  -17.5055   26.9618 O   0  0  0  0  0  0  0  0  0  0  0  0
  2  1  1  6
  2  4  1  0
  3  2  1  0
  4  5  1  6
  6  4  1  0
  7  6  2  0
  8  9  1  0
  9 10  2  0
 12 11  1  1
 11  9  1  0
 12 13  1  0
 13  6  1  0
 14 15  2  0
 14 12  1  0
 16 14  1  0
 17 18  1  6
 17 16  1  0
 19 20  2  0
 19 18  1  0
 21 20  1  0
 22 21  2  0
 23 24  2  0
 23 22  1  0
 24 19  1  0
 25 17  1  0
 26 25  1  0
 27 25  2  0
M  END
$$$$
