TNF.pdb
     RDKit          3D

 27 27  0  0  1  0  0  0  0  0999 V2000
    7.4015  -12.2755   18.2123 C   0  0  0  0  0  0  0  0  0  0  0  0
    7.4495  -13.5708   18.9869 C   0  0  1  0  0  0  0  0  0  0  0  0
    8.1339  -14.5608   18.2587 O   0  0  0  0  0  0  0  0  0  0  0  0
    8.1527  -13.3068   20.3094 C   0  0  2  0  0  0  0  0  0  0  0  0
    9.5219  -12.8692   20.0269 N   0  0  0  0  0  0  0  0  0  0  0  0
    8.1735  -14.6038   21.0555 C   0  0  0  0  0  0  0  0  0  0  0  0
    7.0702  -15.0955   21.3914 O   0  0  0  0  0  0  0  0  0  0  0  0
   10.9839  -19.6248   21.7308 N   0  0  0  0  0  0  0  0  0  0  0  0
   10.9464  -18.4070   22.4363 C   0  0  0  0  0  0  0  0  0  0  0  0
   11.1316  -18.4012   23.6759 O   0  0  0  0  0  0  0  0  0  0  0  0
   10.6923  -17.1748   21.7090 C   0  0  0  0  0  0  0  0  0  0  0  0
    9.3920  -16.5228   22.2067 C   0  0  2  0  0  0  0  0  0  0  0  0
    9.3492  -15.2806   21.3889 N   0  0  0  0  0  0  0  0  0  0  0  0
    9.4471  -16.1556   23.6273 C   0  0  0  0  0  0  0  0  0  0  0  0
   10.3208  -15.3122   24.0435 O   0  0  0  0  0  0  0  0  0  0  0  0
    8.5950  -16.6597   24.6217 N   0  0  0  0  0  0  0  0  0  0  0  0
    8.7141  -16.2508   26.0221 C   0  0  1  0  0  0  0  0  0  0  0  0
    7.3550  -15.8029   26.5429 C   0  0  0  0  0  0  0  0  0  0  0  0
    7.2075  -14.3393   26.5112 C   0  0  0  0  0  0  0  0  0  0  0  0
    5.9746  -13.7864   26.2782 C   0  0  0  0  0  0  0  0  0  0  0  0
    5.8257  -12.4161   26.2573 C   0  0  0  0  0  0  0  0  0  0  0  0
    6.9086  -11.5782   26.4695 C   0  0  0  0  0  0  0  0  0  0  0  0
    8.1331  -12.1614   26.7010 C   0  0  0  0  0  0  0  0  0  0  0  0
    8.2934  -13.5210   26.7242 C   0  0  0  0  0  0  0  0  0  0  0  0
    9.2508  -17.3765   26.8208 C   0  0  0  0  0  0  0  0  0  0  0  0
    9.7284  -17.1578   28.1164 O   0  0  0  0  0  0  0  0  0  0  0  0
    9.3146  -18.5600   26.4090 O   0  0  0  0  0  0  0  0  0  0  0  0
  2  1  1  6
  2  4  1  0
  3  2  1  0
  4  5  1  6
  6  4  1  0
  7  6  2  0
  8  9  1  0
  9 10  2  0
 12 11  1  6
 11  9  1  0
 12 13  1  0
 13  6  1  0
 14 15  2  0
 14 12  1  0
 16 14  1  0
 17 18  1  1
 17 16  1  0
 19 20  2  0
 19 18  1  0
 21 20  1  0
 22 21  2  0
 23 24  2  0
 23 22  1  0
 24 19  1  0
 25 17  1  0
 26 25  1  0
 27 25  2  0
M  END
$$$$
