TNF.pdb
     RDKit          3D

 27 27  0  0  1  0  0  0  0  0999 V2000
    7.6670  -12.2372   19.6516 C   0  0  0  0  0  0  0  0  0  0  0  0
    7.9098  -13.4338   20.5400 C   0  0  1  0  0  0  0  0  0  0  0  0
    6.6918  -13.9705   20.9954 O   0  0  0  0  0  0  0  0  0  0  0  0
    8.6775  -14.4726   19.7371 C   0  0  2  0  0  0  0  0  0  0  0  0
    7.8570  -14.8714   18.5909 N   0  0  0  0  0  0  0  0  0  0  0  0
    8.8967  -15.6442   20.6419 C   0  0  0  0  0  0  0  0  0  0  0  0
    8.5627  -16.7748   20.2152 O   0  0  0  0  0  0  0  0  0  0  0  0
   10.4045  -19.3994   23.3310 N   0  0  0  0  0  0  0  0  0  0  0  0
   11.3366  -18.5886   22.6559 C   0  0  0  0  0  0  0  0  0  0  0  0
   12.5503  -18.9012   22.6604 O   0  0  0  0  0  0  0  0  0  0  0  0
   10.8699  -17.3991   21.9636 C   0  0  0  0  0  0  0  0  0  0  0  0
    9.7766  -16.6997   22.7876 C   0  0  2  0  0  0  0  0  0  0  0  0
    9.4484  -15.5359   21.9207 N   0  0  0  0  0  0  0  0  0  0  0  0
   10.2666  -16.2064   24.0809 C   0  0  0  0  0  0  0  0  0  0  0  0
   10.7480  -15.0205   24.1801 O   0  0  0  0  0  0  0  0  0  0  0  0
   10.2576  -16.9401   25.2770 N   0  0  0  0  0  0  0  0  0  0  0  0
    9.5480  -16.4693   26.4675 C   0  0  1  0  0  0  0  0  0  0  0  0
    8.0792  -16.2450   26.1340 C   0  0  0  0  0  0  0  0  0  0  0  0
    7.7344  -14.8151   26.0970 C   0  0  0  0  0  0  0  0  0  0  0  0
    6.7193  -14.3827   25.2830 C   0  0  0  0  0  0  0  0  0  0  0  0
    6.3828  -13.0464   25.2502 C   0  0  0  0  0  0  0  0  0  0  0  0
    7.0573  -12.1222   26.0318 C   0  0  0  0  0  0  0  0  0  0  0  0
    8.0709  -12.5852   26.8387 C   0  0  0  0  0  0  0  0  0  0  0  0
    8.4142  -13.9101   26.8799 C   0  0  0  0  0  0  0  0  0  0  0  0
    9.7060  -17.4576   27.5591 C   0  0  0  0  0  0  0  0  0  0  0  0
   10.0280  -17.0352   28.8523 O   0  0  0  0  0  0  0  0  0  0  0  0
    9.5692  -18.6957   27.4084 O   0  0  0  0  0  0  0  0  0  0  0  0
  2  1  1  6
  2  4  1  0
  3  2  1  0
  4  5  1  6
  6  4  1  0
  7  6  2  0
  8  9  1  0
  9 10  2  0
 12 11  1  6
 11  9  1  0
 12 13  1  0
 13  6  1  0
 14 15  2  0
 14 12  1  0
 16 14  1  0
 17 18  1  6
 17 16  1  0
 19 20  2  0
 19 18  1  0
 21 20  1  0
 22 21  2  0
 23 24  2  0
 23 22  1  0
 24 19  1  0
 25 17  1  0
 26 25  1  0
 27 25  2  0
M  END
$$$$
