TNF.pdb
     RDKit          3D

 27 27  0  0  1  0  0  0  0  0999 V2000
    7.4372  -12.5046   19.2238 C   0  0  0  0  0  0  0  0  0  0  0  0
    8.1699  -13.8003   18.9701 C   0  0  1  0  0  0  0  0  0  0  0  0
    9.0292  -13.6773   17.8631 O   0  0  0  0  0  0  0  0  0  0  0  0
    8.9643  -14.1484   20.2194 C   0  0  2  0  0  0  0  0  0  0  0  0
    9.8740  -15.2507   19.8979 N   0  0  0  0  0  0  0  0  0  0  0  0
    7.9754  -14.5861   21.2537 C   0  0  0  0  0  0  0  0  0  0  0  0
    7.1206  -13.7485   21.6276 O   0  0  0  0  0  0  0  0  0  0  0  0
    5.1936  -16.7786   20.5793 N   0  0  0  0  0  0  0  0  0  0  0  0
    5.4692  -17.8269   21.4778 C   0  0  0  0  0  0  0  0  0  0  0  0
    4.6671  -18.7844   21.5802 O   0  0  0  0  0  0  0  0  0  0  0  0
    6.6849  -17.7771   22.2725 C   0  0  0  0  0  0  0  0  0  0  0  0
    6.9331  -16.3452   22.7742 C   0  0  2  0  0  0  0  0  0  0  0  0
    7.9624  -15.8664   21.8123 N   0  0  0  0  0  0  0  0  0  0  0  0
    7.4947  -16.3067   24.1303 C   0  0  0  0  0  0  0  0  0  0  0  0
    6.9093  -16.9262   25.0903 O   0  0  0  0  0  0  0  0  0  0  0  0
    8.6668  -15.6274   24.4961 N   0  0  0  0  0  0  0  0  0  0  0  0
    9.1110  -15.5465   25.8885 C   0  0  1  0  0  0  0  0  0  0  0  0
    7.9065  -15.3579   26.8010 C   0  0  0  0  0  0  0  0  0  0  0  0
    7.3914  -13.9804   26.7563 C   0  0  0  0  0  0  0  0  0  0  0  0
    8.2588  -12.9378   26.5543 C   0  0  0  0  0  0  0  0  0  0  0  0
    7.7833  -11.6451   26.5006 C   0  0  0  0  0  0  0  0  0  0  0  0
    6.4321  -11.3760   26.6482 C   0  0  0  0  0  0  0  0  0  0  0  0
    5.5857  -12.4420   26.8494 C   0  0  0  0  0  0  0  0  0  0  0  0
    6.0462  -13.7303   26.9045 C   0  0  0  0  0  0  0  0  0  0  0  0
    9.8630  -16.7734   26.2386 C   0  0  0  0  0  0  0  0  0  0  0  0
   10.0295  -17.7921   25.2957 O   0  0  0  0  0  0  0  0  0  0  0  0
   10.3831  -16.9799   27.3616 O   0  0  0  0  0  0  0  0  0  0  0  0
  2  1  1  1
  2  4  1  0
  3  2  1  0
  4  5  1  6
  6  4  1  0
  7  6  2  0
  8  9  1  0
  9 10  2  0
 12 11  1  6
 11  9  1  0
 12 13  1  0
 13  6  1  0
 14 15  2  0
 14 12  1  0
 16 14  1  0
 17 18  1  1
 17 16  1  0
 19 20  2  0
 19 18  1  0
 21 20  1  0
 22 21  2  0
 23 24  2  0
 23 22  1  0
 24 19  1  0
 25 17  1  0
 26 25  1  0
 27 25  2  0
M  END
$$$$
