TNF.pdb
     RDKit          3D

 27 27  0  0  1  0  0  0  0  0999 V2000
    8.9752  -12.7829   19.3825 C   0  0  0  0  0  0  0  0  0  0  0  0
    8.1801  -13.4054   18.2600 C   0  0  1  0  0  0  0  0  0  0  0  0
    8.1843  -12.5728   17.1261 O   0  0  0  0  0  0  0  0  0  0  0  0
    8.8027  -14.7528   17.9282 C   0  0  2  0  0  0  0  0  0  0  0  0
    8.0148  -15.3776   16.8629 N   0  0  0  0  0  0  0  0  0  0  0  0
    8.7299  -15.5817   19.1720 C   0  0  0  0  0  0  0  0  0  0  0  0
    7.5967  -15.9683   19.5438 O   0  0  0  0  0  0  0  0  0  0  0  0
   11.0792  -19.6314   22.3094 N   0  0  0  0  0  0  0  0  0  0  0  0
   11.3500  -18.2501   22.3380 C   0  0  0  0  0  0  0  0  0  0  0  0
   11.7500  -17.7173   23.3995 O   0  0  0  0  0  0  0  0  0  0  0  0
   11.1590  -17.4660   21.1294 C   0  0  0  0  0  0  0  0  0  0  0  0
    9.7946  -16.7583   21.1656 C   0  0  2  0  0  0  0  0  0  0  0  0
    9.8510  -15.9384   19.9253 N   0  0  0  0  0  0  0  0  0  0  0  0
    9.6480  -15.8640   22.3209 C   0  0  0  0  0  0  0  0  0  0  0  0
   10.3789  -14.8135   22.4221 O   0  0  0  0  0  0  0  0  0  0  0  0
    8.7413  -16.0541   23.3749 N   0  0  0  0  0  0  0  0  0  0  0  0
    8.6059  -15.0842   24.4628 C   0  0  1  0  0  0  0  0  0  0  0  0
    7.3018  -14.3141   24.3039 C   0  0  0  0  0  0  0  0  0  0  0  0
    7.0556  -13.4075   25.4363 C   0  0  0  0  0  0  0  0  0  0  0  0
    7.4893  -12.1083   25.3723 C   0  0  0  0  0  0  0  0  0  0  0  0
    7.2535  -11.2495   26.4243 C   0  0  0  0  0  0  0  0  0  0  0  0
    6.5798  -11.6778   27.5569 C   0  0  0  0  0  0  0  0  0  0  0  0
    6.1564  -12.9864   27.5927 C   0  0  0  0  0  0  0  0  0  0  0  0
    6.3846  -13.8488   26.5540 C   0  0  0  0  0  0  0  0  0  0  0  0
    8.6570  -15.7912   25.7632 C   0  0  0  0  0  0  0  0  0  0  0  0
    9.4295  -15.2839   26.8122 O   0  0  0  0  0  0  0  0  0  0  0  0
    8.0371  -16.8543   26.0074 O   0  0  0  0  0  0  0  0  0  0  0  0
  2  1  1  1
  2  4  1  0
  3  2  1  0
  4  5  1  6
  6  4  1  0
  7  6  2  0
  8  9  1  0
  9 10  2  0
 12 11  1  1
 11  9  1  0
 12 13  1  0
 13  6  1  0
 14 15  2  0
 14 12  1  0
 16 14  1  0
 17 18  1  6
 17 16  1  0
 19 20  2  0
 19 18  1  0
 21 20  1  0
 22 21  2  0
 23 24  2  0
 23 22  1  0
 24 19  1  0
 25 17  1  0
 26 25  1  0
 27 25  2  0
M  END
$$$$
