TNF.pdb
     RDKit          3D

 27 27  0  0  1  0  0  0  0  0999 V2000
   12.3721  -18.8526   21.9447 C   0  0  0  0  0  0  0  0  0  0  0  0
   11.9353  -19.1758   20.5359 C   0  0  1  0  0  0  0  0  0  0  0  0
   12.3116  -20.4855   20.1866 O   0  0  0  0  0  0  0  0  0  0  0  0
   10.4240  -19.0226   20.4609 C   0  0  2  0  0  0  0  0  0  0  0  0
    9.9795  -19.4569   19.1343 N   0  0  0  0  0  0  0  0  0  0  0  0
   10.1260  -17.5684   20.6499 C   0  0  0  0  0  0  0  0  0  0  0  0
    9.9490  -16.8758   19.6200 O   0  0  0  0  0  0  0  0  0  0  0  0
    7.6193  -13.6240   22.3585 N   0  0  0  0  0  0  0  0  0  0  0  0
    7.0516  -14.8350   21.9189 C   0  0  0  0  0  0  0  0  0  0  0  0
    5.8165  -14.9054   21.7178 O   0  0  0  0  0  0  0  0  0  0  0  0
    7.9141  -15.9852   21.7061 C   0  0  0  0  0  0  0  0  0  0  0  0
    9.3495  -15.6624   22.1521 C   0  0  2  0  0  0  0  0  0  0  0  0
   10.0375  -16.9580   21.9033 N   0  0  0  0  0  0  0  0  0  0  0  0
    9.4425  -15.3411   23.5818 C   0  0  0  0  0  0  0  0  0  0  0  0
    9.9873  -14.2433   23.9636 O   0  0  0  0  0  0  0  0  0  0  0  0
    8.9689  -16.1560   24.6214 N   0  0  0  0  0  0  0  0  0  0  0  0
    9.3394  -15.9213   26.0179 C   0  0  1  0  0  0  0  0  0  0  0  0
    8.0932  -15.6006   26.8322 C   0  0  0  0  0  0  0  0  0  0  0  0
    7.5503  -14.2718   26.5089 C   0  0  0  0  0  0  0  0  0  0  0  0
    6.4411  -14.1680   25.7096 C   0  0  0  0  0  0  0  0  0  0  0  0
    5.9197  -12.9275   25.4104 C   0  0  0  0  0  0  0  0  0  0  0  0
    6.5007  -11.7716   25.9067 C   0  0  0  0  0  0  0  0  0  0  0  0
    7.6125  -11.9068   26.7061 C   0  0  0  0  0  0  0  0  0  0  0  0
    8.1393  -13.1335   27.0103 C   0  0  0  0  0  0  0  0  0  0  0  0
   10.0366  -17.1144   26.5506 C   0  0  0  0  0  0  0  0  0  0  0  0
   10.2052  -18.2487   25.7510 O   0  0  0  0  0  0  0  0  0  0  0  0
   10.5063  -17.1912   27.7115 O   0  0  0  0  0  0  0  0  0  0  0  0
  2  1  1  1
  2  4  1  0
  3  2  1  0
  4  5  1  6
  6  4  1  0
  7  6  2  0
  8  9  1  0
  9 10  2  0
 12 11  1  1
 11  9  1  0
 12 13  1  0
 13  6  1  0
 14 15  2  0
 14 12  1  0
 16 14  1  0
 17 18  1  1
 17 16  1  0
 19 20  2  0
 19 18  1  0
 21 20  1  0
 22 21  2  0
 23 24  2  0
 23 22  1  0
 24 19  1  0
 25 17  1  0
 26 25  1  0
 27 25  2  0
M  END
$$$$
