TNF.pdb
     RDKit          3D

 27 27  0  0  1  0  0  0  0  0999 V2000
    7.9535  -12.0368   19.7335 C   0  0  0  0  0  0  0  0  0  0  0  0
    8.1337  -13.2245   20.6483 C   0  0  1  0  0  0  0  0  0  0  0  0
    6.9352  -13.5187   21.3234 O   0  0  0  0  0  0  0  0  0  0  0  0
    8.5695  -14.4119   19.8037 C   0  0  2  0  0  0  0  0  0  0  0  0
    7.4866  -14.7412   18.8736 N   0  0  0  0  0  0  0  0  0  0  0  0
    8.7999  -15.5520   20.7452 C   0  0  0  0  0  0  0  0  0  0  0  0
    7.8569  -16.3603   20.9163 O   0  0  0  0  0  0  0  0  0  0  0  0
   11.2465  -19.2645   20.7966 N   0  0  0  0  0  0  0  0  0  0  0  0
   11.8170  -17.9788   20.8554 C   0  0  0  0  0  0  0  0  0  0  0  0
   12.4046  -17.5133   19.8510 O   0  0  0  0  0  0  0  0  0  0  0  0
   11.7123  -17.2134   22.0863 C   0  0  0  0  0  0  0  0  0  0  0  0
   10.2412  -16.8749   22.3778 C   0  0  2  0  0  0  0  0  0  0  0  0
   10.0003  -15.7526   21.4310 N   0  0  0  0  0  0  0  0  0  0  0  0
   10.0286  -16.3946   23.7489 C   0  0  0  0  0  0  0  0  0  0  0  0
   10.7309  -15.4240   24.2101 O   0  0  0  0  0  0  0  0  0  0  0  0
    9.0855  -16.9175   24.6468 N   0  0  0  0  0  0  0  0  0  0  0  0
    8.9240  -16.3798   25.9986 C   0  0  1  0  0  0  0  0  0  0  0  0
    7.4526  -16.0900   26.2629 C   0  0  0  0  0  0  0  0  0  0  0  0
    7.1182  -14.6766   26.0278 C   0  0  0  0  0  0  0  0  0  0  0  0
    7.5924  -13.7157   26.8834 C   0  0  0  0  0  0  0  0  0  0  0  0
    7.2927  -12.3882   26.6645 C   0  0  0  0  0  0  0  0  0  0  0  0
    6.5136  -12.0019   25.5857 C   0  0  0  0  0  0  0  0  0  0  0  0
    6.0522  -12.9879   24.7442 C   0  0  0  0  0  0  0  0  0  0  0  0
    6.3433  -14.3097   24.9513 C   0  0  0  0  0  0  0  0  0  0  0  0
    9.4661  -17.3457   26.9817 C   0  0  0  0  0  0  0  0  0  0  0  0
    9.9411  -18.5909   26.5593 O   0  0  0  0  0  0  0  0  0  0  0  0
    9.5345  -17.1261   28.2152 O   0  0  0  0  0  0  0  0  0  0  0  0
  2  1  1  6
  2  4  1  0
  3  2  1  0
  4  5  1  6
  6  4  1  0
  7  6  2  0
  8  9  1  0
  9 10  2  0
 12 11  1  1
 11  9  1  0
 12 13  1  0
 13  6  1  0
 14 15  2  0
 14 12  1  0
 16 14  1  0
 17 18  1  1
 17 16  1  0
 19 20  2  0
 19 18  1  0
 21 20  1  0
 22 21  2  0
 23 24  2  0
 23 22  1  0
 24 19  1  0
 25 17  1  0
 26 25  1  0
 27 25  2  0
M  END
$$$$
