MEA.pdb
     RDKit          3D

 23 22  0  0  1  0  0  0  0  0999 V2000
   29.0275  -13.7364  -15.2391 C   0  0  0  0  0  0  0  0  0  0  0  0
   27.4922  -12.8366  -15.5789 S   0  0  0  0  0  0  0  0  0  0  0  0
   27.4660  -12.3635  -17.3282 C   0  0  0  0  0  0  0  0  0  0  0  0
   26.2822  -11.4874  -17.6394 C   0  0  0  0  0  0  0  0  0  0  0  0
   24.9826  -12.0345  -17.1427 C   0  0  2  0  0  0  0  0  0  0  0  0
   24.7256  -13.2556  -17.8921 N   0  0  0  0  0  0  0  0  0  0  0  0
   23.8511  -11.0919  -17.3239 C   0  0  0  0  0  0  0  0  0  0  0  0
   23.4063  -10.8087  -18.4636 O   0  0  0  0  0  0  0  0  0  0  0  0
   23.2404  -10.4832  -16.1965 N   0  0  0  0  0  0  0  0  0  0  0  0
   22.0888   -9.5860  -16.3409 C   0  0  1  0  0  0  0  0  0  0  0  0
   20.8613  -10.2871  -15.8483 C   0  0  0  0  0  0  0  0  0  0  0  0
   19.9623  -10.7776  -16.9422 C   0  0  0  0  0  0  0  0  0  0  0  0
   18.7889  -11.4326  -16.2955 C   0  0  0  0  0  0  0  0  0  0  0  0
   18.8865  -12.4135  -15.5225 O   0  0  0  0  0  0  0  0  0  0  0  0
   22.3563   -8.3049  -15.6981 C   0  0  0  0  0  0  0  0  0  0  0  0
   22.8925   -8.2037  -14.5714 O   0  0  0  0  0  0  0  0  0  0  0  0
   17.5108  -10.9293  -16.5629 O   0  0  0  0  0  0  0  0  0  0  0  0
   21.7775   -4.7331  -16.8629 C   0  0  0  0  0  0  0  0  0  0  0  0
   22.2255   -5.7952  -15.8610 C   0  0  2  0  0  0  0  0  0  0  0  0
   21.9942   -7.1129  -16.3765 N   0  0  0  0  0  0  0  0  0  0  0  0
   21.4972   -5.5354  -14.6076 C   0  0  0  0  0  0  0  0  0  0  0  0
   21.8563   -4.5004  -13.7758 O   0  0  0  0  0  0  0  0  0  0  0  0
   20.5374   -6.2657  -14.2928 O   0  0  0  0  0  0  0  0  0  0  0  0
  1  2  1  0
  3  2  1  0
  4  3  1  0
  5  4  1  0
  5  7  1  0
  5  6  1  6
  7  8  2  0
  9 10  1  0
  9  7  1  0
 10 11  1  1
 11 12  1  0
 13 17  1  0
 13 12  1  0
 14 13  2  0
 15 20  1  0
 15 10  1  0
 16 15  2  0
 19 20  1  0
 19 18  1  6
 21 22  1  0
 21 19  1  0
 23 21  2  0
M  END
$$$$
