MEA.pdb
     RDKit          3D

 23 22  0  0  1  0  0  0  0  0999 V2000
   26.8269  -19.2998   -6.8865 C   0  0  0  0  0  0  0  0  0  0  0  0
   27.0085  -20.9717   -7.5604 S   0  0  0  0  0  0  0  0  0  0  0  0
   28.0411  -20.8943   -9.0477 C   0  0  0  0  0  0  0  0  0  0  0  0
   27.3124  -20.2291  -10.1845 C   0  0  0  0  0  0  0  0  0  0  0  0
   26.2563  -21.0864  -10.8049 C   0  0  2  0  0  0  0  0  0  0  0  0
   26.9450  -22.1329  -11.5463 N   0  0  0  0  0  0  0  0  0  0  0  0
   25.3636  -20.3333  -11.7200 C   0  0  0  0  0  0  0  0  0  0  0  0
   24.6856  -19.3547  -11.3206 O   0  0  0  0  0  0  0  0  0  0  0  0
   25.2568  -20.7097  -13.0844 N   0  0  0  0  0  0  0  0  0  0  0  0
   24.4308  -19.9468  -14.0266 C   0  0  1  0  0  0  0  0  0  0  0  0
   25.1145  -19.9155  -15.3579 C   0  0  0  0  0  0  0  0  0  0  0  0
   26.4105  -19.1634  -15.3571 C   0  0  0  0  0  0  0  0  0  0  0  0
   27.0093  -19.3045  -16.7157 C   0  0  0  0  0  0  0  0  0  0  0  0
   28.1496  -19.7810  -16.9202 O   0  0  0  0  0  0  0  0  0  0  0  0
   23.0708  -20.4718  -14.0538 C   0  0  0  0  0  0  0  0  0  0  0  0
   22.8108  -21.6931  -14.1441 O   0  0  0  0  0  0  0  0  0  0  0  0
   26.2629  -18.8844  -17.8223 O   0  0  0  0  0  0  0  0  0  0  0  0
   19.6987  -18.7383  -13.7844 C   0  0  0  0  0  0  0  0  0  0  0  0
   20.6090  -19.9559  -13.9304 C   0  0  2  0  0  0  0  0  0  0  0  0
   21.9865  -19.5607  -13.9747 N   0  0  0  0  0  0  0  0  0  0  0  0
   20.1790  -20.6684  -15.1454 C   0  0  0  0  0  0  0  0  0  0  0  0
   19.0821  -21.4984  -15.1346 O   0  0  0  0  0  0  0  0  0  0  0  0
   20.8194  -20.5182  -16.2041 O   0  0  0  0  0  0  0  0  0  0  0  0
  1  2  1  0
  3  2  1  0
  4  3  1  0
  5  4  1  0
  5  7  1  0
  5  6  1  6
  7  8  2  0
  9 10  1  0
  9  7  1  0
 10 11  1  6
 11 12  1  0
 13 17  1  0
 13 12  1  0
 14 13  2  0
 15 20  1  0
 15 10  1  0
 16 15  2  0
 19 20  1  0
 19 18  1  6
 21 22  1  0
 21 19  1  0
 23 21  2  0
M  END
$$$$
