MEA.pdb
     RDKit          3D

 23 22  0  0  1  0  0  0  0  0999 V2000
   10.3966  -14.9389  -11.4584 C   0  0  0  0  0  0  0  0  0  0  0  0
   11.4714  -13.7386  -10.6299 S   0  0  0  0  0  0  0  0  0  0  0  0
   12.8995  -13.4002  -11.6932 C   0  0  0  0  0  0  0  0  0  0  0  0
   13.8014  -12.3615  -11.0820 C   0  0  0  0  0  0  0  0  0  0  0  0
   14.9926  -12.0304  -11.9227 C   0  0  2  0  0  0  0  0  0  0  0  0
   15.8606  -13.1987  -11.9023 N   0  0  0  0  0  0  0  0  0  0  0  0
   15.7389  -10.8472  -11.4280 C   0  0  0  0  0  0  0  0  0  0  0  0
   16.6577  -10.9562  -10.5790 O   0  0  0  0  0  0  0  0  0  0  0  0
   15.4243   -9.5504  -11.9116 N   0  0  0  0  0  0  0  0  0  0  0  0
   16.1641   -8.3657  -11.4628 C   0  0  1  0  0  0  0  0  0  0  0  0
   16.7613   -7.6849  -12.6547 C   0  0  0  0  0  0  0  0  0  0  0  0
   17.5745   -6.4725  -12.3170 C   0  0  0  0  0  0  0  0  0  0  0  0
   18.0744   -5.8988  -13.5997 C   0  0  0  0  0  0  0  0  0  0  0  0
   19.2848   -5.8823  -13.9219 O   0  0  0  0  0  0  0  0  0  0  0  0
   15.3134   -7.5146  -10.6394 C   0  0  0  0  0  0  0  0  0  0  0  0
   14.1997   -7.0877  -11.0200 O   0  0  0  0  0  0  0  0  0  0  0  0
   17.1475   -5.3495  -14.4926 O   0  0  0  0  0  0  0  0  0  0  0  0
   15.6022   -6.4327   -7.0194 C   0  0  0  0  0  0  0  0  0  0  0  0
   14.9947   -6.3695   -8.4192 C   0  0  2  0  0  0  0  0  0  0  0  0
   15.7634   -7.1494   -9.3447 N   0  0  0  0  0  0  0  0  0  0  0  0
   14.9239   -4.9463   -8.7912 C   0  0  0  0  0  0  0  0  0  0  0  0
   14.0543   -4.0870   -8.1606 O   0  0  0  0  0  0  0  0  0  0  0  0
   15.6645   -4.5103   -9.6939 O   0  0  0  0  0  0  0  0  0  0  0  0
  1  2  1  0
  3  2  1  0
  4  3  1  0
  5  4  1  0
  5  7  1  0
  5  6  1  1
  7  8  2  0
  9 10  1  0
  9  7  1  0
 10 11  1  6
 11 12  1  0
 13 17  1  0
 13 12  1  0
 14 13  2  0
 15 20  1  0
 15 10  1  0
 16 15  2  0
 19 20  1  0
 19 18  1  1
 21 22  1  0
 21 19  1  0
 23 21  2  0
M  END
$$$$
