MEA.pdb
     RDKit          3D

 23 22  0  0  1  0  0  0  0  0999 V2000
   28.3794  -19.1917  -14.4105 C   0  0  0  0  0  0  0  0  0  0  0  0
   28.1938  -17.4216  -14.7493 S   0  0  0  0  0  0  0  0  0  0  0  0
   26.4284  -17.0131  -14.7773 C   0  0  0  0  0  0  0  0  0  0  0  0
   25.7379  -17.6545  -15.9510 C   0  0  0  0  0  0  0  0  0  0  0  0
   24.2649  -17.4024  -15.9930 C   0  0  2  0  0  0  0  0  0  0  0  0
   23.6134  -18.7035  -15.9544 N   0  0  0  0  0  0  0  0  0  0  0  0
   23.8381  -16.6680  -17.2096 C   0  0  0  0  0  0  0  0  0  0  0  0
   23.8686  -17.2022  -18.3456 O   0  0  0  0  0  0  0  0  0  0  0  0
   23.3804  -15.3280  -17.1118 N   0  0  0  0  0  0  0  0  0  0  0  0
   23.0128  -14.5557  -18.3036 C   0  0  1  0  0  0  0  0  0  0  0  0
   21.6011  -14.0795  -18.1583 C   0  0  0  0  0  0  0  0  0  0  0  0
   20.5917  -15.1848  -18.0893 C   0  0  0  0  0  0  0  0  0  0  0  0
   19.2498  -14.5545  -17.9283 C   0  0  0  0  0  0  0  0  0  0  0  0
   18.3561  -14.6024  -18.8048 O   0  0  0  0  0  0  0  0  0  0  0  0
   23.9883  -13.5000  -18.5484 C   0  0  0  0  0  0  0  0  0  0  0  0
   24.3919  -12.7212  -17.6552 O   0  0  0  0  0  0  0  0  0  0  0  0
   18.9695  -13.8732  -16.7385 O   0  0  0  0  0  0  0  0  0  0  0  0
   25.9995  -12.6068  -21.6425 C   0  0  0  0  0  0  0  0  0  0  0  0
   25.5111  -12.3811  -20.2131 C   0  0  2  0  0  0  0  0  0  0  0  0
   24.5084  -13.3428  -19.8586 N   0  0  0  0  0  0  0  0  0  0  0  0
   25.0232  -10.9934  -20.1416 C   0  0  0  0  0  0  0  0  0  0  0  0
   23.6780  -10.7131  -20.0773 O   0  0  0  0  0  0  0  0  0  0  0  0
   25.8424  -10.0541  -20.1393 O   0  0  0  0  0  0  0  0  0  0  0  0
  1  2  1  0
  3  2  1  0
  4  3  1  0
  5  4  1  0
  5  7  1  0
  5  6  1  6
  7  8  2  0
  9 10  1  0
  9  7  1  0
 10 11  1  1
 11 12  1  0
 13 17  1  0
 13 12  1  0
 14 13  2  0
 15 20  1  0
 15 10  1  0
 16 15  2  0
 19 20  1  0
 19 18  1  6
 21 22  1  0
 21 19  1  0
 23 21  2  0
M  END
$$$$
