MEA.pdb
     RDKit          3D

 23 22  0  0  1  0  0  0  0  0999 V2000
   28.0640  -20.8202   -4.7918 C   0  0  0  0  0  0  0  0  0  0  0  0
   28.2630  -19.0644   -5.1918 S   0  0  0  0  0  0  0  0  0  0  0  0
   27.4430  -18.7275   -6.7724 C   0  0  0  0  0  0  0  0  0  0  0  0
   27.1683  -20.0004   -7.5274 C   0  0  0  0  0  0  0  0  0  0  0  0
   25.8517  -20.0068   -8.2358 C   0  0  2  0  0  0  0  0  0  0  0  0
   25.1398  -21.1960   -7.7911 N   0  0  0  0  0  0  0  0  0  0  0  0
   25.9896  -20.0326   -9.7129 C   0  0  0  0  0  0  0  0  0  0  0  0
   27.0212  -19.6026  -10.2853 O   0  0  0  0  0  0  0  0  0  0  0  0
   24.9431  -20.5512  -10.5194 N   0  0  0  0  0  0  0  0  0  0  0  0
   25.0363  -20.5577  -11.9834 C   0  0  1  0  0  0  0  0  0  0  0  0
   25.1724  -21.9716  -12.4558 C   0  0  0  0  0  0  0  0  0  0  0  0
   26.5913  -22.4142  -12.6456 C   0  0  0  0  0  0  0  0  0  0  0  0
   26.9792  -22.0809  -14.0465 C   0  0  0  0  0  0  0  0  0  0  0  0
   27.7028  -21.1036  -14.3473 O   0  0  0  0  0  0  0  0  0  0  0  0
   23.9193  -19.8260  -12.5691 C   0  0  0  0  0  0  0  0  0  0  0  0
   22.7724  -19.8124  -12.0675 O   0  0  0  0  0  0  0  0  0  0  0  0
   26.5136  -22.8990  -15.0819 O   0  0  0  0  0  0  0  0  0  0  0  0
   23.6900  -17.6302  -15.6635 C   0  0  0  0  0  0  0  0  0  0  0  0
   23.1161  -18.3502  -14.4450 C   0  0  2  0  0  0  0  0  0  0  0  0
   24.1361  -19.0928  -13.7638 N   0  0  0  0  0  0  0  0  0  0  0  0
   22.0161  -19.2013  -14.9295 C   0  0  0  0  0  0  0  0  0  0  0  0
   20.7147  -18.7559  -14.9240 O   0  0  0  0  0  0  0  0  0  0  0  0
   22.2668  -20.3464  -15.3527 O   0  0  0  0  0  0  0  0  0  0  0  0
  1  2  1  0
  3  2  1  0
  4  3  1  0
  5  4  1  0
  5  7  1  0
  5  6  1  1
  7  8  2  0
  9 10  1  0
  9  7  1  0
 10 11  1  6
 11 12  1  0
 13 17  1  0
 13 12  1  0
 14 13  2  0
 15 20  1  0
 15 10  1  0
 16 15  2  0
 19 20  1  0
 19 18  1  6
 21 22  1  0
 21 19  1  0
 23 21  2  0
M  END
$$$$
