MEA.pdb
     RDKit          3D

 23 22  0  0  1  0  0  0  0  0999 V2000
   28.6980  -14.0807  -15.3826 C   0  0  0  0  0  0  0  0  0  0  0  0
   27.8165  -12.5270  -15.6851 S   0  0  0  0  0  0  0  0  0  0  0  0
   26.1863  -12.9049  -16.3808 C   0  0  0  0  0  0  0  0  0  0  0  0
   25.3736  -11.6534  -16.5787 C   0  0  0  0  0  0  0  0  0  0  0  0
   24.0096  -11.9047  -17.1369 C   0  0  2  0  0  0  0  0  0  0  0  0
   24.1950  -12.4325  -18.4808 N   0  0  0  0  0  0  0  0  0  0  0  0
   23.1734  -10.6804  -17.1941 C   0  0  0  0  0  0  0  0  0  0  0  0
   23.1903   -9.9176  -18.1915 O   0  0  0  0  0  0  0  0  0  0  0  0
   22.3256  -10.3425  -16.1070 N   0  0  0  0  0  0  0  0  0  0  0  0
   21.4452   -9.1703  -16.1584 C   0  0  1  0  0  0  0  0  0  0  0  0
   20.0605   -9.5845  -15.7685 C   0  0  0  0  0  0  0  0  0  0  0  0
   19.0863   -8.4487  -15.6911 C   0  0  0  0  0  0  0  0  0  0  0  0
   17.7467   -9.0295  -15.3875 C   0  0  0  0  0  0  0  0  0  0  0  0
   17.5543  -10.2512  -15.1884 O   0  0  0  0  0  0  0  0  0  0  0  0
   21.9999   -8.0803  -15.3645 C   0  0  0  0  0  0  0  0  0  0  0  0
   22.4393   -8.2353  -14.2025 O   0  0  0  0  0  0  0  0  0  0  0  0
   16.6447   -8.1697  -15.3205 O   0  0  0  0  0  0  0  0  0  0  0  0
   22.5464   -4.4051  -16.1665 C   0  0  0  0  0  0  0  0  0  0  0  0
   22.5900   -5.6342  -15.2611 C   0  0  2  0  0  0  0  0  0  0  0  0
   22.0466   -6.7802  -15.9298 N   0  0  0  0  0  0  0  0  0  0  0  0
   21.8554   -5.2872  -14.0327 C   0  0  0  0  0  0  0  0  0  0  0  0
   22.4330   -4.5168  -13.0503 O   0  0  0  0  0  0  0  0  0  0  0  0
   20.6889   -5.6980  -13.8783 O   0  0  0  0  0  0  0  0  0  0  0  0
  1  2  1  0
  3  2  1  0
  4  3  1  0
  5  4  1  0
  5  7  1  0
  5  6  1  6
  7  8  2  0
  9 10  1  0
  9  7  1  0
 10 11  1  1
 11 12  1  0
 13 17  1  0
 13 12  1  0
 14 13  2  0
 15 20  1  0
 15 10  1  0
 16 15  2  0
 19 20  1  0
 19 18  1  6
 21 22  1  0
 21 19  1  0
 23 21  2  0
M  END
$$$$
