MEA.pdb
     RDKit          3D

 23 22  0  0  1  0  0  0  0  0999 V2000
   28.0908  -12.3640  -14.9524 C   0  0  0  0  0  0  0  0  0  0  0  0
   26.9123  -13.7351  -15.0683 S   0  0  0  0  0  0  0  0  0  0  0  0
   26.2552  -13.8011  -16.7560 C   0  0  0  0  0  0  0  0  0  0  0  0
   25.4110  -12.5928  -17.0611 C   0  0  0  0  0  0  0  0  0  0  0  0
   23.9408  -12.8615  -17.0217 C   0  0  2  0  0  0  0  0  0  0  0  0
   23.6585  -13.8166  -18.0833 N   0  0  0  0  0  0  0  0  0  0  0  0
   23.1238  -11.6392  -17.2218 C   0  0  0  0  0  0  0  0  0  0  0  0
   22.9667  -11.1313  -18.3594 O   0  0  0  0  0  0  0  0  0  0  0  0
   22.4947  -11.0110  -16.1153 N   0  0  0  0  0  0  0  0  0  0  0  0
   21.6687   -9.8106  -16.2845 C   0  0  1  0  0  0  0  0  0  0  0  0
   20.2356  -10.1681  -16.0412 C   0  0  0  0  0  0  0  0  0  0  0  0
   19.2837   -9.0277  -16.2381 C   0  0  0  0  0  0  0  0  0  0  0  0
   17.9183   -9.5224  -15.8988 C   0  0  0  0  0  0  0  0  0  0  0  0
   17.0964   -9.9199  -16.7566 O   0  0  0  0  0  0  0  0  0  0  0  0
   22.1732   -8.7229  -15.4546 C   0  0  0  0  0  0  0  0  0  0  0  0
   22.4664   -8.8644  -14.2457 O   0  0  0  0  0  0  0  0  0  0  0  0
   17.5304   -9.5456  -14.5545 O   0  0  0  0  0  0  0  0  0  0  0  0
   22.9476   -5.0894  -16.2584 C   0  0  0  0  0  0  0  0  0  0  0  0
   22.8122   -6.2905  -15.3247 C   0  0  2  0  0  0  0  0  0  0  0  0
   22.3419   -7.4414  -16.0388 N   0  0  0  0  0  0  0  0  0  0  0  0
   21.9089   -5.8853  -14.2344 C   0  0  0  0  0  0  0  0  0  0  0  0
   22.3359   -5.0504  -13.2280 O   0  0  0  0  0  0  0  0  0  0  0  0
   20.7356   -6.3055  -14.2213 O   0  0  0  0  0  0  0  0  0  0  0  0
  1  2  1  0
  3  2  1  0
  4  3  1  0
  5  4  1  0
  5  7  1  0
  5  6  1  6
  7  8  2  0
  9 10  1  0
  9  7  1  0
 10 11  1  1
 11 12  1  0
 13 17  1  0
 13 12  1  0
 14 13  2  0
 15 20  1  0
 15 10  1  0
 16 15  2  0
 19 20  1  0
 19 18  1  6
 21 22  1  0
 21 19  1  0
 23 21  2  0
M  END
$$$$
