MEA.pdb
     RDKit          3D

 23 22  0  0  1  0  0  0  0  0999 V2000
   25.7662  -20.4426   -8.3156 C   0  0  0  0  0  0  0  0  0  0  0  0
   25.1670  -20.8160   -9.9841 S   0  0  0  0  0  0  0  0  0  0  0  0
   26.3766  -20.2097  -11.1898 C   0  0  0  0  0  0  0  0  0  0  0  0
   25.8130  -20.2280  -12.5854 C   0  0  0  0  0  0  0  0  0  0  0  0
   25.0178  -21.4553  -12.8963 C   0  0  2  0  0  0  0  0  0  0  0  0
   25.9726  -22.5039  -13.2248 N   0  0  0  0  0  0  0  0  0  0  0  0
   24.0788  -21.2647  -14.0292 C   0  0  0  0  0  0  0  0  0  0  0  0
   24.4541  -21.3801  -15.2219 O   0  0  0  0  0  0  0  0  0  0  0  0
   22.7183  -20.9434  -13.7834 N   0  0  0  0  0  0  0  0  0  0  0  0
   21.7544  -20.8037  -14.8804 C   0  0  1  0  0  0  0  0  0  0  0  0
   20.4299  -21.3409  -14.4355 C   0  0  0  0  0  0  0  0  0  0  0  0
   19.3510  -21.2282  -15.4692 C   0  0  0  0  0  0  0  0  0  0  0  0
   18.1268  -21.8692  -14.9084 C   0  0  0  0  0  0  0  0  0  0  0  0
   17.2431  -21.2384  -14.2834 O   0  0  0  0  0  0  0  0  0  0  0  0
   21.7222  -19.4268  -15.3591 C   0  0  0  0  0  0  0  0  0  0  0  0
   21.6045  -18.4404  -14.5972 O   0  0  0  0  0  0  0  0  0  0  0  0
   17.9514  -23.2460  -15.0868 O   0  0  0  0  0  0  0  0  0  0  0  0
   22.5531  -17.8632  -18.6689 C   0  0  0  0  0  0  0  0  0  0  0  0
   21.7874  -17.8828  -17.3475 C   0  0  2  0  0  0  0  0  0  0  0  0
   21.8288  -19.1868  -16.7530 N   0  0  0  0  0  0  0  0  0  0  0  0
   20.4167  -17.4310  -17.6404 C   0  0  0  0  0  0  0  0  0  0  0  0
   20.0727  -16.1013  -17.5640 O   0  0  0  0  0  0  0  0  0  0  0  0
   19.5507  -18.2671  -17.9636 O   0  0  0  0  0  0  0  0  0  0  0  0
  1  2  1  0
  3  2  1  0
  4  3  1  0
  5  4  1  0
  5  7  1  0
  5  6  1  6
  7  8  2  0
  9 10  1  0
  9  7  1  0
 10 11  1  1
 11 12  1  0
 13 17  1  0
 13 12  1  0
 14 13  2  0
 15 20  1  0
 15 10  1  0
 16 15  2  0
 19 20  1  0
 19 18  1  6
 21 22  1  0
 21 19  1  0
 23 21  2  0
M  END
$$$$
