MEA.pdb
     RDKit          3D

 23 22  0  0  1  0  0  0  0  0999 V2000
   28.0355  -12.1730  -14.9704 C   0  0  0  0  0  0  0  0  0  0  0  0
   28.1113  -13.9540  -15.2934 S   0  0  0  0  0  0  0  0  0  0  0  0
   26.4250  -14.6175  -15.3136 C   0  0  0  0  0  0  0  0  0  0  0  0
   25.4608  -13.6400  -15.9304 C   0  0  0  0  0  0  0  0  0  0  0  0
   24.0431  -14.1147  -15.9330 C   0  0  2  0  0  0  0  0  0  0  0  0
   24.0014  -15.3128  -16.7586 N   0  0  0  0  0  0  0  0  0  0  0  0
   23.0965  -13.1066  -16.4709 C   0  0  0  0  0  0  0  0  0  0  0  0
   22.8801  -12.9982  -17.7030 O   0  0  0  0  0  0  0  0  0  0  0  0
   22.4070  -12.2324  -15.5905 N   0  0  0  0  0  0  0  0  0  0  0  0
   21.4127  -11.2745  -16.0861 C   0  0  1  0  0  0  0  0  0  0  0  0
   20.0423  -11.7961  -15.7845 C   0  0  0  0  0  0  0  0  0  0  0  0
   18.9361  -10.8853  -16.2228 C   0  0  0  0  0  0  0  0  0  0  0  0
   17.6492  -11.5136  -15.8065 C   0  0  0  0  0  0  0  0  0  0  0  0
   16.5311  -10.9777  -15.9851 O   0  0  0  0  0  0  0  0  0  0  0  0
   21.6841   -9.9407  -15.5633 C   0  0  0  0  0  0  0  0  0  0  0  0
   21.8582   -9.7056  -14.3460 O   0  0  0  0  0  0  0  0  0  0  0  0
   17.6873  -12.7662  -15.1839 O   0  0  0  0  0  0  0  0  0  0  0  0
   22.0801   -6.5817  -17.2961 C   0  0  0  0  0  0  0  0  0  0  0  0
   21.9363   -7.4878  -16.0751 C   0  0  2  0  0  0  0  0  0  0  0  0
   21.7557   -8.8538  -16.4718 N   0  0  0  0  0  0  0  0  0  0  0  0
   20.8068   -6.9672  -15.2864 C   0  0  0  0  0  0  0  0  0  0  0  0
   19.6334   -7.6753  -15.1684 O   0  0  0  0  0  0  0  0  0  0  0  0
   20.9140   -5.8651  -14.7143 O   0  0  0  0  0  0  0  0  0  0  0  0
  1  2  1  0
  3  2  1  0
  4  3  1  0
  5  4  1  0
  5  7  1  0
  5  6  1  6
  7  8  2  0
  9 10  1  0
  9  7  1  0
 10 11  1  1
 11 12  1  0
 13 17  1  0
 13 12  1  0
 14 13  2  0
 15 20  1  0
 15 10  1  0
 16 15  2  0
 19 20  1  0
 19 18  1  6
 21 22  1  0
 21 19  1  0
 23 21  2  0
M  END
$$$$
