MEA.pdb
     RDKit          3D

 23 22  0  0  1  0  0  0  0  0999 V2000
   10.6099  -10.3728   -9.3162 C   0  0  0  0  0  0  0  0  0  0  0  0
   10.8299  -11.9163  -10.2391 S   0  0  0  0  0  0  0  0  0  0  0  0
   12.3960  -11.8368  -11.1477 C   0  0  0  0  0  0  0  0  0  0  0  0
   13.2554  -10.7028  -10.6566 C   0  0  0  0  0  0  0  0  0  0  0  0
   14.5094  -10.5127  -11.4481 C   0  0  2  0  0  0  0  0  0  0  0  0
   15.3237  -11.7010  -11.2391 N   0  0  0  0  0  0  0  0  0  0  0  0
   15.2736   -9.3079  -11.0407 C   0  0  0  0  0  0  0  0  0  0  0  0
   16.0762   -9.3326  -10.0753 O   0  0  0  0  0  0  0  0  0  0  0  0
   15.1100   -8.0861  -11.7445 N   0  0  0  0  0  0  0  0  0  0  0  0
   15.8385   -6.8742  -11.3538 C   0  0  1  0  0  0  0  0  0  0  0  0
   16.4537   -6.2621  -12.5735 C   0  0  0  0  0  0  0  0  0  0  0  0
   17.1699   -4.9726  -12.3101 C   0  0  0  0  0  0  0  0  0  0  0  0
   17.7090   -4.4872  -13.6131 C   0  0  0  0  0  0  0  0  0  0  0  0
   18.8581   -4.7625  -14.0291 O   0  0  0  0  0  0  0  0  0  0  0  0
   14.9714   -5.9796  -10.5962 C   0  0  0  0  0  0  0  0  0  0  0  0
   13.9159   -5.4935  -11.0619 O   0  0  0  0  0  0  0  0  0  0  0  0
   16.8932   -3.6824  -14.4162 O   0  0  0  0  0  0  0  0  0  0  0  0
   15.0201   -4.9226   -6.9588 C   0  0  0  0  0  0  0  0  0  0  0  0
   14.5424   -4.8141   -8.4054 C   0  0  2  0  0  0  0  0  0  0  0  0
   15.3357   -5.6402   -9.2680 N   0  0  0  0  0  0  0  0  0  0  0  0
   14.5985   -3.3880   -8.7689 C   0  0  0  0  0  0  0  0  0  0  0  0
   13.7345   -2.4753   -8.2097 O   0  0  0  0  0  0  0  0  0  0  0  0
   15.4436   -2.9988   -9.5981 O   0  0  0  0  0  0  0  0  0  0  0  0
  1  2  1  0
  3  2  1  0
  4  3  1  0
  5  4  1  0
  5  7  1  0
  5  6  1  1
  7  8  2  0
  9 10  1  0
  9  7  1  0
 10 11  1  6
 11 12  1  0
 13 17  1  0
 13 12  1  0
 14 13  2  0
 15 20  1  0
 15 10  1  0
 16 15  2  0
 19 20  1  0
 19 18  1  1
 21 22  1  0
 21 19  1  0
 23 21  2  0
M  END
$$$$
