MEA.pdb
     RDKit          3D

 23 22  0  0  1  0  0  0  0  0999 V2000
   28.9265  -13.3349  -15.0103 C   0  0  0  0  0  0  0  0  0  0  0  0
   28.1108  -11.9230  -15.7999 S   0  0  0  0  0  0  0  0  0  0  0  0
   26.3419  -12.2835  -15.9600 C   0  0  0  0  0  0  0  0  0  0  0  0
   25.6175  -11.1644  -16.6590 C   0  0  0  0  0  0  0  0  0  0  0  0
   24.1311  -11.3246  -16.6692 C   0  0  2  0  0  0  0  0  0  0  0  0
   23.8389  -12.4920  -17.4882 N   0  0  0  0  0  0  0  0  0  0  0  0
   23.4255  -10.1412  -17.2198 C   0  0  0  0  0  0  0  0  0  0  0  0
   23.1517  -10.0475  -18.4417 O   0  0  0  0  0  0  0  0  0  0  0  0
   23.0405   -9.0764  -16.3638 N   0  0  0  0  0  0  0  0  0  0  0  0
   22.1865   -7.9825  -16.8391 C   0  0  1  0  0  0  0  0  0  0  0  0
   21.3109   -7.5252  -15.7144 C   0  0  0  0  0  0  0  0  0  0  0  0
   20.2471   -8.5097  -15.3343 C   0  0  0  0  0  0  0  0  0  0  0  0
   19.4574   -7.9065  -14.2222 C   0  0  0  0  0  0  0  0  0  0  0  0
   19.7250   -8.0846  -13.0115 O   0  0  0  0  0  0  0  0  0  0  0  0
   22.9942   -6.9316  -17.4467 C   0  0  0  0  0  0  0  0  0  0  0  0
   24.0384   -6.4821  -16.9224 O   0  0  0  0  0  0  0  0  0  0  0  0
   18.3601   -7.0993  -14.5425 O   0  0  0  0  0  0  0  0  0  0  0  0
   22.6490   -5.0744  -20.7439 C   0  0  0  0  0  0  0  0  0  0  0  0
   23.2829   -5.3451  -19.3810 C   0  0  2  0  0  0  0  0  0  0  0  0
   22.5827   -6.3887  -18.6908 N   0  0  0  0  0  0  0  0  0  0  0  0
   23.2776   -4.0693  -18.6455 C   0  0  0  0  0  0  0  0  0  0  0  0
   24.0628   -3.0128  -19.0449 O   0  0  0  0  0  0  0  0  0  0  0  0
   22.5490   -3.9422  -17.6423 O   0  0  0  0  0  0  0  0  0  0  0  0
  1  2  1  0
  3  2  1  0
  4  3  1  0
  5  4  1  0
  5  7  1  0
  5  6  1  6
  7  8  2  0
  9 10  1  0
  9  7  1  0
 10 11  1  1
 11 12  1  0
 13 17  1  0
 13 12  1  0
 14 13  2  0
 15 20  1  0
 15 10  1  0
 16 15  2  0
 19 20  1  0
 19 18  1  6
 21 22  1  0
 21 19  1  0
 23 21  2  0
M  END
$$$$
