RMF.pdb
     RDKit          3D

 31 31  0  0  1  0  0  0  0  0999 V2000
   11.8274  -18.4428    1.4116 N   0  0  0  0  0  0  0  0  0  0  0  0
   11.2285  -19.6214    0.8356 C   0  0  0  0  0  0  0  0  0  0  0  0
   10.0225  -19.5320    0.4057 N   0  0  0  0  0  0  0  0  0  0  0  0
   11.9027  -20.8500    0.7244 N   0  0  0  0  0  0  0  0  0  0  0  0
   13.3124  -21.0164    1.0244 C   0  0  0  0  0  0  0  0  0  0  0  0
   13.3670  -21.4411    2.5051 C   0  0  0  0  0  0  0  0  0  0  0  0
   14.6454  -20.8987    3.0320 C   0  0  0  0  0  0  0  0  0  0  0  0
   15.8289  -21.4822    2.3395 C   0  0  2  0  0  0  0  0  0  0  0  0
   16.0713  -22.8242    2.9122 N   0  0  0  0  0  0  0  0  0  0  0  0
   17.0549  -20.6831    2.6966 C   0  0  0  0  0  0  0  0  0  0  0  0
   17.8405  -21.0391    3.6263 O   0  0  0  0  0  0  0  0  0  0  0  0
    9.5011  -20.3101   -0.0081 C   0  0  0  0  0  0  0  0  0  0  0  0
   22.0781  -19.0967   -0.8165 S   0  0  0  0  0  0  0  0  0  0  0  0
   21.6443  -17.4490   -0.1501 C   0  0  0  0  0  0  0  0  0  0  0  0
   20.6129  -17.6146    1.2897 C   0  0  0  0  0  0  0  0  0  0  0  0
   19.4261  -18.4824    1.1943 C   0  0  1  0  0  0  0  0  0  0  0  0
   18.6089  -18.7528    2.4009 N   0  0  0  0  0  0  0  0  0  0  0  0
   17.3772  -19.4940    2.0001 C   0  0  0  0  0  0  0  0  0  0  0  0
   18.0740  -17.5898    3.1342 O   0  0  0  0  0  0  0  0  0  0  0  0
   16.8907  -17.1466    2.9613 N   0  0  0  0  0  0  0  0  0  0  0  0
   18.8123  -16.8407    4.1067 C   0  0  2  0  0  0  0  0  0  0  0  0
   18.2682  -15.6239    4.7342 C   0  0  0  0  0  0  0  0  0  0  0  0
   19.1752  -15.3688    5.9183 C   0  0  0  0  0  0  0  0  0  0  0  0
   19.0279  -13.9934    6.4016 C   0  0  0  0  0  0  0  0  0  0  0  0
   17.8162  -13.3423    6.3827 C   0  0  0  0  0  0  0  0  0  0  0  0
   17.7040  -12.0327    6.8561 C   0  0  0  0  0  0  0  0  0  0  0  0
   18.8596  -11.4192    7.3437 C   0  0  0  0  0  0  0  0  0  0  0  0
   20.0733  -12.0437    7.3732 C   0  0  0  0  0  0  0  0  0  0  0  0
   20.1488  -13.3430    6.8955 C   0  0  0  0  0  0  0  0  0  0  0  0
   18.3240  -14.4826    3.8291 O   0  0  0  0  0  0  0  0  0  0  0  0
   17.6298  -13.4519    4.1377 O   0  0  0  0  0  0  0  0  0  0  0  0
  2  3  2  0
  2  1  1  0
  4  2  1  0
  5  6  1  0
  5  4  1  0
  7  8  1  0
  7  6  1  0
  8  9  1  1
 10  8  1  0
 10 17  1  0
 11 10  2  0
 13 12  1  0
 14 13  1  0
 15 14  1  0
 16 15  1  1
 16 17  1  0
 18 19  2  0
 18 16  1  0
 20 18  1  0
 21 20  1  0
 21 22  1  6
 23 22  1  0
 23 24  2  0
 24 25  1  0
 26 25  2  0
 27 26  1  0
 28 27  2  0
 28 23  1  0
 29 21  1  0
 30 29  2  0
 31 29  1  0
M  END
$$$$
