RMF.pdb
     RDKit          3D

 31 31  0  0  1  0  0  0  0  0999 V2000
   23.9242  -26.3122  -14.1065 N   0  0  0  0  0  0  0  0  0  0  0  0
   23.5504  -25.2539  -15.0119 C   0  0  0  0  0  0  0  0  0  0  0  0
   22.4971  -24.5739  -14.7373 N   0  0  0  0  0  0  0  0  0  0  0  0
   24.2838  -24.9375  -16.1688 N   0  0  0  0  0  0  0  0  0  0  0  0
   25.4458  -25.6878  -16.6068 C   0  0  0  0  0  0  0  0  0  0  0  0
   26.6519  -24.7672  -16.3356 C   0  0  0  0  0  0  0  0  0  0  0  0
   26.6483  -23.7662  -17.4330 C   0  0  0  0  0  0  0  0  0  0  0  0
   27.8138  -22.8413  -17.3510 C   0  0  2  0  0  0  0  0  0  0  0  0
   29.0314  -23.6630  -17.1782 N   0  0  0  0  0  0  0  0  0  0  0  0
   27.7134  -22.0295  -16.0860 C   0  0  0  0  0  0  0  0  0  0  0  0
   28.5646  -22.1350  -15.1518 O   0  0  0  0  0  0  0  0  0  0  0  0
   22.0971  -23.8607  -15.3535 C   0  0  0  0  0  0  0  0  0  0  0  0
   25.7675  -15.8108  -16.2911 S   0  0  0  0  0  0  0  0  0  0  0  0
   27.3958  -16.4347  -16.8449 C   0  0  0  0  0  0  0  0  0  0  0  0
   27.6968  -18.0569  -16.1802 C   0  0  0  0  0  0  0  0  0  0  0  0
   26.5964  -18.7266  -15.4650 C   0  0  2  0  0  0  0  0  0  0  0  0
   26.8161  -20.0565  -14.8489 N   0  0  0  0  0  0  0  0  0  0  0  0
   26.6544  -21.1107  -15.8928 C   0  0  0  0  0  0  0  0  0  0  0  0
   25.8735  -20.4824  -13.7969 O   0  0  0  0  0  0  0  0  0  0  0  0
   24.8950  -21.2689  -14.0208 N   0  0  0  0  0  0  0  0  0  0  0  0
   25.9514  -20.0664  -12.4282 C   0  0  1  0  0  0  0  0  0  0  0  0
   24.8781  -20.3549  -11.4612 C   0  0  0  0  0  0  0  0  0  0  0  0
   25.3461  -19.7156  -10.1720 C   0  0  0  0  0  0  0  0  0  0  0  0
   26.4858  -20.4463   -9.6111 C   0  0  0  0  0  0  0  0  0  0  0  0
   27.5426  -20.8546  -10.3914 C   0  0  0  0  0  0  0  0  0  0  0  0
   28.6191  -21.5441   -9.8281 C   0  0  0  0  0  0  0  0  0  0  0  0
   28.5782  -21.7987   -8.4559 C   0  0  0  0  0  0  0  0  0  0  0  0
   27.5414  -21.4041   -7.6601 C   0  0  0  0  0  0  0  0  0  0  0  0
   26.4894  -20.7222   -8.2520 C   0  0  0  0  0  0  0  0  0  0  0  0
   23.6141  -19.7527  -11.8671 O   0  0  0  0  0  0  0  0  0  0  0  0
   23.6679  -18.7512  -12.6632 O   0  0  0  0  0  0  0  0  0  0  0  0
  2  3  2  0
  2  1  1  0
  4  2  1  0
  5  6  1  0
  5  4  1  0
  7  8  1  0
  7  6  1  0
  8  9  1  1
 10  8  1  0
 10 17  1  0
 11 10  2  0
 13 12  1  0
 14 13  1  0
 15 14  1  0
 16 15  1  6
 16 17  1  0
 18 19  2  0
 18 16  1  0
 20 18  1  0
 21 20  1  0
 21 22  1  1
 23 22  1  0
 23 24  2  0
 24 25  1  0
 26 25  2  0
 27 26  1  0
 28 27  2  0
 28 23  1  0
 29 21  1  0
 30 29  2  0
 31 29  1  0
M  END
$$$$
