RMF.pdb
     RDKit          3D

 31 31  0  0  1  0  0  0  0  0999 V2000
   27.7266  -21.0439  -17.3767 N   0  0  0  0  0  0  0  0  0  0  0  0
   28.3742  -19.7557  -17.3518 C   0  0  0  0  0  0  0  0  0  0  0  0
   28.7560  -19.2548  -18.4701 N   0  0  0  0  0  0  0  0  0  0  0  0
   28.6007  -19.0321  -16.1680 N   0  0  0  0  0  0  0  0  0  0  0  0
   28.2114  -19.5096  -14.8544 C   0  0  0  0  0  0  0  0  0  0  0  0
   26.9136  -18.7514  -14.5127 C   0  0  0  0  0  0  0  0  0  0  0  0
   26.3306  -19.4589  -13.3442 C   0  0  0  0  0  0  0  0  0  0  0  0
   27.2510  -20.4984  -12.8027 C   0  0  2  0  0  0  0  0  0  0  0  0
   27.0720  -21.7249  -13.6095 N   0  0  0  0  0  0  0  0  0  0  0  0
   26.8046  -20.8804  -11.4155 C   0  0  0  0  0  0  0  0  0  0  0  0
   25.9210  -21.7680  -11.2157 O   0  0  0  0  0  0  0  0  0  0  0  0
   29.1682  -18.3229  -18.5712 C   0  0  0  0  0  0  0  0  0  0  0  0
   27.5888  -20.7994   -3.6592 S   0  0  0  0  0  0  0  0  0  0  0  0
   28.3494  -20.5904   -5.3100 C   0  0  0  0  0  0  0  0  0  0  0  0
   27.1457  -19.9942   -6.4760 C   0  0  0  0  0  0  0  0  0  0  0  0
   27.5492  -19.8773   -7.8882 C   0  0  1  0  0  0  0  0  0  0  0  0
   26.7505  -20.5449   -8.9432 N   0  0  0  0  0  0  0  0  0  0  0  0
   27.3610  -20.2560  -10.2739 C   0  0  0  0  0  0  0  0  0  0  0  0
   25.3522  -20.1074   -9.1162 O   0  0  0  0  0  0  0  0  0  0  0  0
   25.0373  -18.9498   -9.5489 N   0  0  0  0  0  0  0  0  0  0  0  0
   24.2106  -20.9213   -8.8223 C   0  0  1  0  0  0  0  0  0  0  0  0
   22.8379  -20.4823   -9.1279 C   0  0  0  0  0  0  0  0  0  0  0  0
   22.7796  -20.4413  -10.6394 C   0  0  0  0  0  0  0  0  0  0  0  0
   21.4477  -20.0392  -11.0994 C   0  0  0  0  0  0  0  0  0  0  0  0
   20.9849  -18.7524  -10.9496 C   0  0  0  0  0  0  0  0  0  0  0  0
   19.7128  -18.3958  -11.4037 C   0  0  0  0  0  0  0  0  0  0  0  0
   18.9396  -19.3883  -12.0091 C   0  0  0  0  0  0  0  0  0  0  0  0
   19.3759  -20.6720  -12.1697 C   0  0  0  0  0  0  0  0  0  0  0  0
   20.6432  -20.9914  -11.7073 C   0  0  0  0  0  0  0  0  0  0  0  0
   21.8484  -21.4312   -8.6325 O   0  0  0  0  0  0  0  0  0  0  0  0
   22.2479  -22.6218   -8.3823 O   0  0  0  0  0  0  0  0  0  0  0  0
  2  3  2  0
  2  1  1  0
  4  2  1  0
  5  6  1  0
  5  4  1  0
  7  8  1  0
  7  6  1  0
  8  9  1  6
 10  8  1  0
 10 17  1  0
 11 10  2  0
 13 12  1  0
 14 13  1  0
 15 14  1  0
 16 15  1  1
 16 17  1  0
 18 19  2  0
 18 16  1  0
 20 18  1  0
 21 20  1  0
 21 22  1  1
 23 22  1  0
 23 24  2  0
 24 25  1  0
 26 25  2  0
 27 26  1  0
 28 27  2  0
 28 23  1  0
 29 21  1  0
 30 29  2  0
 31 29  1  0
M  END
$$$$
