RMF.pdb
     RDKit          3D

 31 31  0  0  1  0  0  0  0  0999 V2000
   22.5956  -20.3889  -17.2461 N   0  0  0  0  0  0  0  0  0  0  0  0
   23.3280  -19.1625  -17.0488 C   0  0  0  0  0  0  0  0  0  0  0  0
   23.8515  -18.6044  -18.0792 N   0  0  0  0  0  0  0  0  0  0  0  0
   23.4893  -18.5577  -15.7900 N   0  0  0  0  0  0  0  0  0  0  0  0
   22.8183  -19.0216  -14.5902 C   0  0  0  0  0  0  0  0  0  0  0  0
   23.6867  -20.1786  -14.0583 C   0  0  0  0  0  0  0  0  0  0  0  0
   23.8501  -19.9230  -12.6043 C   0  0  0  0  0  0  0  0  0  0  0  0
   25.2419  -20.1874  -12.1423 C   0  0  2  0  0  0  0  0  0  0  0  0
   25.8166  -21.2341  -13.0150 N   0  0  0  0  0  0  0  0  0  0  0  0
   25.1983  -20.8095  -10.7710 C   0  0  0  0  0  0  0  0  0  0  0  0
   25.0217  -22.0543  -10.6043 O   0  0  0  0  0  0  0  0  0  0  0  0
   24.4213  -17.7543  -18.0446 C   0  0  0  0  0  0  0  0  0  0  0  0
   27.7590  -19.3791   -4.5186 S   0  0  0  0  0  0  0  0  0  0  0  0
   28.4215  -18.9097   -6.1581 C   0  0  0  0  0  0  0  0  0  0  0  0
   27.5288  -19.7456   -7.4498 C   0  0  0  0  0  0  0  0  0  0  0  0
   26.0714  -19.8985   -7.2964 C   0  0  2  0  0  0  0  0  0  0  0  0
   25.3042  -20.6987   -8.2801 N   0  0  0  0  0  0  0  0  0  0  0  0
   25.3544  -20.0189   -9.6076 C   0  0  0  0  0  0  0  0  0  0  0  0
   23.8571  -20.8610   -8.0435 O   0  0  0  0  0  0  0  0  0  0  0  0
   22.9999  -19.9708   -8.3581 N   0  0  0  0  0  0  0  0  0  0  0  0
   23.2630  -22.0184   -7.4437 C   0  0  1  0  0  0  0  0  0  0  0  0
   21.8207  -22.0956   -7.1539 C   0  0  0  0  0  0  0  0  0  0  0  0
   21.5224  -23.5781   -7.1013 C   0  0  0  0  0  0  0  0  0  0  0  0
   20.1090  -23.8154   -6.7957 C   0  0  0  0  0  0  0  0  0  0  0  0
   19.6762  -24.0779   -5.5166 C   0  0  0  0  0  0  0  0  0  0  0  0
   18.3212  -24.2940   -5.2536 C   0  0  0  0  0  0  0  0  0  0  0  0
   17.4348  -24.2330   -6.3307 C   0  0  0  0  0  0  0  0  0  0  0  0
   17.8392  -23.9742   -7.6088 C   0  0  0  0  0  0  0  0  0  0  0  0
   19.1910  -23.7649   -7.8340 C   0  0  0  0  0  0  0  0  0  0  0  0
   21.4992  -21.4928   -5.8661 O   0  0  0  0  0  0  0  0  0  0  0  0
   20.2882  -21.1231   -5.6750 O   0  0  0  0  0  0  0  0  0  0  0  0
  2  3  2  0
  2  1  1  0
  4  2  1  0
  5  6  1  0
  5  4  1  0
  7  8  1  0
  7  6  1  0
  8  9  1  6
 10  8  1  0
 10 17  1  0
 11 10  2  0
 13 12  1  0
 14 13  1  0
 15 14  1  0
 16 15  1  6
 16 17  1  0
 18 19  2  0
 18 16  1  0
 20 18  1  0
 21 20  1  0
 21 22  1  1
 23 22  1  0
 23 24  2  0
 24 25  1  0
 26 25  2  0
 27 26  1  0
 28 27  2  0
 28 23  1  0
 29 21  1  0
 30 29  2  0
 31 29  1  0
M  END
$$$$
