RMF.pdb
     RDKit          3D

 31 31  0  0  1  0  0  0  0  0999 V2000
   18.0053  -15.3419  -19.0438 N   0  0  0  0  0  0  0  0  0  0  0  0
   17.9061  -15.5375  -17.6186 C   0  0  0  0  0  0  0  0  0  0  0  0
   17.8134  -16.7414  -17.1835 N   0  0  0  0  0  0  0  0  0  0  0  0
   17.9087  -14.4772  -16.6954 N   0  0  0  0  0  0  0  0  0  0  0  0
   17.1721  -13.2434  -16.8955 C   0  0  0  0  0  0  0  0  0  0  0  0
   17.5769  -12.3313  -15.7207 C   0  0  0  0  0  0  0  0  0  0  0  0
   16.3080  -11.9618  -15.0430 C   0  0  0  0  0  0  0  0  0  0  0  0
   16.1266  -10.4850  -14.9610 C   0  0  2  0  0  0  0  0  0  0  0  0
   16.8443   -9.8774  -16.1026 N   0  0  0  0  0  0  0  0  0  0  0  0
   16.8373   -9.9662  -13.7382 C   0  0  0  0  0  0  0  0  0  0  0  0
   16.5575  -10.3812  -12.5729 O   0  0  0  0  0  0  0  0  0  0  0  0
   17.8244  -16.9961  -16.1918 C   0  0  0  0  0  0  0  0  0  0  0  0
   23.5174  -10.7028  -13.8646 S   0  0  0  0  0  0  0  0  0  0  0  0
   22.6051   -9.1447  -13.5694 C   0  0  0  0  0  0  0  0  0  0  0  0
   20.9102   -9.4882  -13.1530 C   0  0  0  0  0  0  0  0  0  0  0  0
   20.0054   -8.3455  -12.9379 C   0  0  2  0  0  0  0  0  0  0  0  0
   18.5800   -8.5827  -12.6082 N   0  0  0  0  0  0  0  0  0  0  0  0
   17.8531   -8.9869  -13.8473 C   0  0  0  0  0  0  0  0  0  0  0  0
   17.7944   -7.4327  -12.1214 O   0  0  0  0  0  0  0  0  0  0  0  0
   17.3674   -6.5102  -12.8914 N   0  0  0  0  0  0  0  0  0  0  0  0
   17.4295   -7.2277  -10.7514 C   0  0  1  0  0  0  0  0  0  0  0  0
   16.7967   -5.9802  -10.2892 C   0  0  0  0  0  0  0  0  0  0  0  0
   15.3375   -6.1347  -10.6586 C   0  0  0  0  0  0  0  0  0  0  0  0
   14.7137   -7.2096   -9.8824 C   0  0  0  0  0  0  0  0  0  0  0  0
   14.1939   -6.9923   -8.6273 C   0  0  0  0  0  0  0  0  0  0  0  0
   13.5990   -8.0350   -7.9127 C   0  0  0  0  0  0  0  0  0  0  0  0
   13.5543   -9.2922   -8.5183 C   0  0  0  0  0  0  0  0  0  0  0  0
   14.0628   -9.5334   -9.7622 C   0  0  0  0  0  0  0  0  0  0  0  0
   14.6463   -8.4762  -10.4432 C   0  0  0  0  0  0  0  0  0  0  0  0
   16.9145   -5.8220   -8.8448 O   0  0  0  0  0  0  0  0  0  0  0  0
   17.6070   -6.6932   -8.2116 O   0  0  0  0  0  0  0  0  0  0  0  0
  2  3  2  0
  2  1  1  0
  4  2  1  0
  5  6  1  0
  5  4  1  0
  7  8  1  0
  7  6  1  0
  8  9  1  6
 10  8  1  0
 10 17  1  0
 11 10  2  0
 13 12  1  0
 14 13  1  0
 15 14  1  0
 16 15  1  1
 16 17  1  0
 18 19  2  0
 18 16  1  0
 20 18  1  0
 21 20  1  0
 21 22  1  1
 23 22  1  0
 23 24  2  0
 24 25  1  0
 26 25  2  0
 27 26  1  0
 28 27  2  0
 28 23  1  0
 29 21  1  0
 30 29  2  0
 31 29  1  0
M  END
$$$$
