RMF.pdb
     RDKit          3D

 31 31  0  0  1  0  0  0  0  0999 V2000
   31.5566  -23.9024  -15.1520 N   0  0  0  0  0  0  0  0  0  0  0  0
   31.3553  -24.4971  -16.4502 C   0  0  0  0  0  0  0  0  0  0  0  0
   31.8406  -25.6674  -16.6554 N   0  0  0  0  0  0  0  0  0  0  0  0
   30.6561  -23.8572  -17.4885 N   0  0  0  0  0  0  0  0  0  0  0  0
   29.9095  -22.6265  -17.3075 C   0  0  0  0  0  0  0  0  0  0  0  0
   29.3607  -22.6901  -15.8686 C   0  0  0  0  0  0  0  0  0  0  0  0
   28.5367  -21.4661  -15.6982 C   0  0  0  0  0  0  0  0  0  0  0  0
   27.0771  -21.7642  -15.7348 C   0  0  2  0  0  0  0  0  0  0  0  0
   26.5360  -21.2184  -16.9986 N   0  0  0  0  0  0  0  0  0  0  0  0
   26.3849  -20.9821  -14.6492 C   0  0  0  0  0  0  0  0  0  0  0  0
   25.7369  -19.9204  -14.8962 O   0  0  0  0  0  0  0  0  0  0  0  0
   31.8365  -26.1396  -17.5639 C   0  0  0  0  0  0  0  0  0  0  0  0
   21.1242  -21.2067  -13.6411 S   0  0  0  0  0  0  0  0  0  0  0  0
   21.4597  -21.0836  -11.8468 C   0  0  0  0  0  0  0  0  0  0  0  0
   23.1441  -20.5869  -11.5639 C   0  0  0  0  0  0  0  0  0  0  0  0
   24.1702  -21.0465  -12.5161 C   0  0  1  0  0  0  0  0  0  0  0  0
   25.5921  -20.6878  -12.3012 N   0  0  0  0  0  0  0  0  0  0  0  0
   26.4337  -21.4088  -13.3007 C   0  0  0  0  0  0  0  0  0  0  0  0
   26.2025  -21.0705  -11.0138 O   0  0  0  0  0  0  0  0  0  0  0  0
   26.4001  -22.2839  -10.6747 N   0  0  0  0  0  0  0  0  0  0  0  0
   26.6346  -20.1366  -10.0171 C   0  0  2  0  0  0  0  0  0  0  0  0
   27.0473  -20.5662   -8.6698 C   0  0  0  0  0  0  0  0  0  0  0  0
   27.8266  -19.3920   -8.1186 C   0  0  0  0  0  0  0  0  0  0  0  0
   28.1861  -19.6167   -6.7159 C   0  0  0  0  0  0  0  0  0  0  0  0
   29.3011  -20.3385   -6.3581 C   0  0  0  0  0  0  0  0  0  0  0  0
   29.6230  -20.5313   -5.0124 C   0  0  0  0  0  0  0  0  0  0  0  0
   28.7756  -19.9673   -4.0567 C   0  0  0  0  0  0  0  0  0  0  0  0
   27.6636  -19.2470   -4.3860 C   0  0  0  0  0  0  0  0  0  0  0  0
   27.3738  -19.0753   -5.7308 C   0  0  0  0  0  0  0  0  0  0  0  0
   25.8965  -20.8260   -7.8135 O   0  0  0  0  0  0  0  0  0  0  0  0
   24.8379  -20.1372   -8.0248 O   0  0  0  0  0  0  0  0  0  0  0  0
  2  3  2  0
  2  1  1  0
  4  2  1  0
  5  6  1  0
  5  4  1  0
  7  8  1  0
  7  6  1  0
  8  9  1  6
 10  8  1  0
 10 17  1  0
 11 10  2  0
 13 12  1  0
 14 13  1  0
 15 14  1  0
 16 15  1  6
 16 17  1  0
 18 19  2  0
 18 16  1  0
 20 18  1  0
 21 20  1  0
 21 22  1  1
 23 22  1  0
 23 24  2  0
 24 25  1  0
 26 25  2  0
 27 26  1  0
 28 27  2  0
 28 23  1  0
 29 21  1  0
 30 29  2  0
 31 29  1  0
M  END
$$$$
