RMF.pdb
     RDKit          3D

 31 31  0  0  1  0  0  0  0  0999 V2000
   29.4517  -24.4992  -16.3368 N   0  0  0  0  0  0  0  0  0  0  0  0
   28.7503  -23.7370  -17.3401 C   0  0  0  0  0  0  0  0  0  0  0  0
   28.8233  -24.1375  -18.5573 N   0  0  0  0  0  0  0  0  0  0  0  0
   27.9965  -22.5877  -17.0445 N   0  0  0  0  0  0  0  0  0  0  0  0
   27.7042  -22.1514  -15.6920 C   0  0  0  0  0  0  0  0  0  0  0  0
   28.8836  -21.2430  -15.2925 C   0  0  0  0  0  0  0  0  0  0  0  0
   28.3030  -20.1914  -14.4190 C   0  0  0  0  0  0  0  0  0  0  0  0
   26.8131  -20.2032  -14.4432 C   0  0  2  0  0  0  0  0  0  0  0  0
   26.3676  -19.1366  -15.3660 N   0  0  0  0  0  0  0  0  0  0  0  0
   26.2929  -19.7866  -13.0921 C   0  0  0  0  0  0  0  0  0  0  0  0
   26.2863  -18.5741  -12.7205 O   0  0  0  0  0  0  0  0  0  0  0  0
   28.3718  -23.6649  -19.3454 C   0  0  0  0  0  0  0  0  0  0  0  0
   20.6877  -21.0252  -10.7102 S   0  0  0  0  0  0  0  0  0  0  0  0
   21.2173  -19.6539  -11.7994 C   0  0  0  0  0  0  0  0  0  0  0  0
   22.9925  -19.5817  -11.8865 C   0  0  0  0  0  0  0  0  0  0  0  0
   23.7656  -20.3590  -10.9021 C   0  0  2  0  0  0  0  0  0  0  0  0
   25.2441  -20.2587  -10.8774 N   0  0  0  0  0  0  0  0  0  0  0  0
   25.7880  -20.7434  -12.1798 C   0  0  0  0  0  0  0  0  0  0  0  0
   25.9648  -21.0825   -9.8882 O   0  0  0  0  0  0  0  0  0  0  0  0
   26.2543  -22.3084  -10.0874 N   0  0  0  0  0  0  0  0  0  0  0  0
   26.4126  -20.6047   -8.6141 C   0  0  1  0  0  0  0  0  0  0  0  0
   26.8368  -21.5203   -7.5408 C   0  0  0  0  0  0  0  0  0  0  0  0
   28.2835  -21.1593   -7.2830 C   0  0  0  0  0  0  0  0  0  0  0  0
   28.3898  -20.1598   -6.2167 C   0  0  0  0  0  0  0  0  0  0  0  0
   28.7913  -20.4945   -4.9442 C   0  0  0  0  0  0  0  0  0  0  0  0
   28.8898  -19.5191   -3.9489 C   0  0  0  0  0  0  0  0  0  0  0  0
   28.5675  -18.2055   -4.2955 C   0  0  0  0  0  0  0  0  0  0  0  0
   28.1667  -17.8479   -5.5506 C   0  0  0  0  0  0  0  0  0  0  0  0
   28.0798  -18.8411   -6.5140 C   0  0  0  0  0  0  0  0  0  0  0  0
   26.0635  -21.3136   -6.3225 O   0  0  0  0  0  0  0  0  0  0  0  0
   25.2085  -20.3604   -6.3223 O   0  0  0  0  0  0  0  0  0  0  0  0
  2  3  2  0
  2  1  1  0
  4  2  1  0
  5  6  1  0
  5  4  1  0
  7  8  1  0
  7  6  1  0
  8  9  1  6
 10  8  1  0
 10 17  1  0
 11 10  2  0
 13 12  1  0
 14 13  1  0
 15 14  1  0
 16 15  1  6
 16 17  1  0
 18 19  2  0
 18 16  1  0
 20 18  1  0
 21 20  1  0
 21 22  1  1
 23 22  1  0
 23 24  2  0
 24 25  1  0
 26 25  2  0
 27 26  1  0
 28 27  2  0
 28 23  1  0
 29 21  1  0
 30 29  2  0
 31 29  1  0
M  END
$$$$
