RMF.pdb
     RDKit          3D

 31 31  0  0  1  0  0  0  0  0999 V2000
   36.6947   -9.6964   -5.1125 N   0  0  0  0  0  0  0  0  0  0  0  0
   37.3008   -8.7935   -6.0595 C   0  0  0  0  0  0  0  0  0  0  0  0
   36.6172   -7.7761   -6.4401 N   0  0  0  0  0  0  0  0  0  0  0  0
   38.5952   -8.9772   -6.5763 N   0  0  0  0  0  0  0  0  0  0  0  0
   39.4180  -10.1336   -6.2748 C   0  0  0  0  0  0  0  0  0  0  0  0
   40.7983   -9.8230   -6.8863 C   0  0  0  0  0  0  0  0  0  0  0  0
   41.6254  -11.0332   -6.6471 C   0  0  0  0  0  0  0  0  0  0  0  0
   43.0089  -10.8800   -7.1794 C   0  0  2  0  0  0  0  0  0  0  0  0
   42.9314  -10.9160   -8.6560 N   0  0  0  0  0  0  0  0  0  0  0  0
   43.8200  -12.0933   -6.8059 C   0  0  0  0  0  0  0  0  0  0  0  0
   44.0388  -12.4078   -5.5969 O   0  0  0  0  0  0  0  0  0  0  0  0
   36.9628   -7.0613   -7.0867 C   0  0  0  0  0  0  0  0  0  0  0  0
   41.8704  -17.9876   -9.7355 S   0  0  0  0  0  0  0  0  0  0  0  0
   43.4966  -17.1543   -9.8251 C   0  0  0  0  0  0  0  0  0  0  0  0
   43.6697  -15.9881   -8.4932 C   0  0  0  0  0  0  0  0  0  0  0  0
   44.9208  -15.2144   -8.4093 C   0  0  2  0  0  0  0  0  0  0  0  0
   45.0785  -14.1745   -7.3651 N   0  0  0  0  0  0  0  0  0  0  0  0
   44.3727  -12.9340   -7.8011 C   0  0  0  0  0  0  0  0  0  0  0  0
   46.4456  -13.6976   -7.0817 O   0  0  0  0  0  0  0  0  0  0  0  0
   47.0219  -12.7956   -7.7748 N   0  0  0  0  0  0  0  0  0  0  0  0
   47.2648  -14.1870   -6.0132 C   0  0  2  0  0  0  0  0  0  0  0  0
   48.6349  -13.6939   -5.7897 C   0  0  0  0  0  0  0  0  0  0  0  0
   48.8675  -13.8774   -4.3058 C   0  0  0  0  0  0  0  0  0  0  0  0
   50.2146  -13.4392   -3.9307 C   0  0  0  0  0  0  0  0  0  0  0  0
   50.5046  -12.1189   -3.6758 C   0  0  0  0  0  0  0  0  0  0  0  0
   51.7969  -11.7307   -3.3138 C   0  0  0  0  0  0  0  0  0  0  0  0
   52.7706  -12.7273   -3.2225 C   0  0  0  0  0  0  0  0  0  0  0  0
   52.5082  -14.0440   -3.4703 C   0  0  0  0  0  0  0  0  0  0  0  0
   51.2151  -14.3940   -3.8273 C   0  0  0  0  0  0  0  0  0  0  0  0
   49.6148  -14.4773   -6.5321 O   0  0  0  0  0  0  0  0  0  0  0  0
   49.3244  -15.6991   -6.7822 O   0  0  0  0  0  0  0  0  0  0  0  0
  2  3  2  0
  2  1  1  0
  4  2  1  0
  5  6  1  0
  5  4  1  0
  7  8  1  0
  7  6  1  0
  8  9  1  6
 10  8  1  0
 10 17  1  0
 11 10  2  0
 13 12  1  0
 14 13  1  0
 15 14  1  0
 16 15  1  1
 16 17  1  0
 18 19  2  0
 18 16  1  0
 20 18  1  0
 21 20  1  0
 21 22  1  6
 23 22  1  0
 23 24  2  0
 24 25  1  0
 26 25  2  0
 27 26  1  0
 28 27  2  0
 28 23  1  0
 29 21  1  0
 30 29  2  0
 31 29  1  0
M  END
$$$$
