RMF.pdb
     RDKit          3D

 31 31  0  0  1  0  0  0  0  0999 V2000
   30.5348  -22.7868  -17.0087 N   0  0  0  0  0  0  0  0  0  0  0  0
   29.6364  -22.2747  -18.0137 C   0  0  0  0  0  0  0  0  0  0  0  0
   29.6910  -22.7927  -19.1868 N   0  0  0  0  0  0  0  0  0  0  0  0
   28.7122  -21.2449  -17.7654 N   0  0  0  0  0  0  0  0  0  0  0  0
   28.6225  -20.5416  -16.4997 C   0  0  0  0  0  0  0  0  0  0  0  0
   28.4972  -21.6431  -15.4288 C   0  0  0  0  0  0  0  0  0  0  0  0
   27.0405  -21.8080  -15.1903 C   0  0  0  0  0  0  0  0  0  0  0  0
   26.4531  -20.6362  -14.4813 C   0  0  2  0  0  0  0  0  0  0  0  0
   27.5464  -19.6780  -14.2093 N   0  0  0  0  0  0  0  0  0  0  0  0
   25.9732  -21.0705  -13.1210 C   0  0  0  0  0  0  0  0  0  0  0  0
   25.1844  -22.0519  -12.9696 O   0  0  0  0  0  0  0  0  0  0  0  0
   29.0777  -22.5250  -19.9619 C   0  0  0  0  0  0  0  0  0  0  0  0
   28.8006  -20.1395   -6.9105 S   0  0  0  0  0  0  0  0  0  0  0  0
   27.0644  -19.5642   -6.8685 C   0  0  0  0  0  0  0  0  0  0  0  0
   26.1179  -20.3560   -8.1495 C   0  0  0  0  0  0  0  0  0  0  0  0
   26.5682  -20.1941   -9.5430 C   0  0  1  0  0  0  0  0  0  0  0  0
   25.7831  -20.7931  -10.6482 N   0  0  0  0  0  0  0  0  0  0  0  0
   26.3897  -20.3916  -11.9512 C   0  0  0  0  0  0  0  0  0  0  0  0
   24.3772  -20.3692  -10.7906 O   0  0  0  0  0  0  0  0  0  0  0  0
   24.0374  -19.1598  -11.0100 N   0  0  0  0  0  0  0  0  0  0  0  0
   23.2550  -21.2550  -10.7000 C   0  0  1  0  0  0  0  0  0  0  0  0
   21.8721  -20.7571  -10.6005 C   0  0  0  0  0  0  0  0  0  0  0  0
   21.1912  -21.2740  -11.8490 C   0  0  0  0  0  0  0  0  0  0  0  0
   21.4407  -20.3838  -12.9859 C   0  0  0  0  0  0  0  0  0  0  0  0
   22.4770  -20.5998  -13.8644 C   0  0  0  0  0  0  0  0  0  0  0  0
   22.6872  -19.7379  -14.9436 C   0  0  0  0  0  0  0  0  0  0  0  0
   21.8115  -18.6605  -15.0918 C   0  0  0  0  0  0  0  0  0  0  0  0
   20.7759  -18.4246  -14.2340 C   0  0  0  0  0  0  0  0  0  0  0  0
   20.5965  -19.2996  -13.1738 C   0  0  0  0  0  0  0  0  0  0  0  0
   21.1934  -21.2896   -9.4253 O   0  0  0  0  0  0  0  0  0  0  0  0
   20.0049  -20.8736   -9.1929 O   0  0  0  0  0  0  0  0  0  0  0  0
  2  3  2  0
  2  1  1  0
  4  2  1  0
  5  6  1  0
  5  4  1  0
  7  8  1  0
  7  6  1  0
  8  9  1  1
 10  8  1  0
 10 17  1  0
 11 10  2  0
 13 12  1  0
 14 13  1  0
 15 14  1  0
 16 15  1  1
 16 17  1  0
 18 19  2  0
 18 16  1  0
 20 18  1  0
 21 20  1  0
 21 22  1  1
 23 22  1  0
 23 24  2  0
 24 25  1  0
 26 25  2  0
 27 26  1  0
 28 27  2  0
 28 23  1  0
 29 21  1  0
 30 29  2  0
 31 29  1  0
M  END
$$$$
