RMF.pdb
     RDKit          3D

 31 31  0  0  1  0  0  0  0  0999 V2000
   25.4791  -23.0200  -17.0920 N   0  0  0  0  0  0  0  0  0  0  0  0
   25.5192  -21.7302  -17.7356 C   0  0  0  0  0  0  0  0  0  0  0  0
   24.5913  -21.4508  -18.5771 N   0  0  0  0  0  0  0  0  0  0  0  0
   26.5195  -20.7754  -17.4818 N   0  0  0  0  0  0  0  0  0  0  0  0
   27.3976  -20.8274  -16.3281 C   0  0  0  0  0  0  0  0  0  0  0  0
   27.0397  -19.5866  -15.4866 C   0  0  0  0  0  0  0  0  0  0  0  0
   26.5110  -20.1113  -14.2016 C   0  0  0  0  0  0  0  0  0  0  0  0
   27.5865  -20.6920  -13.3491 C   0  0  2  0  0  0  0  0  0  0  0  0
   28.0400  -21.9473  -13.9864 N   0  0  0  0  0  0  0  0  0  0  0  0
   26.9962  -21.1199  -12.0308 C   0  0  0  0  0  0  0  0  0  0  0  0
   26.5013  -22.2751  -11.8608 O   0  0  0  0  0  0  0  0  0  0  0  0
   24.5178  -20.5598  -19.0763 C   0  0  0  0  0  0  0  0  0  0  0  0
   27.3375  -20.4089   -4.2112 S   0  0  0  0  0  0  0  0  0  0  0  0
   28.0015  -19.9880   -5.8632 C   0  0  0  0  0  0  0  0  0  0  0  0
   26.9537  -20.6496   -7.1394 C   0  0  0  0  0  0  0  0  0  0  0  0
   27.3604  -20.4496   -8.5413 C   0  0  1  0  0  0  0  0  0  0  0  0
   26.4045  -20.7375   -9.6367 N   0  0  0  0  0  0  0  0  0  0  0  0
   26.9724  -20.2388  -10.9236 C   0  0  0  0  0  0  0  0  0  0  0  0
   25.0852  -20.0798   -9.5779 O   0  0  0  0  0  0  0  0  0  0  0  0
   24.9436  -18.8126   -9.5541 N   0  0  0  0  0  0  0  0  0  0  0  0
   23.8361  -20.7802   -9.5417 C   0  0  1  0  0  0  0  0  0  0  0  0
   22.6862  -20.3711  -10.3668 C   0  0  0  0  0  0  0  0  0  0  0  0
   23.1830  -20.4803  -11.7919 C   0  0  0  0  0  0  0  0  0  0  0  0
   22.1202  -20.1421  -12.7423 C   0  0  0  0  0  0  0  0  0  0  0  0
   21.6633  -18.8533  -12.8932 C   0  0  0  0  0  0  0  0  0  0  0  0
   20.6529  -18.5590  -13.8120 C   0  0  0  0  0  0  0  0  0  0  0  0
   20.1323  -19.6151  -14.5624 C   0  0  0  0  0  0  0  0  0  0  0  0
   20.5686  -20.9022  -14.4314 C   0  0  0  0  0  0  0  0  0  0  0  0
   21.5723  -21.1588  -13.5101 C   0  0  0  0  0  0  0  0  0  0  0  0
   21.5490  -21.2643  -10.1826 O   0  0  0  0  0  0  0  0  0  0  0  0
   21.7999  -22.5051   -9.9901 O   0  0  0  0  0  0  0  0  0  0  0  0
  2  3  2  0
  2  1  1  0
  4  2  1  0
  5  6  1  0
  5  4  1  0
  7  8  1  0
  7  6  1  0
  8  9  1  6
 10  8  1  0
 10 17  1  0
 11 10  2  0
 13 12  1  0
 14 13  1  0
 15 14  1  0
 16 15  1  6
 16 17  1  0
 18 19  2  0
 18 16  1  0
 20 18  1  0
 21 20  1  0
 21 22  1  1
 23 22  1  0
 23 24  2  0
 24 25  1  0
 26 25  2  0
 27 26  1  0
 28 27  2  0
 28 23  1  0
 29 21  1  0
 30 29  2  0
 31 29  1  0
M  END
$$$$
