RMF.pdb
     RDKit          3D

 31 31  0  0  1  0  0  0  0  0999 V2000
   30.6781  -22.5087  -17.5270 N   0  0  0  0  0  0  0  0  0  0  0  0
   29.9996  -21.7448  -18.5446 C   0  0  0  0  0  0  0  0  0  0  0  0
   30.5271  -21.7020  -19.7139 N   0  0  0  0  0  0  0  0  0  0  0  0
   28.7971  -21.0541  -18.3134 N   0  0  0  0  0  0  0  0  0  0  0  0
   28.2916  -20.7545  -16.9869 C   0  0  0  0  0  0  0  0  0  0  0  0
   28.6711  -21.9719  -16.1210 C   0  0  0  0  0  0  0  0  0  0  0  0
   27.4671  -22.2768  -15.3065 C   0  0  0  0  0  0  0  0  0  0  0  0
   26.8947  -21.0548  -14.6743 C   0  0  2  0  0  0  0  0  0  0  0  0
   28.0160  -20.2650  -14.1206 N   0  0  0  0  0  0  0  0  0  0  0  0
   26.0757  -21.4553  -13.4751 C   0  0  0  0  0  0  0  0  0  0  0  0
   25.1547  -22.3238  -13.5514 O   0  0  0  0  0  0  0  0  0  0  0  0
   30.0765  -21.2827  -20.5322 C   0  0  0  0  0  0  0  0  0  0  0  0
   26.8461  -20.2220   -6.7925 S   0  0  0  0  0  0  0  0  0  0  0  0
   28.0444  -20.9979   -7.9367 C   0  0  0  0  0  0  0  0  0  0  0  0
   27.2256  -21.5326   -9.4226 C   0  0  0  0  0  0  0  0  0  0  0  0
   25.9764  -20.8527   -9.8071 C   0  0  2  0  0  0  0  0  0  0  0  0
   25.3384  -21.1590  -11.1094 N   0  0  0  0  0  0  0  0  0  0  0  0
   26.3072  -20.8705  -12.2073 C   0  0  0  0  0  0  0  0  0  0  0  0
   24.1561  -20.3633  -11.4909 O   0  0  0  0  0  0  0  0  0  0  0  0
   24.2417  -19.2088  -12.0260 N   0  0  0  0  0  0  0  0  0  0  0  0
   22.8018  -20.7920  -11.3058 C   0  0  1  0  0  0  0  0  0  0  0  0
   21.6989  -20.2794  -12.1372 C   0  0  0  0  0  0  0  0  0  0  0  0
   22.1069  -20.6109  -13.5562 C   0  0  0  0  0  0  0  0  0  0  0  0
   21.0689  -20.2026  -14.5064 C   0  0  0  0  0  0  0  0  0  0  0  0
   20.2984  -21.1216  -15.1804 C   0  0  0  0  0  0  0  0  0  0  0  0
   19.3112  -20.7032  -16.0760 C   0  0  0  0  0  0  0  0  0  0  0  0
   19.1411  -19.3291  -16.2564 C   0  0  0  0  0  0  0  0  0  0  0  0
   19.8925  -18.3973  -15.5998 C   0  0  0  0  0  0  0  0  0  0  0  0
   20.8633  -18.8475  -14.7185 C   0  0  0  0  0  0  0  0  0  0  0  0
   20.4399  -20.9464  -11.8289 O   0  0  0  0  0  0  0  0  0  0  0  0
   20.4734  -22.2139  -11.6504 O   0  0  0  0  0  0  0  0  0  0  0  0
  2  3  2  0
  2  1  1  0
  4  2  1  0
  5  6  1  0
  5  4  1  0
  7  8  1  0
  7  6  1  0
  8  9  1  1
 10  8  1  0
 10 17  1  0
 11 10  2  0
 13 12  1  0
 14 13  1  0
 15 14  1  0
 16 15  1  1
 16 17  1  0
 18 19  2  0
 18 16  1  0
 20 18  1  0
 21 20  1  0
 21 22  1  1
 23 22  1  0
 23 24  2  0
 24 25  1  0
 26 25  2  0
 27 26  1  0
 28 27  2  0
 28 23  1  0
 29 21  1  0
 30 29  2  0
 31 29  1  0
M  END
$$$$
