RMF.pdb
     RDKit          3D

 31 31  0  0  1  0  0  0  0  0999 V2000
   26.2493  -21.3701  -20.7702 N   0  0  0  0  0  0  0  0  0  0  0  0
   25.2920  -20.3586  -21.1440 C   0  0  0  0  0  0  0  0  0  0  0  0
   25.0739  -20.1725  -22.3950 N   0  0  0  0  0  0  0  0  0  0  0  0
   24.5936  -19.5776  -20.2066 N   0  0  0  0  0  0  0  0  0  0  0  0
   24.7988  -19.6778  -18.7738 C   0  0  0  0  0  0  0  0  0  0  0  0
   26.2369  -19.1787  -18.5317 C   0  0  0  0  0  0  0  0  0  0  0  0
   26.7730  -20.0169  -17.4290 C   0  0  0  0  0  0  0  0  0  0  0  0
   26.1031  -19.7282  -16.1296 C   0  0  2  0  0  0  0  0  0  0  0  0
   26.6337  -18.4438  -15.6232 N   0  0  0  0  0  0  0  0  0  0  0  0
   26.5345  -20.7519  -15.1121 C   0  0  0  0  0  0  0  0  0  0  0  0
   26.4845  -21.9966  -15.3500 O   0  0  0  0  0  0  0  0  0  0  0  0
   24.4057  -19.4912  -22.7664 C   0  0  0  0  0  0  0  0  0  0  0  0
   31.0901  -19.5456  -10.6794 S   0  0  0  0  0  0  0  0  0  0  0  0
   30.9000  -21.3597  -10.5381 C   0  0  0  0  0  0  0  0  0  0  0  0
   29.3465  -21.8762  -11.2338 C   0  0  0  0  0  0  0  0  0  0  0  0
   28.7188  -21.0082  -12.2454 C   0  0  1  0  0  0  0  0  0  0  0  0
   27.4490  -21.4211  -12.8886 N   0  0  0  0  0  0  0  0  0  0  0  0
   27.0160  -20.3570  -13.8412 C   0  0  0  0  0  0  0  0  0  0  0  0
   26.2695  -21.5890  -12.0184 O   0  0  0  0  0  0  0  0  0  0  0  0
   25.9983  -22.6839  -11.4233 N   0  0  0  0  0  0  0  0  0  0  0  0
   25.3128  -20.5574  -11.7491 C   0  0  1  0  0  0  0  0  0  0  0  0
   24.0810  -20.8141  -10.9830 C   0  0  0  0  0  0  0  0  0  0  0  0
   23.9679  -19.6366  -10.0394 C   0  0  0  0  0  0  0  0  0  0  0  0
   24.8594  -19.8029   -8.8884 C   0  0  0  0  0  0  0  0  0  0  0  0
   24.6969  -20.8278   -7.9854 C   0  0  0  0  0  0  0  0  0  0  0  0
   25.5663  -20.9656   -6.9005 C   0  0  0  0  0  0  0  0  0  0  0  0
   26.5953  -20.0305   -6.7725 C   0  0  0  0  0  0  0  0  0  0  0  0
   26.7777  -19.0048   -7.6549 C   0  0  0  0  0  0  0  0  0  0  0  0
   25.8965  -18.8977   -8.7198 C   0  0  0  0  0  0  0  0  0  0  0  0
   22.9089  -20.8526  -11.8489 O   0  0  0  0  0  0  0  0  0  0  0  0
   21.7694  -21.0226  -11.2901 O   0  0  0  0  0  0  0  0  0  0  0  0
  2  3  2  0
  2  1  1  0
  4  2  1  0
  5  6  1  0
  5  4  1  0
  7  8  1  0
  7  6  1  0
  8  9  1  1
 10  8  1  0
 10 17  1  0
 11 10  2  0
 13 12  1  0
 14 13  1  0
 15 14  1  0
 16 15  1  6
 16 17  1  0
 18 19  2  0
 18 16  1  0
 20 18  1  0
 21 20  1  0
 21 22  1  1
 23 22  1  0
 23 24  2  0
 24 25  1  0
 26 25  2  0
 27 26  1  0
 28 27  2  0
 28 23  1  0
 29 21  1  0
 30 29  2  0
 31 29  1  0
M  END
$$$$
