RMF.pdb
     RDKit          3D

 31 31  0  0  1  0  0  0  0  0999 V2000
   28.0455  -15.1508  -18.4717 N   0  0  0  0  0  0  0  0  0  0  0  0
   28.4608  -16.4376  -18.9728 C   0  0  0  0  0  0  0  0  0  0  0  0
   29.3669  -16.4632  -19.8815 N   0  0  0  0  0  0  0  0  0  0  0  0
   27.9230  -17.6519  -18.5118 N   0  0  0  0  0  0  0  0  0  0  0  0
   26.8725  -17.7315  -17.5143 C   0  0  0  0  0  0  0  0  0  0  0  0
   27.5969  -17.6877  -16.1545 C   0  0  0  0  0  0  0  0  0  0  0  0
   26.8723  -18.6468  -15.2820 C   0  0  0  0  0  0  0  0  0  0  0  0
   27.8041  -19.5363  -14.5328 C   0  0  2  0  0  0  0  0  0  0  0  0
   28.3972  -20.4860  -15.4992 N   0  0  0  0  0  0  0  0  0  0  0  0
   27.0113  -20.3964  -13.5836 C   0  0  0  0  0  0  0  0  0  0  0  0
   26.4074  -21.4422  -13.9709 O   0  0  0  0  0  0  0  0  0  0  0  0
   29.7707  -17.3221  -20.2658 C   0  0  0  0  0  0  0  0  0  0  0  0
   26.4695  -19.1911   -6.9758 S   0  0  0  0  0  0  0  0  0  0  0  0
   25.9901  -20.9454   -7.1751 C   0  0  0  0  0  0  0  0  0  0  0  0
   25.5471  -21.2787   -8.8654 C   0  0  0  0  0  0  0  0  0  0  0  0
   26.3516  -20.6508   -9.9281 C   0  0  1  0  0  0  0  0  0  0  0  0
   26.0092  -20.8851  -11.3509 N   0  0  0  0  0  0  0  0  0  0  0  0
   26.9109  -20.0645  -12.2115 C   0  0  0  0  0  0  0  0  0  0  0  0
   24.6628  -20.4834  -11.8010 O   0  0  0  0  0  0  0  0  0  0  0  0
   24.2754  -19.2687  -11.8275 N   0  0  0  0  0  0  0  0  0  0  0  0
   23.6569  -21.3985  -12.2514 C   0  0  1  0  0  0  0  0  0  0  0  0
   22.3266  -20.9435  -12.6915 C   0  0  0  0  0  0  0  0  0  0  0  0
   22.2450  -21.3571  -14.1447 C   0  0  0  0  0  0  0  0  0  0  0  0
   22.4984  -22.7927  -14.2936 C   0  0  0  0  0  0  0  0  0  0  0  0
   23.7727  -23.2972  -14.4127 C   0  0  0  0  0  0  0  0  0  0  0  0
   23.9848  -24.6715  -14.5469 C   0  0  0  0  0  0  0  0  0  0  0  0
   22.8625  -25.5021  -14.5550 C   0  0  0  0  0  0  0  0  0  0  0  0
   21.5881  -25.0262  -14.4384 C   0  0  0  0  0  0  0  0  0  0  0  0
   21.4140  -23.6572  -14.3070 C   0  0  0  0  0  0  0  0  0  0  0  0
   21.2609  -21.5983  -11.9429 O   0  0  0  0  0  0  0  0  0  0  0  0
   21.5999  -22.5143  -11.1149 O   0  0  0  0  0  0  0  0  0  0  0  0
  2  3  2  0
  2  1  1  0
  4  2  1  0
  5  6  1  0
  5  4  1  0
  7  8  1  0
  7  6  1  0
  8  9  1  6
 10  8  1  0
 10 17  1  0
 11 10  2  0
 13 12  1  0
 14 13  1  0
 15 14  1  0
 16 15  1  6
 16 17  1  0
 18 19  2  0
 18 16  1  0
 20 18  1  0
 21 20  1  0
 21 22  1  1
 23 22  1  0
 23 24  2  0
 24 25  1  0
 26 25  2  0
 27 26  1  0
 28 27  2  0
 28 23  1  0
 29 21  1  0
 30 29  2  0
 31 29  1  0
M  END
$$$$
