RMF.pdb
     RDKit          3D

 31 31  0  0  1  0  0  0  0  0999 V2000
   11.0876  -18.8478   -3.2021 N   0  0  0  0  0  0  0  0  0  0  0  0
    9.7545  -18.2982   -3.1902 C   0  0  0  0  0  0  0  0  0  0  0  0
    9.3125  -17.7732   -4.2748 N   0  0  0  0  0  0  0  0  0  0  0  0
    8.9266  -18.3146   -2.0540 N   0  0  0  0  0  0  0  0  0  0  0  0
    9.3314  -18.8788   -0.7801 C   0  0  0  0  0  0  0  0  0  0  0  0
   10.1204  -17.7607   -0.0708 C   0  0  0  0  0  0  0  0  0  0  0  0
   10.5587  -18.3382    1.2254 C   0  0  0  0  0  0  0  0  0  0  0  0
   11.3542  -17.3684    2.0300 C   0  0  2  0  0  0  0  0  0  0  0  0
   11.3997  -16.0922    1.2837 N   0  0  0  0  0  0  0  0  0  0  0  0
   12.7864  -17.8319    2.0894 C   0  0  0  0  0  0  0  0  0  0  0  0
   13.7043  -17.2614    1.4258 O   0  0  0  0  0  0  0  0  0  0  0  0
    8.3870  -17.3459   -4.3704 C   0  0  0  0  0  0  0  0  0  0  0  0
   18.6468  -20.1779    6.6078 S   0  0  0  0  0  0  0  0  0  0  0  0
   16.9686  -19.4832    6.3879 C   0  0  0  0  0  0  0  0  0  0  0  0
   16.4495  -19.6409    4.6939 C   0  0  0  0  0  0  0  0  0  0  0  0
   15.0521  -19.3098    4.3649 C   0  0  2  0  0  0  0  0  0  0  0  0
   14.6062  -19.3061    2.9514 N   0  0  0  0  0  0  0  0  0  0  0  0
   13.1625  -18.9322    2.8961 C   0  0  0  0  0  0  0  0  0  0  0  0
   14.6463  -20.5883    2.2227 O   0  0  0  0  0  0  0  0  0  0  0  0
   15.7213  -21.2517    2.0472 N   0  0  0  0  0  0  0  0  0  0  0  0
   13.5005  -21.2209    1.6404 C   0  0  1  0  0  0  0  0  0  0  0  0
   13.5838  -22.5361    0.9821 C   0  0  0  0  0  0  0  0  0  0  0  0
   12.1616  -23.0531    0.9846 C   0  0  0  0  0  0  0  0  0  0  0  0
   11.8043  -23.5909    2.3000 C   0  0  0  0  0  0  0  0  0  0  0  0
   12.5923  -24.5155    2.9456 C   0  0  0  0  0  0  0  0  0  0  0  0
   12.2299  -25.0062    4.2025 C   0  0  0  0  0  0  0  0  0  0  0  0
   11.0484  -24.5246    4.7696 C   0  0  0  0  0  0  0  0  0  0  0  0
   10.2495  -23.6074    4.1495 C   0  0  0  0  0  0  0  0  0  0  0  0
   10.6390  -23.1419    2.9031 C   0  0  0  0  0  0  0  0  0  0  0  0
   14.0520  -22.4190   -0.3934 O   0  0  0  0  0  0  0  0  0  0  0  0
   14.3557  -21.2484   -0.8143 O   0  0  0  0  0  0  0  0  0  0  0  0
  2  3  2  0
  2  1  1  0
  4  2  1  0
  5  6  1  0
  5  4  1  0
  7  8  1  0
  7  6  1  0
  8  9  1  6
 10  8  1  0
 10 17  1  0
 11 10  2  0
 13 12  1  0
 14 13  1  0
 15 14  1  0
 16 15  1  6
 16 17  1  0
 18 19  2  0
 18 16  1  0
 20 18  1  0
 21 20  1  0
 21 22  1  6
 23 22  1  0
 23 24  2  0
 24 25  1  0
 26 25  2  0
 27 26  1  0
 28 27  2  0
 28 23  1  0
 29 21  1  0
 30 29  2  0
 31 29  1  0
M  END
$$$$
