HSI.pdb
     RDKit          3D

 25 25  0  0  1  0  0  0  0  0999 V2000
   19.5596  -20.7309  -13.4903 N   0  0  0  0  0  0  0  0  0  0  0  0
   20.7762  -19.9814  -13.3859 C   0  0  1  0  0  0  0  0  0  0  0  0
   20.4950  -18.8046  -12.4449 C   0  0  0  0  0  0  0  0  0  0  0  0
   19.5862  -17.8816  -13.1735 C   0  0  0  0  0  0  0  0  0  0  0  0
   19.8100  -17.2318  -14.3944 C   0  0  0  0  0  0  0  0  0  0  0  0
   18.7383  -16.4923  -14.6966 N   0  0  0  0  0  0  0  0  0  0  0  0
   17.8365  -16.6409  -13.7202 C   0  0  0  0  0  0  0  0  0  0  0  0
   18.3580  -17.4833  -12.8027 N   0  0  0  0  0  0  0  0  0  0  0  0
   21.9019  -20.8048  -12.8683 C   0  0  0  0  0  0  0  0  0  0  0  0
   21.7819  -21.4298  -11.7838 O   0  0  0  0  0  0  0  0  0  0  0  0
   25.4693  -21.7112  -14.9804 O   0  0  0  0  0  0  0  0  0  0  0  0
   24.7546  -22.5953  -14.1658 C   0  0  0  0  0  0  0  0  0  0  0  0
   24.1645  -21.7818  -13.0407 C   0  0  2  0  0  0  0  0  0  0  0  0
   23.1377  -20.9239  -13.5553 N   0  0  0  0  0  0  0  0  0  0  0  0
   25.1988  -21.0412  -12.2793 C   0  0  0  0  0  0  0  0  0  0  0  0
   25.2193  -19.7924  -12.4283 O   0  0  0  0  0  0  0  0  0  0  0  0
   26.1237  -20.6963   -7.1329 C   0  0  0  0  0  0  0  0  0  0  0  0
   26.1444  -20.4618   -8.6025 C   0  0  0  0  0  0  0  0  0  0  0  0
   27.2827  -21.0468   -9.3595 C   0  0  2  0  0  0  0  0  0  0  0  0
   28.6111  -20.8262   -8.6643 C   0  0  0  0  0  0  0  0  0  0  0  0
   27.2835  -20.9098  -10.8263 C   0  0  2  0  0  0  0  0  0  0  0  0
   26.1337  -21.6255  -11.4242 N   0  0  0  0  0  0  0  0  0  0  0  0
   28.5094  -21.1997  -11.5613 C   0  0  0  0  0  0  0  0  0  0  0  0
   29.5025  -20.4386  -11.6351 O   0  0  0  0  0  0  0  0  0  0  0  0
   28.6824  -22.4121  -12.2785 O   0  0  0  0  0  0  0  0  0  0  0  0
  2  3  1  0
  2  1  1  1
  4  8  1  0
  4  3  1  0
  5  4  2  0
  6  5  1  0
  6  7  1  0
  7  8  2  0
  9  2  1  0
 10  9  2  0
 11 12  1  0
 13 12  1  6
 13 14  1  0
 14  9  1  0
 15 13  1  0
 15 22  1  0
 16 15  2  0
 18 17  1  0
 19 18  1  0
 19 20  1  1
 21 22  1  6
 21 23  1  0
 21 19  1  0
 23 25  1  0
 24 23  2  0
M  END
$$$$
