HSI.pdb
     RDKit          3D

 25 25  0  0  1  0  0  0  0  0999 V2000
   27.1948  -10.3663  -19.3242 N   0  0  0  0  0  0  0  0  0  0  0  0
   26.8780   -9.6750  -18.1099 C   0  0  1  0  0  0  0  0  0  0  0  0
   27.5968   -8.3223  -18.1669 C   0  0  0  0  0  0  0  0  0  0  0  0
   29.0542   -8.6099  -18.1199 C   0  0  0  0  0  0  0  0  0  0  0  0
   30.0067   -8.4197  -19.1295 C   0  0  0  0  0  0  0  0  0  0  0  0
   31.2036   -8.8063  -18.6769 N   0  0  0  0  0  0  0  0  0  0  0  0
   31.0581   -9.2366  -17.4190 C   0  0  0  0  0  0  0  0  0  0  0  0
   29.7542   -9.1141  -17.0901 N   0  0  0  0  0  0  0  0  0  0  0  0
   25.4131   -9.4796  -17.9393 C   0  0  0  0  0  0  0  0  0  0  0  0
   24.6991   -9.1579  -18.9230 O   0  0  0  0  0  0  0  0  0  0  0  0
   23.4648   -9.9016  -14.2951 O   0  0  0  0  0  0  0  0  0  0  0  0
   22.8187  -10.3367  -15.4567 C   0  0  0  0  0  0  0  0  0  0  0  0
   23.3403   -9.4954  -16.5951 C   0  0  2  0  0  0  0  0  0  0  0  0
   24.7633   -9.6423  -16.6885 N   0  0  0  0  0  0  0  0  0  0  0  0
   22.9186   -8.0783  -16.4865 C   0  0  0  0  0  0  0  0  0  0  0  0
   23.7229   -7.2947  -15.9198 O   0  0  0  0  0  0  0  0  0  0  0  0
   19.9091   -5.1562  -20.3756 C   0  0  0  0  0  0  0  0  0  0  0  0
   20.0442   -5.8745  -19.0790 C   0  0  0  0  0  0  0  0  0  0  0  0
   21.2447   -5.5606  -18.2597 C   0  0  2  0  0  0  0  0  0  0  0  0
   22.5207   -5.5771  -19.0772 C   0  0  0  0  0  0  0  0  0  0  0  0
   21.3299   -6.1353  -16.9059 C   0  0  2  0  0  0  0  0  0  0  0  0
   21.7116   -7.5647  -16.9620 N   0  0  0  0  0  0  0  0  0  0  0  0
   20.2185   -5.9347  -15.9831 C   0  0  0  0  0  0  0  0  0  0  0  0
   19.4420   -6.8340  -15.5838 O   0  0  0  0  0  0  0  0  0  0  0  0
   19.9160   -4.6576  -15.4430 O   0  0  0  0  0  0  0  0  0  0  0  0
  2  3  1  0
  2  1  1  6
  4  8  1  0
  4  3  1  0
  5  4  2  0
  6  5  1  0
  6  7  1  0
  7  8  2  0
  9  2  1  0
 10  9  2  0
 11 12  1  0
 13 12  1  1
 13 14  1  0
 14  9  1  0
 15 13  1  0
 15 22  1  0
 16 15  2  0
 18 17  1  0
 19 18  1  0
 19 20  1  6
 21 22  1  6
 21 23  1  0
 21 19  1  0
 23 25  1  0
 24 23  2  0
M  END
$$$$
