HSI.pdb
     RDKit          3D

 25 25  0  0  1  0  0  0  0  0999 V2000
   16.5024  -11.3532  -20.1010 N   0  0  0  0  0  0  0  0  0  0  0  0
   17.5814  -11.3489  -19.1585 C   0  0  1  0  0  0  0  0  0  0  0  0
   18.5792  -12.4176  -19.6187 C   0  0  0  0  0  0  0  0  0  0  0  0
   17.9134  -13.7332  -19.4321 C   0  0  0  0  0  0  0  0  0  0  0  0
   17.8563  -14.5174  -18.2725 C   0  0  0  0  0  0  0  0  0  0  0  0
   17.1592  -15.6280  -18.5321 N   0  0  0  0  0  0  0  0  0  0  0  0
   16.7669  -15.5885  -19.8101 C   0  0  0  0  0  0  0  0  0  0  0  0
   17.2277  -14.4385  -20.3470 N   0  0  0  0  0  0  0  0  0  0  0  0
   18.2453  -10.0206  -19.0692 C   0  0  0  0  0  0  0  0  0  0  0  0
   18.5117   -9.3750  -20.1148 O   0  0  0  0  0  0  0  0  0  0  0  0
   18.6224   -5.8449  -18.1874 O   0  0  0  0  0  0  0  0  0  0  0  0
   18.0869   -7.1308  -18.3117 C   0  0  0  0  0  0  0  0  0  0  0  0
   19.1265   -8.0950  -17.7964 C   0  0  2  0  0  0  0  0  0  0  0  0
   18.6029   -9.4292  -17.8299 N   0  0  0  0  0  0  0  0  0  0  0  0
   19.6322   -7.7138  -16.4560 C   0  0  0  0  0  0  0  0  0  0  0  0
   18.8270   -7.8328  -15.4971 O   0  0  0  0  0  0  0  0  0  0  0  0
   23.1762  -10.6532  -14.9459 C   0  0  0  0  0  0  0  0  0  0  0  0
   22.1600   -9.5856  -15.1525 C   0  0  0  0  0  0  0  0  0  0  0  0
   22.4871   -8.2358  -14.6215 C   0  0  2  0  0  0  0  0  0  0  0  0
   23.1287   -8.2961  -13.2498 C   0  0  0  0  0  0  0  0  0  0  0  0
   21.5152   -7.1505  -14.8398 C   0  0  2  0  0  0  0  0  0  0  0  0
   20.9177   -7.2404  -16.1914 N   0  0  0  0  0  0  0  0  0  0  0  0
   21.9106   -5.7787  -14.5417 C   0  0  0  0  0  0  0  0  0  0  0  0
   22.3057   -4.9425  -15.3877 O   0  0  0  0  0  0  0  0  0  0  0  0
   21.8786   -5.2615  -13.2205 O   0  0  0  0  0  0  0  0  0  0  0  0
  2  3  1  0
  2  1  1  6
  4  8  1  0
  4  3  1  0
  5  4  2  0
  6  5  1  0
  6  7  1  0
  7  8  2  0
  9  2  1  0
 10  9  2  0
 11 12  1  0
 13 12  1  1
 13 14  1  0
 14  9  1  0
 15 13  1  0
 15 22  1  0
 16 15  2  0
 18 17  1  0
 19 18  1  0
 19 20  1  1
 21 22  1  6
 21 23  1  0
 21 19  1  0
 23 25  1  0
 24 23  2  0
M  END
$$$$
