HSI.pdb
     RDKit          3D

 25 25  0  0  1  0  0  0  0  0999 V2000
   24.1565  -19.1129  -17.2502 N   0  0  0  0  0  0  0  0  0  0  0  0
   24.6141  -20.3414  -16.6724 C   0  0  1  0  0  0  0  0  0  0  0  0
   23.3849  -21.2430  -16.5114 C   0  0  0  0  0  0  0  0  0  0  0  0
   22.5010  -20.5871  -15.5128 C   0  0  0  0  0  0  0  0  0  0  0  0
   22.7611  -19.4440  -14.7455 C   0  0  0  0  0  0  0  0  0  0  0  0
   21.7019  -19.1896  -13.9709 N   0  0  0  0  0  0  0  0  0  0  0  0
   20.7733  -20.1220  -14.2096 C   0  0  0  0  0  0  0  0  0  0  0  0
   21.2653  -20.9635  -15.1439 N   0  0  0  0  0  0  0  0  0  0  0  0
   25.6437  -21.0097  -17.5130 C   0  0  0  0  0  0  0  0  0  0  0  0
   25.6821  -20.7998  -18.7521 O   0  0  0  0  0  0  0  0  0  0  0  0
   29.8919  -20.9969  -18.1032 O   0  0  0  0  0  0  0  0  0  0  0  0
   28.5540  -20.7388  -17.7884 C   0  0  0  0  0  0  0  0  0  0  0  0
   27.8697  -22.0745  -17.6346 C   0  0  2  0  0  0  0  0  0  0  0  0
   26.6108  -21.8960  -16.9723 N   0  0  0  0  0  0  0  0  0  0  0  0
   28.7324  -23.0744  -16.9609 C   0  0  0  0  0  0  0  0  0  0  0  0
   29.0136  -22.8522  -15.7553 O   0  0  0  0  0  0  0  0  0  0  0  0
   27.4648  -28.2057  -18.5952 C   0  0  0  0  0  0  0  0  0  0  0  0
   28.3933  -27.0537  -18.4341 C   0  0  0  0  0  0  0  0  0  0  0  0
   28.5436  -26.4995  -17.0625 C   0  0  2  0  0  0  0  0  0  0  0  0
   27.2079  -26.2673  -16.3853 C   0  0  0  0  0  0  0  0  0  0  0  0
   29.5755  -25.4721  -16.8390 C   0  0  2  0  0  0  0  0  0  0  0  0
   29.2440  -24.2242  -17.5633 N   0  0  0  0  0  0  0  0  0  0  0  0
   30.9768  -25.8252  -17.0358 C   0  0  0  0  0  0  0  0  0  0  0  0
   31.7142  -25.3704  -17.9416 O   0  0  0  0  0  0  0  0  0  0  0  0
   31.6425  -26.7463  -16.1858 O   0  0  0  0  0  0  0  0  0  0  0  0
  2  3  1  0
  2  1  1  6
  4  8  1  0
  4  3  1  0
  5  4  2  0
  6  5  1  0
  6  7  1  0
  7  8  2  0
  9  2  1  0
 10  9  2  0
 11 12  1  0
 13 12  1  1
 13 14  1  0
 14  9  1  0
 15 13  1  0
 15 22  1  0
 16 15  2  0
 18 17  1  0
 19 18  1  0
 19 20  1  6
 21 22  1  6
 21 23  1  0
 21 19  1  0
 23 25  1  0
 24 23  2  0
M  END
$$$$
