HSI.pdb
     RDKit          3D

 25 25  0  0  1  0  0  0  0  0999 V2000
   22.2481  -20.8846  -18.4577 N   0  0  0  0  0  0  0  0  0  0  0  0
   21.8634  -21.5946  -17.2743 C   0  0  1  0  0  0  0  0  0  0  0  0
   22.4903  -22.9902  -17.3686 C   0  0  0  0  0  0  0  0  0  0  0  0
   21.4827  -23.8689  -18.0177 C   0  0  0  0  0  0  0  0  0  0  0  0
   21.2444  -24.0480  -19.3866 C   0  0  0  0  0  0  0  0  0  0  0  0
   20.2496  -24.9269  -19.5438 N   0  0  0  0  0  0  0  0  0  0  0  0
   19.8401  -25.3189  -18.3324 C   0  0  0  0  0  0  0  0  0  0  0  0
   20.5917  -24.6736  -17.4149 N   0  0  0  0  0  0  0  0  0  0  0  0
   22.3107  -20.9054  -16.0341 C   0  0  0  0  0  0  0  0  0  0  0  0
   23.3347  -20.1759  -16.0501 O   0  0  0  0  0  0  0  0  0  0  0  0
   20.3276  -21.2170  -12.3828 O   0  0  0  0  0  0  0  0  0  0  0  0
   20.8649  -19.9861  -12.7727 C   0  0  0  0  0  0  0  0  0  0  0  0
   22.0503  -20.2808  -13.6579 C   0  0  2  0  0  0  0  0  0  0  0  0
   21.6215  -21.0333  -14.8004 N   0  0  0  0  0  0  0  0  0  0  0  0
   23.1530  -20.9421  -12.9200 C   0  0  0  0  0  0  0  0  0  0  0  0
   23.1973  -22.1976  -12.9829 O   0  0  0  0  0  0  0  0  0  0  0  0
   28.2519  -20.3876  -13.5920 C   0  0  0  0  0  0  0  0  0  0  0  0
   26.8611  -20.7428  -13.1987 C   0  0  0  0  0  0  0  0  0  0  0  0
   26.5063  -20.5776  -11.7642 C   0  0  2  0  0  0  0  0  0  0  0  0
   27.6353  -20.9879  -10.8404 C   0  0  0  0  0  0  0  0  0  0  0  0
   25.1465  -20.9521  -11.3387 C   0  0  2  0  0  0  0  0  0  0  0  0
   24.1271  -20.2777  -12.1741 N   0  0  0  0  0  0  0  0  0  0  0  0
   24.7986  -20.8581   -9.9254 C   0  0  0  0  0  0  0  0  0  0  0  0
   24.1378  -19.9281   -9.4062 O   0  0  0  0  0  0  0  0  0  0  0  0
   25.1951  -21.8490   -8.9901 O   0  0  0  0  0  0  0  0  0  0  0  0
  2  3  1  0
  2  1  1  6
  4  8  1  0
  4  3  1  0
  5  4  2  0
  6  5  1  0
  6  7  1  0
  7  8  2  0
  9  2  1  0
 10  9  2  0
 11 12  1  0
 13 12  1  1
 13 14  1  0
 14  9  1  0
 15 13  1  0
 15 22  1  0
 16 15  2  0
 18 17  1  0
 19 18  1  0
 19 20  1  1
 21 22  1  6
 21 23  1  0
 21 19  1  0
 23 25  1  0
 24 23  2  0
M  END
$$$$
