HSI.pdb
     RDKit          3D

 25 25  0  0  1  0  0  0  0  0999 V2000
   22.6220  -12.7515  -20.3514 N   0  0  0  0  0  0  0  0  0  0  0  0
   21.5530  -11.8033  -20.2485 C   0  0  1  0  0  0  0  0  0  0  0  0
   20.3416  -12.5568  -19.6879 C   0  0  0  0  0  0  0  0  0  0  0  0
   19.7491  -13.3165  -20.8196 C   0  0  0  0  0  0  0  0  0  0  0  0
   19.9355  -14.6657  -21.1478 C   0  0  0  0  0  0  0  0  0  0  0  0
   19.2207  -14.9504  -22.2409 N   0  0  0  0  0  0  0  0  0  0  0  0
   18.5836  -13.8397  -22.6272 C   0  0  0  0  0  0  0  0  0  0  0  0
   18.9091  -12.8560  -21.7614 N   0  0  0  0  0  0  0  0  0  0  0  0
   21.9028  -10.6537  -19.3714 C   0  0  0  0  0  0  0  0  0  0  0  0
   22.5443  -10.8427  -18.3067 O   0  0  0  0  0  0  0  0  0  0  0  0
   20.3623   -6.7915  -19.7126 O   0  0  0  0  0  0  0  0  0  0  0  0
   21.7452   -6.9264  -19.5533 C   0  0  0  0  0  0  0  0  0  0  0  0
   21.9839   -8.2399  -18.8508 C   0  0  2  0  0  0  0  0  0  0  0  0
   21.5391   -9.3183  -19.6842 N   0  0  0  0  0  0  0  0  0  0  0  0
   21.3750   -8.2741  -17.4995 C   0  0  0  0  0  0  0  0  0  0  0  0
   20.2007   -8.7183  -17.4237 O   0  0  0  0  0  0  0  0  0  0  0  0
   23.2754  -10.9430  -13.7458 C   0  0  0  0  0  0  0  0  0  0  0  0
   22.2922  -10.1450  -14.5281 C   0  0  0  0  0  0  0  0  0  0  0  0
   22.0387   -8.7541  -14.0677 C   0  0  2  0  0  0  0  0  0  0  0  0
   21.5933   -8.6984  -12.6202 C   0  0  0  0  0  0  0  0  0  0  0  0
   21.3628   -7.8294  -14.9941 C   0  0  2  0  0  0  0  0  0  0  0  0
   22.0054   -7.8544  -16.3277 N   0  0  0  0  0  0  0  0  0  0  0  0
   21.1169   -6.4568  -14.5666 C   0  0  0  0  0  0  0  0  0  0  0  0
   20.1416   -6.0814  -13.8745 O   0  0  0  0  0  0  0  0  0  0  0  0
   21.9949   -5.3970  -14.9129 O   0  0  0  0  0  0  0  0  0  0  0  0
  2  3  1  0
  2  1  1  1
  4  8  1  0
  4  3  1  0
  5  4  2  0
  6  5  1  0
  6  7  1  0
  7  8  2  0
  9  2  1  0
 10  9  2  0
 11 12  1  0
 13 12  1  6
 13 14  1  0
 14  9  1  0
 15 13  1  0
 15 22  1  0
 16 15  2  0
 18 17  1  0
 19 18  1  0
 19 20  1  1
 21 22  1  6
 21 23  1  0
 21 19  1  0
 23 25  1  0
 24 23  2  0
M  END
$$$$
