HSI.pdb
     RDKit          3D

 25 25  0  0  1  0  0  0  0  0999 V2000
   16.0960  -11.7042  -15.6483 N   0  0  0  0  0  0  0  0  0  0  0  0
   17.4719  -11.3052  -15.6596 C   0  0  1  0  0  0  0  0  0  0  0  0
   18.1332  -12.0196  -16.8435 C   0  0  0  0  0  0  0  0  0  0  0  0
   18.1306  -13.4709  -16.5233 C   0  0  0  0  0  0  0  0  0  0  0  0
   18.7022  -14.1140  -15.4176 C   0  0  0  0  0  0  0  0  0  0  0  0
   18.4720  -15.4274  -15.5112 N   0  0  0  0  0  0  0  0  0  0  0  0
   17.7764  -15.6532  -16.6309 C   0  0  0  0  0  0  0  0  0  0  0  0
   17.5743  -14.4637  -17.2371 N   0  0  0  0  0  0  0  0  0  0  0  0
   17.6295   -9.8313  -15.7866 C   0  0  0  0  0  0  0  0  0  0  0  0
   17.4157   -9.2650  -16.8887 O   0  0  0  0  0  0  0  0  0  0  0  0
   16.8204   -7.2954  -12.9885 O   0  0  0  0  0  0  0  0  0  0  0  0
   16.9529   -6.8885  -14.3199 C   0  0  0  0  0  0  0  0  0  0  0  0
   18.1619   -7.5953  -14.8807 C   0  0  2  0  0  0  0  0  0  0  0  0
   18.0195   -9.0100  -14.6973 N   0  0  0  0  0  0  0  0  0  0  0  0
   19.4303   -7.0717  -14.3195 C   0  0  0  0  0  0  0  0  0  0  0  0
   19.8710   -7.6494  -13.2928 O   0  0  0  0  0  0  0  0  0  0  0  0
   23.6443   -7.5243  -16.7608 C   0  0  0  0  0  0  0  0  0  0  0  0
   22.7581   -7.2606  -15.5944 C   0  0  0  0  0  0  0  0  0  0  0  0
   22.5534   -5.8375  -15.2152 C   0  0  2  0  0  0  0  0  0  0  0  0
   23.8613   -5.1145  -14.9633 C   0  0  0  0  0  0  0  0  0  0  0  0
   21.4440   -5.5162  -14.3008 C   0  0  2  0  0  0  0  0  0  0  0  0
   20.1547   -6.0009  -14.8440 N   0  0  0  0  0  0  0  0  0  0  0  0
   21.3127   -4.1517  -13.8029 C   0  0  0  0  0  0  0  0  0  0  0  0
   22.0319   -3.6362  -12.9152 O   0  0  0  0  0  0  0  0  0  0  0  0
   20.3232   -3.2653  -14.3022 O   0  0  0  0  0  0  0  0  0  0  0  0
  2  3  1  0
  2  1  1  6
  4  8  1  0
  4  3  1  0
  5  4  2  0
  6  5  1  0
  6  7  1  0
  7  8  2  0
  9  2  1  0
 10  9  2  0
 11 12  1  0
 13 12  1  1
 13 14  1  0
 14  9  1  0
 15 13  1  0
 15 22  1  0
 16 15  2  0
 18 17  1  0
 19 18  1  0
 19 20  1  1
 21 22  1  6
 21 23  1  0
 21 19  1  0
 23 25  1  0
 24 23  2  0
M  END
$$$$
