HSI.pdb
     RDKit          3D

 25 25  0  0  1  0  0  0  0  0999 V2000
   45.5682   -8.8677   -6.2223 N   0  0  0  0  0  0  0  0  0  0  0  0
   44.5515   -8.7962   -7.2291 C   0  0  1  0  0  0  0  0  0  0  0  0
   43.6124   -9.9857   -6.9990 C   0  0  0  0  0  0  0  0  0  0  0  0
   44.3921  -11.2126   -7.3082 C   0  0  0  0  0  0  0  0  0  0  0  0
   44.7216  -12.2681   -6.4478 C   0  0  0  0  0  0  0  0  0  0  0  0
   45.4337  -13.1748   -7.1243 N   0  0  0  0  0  0  0  0  0  0  0  0
   45.5745  -12.7445   -8.3828 C   0  0  0  0  0  0  0  0  0  0  0  0
   44.9410  -11.5564   -8.4851 N   0  0  0  0  0  0  0  0  0  0  0  0
   43.7944   -7.5168   -7.1747 C   0  0  0  0  0  0  0  0  0  0  0  0
   44.1318   -6.6162   -6.3647 O   0  0  0  0  0  0  0  0  0  0  0  0
   42.5411   -3.6827   -8.4676 O   0  0  0  0  0  0  0  0  0  0  0  0
   43.1610   -4.9359   -8.4322 C   0  0  0  0  0  0  0  0  0  0  0  0
   42.1039   -5.9421   -8.0503 C   0  0  2  0  0  0  0  0  0  0  0  0
   42.6805   -7.2542   -8.0135 N   0  0  0  0  0  0  0  0  0  0  0  0
   40.9120   -5.8669   -8.9287 C   0  0  0  0  0  0  0  0  0  0  0  0
   41.0081   -6.4194  -10.0545 O   0  0  0  0  0  0  0  0  0  0  0  0
   37.2662   -6.3240   -5.6412 C   0  0  0  0  0  0  0  0  0  0  0  0
   37.9569   -6.6295   -6.9237 C   0  0  0  0  0  0  0  0  0  0  0  0
   37.4344   -5.9591   -8.1437 C   0  0  2  0  0  0  0  0  0  0  0  0
   36.1330   -6.5692   -8.6240 C   0  0  0  0  0  0  0  0  0  0  0  0
   38.3980   -5.5718   -9.1886 C   0  0  2  0  0  0  0  0  0  0  0  0
   39.7127   -5.2360   -8.5965 N   0  0  0  0  0  0  0  0  0  0  0  0
   38.0058   -4.5704  -10.1738 C   0  0  0  0  0  0  0  0  0  0  0  0
   38.2292   -3.3407  -10.0795 O   0  0  0  0  0  0  0  0  0  0  0  0
   37.3142   -4.9213  -11.3623 O   0  0  0  0  0  0  0  0  0  0  0  0
  2  3  1  0
  2  1  1  1
  4  8  1  0
  4  3  1  0
  5  4  2  0
  6  5  1  0
  6  7  1  0
  7  8  2  0
  9  2  1  0
 10  9  2  0
 11 12  1  0
 13 12  1  6
 13 14  1  0
 14  9  1  0
 15 13  1  0
 15 22  1  0
 16 15  2  0
 18 17  1  0
 19 18  1  0
 19 20  1  6
 21 22  1  1
 21 23  1  0
 21 19  1  0
 23 25  1  0
 24 23  2  0
M  END
$$$$
