HSI.pdb
     RDKit          3D

 25 25  0  0  1  0  0  0  0  0999 V2000
   25.6091  -17.5588  -16.4782 N   0  0  0  0  0  0  0  0  0  0  0  0
   26.3487  -17.5533  -15.2512 C   0  0  1  0  0  0  0  0  0  0  0  0
   26.3115  -16.1178  -14.7151 C   0  0  0  0  0  0  0  0  0  0  0  0
   27.0595  -15.2784  -15.6871 C   0  0  0  0  0  0  0  0  0  0  0  0
   27.6551  -15.6728  -16.8923 C   0  0  0  0  0  0  0  0  0  0  0  0
   28.2271  -14.6084  -17.4638 N   0  0  0  0  0  0  0  0  0  0  0  0
   28.0230  -13.5478  -16.6751 C   0  0  0  0  0  0  0  0  0  0  0  0
   27.3156  -13.9624  -15.6023 N   0  0  0  0  0  0  0  0  0  0  0  0
   25.7848  -18.4980  -14.2499 C   0  0  0  0  0  0  0  0  0  0  0  0
   24.5714  -18.4283  -13.9278 O   0  0  0  0  0  0  0  0  0  0  0  0
   27.3151  -22.0281  -13.6171 O   0  0  0  0  0  0  0  0  0  0  0  0
   26.0160  -21.7940  -13.1553 C   0  0  0  0  0  0  0  0  0  0  0  0
   25.9744  -20.3725  -12.6517 C   0  0  2  0  0  0  0  0  0  0  0  0
   26.5683  -19.5011  -13.6229 N   0  0  0  0  0  0  0  0  0  0  0  0
   26.5876  -20.2331  -11.3091 C   0  0  0  0  0  0  0  0  0  0  0  0
   27.8165  -20.4870  -11.2237 O   0  0  0  0  0  0  0  0  0  0  0  0
   28.2995  -18.5484   -6.9872 C   0  0  0  0  0  0  0  0  0  0  0  0
   27.8125  -19.5373   -7.9873 C   0  0  0  0  0  0  0  0  0  0  0  0
   26.4375  -20.0684   -7.7916 C   0  0  2  0  0  0  0  0  0  0  0  0
   26.2771  -20.7760   -6.4611 C   0  0  0  0  0  0  0  0  0  0  0  0
   25.7627  -20.6878   -8.9453 C   0  0  2  0  0  0  0  0  0  0  0  0
   25.9055  -19.8463  -10.1551 N   0  0  0  0  0  0  0  0  0  0  0  0
   24.3858  -21.1448   -8.7954 C   0  0  0  0  0  0  0  0  0  0  0  0
   23.9952  -21.9940   -7.9604 O   0  0  0  0  0  0  0  0  0  0  0  0
   23.3390  -20.6459   -9.6135 O   0  0  0  0  0  0  0  0  0  0  0  0
  2  3  1  0
  2  1  1  6
  4  8  1  0
  4  3  1  0
  5  4  2  0
  6  5  1  0
  6  7  1  0
  7  8  2  0
  9  2  1  0
 10  9  2  0
 11 12  1  0
 13 12  1  6
 13 14  1  0
 14  9  1  0
 15 13  1  0
 15 22  1  0
 16 15  2  0
 18 17  1  0
 19 18  1  0
 19 20  1  1
 21 22  1  6
 21 23  1  0
 21 19  1  0
 23 25  1  0
 24 23  2  0
M  END
$$$$
