HSI.pdb
     RDKit          3D

 25 25  0  0  1  0  0  0  0  0999 V2000
   27.7320  -20.5744  -16.0754 N   0  0  0  0  0  0  0  0  0  0  0  0
   27.3548  -19.9600  -14.8374 C   0  0  1  0  0  0  0  0  0  0  0  0
   26.6806  -18.6288  -15.1880 C   0  0  0  0  0  0  0  0  0  0  0  0
   27.7304  -17.7611  -15.7829 C   0  0  0  0  0  0  0  0  0  0  0  0
   29.0704  -18.0777  -16.0420 C   0  0  0  0  0  0  0  0  0  0  0  0
   29.6724  -17.0135  -16.5822 N   0  0  0  0  0  0  0  0  0  0  0  0
   28.7741  -16.0276  -16.6803 C   0  0  0  0  0  0  0  0  0  0  0  0
   27.6017  -16.4887  -16.1944 N   0  0  0  0  0  0  0  0  0  0  0  0
   26.4347  -20.8161  -14.0415 C   0  0  0  0  0  0  0  0  0  0  0  0
   25.6268  -21.5857  -14.6212 O   0  0  0  0  0  0  0  0  0  0  0  0
   25.7554  -20.0017  -10.0843 O   0  0  0  0  0  0  0  0  0  0  0  0
   25.5997  -21.3481  -10.4290 C   0  0  0  0  0  0  0  0  0  0  0  0
   25.3255  -21.3968  -11.9116 C   0  0  2  0  0  0  0  0  0  0  0  0
   26.4222  -20.8078  -12.6227 N   0  0  0  0  0  0  0  0  0  0  0  0
   24.0222  -20.7839  -12.2632 C   0  0  0  0  0  0  0  0  0  0  0  0
   23.9369  -19.5352  -12.1386 O   0  0  0  0  0  0  0  0  0  0  0  0
   22.3484  -20.2251  -16.8588 C   0  0  0  0  0  0  0  0  0  0  0  0
   22.5432  -20.2332  -15.3832 C   0  0  0  0  0  0  0  0  0  0  0  0
   21.4625  -20.8468  -14.5668 C   0  0  2  0  0  0  0  0  0  0  0  0
   20.0814  -20.5062  -15.0896 C   0  0  0  0  0  0  0  0  0  0  0  0
   21.6211  -20.8578  -13.1023 C   0  0  2  0  0  0  0  0  0  0  0  0
   22.9044  -21.4862  -12.7147 N   0  0  0  0  0  0  0  0  0  0  0  0
   20.5297  -21.3648  -12.2783 C   0  0  0  0  0  0  0  0  0  0  0  0
   20.3599  -22.5670  -11.9673 O   0  0  0  0  0  0  0  0  0  0  0  0
   19.5355  -20.5053  -11.7427 O   0  0  0  0  0  0  0  0  0  0  0  0
  2  3  1  0
  2  1  1  6
  4  8  1  0
  4  3  1  0
  5  4  2  0
  6  5  1  0
  6  7  1  0
  7  8  2  0
  9  2  1  0
 10  9  2  0
 11 12  1  0
 13 12  1  1
 13 14  1  0
 14  9  1  0
 15 13  1  0
 15 22  1  0
 16 15  2  0
 18 17  1  0
 19 18  1  0
 19 20  1  1
 21 22  1  6
 21 23  1  0
 21 19  1  0
 23 25  1  0
 24 23  2  0
M  END
$$$$
