HSI.pdb
     RDKit          3D

 25 25  0  0  1  0  0  0  0  0999 V2000
   20.0692  -15.1220  -18.9159 N   0  0  0  0  0  0  0  0  0  0  0  0
   19.2154  -13.9956  -18.6816 C   0  0  1  0  0  0  0  0  0  0  0  0
   18.3513  -14.3376  -17.4627 C   0  0  0  0  0  0  0  0  0  0  0  0
   17.4379  -15.4334  -17.8795 C   0  0  0  0  0  0  0  0  0  0  0  0
   17.3612  -16.7366  -17.3709 C   0  0  0  0  0  0  0  0  0  0  0  0
   16.4041  -17.4030  -18.0241 N   0  0  0  0  0  0  0  0  0  0  0  0
   15.8638  -16.5812  -18.9304 C   0  0  0  0  0  0  0  0  0  0  0  0
   16.4954  -15.3916  -18.8359 N   0  0  0  0  0  0  0  0  0  0  0  0
   19.9858  -12.7462  -18.4399 C   0  0  0  0  0  0  0  0  0  0  0  0
   21.0674  -12.7838  -17.7997 O   0  0  0  0  0  0  0  0  0  0  0  0
   18.5502   -8.8424  -19.0391 O   0  0  0  0  0  0  0  0  0  0  0  0
   19.8360   -9.1633  -19.4858 C   0  0  0  0  0  0  0  0  0  0  0  0
   20.3281  -10.3071  -18.6340 C   0  0  2  0  0  0  0  0  0  0  0  0
   19.5499  -11.4796  -18.9079 N   0  0  0  0  0  0  0  0  0  0  0  0
   20.3550   -9.9638  -17.1920 C   0  0  0  0  0  0  0  0  0  0  0  0
   19.4010  -10.3941  -16.4943 O   0  0  0  0  0  0  0  0  0  0  0  0
   21.4927  -10.1448  -12.0484 C   0  0  0  0  0  0  0  0  0  0  0  0
   22.5155   -9.5502  -12.9516 C   0  0  0  0  0  0  0  0  0  0  0  0
   22.3274   -9.7636  -14.4111 C   0  0  2  0  0  0  0  0  0  0  0  0
   23.6328  -10.0547  -15.1237 C   0  0  0  0  0  0  0  0  0  0  0  0
   21.3763   -8.8921  -15.1224 C   0  0  2  0  0  0  0  0  0  0  0  0
   21.3491   -9.2092  -16.5683 N   0  0  0  0  0  0  0  0  0  0  0  0
   21.4473   -7.4506  -14.9124 C   0  0  0  0  0  0  0  0  0  0  0  0
   21.2125   -6.8679  -13.8279 O   0  0  0  0  0  0  0  0  0  0  0  0
   21.8011   -6.5591  -15.9584 O   0  0  0  0  0  0  0  0  0  0  0  0
  2  3  1  0
  2  1  1  1
  4  8  1  0
  4  3  1  0
  5  4  2  0
  6  5  1  0
  6  7  1  0
  7  8  2  0
  9  2  1  0
 10  9  2  0
 11 12  1  0
 13 12  1  6
 13 14  1  0
 14  9  1  0
 15 13  1  0
 15 22  1  0
 16 15  2  0
 18 17  1  0
 19 18  1  0
 19 20  1  6
 21 22  1  6
 21 23  1  0
 21 19  1  0
 23 25  1  0
 24 23  2  0
M  END
$$$$
