HSI.pdb
     RDKit          3D

 25 25  0  0  1  0  0  0  0  0999 V2000
   14.1376  -23.0073  -11.2901 N   0  0  0  0  0  0  0  0  0  0  0  0
   14.6732  -22.4710  -10.0743 C   0  0  1  0  0  0  0  0  0  0  0  0
   14.4370  -20.9569  -10.1133 C   0  0  0  0  0  0  0  0  0  0  0  0
   15.2341  -20.4287  -11.2510 C   0  0  0  0  0  0  0  0  0  0  0  0
   16.6272  -20.4138  -11.3984 C   0  0  0  0  0  0  0  0  0  0  0  0
   16.9349  -19.8484  -12.5699 N   0  0  0  0  0  0  0  0  0  0  0  0
   15.7968  -19.5001  -13.1800 C   0  0  0  0  0  0  0  0  0  0  0  0
   14.7726  -19.8550  -12.3747 N   0  0  0  0  0  0  0  0  0  0  0  0
   14.0374  -23.0664   -8.8683 C   0  0  0  0  0  0  0  0  0  0  0  0
   12.7906  -23.2221   -8.8223 O   0  0  0  0  0  0  0  0  0  0  0  0
   14.3766  -26.3404   -7.1602 O   0  0  0  0  0  0  0  0  0  0  0  0
   13.4121  -25.3323   -7.0635 C   0  0  0  0  0  0  0  0  0  0  0  0
   14.1241  -24.0797   -6.6167 C   0  0  2  0  0  0  0  0  0  0  0  0
   14.7874  -23.4786   -7.7365 N   0  0  0  0  0  0  0  0  0  0  0  0
   15.0395  -24.3287   -5.4774 C   0  0  0  0  0  0  0  0  0  0  0  0
   16.2603  -24.4508   -5.7541 O   0  0  0  0  0  0  0  0  0  0  0  0
   14.0288  -22.0336   -0.6532 C   0  0  0  0  0  0  0  0  0  0  0  0
   14.8546  -22.5855   -1.7616 C   0  0  0  0  0  0  0  0  0  0  0  0
   15.0606  -24.0581   -1.7762 C   0  0  2  0  0  0  0  0  0  0  0  0
   15.6516  -24.5701   -0.4781 C   0  0  0  0  0  0  0  0  0  0  0  0
   15.5706  -24.6747   -3.0130 C   0  0  2  0  0  0  0  0  0  0  0  0
   14.6449  -24.4350   -4.1434 N   0  0  0  0  0  0  0  0  0  0  0  0
   15.9961  -26.0694   -2.9826 C   0  0  0  0  0  0  0  0  0  0  0  0
   17.0638  -26.4862   -2.4756 O   0  0  0  0  0  0  0  0  0  0  0  0
   15.2056  -27.1048   -3.5457 O   0  0  0  0  0  0  0  0  0  0  0  0
  2  3  1  0
  2  1  1  6
  4  8  1  0
  4  3  1  0
  5  4  2  0
  6  5  1  0
  6  7  1  0
  7  8  2  0
  9  2  1  0
 10  9  2  0
 11 12  1  0
 13 12  1  6
 13 14  1  0
 14  9  1  0
 15 13  1  0
 15 22  1  0
 16 15  2  0
 18 17  1  0
 19 18  1  0
 19 20  1  1
 21 22  1  6
 21 23  1  0
 21 19  1  0
 23 25  1  0
 24 23  2  0
M  END
$$$$
