HSI.pdb
     RDKit          3D

 25 25  0  0  1  0  0  0  0  0999 V2000
   19.4898  -13.2303  -16.7000 N   0  0  0  0  0  0  0  0  0  0  0  0
   19.7279  -11.8816  -17.1207 C   0  0  1  0  0  0  0  0  0  0  0  0
   18.3836  -11.3195  -17.5967 C   0  0  0  0  0  0  0  0  0  0  0  0
   18.0454  -12.0294  -18.8578 C   0  0  0  0  0  0  0  0  0  0  0  0
   18.1610  -11.5599  -20.1728 C   0  0  0  0  0  0  0  0  0  0  0  0
   17.7492  -12.5142  -21.0133 N   0  0  0  0  0  0  0  0  0  0  0  0
   17.3743  -13.5762  -20.2920 C   0  0  0  0  0  0  0  0  0  0  0  0
   17.5569  -13.2740  -18.9887 N   0  0  0  0  0  0  0  0  0  0  0  0
   20.2861  -11.0413  -16.0275 C   0  0  0  0  0  0  0  0  0  0  0  0
   19.8560  -11.1647  -14.8524 O   0  0  0  0  0  0  0  0  0  0  0  0
   23.9747   -9.6347  -16.0883 O   0  0  0  0  0  0  0  0  0  0  0  0
   23.2703   -9.7970  -14.8911 C   0  0  0  0  0  0  0  0  0  0  0  0
   21.8534   -9.3467  -15.1464 C   0  0  2  0  0  0  0  0  0  0  0  0
   21.3071  -10.0813  -16.2497 N   0  0  0  0  0  0  0  0  0  0  0  0
   21.7543   -7.8792  -15.3328 C   0  0  0  0  0  0  0  0  0  0  0  0
   21.9762   -7.4440  -16.4918 O   0  0  0  0  0  0  0  0  0  0  0  0
   17.7891   -4.9876  -15.6238 C   0  0  0  0  0  0  0  0  0  0  0  0
   19.2096   -5.4298  -15.6652 C   0  0  0  0  0  0  0  0  0  0  0  0
   20.0937   -4.9517  -14.5694 C   0  0  2  0  0  0  0  0  0  0  0  0
   19.9476   -3.4643  -14.3186 C   0  0  0  0  0  0  0  0  0  0  0  0
   21.4612   -5.4945  -14.4949 C   0  0  2  0  0  0  0  0  0  0  0  0
   21.4373   -6.9653  -14.3273 N   0  0  0  0  0  0  0  0  0  0  0  0
   22.4123   -4.8863  -13.5716 C   0  0  0  0  0  0  0  0  0  0  0  0
   22.6096   -5.2585  -12.3912 O   0  0  0  0  0  0  0  0  0  0  0  0
   23.2209   -3.7830  -13.9501 O   0  0  0  0  0  0  0  0  0  0  0  0
  2  3  1  0
  2  1  1  1
  4  8  1  0
  4  3  1  0
  5  4  2  0
  6  5  1  0
  6  7  1  0
  7  8  2  0
  9  2  1  0
 10  9  2  0
 11 12  1  0
 13 12  1  6
 13 14  1  0
 14  9  1  0
 15 13  1  0
 15 22  1  0
 16 15  2  0
 18 17  1  0
 19 18  1  0
 19 20  1  6
 21 22  1  1
 21 23  1  0
 21 19  1  0
 23 25  1  0
 24 23  2  0
M  END
$$$$
