HSI.pdb
     RDKit          3D

 25 25  0  0  1  0  0  0  0  0999 V2000
   22.9271  -15.6638  -18.5829 N   0  0  0  0  0  0  0  0  0  0  0  0
   21.8928  -14.6972  -18.8029 C   0  0  1  0  0  0  0  0  0  0  0  0
   20.6952  -15.1235  -17.9464 C   0  0  0  0  0  0  0  0  0  0  0  0
   20.2301  -16.4298  -18.4813 C   0  0  0  0  0  0  0  0  0  0  0  0
   19.8419  -16.7398  -19.7913 C   0  0  0  0  0  0  0  0  0  0  0  0
   19.4934  -18.0290  -19.8484 N   0  0  0  0  0  0  0  0  0  0  0  0
   19.6419  -18.5586  -18.6293 C   0  0  0  0  0  0  0  0  0  0  0  0
   20.0881  -17.5839  -17.8084 N   0  0  0  0  0  0  0  0  0  0  0  0
   22.3247  -13.3193  -18.4452 C   0  0  0  0  0  0  0  0  0  0  0  0
   22.9639  -13.1127  -17.3822 O   0  0  0  0  0  0  0  0  0  0  0  0
   20.9813   -9.8699  -20.3398 O   0  0  0  0  0  0  0  0  0  0  0  0
   22.3430   -9.9353  -20.0281 C   0  0  0  0  0  0  0  0  0  0  0  0
   22.4867  -10.8908  -18.8695 C   0  0  2  0  0  0  0  0  0  0  0  0
   22.0443  -12.1958  -19.2652 N   0  0  0  0  0  0  0  0  0  0  0  0
   21.8021  -10.4018  -17.6488 C   0  0  0  0  0  0  0  0  0  0  0  0
   20.6522  -10.8610  -17.4276 O   0  0  0  0  0  0  0  0  0  0  0  0
   23.4473  -11.2333  -13.0290 C   0  0  0  0  0  0  0  0  0  0  0  0
   22.5624  -10.8479  -14.1620 C   0  0  0  0  0  0  0  0  0  0  0  0
   22.2602   -9.4001  -14.3153 C   0  0  2  0  0  0  0  0  0  0  0  0
   21.7369   -8.7820  -13.0344 C   0  0  0  0  0  0  0  0  0  0  0  0
   21.6189   -8.9540  -15.5643 C   0  0  2  0  0  0  0  0  0  0  0  0
   22.3378   -9.4833  -16.7454 N   0  0  0  0  0  0  0  0  0  0  0  0
   21.3188   -7.5372  -15.7362 C   0  0  0  0  0  0  0  0  0  0  0  0
   20.3893   -6.9226  -15.1624 O   0  0  0  0  0  0  0  0  0  0  0  0
   22.0837   -6.7101  -16.5993 O   0  0  0  0  0  0  0  0  0  0  0  0
  2  3  1  0
  2  1  1  1
  4  8  1  0
  4  3  1  0
  5  4  2  0
  6  5  1  0
  6  7  1  0
  7  8  2  0
  9  2  1  0
 10  9  2  0
 11 12  1  0
 13 12  1  6
 13 14  1  0
 14  9  1  0
 15 13  1  0
 15 22  1  0
 16 15  2  0
 18 17  1  0
 19 18  1  0
 19 20  1  1
 21 22  1  6
 21 23  1  0
 21 19  1  0
 23 25  1  0
 24 23  2  0
M  END
$$$$
