HSI.pdb
     RDKit          3D

 25 25  0  0  1  0  0  0  0  0999 V2000
   20.2303  -13.1223  -21.2770 N   0  0  0  0  0  0  0  0  0  0  0  0
   19.4643  -11.9998  -20.8233 C   0  0  1  0  0  0  0  0  0  0  0  0
   18.3088  -12.5585  -19.9853 C   0  0  0  0  0  0  0  0  0  0  0  0
   17.3127  -13.1073  -20.9419 C   0  0  0  0  0  0  0  0  0  0  0  0
   17.1004  -14.4459  -21.2972 C   0  0  0  0  0  0  0  0  0  0  0  0
   16.1078  -14.5068  -22.1904 N   0  0  0  0  0  0  0  0  0  0  0  0
   15.6747  -13.2630  -22.4226 C   0  0  0  0  0  0  0  0  0  0  0  0
   16.4094  -12.4225  -21.6630 N   0  0  0  0  0  0  0  0  0  0  0  0
   20.2795  -11.0503  -20.0189 C   0  0  0  0  0  0  0  0  0  0  0  0
   21.2013  -11.4781  -19.2783 O   0  0  0  0  0  0  0  0  0  0  0  0
   19.4908   -6.9558  -19.6143 O   0  0  0  0  0  0  0  0  0  0  0  0
   20.8065   -7.3704  -19.8442 C   0  0  0  0  0  0  0  0  0  0  0  0
   20.9283   -8.7750  -19.3076 C   0  0  2  0  0  0  0  0  0  0  0  0
   20.0636   -9.6482  -20.0459 N   0  0  0  0  0  0  0  0  0  0  0  0
   20.6928   -8.8411  -17.8453 C   0  0  0  0  0  0  0  0  0  0  0  0
   19.5337   -9.1617  -17.4770 O   0  0  0  0  0  0  0  0  0  0  0  0
   23.9505  -11.4122  -14.6437 C   0  0  0  0  0  0  0  0  0  0  0  0
   22.7963  -10.7149  -15.2738 C   0  0  0  0  0  0  0  0  0  0  0  0
   22.4220   -9.3914  -14.7089 C   0  0  2  0  0  0  0  0  0  0  0  0
   22.3328   -9.4148  -13.1963 C   0  0  0  0  0  0  0  0  0  0  0  0
   21.3939   -8.6036  -15.4108 C   0  0  2  0  0  0  0  0  0  0  0  0
   21.6529   -8.5763  -16.8682 N   0  0  0  0  0  0  0  0  0  0  0  0
   21.0707   -7.2688  -14.9200 C   0  0  0  0  0  0  0  0  0  0  0  0
   21.5680   -6.2023  -15.3515 O   0  0  0  0  0  0  0  0  0  0  0  0
   20.1322   -7.0630  -13.8754 O   0  0  0  0  0  0  0  0  0  0  0  0
  2  3  1  0
  2  1  1  1
  4  8  1  0
  4  3  1  0
  5  4  2  0
  6  5  1  0
  6  7  1  0
  7  8  2  0
  9  2  1  0
 10  9  2  0
 11 12  1  0
 13 12  1  6
 13 14  1  0
 14  9  1  0
 15 13  1  0
 15 22  1  0
 16 15  2  0
 18 17  1  0
 19 18  1  0
 19 20  1  1
 21 22  1  6
 21 23  1  0
 21 19  1  0
 23 25  1  0
 24 23  2  0
M  END
$$$$
