VKT.pdb
     RDKit          3D

 24 23  0  0  1  0  0  0  0  0999 V2000
    6.3014  -11.6627   27.5992 C   0  0  0  0  0  0  0  0  0  0  0  0
    7.0750  -12.6215   26.7245 C   0  0  2  0  0  0  0  0  0  0  0  0
    8.0519  -11.8205   25.9179 C   0  0  0  0  0  0  0  0  0  0  0  0
    6.0849  -13.3124   25.7985 C   0  0  2  0  0  0  0  0  0  0  0  0
    5.2114  -14.1784   26.5869 N   0  0  0  0  0  0  0  0  0  0  0  0
    6.8271  -14.1308   24.7831 C   0  0  0  0  0  0  0  0  0  0  0  0
    7.0793  -15.3263   25.1381 O   0  0  0  0  0  0  0  0  0  0  0  0
    7.2143  -13.6153   23.5346 N   0  0  0  0  0  0  0  0  0  0  0  0
    7.7380  -14.4912   22.4736 C   0  0  1  0  0  0  0  0  0  0  0  0
    7.7377  -13.7331   21.1841 C   0  0  0  0  0  0  0  0  0  0  0  0
    8.3074  -14.4640   20.0155 C   0  0  0  0  0  0  0  0  0  0  0  0
    8.0897  -13.6543   18.7165 C   0  0  0  0  0  0  0  0  0  0  0  0
    8.5514  -14.4657   17.5271 C   0  0  0  0  0  0  0  0  0  0  0  0
    8.4120  -13.6557   16.3306 N   0  0  0  0  0  0  0  0  0  0  0  0
    9.0239  -15.0073   22.9249 C   0  0  0  0  0  0  0  0  0  0  0  0
    9.8124  -14.2185   23.5610 O   0  0  0  0  0  0  0  0  0  0  0  0
   11.9815  -18.6371   24.4059 C   0  0  0  0  0  0  0  0  0  0  0  0
   10.6716  -18.0760   23.9602 C   0  0  1  0  0  0  0  0  0  0  0  0
    9.7297  -18.0052   24.9793 O   0  0  0  0  0  0  0  0  0  0  0  0
   10.8206  -16.7335   23.3033 C   0  0  2  0  0  0  0  0  0  0  0  0
    9.5342  -16.3119   22.7510 N   0  0  0  0  0  0  0  0  0  0  0  0
   11.8588  -16.7893   22.2424 C   0  0  0  0  0  0  0  0  0  0  0  0
   13.1730  -16.4167   22.4773 O   0  0  0  0  0  0  0  0  0  0  0  0
   11.5774  -17.1813   21.0808 O   0  0  0  0  0  0  0  0  0  0  0  0
  2  1  1  1
  2  4  1  0
  2  3  1  0
  4  5  1  1
  6  7  2  0
  6  4  1  0
  8  6  1  0
  9 10  1  6
  9  8  1  0
 11 10  1  0
 11 12  1  0
 13 14  1  0
 13 12  1  0
 15  9  1  0
 16 15  2  0
 18 19  1  0
 18 20  1  0
 18 17  1  1
 20 21  1  6
 21 15  1  0
 22 23  1  0
 22 20  1  0
 24 22  2  0
M  END
$$$$
