VKT.pdb
     RDKit          3D

 24 23  0  0  1  0  0  0  0  0999 V2000
    7.4294  -13.3176   20.6514 C   0  0  0  0  0  0  0  0  0  0  0  0
    8.4058  -13.0701   19.5253 C   0  0  2  0  0  0  0  0  0  0  0  0
    7.9542  -11.8464   18.7870 C   0  0  0  0  0  0  0  0  0  0  0  0
    8.3663  -14.2761   18.5985 C   0  0  2  0  0  0  0  0  0  0  0  0
    7.0156  -14.4281   18.0628 N   0  0  0  0  0  0  0  0  0  0  0  0
    8.7521  -15.5115   19.3579 C   0  0  0  0  0  0  0  0  0  0  0  0
    7.7758  -16.1877   19.8143 O   0  0  0  0  0  0  0  0  0  0  0  0
   10.0910  -15.8924   19.5502 N   0  0  0  0  0  0  0  0  0  0  0  0
   10.4389  -17.1485   20.2346 C   0  0  1  0  0  0  0  0  0  0  0  0
   11.4186  -17.8983   19.3888 C   0  0  0  0  0  0  0  0  0  0  0  0
   11.9152  -19.1780   19.9722 C   0  0  0  0  0  0  0  0  0  0  0  0
   12.8794  -19.8794   18.9880 C   0  0  0  0  0  0  0  0  0  0  0  0
   13.3792  -21.1699   19.5971 C   0  0  0  0  0  0  0  0  0  0  0  0
   14.2384  -21.8351   18.6346 N   0  0  0  0  0  0  0  0  0  0  0  0
   10.8706  -16.8084   21.5843 C   0  0  0  0  0  0  0  0  0  0  0  0
   11.5808  -15.7522   21.7532 O   0  0  0  0  0  0  0  0  0  0  0  0
   10.4312  -16.8516   26.4743 C   0  0  0  0  0  0  0  0  0  0  0  0
    9.9678  -17.1595   25.0888 C   0  0  1  0  0  0  0  0  0  0  0  0
    8.8924  -16.3785   24.6835 O   0  0  0  0  0  0  0  0  0  0  0  0
   11.0789  -17.0669   24.0824 C   0  0  2  0  0  0  0  0  0  0  0  0
   10.5967  -17.5131   22.7763 N   0  0  0  0  0  0  0  0  0  0  0  0
   12.2433  -17.8779   24.5216 C   0  0  0  0  0  0  0  0  0  0  0  0
   13.4101  -17.2970   24.9933 O   0  0  0  0  0  0  0  0  0  0  0  0
   12.2099  -19.1347   24.4799 O   0  0  0  0  0  0  0  0  0  0  0  0
  2  1  1  1
  2  4  1  0
  2  3  1  0
  4  5  1  1
  6  7  2  0
  6  4  1  0
  8  6  1  0
  9 10  1  6
  9  8  1  0
 11 10  1  0
 11 12  1  0
 13 14  1  0
 13 12  1  0
 15  9  1  0
 16 15  2  0
 18 19  1  0
 18 20  1  0
 18 17  1  1
 20 21  1  6
 21 15  1  0
 22 23  1  0
 22 20  1  0
 24 22  2  0
M  END
$$$$
