VKT.pdb
     RDKit          3D

 24 23  0  0  1  0  0  0  0  0999 V2000
    6.5197  -14.6632   19.3146 C   0  0  0  0  0  0  0  0  0  0  0  0
    7.4370  -13.5050   19.6308 C   0  0  2  0  0  0  0  0  0  0  0  0
    7.9911  -12.9918   18.3362 C   0  0  0  0  0  0  0  0  0  0  0  0
    8.5672  -14.0287   20.5046 C   0  0  2  0  0  0  0  0  0  0  0  0
    9.2013  -15.1659   19.8420 N   0  0  0  0  0  0  0  0  0  0  0  0
    8.0219  -14.4571   21.8353 C   0  0  0  0  0  0  0  0  0  0  0  0
    7.3489  -13.5697   22.4503 O   0  0  0  0  0  0  0  0  0  0  0  0
    8.2386  -15.7417   22.3621 N   0  0  0  0  0  0  0  0  0  0  0  0
    7.6495  -16.1516   23.6474 C   0  0  1  0  0  0  0  0  0  0  0  0
    7.8819  -17.6174   23.8341 C   0  0  0  0  0  0  0  0  0  0  0  0
    7.4534  -18.1672   25.1528 C   0  0  0  0  0  0  0  0  0  0  0  0
    7.6858  -19.6950   25.1996 C   0  0  0  0  0  0  0  0  0  0  0  0
    7.1641  -20.2498   26.5058 C   0  0  0  0  0  0  0  0  0  0  0  0
    7.3620  -21.6878   26.5111 N   0  0  0  0  0  0  0  0  0  0  0  0
    8.1861  -15.2711   24.6772 C   0  0  0  0  0  0  0  0  0  0  0  0
    9.4400  -14.9960   24.6566 O   0  0  0  0  0  0  0  0  0  0  0  0
    7.0204  -11.6280   25.8520 C   0  0  0  0  0  0  0  0  0  0  0  0
    7.1531  -12.6015   26.9762 C   0  0  1  0  0  0  0  0  0  0  0  0
    5.9364  -13.1266   27.3939 O   0  0  0  0  0  0  0  0  0  0  0  0
    8.1109  -13.7136   26.6570 C   0  0  2  0  0  0  0  0  0  0  0  0
    7.4800  -14.6545   25.7327 N   0  0  0  0  0  0  0  0  0  0  0  0
    8.5378  -14.4017   27.9024 C   0  0  0  0  0  0  0  0  0  0  0  0
    9.2136  -13.7396   28.9154 O   0  0  0  0  0  0  0  0  0  0  0  0
    8.2978  -15.6233   28.0823 O   0  0  0  0  0  0  0  0  0  0  0  0
  2  1  1  6
  2  4  1  0
  2  3  1  0
  4  5  1  6
  6  7  2  0
  6  4  1  0
  8  6  1  0
  9 10  1  1
  9  8  1  0
 11 10  1  0
 11 12  1  0
 13 14  1  0
 13 12  1  0
 15  9  1  0
 16 15  2  0
 18 19  1  0
 18 20  1  0
 18 17  1  6
 20 21  1  6
 21 15  1  0
 22 23  1  0
 22 20  1  0
 24 22  2  0
M  END
$$$$
