VKT.pdb
     RDKit          3D

 24 23  0  0  1  0  0  0  0  0999 V2000
    7.5893  -12.5837   19.4726 C   0  0  0  0  0  0  0  0  0  0  0  0
    7.6436  -13.4455   20.7124 C   0  0  2  0  0  0  0  0  0  0  0  0
    8.3691  -12.6761   21.7746 C   0  0  0  0  0  0  0  0  0  0  0  0
    8.4186  -14.7093   20.3700 C   0  0  2  0  0  0  0  0  0  0  0  0
    7.7583  -15.3938   19.2610 N   0  0  0  0  0  0  0  0  0  0  0  0
    8.4673  -15.6135   21.5665 C   0  0  0  0  0  0  0  0  0  0  0  0
    7.3494  -16.1196   21.9025 O   0  0  0  0  0  0  0  0  0  0  0  0
    9.6581  -15.8808   22.2630 N   0  0  0  0  0  0  0  0  0  0  0  0
    9.6745  -16.7642   23.4405 C   0  0  1  0  0  0  0  0  0  0  0  0
   10.4933  -17.9741   23.1192 C   0  0  0  0  0  0  0  0  0  0  0  0
    9.9205  -18.8717   22.0747 C   0  0  0  0  0  0  0  0  0  0  0  0
   10.8073  -20.1257   21.8980 C   0  0  0  0  0  0  0  0  0  0  0  0
   10.1725  -21.0612   20.8939 C   0  0  0  0  0  0  0  0  0  0  0  0
   10.9937  -22.2533   20.7866 N   0  0  0  0  0  0  0  0  0  0  0  0
   10.1096  -15.9681   24.5810 C   0  0  0  0  0  0  0  0  0  0  0  0
   10.4174  -14.7367   24.3877 O   0  0  0  0  0  0  0  0  0  0  0  0
    9.3804  -13.7009   28.3933 C   0  0  0  0  0  0  0  0  0  0  0  0
    9.3474  -14.4810   27.1207 C   0  0  1  0  0  0  0  0  0  0  0  0
    9.3038  -13.6794   25.9867 O   0  0  0  0  0  0  0  0  0  0  0  0
   10.4869  -15.4543   27.0191 C   0  0  2  0  0  0  0  0  0  0  0  0
   10.2381  -16.3885   25.9224 N   0  0  0  0  0  0  0  0  0  0  0  0
   10.6626  -16.1806   28.3029 C   0  0  0  0  0  0  0  0  0  0  0  0
   11.3989  -15.6540   29.3526 O   0  0  0  0  0  0  0  0  0  0  0  0
   10.1430  -17.3118   28.4835 O   0  0  0  0  0  0  0  0  0  0  0  0
  2  1  1  6
  2  4  1  0
  2  3  1  0
  4  5  1  6
  6  7  2  0
  6  4  1  0
  8  6  1  0
  9 10  1  6
  9  8  1  0
 11 10  1  0
 11 12  1  0
 13 14  1  0
 13 12  1  0
 15  9  1  0
 16 15  2  0
 18 19  1  0
 18 20  1  0
 18 17  1  1
 20 21  1  6
 21 15  1  0
 22 23  1  0
 22 20  1  0
 24 22  2  0
M  END
$$$$
