VKT.pdb
     RDKit          3D

 24 23  0  0  1  0  0  0  0  0999 V2000
    7.0350  -12.8674   20.6401 C   0  0  0  0  0  0  0  0  0  0  0  0
    8.3531  -13.2357   20.0002 C   0  0  2  0  0  0  0  0  0  0  0  0
    8.3973  -12.6018   18.6428 C   0  0  0  0  0  0  0  0  0  0  0  0
    8.4000  -14.7504   19.8644 C   0  0  2  0  0  0  0  0  0  0  0  0
    7.3135  -15.1898   18.9921 N   0  0  0  0  0  0  0  0  0  0  0  0
    8.2527  -15.3851   21.2162 C   0  0  0  0  0  0  0  0  0  0  0  0
    7.0524  -15.5921   21.5838 O   0  0  0  0  0  0  0  0  0  0  0  0
    9.3574  -15.7249   22.0153 N   0  0  0  0  0  0  0  0  0  0  0  0
    9.1833  -16.3549   23.3344 C   0  0  1  0  0  0  0  0  0  0  0  0
   10.2076  -17.4341   23.4877 C   0  0  0  0  0  0  0  0  0  0  0  0
   10.2678  -18.0681   24.8365 C   0  0  0  0  0  0  0  0  0  0  0  0
   10.0843  -19.5988   24.7199 C   0  0  0  0  0  0  0  0  0  0  0  0
    9.9327  -20.2002   26.0989 C   0  0  0  0  0  0  0  0  0  0  0  0
    9.6713  -21.6211   25.9592 N   0  0  0  0  0  0  0  0  0  0  0  0
    9.2008  -15.2942   24.3335 C   0  0  0  0  0  0  0  0  0  0  0  0
   10.1504  -14.4309   24.2951 O   0  0  0  0  0  0  0  0  0  0  0  0
    6.8703  -12.3342   25.2121 C   0  0  0  0  0  0  0  0  0  0  0  0
    7.0803  -13.2311   26.3871 C   0  0  1  0  0  0  0  0  0  0  0  0
    6.0387  -14.1291   26.5851 O   0  0  0  0  0  0  0  0  0  0  0  0
    8.3876  -13.9673   26.3157 C   0  0  2  0  0  0  0  0  0  0  0  0
    8.2728  -15.0812   25.3757 N   0  0  0  0  0  0  0  0  0  0  0  0
    8.7828  -14.4511   27.6634 C   0  0  0  0  0  0  0  0  0  0  0  0
    9.1278  -13.5819   28.6864 O   0  0  0  0  0  0  0  0  0  0  0  0
    8.8183  -15.6809   27.9253 O   0  0  0  0  0  0  0  0  0  0  0  0
  2  1  1  6
  2  4  1  0
  2  3  1  0
  4  5  1  6
  6  7  2  0
  6  4  1  0
  8  6  1  0
  9 10  1  1
  9  8  1  0
 11 10  1  0
 11 12  1  0
 13 14  1  0
 13 12  1  0
 15  9  1  0
 16 15  2  0
 18 19  1  0
 18 20  1  0
 18 17  1  6
 20 21  1  6
 21 15  1  0
 22 23  1  0
 22 20  1  0
 24 22  2  0
M  END
$$$$
