VKT.pdb
     RDKit          3D

 24 23  0  0  1  0  0  0  0  0999 V2000
    8.5635  -21.8849   19.8346 C   0  0  0  0  0  0  0  0  0  0  0  0
    7.2189  -21.2641   19.5356 C   0  0  2  0  0  0  0  0  0  0  0  0
    6.2918  -22.3615   19.1079 C   0  0  0  0  0  0  0  0  0  0  0  0
    7.4046  -20.2720   18.3970 C   0  0  2  0  0  0  0  0  0  0  0  0
    7.9650  -20.9659   17.2399 N   0  0  0  0  0  0  0  0  0  0  0  0
    8.3326  -19.1743   18.8279 C   0  0  0  0  0  0  0  0  0  0  0  0
    9.5644  -19.3905   18.5944 O   0  0  0  0  0  0  0  0  0  0  0  0
    7.8750  -17.9966   19.4429 N   0  0  0  0  0  0  0  0  0  0  0  0
    8.8063  -16.9260   19.8350 C   0  0  1  0  0  0  0  0  0  0  0  0
    8.0636  -15.6277   19.8491 C   0  0  0  0  0  0  0  0  0  0  0  0
    8.8740  -14.4345   20.2287 C   0  0  0  0  0  0  0  0  0  0  0  0
    8.0580  -13.1392   20.0126 C   0  0  0  0  0  0  0  0  0  0  0  0
    8.9037  -11.9384   20.3724 C   0  0  0  0  0  0  0  0  0  0  0  0
    8.1443  -10.7344   20.0886 N   0  0  0  0  0  0  0  0  0  0  0  0
    9.4371  -17.3287   21.0854 C   0  0  0  0  0  0  0  0  0  0  0  0
    8.6966  -17.8026   22.0211 O   0  0  0  0  0  0  0  0  0  0  0  0
   13.1640  -18.9696   23.8009 C   0  0  0  0  0  0  0  0  0  0  0  0
   12.5123  -18.5941   22.5112 C   0  0  1  0  0  0  0  0  0  0  0  0
   12.1517  -19.6913   21.7387 O   0  0  0  0  0  0  0  0  0  0  0  0
   11.3264  -17.6946   22.7125 C   0  0  2  0  0  0  0  0  0  0  0  0
   10.8086  -17.2670   21.4138 N   0  0  0  0  0  0  0  0  0  0  0  0
   11.7018  -16.5224   23.5441 C   0  0  0  0  0  0  0  0  0  0  0  0
   11.6412  -16.5514   24.9286 O   0  0  0  0  0  0  0  0  0  0  0  0
   12.0921  -15.4505   23.0140 O   0  0  0  0  0  0  0  0  0  0  0  0
  2  1  1  6
  2  4  1  0
  2  3  1  0
  4  5  1  6
  6  7  2  0
  6  4  1  0
  8  6  1  0
  9 10  1  1
  9  8  1  0
 11 10  1  0
 11 12  1  0
 13 14  1  0
 13 12  1  0
 15  9  1  0
 16 15  2  0
 18 19  1  0
 18 20  1  0
 18 17  1  1
 20 21  1  6
 21 15  1  0
 22 23  1  0
 22 20  1  0
 24 22  2  0
M  END
$$$$
