VKT.pdb
     RDKit          3D

 24 23  0  0  1  0  0  0  0  0999 V2000
    7.2409  -12.8584   21.2734 C   0  0  0  0  0  0  0  0  0  0  0  0
    8.5542  -13.2761   20.6541 C   0  0  2  0  0  0  0  0  0  0  0  0
    8.6651  -12.6064   19.3178 C   0  0  0  0  0  0  0  0  0  0  0  0
    8.5269  -14.7866   20.4739 C   0  0  2  0  0  0  0  0  0  0  0  0
    7.4403  -15.1439   19.5650 N   0  0  0  0  0  0  0  0  0  0  0  0
    8.3156  -15.4516   21.8024 C   0  0  0  0  0  0  0  0  0  0  0  0
    7.1061  -15.4935   22.1950 O   0  0  0  0  0  0  0  0  0  0  0  0
    9.3739  -15.9875   22.5555 N   0  0  0  0  0  0  0  0  0  0  0  0
    9.1281  -16.7173   23.8102 C   0  0  1  0  0  0  0  0  0  0  0  0
    9.3871  -18.1717   23.5759 C   0  0  0  0  0  0  0  0  0  0  0  0
    8.3508  -18.8818   22.7719 C   0  0  0  0  0  0  0  0  0  0  0  0
    8.8009  -20.3304   22.4733 C   0  0  0  0  0  0  0  0  0  0  0  0
    7.7637  -21.0196   21.6157 C   0  0  0  0  0  0  0  0  0  0  0  0
    8.2611  -22.3339   21.2522 N   0  0  0  0  0  0  0  0  0  0  0  0
    9.9174  -16.0754   24.8536 C   0  0  0  0  0  0  0  0  0  0  0  0
   11.0958  -15.6576   24.5619 O   0  0  0  0  0  0  0  0  0  0  0  0
    9.7527  -12.8922   26.9241 C   0  0  0  0  0  0  0  0  0  0  0  0
    9.8085  -14.0763   27.8317 C   0  0  1  0  0  0  0  0  0  0  0  0
    8.5680  -14.4319   28.3468 O   0  0  0  0  0  0  0  0  0  0  0  0
   10.4541  -15.2650   27.1787 C   0  0  2  0  0  0  0  0  0  0  0  0
    9.5400  -15.8404   26.1934 N   0  0  0  0  0  0  0  0  0  0  0  0
   10.8333  -16.2739   28.2009 C   0  0  0  0  0  0  0  0  0  0  0  0
   11.7867  -16.0153   29.1732 O   0  0  0  0  0  0  0  0  0  0  0  0
   10.2958  -17.4110   28.2192 O   0  0  0  0  0  0  0  0  0  0  0  0
  2  1  1  6
  2  4  1  0
  2  3  1  0
  4  5  1  6
  6  7  2  0
  6  4  1  0
  8  6  1  0
  9 10  1  6
  9  8  1  0
 11 10  1  0
 11 12  1  0
 13 14  1  0
 13 12  1  0
 15  9  1  0
 16 15  2  0
 18 19  1  0
 18 20  1  0
 18 17  1  6
 20 21  1  6
 21 15  1  0
 22 23  1  0
 22 20  1  0
 24 22  2  0
M  END
$$$$
