VKT.pdb
     RDKit          3D

 24 23  0  0  1  0  0  0  0  0999 V2000
    6.1872  -12.1867   27.6237 C   0  0  0  0  0  0  0  0  0  0  0  0
    6.9517  -13.0591   26.6557 C   0  0  2  0  0  0  0  0  0  0  0  0
    7.9241  -12.1866   25.9210 C   0  0  0  0  0  0  0  0  0  0  0  0
    5.9529  -13.6576   25.6763 C   0  0  2  0  0  0  0  0  0  0  0  0
    5.0334  -14.5324   26.4001 N   0  0  0  0  0  0  0  0  0  0  0  0
    6.6817  -14.4452   24.6273 C   0  0  0  0  0  0  0  0  0  0  0  0
    6.9030  -15.6618   24.9270 O   0  0  0  0  0  0  0  0  0  0  0  0
    7.0887  -13.8812   23.4064 N   0  0  0  0  0  0  0  0  0  0  0  0
    7.7370  -14.6955   22.3652 C   0  0  1  0  0  0  0  0  0  0  0  0
    7.7065  -13.9364   21.0767 C   0  0  0  0  0  0  0  0  0  0  0  0
    8.3828  -14.6050   19.9276 C   0  0  0  0  0  0  0  0  0  0  0  0
    8.1613  -13.7964   18.6286 C   0  0  0  0  0  0  0  0  0  0  0  0
    8.7382  -14.5526   17.4532 C   0  0  0  0  0  0  0  0  0  0  0  0
    8.6410  -13.7164   16.2707 N   0  0  0  0  0  0  0  0  0  0  0  0
    9.0514  -15.0799   22.8632 C   0  0  0  0  0  0  0  0  0  0  0  0
    9.7152  -14.2312   23.5615 O   0  0  0  0  0  0  0  0  0  0  0  0
   12.3859  -18.3475   24.3508 C   0  0  0  0  0  0  0  0  0  0  0  0
   11.0164  -17.8793   23.9844 C   0  0  1  0  0  0  0  0  0  0  0  0
   10.1619  -17.7753   25.0752 O   0  0  0  0  0  0  0  0  0  0  0  0
   11.0412  -16.5836   23.2251 C   0  0  2  0  0  0  0  0  0  0  0  0
    9.7143  -16.3119   22.6745 N   0  0  0  0  0  0  0  0  0  0  0  0
   12.0608  -16.6360   22.1462 C   0  0  0  0  0  0  0  0  0  0  0  0
   11.7253  -16.8997   20.8274 O   0  0  0  0  0  0  0  0  0  0  0  0
   13.2781  -16.4405   22.3954 O   0  0  0  0  0  0  0  0  0  0  0  0
  2  1  1  1
  2  4  1  0
  2  3  1  0
  4  5  1  1
  6  7  2  0
  6  4  1  0
  8  6  1  0
  9 10  1  6
  9  8  1  0
 11 10  1  0
 11 12  1  0
 13 14  1  0
 13 12  1  0
 15  9  1  0
 16 15  2  0
 18 19  1  0
 18 20  1  0
 18 17  1  1
 20 21  1  6
 21 15  1  0
 22 23  1  0
 22 20  1  0
 24 22  2  0
M  END
$$$$
