VKT.pdb
     RDKit          3D

 24 23  0  0  1  0  0  0  0  0999 V2000
    7.9084  -11.8015   18.9694 C   0  0  0  0  0  0  0  0  0  0  0  0
    8.0654  -13.1741   19.5810 C   0  0  2  0  0  0  0  0  0  0  0  0
    9.1029  -13.0804   20.6586 C   0  0  0  0  0  0  0  0  0  0  0  0
    8.5396  -14.1213   18.4887 C   0  0  2  0  0  0  0  0  0  0  0  0
    7.4992  -14.2415   17.4701 N   0  0  0  0  0  0  0  0  0  0  0  0
    8.8294  -15.4703   19.0786 C   0  0  0  0  0  0  0  0  0  0  0  0
    8.0293  -16.3939   18.7243 O   0  0  0  0  0  0  0  0  0  0  0  0
    9.9035  -15.6958   19.9561 N   0  0  0  0  0  0  0  0  0  0  0  0
   10.4363  -17.0494   20.1820 C   0  0  1  0  0  0  0  0  0  0  0  0
   10.7549  -17.6651   18.8565 C   0  0  0  0  0  0  0  0  0  0  0  0
   11.2555  -19.0691   18.9103 C   0  0  0  0  0  0  0  0  0  0  0  0
   11.5354  -19.5954   17.4838 C   0  0  0  0  0  0  0  0  0  0  0  0
   11.9798  -21.0391   17.5515 C   0  0  0  0  0  0  0  0  0  0  0  0
   12.4340  -21.4470   16.2345 N   0  0  0  0  0  0  0  0  0  0  0  0
   11.5385  -16.9354   21.1284 C   0  0  0  0  0  0  0  0  0  0  0  0
   12.4139  -16.0147   20.9425 O   0  0  0  0  0  0  0  0  0  0  0  0
   10.1591  -17.9466   24.5307 C   0  0  0  0  0  0  0  0  0  0  0  0
   11.1580  -16.8412   24.4343 C   0  0  1  0  0  0  0  0  0  0  0  0
   11.6454  -16.4328   25.6698 O   0  0  0  0  0  0  0  0  0  0  0  0
   12.2986  -17.1819   23.5185 C   0  0  2  0  0  0  0  0  0  0  0  0
   11.7769  -17.7327   22.2687 N   0  0  0  0  0  0  0  0  0  0  0  0
   13.2202  -18.1435   24.1761 C   0  0  0  0  0  0  0  0  0  0  0  0
   14.0318  -17.7774   25.2385 O   0  0  0  0  0  0  0  0  0  0  0  0
   13.2966  -19.3372   23.7867 O   0  0  0  0  0  0  0  0  0  0  0  0
  2  1  1  6
  2  4  1  0
  2  3  1  0
  4  5  1  6
  6  7  2  0
  6  4  1  0
  8  6  1  0
  9 10  1  6
  9  8  1  0
 11 10  1  0
 11 12  1  0
 13 14  1  0
 13 12  1  0
 15  9  1  0
 16 15  2  0
 18 19  1  0
 18 20  1  0
 18 17  1  1
 20 21  1  6
 21 15  1  0
 22 23  1  0
 22 20  1  0
 24 22  2  0
M  END
$$$$
