VKT.pdb
     RDKit          3D

 24 23  0  0  1  0  0  0  0  0999 V2000
    7.9251  -12.8898   18.3827 C   0  0  0  0  0  0  0  0  0  0  0  0
    7.5865  -13.4298   19.7526 C   0  0  2  0  0  0  0  0  0  0  0  0
    8.3053  -12.5921   20.7666 C   0  0  0  0  0  0  0  0  0  0  0  0
    8.0825  -14.8664   19.8247 C   0  0  2  0  0  0  0  0  0  0  0  0
    7.4016  -15.6628   18.8066 N   0  0  0  0  0  0  0  0  0  0  0  0
    7.7984  -15.4327   21.1849 C   0  0  0  0  0  0  0  0  0  0  0  0
    6.5844  -15.7535   21.3897 O   0  0  0  0  0  0  0  0  0  0  0  0
    8.7982  -15.5963   22.1587 N   0  0  0  0  0  0  0  0  0  0  0  0
    8.4859  -16.1307   23.4944 C   0  0  1  0  0  0  0  0  0  0  0  0
    9.3065  -17.3606   23.7211 C   0  0  0  0  0  0  0  0  0  0  0  0
    9.1683  -17.9784   25.0717 C   0  0  0  0  0  0  0  0  0  0  0  0
   10.0629  -19.2344   25.1827 C   0  0  0  0  0  0  0  0  0  0  0  0
    9.8907  -19.8635   26.5468 C   0  0  0  0  0  0  0  0  0  0  0  0
   10.8052  -20.9852   26.6592 N   0  0  0  0  0  0  0  0  0  0  0  0
    8.6594  -15.0467   24.4527 C   0  0  0  0  0  0  0  0  0  0  0  0
    9.7809  -14.4221   24.4759 O   0  0  0  0  0  0  0  0  0  0  0  0
    6.6386  -11.6914   25.3451 C   0  0  0  0  0  0  0  0  0  0  0  0
    6.8225  -12.6155   26.5032 C   0  0  1  0  0  0  0  0  0  0  0  0
    5.6975  -13.3842   26.7759 O   0  0  0  0  0  0  0  0  0  0  0  0
    8.0239  -13.5021   26.3398 C   0  0  2  0  0  0  0  0  0  0  0  0
    7.7185  -14.5729   25.3924 N   0  0  0  0  0  0  0  0  0  0  0  0
    8.4373  -14.0598   27.6530 C   0  0  0  0  0  0  0  0  0  0  0  0
    8.3666  -15.4155   27.9330 O   0  0  0  0  0  0  0  0  0  0  0  0
    8.8709  -13.3120   28.5668 O   0  0  0  0  0  0  0  0  0  0  0  0
  2  1  1  6
  2  4  1  0
  2  3  1  0
  4  5  1  6
  6  7  2  0
  6  4  1  0
  8  6  1  0
  9 10  1  1
  9  8  1  0
 11 10  1  0
 11 12  1  0
 13 14  1  0
 13 12  1  0
 15  9  1  0
 16 15  2  0
 18 19  1  0
 18 20  1  0
 18 17  1  6
 20 21  1  6
 21 15  1  0
 22 23  1  0
 22 20  1  0
 24 22  2  0
M  END
$$$$
