VKT.pdb
     RDKit          3D

 24 23  0  0  1  0  0  0  0  0999 V2000
    7.5267  -13.3901   21.1019 C   0  0  0  0  0  0  0  0  0  0  0  0
    8.3883  -13.2406   19.8699 C   0  0  2  0  0  0  0  0  0  0  0  0
    7.8285  -12.1161   19.0522 C   0  0  0  0  0  0  0  0  0  0  0  0
    8.3088  -14.5405   19.0830 C   0  0  2  0  0  0  0  0  0  0  0  0
    6.9204  -14.7890   18.7021 N   0  0  0  0  0  0  0  0  0  0  0  0
    8.8138  -15.6746   19.9259 C   0  0  0  0  0  0  0  0  0  0  0  0
    7.9222  -16.2766   20.6052 O   0  0  0  0  0  0  0  0  0  0  0  0
   10.1692  -16.0436   19.9618 N   0  0  0  0  0  0  0  0  0  0  0  0
   10.6223  -17.2210   20.7204 C   0  0  1  0  0  0  0  0  0  0  0  0
   11.8136  -17.8052   20.0299 C   0  0  0  0  0  0  0  0  0  0  0  0
   12.4646  -18.9452   20.7379 C   0  0  0  0  0  0  0  0  0  0  0  0
   13.6534  -19.4845   19.9095 C   0  0  0  0  0  0  0  0  0  0  0  0
   14.2979  -20.6425   20.6375 C   0  0  0  0  0  0  0  0  0  0  0  0
   15.4267  -21.1121   19.8550 N   0  0  0  0  0  0  0  0  0  0  0  0
   10.8109  -16.8060   22.1045 C   0  0  0  0  0  0  0  0  0  0  0  0
   11.3449  -15.6612   22.3343 O   0  0  0  0  0  0  0  0  0  0  0  0
    9.5402  -16.5425   26.7761 C   0  0  0  0  0  0  0  0  0  0  0  0
    9.3706  -16.8691   25.3291 C   0  0  1  0  0  0  0  0  0  0  0  0
    8.5463  -15.9746   24.6576 O   0  0  0  0  0  0  0  0  0  0  0  0
   10.6861  -16.9921   24.6147 C   0  0  2  0  0  0  0  0  0  0  0  0
   10.4668  -17.5236   23.2704 N   0  0  0  0  0  0  0  0  0  0  0  0
   11.6124  -17.8629   25.3830 C   0  0  0  0  0  0  0  0  0  0  0  0
   12.4116  -17.3701   26.4026 O   0  0  0  0  0  0  0  0  0  0  0  0
   11.7041  -19.0920   25.1315 O   0  0  0  0  0  0  0  0  0  0  0  0
  2  1  1  1
  2  4  1  0
  2  3  1  0
  4  5  1  1
  6  7  2  0
  6  4  1  0
  8  6  1  0
  9 10  1  6
  9  8  1  0
 11 10  1  0
 11 12  1  0
 13 14  1  0
 13 12  1  0
 15  9  1  0
 16 15  2  0
 18 19  1  0
 18 20  1  0
 18 17  1  1
 20 21  1  6
 21 15  1  0
 22 23  1  0
 22 20  1  0
 24 22  2  0
M  END
$$$$
