VFF.pdb
     RDKit          3D

 30 31  0  0  1  0  0  0  0  0999 V2000
    9.5060  -19.7676   21.0347 C   0  0  0  0  0  0  0  0  0  0  0  0
   10.0070  -19.1888   19.7219 C   0  0  1  0  0  0  0  0  0  0  0  0
    9.7964  -20.2132   18.6311 C   0  0  0  0  0  0  0  0  0  0  0  0
    9.2112  -17.9268   19.4727 C   0  0  2  0  0  0  0  0  0  0  0  0
    9.4793  -17.3787   18.1641 N   0  0  0  0  0  0  0  0  0  0  0  0
    9.4018  -16.9072   20.5400 C   0  0  0  0  0  0  0  0  0  0  0  0
   10.5172  -16.2981   20.6667 O   0  0  0  0  0  0  0  0  0  0  0  0
    8.3518  -16.5847   21.4423 N   0  0  0  0  0  0  0  0  0  0  0  0
    8.5085  -15.6553   22.5360 C   0  0  1  0  0  0  0  0  0  0  0  0
    7.1059  -15.2198   22.9122 C   0  0  0  0  0  0  0  0  0  0  0  0
    7.0729  -14.2694   24.0495 C   0  0  0  0  0  0  0  0  0  0  0  0
    7.7352  -13.0594   24.0292 C   0  0  0  0  0  0  0  0  0  0  0  0
    7.6915  -12.1802   25.1001 C   0  0  0  0  0  0  0  0  0  0  0  0
    6.9784  -12.4793   26.2420 C   0  0  0  0  0  0  0  0  0  0  0  0
    6.3137  -13.6872   26.2702 C   0  0  0  0  0  0  0  0  0  0  0  0
    6.3582  -14.5612   25.2031 C   0  0  0  0  0  0  0  0  0  0  0  0
    9.2292  -16.3140   23.6295 C   0  0  0  0  0  0  0  0  0  0  0  0
    8.8016  -17.3943   24.0842 O   0  0  0  0  0  0  0  0  0  0  0  0
   10.3970  -15.7531   24.1797 N   0  0  0  0  0  0  0  0  0  0  0  0
   10.7828  -16.0563   25.5668 C   0  0  1  0  0  0  0  0  0  0  0  0
   11.3109  -14.8312   26.2493 C   0  0  0  0  0  0  0  0  0  0  0  0
   11.1145  -14.8576   27.7114 C   0  0  0  0  0  0  0  0  0  0  0  0
   11.6271  -15.9063   28.4438 C   0  0  0  0  0  0  0  0  0  0  0  0
   11.4755  -15.9606   29.8109 C   0  0  0  0  0  0  0  0  0  0  0  0
   10.7976  -14.9491   30.4733 C   0  0  0  0  0  0  0  0  0  0  0  0
   10.2834  -13.9013   29.7577 C   0  0  0  0  0  0  0  0  0  0  0  0
   10.4453  -13.8637   28.3857 C   0  0  0  0  0  0  0  0  0  0  0  0
    9.6918  -16.7363   26.2805 C   0  0  0  0  0  0  0  0  0  0  0  0
    9.9083  -17.8950   26.9739 O   0  0  0  0  0  0  0  0  0  0  0  0
    8.5339  -16.2595   26.2643 O   0  0  0  0  0  0  0  0  0  0  0  0
  2  1  1  1
  2  3  1  0
  4  2  1  0
  4  5  1  6
  6  7  2  0
  6  4  1  0
  8  6  1  0
  9  8  1  0
 10 11  1  0
  9 10  1  1
 11 12  2  0
 11 16  1  0
 12 13  1  0
 13 14  2  0
 15 14  1  0
 16 15  2  0
 17  9  1  0
 17 18  2  0
 19 17  1  0
 20 19  1  0
 20 21  1  1
 22 21  1  0
 22 23  2  0
 24 23  1  0
 25 24  2  0
 26 27  2  0
 26 25  1  0
 27 22  1  0
 28 20  1  0
 29 28  1  0
 30 28  2  0
M  END
$$$$
