VFF.pdb
     RDKit          3D

 30 31  0  0  1  0  0  0  0  0999 V2000
    9.6093  -19.6353   20.7085 C   0  0  0  0  0  0  0  0  0  0  0  0
   10.2689  -18.8518   19.5857 C   0  0  1  0  0  0  0  0  0  0  0  0
   10.0969  -19.6196   18.2956 C   0  0  0  0  0  0  0  0  0  0  0  0
    9.5835  -17.5043   19.5366 C   0  0  2  0  0  0  0  0  0  0  0  0
   10.0022  -16.7362   18.3880 N   0  0  0  0  0  0  0  0  0  0  0  0
    9.7457  -16.7308   20.7978 C   0  0  0  0  0  0  0  0  0  0  0  0
   10.8664  -16.1936   21.0924 O   0  0  0  0  0  0  0  0  0  0  0  0
    8.6622  -16.5691   21.7036 N   0  0  0  0  0  0  0  0  0  0  0  0
    8.7579  -15.7948   22.9184 C   0  0  1  0  0  0  0  0  0  0  0  0
    7.3467  -15.3347   23.2273 C   0  0  0  0  0  0  0  0  0  0  0  0
    7.2733  -14.4013   24.3766 C   0  0  0  0  0  0  0  0  0  0  0  0
    8.3941  -13.9451   25.0392 C   0  0  0  0  0  0  0  0  0  0  0  0
    8.3084  -13.0695   26.1106 C   0  0  0  0  0  0  0  0  0  0  0  0
    7.0890  -12.6127   26.5647 C   0  0  0  0  0  0  0  0  0  0  0  0
    5.9638  -13.0643   25.9077 C   0  0  0  0  0  0  0  0  0  0  0  0
    6.0510  -13.9358   24.8413 C   0  0  0  0  0  0  0  0  0  0  0  0
    9.3466  -16.6241   23.9742 C   0  0  0  0  0  0  0  0  0  0  0  0
    9.0199  -17.8247   24.0663 O   0  0  0  0  0  0  0  0  0  0  0  0
   10.2757  -16.0946   24.8893 N   0  0  0  0  0  0  0  0  0  0  0  0
   11.0216  -16.9880   25.7894 C   0  0  1  0  0  0  0  0  0  0  0  0
   12.0639  -16.2247   26.5487 C   0  0  0  0  0  0  0  0  0  0  0  0
   11.4935  -15.3704   27.6079 C   0  0  0  0  0  0  0  0  0  0  0  0
   11.2939  -15.8957   28.8661 C   0  0  0  0  0  0  0  0  0  0  0  0
   10.7756  -15.1273   29.8839 C   0  0  0  0  0  0  0  0  0  0  0  0
   10.4450  -13.8014   29.6514 C   0  0  0  0  0  0  0  0  0  0  0  0
   10.6383  -13.2669   28.4058 C   0  0  0  0  0  0  0  0  0  0  0  0
   11.1597  -14.0535   27.3961 C   0  0  0  0  0  0  0  0  0  0  0  0
   10.1058  -17.7776   26.6258 C   0  0  0  0  0  0  0  0  0  0  0  0
   10.5346  -18.8893   27.2972 O   0  0  0  0  0  0  0  0  0  0  0  0
    8.9049  -17.4407   26.7379 O   0  0  0  0  0  0  0  0  0  0  0  0
  2  1  1  1
  2  3  1  0
  4  2  1  0
  4  5  1  6
  6  7  2  0
  6  4  1  0
  8  6  1  0
  9  8  1  0
 10 11  1  0
  9 10  1  1
 11 12  2  0
 11 16  1  0
 12 13  1  0
 13 14  2  0
 15 14  1  0
 16 15  2  0
 17  9  1  0
 17 18  2  0
 19 17  1  0
 20 19  1  0
 20 21  1  1
 22 21  1  0
 22 23  2  0
 24 23  1  0
 25 24  2  0
 26 27  2  0
 26 25  1  0
 27 22  1  0
 28 20  1  0
 29 28  1  0
 30 28  2  0
M  END
$$$$
