VFF.pdb
     RDKit          3D

 30 31  0  0  1  0  0  0  0  0999 V2000
    9.8409  -19.6745   21.0793 C   0  0  0  0  0  0  0  0  0  0  0  0
   10.3740  -19.1026   19.7762 C   0  0  1  0  0  0  0  0  0  0  0  0
   10.2285  -20.1481   18.6949 C   0  0  0  0  0  0  0  0  0  0  0  0
    9.5563  -17.8653   19.4791 C   0  0  2  0  0  0  0  0  0  0  0  0
    9.8823  -17.3100   18.1868 N   0  0  0  0  0  0  0  0  0  0  0  0
    9.6547  -16.8398   20.5533 C   0  0  0  0  0  0  0  0  0  0  0  0
   10.7243  -16.1591   20.7073 O   0  0  0  0  0  0  0  0  0  0  0  0
    8.5654  -16.5911   21.4320 N   0  0  0  0  0  0  0  0  0  0  0  0
    8.6175  -15.6193   22.4984 C   0  0  1  0  0  0  0  0  0  0  0  0
    7.1809  -15.2069   22.7523 C   0  0  0  0  0  0  0  0  0  0  0  0
    7.0269  -14.3108   23.9231 C   0  0  0  0  0  0  0  0  0  0  0  0
    6.4373  -14.7189   25.1017 C   0  0  0  0  0  0  0  0  0  0  0  0
    6.3039  -13.8692   26.1889 C   0  0  0  0  0  0  0  0  0  0  0  0
    6.7582  -12.5680   26.1393 C   0  0  0  0  0  0  0  0  0  0  0  0
    7.3486  -12.1523   24.9644 C   0  0  0  0  0  0  0  0  0  0  0  0
    7.4807  -12.9996   23.8832 C   0  0  0  0  0  0  0  0  0  0  0  0
    9.2686  -16.2194   23.6668 C   0  0  0  0  0  0  0  0  0  0  0  0
    8.9636  -17.3789   24.0120 O   0  0  0  0  0  0  0  0  0  0  0  0
   10.2338  -15.5145   24.4101 N   0  0  0  0  0  0  0  0  0  0  0  0
   10.4419  -15.8207   25.8342 C   0  0  1  0  0  0  0  0  0  0  0  0
   10.7505  -14.5729   26.6043 C   0  0  0  0  0  0  0  0  0  0  0  0
   10.8429  -14.8028   28.0588 C   0  0  0  0  0  0  0  0  0  0  0  0
   10.0947  -14.0248   28.9154 C   0  0  0  0  0  0  0  0  0  0  0  0
   10.1441  -14.2167   30.2776 C   0  0  0  0  0  0  0  0  0  0  0  0
   10.9567  -15.2063   30.8086 C   0  0  0  0  0  0  0  0  0  0  0  0
   11.7053  -15.9865   29.9688 C   0  0  0  0  0  0  0  0  0  0  0  0
   11.6429  -15.7793   28.6038 C   0  0  0  0  0  0  0  0  0  0  0  0
    9.3270  -16.6151   26.3706 C   0  0  0  0  0  0  0  0  0  0  0  0
    9.5482  -17.7555   27.0925 O   0  0  0  0  0  0  0  0  0  0  0  0
    8.1438  -16.2559   26.1728 O   0  0  0  0  0  0  0  0  0  0  0  0
  2  1  1  1
  2  3  1  0
  4  2  1  0
  4  5  1  6
  6  7  2  0
  6  4  1  0
  8  6  1  0
  9  8  1  0
 10 11  1  0
  9 10  1  1
 11 12  2  0
 11 16  1  0
 12 13  1  0
 13 14  2  0
 15 14  1  0
 16 15  2  0
 17  9  1  0
 17 18  2  0
 19 17  1  0
 20 19  1  0
 20 21  1  1
 22 21  1  0
 22 23  2  0
 24 23  1  0
 25 24  2  0
 26 27  2  0
 26 25  1  0
 27 22  1  0
 28 20  1  0
 29 28  1  0
 30 28  2  0
M  END
$$$$
