VFF.pdb
     RDKit          3D

 30 31  0  0  1  0  0  0  0  0999 V2000
    8.8745  -19.0982   21.6140 C   0  0  0  0  0  0  0  0  0  0  0  0
    9.5030  -18.5530   20.3424 C   0  0  1  0  0  0  0  0  0  0  0  0
    9.2182  -19.5151   19.2123 C   0  0  0  0  0  0  0  0  0  0  0  0
    8.8813  -17.1958   20.0988 C   0  0  2  0  0  0  0  0  0  0  0  0
    9.2901  -16.6436   18.8289 N   0  0  0  0  0  0  0  0  0  0  0  0
    9.1302  -16.2414   21.2134 C   0  0  0  0  0  0  0  0  0  0  0  0
   10.2905  -15.7389   21.3932 O   0  0  0  0  0  0  0  0  0  0  0  0
    8.0876  -15.8646   22.1031 N   0  0  0  0  0  0  0  0  0  0  0  0
    8.3091  -15.0669   23.2859 C   0  0  1  0  0  0  0  0  0  0  0  0
    6.9897  -14.3772   23.5722 C   0  0  0  0  0  0  0  0  0  0  0  0
    7.0297  -13.5124   24.7756 C   0  0  0  0  0  0  0  0  0  0  0  0
    7.6323  -12.2714   24.7820 C   0  0  0  0  0  0  0  0  0  0  0  0
    7.6581  -11.4733   25.9152 C   0  0  0  0  0  0  0  0  0  0  0  0
    7.0781  -11.8886   27.0955 C   0  0  0  0  0  0  0  0  0  0  0  0
    6.4739  -13.1282   27.0973 C   0  0  0  0  0  0  0  0  0  0  0  0
    6.4490  -13.9213   25.9682 C   0  0  0  0  0  0  0  0  0  0  0  0
    8.7631  -15.9358   24.3759 C   0  0  0  0  0  0  0  0  0  0  0  0
    8.1300  -16.9795   24.6339 O   0  0  0  0  0  0  0  0  0  0  0  0
    9.9014  -15.6181   25.1403 N   0  0  0  0  0  0  0  0  0  0  0  0
   10.3867  -16.5501   26.1702 C   0  0  1  0  0  0  0  0  0  0  0  0
   11.8313  -16.8798   25.9475 C   0  0  0  0  0  0  0  0  0  0  0  0
   12.0822  -17.5090   24.6366 C   0  0  0  0  0  0  0  0  0  0  0  0
   12.5856  -16.7459   23.6055 C   0  0  0  0  0  0  0  0  0  0  0  0
   12.8445  -17.2989   22.3718 C   0  0  0  0  0  0  0  0  0  0  0  0
   12.5986  -18.6451   22.1508 C   0  0  0  0  0  0  0  0  0  0  0  0
   12.0985  -19.4147   23.1666 C   0  0  0  0  0  0  0  0  0  0  0  0
   11.8447  -18.8421   24.3987 C   0  0  0  0  0  0  0  0  0  0  0  0
   10.0687  -16.0574   27.5185 C   0  0  0  0  0  0  0  0  0  0  0  0
    9.4384  -14.8586   27.7081 O   0  0  0  0  0  0  0  0  0  0  0  0
   10.3734  -16.7356   28.5262 O   0  0  0  0  0  0  0  0  0  0  0  0
  2  1  1  1
  2  3  1  0
  4  2  1  0
  4  5  1  6
  6  7  2  0
  6  4  1  0
  8  6  1  0
  9  8  1  0
 10 11  1  0
  9 10  1  1
 11 12  2  0
 11 16  1  0
 12 13  1  0
 13 14  2  0
 15 14  1  0
 16 15  2  0
 17  9  1  0
 17 18  2  0
 19 17  1  0
 20 19  1  0
 20 21  1  1
 22 21  1  0
 22 23  2  0
 24 23  1  0
 25 24  2  0
 26 27  2  0
 26 25  1  0
 27 22  1  0
 28 20  1  0
 29 28  1  0
 30 28  2  0
M  END
$$$$
