VFF.pdb
     RDKit          3D

 30 31  0  0  1  0  0  0  0  0999 V2000
    8.2018  -18.6262   21.0894 C   0  0  0  0  0  0  0  0  0  0  0  0
    9.2222  -18.1530   20.0675 C   0  0  1  0  0  0  0  0  0  0  0  0
    8.9019  -18.7897   18.7349 C   0  0  0  0  0  0  0  0  0  0  0  0
    9.1144  -16.6452   20.0133 C   0  0  2  0  0  0  0  0  0  0  0  0
    9.9366  -16.0905   18.9641 N   0  0  0  0  0  0  0  0  0  0  0  0
    9.3973  -16.0014   21.3251 C   0  0  0  0  0  0  0  0  0  0  0  0
   10.5982  -15.7568   21.6846 O   0  0  0  0  0  0  0  0  0  0  0  0
    8.3432  -15.6423   22.2085 N   0  0  0  0  0  0  0  0  0  0  0  0
    8.5653  -15.0011   23.4829 C   0  0  1  0  0  0  0  0  0  0  0  0
    7.2664  -14.2970   23.8230 C   0  0  0  0  0  0  0  0  0  0  0  0
    7.2843  -13.6460   25.1547 C   0  0  0  0  0  0  0  0  0  0  0  0
    6.2233  -12.9085   25.6382 C   0  0  0  0  0  0  0  0  0  0  0  0
    6.2547  -12.3086   26.8876 C   0  0  0  0  0  0  0  0  0  0  0  0
    7.3569  -12.4237   27.7084 C   0  0  0  0  0  0  0  0  0  0  0  0
    8.4217  -13.1592   27.2322 C   0  0  0  0  0  0  0  0  0  0  0  0
    8.3888  -13.7557   25.9882 C   0  0  0  0  0  0  0  0  0  0  0  0
    8.9583  -16.0115   24.4696 C   0  0  0  0  0  0  0  0  0  0  0  0
    8.1552  -16.9158   24.7760 O   0  0  0  0  0  0  0  0  0  0  0  0
   10.2258  -15.9844   25.0808 N   0  0  0  0  0  0  0  0  0  0  0  0
   10.5784  -16.9840   26.1014 C   0  0  1  0  0  0  0  0  0  0  0  0
   11.9322  -17.5650   25.8278 C   0  0  0  0  0  0  0  0  0  0  0  0
   11.9654  -18.3976   24.6101 C   0  0  0  0  0  0  0  0  0  0  0  0
   12.6039  -17.9241   23.4844 C   0  0  0  0  0  0  0  0  0  0  0  0
   12.6670  -18.6760   22.3330 C   0  0  0  0  0  0  0  0  0  0  0  0
   12.0821  -19.9321   22.2931 C   0  0  0  0  0  0  0  0  0  0  0  0
   11.4447  -20.4145   23.4045 C   0  0  0  0  0  0  0  0  0  0  0  0
   11.3912  -19.6455   24.5516 C   0  0  0  0  0  0  0  0  0  0  0  0
   10.4051  -16.4381   27.4555 C   0  0  0  0  0  0  0  0  0  0  0  0
   10.6375  -15.1178   27.7260 O   0  0  0  0  0  0  0  0  0  0  0  0
   10.0377  -17.1822   28.3934 O   0  0  0  0  0  0  0  0  0  0  0  0
  2  1  1  1
  2  3  1  0
  4  2  1  0
  4  5  1  6
  6  7  2  0
  6  4  1  0
  8  6  1  0
  9  8  1  0
 10 11  1  0
  9 10  1  1
 11 12  2  0
 11 16  1  0
 12 13  1  0
 13 14  2  0
 15 14  1  0
 16 15  2  0
 17  9  1  0
 17 18  2  0
 19 17  1  0
 20 19  1  0
 20 21  1  6
 22 21  1  0
 22 23  2  0
 24 23  1  0
 25 24  2  0
 26 27  2  0
 26 25  1  0
 27 22  1  0
 28 20  1  0
 29 28  1  0
 30 28  2  0
M  END
$$$$
