VFF.pdb
     RDKit          3D

 30 31  0  0  1  0  0  0  0  0999 V2000
    9.2175  -20.5727   18.9078 C   0  0  0  0  0  0  0  0  0  0  0  0
    9.5548  -19.6110   20.0351 C   0  0  1  0  0  0  0  0  0  0  0  0
   11.0311  -19.7218   20.3385 C   0  0  0  0  0  0  0  0  0  0  0  0
    9.1798  -18.2277   19.5518 C   0  0  2  0  0  0  0  0  0  0  0  0
    9.9137  -17.8624   18.3633 N   0  0  0  0  0  0  0  0  0  0  0  0
    9.3120  -17.1928   20.6133 C   0  0  0  0  0  0  0  0  0  0  0  0
   10.3524  -16.4546   20.6768 O   0  0  0  0  0  0  0  0  0  0  0  0
    8.2880  -16.9984   21.5798 N   0  0  0  0  0  0  0  0  0  0  0  0
    8.4197  -16.0953   22.6986 C   0  0  1  0  0  0  0  0  0  0  0  0
    7.0048  -15.7488   23.1186 C   0  0  0  0  0  0  0  0  0  0  0  0
    6.9454  -14.7179   24.1822 C   0  0  0  0  0  0  0  0  0  0  0  0
    6.2508  -14.9012   25.3601 C   0  0  0  0  0  0  0  0  0  0  0  0
    6.2079  -13.9280   26.3464 C   0  0  0  0  0  0  0  0  0  0  0  0
    6.8628  -12.7242   26.1921 C   0  0  0  0  0  0  0  0  0  0  0  0
    7.5593  -12.5332   25.0173 C   0  0  0  0  0  0  0  0  0  0  0  0
    7.6010  -13.5031   24.0364 C   0  0  0  0  0  0  0  0  0  0  0  0
    9.2002  -16.7464   23.7550 C   0  0  0  0  0  0  0  0  0  0  0  0
    9.0232  -17.9587   23.9911 O   0  0  0  0  0  0  0  0  0  0  0  0
   10.1484  -16.0322   24.5112 N   0  0  0  0  0  0  0  0  0  0  0  0
   10.9976  -16.7323   25.4877 C   0  0  1  0  0  0  0  0  0  0  0  0
   11.9434  -15.7761   26.1484 C   0  0  0  0  0  0  0  0  0  0  0  0
   11.2845  -14.9144   27.1487 C   0  0  0  0  0  0  0  0  0  0  0  0
   10.7366  -13.7141   26.7513 C   0  0  0  0  0  0  0  0  0  0  0  0
   10.1030  -12.8882   27.6521 C   0  0  0  0  0  0  0  0  0  0  0  0
   10.0081  -13.2596   28.9843 C   0  0  0  0  0  0  0  0  0  0  0  0
   10.5481  -14.4496   29.3925 C   0  0  0  0  0  0  0  0  0  0  0  0
   11.1807  -15.2659   28.4739 C   0  0  0  0  0  0  0  0  0  0  0  0
   10.1844  -17.5330   26.4147 C   0  0  0  0  0  0  0  0  0  0  0  0
    8.8397  -17.3213   26.5471 O   0  0  0  0  0  0  0  0  0  0  0  0
   10.7164  -18.4319   27.1056 O   0  0  0  0  0  0  0  0  0  0  0  0
  2  1  1  6
  2  3  1  0
  4  2  1  0
  4  5  1  6
  6  7  2  0
  6  4  1  0
  8  6  1  0
  9  8  1  0
 10 11  1  0
  9 10  1  1
 11 12  2  0
 11 16  1  0
 12 13  1  0
 13 14  2  0
 15 14  1  0
 16 15  2  0
 17  9  1  0
 17 18  2  0
 19 17  1  0
 20 19  1  0
 20 21  1  1
 22 21  1  0
 22 23  2  0
 24 23  1  0
 25 24  2  0
 26 27  2  0
 26 25  1  0
 27 22  1  0
 28 20  1  0
 29 28  1  0
 30 28  2  0
M  END
$$$$
