VFF.pdb
     RDKit          3D

 30 31  0  0  1  0  0  0  0  0999 V2000
   10.1816  -20.0183   21.3426 C   0  0  0  0  0  0  0  0  0  0  0  0
   10.3572  -19.4129   19.9598 C   0  0  1  0  0  0  0  0  0  0  0  0
   10.2683  -20.5190   18.9339 C   0  0  0  0  0  0  0  0  0  0  0  0
    9.2523  -18.3941   19.7890 C   0  0  2  0  0  0  0  0  0  0  0  0
    9.1234  -17.9749   18.4134 N   0  0  0  0  0  0  0  0  0  0  0  0
    9.3996  -17.2283   20.7025 C   0  0  0  0  0  0  0  0  0  0  0  0
   10.3538  -16.3941   20.5446 O   0  0  0  0  0  0  0  0  0  0  0  0
    8.4856  -17.0124   21.7695 N   0  0  0  0  0  0  0  0  0  0  0  0
    8.5901  -15.9016   22.6858 C   0  0  1  0  0  0  0  0  0  0  0  0
    7.1655  -15.5203   23.0371 C   0  0  0  0  0  0  0  0  0  0  0  0
    7.0802  -14.4723   24.0821 C   0  0  0  0  0  0  0  0  0  0  0  0
    6.5474  -14.7083   25.3326 C   0  0  0  0  0  0  0  0  0  0  0  0
    6.4780  -13.7179   26.3001 C   0  0  0  0  0  0  0  0  0  0  0  0
    6.9423  -12.4431   26.0528 C   0  0  0  0  0  0  0  0  0  0  0  0
    7.4762  -12.1992   24.8050 C   0  0  0  0  0  0  0  0  0  0  0  0
    7.5446  -13.1863   23.8430 C   0  0  0  0  0  0  0  0  0  0  0  0
    9.3899  -16.3063   23.8458 C   0  0  0  0  0  0  0  0  0  0  0  0
    8.9778  -17.2215   24.5869 O   0  0  0  0  0  0  0  0  0  0  0  0
   10.6167  -15.6838   24.1429 N   0  0  0  0  0  0  0  0  0  0  0  0
   11.4094  -16.1228   25.3022 C   0  0  1  0  0  0  0  0  0  0  0  0
   10.5141  -16.5081   26.4403 C   0  0  0  0  0  0  0  0  0  0  0  0
   10.3466  -15.4279   27.4314 C   0  0  0  0  0  0  0  0  0  0  0  0
   10.1066  -14.1425   26.9966 C   0  0  0  0  0  0  0  0  0  0  0  0
    9.9326  -13.1099   27.8902 C   0  0  0  0  0  0  0  0  0  0  0  0
    9.9976  -13.3550   29.2530 C   0  0  0  0  0  0  0  0  0  0  0  0
   10.2354  -14.6275   29.6985 C   0  0  0  0  0  0  0  0  0  0  0  0
   10.4077  -15.6517   28.7866 C   0  0  0  0  0  0  0  0  0  0  0  0
   12.3872  -17.1497   24.9134 C   0  0  0  0  0  0  0  0  0  0  0  0
   12.1367  -18.0193   23.8880 O   0  0  0  0  0  0  0  0  0  0  0  0
   13.4774  -17.2452   25.5222 O   0  0  0  0  0  0  0  0  0  0  0  0
  2  1  1  1
  2  3  1  0
  4  2  1  0
  4  5  1  6
  6  7  2  0
  6  4  1  0
  8  6  1  0
  9  8  1  0
 10 11  1  0
  9 10  1  1
 11 12  2  0
 11 16  1  0
 12 13  1  0
 13 14  2  0
 15 14  1  0
 16 15  2  0
 17  9  1  0
 17 18  2  0
 19 17  1  0
 20 19  1  0
 20 21  1  1
 22 21  1  0
 22 23  2  0
 24 23  1  0
 25 24  2  0
 26 27  2  0
 26 25  1  0
 27 22  1  0
 28 20  1  0
 29 28  1  0
 30 28  2  0
M  END
$$$$
