VFF.pdb
     RDKit          3D

 30 31  0  0  1  0  0  0  0  0999 V2000
    7.7592  -22.3415   23.3085 C   0  0  0  0  0  0  0  0  0  0  0  0
    8.4181  -20.9764   23.1996 C   0  0  1  0  0  0  0  0  0  0  0  0
    9.9103  -21.1458   23.3685 C   0  0  0  0  0  0  0  0  0  0  0  0
    8.0627  -20.4311   21.8343 C   0  0  2  0  0  0  0  0  0  0  0  0
    8.4910  -21.3187   20.7791 N   0  0  0  0  0  0  0  0  0  0  0  0
    8.5657  -19.0469   21.6196 C   0  0  0  0  0  0  0  0  0  0  0  0
    9.7087  -18.8449   21.0867 O   0  0  0  0  0  0  0  0  0  0  0  0
    7.7904  -17.9176   21.9994 N   0  0  0  0  0  0  0  0  0  0  0  0
    8.2454  -16.5570   21.8367 C   0  0  1  0  0  0  0  0  0  0  0  0
    6.9953  -15.6993   21.8469 C   0  0  0  0  0  0  0  0  0  0  0  0
    7.2531  -14.2839   21.4897 C   0  0  0  0  0  0  0  0  0  0  0  0
    7.2545  -13.2679   22.4231 C   0  0  0  0  0  0  0  0  0  0  0  0
    7.5008  -11.9494   22.0731 C   0  0  0  0  0  0  0  0  0  0  0  0
    7.7570  -11.5927   20.7658 C   0  0  0  0  0  0  0  0  0  0  0  0
    7.7572  -12.6025   19.8267 C   0  0  0  0  0  0  0  0  0  0  0  0
    7.5119  -13.9146   20.1770 C   0  0  0  0  0  0  0  0  0  0  0  0
    9.1867  -16.2311   22.9122 C   0  0  0  0  0  0  0  0  0  0  0  0
   10.2946  -15.7323   22.6287 O   0  0  0  0  0  0  0  0  0  0  0  0
    8.8674  -16.4688   24.2622 N   0  0  0  0  0  0  0  0  0  0  0  0
    9.7425  -15.9628   25.3314 C   0  0  1  0  0  0  0  0  0  0  0  0
    8.9420  -15.6086   26.5475 C   0  0  0  0  0  0  0  0  0  0  0  0
    7.9332  -14.5636   26.2878 C   0  0  0  0  0  0  0  0  0  0  0  0
    6.6126  -14.9234   26.1278 C   0  0  0  0  0  0  0  0  0  0  0  0
    5.6403  -13.9769   25.8963 C   0  0  0  0  0  0  0  0  0  0  0  0
    5.9831  -12.6359   25.8209 C   0  0  0  0  0  0  0  0  0  0  0  0
    7.2915  -12.2647   25.9781 C   0  0  0  0  0  0  0  0  0  0  0  0
    8.2541  -13.2290   26.2097 C   0  0  0  0  0  0  0  0  0  0  0  0
   10.8608  -16.8850   25.5777 C   0  0  0  0  0  0  0  0  0  0  0  0
   11.9328  -16.5157   26.3424 O   0  0  0  0  0  0  0  0  0  0  0  0
   10.8490  -18.0365   25.0856 O   0  0  0  0  0  0  0  0  0  0  0  0
  2  1  1  6
  2  3  1  0
  4  2  1  0
  4  5  1  6
  6  7  2  0
  6  4  1  0
  8  6  1  0
  9  8  1  0
 10 11  1  0
  9 10  1  1
 11 12  2  0
 11 16  1  0
 12 13  1  0
 13 14  2  0
 15 14  1  0
 16 15  2  0
 17  9  1  0
 17 18  2  0
 19 17  1  0
 20 19  1  0
 20 21  1  1
 22 21  1  0
 22 23  2  0
 24 23  1  0
 25 24  2  0
 26 27  2  0
 26 25  1  0
 27 22  1  0
 28 20  1  0
 29 28  1  0
 30 28  2  0
M  END
$$$$
