VFF.pdb
     RDKit          3D

 30 31  0  0  1  0  0  0  0  0999 V2000
    9.9304  -19.5378   20.2471 C   0  0  0  0  0  0  0  0  0  0  0  0
   10.5176  -18.7230   19.1066 C   0  0  1  0  0  0  0  0  0  0  0  0
   10.4966  -19.5644   17.8515 C   0  0  0  0  0  0  0  0  0  0  0  0
    9.6591  -17.4851   18.9712 C   0  0  2  0  0  0  0  0  0  0  0  0
    9.9784  -16.7449   17.7734 N   0  0  0  0  0  0  0  0  0  0  0  0
    9.7093  -16.6161   20.1784 C   0  0  0  0  0  0  0  0  0  0  0  0
   10.7317  -15.8878   20.4141 O   0  0  0  0  0  0  0  0  0  0  0  0
    8.6252  -16.5728   21.0968 N   0  0  0  0  0  0  0  0  0  0  0  0
    8.6467  -15.7855   22.3068 C   0  0  1  0  0  0  0  0  0  0  0  0
    7.2698  -15.1607   22.4177 C   0  0  0  0  0  0  0  0  0  0  0  0
    7.0859  -14.3641   23.6543 C   0  0  0  0  0  0  0  0  0  0  0  0
    6.4901  -14.8754   24.7887 C   0  0  0  0  0  0  0  0  0  0  0  0
    6.3287  -14.1180   25.9384 C   0  0  0  0  0  0  0  0  0  0  0  0
    6.7599  -12.8094   25.9989 C   0  0  0  0  0  0  0  0  0  0  0  0
    7.3564  -12.2909   24.8689 C   0  0  0  0  0  0  0  0  0  0  0  0
    7.5164  -13.0464   23.7252 C   0  0  0  0  0  0  0  0  0  0  0  0
    8.9889  -16.6509   23.4396 C   0  0  0  0  0  0  0  0  0  0  0  0
    8.0941  -17.3221   23.9921 O   0  0  0  0  0  0  0  0  0  0  0  0
   10.3090  -16.7419   23.9191 N   0  0  0  0  0  0  0  0  0  0  0  0
   10.6081  -16.4439   25.3286 C   0  0  1  0  0  0  0  0  0  0  0  0
   10.0582  -15.1045   25.7148 C   0  0  0  0  0  0  0  0  0  0  0  0
   10.2476  -14.7957   27.1451 C   0  0  0  0  0  0  0  0  0  0  0  0
   11.3332  -14.0424   27.5363 C   0  0  0  0  0  0  0  0  0  0  0  0
   11.5378  -13.7228   28.8595 C   0  0  0  0  0  0  0  0  0  0  0  0
   10.6436  -14.1605   29.8240 C   0  0  0  0  0  0  0  0  0  0  0  0
    9.5608  -14.9097   29.4490 C   0  0  0  0  0  0  0  0  0  0  0  0
    9.3716  -15.2209   28.1157 C   0  0  0  0  0  0  0  0  0  0  0  0
   10.1953  -17.5534   26.2008 C   0  0  0  0  0  0  0  0  0  0  0  0
    8.9104  -18.0218   26.1969 O   0  0  0  0  0  0  0  0  0  0  0  0
   11.0234  -18.0930   26.9697 O   0  0  0  0  0  0  0  0  0  0  0  0
  2  1  1  1
  2  3  1  0
  4  2  1  0
  4  5  1  6
  6  7  2  0
  6  4  1  0
  8  6  1  0
  9  8  1  0
 10 11  1  0
  9 10  1  1
 11 12  2  0
 11 16  1  0
 12 13  1  0
 13 14  2  0
 15 14  1  0
 16 15  2  0
 17  9  1  0
 17 18  2  0
 19 17  1  0
 20 19  1  0
 20 21  1  1
 22 21  1  0
 22 23  2  0
 24 23  1  0
 25 24  2  0
 26 27  2  0
 26 25  1  0
 27 22  1  0
 28 20  1  0
 29 28  1  0
 30 28  2  0
M  END
$$$$
