VFF.pdb
     RDKit          3D

 30 31  0  0  1  0  0  0  0  0999 V2000
    9.7832  -20.1870   18.4986 C   0  0  0  0  0  0  0  0  0  0  0  0
    9.9875  -19.3232   19.7321 C   0  0  1  0  0  0  0  0  0  0  0  0
   11.4230  -19.4594   20.1844 C   0  0  0  0  0  0  0  0  0  0  0  0
    9.6550  -17.9042   19.3277 C   0  0  2  0  0  0  0  0  0  0  0  0
   10.5057  -17.4434   18.2559 N   0  0  0  0  0  0  0  0  0  0  0  0
    9.6690  -16.9605   20.4785 C   0  0  0  0  0  0  0  0  0  0  0  0
   10.6800  -16.2099   20.6926 O   0  0  0  0  0  0  0  0  0  0  0  0
    8.5621  -16.8688   21.3655 N   0  0  0  0  0  0  0  0  0  0  0  0
    8.5363  -15.9851   22.5070 C   0  0  1  0  0  0  0  0  0  0  0  0
    7.0765  -15.6435   22.7321 C   0  0  0  0  0  0  0  0  0  0  0  0
    6.8591  -14.7276   23.8773 C   0  0  0  0  0  0  0  0  0  0  0  0
    7.1967  -13.3906   23.8370 C   0  0  0  0  0  0  0  0  0  0  0  0
    6.9837  -12.5465   24.9159 C   0  0  0  0  0  0  0  0  0  0  0  0
    6.4205  -13.0104   26.0862 C   0  0  0  0  0  0  0  0  0  0  0  0
    6.0803  -14.3459   26.1344 C   0  0  0  0  0  0  0  0  0  0  0  0
    6.2930  -15.1847   25.0594 C   0  0  0  0  0  0  0  0  0  0  0  0
    9.1628  -16.6553   23.6504 C   0  0  0  0  0  0  0  0  0  0  0  0
    8.8422  -17.8292   23.9256 O   0  0  0  0  0  0  0  0  0  0  0  0
   10.1216  -16.0020   24.4471 N   0  0  0  0  0  0  0  0  0  0  0  0
   10.8805  -16.7530   25.4596 C   0  0  1  0  0  0  0  0  0  0  0  0
   11.8934  -15.8709   26.1240 C   0  0  0  0  0  0  0  0  0  0  0  0
   11.3020  -14.9812   27.1417 C   0  0  0  0  0  0  0  0  0  0  0  0
   11.3419  -15.3510   28.4686 C   0  0  0  0  0  0  0  0  0  0  0  0
   10.8120  -14.5425   29.4487 C   0  0  0  0  0  0  0  0  0  0  0  0
   10.2257  -13.3337   29.1075 C   0  0  0  0  0  0  0  0  0  0  0  0
   10.1795  -12.9542   27.7928 C   0  0  0  0  0  0  0  0  0  0  0  0
   10.7166  -13.7788   26.8224 C   0  0  0  0  0  0  0  0  0  0  0  0
    9.9762  -17.4550   26.3822 C   0  0  0  0  0  0  0  0  0  0  0  0
    8.6404  -17.1653   26.4279 O   0  0  0  0  0  0  0  0  0  0  0  0
   10.4201  -18.3397   27.1494 O   0  0  0  0  0  0  0  0  0  0  0  0
  2  1  1  6
  2  3  1  0
  4  2  1  0
  4  5  1  6
  6  7  2  0
  6  4  1  0
  8  6  1  0
  9  8  1  0
 10 11  1  0
  9 10  1  1
 11 12  2  0
 11 16  1  0
 12 13  1  0
 13 14  2  0
 15 14  1  0
 16 15  2  0
 17  9  1  0
 17 18  2  0
 19 17  1  0
 20 19  1  0
 20 21  1  1
 22 21  1  0
 22 23  2  0
 24 23  1  0
 25 24  2  0
 26 27  2  0
 26 25  1  0
 27 22  1  0
 28 20  1  0
 29 28  1  0
 30 28  2  0
M  END
$$$$
