VFF.pdb
     RDKit          3D

 30 31  0  0  1  0  0  0  0  0999 V2000
    7.7177  -20.3556   24.5631 C   0  0  0  0  0  0  0  0  0  0  0  0
    8.1761  -21.1403   23.3451 C   0  0  1  0  0  0  0  0  0  0  0  0
    7.6773  -22.5613   23.4706 C   0  0  0  0  0  0  0  0  0  0  0  0
    7.5945  -20.4424   22.1357 C   0  0  2  0  0  0  0  0  0  0  0  0
    7.7634  -21.2279   20.9361 N   0  0  0  0  0  0  0  0  0  0  0  0
    8.1207  -19.0612   21.9611 C   0  0  0  0  0  0  0  0  0  0  0  0
    9.3055  -18.8661   21.5258 O   0  0  0  0  0  0  0  0  0  0  0  0
    7.3220  -17.9272   22.2718 N   0  0  0  0  0  0  0  0  0  0  0  0
    7.8151  -16.5719   22.2042 C   0  0  1  0  0  0  0  0  0  0  0  0
    6.7079  -15.7610   21.5600 C   0  0  0  0  0  0  0  0  0  0  0  0
    7.1144  -14.3747   21.2277 C   0  0  0  0  0  0  0  0  0  0  0  0
    6.8538  -13.3026   22.0560 C   0  0  0  0  0  0  0  0  0  0  0  0
    7.2438  -12.0124   21.7320 C   0  0  0  0  0  0  0  0  0  0  0  0
    7.9146  -11.7419   20.5578 C   0  0  0  0  0  0  0  0  0  0  0  0
    8.1787  -12.8083   19.7243 C   0  0  0  0  0  0  0  0  0  0  0  0
    7.7898  -14.0921   20.0485 C   0  0  0  0  0  0  0  0  0  0  0  0
    8.1634  -16.1172   23.5537 C   0  0  0  0  0  0  0  0  0  0  0  0
    7.4602  -15.2498   24.1103 O   0  0  0  0  0  0  0  0  0  0  0  0
    9.2770  -16.6393   24.2379 N   0  0  0  0  0  0  0  0  0  0  0  0
   10.0733  -15.7769   25.1251 C   0  0  1  0  0  0  0  0  0  0  0  0
    9.3211  -15.4760   26.3857 C   0  0  0  0  0  0  0  0  0  0  0  0
    8.3890  -14.3413   26.2423 C   0  0  0  0  0  0  0  0  0  0  0  0
    7.0364  -14.5855   26.1436 C   0  0  0  0  0  0  0  0  0  0  0  0
    6.1341  -13.5531   26.0210 C   0  0  0  0  0  0  0  0  0  0  0  0
    6.5816  -12.2414   25.9953 C   0  0  0  0  0  0  0  0  0  0  0  0
    7.9229  -11.9847   26.0927 C   0  0  0  0  0  0  0  0  0  0  0  0
    8.8141  -13.0340   26.2151 C   0  0  0  0  0  0  0  0  0  0  0  0
   11.4197  -16.3313   25.3293 C   0  0  0  0  0  0  0  0  0  0  0  0
   12.3478  -15.6826   26.0962 O   0  0  0  0  0  0  0  0  0  0  0  0
   11.7415  -17.4187   24.7979 O   0  0  0  0  0  0  0  0  0  0  0  0
  2  1  1  1
  2  3  1  0
  4  2  1  0
  4  5  1  6
  6  7  2  0
  6  4  1  0
  8  6  1  0
  9  8  1  0
 10 11  1  0
  9 10  1  1
 11 12  2  0
 11 16  1  0
 12 13  1  0
 13 14  2  0
 15 14  1  0
 16 15  2  0
 17  9  1  0
 17 18  2  0
 19 17  1  0
 20 19  1  0
 20 21  1  1
 22 21  1  0
 22 23  2  0
 24 23  1  0
 25 24  2  0
 26 27  2  0
 26 25  1  0
 27 22  1  0
 28 20  1  0
 29 28  1  0
 30 28  2  0
M  END
$$$$
