VFF.pdb
     RDKit          3D

 30 31  0  0  1  0  0  0  0  0999 V2000
    9.8914  -19.7459   20.7068 C   0  0  0  0  0  0  0  0  0  0  0  0
   10.4890  -18.9313   19.5715 C   0  0  1  0  0  0  0  0  0  0  0  0
   10.3879  -19.7348   18.2956 C   0  0  0  0  0  0  0  0  0  0  0  0
    9.6941  -17.6468   19.4944 C   0  0  2  0  0  0  0  0  0  0  0  0
   10.0517  -16.8690   18.3317 N   0  0  0  0  0  0  0  0  0  0  0  0
    9.7867  -16.8381   20.7404 C   0  0  0  0  0  0  0  0  0  0  0  0
   10.8902  -16.2938   21.0827 O   0  0  0  0  0  0  0  0  0  0  0  0
    8.6542  -16.6498   21.5786 N   0  0  0  0  0  0  0  0  0  0  0  0
    8.6902  -15.8644   22.7895 C   0  0  1  0  0  0  0  0  0  0  0  0
    7.2496  -15.4976   23.0870 C   0  0  0  0  0  0  0  0  0  0  0  0
    7.1034  -14.6005   24.2581 C   0  0  0  0  0  0  0  0  0  0  0  0
    7.6140  -13.3191   24.2839 C   0  0  0  0  0  0  0  0  0  0  0  0
    7.4658  -12.4915   25.3861 C   0  0  0  0  0  0  0  0  0  0  0  0
    6.7960  -12.9165   26.5143 C   0  0  0  0  0  0  0  0  0  0  0  0
    6.2828  -14.1963   26.4964 C   0  0  0  0  0  0  0  0  0  0  0  0
    6.4313  -15.0188   25.3983 C   0  0  0  0  0  0  0  0  0  0  0  0
    9.3259  -16.6470   23.8536 C   0  0  0  0  0  0  0  0  0  0  0  0
    8.9829  -17.8332   24.0325 O   0  0  0  0  0  0  0  0  0  0  0  0
   10.3183  -16.0885   24.6807 N   0  0  0  0  0  0  0  0  0  0  0  0
   11.0173  -16.9251   25.6688 C   0  0  1  0  0  0  0  0  0  0  0  0
   12.0094  -16.1122   26.4437 C   0  0  0  0  0  0  0  0  0  0  0  0
   11.3731  -15.1960   27.4094 C   0  0  0  0  0  0  0  0  0  0  0  0
   11.2438  -15.5838   28.7254 C   0  0  0  0  0  0  0  0  0  0  0  0
   10.6671  -14.7524   29.6588 C   0  0  0  0  0  0  0  0  0  0  0  0
   10.2048  -13.5016   29.2805 C   0  0  0  0  0  0  0  0  0  0  0  0
   10.3271  -13.1038   27.9762 C   0  0  0  0  0  0  0  0  0  0  0  0
   10.9087  -13.9519   27.0529 C   0  0  0  0  0  0  0  0  0  0  0  0
   10.0602  -17.6775   26.4933 C   0  0  0  0  0  0  0  0  0  0  0  0
    8.7228  -17.3929   26.4699 O   0  0  0  0  0  0  0  0  0  0  0  0
   10.4594  -18.6014   27.2385 O   0  0  0  0  0  0  0  0  0  0  0  0
  2  1  1  1
  2  3  1  0
  4  2  1  0
  4  5  1  6
  6  7  2  0
  6  4  1  0
  8  6  1  0
  9  8  1  0
 10 11  1  0
  9 10  1  1
 11 12  2  0
 11 16  1  0
 12 13  1  0
 13 14  2  0
 15 14  1  0
 16 15  2  0
 17  9  1  0
 17 18  2  0
 19 17  1  0
 20 19  1  0
 20 21  1  1
 22 21  1  0
 22 23  2  0
 24 23  1  0
 25 24  2  0
 26 27  2  0
 26 25  1  0
 27 22  1  0
 28 20  1  0
 29 28  1  0
 30 28  2  0
M  END
$$$$
