DNM.pdb
     RDKit          3D

 25 24  0  0  1  0  0  0  0  0999 V2000
   11.6713  -19.2335   20.5544 N   0  0  0  0  0  0  0  0  0  0  0  0
   12.3229  -17.9756   20.3103 C   0  0  1  0  0  0  0  0  0  0  0  0
   12.7209  -17.9192   18.8513 C   0  0  0  0  0  0  0  0  0  0  0  0
   13.5790  -19.0557   18.4713 C   0  0  0  0  0  0  0  0  0  0  0  0
   14.4577  -19.5146   19.2400 O   0  0  0  0  0  0  0  0  0  0  0  0
   11.4385  -16.8177   20.5880 C   0  0  0  0  0  0  0  0  0  0  0  0
   11.8238  -15.6473   20.3363 O   0  0  0  0  0  0  0  0  0  0  0  0
   13.4199  -19.6435   17.2301 O   0  0  0  0  0  0  0  0  0  0  0  0
    7.1416  -13.6012   20.5739 N   0  0  0  0  0  0  0  0  0  0  0  0
    6.9910  -14.8962   21.0829 C   0  0  0  0  0  0  0  0  0  0  0  0
    5.9334  -15.1223   21.7501 O   0  0  0  0  0  0  0  0  0  0  0  0
    7.9128  -16.0200   20.9345 C   0  0  0  0  0  0  0  0  0  0  0  0
    9.2951  -15.8037   21.4377 C   0  0  2  0  0  0  0  0  0  0  0  0
   10.1261  -16.9438   21.1439 N   0  0  0  0  0  0  0  0  0  0  0  0
    9.3844  -15.3749   22.8387 C   0  0  0  0  0  0  0  0  0  0  0  0
   10.2923  -14.5665   23.1552 O   0  0  0  0  0  0  0  0  0  0  0  0
    5.9723  -11.1042   26.3786 C   0  0  0  0  0  0  0  0  0  0  0  0
    7.3245  -12.2720   26.6795 S   0  0  0  0  0  0  0  0  0  0  0  0
    6.7614  -13.9724   26.5638 C   0  0  0  0  0  0  0  0  0  0  0  0
    7.0460  -14.5988   25.2303 C   0  0  0  0  0  0  0  0  0  0  0  0
    8.3927  -15.2653   25.1549 C   0  0  2  0  0  0  0  0  0  0  0  0
    8.4780  -15.8541   23.8090 N   0  0  0  0  0  0  0  0  0  0  0  0
    8.5958  -16.2997   26.1908 C   0  0  0  0  0  0  0  0  0  0  0  0
    8.2011  -17.4723   25.9882 O   0  0  0  0  0  0  0  0  0  0  0  0
    9.2156  -16.0210   27.3985 O   0  0  0  0  0  0  0  0  0  0  0  0
  2  3  1  0
  2  1  1  6
  3  4  1  0
  4  8  1  0
  4  5  2  0
  6  2  1  0
  6  7  2  0
  9 10  1  0
 10 12  1  0
 10 11  2  0
 13 12  1  1
 13 14  1  0
 13 15  1  0
 14  6  1  0
 15 22  1  0
 16 15  2  0
 18 19  1  0
 18 17  1  0
 20 19  1  0
 21 20  1  1
 21 23  1  0
 22 21  1  0
 23 24  2  0
 23 25  1  0
M  END
$$$$
