DNM.pdb
     RDKit          3D

 25 24  0  0  1  0  0  0  0  0999 V2000
    7.7871  -16.1300   19.3033 N   0  0  0  0  0  0  0  0  0  0  0  0
    7.4997  -17.2742   20.1245 C   0  0  1  0  0  0  0  0  0  0  0  0
    7.5812  -18.5144   19.2611 C   0  0  0  0  0  0  0  0  0  0  0  0
    7.5087  -18.1901   17.8251 C   0  0  0  0  0  0  0  0  0  0  0  0
    6.8156  -17.2395   17.3899 O   0  0  0  0  0  0  0  0  0  0  0  0
    8.4674  -17.4281   21.2381 C   0  0  0  0  0  0  0  0  0  0  0  0
    8.3266  -18.3505   22.0812 O   0  0  0  0  0  0  0  0  0  0  0  0
    8.2234  -18.9510   16.9186 O   0  0  0  0  0  0  0  0  0  0  0  0
   12.7567  -16.7484   19.6286 N   0  0  0  0  0  0  0  0  0  0  0  0
   12.3168  -17.2720   20.8497 C   0  0  0  0  0  0  0  0  0  0  0  0
   12.2532  -18.5384   20.9321 O   0  0  0  0  0  0  0  0  0  0  0  0
   11.9215  -16.5271   22.0428 C   0  0  0  0  0  0  0  0  0  0  0  0
   10.5267  -16.7368   22.5132 C   0  0  2  0  0  0  0  0  0  0  0  0
    9.5942  -16.5669   21.4277 N   0  0  0  0  0  0  0  0  0  0  0  0
   10.1560  -15.9750   23.7120 C   0  0  0  0  0  0  0  0  0  0  0  0
   10.3747  -14.7381   23.7203 O   0  0  0  0  0  0  0  0  0  0  0  0
    7.5186  -11.8903   25.0167 C   0  0  0  0  0  0  0  0  0  0  0  0
    7.6331  -12.4212   26.7451 S   0  0  0  0  0  0  0  0  0  0  0  0
    7.5602  -14.2089   26.8890 C   0  0  0  0  0  0  0  0  0  0  0  0
    8.1456  -14.9205   25.7047 C   0  0  0  0  0  0  0  0  0  0  0  0
    9.2511  -15.8756   26.0639 C   0  0  2  0  0  0  0  0  0  0  0  0
    9.5696  -16.6091   24.8286 N   0  0  0  0  0  0  0  0  0  0  0  0
    8.8898  -16.8123   27.1485 C   0  0  0  0  0  0  0  0  0  0  0  0
    8.8513  -16.4090   28.3350 O   0  0  0  0  0  0  0  0  0  0  0  0
    8.5866  -18.1420   26.9029 O   0  0  0  0  0  0  0  0  0  0  0  0
  2  3  1  0
  2  1  1  6
  3  4  1  0
  4  8  1  0
  4  5  2  0
  6  2  1  0
  6  7  2  0
  9 10  1  0
 10 12  1  0
 10 11  2  0
 13 12  1  6
 13 14  1  0
 13 15  1  0
 14  6  1  0
 15 22  1  0
 16 15  2  0
 18 19  1  0
 18 17  1  0
 20 19  1  0
 21 20  1  6
 21 23  1  0
 22 21  1  0
 23 24  2  0
 23 25  1  0
M  END
$$$$
