DNM.pdb
     RDKit          3D

 25 24  0  0  1  0  0  0  0  0999 V2000
   11.9647  -17.6316   20.6190 N   0  0  0  0  0  0  0  0  0  0  0  0
   11.9841  -16.4359   21.4167 C   0  0  1  0  0  0  0  0  0  0  0  0
   12.1057  -15.2455   20.4901 C   0  0  0  0  0  0  0  0  0  0  0  0
   13.4318  -15.1804   19.8502 C   0  0  0  0  0  0  0  0  0  0  0  0
   14.4826  -15.4953   20.4588 O   0  0  0  0  0  0  0  0  0  0  0  0
   10.7452  -16.2689   22.2151 C   0  0  0  0  0  0  0  0  0  0  0  0
   10.0127  -15.2600   22.0505 O   0  0  0  0  0  0  0  0  0  0  0  0
   13.5340  -14.7601   18.5371 O   0  0  0  0  0  0  0  0  0  0  0  0
    6.0815  -17.6531   24.4309 N   0  0  0  0  0  0  0  0  0  0  0  0
    7.0898  -18.6214   24.4986 C   0  0  0  0  0  0  0  0  0  0  0  0
    6.7988  -19.6997   25.1047 O   0  0  0  0  0  0  0  0  0  0  0  0
    8.4415  -18.5337   23.9510 C   0  0  0  0  0  0  0  0  0  0  0  0
    8.9953  -17.1631   23.7908 C   0  0  2  0  0  0  0  0  0  0  0  0
   10.3079  -17.2124   23.1980 N   0  0  0  0  0  0  0  0  0  0  0  0
    8.9418  -16.3283   24.9970 C   0  0  0  0  0  0  0  0  0  0  0  0
    7.8677  -16.2932   25.6474 O   0  0  0  0  0  0  0  0  0  0  0  0
    5.6630  -13.2532   26.7374 C   0  0  0  0  0  0  0  0  0  0  0  0
    6.8525  -12.3559   27.7682 S   0  0  0  0  0  0  0  0  0  0  0  0
    8.4429  -13.1868   27.8103 C   0  0  0  0  0  0  0  0  0  0  0  0
    8.6680  -14.0902   26.6334 C   0  0  0  0  0  0  0  0  0  0  0  0
   10.0276  -14.7342   26.6219 C   0  0  2  0  0  0  0  0  0  0  0  0
   10.0633  -15.5826   25.4201 N   0  0  0  0  0  0  0  0  0  0  0  0
   10.3103  -15.5328   27.8330 C   0  0  0  0  0  0  0  0  0  0  0  0
   10.7443  -14.9692   28.8654 O   0  0  0  0  0  0  0  0  0  0  0  0
   10.1118  -16.9037   27.8743 O   0  0  0  0  0  0  0  0  0  0  0  0
  2  3  1  0
  2  1  1  6
  3  4  1  0
  4  8  1  0
  4  5  2  0
  6  2  1  0
  6  7  2  0
  9 10  1  0
 10 12  1  0
 10 11  2  0
 13 12  1  1
 13 14  1  0
 13 15  1  0
 14  6  1  0
 15 22  1  0
 16 15  2  0
 18 19  1  0
 18 17  1  0
 20 19  1  0
 21 20  1  1
 21 23  1  0
 22 21  1  0
 23 24  2  0
 23 25  1  0
M  END
$$$$
