DNM.pdb
     RDKit          3D

 25 24  0  0  1  0  0  0  0  0999 V2000
    9.7473  -17.6646   18.6305 N   0  0  0  0  0  0  0  0  0  0  0  0
    8.6695  -16.7193   18.7374 C   0  0  1  0  0  0  0  0  0  0  0  0
    7.6434  -17.0427   17.6732 C   0  0  0  0  0  0  0  0  0  0  0  0
    8.1926  -16.8860   16.3144 C   0  0  0  0  0  0  0  0  0  0  0  0
    8.6301  -17.8594   15.6552 O   0  0  0  0  0  0  0  0  0  0  0  0
    7.9942  -16.7790   20.0567 C   0  0  0  0  0  0  0  0  0  0  0  0
    7.0249  -16.0192   20.3107 O   0  0  0  0  0  0  0  0  0  0  0  0
    8.2320  -15.6305   15.7368 O   0  0  0  0  0  0  0  0  0  0  0  0
    5.5624  -19.0791   24.5394 N   0  0  0  0  0  0  0  0  0  0  0  0
    6.9058  -19.2248   24.1749 C   0  0  0  0  0  0  0  0  0  0  0  0
    7.7162  -19.5205   25.1079 O   0  0  0  0  0  0  0  0  0  0  0  0
    7.4839  -19.0753   22.8415 C   0  0  0  0  0  0  0  0  0  0  0  0
    7.7487  -17.6819   22.3952 C   0  0  2  0  0  0  0  0  0  0  0  0
    8.3837  -17.6755   21.1016 N   0  0  0  0  0  0  0  0  0  0  0  0
    8.4396  -16.8376   23.3773 C   0  0  0  0  0  0  0  0  0  0  0  0
    9.6860  -16.9514   23.4855 O   0  0  0  0  0  0  0  0  0  0  0  0
    6.5821  -10.1676   26.5848 C   0  0  0  0  0  0  0  0  0  0  0  0
    6.1823  -11.9346   26.5622 S   0  0  0  0  0  0  0  0  0  0  0  0
    7.5326  -12.9046   25.8855 C   0  0  0  0  0  0  0  0  0  0  0  0
    7.2807  -14.3829   25.9368 C   0  0  0  0  0  0  0  0  0  0  0  0
    8.3681  -15.2002   25.2941 C   0  0  2  0  0  0  0  0  0  0  0  0
    7.7289  -15.9207   24.1815 N   0  0  0  0  0  0  0  0  0  0  0  0
    9.0193  -16.1472   26.2233 C   0  0  0  0  0  0  0  0  0  0  0  0
    8.4660  -17.2400   26.4906 O   0  0  0  0  0  0  0  0  0  0  0  0
   10.2383  -15.8711   26.8219 O   0  0  0  0  0  0  0  0  0  0  0  0
  2  3  1  0
  2  1  1  1
  3  4  1  0
  4  8  1  0
  4  5  2  0
  6  2  1  0
  6  7  2  0
  9 10  1  0
 10 12  1  0
 10 11  2  0
 13 12  1  1
 13 14  1  0
 13 15  1  0
 14  6  1  0
 15 22  1  0
 16 15  2  0
 18 19  1  0
 18 17  1  0
 20 19  1  0
 21 20  1  1
 21 23  1  0
 22 21  1  0
 23 24  2  0
 23 25  1  0
M  END
$$$$
