DNM.pdb
     RDKit          3D

 25 24  0  0  1  0  0  0  0  0999 V2000
    9.9653  -16.8463   19.8816 N   0  0  0  0  0  0  0  0  0  0  0  0
    8.6069  -16.4301   19.6624 C   0  0  1  0  0  0  0  0  0  0  0  0
    8.0410  -17.2335   18.5116 C   0  0  0  0  0  0  0  0  0  0  0  0
    8.7232  -16.9291   17.2409 C   0  0  0  0  0  0  0  0  0  0  0  0
    9.7743  -17.5170   16.8904 O   0  0  0  0  0  0  0  0  0  0  0  0
    7.7465  -16.6617   20.8483 C   0  0  0  0  0  0  0  0  0  0  0  0
    6.5319  -16.3365   20.8269 O   0  0  0  0  0  0  0  0  0  0  0  0
    8.1970  -15.9664   16.3996 O   0  0  0  0  0  0  0  0  0  0  0  0
    6.7162  -20.1494   25.6622 N   0  0  0  0  0  0  0  0  0  0  0  0
    6.3809  -19.2578   24.6369 C   0  0  0  0  0  0  0  0  0  0  0  0
    5.2512  -18.6841   24.7330 O   0  0  0  0  0  0  0  0  0  0  0  0
    7.1831  -18.9108   23.4661 C   0  0  0  0  0  0  0  0  0  0  0  0
    7.3704  -17.4585   23.2079 C   0  0  2  0  0  0  0  0  0  0  0  0
    8.2201  -17.2523   22.0624 N   0  0  0  0  0  0  0  0  0  0  0  0
    7.7809  -16.6695   24.3757 C   0  0  0  0  0  0  0  0  0  0  0  0
    7.0868  -16.7493   25.4197 O   0  0  0  0  0  0  0  0  0  0  0  0
    5.8421  -11.9061   25.2695 C   0  0  0  0  0  0  0  0  0  0  0  0
    6.8730  -11.8210   26.7570 S   0  0  0  0  0  0  0  0  0  0  0  0
    8.2034  -13.0247   26.7035 C   0  0  0  0  0  0  0  0  0  0  0  0
    8.0796  -13.9907   25.5620 C   0  0  0  0  0  0  0  0  0  0  0  0
    9.2576  -14.9170   25.4285 C   0  0  2  0  0  0  0  0  0  0  0  0
    8.9234  -15.8414   24.3335 N   0  0  0  0  0  0  0  0  0  0  0  0
    9.5620  -15.6636   26.6671 C   0  0  0  0  0  0  0  0  0  0  0  0
    9.9917  -15.0533   27.6745 O   0  0  0  0  0  0  0  0  0  0  0  0
    9.3890  -17.0353   26.7618 O   0  0  0  0  0  0  0  0  0  0  0  0
  2  3  1  0
  2  1  1  1
  3  4  1  0
  4  8  1  0
  4  5  2  0
  6  2  1  0
  6  7  2  0
  9 10  1  0
 10 12  1  0
 10 11  2  0
 13 12  1  1
 13 14  1  0
 13 15  1  0
 14  6  1  0
 15 22  1  0
 16 15  2  0
 18 19  1  0
 18 17  1  0
 20 19  1  0
 21 20  1  1
 21 23  1  0
 22 21  1  0
 23 24  2  0
 23 25  1  0
M  END
$$$$
