DNM.pdb
     RDKit          3D

 25 24  0  0  1  0  0  0  0  0999 V2000
    7.3985  -18.7341   20.0767 N   0  0  0  0  0  0  0  0  0  0  0  0
    8.7900  -18.7233   19.7160 C   0  0  1  0  0  0  0  0  0  0  0  0
    8.9002  -18.9850   18.2296 C   0  0  0  0  0  0  0  0  0  0  0  0
    7.9578  -20.0268   17.7835 C   0  0  0  0  0  0  0  0  0  0  0  0
    7.1536  -20.5805   18.5711 O   0  0  0  0  0  0  0  0  0  0  0  0
    9.4373  -17.4192   19.9998 C   0  0  0  0  0  0  0  0  0  0  0  0
   10.6547  -17.2424   19.7387 O   0  0  0  0  0  0  0  0  0  0  0  0
    7.9502  -20.4147   16.4565 O   0  0  0  0  0  0  0  0  0  0  0  0
    7.0004  -12.3056   19.9085 N   0  0  0  0  0  0  0  0  0  0  0  0
    7.5394  -13.5839   20.0935 C   0  0  0  0  0  0  0  0  0  0  0  0
    6.7214  -14.5016   20.4152 O   0  0  0  0  0  0  0  0  0  0  0  0
    8.9380  -13.9844   19.9587 C   0  0  0  0  0  0  0  0  0  0  0  0
    9.4028  -15.0581   20.8763 C   0  0  2  0  0  0  0  0  0  0  0  0
    8.7466  -16.3045   20.5723 N   0  0  0  0  0  0  0  0  0  0  0  0
    9.3542  -14.7176   22.3033 C   0  0  0  0  0  0  0  0  0  0  0  0
    9.9389  -13.6732   22.6845 O   0  0  0  0  0  0  0  0  0  0  0  0
    6.8234  -11.6208   27.2193 C   0  0  0  0  0  0  0  0  0  0  0  0
    5.9830  -13.0120   26.4187 S   0  0  0  0  0  0  0  0  0  0  0  0
    7.0109  -14.4835   26.4110 C   0  0  0  0  0  0  0  0  0  0  0  0
    7.2098  -15.0571   25.0387 C   0  0  0  0  0  0  0  0  0  0  0  0
    8.6563  -15.2428   24.6692 C   0  0  2  0  0  0  0  0  0  0  0  0
    8.6710  -15.5373   23.2275 N   0  0  0  0  0  0  0  0  0  0  0  0
    9.3237  -16.3208   25.4287 C   0  0  0  0  0  0  0  0  0  0  0  0
    9.4524  -16.2213   26.6719 O   0  0  0  0  0  0  0  0  0  0  0  0
    9.8219  -17.4571   24.8116 O   0  0  0  0  0  0  0  0  0  0  0  0
  2  3  1  0
  2  1  1  6
  3  4  1  0
  4  8  1  0
  4  5  2  0
  6  2  1  0
  6  7  2  0
  9 10  1  0
 10 12  1  0
 10 11  2  0
 13 12  1  6
 13 14  1  0
 13 15  1  0
 14  6  1  0
 15 22  1  0
 16 15  2  0
 18 19  1  0
 18 17  1  0
 20 19  1  0
 21 20  1  1
 21 23  1  0
 22 21  1  0
 23 24  2  0
 23 25  1  0
M  END
$$$$
