DNM.pdb
     RDKit          3D

 25 24  0  0  1  0  0  0  0  0999 V2000
   10.4986  -16.3856   19.5062 N   0  0  0  0  0  0  0  0  0  0  0  0
    9.1457  -16.7935   19.2426 C   0  0  1  0  0  0  0  0  0  0  0  0
    9.1800  -18.1165   18.5088 C   0  0  0  0  0  0  0  0  0  0  0  0
    9.7491  -17.9802   17.1560 C   0  0  0  0  0  0  0  0  0  0  0  0
    9.0395  -18.0472   16.1238 O   0  0  0  0  0  0  0  0  0  0  0  0
    8.3594  -16.9809   20.4863 C   0  0  0  0  0  0  0  0  0  0  0  0
    7.1840  -17.4251   20.4357 O   0  0  0  0  0  0  0  0  0  0  0  0
   11.1076  -17.7712   17.0070 O   0  0  0  0  0  0  0  0  0  0  0  0
    9.4694  -20.8235   23.6486 N   0  0  0  0  0  0  0  0  0  0  0  0
   10.3346  -19.8595   23.1187 C   0  0  0  0  0  0  0  0  0  0  0  0
   11.5553  -19.9456   23.4611 O   0  0  0  0  0  0  0  0  0  0  0  0
    9.9939  -18.7632   22.2150 C   0  0  0  0  0  0  0  0  0  0  0  0
    9.1216  -17.6984   22.7773 C   0  0  2  0  0  0  0  0  0  0  0  0
    8.8643  -16.6798   21.7908 N   0  0  0  0  0  0  0  0  0  0  0  0
    9.5645  -17.1505   24.0651 C   0  0  0  0  0  0  0  0  0  0  0  0
    9.8356  -17.9552   24.9907 O   0  0  0  0  0  0  0  0  0  0  0  0
    6.6426  -11.2883   25.4369 C   0  0  0  0  0  0  0  0  0  0  0  0
    6.0017  -12.7922   26.2180 S   0  0  0  0  0  0  0  0  0  0  0  0
    7.3150  -13.9692   26.5522 C   0  0  0  0  0  0  0  0  0  0  0  0
    7.9426  -14.5224   25.3066 C   0  0  0  0  0  0  0  0  0  0  0  0
    9.3059  -15.1167   25.5338 C   0  0  2  0  0  0  0  0  0  0  0  0
    9.6844  -15.7582   24.2647 N   0  0  0  0  0  0  0  0  0  0  0  0
    9.3448  -16.0921   26.6435 C   0  0  0  0  0  0  0  0  0  0  0  0
    8.7964  -17.2116   26.5103 O   0  0  0  0  0  0  0  0  0  0  0  0
    9.9739  -15.8145   27.8466 O   0  0  0  0  0  0  0  0  0  0  0  0
  2  3  1  0
  2  1  1  1
  3  4  1  0
  4  8  1  0
  4  5  2  0
  6  2  1  0
  6  7  2  0
  9 10  1  0
 10 12  1  0
 10 11  2  0
 13 12  1  6
 13 14  1  0
 13 15  1  0
 14  6  1  0
 15 22  1  0
 16 15  2  0
 18 19  1  0
 18 17  1  0
 20 19  1  0
 21 20  1  6
 21 23  1  0
 22 21  1  0
 23 24  2  0
 23 25  1  0
M  END
$$$$
