DNM.pdb
     RDKit          3D

 25 24  0  0  1  0  0  0  0  0999 V2000
    9.4372  -17.8558   20.5549 N   0  0  0  0  0  0  0  0  0  0  0  0
    8.5224  -16.7698   20.7783 C   0  0  1  0  0  0  0  0  0  0  0  0
    7.3161  -16.9704   19.8869 C   0  0  0  0  0  0  0  0  0  0  0  0
    7.6972  -17.1140   18.4704 C   0  0  0  0  0  0  0  0  0  0  0  0
    8.8949  -17.1059   18.0975 O   0  0  0  0  0  0  0  0  0  0  0  0
    8.0482  -16.7100   22.1825 C   0  0  0  0  0  0  0  0  0  0  0  0
    7.1994  -15.8504   22.5320 O   0  0  0  0  0  0  0  0  0  0  0  0
    6.7119  -17.2634   17.5121 O   0  0  0  0  0  0  0  0  0  0  0  0
    6.1977  -19.3912   23.4417 N   0  0  0  0  0  0  0  0  0  0  0  0
    6.9744  -19.6634   24.5737 C   0  0  0  0  0  0  0  0  0  0  0  0
    6.8333  -20.8145   25.0931 O   0  0  0  0  0  0  0  0  0  0  0  0
    7.9309  -18.7734   25.2276 C   0  0  0  0  0  0  0  0  0  0  0  0
    8.1303  -17.4448   24.5904 C   0  0  2  0  0  0  0  0  0  0  0  0
    8.5067  -17.5968   23.2076 N   0  0  0  0  0  0  0  0  0  0  0  0
    9.0108  -16.5302   25.3271 C   0  0  0  0  0  0  0  0  0  0  0  0
   10.2501  -16.6233   25.1442 O   0  0  0  0  0  0  0  0  0  0  0  0
    6.3565  -10.4622   25.4353 C   0  0  0  0  0  0  0  0  0  0  0  0
    6.8792  -11.4638   26.8517 S   0  0  0  0  0  0  0  0  0  0  0  0
    8.0234  -12.7550   26.3561 C   0  0  0  0  0  0  0  0  0  0  0  0
    8.5232  -13.5749   27.5091 C   0  0  0  0  0  0  0  0  0  0  0  0
    9.3511  -14.7591   27.0900 C   0  0  2  0  0  0  0  0  0  0  0  0
    8.4858  -15.5698   26.2186 N   0  0  0  0  0  0  0  0  0  0  0  0
    9.8462  -15.5627   28.2272 C   0  0  0  0  0  0  0  0  0  0  0  0
   10.7220  -15.0914   28.9905 O   0  0  0  0  0  0  0  0  0  0  0  0
    9.3733  -16.8389   28.4886 O   0  0  0  0  0  0  0  0  0  0  0  0
  2  3  1  0
  2  1  1  1
  3  4  1  0
  4  8  1  0
  4  5  2  0
  6  2  1  0
  6  7  2  0
  9 10  1  0
 10 12  1  0
 10 11  2  0
 13 12  1  1
 13 14  1  0
 13 15  1  0
 14  6  1  0
 15 22  1  0
 16 15  2  0
 18 19  1  0
 18 17  1  0
 20 19  1  0
 21 20  1  1
 21 23  1  0
 22 21  1  0
 23 24  2  0
 23 25  1  0
M  END
$$$$
