DNM.pdb
     RDKit          3D

 25 24  0  0  1  0  0  0  0  0999 V2000
    6.0163  -19.0344   19.0432 N   0  0  0  0  0  0  0  0  0  0  0  0
    7.1246  -18.4930   19.7815 C   0  0  1  0  0  0  0  0  0  0  0  0
    7.5567  -17.2037   19.1173 C   0  0  0  0  0  0  0  0  0  0  0  0
    8.3136  -17.4512   17.8770 C   0  0  0  0  0  0  0  0  0  0  0  0
    7.8289  -17.2228   16.7428 O   0  0  0  0  0  0  0  0  0  0  0  0
    6.7701  -18.1858   21.1887 C   0  0  0  0  0  0  0  0  0  0  0  0
    5.6800  -17.6216   21.4621 O   0  0  0  0  0  0  0  0  0  0  0  0
    9.6004  -17.9510   17.9532 O   0  0  0  0  0  0  0  0  0  0  0  0
    7.6397  -19.9855   26.9316 N   0  0  0  0  0  0  0  0  0  0  0  0
    6.9906  -19.2924   25.9035 C   0  0  0  0  0  0  0  0  0  0  0  0
    6.1403  -18.4178   26.2598 O   0  0  0  0  0  0  0  0  0  0  0  0
    7.1793  -19.4600   24.4644 C   0  0  0  0  0  0  0  0  0  0  0  0
    7.2433  -18.2096   23.6625 C   0  0  2  0  0  0  0  0  0  0  0  0
    7.6147  -18.4988   22.3005 N   0  0  0  0  0  0  0  0  0  0  0  0
    8.0423  -17.1318   24.2581 C   0  0  0  0  0  0  0  0  0  0  0  0
    9.2936  -17.2398   24.2376 O   0  0  0  0  0  0  0  0  0  0  0  0
    5.7954  -10.9004   26.0297 C   0  0  0  0  0  0  0  0  0  0  0  0
    6.5957  -11.6780   27.4571 S   0  0  0  0  0  0  0  0  0  0  0  0
    7.7871  -12.9195   26.9461 C   0  0  0  0  0  0  0  0  0  0  0  0
    7.1926  -13.9820   26.0690 C   0  0  0  0  0  0  0  0  0  0  0  0
    8.1963  -14.9934   25.5863 C   0  0  2  0  0  0  0  0  0  0  0  0
    7.4275  -16.0021   24.8400 N   0  0  0  0  0  0  0  0  0  0  0  0
    8.9654  -15.6263   26.6782 C   0  0  0  0  0  0  0  0  0  0  0  0
    8.5302  -16.6660   27.2273 O   0  0  0  0  0  0  0  0  0  0  0  0
   10.1693  -15.1079   27.1277 O   0  0  0  0  0  0  0  0  0  0  0  0
  2  3  1  0
  2  1  1  6
  3  4  1  0
  4  8  1  0
  4  5  2  0
  6  2  1  0
  6  7  2  0
  9 10  1  0
 10 12  1  0
 10 11  2  0
 13 12  1  1
 13 14  1  0
 13 15  1  0
 14  6  1  0
 15 22  1  0
 16 15  2  0
 18 19  1  0
 18 17  1  0
 20 19  1  0
 21 20  1  1
 21 23  1  0
 22 21  1  0
 23 24  2  0
 23 25  1  0
M  END
$$$$
