DNM.pdb
     RDKit          3D

 25 24  0  0  1  0  0  0  0  0999 V2000
    9.6939  -19.7108   21.1644 N   0  0  0  0  0  0  0  0  0  0  0  0
   10.9558  -19.0361   21.3005 C   0  0  1  0  0  0  0  0  0  0  0  0
   11.7834  -19.3171   20.0650 C   0  0  0  0  0  0  0  0  0  0  0  0
   11.9267  -20.7629   19.8167 C   0  0  0  0  0  0  0  0  0  0  0  0
   11.2589  -21.3583   18.9374 O   0  0  0  0  0  0  0  0  0  0  0  0
   10.8005  -17.5659   21.4219 C   0  0  0  0  0  0  0  0  0  0  0  0
   11.8119  -16.8241   21.5125 O   0  0  0  0  0  0  0  0  0  0  0  0
   12.8230  -21.4975   20.5706 O   0  0  0  0  0  0  0  0  0  0  0  0
    5.8292  -14.6417   21.2155 N   0  0  0  0  0  0  0  0  0  0  0  0
    6.9466  -15.4543   20.9923 C   0  0  0  0  0  0  0  0  0  0  0  0
    6.7791  -16.7035   21.1546 O   0  0  0  0  0  0  0  0  0  0  0  0
    8.2863  -15.0296   20.5932 C   0  0  0  0  0  0  0  0  0  0  0  0
    9.4019  -15.4717   21.4712 C   0  0  2  0  0  0  0  0  0  0  0  0
    9.5307  -16.9067   21.4441 N   0  0  0  0  0  0  0  0  0  0  0  0
    9.3730  -14.9243   22.8329 C   0  0  0  0  0  0  0  0  0  0  0  0
    9.5751  -13.6935   22.9822 O   0  0  0  0  0  0  0  0  0  0  0  0
    7.4241  -10.5778   26.3603 C   0  0  0  0  0  0  0  0  0  0  0  0
    6.6589  -12.1895   26.6757 S   0  0  0  0  0  0  0  0  0  0  0  0
    7.8795  -13.5056   26.6825 C   0  0  0  0  0  0  0  0  0  0  0  0
    8.0209  -14.1861   25.3527 C   0  0  0  0  0  0  0  0  0  0  0  0
    9.1075  -15.2261   25.3226 C   0  0  2  0  0  0  0  0  0  0  0  0
    9.1256  -15.7528   23.9487 N   0  0  0  0  0  0  0  0  0  0  0  0
    8.9036  -16.3181   26.2974 C   0  0  0  0  0  0  0  0  0  0  0  0
    8.4787  -17.4315   25.9080 O   0  0  0  0  0  0  0  0  0  0  0  0
    9.1676  -16.1584   27.6484 O   0  0  0  0  0  0  0  0  0  0  0  0
  2  3  1  0
  2  1  1  6
  3  4  1  0
  4  8  1  0
  4  5  2  0
  6  2  1  0
  6  7  2  0
  9 10  1  0
 10 12  1  0
 10 11  2  0
 13 12  1  1
 13 14  1  0
 13 15  1  0
 14  6  1  0
 15 22  1  0
 16 15  2  0
 18 19  1  0
 18 17  1  0
 20 19  1  0
 21 20  1  6
 21 23  1  0
 22 21  1  0
 23 24  2  0
 23 25  1  0
M  END
$$$$
