MGM.pdb
     RDKit          3D

 21 20  0  0  1  0  0  0  0  0999 V2000
    8.4215  -19.1807   25.8682 C   0  0  0  0  0  0  0  0  0  0  0  0
    7.1268  -20.4307   25.8896 S   0  0  0  0  0  0  0  0  0  0  0  0
    6.0438  -20.1892   24.4507 C   0  0  0  0  0  0  0  0  0  0  0  0
    6.6617  -19.1125   23.5896 C   0  0  0  0  0  0  0  0  0  0  0  0
    5.8330  -18.7592   22.4002 C   0  0  2  0  0  0  0  0  0  0  0  0
    5.5379  -19.8490   21.5262 N   0  0  0  0  0  0  0  0  0  0  0  0
    6.4847  -17.6191   21.7068 C   0  0  0  0  0  0  0  0  0  0  0  0
    7.5421  -17.8654   21.0559 O   0  0  0  0  0  0  0  0  0  0  0  0
    6.0188  -16.2948   21.7181 N   0  0  0  0  0  0  0  0  0  0  0  0
    6.7640  -15.2317   21.1265 C   0  0  0  0  0  0  0  0  0  0  0  0
    7.6739  -14.5478   22.0807 C   0  0  0  0  0  0  0  0  0  0  0  0
    8.4361  -13.6159   21.7997 O   0  0  0  0  0  0  0  0  0  0  0  0
    5.9728  -10.3440   26.5421 C   0  0  0  0  0  0  0  0  0  0  0  0
    6.5949  -12.0009   26.8737 S   0  0  0  0  0  0  0  0  0  0  0  0
    7.4889  -12.5703   25.3883 C   0  0  0  0  0  0  0  0  0  0  0  0
    8.0030  -13.9623   25.6246 C   0  0  0  0  0  0  0  0  0  0  0  0
    8.6477  -14.5102   24.3741 C   0  0  2  0  0  0  0  0  0  0  0  0
    7.6600  -15.0125   23.4358 N   0  0  0  0  0  0  0  0  0  0  0  0
    9.5062  -15.6708   24.8015 C   0  0  0  0  0  0  0  0  0  0  0  0
    9.2466  -16.9729   24.3957 O   0  0  0  0  0  0  0  0  0  0  0  0
   10.4951  -15.4940   25.5469 O   0  0  0  0  0  0  0  0  0  0  0  0
  2  1  1  0
  3  2  1  0
  4  3  1  0
  4  5  1  0
  5  7  1  0
  5  6  1  6
  7  8  2  0
  9  7  1  0
 10  9  1  0
 10 11  1  0
 11 12  2  0
 11 18  1  0
 14 13  1  0
 15 14  1  0
 16 15  1  0
 17 16  1  1
 18 17  1  0
 19 20  1  0
 19 17  1  0
 21 19  2  0
M  END
$$$$
