MGM.pdb
     RDKit          3D

 21 20  0  0  1  0  0  0  0  0999 V2000
    7.6183  -11.4111   20.1440 C   0  0  0  0  0  0  0  0  0  0  0  0
    8.2707  -13.0226   20.6095 S   0  0  0  0  0  0  0  0  0  0  0  0
    7.8382  -14.2326   19.3248 C   0  0  0  0  0  0  0  0  0  0  0  0
    8.3412  -15.5823   19.7807 C   0  0  0  0  0  0  0  0  0  0  0  0
    7.3187  -16.3727   20.5264 C   0  0  2  0  0  0  0  0  0  0  0  0
    6.0356  -15.7546   20.6279 N   0  0  0  0  0  0  0  0  0  0  0  0
    7.8923  -16.7393   21.8462 C   0  0  0  0  0  0  0  0  0  0  0  0
    7.1786  -16.5204   22.8685 O   0  0  0  0  0  0  0  0  0  0  0  0
    9.1604  -17.3081   22.0450 N   0  0  0  0  0  0  0  0  0  0  0  0
    9.5316  -17.8983   23.2897 C   0  0  0  0  0  0  0  0  0  0  0  0
   10.0625  -16.9184   24.2715 C   0  0  0  0  0  0  0  0  0  0  0  0
   11.2488  -16.5896   24.3843 O   0  0  0  0  0  0  0  0  0  0  0  0
    6.4503  -11.1707   25.6343 C   0  0  0  0  0  0  0  0  0  0  0  0
    6.8568  -12.5089   26.7683 S   0  0  0  0  0  0  0  0  0  0  0  0
    8.0208  -13.6281   25.9183 C   0  0  0  0  0  0  0  0  0  0  0  0
    8.4808  -14.6860   26.8811 C   0  0  0  0  0  0  0  0  0  0  0  0
    9.5889  -15.5122   26.2735 C   0  0  2  0  0  0  0  0  0  0  0  0
    9.1146  -16.3089   25.1560 N   0  0  0  0  0  0  0  0  0  0  0  0
   10.0611  -16.4592   27.3443 C   0  0  0  0  0  0  0  0  0  0  0  0
   10.9181  -16.0598   28.3608 O   0  0  0  0  0  0  0  0  0  0  0  0
    9.6893  -17.6537   27.3505 O   0  0  0  0  0  0  0  0  0  0  0  0
  2  1  1  0
  3  2  1  0
  4  3  1  0
  4  5  1  0
  5  7  1  0
  5  6  1  1
  7  8  2  0
  9  7  1  0
 10  9  1  0
 10 11  1  0
 11 12  2  0
 11 18  1  0
 14 13  1  0
 15 14  1  0
 16 15  1  0
 17 16  1  1
 18 17  1  0
 19 20  1  0
 19 17  1  0
 21 19  2  0
M  END
$$$$
