MGM.pdb
     RDKit          3D

 21 20  0  0  1  0  0  0  0  0999 V2000
    9.3321  -11.7483   20.0978 C   0  0  0  0  0  0  0  0  0  0  0  0
    8.1407  -12.1040   18.7965 S   0  0  0  0  0  0  0  0  0  0  0  0
    8.3177  -13.8390   18.2867 C   0  0  0  0  0  0  0  0  0  0  0  0
    8.2774  -14.6884   19.5355 C   0  0  0  0  0  0  0  0  0  0  0  0
    8.5328  -16.1350   19.2745 C   0  0  2  0  0  0  0  0  0  0  0  0
    7.8064  -16.6865   18.1759 N   0  0  0  0  0  0  0  0  0  0  0  0
    8.3184  -16.8769   20.5429 C   0  0  0  0  0  0  0  0  0  0  0  0
    7.2043  -17.4592   20.6918 O   0  0  0  0  0  0  0  0  0  0  0  0
    9.2537  -16.9812   21.5847 N   0  0  0  0  0  0  0  0  0  0  0  0
    9.0400  -17.8422   22.7021 C   0  0  0  0  0  0  0  0  0  0  0  0
    8.9573  -17.1183   23.9964 C   0  0  0  0  0  0  0  0  0  0  0  0
    8.8184  -17.6479   25.1048 O   0  0  0  0  0  0  0  0  0  0  0  0
    6.6830  -11.2049   27.0125 C   0  0  0  0  0  0  0  0  0  0  0  0
    5.9231  -12.6966   26.3497 S   0  0  0  0  0  0  0  0  0  0  0  0
    7.0342  -14.0983   26.7114 C   0  0  0  0  0  0  0  0  0  0  0  0
    7.2900  -14.8652   25.4448 C   0  0  0  0  0  0  0  0  0  0  0  0
    8.7683  -14.9133   25.1418 C   0  0  2  0  0  0  0  0  0  0  0  0
    9.0471  -15.6893   23.9466 N   0  0  0  0  0  0  0  0  0  0  0  0
    9.4270  -15.6078   26.3038 C   0  0  0  0  0  0  0  0  0  0  0  0
   10.0610  -16.8356   26.1700 O   0  0  0  0  0  0  0  0  0  0  0  0
    9.4231  -15.0910   27.4430 O   0  0  0  0  0  0  0  0  0  0  0  0
  2  1  1  0
  3  2  1  0
  4  3  1  0
  4  5  1  0
  5  7  1  0
  5  6  1  6
  7  8  2  0
  9  7  1  0
 10  9  1  0
 10 11  1  0
 11 12  2  0
 11 18  1  0
 14 13  1  0
 15 14  1  0
 16 15  1  0
 17 16  1  1
 18 17  1  0
 19 20  1  0
 19 17  1  0
 21 19  2  0
M  END
$$$$
