MGM.pdb
     RDKit          3D

 21 20  0  0  1  0  0  0  0  0999 V2000
    6.2492  -12.6552   19.9759 C   0  0  0  0  0  0  0  0  0  0  0  0
    6.8973  -14.2340   20.5474 S   0  0  0  0  0  0  0  0  0  0  0  0
    6.3165  -15.5512   19.4388 C   0  0  0  0  0  0  0  0  0  0  0  0
    6.7823  -16.8692   20.0122 C   0  0  0  0  0  0  0  0  0  0  0  0
    5.7155  -17.5991   20.7575 C   0  0  2  0  0  0  0  0  0  0  0  0
    4.3797  -17.2525   20.3914 N   0  0  0  0  0  0  0  0  0  0  0  0
    5.9784  -17.4414   22.2106 C   0  0  0  0  0  0  0  0  0  0  0  0
    5.3317  -16.5409   22.8215 O   0  0  0  0  0  0  0  0  0  0  0  0
    6.8857  -18.2122   22.9548 N   0  0  0  0  0  0  0  0  0  0  0  0
    7.1221  -17.9642   24.3397 C   0  0  0  0  0  0  0  0  0  0  0  0
    8.1159  -16.8878   24.5843 C   0  0  0  0  0  0  0  0  0  0  0  0
    8.7754  -16.3111   23.7121 O   0  0  0  0  0  0  0  0  0  0  0  0
    6.4298  -11.5842   25.5352 C   0  0  0  0  0  0  0  0  0  0  0  0
    7.5620  -11.9850   26.8767 S   0  0  0  0  0  0  0  0  0  0  0  0
    7.7992  -13.7944   26.8866 C   0  0  0  0  0  0  0  0  0  0  0  0
    9.0027  -14.1392   26.0556 C   0  0  0  0  0  0  0  0  0  0  0  0
    9.4021  -15.5793   26.2705 C   0  0  2  0  0  0  0  0  0  0  0  0
    8.3201  -16.4915   25.9458 N   0  0  0  0  0  0  0  0  0  0  0  0
    9.7057  -15.7311   27.7372 C   0  0  0  0  0  0  0  0  0  0  0  0
   10.7887  -15.1040   28.3381 O   0  0  0  0  0  0  0  0  0  0  0  0
    8.9794  -16.4382   28.4704 O   0  0  0  0  0  0  0  0  0  0  0  0
  2  1  1  0
  3  2  1  0
  4  3  1  0
  4  5  1  0
  5  7  1  0
  5  6  1  1
  7  8  2  0
  9  7  1  0
 10  9  1  0
 10 11  1  0
 11 12  2  0
 11 18  1  0
 14 13  1  0
 15 14  1  0
 16 15  1  0
 17 16  1  1
 18 17  1  0
 19 20  1  0
 19 17  1  0
 21 19  2  0
M  END
$$$$
