MGM.pdb
     RDKit          3D

 21 20  0  0  1  0  0  0  0  0999 V2000
    1.7520  -18.5885   22.7233 C   0  0  0  0  0  0  0  0  0  0  0  0
    1.3498  -19.8834   21.5399 S   0  0  0  0  0  0  0  0  0  0  0  0
    2.7402  -21.0487   21.4386 C   0  0  0  0  0  0  0  0  0  0  0  0
    3.9164  -20.3062   20.8486 C   0  0  0  0  0  0  0  0  0  0  0  0
    4.9760  -19.9873   21.8494 C   0  0  2  0  0  0  0  0  0  0  0  0
    4.6351  -20.2852   23.2036 N   0  0  0  0  0  0  0  0  0  0  0  0
    5.3861  -18.5738   21.6517 C   0  0  0  0  0  0  0  0  0  0  0  0
    5.6389  -18.2046   20.4676 O   0  0  0  0  0  0  0  0  0  0  0  0
    5.5140  -17.6201   22.6741 N   0  0  0  0  0  0  0  0  0  0  0  0
    6.3796  -16.4934   22.5457 C   0  0  0  0  0  0  0  0  0  0  0  0
    7.5349  -16.5285   23.4785 C   0  0  0  0  0  0  0  0  0  0  0  0
    7.7613  -17.4205   24.3039 O   0  0  0  0  0  0  0  0  0  0  0  0
    5.4659  -12.9609   27.0357 C   0  0  0  0  0  0  0  0  0  0  0  0
    7.0413  -12.0902   27.0829 S   0  0  0  0  0  0  0  0  0  0  0  0
    8.3274  -13.2270   26.4634 C   0  0  0  0  0  0  0  0  0  0  0  0
    7.8776  -13.8162   25.1563 C   0  0  0  0  0  0  0  0  0  0  0  0
    8.9020  -14.7946   24.6338 C   0  0  2  0  0  0  0  0  0  0  0  0
    8.4578  -15.4349   23.4086 N   0  0  0  0  0  0  0  0  0  0  0  0
    9.0538  -15.8648   25.6817 C   0  0  0  0  0  0  0  0  0  0  0  0
   10.1640  -15.9358   26.5123 O   0  0  0  0  0  0  0  0  0  0  0  0
    8.1699  -16.7362   25.8381 O   0  0  0  0  0  0  0  0  0  0  0  0
  2  1  1  0
  3  2  1  0
  4  3  1  0
  4  5  1  0
  5  7  1  0
  5  6  1  1
  7  8  2  0
  9  7  1  0
 10  9  1  0
 10 11  1  0
 11 12  2  0
 11 18  1  0
 14 13  1  0
 15 14  1  0
 16 15  1  0
 17 16  1  1
 18 17  1  0
 19 20  1  0
 19 17  1  0
 21 19  2  0
M  END
$$$$
