MGM.pdb
     RDKit          3D

 21 20  0  0  1  0  0  0  0  0999 V2000
    5.8311  -11.4025   26.6813 C   0  0  0  0  0  0  0  0  0  0  0  0
    7.1535  -11.7506   25.5111 S   0  0  0  0  0  0  0  0  0  0  0  0
    6.8718  -13.3828   24.7642 C   0  0  0  0  0  0  0  0  0  0  0  0
    7.9709  -13.6191   23.7549 C   0  0  0  0  0  0  0  0  0  0  0  0
    7.8789  -14.9473   23.0813 C   0  0  2  0  0  0  0  0  0  0  0  0
    6.7051  -15.1427   22.2921 N   0  0  0  0  0  0  0  0  0  0  0  0
    8.0676  -16.0003   24.1113 C   0  0  0  0  0  0  0  0  0  0  0  0
    9.1012  -15.9207   24.8378 O   0  0  0  0  0  0  0  0  0  0  0  0
    7.1904  -17.0725   24.3393 N   0  0  0  0  0  0  0  0  0  0  0  0
    7.3422  -17.9411   25.4608 C   0  0  0  0  0  0  0  0  0  0  0  0
    8.7605  -18.2235   25.7997 C   0  0  0  0  0  0  0  0  0  0  0  0
    9.5287  -18.9273   25.1343 O   0  0  0  0  0  0  0  0  0  0  0  0
    8.6553  -14.3591   29.0418 C   0  0  0  0  0  0  0  0  0  0  0  0
   10.4263  -14.1368   28.8044 S   0  0  0  0  0  0  0  0  0  0  0  0
   10.9812  -15.3540   27.5632 C   0  0  0  0  0  0  0  0  0  0  0  0
   11.1719  -16.6870   28.2297 C   0  0  0  0  0  0  0  0  0  0  0  0
   10.6714  -17.8015   27.3425 C   0  0  2  0  0  0  0  0  0  0  0  0
    9.2718  -17.6266   26.9975 N   0  0  0  0  0  0  0  0  0  0  0  0
   10.7925  -19.0752   28.1358 C   0  0  0  0  0  0  0  0  0  0  0  0
   12.0224  -19.6350   28.4545 O   0  0  0  0  0  0  0  0  0  0  0  0
    9.7724  -19.6771   28.5383 O   0  0  0  0  0  0  0  0  0  0  0  0
  2  1  1  0
  3  2  1  0
  4  3  1  0
  4  5  1  0
  5  7  1  0
  5  6  1  1
  7  8  2  0
  9  7  1  0
 10  9  1  0
 10 11  1  0
 11 12  2  0
 11 18  1  0
 14 13  1  0
 15 14  1  0
 16 15  1  0
 17 16  1  1
 18 17  1  0
 19 20  1  0
 19 17  1  0
 21 19  2  0
M  END
$$$$
