MGM.pdb
     RDKit          3D

 21 20  0  0  1  0  0  0  0  0999 V2000
    7.3042  -11.6032   26.5792 C   0  0  0  0  0  0  0  0  0  0  0  0
    6.3333  -13.1096   26.7449 S   0  0  0  0  0  0  0  0  0  0  0  0
    6.0061  -13.7905   25.0923 C   0  0  0  0  0  0  0  0  0  0  0  0
    7.3232  -13.8515   24.3545 C   0  0  0  0  0  0  0  0  0  0  0  0
    7.5173  -15.1217   23.5964 C   0  0  2  0  0  0  0  0  0  0  0  0
    6.8893  -16.2683   24.1706 N   0  0  0  0  0  0  0  0  0  0  0  0
    8.9739  -15.3080   23.3747 C   0  0  0  0  0  0  0  0  0  0  0  0
    9.6821  -14.2637   23.2725 O   0  0  0  0  0  0  0  0  0  0  0  0
    9.6221  -16.5490   23.2705 N   0  0  0  0  0  0  0  0  0  0  0  0
   11.0259  -16.6452   23.0349 C   0  0  0  0  0  0  0  0  0  0  0  0
   11.8228  -16.8006   24.2787 C   0  0  0  0  0  0  0  0  0  0  0  0
   13.0532  -16.9078   24.3315 O   0  0  0  0  0  0  0  0  0  0  0  0
    9.2963  -14.2638   29.0396 C   0  0  0  0  0  0  0  0  0  0  0  0
   10.8616  -13.5151   28.5586 S   0  0  0  0  0  0  0  0  0  0  0  0
   11.7117  -14.6714   27.4315 C   0  0  0  0  0  0  0  0  0  0  0  0
   11.3841  -16.0821   27.8322 C   0  0  0  0  0  0  0  0  0  0  0  0
   11.8118  -17.0528   26.7578 C   0  0  2  0  0  0  0  0  0  0  0  0
   11.0975  -16.8269   25.5140 N   0  0  0  0  0  0  0  0  0  0  0  0
   11.4528  -18.4298   27.2494 C   0  0  0  0  0  0  0  0  0  0  0  0
   12.1081  -19.0293   28.3164 O   0  0  0  0  0  0  0  0  0  0  0  0
   10.5386  -19.0855   26.7025 O   0  0  0  0  0  0  0  0  0  0  0  0
  2  1  1  0
  3  2  1  0
  4  3  1  0
  4  5  1  0
  5  7  1  0
  5  6  1  1
  7  8  2  0
  9  7  1  0
 10  9  1  0
 10 11  1  0
 11 12  2  0
 11 18  1  0
 14 13  1  0
 15 14  1  0
 16 15  1  0
 17 16  1  1
 18 17  1  0
 19 20  1  0
 19 17  1  0
 21 19  2  0
M  END
$$$$
