MGM.pdb
     RDKit          3D

 21 20  0  0  1  0  0  0  0  0999 V2000
    6.7794  -12.0738   26.0492 C   0  0  0  0  0  0  0  0  0  0  0  0
    5.9627  -13.6775   26.0682 S   0  0  0  0  0  0  0  0  0  0  0  0
    6.8798  -14.8242   24.9979 C   0  0  0  0  0  0  0  0  0  0  0  0
    6.8739  -14.2488   23.6010 C   0  0  0  0  0  0  0  0  0  0  0  0
    7.2712  -15.2349   22.5542 C   0  0  2  0  0  0  0  0  0  0  0  0
    6.6267  -16.5056   22.6476 N   0  0  0  0  0  0  0  0  0  0  0  0
    8.7529  -15.3345   22.5537 C   0  0  0  0  0  0  0  0  0  0  0  0
    9.4058  -14.2530   22.4724 O   0  0  0  0  0  0  0  0  0  0  0  0
    9.4813  -16.5319   22.6364 N   0  0  0  0  0  0  0  0  0  0  0  0
   10.8968  -16.5632   22.4612 C   0  0  0  0  0  0  0  0  0  0  0  0
   11.6501  -16.5145   23.7403 C   0  0  0  0  0  0  0  0  0  0  0  0
   12.8818  -16.5094   23.8455 O   0  0  0  0  0  0  0  0  0  0  0  0
    9.9217  -13.0457   28.7067 C   0  0  0  0  0  0  0  0  0  0  0  0
   11.4236  -13.8191   29.3297 S   0  0  0  0  0  0  0  0  0  0  0  0
   11.6108  -15.4307   28.4942 C   0  0  0  0  0  0  0  0  0  0  0  0
   10.9990  -15.3505   27.1241 C   0  0  0  0  0  0  0  0  0  0  0  0
   11.5564  -16.4312   26.2291 C   0  0  2  0  0  0  0  0  0  0  0  0
   10.8777  -16.4696   24.9460 N   0  0  0  0  0  0  0  0  0  0  0  0
   11.3015  -17.7430   26.9223 C   0  0  0  0  0  0  0  0  0  0  0  0
   11.9749  -18.1126   28.0787 O   0  0  0  0  0  0  0  0  0  0  0  0
   10.4616  -18.5524   26.4700 O   0  0  0  0  0  0  0  0  0  0  0  0
  2  1  1  0
  3  2  1  0
  4  3  1  0
  4  5  1  0
  5  7  1  0
  5  6  1  1
  7  8  2  0
  9  7  1  0
 10  9  1  0
 10 11  1  0
 11 12  2  0
 11 18  1  0
 14 13  1  0
 15 14  1  0
 16 15  1  0
 17 16  1  1
 18 17  1  0
 19 20  1  0
 19 17  1  0
 21 19  2  0
M  END
$$$$
