MGM.pdb
     RDKit          3D

 21 20  0  0  1  0  0  0  0  0999 V2000
    6.1527  -12.7134   18.7846 C   0  0  0  0  0  0  0  0  0  0  0  0
    7.9065  -12.3512   18.9640 S   0  0  0  0  0  0  0  0  0  0  0  0
    8.7970  -13.8918   19.3313 C   0  0  0  0  0  0  0  0  0  0  0  0
    8.4983  -14.2612   20.7656 C   0  0  0  0  0  0  0  0  0  0  0  0
    9.2053  -15.4949   21.2174 C   0  0  2  0  0  0  0  0  0  0  0  0
    9.3488  -16.5067   20.2202 N   0  0  0  0  0  0  0  0  0  0  0  0
    8.5358  -15.9848   22.4491 C   0  0  0  0  0  0  0  0  0  0  0  0
    7.7733  -15.1757   23.0543 O   0  0  0  0  0  0  0  0  0  0  0  0
    8.6837  -17.2717   22.9905 N   0  0  0  0  0  0  0  0  0  0  0  0
    8.8308  -17.4834   24.3938 C   0  0  0  0  0  0  0  0  0  0  0  0
    9.7607  -16.5224   25.0403 C   0  0  0  0  0  0  0  0  0  0  0  0
   10.7415  -16.0007   24.4981 O   0  0  0  0  0  0  0  0  0  0  0  0
    6.3570  -12.1666   26.5963 C   0  0  0  0  0  0  0  0  0  0  0  0
    7.4215  -12.4572   28.0191 S   0  0  0  0  0  0  0  0  0  0  0  0
    8.2286  -14.0781   27.7919 C   0  0  0  0  0  0  0  0  0  0  0  0
    9.6042  -13.8696   27.2245 C   0  0  0  0  0  0  0  0  0  0  0  0
   10.3211  -15.1893   27.0697 C   0  0  2  0  0  0  0  0  0  0  0  0
    9.4907  -16.1773   26.4043 N   0  0  0  0  0  0  0  0  0  0  0  0
   10.6085  -15.6925   28.4592 C   0  0  0  0  0  0  0  0  0  0  0  0
   11.4080  -14.9899   29.3507 O   0  0  0  0  0  0  0  0  0  0  0  0
   10.1278  -16.7761   28.8588 O   0  0  0  0  0  0  0  0  0  0  0  0
  2  1  1  0
  3  2  1  0
  4  3  1  0
  4  5  1  0
  5  7  1  0
  5  6  1  6
  7  8  2  0
  9  7  1  0
 10  9  1  0
 10 11  1  0
 11 12  2  0
 11 18  1  0
 14 13  1  0
 15 14  1  0
 16 15  1  0
 17 16  1  1
 18 17  1  0
 19 20  1  0
 19 17  1  0
 21 19  2  0
M  END
$$$$
