MGM.pdb
     RDKit          3D

 21 20  0  0  1  0  0  0  0  0999 V2000
    8.4470  -11.6428   20.4598 C   0  0  0  0  0  0  0  0  0  0  0  0
    7.3725  -12.3870   19.2225 S   0  0  0  0  0  0  0  0  0  0  0  0
    7.7528  -14.1591   19.0937 C   0  0  0  0  0  0  0  0  0  0  0  0
    7.8421  -14.7103   20.4976 C   0  0  0  0  0  0  0  0  0  0  0  0
    8.1691  -16.1653   20.5412 C   0  0  2  0  0  0  0  0  0  0  0  0
    7.3250  -16.9969   19.7446 N   0  0  0  0  0  0  0  0  0  0  0  0
    8.2191  -16.5839   21.9652 C   0  0  0  0  0  0  0  0  0  0  0  0
    7.1154  -16.6957   22.5748 O   0  0  0  0  0  0  0  0  0  0  0  0
    9.3926  -16.8639   22.6832 N   0  0  0  0  0  0  0  0  0  0  0  0
    9.3670  -17.1534   24.0800 C   0  0  0  0  0  0  0  0  0  0  0  0
   10.0805  -16.1444   24.9041 C   0  0  0  0  0  0  0  0  0  0  0  0
   10.9828  -15.4010   24.5024 O   0  0  0  0  0  0  0  0  0  0  0  0
    7.1130  -11.9807   25.6429 C   0  0  0  0  0  0  0  0  0  0  0  0
    7.8986  -12.0075   27.2628 S   0  0  0  0  0  0  0  0  0  0  0  0
    8.5195  -13.6984   27.5553 C   0  0  0  0  0  0  0  0  0  0  0  0
    9.9703  -13.7652   27.1700 C   0  0  0  0  0  0  0  0  0  0  0  0
   10.4568  -15.1945   27.1769 C   0  0  2  0  0  0  0  0  0  0  0  0
    9.6834  -16.0300   26.2758 N   0  0  0  0  0  0  0  0  0  0  0  0
   10.2528  -15.7156   28.5745 C   0  0  0  0  0  0  0  0  0  0  0  0
   10.9009  -15.1653   29.6720 O   0  0  0  0  0  0  0  0  0  0  0  0
    9.4805  -16.6753   28.7924 O   0  0  0  0  0  0  0  0  0  0  0  0
  2  1  1  0
  3  2  1  0
  4  3  1  0
  4  5  1  0
  5  7  1  0
  5  6  1  6
  7  8  2  0
  9  7  1  0
 10  9  1  0
 10 11  1  0
 11 12  2  0
 11 18  1  0
 14 13  1  0
 15 14  1  0
 16 15  1  0
 17 16  1  1
 18 17  1  0
 19 20  1  0
 19 17  1  0
 21 19  2  0
M  END
$$$$
