MGM.pdb
     RDKit          3D

 21 20  0  0  1  0  0  0  0  0999 V2000
    7.0056  -11.6581   25.6587 C   0  0  0  0  0  0  0  0  0  0  0  0
    6.8888  -13.2088   26.5648 S   0  0  0  0  0  0  0  0  0  0  0  0
    6.8039  -14.5842   25.3804 C   0  0  0  0  0  0  0  0  0  0  0  0
    7.3053  -14.0729   24.0501 C   0  0  0  0  0  0  0  0  0  0  0  0
    7.3777  -15.1304   23.0001 C   0  0  2  0  0  0  0  0  0  0  0  0
    6.6898  -16.3411   23.3157 N   0  0  0  0  0  0  0  0  0  0  0  0
    8.8074  -15.3467   22.6617 C   0  0  0  0  0  0  0  0  0  0  0  0
    9.5147  -14.3179   22.4520 O   0  0  0  0  0  0  0  0  0  0  0  0
    9.4314  -16.6000   22.5575 N   0  0  0  0  0  0  0  0  0  0  0  0
   10.8423  -16.7243   22.3862 C   0  0  0  0  0  0  0  0  0  0  0  0
   11.5919  -16.7458   23.6683 C   0  0  0  0  0  0  0  0  0  0  0  0
   12.8230  -16.7734   23.7770 O   0  0  0  0  0  0  0  0  0  0  0  0
    9.8918  -13.1029   28.6011 C   0  0  0  0  0  0  0  0  0  0  0  0
   10.4710  -14.5294   29.5348 S   0  0  0  0  0  0  0  0  0  0  0  0
   11.4515  -15.5759   28.4061 C   0  0  0  0  0  0  0  0  0  0  0  0
   10.7147  -15.7241   27.1051 C   0  0  0  0  0  0  0  0  0  0  0  0
   11.4873  -16.6064   26.1541 C   0  0  2  0  0  0  0  0  0  0  0  0
   10.8162  -16.7330   24.8728 N   0  0  0  0  0  0  0  0  0  0  0  0
   11.5431  -17.9745   26.7799 C   0  0  0  0  0  0  0  0  0  0  0  0
   10.7888  -19.0381   26.3034 O   0  0  0  0  0  0  0  0  0  0  0  0
   12.2828  -18.1977   27.7638 O   0  0  0  0  0  0  0  0  0  0  0  0
  2  1  1  0
  3  2  1  0
  4  3  1  0
  4  5  1  0
  5  7  1  0
  5  6  1  1
  7  8  2  0
  9  7  1  0
 10  9  1  0
 10 11  1  0
 11 12  2  0
 11 18  1  0
 14 13  1  0
 15 14  1  0
 16 15  1  0
 17 16  1  1
 18 17  1  0
 19 20  1  0
 19 17  1  0
 21 19  2  0
M  END
$$$$
