MGM.pdb
     RDKit          3D

 21 20  0  0  1  0  0  0  0  0999 V2000
    5.4652  -13.2891   26.1584 C   0  0  0  0  0  0  0  0  0  0  0  0
    6.7822  -12.3316   25.3916 S   0  0  0  0  0  0  0  0  0  0  0  0
    6.7762  -12.6403   23.6010 C   0  0  0  0  0  0  0  0  0  0  0  0
    8.0279  -13.4179   23.2673 C   0  0  0  0  0  0  0  0  0  0  0  0
    7.7908  -14.5356   22.3078 C   0  0  2  0  0  0  0  0  0  0  0  0
    6.7547  -15.4432   22.6840 N   0  0  0  0  0  0  0  0  0  0  0  0
    9.0897  -15.2099   22.0558 C   0  0  0  0  0  0  0  0  0  0  0  0
   10.0479  -14.4880   21.6520 O   0  0  0  0  0  0  0  0  0  0  0  0
    9.3344  -16.5812   22.2310 N   0  0  0  0  0  0  0  0  0  0  0  0
   10.6567  -17.1165   22.2105 C   0  0  0  0  0  0  0  0  0  0  0  0
   11.2975  -17.1552   23.5499 C   0  0  0  0  0  0  0  0  0  0  0  0
   12.4821  -17.4329   23.7686 O   0  0  0  0  0  0  0  0  0  0  0  0
   10.6765  -14.1757   30.7499 C   0  0  0  0  0  0  0  0  0  0  0  0
   10.4746  -13.9829   28.9711 S   0  0  0  0  0  0  0  0  0  0  0  0
   10.9814  -15.5464   28.1780 C   0  0  0  0  0  0  0  0  0  0  0  0
   10.4112  -15.6031   26.7890 C   0  0  0  0  0  0  0  0  0  0  0  0
   11.0671  -16.7032   25.9896 C   0  0  2  0  0  0  0  0  0  0  0  0
   10.4670  -16.8434   24.6749 N   0  0  0  0  0  0  0  0  0  0  0  0
   10.8302  -17.9860   26.7411 C   0  0  0  0  0  0  0  0  0  0  0  0
   10.0038  -18.9888   26.2524 O   0  0  0  0  0  0  0  0  0  0  0  0
   11.3799  -18.1902   27.8462 O   0  0  0  0  0  0  0  0  0  0  0  0
  2  1  1  0
  3  2  1  0
  4  3  1  0
  4  5  1  0
  5  7  1  0
  5  6  1  1
  7  8  2  0
  9  7  1  0
 10  9  1  0
 10 11  1  0
 11 12  2  0
 11 18  1  0
 14 13  1  0
 15 14  1  0
 16 15  1  0
 17 16  1  1
 18 17  1  0
 19 20  1  0
 19 17  1  0
 21 19  2  0
M  END
$$$$
