KTI.pdb
     RDKit          3D

 25 24  0  0  1  0  0  0  0  0999 V2000
    5.2973  -18.9723   22.1830 N   0  0  0  0  0  0  0  0  0  0  0  0
    6.6190  -19.5271   22.3854 C   0  0  1  0  0  0  0  0  0  0  0  0
    7.0102  -20.2266   21.1037 C   0  0  0  0  0  0  0  0  0  0  0  0
    6.2689  -21.5464   21.0757 C   0  0  0  0  0  0  0  0  0  0  0  0
    4.9282  -21.4262   20.4039 C   0  0  0  0  0  0  0  0  0  0  0  0
    4.2357  -22.7615   20.2701 C   0  0  0  0  0  0  0  0  0  0  0  0
    2.9716  -22.6342   19.5699 N   0  0  0  0  0  0  0  0  0  0  0  0
    7.5336  -18.4540   22.7660 C   0  0  0  0  0  0  0  0  0  0  0  0
    8.7567  -18.7082   22.9046 O   0  0  0  0  0  0  0  0  0  0  0  0
    8.3952  -15.2902   20.9804 C   0  0  0  0  0  0  0  0  0  0  0  0
    8.0664  -14.9218   22.3899 C   0  0  1  0  0  0  0  0  0  0  0  0
    6.8711  -14.2222   22.4805 O   0  0  0  0  0  0  0  0  0  0  0  0
    8.1206  -16.1072   23.3307 C   0  0  2  0  0  0  0  0  0  0  0  0
    7.1408  -17.1088   22.9984 N   0  0  0  0  0  0  0  0  0  0  0  0
    8.0100  -15.6628   24.7407 C   0  0  0  0  0  0  0  0  0  0  0  0
    6.8725  -15.6291   25.2608 O   0  0  0  0  0  0  0  0  0  0  0  0
    9.2297  -18.0747   28.8729 C   0  0  0  0  0  0  0  0  0  0  0  0
    8.6922  -17.0156   27.9741 C   0  0  0  0  0  0  0  0  0  0  0  0
    9.4373  -15.7626   27.8133 C   0  0  2  0  0  0  0  0  0  0  0  0
    9.7050  -15.0986   29.1806 C   0  0  0  0  0  0  0  0  0  0  0  0
    8.9862  -14.7103   26.8789 C   0  0  2  0  0  0  0  0  0  0  0  0
    9.1371  -15.2834   25.4978 N   0  0  0  0  0  0  0  0  0  0  0  0
    9.7029  -13.4572   26.8707 C   0  0  0  0  0  0  0  0  0  0  0  0
   10.7062  -13.0969   25.9923 O   0  0  0  0  0  0  0  0  0  0  0  0
    9.4373  -12.5420   27.7436 O   0  0  0  0  0  0  0  0  0  0  0  0
  2  1  1  6
  3  2  1  0
  3  4  1  0
  5  4  1  0
  5  6  1  0
  6  7  1  0
  8  9  2  0
  8  2  1  0
 11 10  1  6
 11 13  1  0
 12 11  1  0
 13 14  1  6
 14  8  1  0
 15 22  1  0
 15 13  1  0
 16 15  2  0
 18 17  1  0
 19 21  1  0
 19 18  1  0
 19 20  1  1
 21 22  1  6
 23 21  1  0
 24 23  1  0
 25 23  2  0
M  END
$$$$
