KTI.pdb
     RDKit          3D

 25 24  0  0  1  0  0  0  0  0999 V2000
    7.4407  -17.6786   19.4576 N   0  0  0  0  0  0  0  0  0  0  0  0
    8.1634  -16.6130   20.1193 C   0  0  1  0  0  0  0  0  0  0  0  0
    7.5865  -15.3071   19.6223 C   0  0  0  0  0  0  0  0  0  0  0  0
    8.2726  -14.9912   18.3101 C   0  0  0  0  0  0  0  0  0  0  0  0
    7.7820  -13.7002   17.7137 C   0  0  0  0  0  0  0  0  0  0  0  0
    8.3601  -13.4503   16.3410 C   0  0  0  0  0  0  0  0  0  0  0  0
    7.8594  -12.2128   15.7732 N   0  0  0  0  0  0  0  0  0  0  0  0
    8.0510  -16.7867   21.5651 C   0  0  0  0  0  0  0  0  0  0  0  0
    7.2656  -17.6557   22.0212 O   0  0  0  0  0  0  0  0  0  0  0  0
    8.4931  -18.8237   23.3676 C   0  0  0  0  0  0  0  0  0  0  0  0
    9.2532  -17.8034   24.1498 C   0  0  1  0  0  0  0  0  0  0  0  0
   10.6237  -17.9179   23.9625 O   0  0  0  0  0  0  0  0  0  0  0  0
    8.7489  -16.3946   23.9167 C   0  0  2  0  0  0  0  0  0  0  0  0
    8.7782  -16.0315   22.5235 N   0  0  0  0  0  0  0  0  0  0  0  0
    9.4875  -15.4267   24.7625 C   0  0  0  0  0  0  0  0  0  0  0  0
    9.9165  -14.3814   24.2252 O   0  0  0  0  0  0  0  0  0  0  0  0
    6.8973  -12.2444   25.7786 C   0  0  0  0  0  0  0  0  0  0  0  0
    8.2103  -12.9450   25.8379 C   0  0  0  0  0  0  0  0  0  0  0  0
    8.5309  -13.7743   27.0044 C   0  0  2  0  0  0  0  0  0  0  0  0
    8.3343  -12.9844   28.3157 C   0  0  0  0  0  0  0  0  0  0  0  0
    9.8109  -14.5061   27.1034 C   0  0  2  0  0  0  0  0  0  0  0  0
    9.7147  -15.6517   26.1356 N   0  0  0  0  0  0  0  0  0  0  0  0
   10.1629  -15.0886   28.3766 C   0  0  0  0  0  0  0  0  0  0  0  0
   11.0166  -14.5427   29.3153 O   0  0  0  0  0  0  0  0  0  0  0  0
    9.6754  -16.2306   28.7346 O   0  0  0  0  0  0  0  0  0  0  0  0
  2  1  1  6
  3  2  1  0
  3  4  1  0
  5  4  1  0
  5  6  1  0
  6  7  1  0
  8  9  2  0
  8  2  1  0
 11 10  1  6
 11 13  1  0
 12 11  1  0
 13 14  1  6
 14  8  1  0
 15 22  1  0
 15 13  1  0
 16 15  2  0
 18 17  1  0
 19 21  1  0
 19 18  1  0
 19 20  1  1
 21 22  1  6
 23 21  1  0
 24 23  1  0
 25 23  2  0
M  END
$$$$
