KTI.pdb
     RDKit          3D

 25 24  0  0  1  0  0  0  0  0999 V2000
    8.5754  -18.1469   18.0240 N   0  0  0  0  0  0  0  0  0  0  0  0
    9.2849  -18.0524   19.2824 C   0  0  1  0  0  0  0  0  0  0  0  0
   10.6375  -17.4452   18.9874 C   0  0  0  0  0  0  0  0  0  0  0  0
   11.2712  -18.2843   17.8980 C   0  0  0  0  0  0  0  0  0  0  0  0
   12.7650  -18.3731   18.0514 C   0  0  0  0  0  0  0  0  0  0  0  0
   13.4958  -17.6537   16.9428 C   0  0  0  0  0  0  0  0  0  0  0  0
   14.9339  -17.7515   17.1064 N   0  0  0  0  0  0  0  0  0  0  0  0
    8.4872  -17.2690   20.2220 C   0  0  0  0  0  0  0  0  0  0  0  0
    7.8201  -16.2919   19.7974 O   0  0  0  0  0  0  0  0  0  0  0  0
    5.5384  -18.3020   22.1043 C   0  0  0  0  0  0  0  0  0  0  0  0
    6.4541  -17.6654   23.0976 C   0  0  1  0  0  0  0  0  0  0  0  0
    7.0097  -18.5955   23.9652 O   0  0  0  0  0  0  0  0  0  0  0  0
    7.4965  -16.7802   22.4470 C   0  0  2  0  0  0  0  0  0  0  0  0
    8.4024  -17.5299   21.6157 N   0  0  0  0  0  0  0  0  0  0  0  0
    8.2099  -15.9742   23.4663 C   0  0  0  0  0  0  0  0  0  0  0  0
    9.4527  -16.0931   23.5480 O   0  0  0  0  0  0  0  0  0  0  0  0
    6.8217  -11.0506   27.0458 C   0  0  0  0  0  0  0  0  0  0  0  0
    7.7693  -12.1479   26.7052 C   0  0  0  0  0  0  0  0  0  0  0  0
    7.3727  -13.1613   25.7218 C   0  0  2  0  0  0  0  0  0  0  0  0
    6.0113  -13.7876   26.0911 C   0  0  0  0  0  0  0  0  0  0  0  0
    8.2845  -14.2565   25.3307 C   0  0  2  0  0  0  0  0  0  0  0  0
    7.5330  -15.0911   24.3321 N   0  0  0  0  0  0  0  0  0  0  0  0
    8.7295  -15.1684   26.3576 C   0  0  0  0  0  0  0  0  0  0  0  0
    8.2340  -16.4360   26.5934 O   0  0  0  0  0  0  0  0  0  0  0  0
    9.6727  -14.8302   27.1737 O   0  0  0  0  0  0  0  0  0  0  0  0
  2  1  1  6
  3  2  1  0
  3  4  1  0
  5  4  1  0
  5  6  1  0
  6  7  1  0
  8  9  2  0
  8  2  1  0
 11 10  1  6
 11 13  1  0
 12 11  1  0
 13 14  1  1
 14  8  1  0
 15 22  1  0
 15 13  1  0
 16 15  2  0
 18 17  1  0
 19 21  1  0
 19 18  1  0
 19 20  1  1
 21 22  1  6
 23 21  1  0
 24 23  1  0
 25 23  2  0
M  END
$$$$
