KTI.pdb
     RDKit          3D

 25 24  0  0  1  0  0  0  0  0999 V2000
    6.6684  -16.3563   19.6679 N   0  0  0  0  0  0  0  0  0  0  0  0
    7.4592  -15.4661   20.4913 C   0  0  1  0  0  0  0  0  0  0  0  0
    6.8173  -14.0997   20.4149 C   0  0  0  0  0  0  0  0  0  0  0  0
    7.4237  -13.3918   19.2217 C   0  0  0  0  0  0  0  0  0  0  0  0
    8.8931  -13.1292   19.4087 C   0  0  0  0  0  0  0  0  0  0  0  0
    9.4506  -12.2208   18.3388 C   0  0  0  0  0  0  0  0  0  0  0  0
   10.8574  -11.9441   18.5598 N   0  0  0  0  0  0  0  0  0  0  0  0
    7.5252  -16.0037   21.8476 C   0  0  0  0  0  0  0  0  0  0  0  0
    6.4667  -16.1212   22.5151 O   0  0  0  0  0  0  0  0  0  0  0  0
    8.6222  -19.3007   23.2686 C   0  0  0  0  0  0  0  0  0  0  0  0
    9.3456  -18.2299   24.0174 C   0  0  1  0  0  0  0  0  0  0  0  0
   10.7026  -18.2161   23.7263 O   0  0  0  0  0  0  0  0  0  0  0  0
    8.7014  -16.8688   23.8573 C   0  0  2  0  0  0  0  0  0  0  0  0
    8.7230  -16.4157   22.4906 N   0  0  0  0  0  0  0  0  0  0  0  0
    9.3156  -15.8862   24.7819 C   0  0  0  0  0  0  0  0  0  0  0  0
   10.2076  -15.1320   24.3334 O   0  0  0  0  0  0  0  0  0  0  0  0
    6.7615  -12.2241   26.9687 C   0  0  0  0  0  0  0  0  0  0  0  0
    7.9959  -12.9519   26.5629 C   0  0  0  0  0  0  0  0  0  0  0  0
    8.6402  -13.8621   27.5157 C   0  0  2  0  0  0  0  0  0  0  0  0
    9.2373  -13.0838   28.7072 C   0  0  0  0  0  0  0  0  0  0  0  0
    9.6405  -14.8575   27.0773 C   0  0  2  0  0  0  0  0  0  0  0  0
    8.9255  -15.7823   26.1328 N   0  0  0  0  0  0  0  0  0  0  0  0
   10.2432  -15.7017   28.0814 C   0  0  0  0  0  0  0  0  0  0  0  0
   11.3304  -15.3813   28.8710 O   0  0  0  0  0  0  0  0  0  0  0  0
    9.7772  -16.8847   28.3120 O   0  0  0  0  0  0  0  0  0  0  0  0
  2  1  1  6
  3  2  1  0
  3  4  1  0
  5  4  1  0
  5  6  1  0
  6  7  1  0
  8  9  2  0
  8  2  1  0
 11 10  1  6
 11 13  1  0
 12 11  1  0
 13 14  1  6
 14  8  1  0
 15 22  1  0
 15 13  1  0
 16 15  2  0
 18 17  1  0
 19 21  1  0
 19 18  1  0
 19 20  1  1
 21 22  1  6
 23 21  1  0
 24 23  1  0
 25 23  2  0
M  END
$$$$
