KTI.pdb
     RDKit          3D

 25 24  0  0  1  0  0  0  0  0999 V2000
    7.9887  -16.8201   19.3229 N   0  0  0  0  0  0  0  0  0  0  0  0
    8.7164  -15.9111   20.1831 C   0  0  1  0  0  0  0  0  0  0  0  0
    8.2280  -14.5149   19.8716 C   0  0  0  0  0  0  0  0  0  0  0  0
    8.0835  -14.4219   18.3673 C   0  0  0  0  0  0  0  0  0  0  0  0
    7.6423  -13.0529   17.9266 C   0  0  0  0  0  0  0  0  0  0  0  0
    8.4013  -12.5726   16.7125 C   0  0  0  0  0  0  0  0  0  0  0  0
    8.1693  -13.4339   15.5685 N   0  0  0  0  0  0  0  0  0  0  0  0
    8.5103  -16.3034   21.5747 C   0  0  0  0  0  0  0  0  0  0  0  0
    7.3441  -16.5349   21.9824 O   0  0  0  0  0  0  0  0  0  0  0  0
    9.1521  -19.2980   23.4027 C   0  0  0  0  0  0  0  0  0  0  0  0
    9.7965  -18.2185   24.2089 C   0  0  1  0  0  0  0  0  0  0  0  0
   11.1817  -18.2746   24.1423 O   0  0  0  0  0  0  0  0  0  0  0  0
    9.2527  -16.8432   23.8830 C   0  0  2  0  0  0  0  0  0  0  0  0
    9.5509  -16.4482   22.5307 N   0  0  0  0  0  0  0  0  0  0  0  0
    9.7229  -15.8454   24.8735 C   0  0  0  0  0  0  0  0  0  0  0  0
   10.7378  -15.1695   24.5935 O   0  0  0  0  0  0  0  0  0  0  0  0
    6.5557  -12.1805   26.6402 C   0  0  0  0  0  0  0  0  0  0  0  0
    7.7812  -12.9653   26.3230 C   0  0  0  0  0  0  0  0  0  0  0  0
    8.4384  -13.7334   27.3858 C   0  0  2  0  0  0  0  0  0  0  0  0
    8.8485  -12.8171   28.5580 C   0  0  0  0  0  0  0  0  0  0  0  0
    9.5723  -14.6363   27.0978 C   0  0  2  0  0  0  0  0  0  0  0  0
    9.0648  -15.6426   26.1038 N   0  0  0  0  0  0  0  0  0  0  0  0
   10.1261  -15.4000   28.1906 C   0  0  0  0  0  0  0  0  0  0  0  0
   11.1225  -14.9857   29.0529 O   0  0  0  0  0  0  0  0  0  0  0  0
    9.7013  -16.5948   28.4396 O   0  0  0  0  0  0  0  0  0  0  0  0
  2  1  1  6
  3  2  1  0
  3  4  1  0
  5  4  1  0
  5  6  1  0
  6  7  1  0
  8  9  2  0
  8  2  1  0
 11 10  1  6
 11 13  1  0
 12 11  1  0
 13 14  1  6
 14  8  1  0
 15 22  1  0
 15 13  1  0
 16 15  2  0
 18 17  1  0
 19 21  1  0
 19 18  1  0
 19 20  1  1
 21 22  1  6
 23 21  1  0
 24 23  1  0
 25 23  2  0
M  END
$$$$
