KTI.pdb
     RDKit          3D

 25 24  0  0  1  0  0  0  0  0999 V2000
   10.7699  -17.4815   18.2378 N   0  0  0  0  0  0  0  0  0  0  0  0
   10.2802  -17.9403   19.5205 C   0  0  1  0  0  0  0  0  0  0  0  0
   11.4700  -18.4677   20.2896 C   0  0  0  0  0  0  0  0  0  0  0  0
   11.1118  -19.8625   20.7572 C   0  0  0  0  0  0  0  0  0  0  0  0
   12.0497  -20.3580   21.8239 C   0  0  0  0  0  0  0  0  0  0  0  0
   11.7462  -21.7792   22.2347 C   0  0  0  0  0  0  0  0  0  0  0  0
   12.6707  -22.2452   23.2510 N   0  0  0  0  0  0  0  0  0  0  0  0
    9.5949  -16.8387   20.1912 C   0  0  0  0  0  0  0  0  0  0  0  0
    9.1694  -15.8724   19.5091 O   0  0  0  0  0  0  0  0  0  0  0  0
    6.6177  -16.3320   20.4897 C   0  0  0  0  0  0  0  0  0  0  0  0
    6.9947  -16.2418   21.9320 C   0  0  1  0  0  0  0  0  0  0  0  0
    6.6799  -17.4016   22.6264 O   0  0  0  0  0  0  0  0  0  0  0  0
    8.4334  -15.8143   22.1335 C   0  0  2  0  0  0  0  0  0  0  0  0
    9.3644  -16.7698   21.5911 N   0  0  0  0  0  0  0  0  0  0  0  0
    8.6988  -15.5243   23.5629 C   0  0  0  0  0  0  0  0  0  0  0  0
    9.6107  -16.1623   24.1346 O   0  0  0  0  0  0  0  0  0  0  0  0
    7.2078  -10.7775   27.3292 C   0  0  0  0  0  0  0  0  0  0  0  0
    7.9605  -12.0434   27.1079 C   0  0  0  0  0  0  0  0  0  0  0  0
    7.6805  -12.8472   25.9134 C   0  0  2  0  0  0  0  0  0  0  0  0
    6.1684  -13.1233   25.7744 C   0  0  0  0  0  0  0  0  0  0  0  0
    8.3985  -14.1111   25.6473 C   0  0  2  0  0  0  0  0  0  0  0  0
    7.9606  -14.5625   24.2824 N   0  0  0  0  0  0  0  0  0  0  0  0
    8.1593  -15.2268   26.5317 C   0  0  0  0  0  0  0  0  0  0  0  0
    8.8611  -15.5186   27.6850 O   0  0  0  0  0  0  0  0  0  0  0  0
    7.2196  -16.0770   26.2784 O   0  0  0  0  0  0  0  0  0  0  0  0
  2  1  1  6
  3  2  1  0
  3  4  1  0
  5  4  1  0
  5  6  1  0
  6  7  1  0
  8  9  2  0
  8  2  1  0
 11 10  1  6
 11 13  1  0
 12 11  1  0
 13 14  1  1
 14  8  1  0
 15 22  1  0
 15 13  1  0
 16 15  2  0
 18 17  1  0
 19 21  1  0
 19 18  1  0
 19 20  1  1
 21 22  1  6
 23 21  1  0
 24 23  1  0
 25 23  2  0
M  END
$$$$
