KTI.pdb
     RDKit          3D

 25 24  0  0  1  0  0  0  0  0999 V2000
    9.0997  -17.0146   19.6122 N   0  0  0  0  0  0  0  0  0  0  0  0
    8.5409  -15.7083   19.8895 C   0  0  1  0  0  0  0  0  0  0  0  0
    7.5471  -15.4058   18.7912 C   0  0  0  0  0  0  0  0  0  0  0  0
    8.2249  -14.4506   17.8318 C   0  0  0  0  0  0  0  0  0  0  0  0
    7.3569  -14.1327   16.6450 C   0  0  0  0  0  0  0  0  0  0  0  0
    8.0467  -13.2153   15.6635 C   0  0  0  0  0  0  0  0  0  0  0  0
    7.2376  -13.0042   14.4780 N   0  0  0  0  0  0  0  0  0  0  0  0
    7.9489  -15.7164   21.2246 C   0  0  0  0  0  0  0  0  0  0  0  0
    7.3361  -14.6974   21.6321 O   0  0  0  0  0  0  0  0  0  0  0  0
    5.9085  -18.6659   23.2266 C   0  0  0  0  0  0  0  0  0  0  0  0
    7.0323  -18.0551   23.9976 C   0  0  1  0  0  0  0  0  0  0  0  0
    8.0999  -18.9299   24.1440 O   0  0  0  0  0  0  0  0  0  0  0  0
    7.4536  -16.7086   23.4474 C   0  0  2  0  0  0  0  0  0  0  0  0
    8.0121  -16.8138   22.1242 N   0  0  0  0  0  0  0  0  0  0  0  0
    8.3702  -16.0213   24.3883 C   0  0  0  0  0  0  0  0  0  0  0  0
    9.5666  -15.8816   24.0498 O   0  0  0  0  0  0  0  0  0  0  0  0
    5.9529  -12.1802   26.7675 C   0  0  0  0  0  0  0  0  0  0  0  0
    7.2424  -12.7269   26.2609 C   0  0  0  0  0  0  0  0  0  0  0  0
    8.0113  -13.6512   27.1010 C   0  0  2  0  0  0  0  0  0  0  0  0
    8.8765  -12.8819   28.1215 C   0  0  0  0  0  0  0  0  0  0  0  0
    8.8466  -14.7180   26.5111 C   0  0  2  0  0  0  0  0  0  0  0  0
    7.9338  -15.5292   25.6353 N   0  0  0  0  0  0  0  0  0  0  0  0
    9.4790  -15.6578   27.4060 C   0  0  0  0  0  0  0  0  0  0  0  0
    9.0733  -16.9564   27.6450 O   0  0  0  0  0  0  0  0  0  0  0  0
   10.5244  -15.3176   28.0854 O   0  0  0  0  0  0  0  0  0  0  0  0
  2  1  1  6
  3  2  1  0
  3  4  1  0
  5  4  1  0
  5  6  1  0
  6  7  1  0
  8  9  2  0
  8  2  1  0
 11 10  1  6
 11 13  1  0
 12 11  1  0
 13 14  1  6
 14  8  1  0
 15 22  1  0
 15 13  1  0
 16 15  2  0
 18 17  1  0
 19 21  1  0
 19 18  1  0
 19 20  1  6
 21 22  1  6
 23 21  1  0
 24 23  1  0
 25 23  2  0
M  END
$$$$
