KTI.pdb
     RDKit          3D

 25 24  0  0  1  0  0  0  0  0999 V2000
    8.0216  -17.3887   19.3384 N   0  0  0  0  0  0  0  0  0  0  0  0
    8.4460  -16.3065   20.2012 C   0  0  1  0  0  0  0  0  0  0  0  0
    7.5589  -15.1205   19.8984 C   0  0  0  0  0  0  0  0  0  0  0  0
    8.0395  -14.5311   18.5892 C   0  0  0  0  0  0  0  0  0  0  0  0
    8.1261  -13.0303   18.6444 C   0  0  0  0  0  0  0  0  0  0  0  0
    8.6312  -12.4403   17.3492 C   0  0  0  0  0  0  0  0  0  0  0  0
    8.2151  -13.2340   16.2083 N   0  0  0  0  0  0  0  0  0  0  0  0
    8.3735  -16.7483   21.5913 C   0  0  0  0  0  0  0  0  0  0  0  0
    7.6829  -17.7579   21.8808 O   0  0  0  0  0  0  0  0  0  0  0  0
    9.1299  -19.0565   23.0075 C   0  0  0  0  0  0  0  0  0  0  0  0
    9.8153  -18.0813   23.9074 C   0  0  1  0  0  0  0  0  0  0  0  0
   11.1660  -17.9597   23.6118 O   0  0  0  0  0  0  0  0  0  0  0  0
    9.1085  -16.7432   23.9642 C   0  0  2  0  0  0  0  0  0  0  0  0
    9.0391  -16.1109   22.6722 N   0  0  0  0  0  0  0  0  0  0  0  0
    9.7302  -15.8649   24.9839 C   0  0  0  0  0  0  0  0  0  0  0  0
   10.8256  -15.3262   24.7094 O   0  0  0  0  0  0  0  0  0  0  0  0
    6.4054  -12.4500   26.8195 C   0  0  0  0  0  0  0  0  0  0  0  0
    7.7277  -13.0374   26.4664 C   0  0  0  0  0  0  0  0  0  0  0  0
    8.5199  -13.7025   27.5062 C   0  0  2  0  0  0  0  0  0  0  0  0
    8.9956  -12.6915   28.5709 C   0  0  0  0  0  0  0  0  0  0  0  0
    9.6634  -14.5748   27.1664 C   0  0  2  0  0  0  0  0  0  0  0  0
    9.1269  -15.6255   26.2355 N   0  0  0  0  0  0  0  0  0  0  0  0
   10.3151  -15.2881   28.2391 C   0  0  0  0  0  0  0  0  0  0  0  0
   10.1934  -16.6362   28.5145 O   0  0  0  0  0  0  0  0  0  0  0  0
   11.0952  -14.6685   29.0622 O   0  0  0  0  0  0  0  0  0  0  0  0
  2  1  1  6
  3  2  1  0
  3  4  1  0
  5  4  1  0
  5  6  1  0
  6  7  1  0
  8  9  2  0
  8  2  1  0
 11 10  1  6
 11 13  1  0
 12 11  1  0
 13 14  1  6
 14  8  1  0
 15 22  1  0
 15 13  1  0
 16 15  2  0
 18 17  1  0
 19 21  1  0
 19 18  1  0
 19 20  1  1
 21 22  1  6
 23 21  1  0
 24 23  1  0
 25 23  2  0
M  END
$$$$
