KTI.pdb
     RDKit          3D

 25 24  0  0  1  0  0  0  0  0999 V2000
    8.4574  -17.7120   19.4346 N   0  0  0  0  0  0  0  0  0  0  0  0
    7.5134  -16.9108   20.1847 C   0  0  1  0  0  0  0  0  0  0  0  0
    6.1279  -17.3240   19.7434 C   0  0  0  0  0  0  0  0  0  0  0  0
    6.2978  -18.4616   18.7589 C   0  0  0  0  0  0  0  0  0  0  0  0
    4.9809  -18.9222   18.1963 C   0  0  0  0  0  0  0  0  0  0  0  0
    5.1544  -19.9728   17.1254 C   0  0  0  0  0  0  0  0  0  0  0  0
    3.8753  -20.3995   16.5905 N   0  0  0  0  0  0  0  0  0  0  0  0
    7.7520  -17.1045   21.6124 C   0  0  0  0  0  0  0  0  0  0  0  0
    6.9497  -17.8041   22.2810 O   0  0  0  0  0  0  0  0  0  0  0  0
    9.6257  -19.2725   23.3108 C   0  0  0  0  0  0  0  0  0  0  0  0
   10.0707  -17.9754   23.9024 C   0  0  1  0  0  0  0  0  0  0  0  0
   11.3392  -17.6135   23.4706 O   0  0  0  0  0  0  0  0  0  0  0  0
    9.0537  -16.8691   23.7151 C   0  0  2  0  0  0  0  0  0  0  0  0
    8.8483  -16.5505   22.3258 N   0  0  0  0  0  0  0  0  0  0  0  0
    9.4238  -15.6761   24.5135 C   0  0  0  0  0  0  0  0  0  0  0  0
   10.2333  -14.8618   24.0165 O   0  0  0  0  0  0  0  0  0  0  0  0
    6.0370  -12.2169   26.1620 C   0  0  0  0  0  0  0  0  0  0  0  0
    7.3351  -12.8687   25.8327 C   0  0  0  0  0  0  0  0  0  0  0  0
    8.1288  -13.4741   26.9073 C   0  0  2  0  0  0  0  0  0  0  0  0
    8.4877  -12.4300   27.9857 C   0  0  0  0  0  0  0  0  0  0  0  0
    9.3440  -14.2640   26.6187 C   0  0  2  0  0  0  0  0  0  0  0  0
    8.8943  -15.4404   25.7988 N   0  0  0  0  0  0  0  0  0  0  0  0
   10.0773  -14.8131   27.7345 C   0  0  0  0  0  0  0  0  0  0  0  0
   10.1144  -16.1413   28.1120 O   0  0  0  0  0  0  0  0  0  0  0  0
   10.7822  -14.0463   28.4994 O   0  0  0  0  0  0  0  0  0  0  0  0
  2  1  1  6
  3  2  1  0
  3  4  1  0
  5  4  1  0
  5  6  1  0
  6  7  1  0
  8  9  2  0
  8  2  1  0
 11 10  1  6
 11 13  1  0
 12 11  1  0
 13 14  1  6
 14  8  1  0
 15 22  1  0
 15 13  1  0
 16 15  2  0
 18 17  1  0
 19 21  1  0
 19 18  1  0
 19 20  1  1
 21 22  1  6
 23 21  1  0
 24 23  1  0
 25 23  2  0
M  END
$$$$
