KTI.pdb
     RDKit          3D

 25 24  0  0  1  0  0  0  0  0999 V2000
   11.5867  -17.3339   18.7236 N   0  0  0  0  0  0  0  0  0  0  0  0
   10.6656  -17.8578   19.7098 C   0  0  1  0  0  0  0  0  0  0  0  0
   11.4543  -18.7799   20.6114 C   0  0  0  0  0  0  0  0  0  0  0  0
   12.8734  -18.8069   20.0845 C   0  0  0  0  0  0  0  0  0  0  0  0
   13.7874  -17.9151   20.8797 C   0  0  0  0  0  0  0  0  0  0  0  0
   15.2428  -18.2629   20.6757 C   0  0  0  0  0  0  0  0  0  0  0  0
   15.5775  -19.5277   21.3024 N   0  0  0  0  0  0  0  0  0  0  0  0
   10.0413  -16.7438   20.4185 C   0  0  0  0  0  0  0  0  0  0  0  0
   10.5332  -15.5922   20.3097 O   0  0  0  0  0  0  0  0  0  0  0  0
    6.4098  -15.5208   20.0698 C   0  0  0  0  0  0  0  0  0  0  0  0
    6.7500  -15.6972   21.5133 C   0  0  1  0  0  0  0  0  0  0  0  0
    6.1231  -16.8059   22.0648 O   0  0  0  0  0  0  0  0  0  0  0  0
    8.2429  -15.6859   21.7667 C   0  0  2  0  0  0  0  0  0  0  0  0
    8.8909  -16.8607   21.2436 N   0  0  0  0  0  0  0  0  0  0  0  0
    8.5286  -15.4843   23.2074 C   0  0  0  0  0  0  0  0  0  0  0  0
    9.3962  -16.2091   23.7435 O   0  0  0  0  0  0  0  0  0  0  0  0
    6.8817  -11.2503   27.5231 C   0  0  0  0  0  0  0  0  0  0  0  0
    7.6915  -12.4395   27.1381 C   0  0  0  0  0  0  0  0  0  0  0  0
    7.4613  -13.0756   25.8367 C   0  0  2  0  0  0  0  0  0  0  0  0
    5.9635  -13.3851   25.6293 C   0  0  0  0  0  0  0  0  0  0  0  0
    8.2327  -14.2614   25.4094 C   0  0  2  0  0  0  0  0  0  0  0  0
    7.8573  -14.5115   23.9759 N   0  0  0  0  0  0  0  0  0  0  0  0
    8.0040  -15.5062   26.1040 C   0  0  0  0  0  0  0  0  0  0  0  0
    8.7496  -16.0025   27.1556 O   0  0  0  0  0  0  0  0  0  0  0  0
    7.0311  -16.2833   25.7580 O   0  0  0  0  0  0  0  0  0  0  0  0
  2  1  1  6
  3  2  1  0
  3  4  1  0
  5  4  1  0
  5  6  1  0
  6  7  1  0
  8  9  2  0
  8  2  1  0
 11 10  1  6
 11 13  1  0
 12 11  1  0
 13 14  1  1
 14  8  1  0
 15 22  1  0
 15 13  1  0
 16 15  2  0
 18 17  1  0
 19 21  1  0
 19 18  1  0
 19 20  1  1
 21 22  1  6
 23 21  1  0
 24 23  1  0
 25 23  2  0
M  END
$$$$
