KTI.pdb
     RDKit          3D

 25 24  0  0  1  0  0  0  0  0999 V2000
    4.2004  -19.8925   21.4054 N   0  0  0  0  0  0  0  0  0  0  0  0
    4.2046  -18.5891   22.0354 C   0  0  1  0  0  0  0  0  0  0  0  0
    2.9451  -18.4907   22.8655 C   0  0  0  0  0  0  0  0  0  0  0  0
    2.0084  -19.5761   22.3789 C   0  0  0  0  0  0  0  0  0  0  0  0
    0.7738  -19.0082   21.7336 C   0  0  0  0  0  0  0  0  0  0  0  0
   -0.2196  -20.0824   21.3596 C   0  0  0  0  0  0  0  0  0  0  0  0
   -1.1102  -20.3871   22.4634 N   0  0  0  0  0  0  0  0  0  0  0  0
    5.4299  -18.4408   22.8161 C   0  0  0  0  0  0  0  0  0  0  0  0
    5.6294  -19.1994   23.7983 O   0  0  0  0  0  0  0  0  0  0  0  0
    8.7791  -19.3522   22.1814 C   0  0  0  0  0  0  0  0  0  0  0  0
    8.8562  -17.9091   22.5584 C   0  0  1  0  0  0  0  0  0  0  0  0
    9.1306  -17.0989   21.4654 O   0  0  0  0  0  0  0  0  0  0  0  0
    7.6446  -17.4442   23.3388 C   0  0  2  0  0  0  0  0  0  0  0  0
    6.4423  -17.4813   22.5470 N   0  0  0  0  0  0  0  0  0  0  0  0
    7.8837  -16.1059   23.9300 C   0  0  0  0  0  0  0  0  0  0  0  0
    7.6860  -15.1003   23.2123 O   0  0  0  0  0  0  0  0  0  0  0  0
    5.5106  -12.9344   26.7778 C   0  0  0  0  0  0  0  0  0  0  0  0
    6.6159  -13.4358   25.9146 C   0  0  0  0  0  0  0  0  0  0  0  0
    7.8199  -13.9937   26.5394 C   0  0  2  0  0  0  0  0  0  0  0  0
    8.4869  -12.9622   27.4738 C   0  0  0  0  0  0  0  0  0  0  0  0
    8.8831  -14.6306   25.7347 C   0  0  2  0  0  0  0  0  0  0  0  0
    8.3214  -15.9412   25.2600 N   0  0  0  0  0  0  0  0  0  0  0  0
   10.1318  -14.9454   26.3873 C   0  0  0  0  0  0  0  0  0  0  0  0
   11.2284  -14.1124   26.4954 O   0  0  0  0  0  0  0  0  0  0  0  0
   10.3130  -16.1001   26.9384 O   0  0  0  0  0  0  0  0  0  0  0  0
  2  1  1  1
  3  2  1  0
  3  4  1  0
  5  4  1  0
  5  6  1  0
  6  7  1  0
  8  9  2  0
  8  2  1  0
 11 10  1  6
 11 13  1  0
 12 11  1  0
 13 14  1  6
 14  8  1  0
 15 22  1  0
 15 13  1  0
 16 15  2  0
 18 17  1  0
 19 21  1  0
 19 18  1  0
 19 20  1  6
 21 22  1  1
 23 21  1  0
 24 23  1  0
 25 23  2  0
M  END
$$$$
