RFC.pdb
     RDKit          3D

 29 29  0  0  1  0  0  0  0  0999 V2000
    8.4533  -13.5377   16.8329 N   0  0  0  0  0  0  0  0  0  0  0  0
    8.3595  -13.7101   18.2453 C   0  0  0  0  0  0  0  0  0  0  0  0
    8.4743  -12.6349   18.9682 N   0  0  0  0  0  0  0  0  0  0  0  0
    8.1524  -14.9931   18.8051 N   0  0  0  0  0  0  0  0  0  0  0  0
    9.0921  -16.0338   18.5558 C   0  0  0  0  0  0  0  0  0  0  0  0
   10.5144  -15.6464   18.8620 C   0  0  0  0  0  0  0  0  0  0  0  0
   11.2139  -16.6749   19.7240 C   0  0  0  0  0  0  0  0  0  0  0  0
   10.2251  -17.1395   20.7721 C   0  0  2  0  0  0  0  0  0  0  0  0
    8.9225  -17.1722   20.1400 N   0  0  0  0  0  0  0  0  0  0  0  0
   10.1570  -16.2098   21.9212 C   0  0  0  0  0  0  0  0  0  0  0  0
   11.1937  -15.6296   22.3206 O   0  0  0  0  0  0  0  0  0  0  0  0
    8.4293  -12.6697   20.0142 N   0  0  0  0  0  0  0  0  0  0  0  0
    8.9499  -15.9283   22.6187 C   0  0  1  0  0  0  0  0  0  0  0  0
    8.8374  -15.0497   23.7381 C   0  0  0  0  0  0  0  0  0  0  0  0
    7.3346  -14.9206   24.0249 C   0  0  0  0  0  0  0  0  0  0  0  0
    7.0655  -13.8414   24.9976 C   0  0  0  0  0  0  0  0  0  0  0  0
    6.5599  -14.0791   26.2586 C   0  0  0  0  0  0  0  0  0  0  0  0
    6.3113  -13.0738   27.1593 C   0  0  0  0  0  0  0  0  0  0  0  0
    6.5651  -11.7660   26.8237 C   0  0  0  0  0  0  0  0  0  0  0  0
    7.0698  -11.5036   25.5713 C   0  0  0  0  0  0  0  0  0  0  0  0
    7.3184  -12.5345   24.6643 C   0  0  0  0  0  0  0  0  0  0  0  0
    9.4719  -15.5404   24.9767 O   0  0  0  0  0  0  0  0  0  0  0  0
    9.6513  -16.7888   25.1304 N   0  0  0  0  0  0  0  0  0  0  0  0
    9.9064  -14.7056   26.0279 C   0  0  2  0  0  0  0  0  0  0  0  0
   10.7158  -15.2028   27.1418 C   0  0  0  0  0  0  0  0  0  0  0  0
   10.8856  -14.0978   28.1891 S   0  0  0  0  0  0  0  0  0  0  0  0
   11.8383  -14.8029   29.5539 C   0  0  0  0  0  0  0  0  0  0  0  0
    9.9147  -16.2513   27.8148 O   0  0  0  0  0  0  0  0  0  0  0  0
    8.6649  -16.0220   27.9195 O   0  0  0  0  0  0  0  0  0  0  0  0
  1  2  1  0
  2  3  2  0
  4  5  1  0
  4  2  1  0
  6  5  1  0
  7  6  1  0
  8 10  1  0
  8  7  1  0
  8  9  1  6
 10 11  2  0
 12 13  1  0
 12 10  1  0
 14 15  1  0
 13 14  1  1
 15 16  2  0
 16 17  1  0
 18 17  2  0
 19 18  1  0
 20 19  2  0
 20 15  1  0
 21 22  2  0
 21 13  1  0
 23 21  1  0
 24 23  1  0
 24 27  1  0
 24 25  1  1
 26 25  1  0
 27 29  1  0
 28 27  2  0
M  END
$$$$
