RFC.pdb
     RDKit          3D

 29 29  0  0  1  0  0  0  0  0999 V2000
    8.8955  -15.1615   16.6980 N   0  0  0  0  0  0  0  0  0  0  0  0
    8.2204  -13.9060   16.6618 C   0  0  0  0  0  0  0  0  0  0  0  0
    7.5254  -13.6536   15.5918 N   0  0  0  0  0  0  0  0  0  0  0  0
    8.3177  -13.0011   17.7454 N   0  0  0  0  0  0  0  0  0  0  0  0
    9.0588  -13.3643   18.9059 C   0  0  0  0  0  0  0  0  0  0  0  0
    8.2661  -13.2640   20.1820 C   0  0  0  0  0  0  0  0  0  0  0  0
    7.3499  -14.4521   20.3805 C   0  0  0  0  0  0  0  0  0  0  0  0
    8.1984  -15.6044   20.8747 C   0  0  2  0  0  0  0  0  0  0  0  0
    7.3510  -16.7788   20.8879 N   0  0  0  0  0  0  0  0  0  0  0  0
    8.6943  -15.3781   22.2503 C   0  0  0  0  0  0  0  0  0  0  0  0
    9.6101  -14.5479   22.4580 O   0  0  0  0  0  0  0  0  0  0  0  0
    7.0853  -12.7165   15.4319 N   0  0  0  0  0  0  0  0  0  0  0  0
    8.1780  -16.0668   23.3825 C   0  0  1  0  0  0  0  0  0  0  0  0
    8.6361  -15.8957   24.7236 C   0  0  0  0  0  0  0  0  0  0  0  0
    7.3745  -15.7406   25.5848 C   0  0  0  0  0  0  0  0  0  0  0  0
    7.1848  -14.3381   26.0094 C   0  0  0  0  0  0  0  0  0  0  0  0
    8.0373  -13.6992   26.8853 C   0  0  0  0  0  0  0  0  0  0  0  0
    7.8575  -12.3963   27.2773 C   0  0  0  0  0  0  0  0  0  0  0  0
    6.7952  -11.6696   26.7967 C   0  0  0  0  0  0  0  0  0  0  0  0
    5.9308  -12.2852   25.9215 C   0  0  0  0  0  0  0  0  0  0  0  0
    6.1244  -13.6107   25.5304 C   0  0  0  0  0  0  0  0  0  0  0  0
    9.3930  -17.0385   25.2700 O   0  0  0  0  0  0  0  0  0  0  0  0
    8.9761  -18.2195   25.0556 N   0  0  0  0  0  0  0  0  0  0  0  0
   10.5752  -16.9142   26.0300 C   0  0  1  0  0  0  0  0  0  0  0  0
   11.3501  -18.0751   26.4720 C   0  0  0  0  0  0  0  0  0  0  0  0
   12.8011  -17.6580   26.7309 S   0  0  0  0  0  0  0  0  0  0  0  0
   13.6618  -19.1089   27.3804 C   0  0  0  0  0  0  0  0  0  0  0  0
   10.8178  -18.4614   27.7991 O   0  0  0  0  0  0  0  0  0  0  0  0
   10.1280  -17.5774   28.4061 O   0  0  0  0  0  0  0  0  0  0  0  0
  1  2  1  0
  2  3  2  0
  4  5  1  0
  4  2  1  0
  6  5  1  0
  7  6  1  0
  8 10  1  0
  8  7  1  0
  8  9  1  1
 10 11  2  0
 12 13  1  0
 12 10  1  0
 14 15  1  0
 13 14  1  1
 15 16  2  0
 16 17  1  0
 18 17  2  0
 19 18  1  0
 20 19  2  0
 20 15  1  0
 21 22  2  0
 21 13  1  0
 23 21  1  0
 24 23  1  0
 24 27  1  0
 24 25  1  1
 26 25  1  0
 27 29  1  0
 28 27  2  0
M  END
$$$$
