RFC.pdb
     RDKit          3D

 29 29  0  0  1  0  0  0  0  0999 V2000
    7.1845  -20.9598   17.0734 N   0  0  0  0  0  0  0  0  0  0  0  0
    7.2726  -19.6686   16.4746 C   0  0  0  0  0  0  0  0  0  0  0  0
    6.2861  -19.3211   15.7015 N   0  0  0  0  0  0  0  0  0  0  0  0
    8.3845  -18.8299   16.7247 N   0  0  0  0  0  0  0  0  0  0  0  0
    8.2763  -17.7769   17.6774 C   0  0  0  0  0  0  0  0  0  0  0  0
    7.4821  -18.1512   18.9005 C   0  0  0  0  0  0  0  0  0  0  0  0
    8.2438  -17.8834   20.1805 C   0  0  0  0  0  0  0  0  0  0  0  0
    8.7680  -16.4649   20.1106 C   0  0  2  0  0  0  0  0  0  0  0  0
   10.0200  -16.5117   19.3841 N   0  0  0  0  0  0  0  0  0  0  0  0
    9.0351  -15.9053   21.4541 C   0  0  0  0  0  0  0  0  0  0  0  0
   10.0813  -16.2209   22.0680 O   0  0  0  0  0  0  0  0  0  0  0  0
    6.2625  -18.3864   15.2289 N   0  0  0  0  0  0  0  0  0  0  0  0
    8.1493  -15.0051   22.1079 C   0  0  2  0  0  0  0  0  0  0  0  0
    8.3087  -14.5246   23.4426 C   0  0  0  0  0  0  0  0  0  0  0  0
    7.1495  -13.5466   23.6813 C   0  0  0  0  0  0  0  0  0  0  0  0
    7.2134  -12.9603   25.0360 C   0  0  0  0  0  0  0  0  0  0  0  0
    8.2503  -12.1526   25.4541 C   0  0  0  0  0  0  0  0  0  0  0  0
    8.3060  -11.6100   26.7134 C   0  0  0  0  0  0  0  0  0  0  0  0
    7.3047  -11.8612   27.6199 C   0  0  0  0  0  0  0  0  0  0  0  0
    6.2595  -12.6642   27.2262 C   0  0  0  0  0  0  0  0  0  0  0  0
    6.2142  -13.2101   25.9428 C   0  0  0  0  0  0  0  0  0  0  0  0
    8.2200  -15.5616   24.4888 O   0  0  0  0  0  0  0  0  0  0  0  0
    7.1409  -16.2189   24.6221 N   0  0  0  0  0  0  0  0  0  0  0  0
    9.2708  -15.8864   25.3725 C   0  0  1  0  0  0  0  0  0  0  0  0
    9.1718  -16.9788   26.3421 C   0  0  0  0  0  0  0  0  0  0  0  0
    9.7406  -18.2633   25.7312 S   0  0  0  0  0  0  0  0  0  0  0  0
   11.2973  -17.8226   24.9249 C   0  0  0  0  0  0  0  0  0  0  0  0
   10.0887  -16.6433   27.4558 O   0  0  0  0  0  0  0  0  0  0  0  0
   10.7396  -15.5533   27.3379 O   0  0  0  0  0  0  0  0  0  0  0  0
  1  2  1  0
  2  3  2  0
  4  5  1  0
  4  2  1  0
  6  5  1  0
  7  6  1  0
  8 10  1  0
  8  7  1  0
  8  9  1  6
 10 11  2  0
 12 13  1  0
 12 10  1  0
 14 15  1  0
 13 14  1  6
 15 16  2  0
 16 17  1  0
 18 17  2  0
 19 18  1  0
 20 19  2  0
 20 15  1  0
 21 22  2  0
 21 13  1  0
 23 21  1  0
 24 23  1  0
 24 27  1  0
 24 25  1  1
 26 25  1  0
 27 29  1  0
 28 27  2  0
M  END
$$$$
