RFC.pdb
     RDKit          3D

 29 29  0  0  1  0  0  0  0  0999 V2000
   10.8407  -18.3400   15.3543 N   0  0  0  0  0  0  0  0  0  0  0  0
   11.2024  -19.5206   16.0676 C   0  0  0  0  0  0  0  0  0  0  0  0
   12.2110  -20.1941   15.5980 N   0  0  0  0  0  0  0  0  0  0  0  0
   10.4857  -19.9160   17.2220 N   0  0  0  0  0  0  0  0  0  0  0  0
    9.8292  -18.9344   18.0179 C   0  0  0  0  0  0  0  0  0  0  0  0
   10.7495  -17.8549   18.5224 C   0  0  0  0  0  0  0  0  0  0  0  0
   10.0300  -16.8559   19.4026 C   0  0  0  0  0  0  0  0  0  0  0  0
   10.0909  -17.3738   20.8239 C   0  0  2  0  0  0  0  0  0  0  0  0
    8.9503  -18.2477   21.0052 N   0  0  0  0  0  0  0  0  0  0  0  0
    9.9971  -16.2810   21.8171 C   0  0  0  0  0  0  0  0  0  0  0  0
   10.8611  -15.3732   21.8339 O   0  0  0  0  0  0  0  0  0  0  0  0
   12.5455  -21.0736   16.0583 N   0  0  0  0  0  0  0  0  0  0  0  0
    8.9544  -16.1981   22.7807 C   0  0  2  0  0  0  0  0  0  0  0  0
    8.8596  -15.2037   23.8005 C   0  0  0  0  0  0  0  0  0  0  0  0
    7.3600  -14.9351   23.9911 C   0  0  0  0  0  0  0  0  0  0  0  0
    7.1282  -13.8881   25.0075 C   0  0  0  0  0  0  0  0  0  0  0  0
    7.5381  -12.5814   24.8432 C   0  0  0  0  0  0  0  0  0  0  0  0
    7.3209  -11.6117   25.7899 C   0  0  0  0  0  0  0  0  0  0  0  0
    6.6717  -11.9208   26.9605 C   0  0  0  0  0  0  0  0  0  0  0  0
    6.2532  -13.2178   27.1475 C   0  0  0  0  0  0  0  0  0  0  0  0
    6.4800  -14.1949   26.1774 C   0  0  0  0  0  0  0  0  0  0  0  0
    9.3948  -15.6109   25.1141 O   0  0  0  0  0  0  0  0  0  0  0  0
    9.5386  -16.8470   25.3704 N   0  0  0  0  0  0  0  0  0  0  0  0
    9.7696  -14.7072   26.1307 C   0  0  2  0  0  0  0  0  0  0  0  0
   10.5570  -15.1175   27.2947 C   0  0  0  0  0  0  0  0  0  0  0  0
   10.6635  -13.9511   28.2821 S   0  0  0  0  0  0  0  0  0  0  0  0
   11.5728  -14.5571   29.7221 C   0  0  0  0  0  0  0  0  0  0  0  0
    9.7641  -16.1495   28.0020 O   0  0  0  0  0  0  0  0  0  0  0  0
    8.5004  -16.0935   27.8425 O   0  0  0  0  0  0  0  0  0  0  0  0
  1  2  1  0
  2  3  2  0
  4  5  1  0
  4  2  1  0
  6  5  1  0
  7  6  1  0
  8 10  1  0
  8  7  1  0
  8  9  1  1
 10 11  2  0
 12 13  1  0
 12 10  1  0
 14 15  1  0
 13 14  1  6
 15 16  2  0
 16 17  1  0
 18 17  2  0
 19 18  1  0
 20 19  2  0
 20 15  1  0
 21 22  2  0
 21 13  1  0
 23 21  1  0
 24 23  1  0
 24 27  1  0
 24 25  1  1
 26 25  1  0
 27 29  1  0
 28 27  2  0
M  END
$$$$
