RFC.pdb
     RDKit          3D

 29 29  0  0  1  0  0  0  0  0999 V2000
   10.1424  -14.5347   15.9296 N   0  0  0  0  0  0  0  0  0  0  0  0
    9.0573  -13.7375   16.3991 C   0  0  0  0  0  0  0  0  0  0  0  0
    8.0984  -13.5083   15.5509 N   0  0  0  0  0  0  0  0  0  0  0  0
    9.0488  -13.2348   17.7219 N   0  0  0  0  0  0  0  0  0  0  0  0
    8.7779  -14.1122   18.8104 C   0  0  0  0  0  0  0  0  0  0  0  0
    7.3341  -14.1138   19.2373 C   0  0  0  0  0  0  0  0  0  0  0  0
    7.1825  -14.2159   20.7396 C   0  0  0  0  0  0  0  0  0  0  0  0
    7.9023  -15.4707   21.1861 C   0  0  2  0  0  0  0  0  0  0  0  0
    6.9073  -16.5188   21.2799 N   0  0  0  0  0  0  0  0  0  0  0  0
    8.5274  -15.3077   22.5173 C   0  0  0  0  0  0  0  0  0  0  0  0
    9.6108  -14.6876   22.6295 O   0  0  0  0  0  0  0  0  0  0  0  0
    7.3028  -12.8673   15.7822 N   0  0  0  0  0  0  0  0  0  0  0  0
    7.9546  -15.8282   23.7105 C   0  0  1  0  0  0  0  0  0  0  0  0
    8.5671  -15.7845   24.9991 C   0  0  0  0  0  0  0  0  0  0  0  0
    7.4239  -15.5839   26.0041 C   0  0  0  0  0  0  0  0  0  0  0  0
    7.1502  -14.1488   26.2248 C   0  0  0  0  0  0  0  0  0  0  0  0
    5.8984  -13.5922   26.0655 C   0  0  0  0  0  0  0  0  0  0  0  0
    5.6483  -12.2585   26.2715 C   0  0  0  0  0  0  0  0  0  0  0  0
    6.6636  -11.4151   26.6526 C   0  0  0  0  0  0  0  0  0  0  0  0
    7.9214  -11.9469   26.8180 C   0  0  0  0  0  0  0  0  0  0  0  0
    8.1630  -13.3047   26.6055 C   0  0  0  0  0  0  0  0  0  0  0  0
    9.2737  -17.0193   25.3911 O   0  0  0  0  0  0  0  0  0  0  0  0
    8.7030  -18.1419   25.2228 N   0  0  0  0  0  0  0  0  0  0  0  0
   10.5685  -17.0465   25.9510 C   0  0  1  0  0  0  0  0  0  0  0  0
   11.2489  -18.2963   26.2950 C   0  0  0  0  0  0  0  0  0  0  0  0
   12.7609  -18.0592   26.3594 S   0  0  0  0  0  0  0  0  0  0  0  0
   13.4449  -18.5631   24.7637 C   0  0  0  0  0  0  0  0  0  0  0  0
   10.8519  -18.6286   27.6827 O   0  0  0  0  0  0  0  0  0  0  0  0
   10.0918  -17.7872   28.2658 O   0  0  0  0  0  0  0  0  0  0  0  0
  1  2  1  0
  2  3  2  0
  4  5  1  0
  4  2  1  0
  6  5  1  0
  7  6  1  0
  8 10  1  0
  8  7  1  0
  8  9  1  1
 10 11  2  0
 12 13  1  0
 12 10  1  0
 14 15  1  0
 13 14  1  6
 15 16  2  0
 16 17  1  0
 18 17  2  0
 19 18  1  0
 20 19  2  0
 20 15  1  0
 21 22  2  0
 21 13  1  0
 23 21  1  0
 24 23  1  0
 24 27  1  0
 24 25  1  1
 26 25  1  0
 27 29  1  0
 28 27  2  0
M  END
$$$$
