RFC.pdb
     RDKit          3D

 29 29  0  0  1  0  0  0  0  0999 V2000
   10.7955  -20.9832   17.8353 N   0  0  0  0  0  0  0  0  0  0  0  0
    9.4596  -21.4296   17.6126 C   0  0  0  0  0  0  0  0  0  0  0  0
    9.2306  -22.0275   16.4805 N   0  0  0  0  0  0  0  0  0  0  0  0
    8.4555  -21.2208   18.5876 N   0  0  0  0  0  0  0  0  0  0  0  0
    8.7677  -20.5160   19.7850 C   0  0  0  0  0  0  0  0  0  0  0  0
    9.4154  -19.1783   19.5445 C   0  0  0  0  0  0  0  0  0  0  0  0
    9.5783  -18.3842   20.8224 C   0  0  0  0  0  0  0  0  0  0  0  0
    9.2110  -16.9477   20.5164 C   0  0  2  0  0  0  0  0  0  0  0  0
   10.0782  -16.5086   19.4429 N   0  0  0  0  0  0  0  0  0  0  0  0
    9.4304  -16.0593   21.6792 C   0  0  0  0  0  0  0  0  0  0  0  0
   10.5907  -15.8707   22.1140 O   0  0  0  0  0  0  0  0  0  0  0  0
    8.2826  -22.4030   16.2403 N   0  0  0  0  0  0  0  0  0  0  0  0
    8.3718  -15.3880   22.3512 C   0  0  2  0  0  0  0  0  0  0  0  0
    8.4962  -14.7085   23.6004 C   0  0  0  0  0  0  0  0  0  0  0  0
    7.1876  -13.9280   23.7893 C   0  0  0  0  0  0  0  0  0  0  0  0
    7.2147  -13.1295   25.0322 C   0  0  0  0  0  0  0  0  0  0  0  0
    8.0637  -12.0582   25.2154 C   0  0  0  0  0  0  0  0  0  0  0  0
    8.0859  -11.3190   26.3716 C   0  0  0  0  0  0  0  0  0  0  0  0
    7.2410  -11.6316   27.4088 C   0  0  0  0  0  0  0  0  0  0  0  0
    6.3845  -12.6962   27.2498 C   0  0  0  0  0  0  0  0  0  0  0  0
    6.3715  -13.4402   26.0693 C   0  0  0  0  0  0  0  0  0  0  0  0
    8.6444  -15.5915   24.7735 O   0  0  0  0  0  0  0  0  0  0  0  0
    7.7366  -16.4429   25.0290 N   0  0  0  0  0  0  0  0  0  0  0  0
    9.7473  -15.5608   25.6528 C   0  0  1  0  0  0  0  0  0  0  0  0
    9.9691  -16.5901   26.6700 C   0  0  0  0  0  0  0  0  0  0  0  0
   11.4041  -17.1162   26.5666 S   0  0  0  0  0  0  0  0  0  0  0  0
   11.5939  -17.8163   24.9109 C   0  0  0  0  0  0  0  0  0  0  0  0
    9.9020  -15.9105   27.9844 O   0  0  0  0  0  0  0  0  0  0  0  0
    9.6994  -14.6520   27.9558 O   0  0  0  0  0  0  0  0  0  0  0  0
  1  2  1  0
  2  3  2  0
  4  5  1  0
  4  2  1  0
  6  5  1  0
  7  6  1  0
  8 10  1  0
  8  7  1  0
  8  9  1  6
 10 11  2  0
 12 13  1  0
 12 10  1  0
 14 15  1  0
 13 14  1  6
 15 16  2  0
 16 17  1  0
 18 17  2  0
 19 18  1  0
 20 19  2  0
 20 15  1  0
 21 22  2  0
 21 13  1  0
 23 21  1  0
 24 23  1  0
 24 27  1  0
 24 25  1  1
 26 25  1  0
 27 29  1  0
 28 27  2  0
M  END
$$$$
