RFC.pdb
     RDKit          3D

 29 29  0  0  1  0  0  0  0  0999 V2000
    7.3562  -15.2427   16.3921 N   0  0  0  0  0  0  0  0  0  0  0  0
    8.4237  -14.3126   16.5621 C   0  0  0  0  0  0  0  0  0  0  0  0
    8.0873  -13.0626   16.6882 N   0  0  0  0  0  0  0  0  0  0  0  0
    9.7685  -14.7523   16.5887 N   0  0  0  0  0  0  0  0  0  0  0  0
   10.0561  -16.1430   16.6955 C   0  0  0  0  0  0  0  0  0  0  0  0
    9.5345  -16.7700   17.9610 C   0  0  0  0  0  0  0  0  0  0  0  0
   10.2787  -16.2867   19.1870 C   0  0  0  0  0  0  0  0  0  0  0  0
    9.6199  -16.9146   20.3969 C   0  0  2  0  0  0  0  0  0  0  0  0
    8.2293  -17.1328   20.0561 N   0  0  0  0  0  0  0  0  0  0  0  0
    9.6710  -16.0268   21.5796 C   0  0  0  0  0  0  0  0  0  0  0  0
   10.6814  -15.3142   21.7854 O   0  0  0  0  0  0  0  0  0  0  0  0
    8.7967  -12.3227   16.9047 N   0  0  0  0  0  0  0  0  0  0  0  0
    8.6109  -15.9322   22.5229 C   0  0  1  0  0  0  0  0  0  0  0  0
    8.6754  -15.2187   23.7576 C   0  0  0  0  0  0  0  0  0  0  0  0
    7.2618  -14.6729   24.0049 C   0  0  0  0  0  0  0  0  0  0  0  0
    7.2463  -13.7164   25.1310 C   0  0  0  0  0  0  0  0  0  0  0  0
    6.6319  -13.9880   26.3355 C   0  0  0  0  0  0  0  0  0  0  0  0
    6.6196  -13.0967   27.3791 C   0  0  0  0  0  0  0  0  0  0  0  0
    7.2348  -11.8749   27.2526 C   0  0  0  0  0  0  0  0  0  0  0  0
    7.8546  -11.5808   26.0603 C   0  0  0  0  0  0  0  0  0  0  0  0
    7.8602  -12.4954   25.0065 C   0  0  0  0  0  0  0  0  0  0  0  0
    9.0310  -16.0412   24.9302 O   0  0  0  0  0  0  0  0  0  0  0  0
    8.3702  -17.0995   25.1702 N   0  0  0  0  0  0  0  0  0  0  0  0
   10.0770  -15.7329   25.8253 C   0  0  1  0  0  0  0  0  0  0  0  0
   10.5302  -16.6691   26.8556 C   0  0  0  0  0  0  0  0  0  0  0  0
   12.0146  -16.4321   27.1505 S   0  0  0  0  0  0  0  0  0  0  0  0
   12.8805  -16.4550   25.5639 C   0  0  0  0  0  0  0  0  0  0  0  0
    9.8257  -16.3001   28.1051 O   0  0  0  0  0  0  0  0  0  0  0  0
    9.0761  -15.2706   28.0437 O   0  0  0  0  0  0  0  0  0  0  0  0
  1  2  1  0
  2  3  2  0
  4  5  1  0
  4  2  1  0
  6  5  1  0
  7  6  1  0
  8 10  1  0
  8  7  1  0
  8  9  1  6
 10 11  2  0
 12 13  1  0
 12 10  1  0
 14 15  1  0
 13 14  1  1
 15 16  2  0
 16 17  1  0
 18 17  2  0
 19 18  1  0
 20 19  2  0
 20 15  1  0
 21 22  2  0
 21 13  1  0
 23 21  1  0
 24 23  1  0
 24 27  1  0
 24 25  1  1
 26 25  1  0
 27 29  1  0
 28 27  2  0
M  END
$$$$
