RFC.pdb
     RDKit          3D

 29 29  0  0  1  0  0  0  0  0999 V2000
   10.2381  -12.5727   18.9728 N   0  0  0  0  0  0  0  0  0  0  0  0
    9.1675  -13.0709   18.1733 C   0  0  0  0  0  0  0  0  0  0  0  0
    8.0511  -12.4053   18.2218 N   0  0  0  0  0  0  0  0  0  0  0  0
    9.3369  -14.2294   17.3786 N   0  0  0  0  0  0  0  0  0  0  0  0
    8.9256  -15.4974   17.8797 C   0  0  0  0  0  0  0  0  0  0  0  0
    9.5582  -15.8577   19.1976 C   0  0  0  0  0  0  0  0  0  0  0  0
    9.2213  -17.2695   19.6262 C   0  0  0  0  0  0  0  0  0  0  0  0
    9.9287  -17.5282   20.9395 C   0  0  2  0  0  0  0  0  0  0  0  0
    9.3949  -18.7650   21.4713 N   0  0  0  0  0  0  0  0  0  0  0  0
    9.6763  -16.4549   21.9263 C   0  0  0  0  0  0  0  0  0  0  0  0
   10.2099  -15.3303   21.7798 O   0  0  0  0  0  0  0  0  0  0  0  0
    7.2092  -12.7058   17.6757 N   0  0  0  0  0  0  0  0  0  0  0  0
    8.8401  -16.6297   23.0634 C   0  0  1  0  0  0  0  0  0  0  0  0
    8.7363  -15.7120   24.1519 C   0  0  0  0  0  0  0  0  0  0  0  0
    7.2343  -15.5441   24.4216 C   0  0  0  0  0  0  0  0  0  0  0  0
    6.9786  -14.4227   25.3491 C   0  0  0  0  0  0  0  0  0  0  0  0
    6.4989  -14.6045   26.6293 C   0  0  0  0  0  0  0  0  0  0  0  0
    6.2626  -13.5601   27.4878 C   0  0  0  0  0  0  0  0  0  0  0  0
    6.5030  -12.2679   27.0879 C   0  0  0  0  0  0  0  0  0  0  0  0
    6.9818  -12.0610   25.8151 C   0  0  0  0  0  0  0  0  0  0  0  0
    7.2181  -13.1313   24.9515 C   0  0  0  0  0  0  0  0  0  0  0  0
    9.3514  -16.1733   25.4115 O   0  0  0  0  0  0  0  0  0  0  0  0
    9.6398  -17.4031   25.5483 N   0  0  0  0  0  0  0  0  0  0  0  0
    9.6520  -15.3290   26.5011 C   0  0  1  0  0  0  0  0  0  0  0  0
   10.4610  -15.7724   27.6379 C   0  0  0  0  0  0  0  0  0  0  0  0
   10.4986  -14.6728   28.7038 S   0  0  0  0  0  0  0  0  0  0  0  0
   11.2353  -13.2128   27.9334 C   0  0  0  0  0  0  0  0  0  0  0  0
    9.7291  -16.8950   28.2686 O   0  0  0  0  0  0  0  0  0  0  0  0
    8.5993  -17.1875   27.7551 O   0  0  0  0  0  0  0  0  0  0  0  0
  1  2  1  0
  2  3  2  0
  4  5  1  0
  4  2  1  0
  6  5  1  0
  7  6  1  0
  8 10  1  0
  8  7  1  0
  8  9  1  1
 10 11  2  0
 12 13  1  0
 12 10  1  0
 14 15  1  0
 13 14  1  1
 15 16  2  0
 16 17  1  0
 18 17  2  0
 19 18  1  0
 20 19  2  0
 20 15  1  0
 21 22  2  0
 21 13  1  0
 23 21  1  0
 24 23  1  0
 24 27  1  0
 24 25  1  1
 26 25  1  0
 27 29  1  0
 28 27  2  0
M  END
$$$$
