RFC.pdb
     RDKit          3D

 29 29  0  0  1  0  0  0  0  0999 V2000
    8.1405  -18.6162   15.1967 N   0  0  0  0  0  0  0  0  0  0  0  0
    8.0118  -19.4734   16.3290 C   0  0  0  0  0  0  0  0  0  0  0  0
    7.9318  -20.7481   16.0835 N   0  0  0  0  0  0  0  0  0  0  0  0
    7.9757  -18.9401   17.6393 N   0  0  0  0  0  0  0  0  0  0  0  0
    7.5296  -17.6037   17.8470 C   0  0  0  0  0  0  0  0  0  0  0  0
    8.6406  -16.5879   17.8239 C   0  0  0  0  0  0  0  0  0  0  0  0
    9.1086  -16.2211   19.2156 C   0  0  0  0  0  0  0  0  0  0  0  0
    8.1175  -15.2269   19.7825 C   0  0  2  0  0  0  0  0  0  0  0  0
    8.1018  -14.0881   18.8879 N   0  0  0  0  0  0  0  0  0  0  0  0
    8.5150  -14.7521   21.1264 C   0  0  0  0  0  0  0  0  0  0  0  0
    9.5598  -14.0744   21.2682 O   0  0  0  0  0  0  0  0  0  0  0  0
    7.8531  -21.4516   16.8556 N   0  0  0  0  0  0  0  0  0  0  0  0
    7.7597  -15.0277   22.2995 C   0  0  2  0  0  0  0  0  0  0  0  0
    8.0973  -14.5835   23.6134 C   0  0  0  0  0  0  0  0  0  0  0  0
    6.7760  -14.1555   24.2677 C   0  0  0  0  0  0  0  0  0  0  0  0
    7.0030  -13.5905   25.6139 C   0  0  0  0  0  0  0  0  0  0  0  0
    6.8526  -14.3271   26.7702 C   0  0  0  0  0  0  0  0  0  0  0  0
    7.0644  -13.7985   28.0189 C   0  0  0  0  0  0  0  0  0  0  0  0
    7.4426  -12.4852   28.1591 C   0  0  0  0  0  0  0  0  0  0  0  0
    7.5992  -11.7299   27.0202 C   0  0  0  0  0  0  0  0  0  0  0  0
    7.3808  -12.2789   25.7560 C   0  0  0  0  0  0  0  0  0  0  0  0
    8.6936  -15.6166   24.4822 O   0  0  0  0  0  0  0  0  0  0  0  0
    8.0647  -16.7032   24.6770 N   0  0  0  0  0  0  0  0  0  0  0  0
    9.9416  -15.4847   25.1269 C   0  0  1  0  0  0  0  0  0  0  0  0
   10.5929  -16.6022   25.8128 C   0  0  0  0  0  0  0  0  0  0  0  0
   12.0139  -16.1997   26.2194 S   0  0  0  0  0  0  0  0  0  0  0  0
   12.7710  -15.4047   24.7832 C   0  0  0  0  0  0  0  0  0  0  0  0
    9.8680  -16.7980   27.0896 O   0  0  0  0  0  0  0  0  0  0  0  0
    8.8610  -16.0409   27.2851 O   0  0  0  0  0  0  0  0  0  0  0  0
  1  2  1  0
  2  3  2  0
  4  5  1  0
  4  2  1  0
  6  5  1  0
  7  6  1  0
  8 10  1  0
  8  7  1  0
  8  9  1  6
 10 11  2  0
 12 13  1  0
 12 10  1  0
 14 15  1  0
 13 14  1  6
 15 16  2  0
 16 17  1  0
 18 17  2  0
 19 18  1  0
 20 19  2  0
 20 15  1  0
 21 22  2  0
 21 13  1  0
 23 21  1  0
 24 23  1  0
 24 27  1  0
 24 25  1  1
 26 25  1  0
 27 29  1  0
 28 27  2  0
M  END
$$$$
