RFC.pdb
     RDKit          3D

 29 29  0  0  1  0  0  0  0  0999 V2000
   10.5912  -19.0340   17.4837 N   0  0  0  0  0  0  0  0  0  0  0  0
   11.4750  -19.9996   16.9180 C   0  0  0  0  0  0  0  0  0  0  0  0
   11.0312  -20.6556   15.8863 N   0  0  0  0  0  0  0  0  0  0  0  0
   12.7608  -20.2133   17.4688 N   0  0  0  0  0  0  0  0  0  0  0  0
   13.1572  -19.5017   18.6369 C   0  0  0  0  0  0  0  0  0  0  0  0
   12.2181  -19.6829   19.7997 C   0  0  0  0  0  0  0  0  0  0  0  0
   12.6800  -18.9319   21.0297 C   0  0  0  0  0  0  0  0  0  0  0  0
   11.6066  -17.9224   21.3771 C   0  0  2  0  0  0  0  0  0  0  0  0
   11.6988  -16.8544   20.4032 N   0  0  0  0  0  0  0  0  0  0  0  0
   11.8082  -17.3388   22.7219 C   0  0  0  0  0  0  0  0  0  0  0  0
   12.9529  -16.9788   23.0838 O   0  0  0  0  0  0  0  0  0  0  0  0
   11.6116  -21.3855   15.4091 N   0  0  0  0  0  0  0  0  0  0  0  0
   10.7493  -17.1575   23.6538 C   0  0  2  0  0  0  0  0  0  0  0  0
   10.9084  -16.6862   24.9918 C   0  0  0  0  0  0  0  0  0  0  0  0
    9.6484  -15.8663   25.3039 C   0  0  0  0  0  0  0  0  0  0  0  0
    9.7432  -15.2224   26.6304 C   0  0  0  0  0  0  0  0  0  0  0  0
   10.3405  -13.9946   26.8256 C   0  0  0  0  0  0  0  0  0  0  0  0
   10.4265  -13.3998   28.0595 C   0  0  0  0  0  0  0  0  0  0  0  0
    9.9069  -14.0254   29.1667 C   0  0  0  0  0  0  0  0  0  0  0  0
    9.3060  -15.2511   28.9974 C   0  0  0  0  0  0  0  0  0  0  0  0
    9.2247  -15.8457   27.7376 C   0  0  0  0  0  0  0  0  0  0  0  0
   10.9975  -17.7458   26.0151 O   0  0  0  0  0  0  0  0  0  0  0  0
    9.9570  -18.4116   26.3123 N   0  0  0  0  0  0  0  0  0  0  0  0
   12.1818  -18.0838   26.7034 C   0  0  1  0  0  0  0  0  0  0  0  0
   12.2435  -19.1858   27.6652 C   0  0  0  0  0  0  0  0  0  0  0  0
   13.6835  -19.6975   27.7711 S   0  0  0  0  0  0  0  0  0  0  0  0
   14.4565  -19.4429   26.1570 C   0  0  0  0  0  0  0  0  0  0  0  0
   11.9417  -18.6072   28.9948 O   0  0  0  0  0  0  0  0  0  0  0  0
   11.8882  -19.4311   29.9664 O   0  0  0  0  0  0  0  0  0  0  0  0
  1  2  1  0
  2  3  2  0
  4  5  1  0
  4  2  1  0
  6  5  1  0
  7  6  1  0
  8 10  1  0
  8  7  1  0
  8  9  1  6
 10 11  2  0
 12 13  1  0
 12 10  1  0
 14 15  1  0
 13 14  1  6
 15 16  2  0
 16 17  1  0
 18 17  2  0
 19 18  1  0
 20 19  2  0
 20 15  1  0
 21 22  2  0
 21 13  1  0
 23 21  1  0
 24 23  1  0
 24 27  1  0
 24 25  1  1
 26 25  1  0
 27 29  1  0
 28 27  2  0
M  END
$$$$
