RFC.pdb
     RDKit          3D

 29 29  0  0  1  0  0  0  0  0999 V2000
    8.4995  -13.2403   17.1534 N   0  0  0  0  0  0  0  0  0  0  0  0
    8.1843  -12.6438   18.4098 C   0  0  0  0  0  0  0  0  0  0  0  0
    8.8406  -11.5643   18.7185 N   0  0  0  0  0  0  0  0  0  0  0  0
    7.2056  -13.2161   19.2566 N   0  0  0  0  0  0  0  0  0  0  0  0
    7.6062  -13.8981   20.4408 C   0  0  0  0  0  0  0  0  0  0  0  0
    7.4476  -15.3930   20.3573 C   0  0  0  0  0  0  0  0  0  0  0  0
    7.0648  -16.0024   21.6886 C   0  0  0  0  0  0  0  0  0  0  0  0
    8.1592  -16.9739   22.0766 C   0  0  2  0  0  0  0  0  0  0  0  0
    7.5254  -18.2558   22.3060 N   0  0  0  0  0  0  0  0  0  0  0  0
    8.8443  -16.5684   23.3239 C   0  0  0  0  0  0  0  0  0  0  0  0
    9.9179  -15.9240   23.2685 O   0  0  0  0  0  0  0  0  0  0  0  0
    8.7769  -11.1376   19.6731 N   0  0  0  0  0  0  0  0  0  0  0  0
    8.3417  -16.8759   24.6183 C   0  0  1  0  0  0  0  0  0  0  0  0
    8.9684  -16.5104   25.8477 C   0  0  0  0  0  0  0  0  0  0  0  0
    7.8455  -15.9903   26.7565 C   0  0  0  0  0  0  0  0  0  0  0  0
    7.5567  -14.5660   26.4896 C   0  0  0  0  0  0  0  0  0  0  0  0
    8.4777  -13.5622   26.7050 C   0  0  0  0  0  0  0  0  0  0  0  0
    8.2055  -12.2403   26.4559 C   0  0  0  0  0  0  0  0  0  0  0  0
    6.9753  -11.8667   25.9717 C   0  0  0  0  0  0  0  0  0  0  0  0
    6.0397  -12.8501   25.7488 C   0  0  0  0  0  0  0  0  0  0  0  0
    6.3285  -14.1908   26.0060 C   0  0  0  0  0  0  0  0  0  0  0  0
    9.6222  -17.6227   26.5640 O   0  0  0  0  0  0  0  0  0  0  0  0
    8.9971  -18.7188   26.7126 N   0  0  0  0  0  0  0  0  0  0  0  0
   10.9224  -17.5582   27.1080 C   0  0  1  0  0  0  0  0  0  0  0  0
   11.5582  -18.7044   27.7601 C   0  0  0  0  0  0  0  0  0  0  0  0
   13.0814  -18.5554   27.6941 S   0  0  0  0  0  0  0  0  0  0  0  0
   13.5091  -18.2444   25.9655 C   0  0  0  0  0  0  0  0  0  0  0  0
   11.2245  -18.6133   29.2003 O   0  0  0  0  0  0  0  0  0  0  0  0
   10.5176  -17.6116   29.5503 O   0  0  0  0  0  0  0  0  0  0  0  0
  1  2  1  0
  2  3  2  0
  4  5  1  0
  4  2  1  0
  6  5  1  0
  7  6  1  0
  8 10  1  0
  8  7  1  0
  8  9  1  1
 10 11  2  0
 12 13  1  0
 12 10  1  0
 14 15  1  0
 13 14  1  1
 15 16  2  0
 16 17  1  0
 18 17  2  0
 19 18  1  0
 20 19  2  0
 20 15  1  0
 21 22  2  0
 21 13  1  0
 23 21  1  0
 24 23  1  0
 24 27  1  0
 24 25  1  1
 26 25  1  0
 27 29  1  0
 28 27  2  0
M  END
$$$$
