IWM.pdb
     RDKit          3D

 31 32  0  0  1  0  0  0  0  0999 V2000
    7.6083  -14.1352   16.1812 C   0  0  0  0  0  0  0  0  0  0  0  0
    8.5142  -14.9583   17.1098 C   0  0  0  0  0  0  0  0  0  0  0  0
    8.3224  -14.4512   18.5005 C   0  0  2  0  0  0  0  0  0  0  0  0
    8.6178  -12.9891   18.5691 C   0  0  0  0  0  0  0  0  0  0  0  0
    9.1074  -15.2881   19.4924 C   0  0  2  0  0  0  0  0  0  0  0  0
    8.7267  -16.6896   19.3935 N   0  0  0  0  0  0  0  0  0  0  0  0
    9.0167  -14.7940   20.8776 C   0  0  0  0  0  0  0  0  0  0  0  0
    9.3729  -13.6312   21.1631 O   0  0  0  0  0  0  0  0  0  0  0  0
    8.5298  -15.5854   21.9566 N   0  0  0  0  0  0  0  0  0  0  0  0
    8.3817  -15.0218   23.3151 C   0  0  1  0  0  0  0  0  0  0  0  0
    7.1361  -15.6207   23.8678 C   0  0  0  0  0  0  0  0  0  0  0  0
    6.5473  -14.8817   25.0037 C   0  0  0  0  0  0  0  0  0  0  0  0
    5.5356  -15.2414   25.8705 C   0  0  0  0  0  0  0  0  0  0  0  0
    5.2976  -14.2556   26.7562 N   0  0  0  0  0  0  0  0  0  0  0  0
    6.1351  -13.2259   26.5044 C   0  0  0  0  0  0  0  0  0  0  0  0
    6.2682  -12.0076   27.1365 C   0  0  0  0  0  0  0  0  0  0  0  0
    7.2210  -11.1326   26.6619 C   0  0  0  0  0  0  0  0  0  0  0  0
    8.0127  -11.5042   25.5674 C   0  0  0  0  0  0  0  0  0  0  0  0
    7.8573  -12.7265   24.9571 C   0  0  0  0  0  0  0  0  0  0  0  0
    6.9096  -13.5970   25.4292 C   0  0  0  0  0  0  0  0  0  0  0  0
    9.6186  -15.2576   24.0436 C   0  0  0  0  0  0  0  0  0  0  0  0
    9.8637  -14.4986   25.0511 O   0  0  0  0  0  0  0  0  0  0  0  0
   10.6284  -13.4373   29.0359 C   0  0  0  0  0  0  0  0  0  0  0  0
   11.0485  -15.0717   28.4003 S   0  0  0  0  0  0  0  0  0  0  0  0
   11.1555  -15.0614   26.5835 C   0  0  0  0  0  0  0  0  0  0  0  0
   11.4598  -16.4340   26.0444 C   0  0  0  0  0  0  0  0  0  0  0  0
   11.7688  -16.3623   24.5664 C   0  0  2  0  0  0  0  0  0  0  0  0
   10.5847  -16.2406   23.7613 N   0  0  0  0  0  0  0  0  0  0  0  0
   12.5457  -17.5290   24.1081 C   0  0  0  0  0  0  0  0  0  0  0  0
   12.1064  -18.8458   24.3525 O   0  0  0  0  0  0  0  0  0  0  0  0
   13.6292  -17.4486   23.4811 O   0  0  0  0  0  0  0  0  0  0  0  0
  1  2  1  0
  2  3  1  0
  3  4  1  6
  5  6  1  1
  5  3  1  0
  7  5  1  0
  8  7  2  0
  9  7  1  0
 10  9  1  0
 10 11  1  1
 12 11  1  0
 12 13  2  0
 14 13  1  0
 15 14  1  0
 16 15  2  0
 17 16  1  0
 18 17  2  0
 18 19  1  0
 19 20  2  0
 20 15  1  0
 20 12  1  0
 21 10  1  0
 21 28  1  0
 22 21  2  0
 23 24  1  0
 24 25  1  0
 25 26  1  0
 27 26  1  1
 27 28  1  0
 27 29  1  0
 29 31  2  0
 29 30  1  0
M  END
$$$$
