IWM.pdb
     RDKit          3D

 31 32  0  0  1  0  0  0  0  0999 V2000
    7.5139  -13.8720   15.7227 C   0  0  0  0  0  0  0  0  0  0  0  0
    8.5187  -14.7419   16.4935 C   0  0  0  0  0  0  0  0  0  0  0  0
    8.3415  -14.4620   17.9489 C   0  0  2  0  0  0  0  0  0  0  0  0
    8.4690  -12.9990   18.2191 C   0  0  0  0  0  0  0  0  0  0  0  0
    9.2681  -15.3278   18.7810 C   0  0  2  0  0  0  0  0  0  0  0  0
    9.0098  -16.7387   18.5331 N   0  0  0  0  0  0  0  0  0  0  0  0
    9.2326  -15.0105   20.2194 C   0  0  0  0  0  0  0  0  0  0  0  0
    9.6812  -13.9243   20.6428 O   0  0  0  0  0  0  0  0  0  0  0  0
    8.6988  -15.8952   21.1993 N   0  0  0  0  0  0  0  0  0  0  0  0
    8.4773  -15.4529   22.5923 C   0  0  1  0  0  0  0  0  0  0  0  0
    7.1430  -15.9874   22.9790 C   0  0  0  0  0  0  0  0  0  0  0  0
    6.6789  -15.5771   24.3204 C   0  0  0  0  0  0  0  0  0  0  0  0
    6.1789  -16.3353   25.3593 C   0  0  0  0  0  0  0  0  0  0  0  0
    5.8568  -15.5517   26.4057 N   0  0  0  0  0  0  0  0  0  0  0  0
    6.1309  -14.2661   26.0937 C   0  0  0  0  0  0  0  0  0  0  0  0
    5.9730  -13.1139   26.8347 C   0  0  0  0  0  0  0  0  0  0  0  0
    6.3416  -11.9179   26.2583 C   0  0  0  0  0  0  0  0  0  0  0  0
    6.8576  -11.9114   24.9558 C   0  0  0  0  0  0  0  0  0  0  0  0
    7.0037  -13.0768   24.2408 C   0  0  0  0  0  0  0  0  0  0  0  0
    6.6371  -14.2667   24.8141 C   0  0  0  0  0  0  0  0  0  0  0  0
    9.6214  -15.8676   23.3893 C   0  0  0  0  0  0  0  0  0  0  0  0
   10.3951  -16.7634   22.8891 O   0  0  0  0  0  0  0  0  0  0  0  0
   10.8429  -13.5846   29.1786 C   0  0  0  0  0  0  0  0  0  0  0  0
   11.3106  -15.3107   29.4101 S   0  0  0  0  0  0  0  0  0  0  0  0
   11.4612  -16.1693   27.8125 C   0  0  0  0  0  0  0  0  0  0  0  0
   11.3866  -15.2020   26.6610 C   0  0  0  0  0  0  0  0  0  0  0  0
   11.0967  -15.9384   25.3731 C   0  0  2  0  0  0  0  0  0  0  0  0
    9.9768  -15.3854   24.6623 N   0  0  0  0  0  0  0  0  0  0  0  0
   10.8608  -17.3762   25.6010 C   0  0  0  0  0  0  0  0  0  0  0  0
    9.5561  -17.9075   25.6508 O   0  0  0  0  0  0  0  0  0  0  0  0
   11.7742  -18.2204   25.7640 O   0  0  0  0  0  0  0  0  0  0  0  0
  1  2  1  0
  2  3  1  0
  3  4  1  6
  5  6  1  1
  5  3  1  0
  7  5  1  0
  8  7  2  0
  9  7  1  0
 10  9  1  0
 10 11  1  1
 12 11  1  0
 12 13  2  0
 14 13  1  0
 15 14  1  0
 16 15  2  0
 17 16  1  0
 18 17  2  0
 18 19  1  0
 19 20  2  0
 20 15  1  0
 20 12  1  0
 21 10  1  0
 21 28  1  0
 22 21  2  0
 23 24  1  0
 24 25  1  0
 25 26  1  0
 27 26  1  1
 27 28  1  0
 27 29  1  0
 29 31  2  0
 29 30  1  0
M  END
$$$$
