IWM.pdb
     RDKit          3D

 31 32  0  0  1  0  0  0  0  0999 V2000
   13.8987  -18.7327   18.1191 C   0  0  0  0  0  0  0  0  0  0  0  0
   12.3901  -18.4419   18.1149 C   0  0  0  0  0  0  0  0  0  0  0  0
   12.0570  -17.7434   19.3912 C   0  0  2  0  0  0  0  0  0  0  0  0
   12.5378  -18.5360   20.5617 C   0  0  0  0  0  0  0  0  0  0  0  0
   10.5822  -17.3932   19.4450 C   0  0  2  0  0  0  0  0  0  0  0  0
   10.1759  -16.7016   18.2303 N   0  0  0  0  0  0  0  0  0  0  0  0
   10.2015  -16.6424   20.6543 C   0  0  0  0  0  0  0  0  0  0  0  0
   10.7157  -15.5312   20.9016 O   0  0  0  0  0  0  0  0  0  0  0  0
    9.2473  -17.1179   21.5982 N   0  0  0  0  0  0  0  0  0  0  0  0
    8.9360  -16.3541   22.8250 C   0  0  1  0  0  0  0  0  0  0  0  0
    7.5777  -16.7966   23.2431 C   0  0  0  0  0  0  0  0  0  0  0  0
    6.9573  -15.9703   24.2992 C   0  0  0  0  0  0  0  0  0  0  0  0
    6.1554  -16.3379   25.3604 C   0  0  0  0  0  0  0  0  0  0  0  0
    5.7899  -15.2567   26.0749 N   0  0  0  0  0  0  0  0  0  0  0  0
    6.3330  -14.1542   25.5140 C   0  0  0  0  0  0  0  0  0  0  0  0
    6.2451  -12.8285   25.8833 C   0  0  0  0  0  0  0  0  0  0  0  0
    6.9118  -11.8974   25.1170 C   0  0  0  0  0  0  0  0  0  0  0  0
    7.6473  -12.3222   24.0028 C   0  0  0  0  0  0  0  0  0  0  0  0
    7.7168  -13.6516   23.6587 C   0  0  0  0  0  0  0  0  0  0  0  0
    7.0536  -14.5780   24.4209 C   0  0  0  0  0  0  0  0  0  0  0  0
   10.0241  -16.5482   23.7708 C   0  0  0  0  0  0  0  0  0  0  0  0
   11.1588  -16.0189   23.4812 O   0  0  0  0  0  0  0  0  0  0  0  0
    8.9917  -13.3261   28.5686 C   0  0  0  0  0  0  0  0  0  0  0  0
   10.7804  -13.5522   28.5355 S   0  0  0  0  0  0  0  0  0  0  0  0
   11.2230  -15.1834   27.8609 C   0  0  0  0  0  0  0  0  0  0  0  0
   10.4618  -15.4784   26.5956 C   0  0  0  0  0  0  0  0  0  0  0  0
   10.7783  -16.8723   26.1039 C   0  0  2  0  0  0  0  0  0  0  0  0
    9.9657  -17.2591   24.9834 N   0  0  0  0  0  0  0  0  0  0  0  0
   10.6373  -17.8793   27.1721 C   0  0  0  0  0  0  0  0  0  0  0  0
    9.6154  -18.8496   27.1364 O   0  0  0  0  0  0  0  0  0  0  0  0
   11.3926  -17.9538   28.1708 O   0  0  0  0  0  0  0  0  0  0  0  0
  1  2  1  0
  2  3  1  0
  3  4  1  1
  5  6  1  6
  5  3  1  0
  7  5  1  0
  8  7  2  0
  9  7  1  0
 10  9  1  0
 10 11  1  1
 12 11  1  0
 12 13  2  0
 14 13  1  0
 15 14  1  0
 16 15  2  0
 17 16  1  0
 18 17  2  0
 18 19  1  0
 19 20  2  0
 20 15  1  0
 20 12  1  0
 21 10  1  0
 21 28  1  0
 22 21  2  0
 23 24  1  0
 24 25  1  0
 25 26  1  0
 27 26  1  1
 27 28  1  0
 27 29  1  0
 29 31  2  0
 29 30  1  0
M  END
$$$$
