IWM.pdb
     RDKit          3D

 31 32  0  0  1  0  0  0  0  0999 V2000
   14.0131  -19.2316   18.3382 C   0  0  0  0  0  0  0  0  0  0  0  0
   12.4832  -19.0923   18.3229 C   0  0  0  0  0  0  0  0  0  0  0  0
   12.1042  -18.1119   19.3826 C   0  0  2  0  0  0  0  0  0  0  0  0
   12.7110  -18.4964   20.6916 C   0  0  0  0  0  0  0  0  0  0  0  0
   10.5999  -17.9236   19.4297 C   0  0  2  0  0  0  0  0  0  0  0  0
   10.1054  -17.4337   18.1513 N   0  0  0  0  0  0  0  0  0  0  0  0
   10.1495  -17.0786   20.5496 C   0  0  0  0  0  0  0  0  0  0  0  0
   10.4028  -15.8555   20.5659 O   0  0  0  0  0  0  0  0  0  0  0  0
    9.4141  -17.5834   21.6596 N   0  0  0  0  0  0  0  0  0  0  0  0
    8.9537  -16.6907   22.7442 C   0  0  1  0  0  0  0  0  0  0  0  0
    7.5881  -17.1618   23.1032 C   0  0  0  0  0  0  0  0  0  0  0  0
    6.8840  -16.3180   24.0909 C   0  0  0  0  0  0  0  0  0  0  0  0
    5.8465  -16.6273   24.9465 C   0  0  0  0  0  0  0  0  0  0  0  0
    5.4911  -15.5487   25.6698 N   0  0  0  0  0  0  0  0  0  0  0  0
    6.2741  -14.5055   25.3182 C   0  0  0  0  0  0  0  0  0  0  0  0
    6.2888  -13.2051   25.7770 C   0  0  0  0  0  0  0  0  0  0  0  0
    7.2102  -12.3370   25.2330 C   0  0  0  0  0  0  0  0  0  0  0  0
    8.0901  -12.7974   24.2447 C   0  0  0  0  0  0  0  0  0  0  0  0
    8.0520  -14.1003   23.8068 C   0  0  0  0  0  0  0  0  0  0  0  0
    7.1355  -14.9640   24.3479 C   0  0  0  0  0  0  0  0  0  0  0  0
    9.9604  -16.6929   23.7942 C   0  0  0  0  0  0  0  0  0  0  0  0
   10.7853  -17.6779   23.8185 O   0  0  0  0  0  0  0  0  0  0  0  0
   10.1811  -13.0371   29.3088 C   0  0  0  0  0  0  0  0  0  0  0  0
   11.2331  -14.4431   29.7191 S   0  0  0  0  0  0  0  0  0  0  0  0
   11.6387  -15.4141   28.2342 C   0  0  0  0  0  0  0  0  0  0  0  0
   10.6935  -15.1067   27.1030 C   0  0  0  0  0  0  0  0  0  0  0  0
   11.0379  -15.9386   25.8888 C   0  0  2  0  0  0  0  0  0  0  0  0
   10.1310  -15.7196   24.7957 N   0  0  0  0  0  0  0  0  0  0  0  0
   11.0780  -17.3794   26.2006 C   0  0  0  0  0  0  0  0  0  0  0  0
   11.4347  -18.3323   25.2251 O   0  0  0  0  0  0  0  0  0  0  0  0
   10.8066  -17.8620   27.3262 O   0  0  0  0  0  0  0  0  0  0  0  0
  1  2  1  0
  2  3  1  0
  3  4  1  1
  5  6  1  6
  5  3  1  0
  7  5  1  0
  8  7  2  0
  9  7  1  0
 10  9  1  0
 10 11  1  1
 12 11  1  0
 12 13  2  0
 14 13  1  0
 15 14  1  0
 16 15  2  0
 17 16  1  0
 18 17  2  0
 18 19  1  0
 19 20  2  0
 20 15  1  0
 20 12  1  0
 21 10  1  0
 21 28  1  0
 22 21  2  0
 23 24  1  0
 24 25  1  0
 25 26  1  0
 27 26  1  1
 27 28  1  0
 27 29  1  0
 29 31  2  0
 29 30  1  0
M  END
$$$$
