IWM.pdb
     RDKit          3D

 31 32  0  0  1  0  0  0  0  0999 V2000
    7.6305  -12.1790   18.3380 C   0  0  0  0  0  0  0  0  0  0  0  0
    7.9453  -13.5278   19.0029 C   0  0  0  0  0  0  0  0  0  0  0  0
    9.3118  -13.9421   18.5683 C   0  0  2  0  0  0  0  0  0  0  0  0
    9.3913  -14.0001   17.0784 C   0  0  0  0  0  0  0  0  0  0  0  0
    9.7318  -15.2247   19.2606 C   0  0  2  0  0  0  0  0  0  0  0  0
    8.9506  -16.3505   18.7696 N   0  0  0  0  0  0  0  0  0  0  0  0
    9.6972  -15.1359   20.7309 C   0  0  0  0  0  0  0  0  0  0  0  0
   10.3176  -14.2313   21.3286 O   0  0  0  0  0  0  0  0  0  0  0  0
    8.9739  -16.0492   21.5498 N   0  0  0  0  0  0  0  0  0  0  0  0
    8.8639  -15.8484   23.0102 C   0  0  1  0  0  0  0  0  0  0  0  0
    7.4366  -16.1030   23.3470 C   0  0  0  0  0  0  0  0  0  0  0  0
    7.0012  -15.5507   24.6465 C   0  0  0  0  0  0  0  0  0  0  0  0
    6.4953  -16.1897   25.7601 C   0  0  0  0  0  0  0  0  0  0  0  0
    6.2077  -15.2988   26.7278 N   0  0  0  0  0  0  0  0  0  0  0  0
    6.5111  -14.0580   26.2880 C   0  0  0  0  0  0  0  0  0  0  0  0
    6.3932  -12.8348   26.9139 C   0  0  0  0  0  0  0  0  0  0  0  0
    6.7852  -11.7115   26.2188 C   0  0  0  0  0  0  0  0  0  0  0  0
    7.2839  -11.8467   24.9166 C   0  0  0  0  0  0  0  0  0  0  0  0
    7.3900  -13.0801   24.3181 C   0  0  0  0  0  0  0  0  0  0  0  0
    7.0001  -14.1977   25.0094 C   0  0  0  0  0  0  0  0  0  0  0  0
    9.8642  -16.6802   23.6609 C   0  0  0  0  0  0  0  0  0  0  0  0
    9.6325  -17.9427   23.7220 O   0  0  0  0  0  0  0  0  0  0  0  0
   10.2306  -13.3667   28.5498 C   0  0  0  0  0  0  0  0  0  0  0  0
   10.0074  -15.0507   29.1548 S   0  0  0  0  0  0  0  0  0  0  0  0
   10.6871  -16.2646   27.9814 C   0  0  0  0  0  0  0  0  0  0  0  0
   10.3737  -15.8862   26.5580 C   0  0  0  0  0  0  0  0  0  0  0  0
   11.3726  -16.5156   25.6141 C   0  0  2  0  0  0  0  0  0  0  0  0
   11.0731  -16.2457   24.2347 N   0  0  0  0  0  0  0  0  0  0  0  0
   11.4727  -17.9740   25.8092 C   0  0  0  0  0  0  0  0  0  0  0  0
   10.3789  -18.8258   25.5544 O   0  0  0  0  0  0  0  0  0  0  0  0
   12.5086  -18.5598   26.2059 O   0  0  0  0  0  0  0  0  0  0  0  0
  1  2  1  0
  2  3  1  0
  3  4  1  6
  5  6  1  6
  5  3  1  0
  7  5  1  0
  8  7  2  0
  9  7  1  0
 10  9  1  0
 10 11  1  1
 12 11  1  0
 12 13  2  0
 14 13  1  0
 15 14  1  0
 16 15  2  0
 17 16  1  0
 18 17  2  0
 18 19  1  0
 19 20  2  0
 20 15  1  0
 20 12  1  0
 21 10  1  0
 21 28  1  0
 22 21  2  0
 23 24  1  0
 24 25  1  0
 25 26  1  0
 27 26  1  1
 27 28  1  0
 27 29  1  0
 29 31  2  0
 29 30  1  0
M  END
$$$$
