IWM.pdb
     RDKit          3D

 31 32  0  0  1  0  0  0  0  0999 V2000
    7.5660  -13.5761   16.0227 C   0  0  0  0  0  0  0  0  0  0  0  0
    8.7295  -14.2198   16.7924 C   0  0  0  0  0  0  0  0  0  0  0  0
    8.4746  -14.0252   18.2501 C   0  0  2  0  0  0  0  0  0  0  0  0
    8.5836  -12.5805   18.6115 C   0  0  0  0  0  0  0  0  0  0  0  0
    9.3582  -14.9384   19.0784 C   0  0  2  0  0  0  0  0  0  0  0  0
    9.0684  -16.3344   18.7852 N   0  0  0  0  0  0  0  0  0  0  0  0
    9.2975  -14.6599   20.5240 C   0  0  0  0  0  0  0  0  0  0  0  0
    9.1998  -13.4870   20.9426 O   0  0  0  0  0  0  0  0  0  0  0  0
    9.3441  -15.6800   21.5164 N   0  0  0  0  0  0  0  0  0  0  0  0
    8.9911  -15.3973   22.9238 C   0  0  1  0  0  0  0  0  0  0  0  0
    7.5162  -15.5760   23.0146 C   0  0  0  0  0  0  0  0  0  0  0  0
    6.9233  -15.1681   24.3050 C   0  0  0  0  0  0  0  0  0  0  0  0
    6.2132  -15.9054   25.2304 C   0  0  0  0  0  0  0  0  0  0  0  0
    5.8385  -15.1312   26.2663 N   0  0  0  0  0  0  0  0  0  0  0  0
    6.2844  -13.8729   26.0593 C   0  0  0  0  0  0  0  0  0  0  0  0
    6.1507  -12.7392   26.8329 C   0  0  0  0  0  0  0  0  0  0  0  0
    6.7156  -11.5701   26.3715 C   0  0  0  0  0  0  0  0  0  0  0  0
    7.3980  -11.5714   25.1479 C   0  0  0  0  0  0  0  0  0  0  0  0
    7.5152  -12.7178   24.3978 C   0  0  0  0  0  0  0  0  0  0  0  0
    6.9534  -13.8808   24.8568 C   0  0  0  0  0  0  0  0  0  0  0  0
    9.8207  -16.2327   23.7782 C   0  0  0  0  0  0  0  0  0  0  0  0
   10.0367  -17.4394   23.3928 O   0  0  0  0  0  0  0  0  0  0  0  0
   10.2047  -13.9090   30.2740 C   0  0  0  0  0  0  0  0  0  0  0  0
   11.4674  -14.7771   29.3233 S   0  0  0  0  0  0  0  0  0  0  0  0
   10.7826  -15.4354   27.7709 C   0  0  0  0  0  0  0  0  0  0  0  0
   11.8315  -16.1669   26.9757 C   0  0  0  0  0  0  0  0  0  0  0  0
   11.2180  -16.7883   25.7418 C   0  0  2  0  0  0  0  0  0  0  0  0
   10.4207  -15.8557   24.9936 N   0  0  0  0  0  0  0  0  0  0  0  0
   10.3983  -17.9698   26.0687 C   0  0  0  0  0  0  0  0  0  0  0  0
   10.9819  -19.1563   26.5571 O   0  0  0  0  0  0  0  0  0  0  0  0
    9.1510  -18.0154   25.9433 O   0  0  0  0  0  0  0  0  0  0  0  0
  1  2  1  0
  2  3  1  0
  3  4  1  1
  5  6  1  1
  5  3  1  0
  7  5  1  0
  8  7  2  0
  9  7  1  0
 10  9  1  0
 10 11  1  6
 12 11  1  0
 12 13  2  0
 14 13  1  0
 15 14  1  0
 16 15  2  0
 17 16  1  0
 18 17  2  0
 18 19  1  0
 19 20  2  0
 20 15  1  0
 20 12  1  0
 21 10  1  0
 21 28  1  0
 22 21  2  0
 23 24  1  0
 24 25  1  0
 25 26  1  0
 27 26  1  1
 27 28  1  0
 27 29  1  0
 29 31  2  0
 29 30  1  0
M  END
$$$$
