IWM.pdb
     RDKit          3D

 31 32  0  0  1  0  0  0  0  0999 V2000
    8.2860  -13.0761   17.4683 C   0  0  0  0  0  0  0  0  0  0  0  0
    7.7505  -14.2435   18.3114 C   0  0  0  0  0  0  0  0  0  0  0  0
    8.2460  -14.0622   19.7076 C   0  0  2  0  0  0  0  0  0  0  0  0
    9.7288  -13.8867   19.7173 C   0  0  0  0  0  0  0  0  0  0  0  0
    7.7495  -15.1796   20.6050 C   0  0  2  0  0  0  0  0  0  0  0  0
    6.3014  -15.2999   20.5188 N   0  0  0  0  0  0  0  0  0  0  0  0
    8.2052  -15.0570   22.0009 C   0  0  0  0  0  0  0  0  0  0  0  0
    8.0928  -13.9746   22.6142 O   0  0  0  0  0  0  0  0  0  0  0  0
    8.7884  -16.1339   22.7274 N   0  0  0  0  0  0  0  0  0  0  0  0
    9.4961  -15.9030   24.0046 C   0  0  1  0  0  0  0  0  0  0  0  0
    8.5776  -16.3902   25.0697 C   0  0  0  0  0  0  0  0  0  0  0  0
    7.3604  -15.5736   25.2560 C   0  0  0  0  0  0  0  0  0  0  0  0
    6.0298  -15.9212   25.1420 C   0  0  0  0  0  0  0  0  0  0  0  0
    5.2400  -14.8570   25.3800 N   0  0  0  0  0  0  0  0  0  0  0  0
    6.0158  -13.7859   25.6552 C   0  0  0  0  0  0  0  0  0  0  0  0
    5.6689  -12.4865   25.9601 C   0  0  0  0  0  0  0  0  0  0  0  0
    6.6831  -11.5850   26.2002 C   0  0  0  0  0  0  0  0  0  0  0  0
    8.0154  -12.0122   26.1277 C   0  0  0  0  0  0  0  0  0  0  0  0
    8.3310  -13.3150   25.8214 C   0  0  0  0  0  0  0  0  0  0  0  0
    7.3223  -14.2118   25.5826 C   0  0  0  0  0  0  0  0  0  0  0  0
   10.8087  -16.5238   23.9167 C   0  0  0  0  0  0  0  0  0  0  0  0
   10.8715  -17.7008   23.4047 O   0  0  0  0  0  0  0  0  0  0  0  0
   10.5367  -13.9063   28.9747 C   0  0  0  0  0  0  0  0  0  0  0  0
   11.3478  -15.4405   29.4647 S   0  0  0  0  0  0  0  0  0  0  0  0
   12.3073  -16.1441   28.0876 C   0  0  0  0  0  0  0  0  0  0  0  0
   11.6877  -15.8046   26.7578 C   0  0  0  0  0  0  0  0  0  0  0  0
   12.5764  -16.2728   25.6283 C   0  0  2  0  0  0  0  0  0  0  0  0
   12.0308  -15.9661   24.3346 N   0  0  0  0  0  0  0  0  0  0  0  0
   12.8500  -17.7199   25.7053 C   0  0  0  0  0  0  0  0  0  0  0  0
   12.0191  -18.6597   25.0624 O   0  0  0  0  0  0  0  0  0  0  0  0
   13.8161  -18.2195   26.3303 O   0  0  0  0  0  0  0  0  0  0  0  0
  1  2  1  0
  2  3  1  0
  3  4  1  6
  5  6  1  1
  5  3  1  0
  7  5  1  0
  8  7  2  0
  9  7  1  0
 10  9  1  0
 10 11  1  1
 12 11  1  0
 12 13  2  0
 14 13  1  0
 15 14  1  0
 16 15  2  0
 17 16  1  0
 18 17  2  0
 18 19  1  0
 19 20  2  0
 20 15  1  0
 20 12  1  0
 21 10  1  0
 21 28  1  0
 22 21  2  0
 23 24  1  0
 24 25  1  0
 25 26  1  0
 27 26  1  1
 27 28  1  0
 27 29  1  0
 29 31  2  0
 29 30  1  0
M  END
$$$$
