IWM.pdb
     RDKit          3D

 31 32  0  0  1  0  0  0  0  0999 V2000
    7.6604  -12.4258   18.4072 C   0  0  0  0  0  0  0  0  0  0  0  0
    8.0704  -13.7169   19.1320 C   0  0  0  0  0  0  0  0  0  0  0  0
    9.4150  -14.1180   18.6231 C   0  0  2  0  0  0  0  0  0  0  0  0
    9.3801  -14.2998   17.1414 C   0  0  0  0  0  0  0  0  0  0  0  0
    9.9415  -15.3212   19.3817 C   0  0  2  0  0  0  0  0  0  0  0  0
    9.2969  -16.5410   18.9174 N   0  0  0  0  0  0  0  0  0  0  0  0
    9.8494  -15.1779   20.8452 C   0  0  0  0  0  0  0  0  0  0  0  0
   10.4666  -14.2662   21.4355 O   0  0  0  0  0  0  0  0  0  0  0  0
    9.0718  -16.0441   21.6654 N   0  0  0  0  0  0  0  0  0  0  0  0
    8.7725  -15.7038   23.0725 C   0  0  1  0  0  0  0  0  0  0  0  0
    7.3145  -15.9480   23.2463 C   0  0  0  0  0  0  0  0  0  0  0  0
    6.7772  -15.5619   24.5674 C   0  0  0  0  0  0  0  0  0  0  0  0
    6.1154  -16.3171   25.5139 C   0  0  0  0  0  0  0  0  0  0  0  0
    5.7817  -15.5595   26.5758 N   0  0  0  0  0  0  0  0  0  0  0  0
    6.2079  -14.2949   26.3657 C   0  0  0  0  0  0  0  0  0  0  0  0
    6.1003  -13.1724   27.1595 C   0  0  0  0  0  0  0  0  0  0  0  0
    6.6345  -11.9928   26.6887 C   0  0  0  0  0  0  0  0  0  0  0  0
    7.2610  -11.9724   25.4358 C   0  0  0  0  0  0  0  0  0  0  0  0
    7.3534  -13.1080   24.6660 C   0  0  0  0  0  0  0  0  0  0  0  0
    6.8220  -14.2816   25.1343 C   0  0  0  0  0  0  0  0  0  0  0  0
    9.6831  -16.4515   23.9256 C   0  0  0  0  0  0  0  0  0  0  0  0
   10.3473  -17.4088   23.3835 O   0  0  0  0  0  0  0  0  0  0  0  0
   10.4472  -12.4972   28.5902 C   0  0  0  0  0  0  0  0  0  0  0  0
   10.0992  -14.2664   28.5651 S   0  0  0  0  0  0  0  0  0  0  0  0
   11.3510  -15.1675   27.5990 C   0  0  0  0  0  0  0  0  0  0  0  0
   10.9955  -16.6246   27.4646 C   0  0  0  0  0  0  0  0  0  0  0  0
   10.8982  -17.0100   26.0062 C   0  0  2  0  0  0  0  0  0  0  0  0
    9.9190  -16.2346   25.2955 N   0  0  0  0  0  0  0  0  0  0  0  0
   10.5963  -18.4431   25.8334 C   0  0  0  0  0  0  0  0  0  0  0  0
    9.2697  -18.9198   25.8366 O   0  0  0  0  0  0  0  0  0  0  0  0
   11.4688  -19.3302   25.6736 O   0  0  0  0  0  0  0  0  0  0  0  0
  1  2  1  0
  2  3  1  0
  3  4  1  6
  5  6  1  6
  5  3  1  0
  7  5  1  0
  8  7  2  0
  9  7  1  0
 10  9  1  0
 10 11  1  1
 12 11  1  0
 12 13  2  0
 14 13  1  0
 15 14  1  0
 16 15  2  0
 17 16  1  0
 18 17  2  0
 18 19  1  0
 19 20  2  0
 20 15  1  0
 20 12  1  0
 21 10  1  0
 21 28  1  0
 22 21  2  0
 23 24  1  0
 24 25  1  0
 25 26  1  0
 27 26  1  1
 27 28  1  0
 27 29  1  0
 29 31  2  0
 29 30  1  0
M  END
$$$$
