IWM.pdb
     RDKit          3D

 31 32  0  0  1  0  0  0  0  0999 V2000
    7.1627  -12.3606   17.9354 C   0  0  0  0  0  0  0  0  0  0  0  0
    7.5525  -13.7706   18.4050 C   0  0  0  0  0  0  0  0  0  0  0  0
    8.2964  -13.6330   19.6917 C   0  0  2  0  0  0  0  0  0  0  0  0
    9.4005  -12.6373   19.5532 C   0  0  0  0  0  0  0  0  0  0  0  0
    8.7465  -14.9887   20.2016 C   0  0  2  0  0  0  0  0  0  0  0  0
    7.7020  -15.9828   20.0025 N   0  0  0  0  0  0  0  0  0  0  0  0
    9.2173  -14.9633   21.5976 C   0  0  0  0  0  0  0  0  0  0  0  0
    9.9460  -14.0348   22.0067 O   0  0  0  0  0  0  0  0  0  0  0  0
    8.8830  -15.9670   22.5508 N   0  0  0  0  0  0  0  0  0  0  0  0
    9.3992  -15.9124   23.9350 C   0  0  1  0  0  0  0  0  0  0  0  0
    8.3425  -16.5259   24.7851 C   0  0  0  0  0  0  0  0  0  0  0  0
    7.2657  -15.6009   25.1948 C   0  0  0  0  0  0  0  0  0  0  0  0
    5.9276  -15.8420   25.4305 C   0  0  0  0  0  0  0  0  0  0  0  0
    5.2933  -14.7034   25.7687 N   0  0  0  0  0  0  0  0  0  0  0  0
    6.1829  -13.6867   25.7667 C   0  0  0  0  0  0  0  0  0  0  0  0
    6.0093  -12.3474   26.0452 C   0  0  0  0  0  0  0  0  0  0  0  0
    7.1094  -11.5215   25.9651 C   0  0  0  0  0  0  0  0  0  0  0  0
    8.3516  -12.0621   25.6080 C   0  0  0  0  0  0  0  0  0  0  0  0
    8.4944  -13.4023   25.3358 C   0  0  0  0  0  0  0  0  0  0  0  0
    7.4001  -14.2240   25.4155 C   0  0  0  0  0  0  0  0  0  0  0  0
   10.7165  -16.5291   23.9546 C   0  0  0  0  0  0  0  0  0  0  0  0
   11.5931  -16.0742   23.1325 O   0  0  0  0  0  0  0  0  0  0  0  0
    9.9556  -13.8450   28.7745 C   0  0  0  0  0  0  0  0  0  0  0  0
   10.5073  -15.4118   29.4763 S   0  0  0  0  0  0  0  0  0  0  0  0
   11.5736  -16.3138   28.3094 C   0  0  0  0  0  0  0  0  0  0  0  0
   10.8882  -16.5156   26.9839 C   0  0  0  0  0  0  0  0  0  0  0  0
   11.7719  -17.3110   26.0504 C   0  0  2  0  0  0  0  0  0  0  0  0
   11.1388  -17.5805   24.7887 N   0  0  0  0  0  0  0  0  0  0  0  0
   12.2063  -18.5847   26.6536 C   0  0  0  0  0  0  0  0  0  0  0  0
   11.4612  -19.7692   26.4845 O   0  0  0  0  0  0  0  0  0  0  0  0
   13.2440  -18.7157   27.3460 O   0  0  0  0  0  0  0  0  0  0  0  0
  1  2  1  0
  2  3  1  0
  3  4  1  6
  5  6  1  1
  5  3  1  0
  7  5  1  0
  8  7  2  0
  9  7  1  0
 10  9  1  0
 10 11  1  1
 12 11  1  0
 12 13  2  0
 14 13  1  0
 15 14  1  0
 16 15  2  0
 17 16  1  0
 18 17  2  0
 18 19  1  0
 19 20  2  0
 20 15  1  0
 20 12  1  0
 21 10  1  0
 21 28  1  0
 22 21  2  0
 23 24  1  0
 24 25  1  0
 25 26  1  0
 27 26  1  1
 27 28  1  0
 27 29  1  0
 29 31  2  0
 29 30  1  0
M  END
$$$$
