IWM.pdb
     RDKit          3D

 31 32  0  0  1  0  0  0  0  0999 V2000
    7.9785  -12.0745   18.7656 C   0  0  0  0  0  0  0  0  0  0  0  0
    8.3959  -13.2933   19.6028 C   0  0  0  0  0  0  0  0  0  0  0  0
    9.2077  -14.1903   18.7286 C   0  0  2  0  0  0  0  0  0  0  0  0
    8.4462  -14.5466   17.4946 C   0  0  0  0  0  0  0  0  0  0  0  0
    9.7163  -15.3873   19.5089 C   0  0  2  0  0  0  0  0  0  0  0  0
    9.0258  -16.5996   19.0938 N   0  0  0  0  0  0  0  0  0  0  0  0
    9.6624  -15.2010   20.9696 C   0  0  0  0  0  0  0  0  0  0  0  0
   10.2759  -14.2589   21.5141 O   0  0  0  0  0  0  0  0  0  0  0  0
    8.9272  -16.0577   21.8375 N   0  0  0  0  0  0  0  0  0  0  0  0
    8.7920  -15.7565   23.2784 C   0  0  1  0  0  0  0  0  0  0  0  0
    7.4929  -16.3514   23.6957 C   0  0  0  0  0  0  0  0  0  0  0  0
    6.7032  -15.5184   24.6260 C   0  0  0  0  0  0  0  0  0  0  0  0
    5.5409  -15.8077   25.3113 C   0  0  0  0  0  0  0  0  0  0  0  0
    5.1455  -14.7482   26.0421 N   0  0  0  0  0  0  0  0  0  0  0  0
    6.0244  -13.7378   25.8639 C   0  0  0  0  0  0  0  0  0  0  0  0
    6.0437  -12.4662   26.3971 C   0  0  0  0  0  0  0  0  0  0  0  0
    7.0772  -11.6289   26.0371 C   0  0  0  0  0  0  0  0  0  0  0  0
    8.0612  -12.0905   25.1532 C   0  0  0  0  0  0  0  0  0  0  0  0
    8.0157  -13.3642   24.6373 C   0  0  0  0  0  0  0  0  0  0  0  0
    6.9877  -14.1973   24.9953 C   0  0  0  0  0  0  0  0  0  0  0  0
    9.9912  -16.2242   23.9561 C   0  0  0  0  0  0  0  0  0  0  0  0
   10.7072  -17.1020   23.3494 O   0  0  0  0  0  0  0  0  0  0  0  0
   10.0756  -14.3173   30.5944 C   0  0  0  0  0  0  0  0  0  0  0  0
   11.4545  -14.5213   29.4504 S   0  0  0  0  0  0  0  0  0  0  0  0
   10.9868  -15.5725   28.0403 C   0  0  0  0  0  0  0  0  0  0  0  0
   12.1014  -15.6652   27.0321 C   0  0  0  0  0  0  0  0  0  0  0  0
   11.6338  -16.4002   25.7968 C   0  0  2  0  0  0  0  0  0  0  0  0
   10.4575  -15.8118   25.2178 N   0  0  0  0  0  0  0  0  0  0  0  0
   11.3755  -17.8266   26.0683 C   0  0  0  0  0  0  0  0  0  0  0  0
   10.0701  -18.3571   26.0289 O   0  0  0  0  0  0  0  0  0  0  0  0
   12.2693  -18.6611   26.3481 O   0  0  0  0  0  0  0  0  0  0  0  0
  1  2  1  0
  2  3  1  0
  3  4  1  6
  5  6  1  1
  5  3  1  0
  7  5  1  0
  8  7  2  0
  9  7  1  0
 10  9  1  0
 10 11  1  1
 12 11  1  0
 12 13  2  0
 14 13  1  0
 15 14  1  0
 16 15  2  0
 17 16  1  0
 18 17  2  0
 18 19  1  0
 19 20  2  0
 20 15  1  0
 20 12  1  0
 21 10  1  0
 21 28  1  0
 22 21  2  0
 23 24  1  0
 24 25  1  0
 25 26  1  0
 27 26  1  1
 27 28  1  0
 27 29  1  0
 29 31  2  0
 29 30  1  0
M  END
$$$$
