IWM.pdb
     RDKit          3D

 31 32  0  0  1  0  0  0  0  0999 V2000
    7.8115  -12.0320   19.0249 C   0  0  0  0  0  0  0  0  0  0  0  0
    7.9136  -13.4461   19.6169 C   0  0  0  0  0  0  0  0  0  0  0  0
    9.1423  -14.0853   19.0607 C   0  0  2  0  0  0  0  0  0  0  0  0
    9.0713  -14.1458   17.5704 C   0  0  0  0  0  0  0  0  0  0  0  0
    9.3994  -15.4256   19.7225 C   0  0  2  0  0  0  0  0  0  0  0  0
    8.3941  -16.3974   19.3176 N   0  0  0  0  0  0  0  0  0  0  0  0
    9.5190  -15.3422   21.1887 C   0  0  0  0  0  0  0  0  0  0  0  0
   10.2563  -14.4847   21.7193 O   0  0  0  0  0  0  0  0  0  0  0  0
    8.8215  -16.2087   22.0778 N   0  0  0  0  0  0  0  0  0  0  0  0
    8.7982  -15.9560   23.5341 C   0  0  1  0  0  0  0  0  0  0  0  0
    7.5341  -16.5657   24.0301 C   0  0  0  0  0  0  0  0  0  0  0  0
    6.7440  -15.7013   24.9311 C   0  0  0  0  0  0  0  0  0  0  0  0
    5.5619  -15.9547   25.5964 C   0  0  0  0  0  0  0  0  0  0  0  0
    5.1750  -14.8756   26.3026 N   0  0  0  0  0  0  0  0  0  0  0  0
    6.0794  -13.8874   26.1274 C   0  0  0  0  0  0  0  0  0  0  0  0
    6.1158  -12.6084   26.6416 C   0  0  0  0  0  0  0  0  0  0  0  0
    7.1746  -11.7994   26.2906 C   0  0  0  0  0  0  0  0  0  0  0  0
    8.1661  -12.2959   25.4344 C   0  0  0  0  0  0  0  0  0  0  0  0
    8.1031  -13.5763   24.9370 C   0  0  0  0  0  0  0  0  0  0  0  0
    7.0500  -14.3812   25.2861 C   0  0  0  0  0  0  0  0  0  0  0  0
   10.0452  -16.4449   24.1014 C   0  0  0  0  0  0  0  0  0  0  0  0
   10.5906  -17.4628   23.5376 O   0  0  0  0  0  0  0  0  0  0  0  0
   11.6483  -13.1244   28.6387 C   0  0  0  0  0  0  0  0  0  0  0  0
   10.5207  -14.5292   28.5547 S   0  0  0  0  0  0  0  0  0  0  0  0
   11.4230  -16.0760   28.2302 C   0  0  0  0  0  0  0  0  0  0  0  0
   12.3493  -15.9335   27.0515 C   0  0  0  0  0  0  0  0  0  0  0  0
   11.7840  -16.6524   25.8480 C   0  0  2  0  0  0  0  0  0  0  0  0
   10.7270  -15.9151   25.2121 N   0  0  0  0  0  0  0  0  0  0  0  0
   11.2930  -18.0001   26.1909 C   0  0  0  0  0  0  0  0  0  0  0  0
   12.1158  -19.1370   26.0594 O   0  0  0  0  0  0  0  0  0  0  0  0
   10.1372  -18.2391   26.6157 O   0  0  0  0  0  0  0  0  0  0  0  0
  1  2  1  0
  2  3  1  0
  3  4  1  6
  5  6  1  1
  5  3  1  0
  7  5  1  0
  8  7  2  0
  9  7  1  0
 10  9  1  0
 10 11  1  1
 12 11  1  0
 12 13  2  0
 14 13  1  0
 15 14  1  0
 16 15  2  0
 17 16  1  0
 18 17  2  0
 18 19  1  0
 19 20  2  0
 20 15  1  0
 20 12  1  0
 21 10  1  0
 21 28  1  0
 22 21  2  0
 23 24  1  0
 24 25  1  0
 25 26  1  0
 27 26  1  1
 27 28  1  0
 27 29  1  0
 29 31  2  0
 29 30  1  0
M  END
$$$$
