IWM.pdb
     RDKit          3D

 31 32  0  0  1  0  0  0  0  0999 V2000
    8.1218  -13.2184   17.7869 C   0  0  0  0  0  0  0  0  0  0  0  0
    7.6758  -14.4086   18.6500 C   0  0  0  0  0  0  0  0  0  0  0  0
    8.2008  -14.1926   20.0304 C   0  0  2  0  0  0  0  0  0  0  0  0
    9.6598  -13.8770   19.9914 C   0  0  0  0  0  0  0  0  0  0  0  0
    7.8443  -15.3594   20.9315 C   0  0  2  0  0  0  0  0  0  0  0  0
    6.4592  -15.7583   20.7281 N   0  0  0  0  0  0  0  0  0  0  0  0
    8.1383  -15.1129   22.3541 C   0  0  0  0  0  0  0  0  0  0  0  0
    7.8639  -14.0133   22.8794 O   0  0  0  0  0  0  0  0  0  0  0  0
    8.7384  -16.0842   23.2052 N   0  0  0  0  0  0  0  0  0  0  0  0
    9.4744  -15.6860   24.4237 C   0  0  1  0  0  0  0  0  0  0  0  0
    8.5861  -16.0364   25.5655 C   0  0  0  0  0  0  0  0  0  0  0  0
    7.3246  -15.2694   25.6239 C   0  0  0  0  0  0  0  0  0  0  0  0
    6.0194  -15.6906   25.4709 C   0  0  0  0  0  0  0  0  0  0  0  0
    5.1701  -14.6518   25.5827 N   0  0  0  0  0  0  0  0  0  0  0  0
    5.8801  -13.5252   25.8102 C   0  0  0  0  0  0  0  0  0  0  0  0
    5.4584  -12.2249   25.9922 C   0  0  0  0  0  0  0  0  0  0  0  0
    6.4158  -11.2583   26.2104 C   0  0  0  0  0  0  0  0  0  0  0  0
    7.7682  -11.6230   26.2399 C   0  0  0  0  0  0  0  0  0  0  0  0
    8.1590  -12.9283   26.0552 C   0  0  0  0  0  0  0  0  0  0  0  0
    7.2067  -13.8900   25.8381 C   0  0  0  0  0  0  0  0  0  0  0  0
   10.7900  -16.3055   24.3841 C   0  0  0  0  0  0  0  0  0  0  0  0
   11.6595  -15.7933   23.5885 O   0  0  0  0  0  0  0  0  0  0  0  0
   10.1535  -14.2253   29.0268 C   0  0  0  0  0  0  0  0  0  0  0  0
   11.2338  -15.6032   29.4582 S   0  0  0  0  0  0  0  0  0  0  0  0
   11.3496  -16.7989   28.0910 C   0  0  0  0  0  0  0  0  0  0  0  0
   12.3227  -16.3364   27.0391 C   0  0  0  0  0  0  0  0  0  0  0  0
   12.4160  -17.3538   25.9250 C   0  0  2  0  0  0  0  0  0  0  0  0
   11.2178  -17.4163   25.1341 N   0  0  0  0  0  0  0  0  0  0  0  0
   12.7285  -18.7021   26.4341 C   0  0  0  0  0  0  0  0  0  0  0  0
   14.0233  -19.0372   26.8793 O   0  0  0  0  0  0  0  0  0  0  0  0
   11.8929  -19.6345   26.5112 O   0  0  0  0  0  0  0  0  0  0  0  0
  1  2  1  0
  2  3  1  0
  3  4  1  6
  5  6  1  1
  5  3  1  0
  7  5  1  0
  8  7  2  0
  9  7  1  0
 10  9  1  0
 10 11  1  1
 12 11  1  0
 12 13  2  0
 14 13  1  0
 15 14  1  0
 16 15  2  0
 17 16  1  0
 18 17  2  0
 18 19  1  0
 19 20  2  0
 20 15  1  0
 20 12  1  0
 21 10  1  0
 21 28  1  0
 22 21  2  0
 23 24  1  0
 24 25  1  0
 25 26  1  0
 27 26  1  1
 27 28  1  0
 27 29  1  0
 29 31  2  0
 29 30  1  0
M  END
$$$$
