IWM.pdb
     RDKit          3D

 31 32  0  0  1  0  0  0  0  0999 V2000
    6.9289  -12.5801   18.4036 C   0  0  0  0  0  0  0  0  0  0  0  0
    7.3345  -14.0075   18.8016 C   0  0  0  0  0  0  0  0  0  0  0  0
    8.2038  -13.9137   20.0112 C   0  0  2  0  0  0  0  0  0  0  0  0
    9.3554  -12.9977   19.7576 C   0  0  0  0  0  0  0  0  0  0  0  0
    8.6061  -15.2941   20.4942 C   0  0  2  0  0  0  0  0  0  0  0  0
    7.4729  -16.2060   20.4386 N   0  0  0  0  0  0  0  0  0  0  0  0
    9.2379  -15.2886   21.8253 C   0  0  0  0  0  0  0  0  0  0  0  0
   10.2488  -14.5890   22.0470 O   0  0  0  0  0  0  0  0  0  0  0  0
    8.7532  -16.0583   22.9209 N   0  0  0  0  0  0  0  0  0  0  0  0
    9.4217  -16.0220   24.2388 C   0  0  1  0  0  0  0  0  0  0  0  0
    8.4024  -16.4803   25.2220 C   0  0  0  0  0  0  0  0  0  0  0  0
    7.2868  -15.5363   25.4398 C   0  0  0  0  0  0  0  0  0  0  0  0
    5.9260  -15.7616   25.4813 C   0  0  0  0  0  0  0  0  0  0  0  0
    5.2610  -14.6092   25.6878 N   0  0  0  0  0  0  0  0  0  0  0  0
    6.1520  -13.5986   25.7876 C   0  0  0  0  0  0  0  0  0  0  0  0
    5.9536  -12.2502   25.9975 C   0  0  0  0  0  0  0  0  0  0  0  0
    7.0623  -11.4342   26.0571 C   0  0  0  0  0  0  0  0  0  0  0  0
    8.3377  -11.9934   25.9045 C   0  0  0  0  0  0  0  0  0  0  0  0
    8.5048  -13.3423   25.6963 C   0  0  0  0  0  0  0  0  0  0  0  0
    7.4020  -14.1542   25.6371 C   0  0  0  0  0  0  0  0  0  0  0  0
   10.6544  -16.7887   24.1456 C   0  0  0  0  0  0  0  0  0  0  0  0
   11.5044  -16.4322   23.2502 O   0  0  0  0  0  0  0  0  0  0  0  0
   10.2784  -14.3036   29.0574 C   0  0  0  0  0  0  0  0  0  0  0  0
   12.0029  -14.8243   28.9731 S   0  0  0  0  0  0  0  0  0  0  0  0
   12.1511  -16.4881   28.2508 C   0  0  0  0  0  0  0  0  0  0  0  0
   11.2740  -16.6387   27.0361 C   0  0  0  0  0  0  0  0  0  0  0  0
   11.8208  -17.7111   26.1219 C   0  0  2  0  0  0  0  0  0  0  0  0
   11.0207  -17.8894   24.9415 N   0  0  0  0  0  0  0  0  0  0  0  0
   11.9575  -19.0072   26.8120 C   0  0  0  0  0  0  0  0  0  0  0  0
   10.8503  -19.8590   27.0009 O   0  0  0  0  0  0  0  0  0  0  0  0
   13.0380  -19.4461   27.2740 O   0  0  0  0  0  0  0  0  0  0  0  0
  1  2  1  0
  2  3  1  0
  3  4  1  6
  5  6  1  1
  5  3  1  0
  7  5  1  0
  8  7  2  0
  9  7  1  0
 10  9  1  0
 10 11  1  1
 12 11  1  0
 12 13  2  0
 14 13  1  0
 15 14  1  0
 16 15  2  0
 17 16  1  0
 18 17  2  0
 18 19  1  0
 19 20  2  0
 20 15  1  0
 20 12  1  0
 21 10  1  0
 21 28  1  0
 22 21  2  0
 23 24  1  0
 24 25  1  0
 25 26  1  0
 27 26  1  1
 27 28  1  0
 27 29  1  0
 29 31  2  0
 29 30  1  0
M  END
$$$$
