IWM.pdb
     RDKit          3D

 31 32  0  0  1  0  0  0  0  0999 V2000
    7.2609  -13.6358   18.9667 C   0  0  0  0  0  0  0  0  0  0  0  0
    8.6242  -12.9943   19.2670 C   0  0  0  0  0  0  0  0  0  0  0  0
    9.6769  -13.8456   18.6386 C   0  0  2  0  0  0  0  0  0  0  0  0
    9.3974  -14.0339   17.1839 C   0  0  0  0  0  0  0  0  0  0  0  0
    9.8523  -15.1412   19.4075 C   0  0  2  0  0  0  0  0  0  0  0  0
    8.9462  -16.1625   18.9025 N   0  0  0  0  0  0  0  0  0  0  0  0
    9.7322  -14.9779   20.8669 C   0  0  0  0  0  0  0  0  0  0  0  0
   10.4344  -14.1416   21.4735 O   0  0  0  0  0  0  0  0  0  0  0  0
    8.8322  -15.7402   21.6647 N   0  0  0  0  0  0  0  0  0  0  0  0
    8.5923  -15.4040   23.0841 C   0  0  1  0  0  0  0  0  0  0  0  0
    7.1372  -15.6203   23.3105 C   0  0  0  0  0  0  0  0  0  0  0  0
    6.6499  -15.1978   24.6399 C   0  0  0  0  0  0  0  0  0  0  0  0
    6.1348  -15.9469   25.6780 C   0  0  0  0  0  0  0  0  0  0  0  0
    5.7935  -15.1536   26.7110 N   0  0  0  0  0  0  0  0  0  0  0  0
    6.0694  -13.8705   26.3905 C   0  0  0  0  0  0  0  0  0  0  0  0
    5.8964  -12.7113   27.1172 C   0  0  0  0  0  0  0  0  0  0  0  0
    6.2714  -11.5202   26.5348 C   0  0  0  0  0  0  0  0  0  0  0  0
    6.8088  -11.5255   25.2410 C   0  0  0  0  0  0  0  0  0  0  0  0
    6.9696  -12.6976   24.5403 C   0  0  0  0  0  0  0  0  0  0  0  0
    6.5967  -13.8826   25.1195 C   0  0  0  0  0  0  0  0  0  0  0  0
    9.5187  -16.1758   23.8978 C   0  0  0  0  0  0  0  0  0  0  0  0
   10.0223  -17.2356   23.3738 O   0  0  0  0  0  0  0  0  0  0  0  0
   10.4018  -15.5736   29.9187 C   0  0  0  0  0  0  0  0  0  0  0  0
   10.6501  -14.0959   28.9153 S   0  0  0  0  0  0  0  0  0  0  0  0
   10.9562  -14.5291   27.1744 C   0  0  0  0  0  0  0  0  0  0  0  0
   11.5530  -15.9059   27.0487 C   0  0  0  0  0  0  0  0  0  0  0  0
   11.0054  -16.6072   25.8267 C   0  0  2  0  0  0  0  0  0  0  0  0
    9.9288  -15.8813   25.2110 N   0  0  0  0  0  0  0  0  0  0  0  0
   10.5503  -17.9760   26.1339 C   0  0  0  0  0  0  0  0  0  0  0  0
   11.4554  -18.9767   26.5417 O   0  0  0  0  0  0  0  0  0  0  0  0
    9.3558  -18.3518   26.0602 O   0  0  0  0  0  0  0  0  0  0  0  0
  1  2  1  0
  2  3  1  0
  3  4  1  6
  5  6  1  6
  5  3  1  0
  7  5  1  0
  8  7  2  0
  9  7  1  0
 10  9  1  0
 10 11  1  1
 12 11  1  0
 12 13  2  0
 14 13  1  0
 15 14  1  0
 16 15  2  0
 17 16  1  0
 18 17  2  0
 18 19  1  0
 19 20  2  0
 20 15  1  0
 20 12  1  0
 21 10  1  0
 21 28  1  0
 22 21  2  0
 23 24  1  0
 24 25  1  0
 25 26  1  0
 27 26  1  1
 27 28  1  0
 27 29  1  0
 29 31  2  0
 29 30  1  0
M  END
$$$$
