IWM.pdb
     RDKit          3D

 31 32  0  0  1  0  0  0  0  0999 V2000
    6.5922  -12.3435   18.8948 C   0  0  0  0  0  0  0  0  0  0  0  0
    6.8680  -13.7854   19.3480 C   0  0  0  0  0  0  0  0  0  0  0  0
    7.8251  -13.7284   20.4919 C   0  0  2  0  0  0  0  0  0  0  0  0
    9.0111  -12.8924   20.1399 C   0  0  0  0  0  0  0  0  0  0  0  0
    8.1730  -15.1239   20.9736 C   0  0  2  0  0  0  0  0  0  0  0  0
    6.9651  -15.9085   21.1840 N   0  0  0  0  0  0  0  0  0  0  0  0
    9.0445  -15.1339   22.1617 C   0  0  0  0  0  0  0  0  0  0  0  0
    9.9648  -14.2979   22.2829 O   0  0  0  0  0  0  0  0  0  0  0  0
    8.9018  -16.0706   23.2247 N   0  0  0  0  0  0  0  0  0  0  0  0
    9.7605  -16.0038   24.4261 C   0  0  1  0  0  0  0  0  0  0  0  0
    8.8729  -16.3281   25.5761 C   0  0  0  0  0  0  0  0  0  0  0  0
    7.6924  -15.4498   25.7115 C   0  0  0  0  0  0  0  0  0  0  0  0
    6.3554  -15.7176   25.4999 C   0  0  0  0  0  0  0  0  0  0  0  0
    5.6108  -14.6182   25.7229 N   0  0  0  0  0  0  0  0  0  0  0  0
    6.4240  -13.6018   26.0845 C   0  0  0  0  0  0  0  0  0  0  0  0
    6.1293  -12.2948   26.4109 C   0  0  0  0  0  0  0  0  0  0  0  0
    7.1730  -11.4603   26.7470 C   0  0  0  0  0  0  0  0  0  0  0  0
    8.4818  -11.9600   26.7460 C   0  0  0  0  0  0  0  0  0  0  0  0
    8.7453  -13.2685   26.4159 C   0  0  0  0  0  0  0  0  0  0  0  0
    7.7072  -14.0988   26.0816 C   0  0  0  0  0  0  0  0  0  0  0  0
   10.9153  -16.8612   24.2088 C   0  0  0  0  0  0  0  0  0  0  0  0
   10.7264  -17.9504   23.5535 O   0  0  0  0  0  0  0  0  0  0  0  0
   17.3798  -15.9366   22.2470 C   0  0  0  0  0  0  0  0  0  0  0  0
   15.7761  -15.1219   22.1192 S   0  0  0  0  0  0  0  0  0  0  0  0
   14.6517  -15.6765   23.4384 C   0  0  0  0  0  0  0  0  0  0  0  0
   14.1490  -17.0721   23.1796 C   0  0  0  0  0  0  0  0  0  0  0  0
   13.2895  -17.5436   24.3302 C   0  0  2  0  0  0  0  0  0  0  0  0
   12.2322  -16.6216   24.6421 N   0  0  0  0  0  0  0  0  0  0  0  0
   14.0851  -17.7942   25.5464 C   0  0  0  0  0  0  0  0  0  0  0  0
   15.1138  -18.7576   25.5656 O   0  0  0  0  0  0  0  0  0  0  0  0
   13.9175  -17.1885   26.6321 O   0  0  0  0  0  0  0  0  0  0  0  0
  1  2  1  0
  2  3  1  0
  3  4  1  6
  5  6  1  1
  5  3  1  0
  7  5  1  0
  8  7  2  0
  9  7  1  0
 10  9  1  0
 10 11  1  1
 12 11  1  0
 12 13  2  0
 14 13  1  0
 15 14  1  0
 16 15  2  0
 17 16  1  0
 18 17  2  0
 18 19  1  0
 19 20  2  0
 20 15  1  0
 20 12  1  0
 21 10  1  0
 21 28  1  0
 22 21  2  0
 23 24  1  0
 24 25  1  0
 25 26  1  0
 27 26  1  6
 27 28  1  0
 27 29  1  0
 29 31  2  0
 29 30  1  0
M  END
$$$$
