IWM.pdb
     RDKit          3D

 31 32  0  0  1  0  0  0  0  0999 V2000
    8.1790  -13.1862   16.4323 C   0  0  0  0  0  0  0  0  0  0  0  0
    8.7668  -14.3689   17.2173 C   0  0  0  0  0  0  0  0  0  0  0  0
    8.4115  -14.1832   18.6550 C   0  0  2  0  0  0  0  0  0  0  0  0
    8.9264  -12.8742   19.1558 C   0  0  0  0  0  0  0  0  0  0  0  0
    8.8541  -15.3778   19.4782 C   0  0  2  0  0  0  0  0  0  0  0  0
    8.3545  -16.6144   18.8951 N   0  0  0  0  0  0  0  0  0  0  0  0
    8.5061  -15.2675   20.9057 C   0  0  0  0  0  0  0  0  0  0  0  0
    7.4967  -14.6263   21.2670 O   0  0  0  0  0  0  0  0  0  0  0  0
    9.2743  -15.8680   21.9435 N   0  0  0  0  0  0  0  0  0  0  0  0
    8.9806  -15.6013   23.3675 C   0  0  1  0  0  0  0  0  0  0  0  0
    7.7064  -16.3137   23.6579 C   0  0  0  0  0  0  0  0  0  0  0  0
    6.7758  -15.5791   24.5397 C   0  0  0  0  0  0  0  0  0  0  0  0
    5.5762  -15.9756   25.0947 C   0  0  0  0  0  0  0  0  0  0  0  0
    5.0406  -14.9803   25.8264 N   0  0  0  0  0  0  0  0  0  0  0  0
    5.8606  -13.9078   25.7776 C   0  0  0  0  0  0  0  0  0  0  0  0
    5.7411  -12.6647   26.3625 C   0  0  0  0  0  0  0  0  0  0  0  0
    6.7439  -11.7459   26.1411 C   0  0  0  0  0  0  0  0  0  0  0  0
    7.8373  -12.0998   25.3399 C   0  0  0  0  0  0  0  0  0  0  0  0
    7.9293  -13.3476   24.7696 C   0  0  0  0  0  0  0  0  0  0  0  0
    6.9319  -14.2617   24.9898 C   0  0  0  0  0  0  0  0  0  0  0  0
   10.1489  -15.9723   24.1508 C   0  0  0  0  0  0  0  0  0  0  0  0
   10.9187  -16.8808   23.6677 O   0  0  0  0  0  0  0  0  0  0  0  0
   11.6880  -15.4097   31.1247 C   0  0  0  0  0  0  0  0  0  0  0  0
   10.9469  -14.3786   29.8444 S   0  0  0  0  0  0  0  0  0  0  0  0
   10.6964  -15.3202   28.3072 C   0  0  0  0  0  0  0  0  0  0  0  0
   11.9073  -15.2460   27.4153 C   0  0  0  0  0  0  0  0  0  0  0  0
   11.6498  -15.9755   26.1166 C   0  0  2  0  0  0  0  0  0  0  0  0
   10.5317  -15.4350   25.3934 N   0  0  0  0  0  0  0  0  0  0  0  0
   11.4347  -17.4191   26.3282 C   0  0  0  0  0  0  0  0  0  0  0  0
   12.5068  -18.2861   26.6211 O   0  0  0  0  0  0  0  0  0  0  0  0
   10.3135  -17.9782   26.2672 O   0  0  0  0  0  0  0  0  0  0  0  0
  1  2  1  0
  2  3  1  0
  3  4  1  1
  5  6  1  6
  5  3  1  0
  7  5  1  0
  8  7  2  0
  9  7  1  0
 10  9  1  0
 10 11  1  1
 12 11  1  0
 12 13  2  0
 14 13  1  0
 15 14  1  0
 16 15  2  0
 17 16  1  0
 18 17  2  0
 18 19  1  0
 19 20  2  0
 20 15  1  0
 20 12  1  0
 21 10  1  0
 21 28  1  0
 22 21  2  0
 23 24  1  0
 24 25  1  0
 25 26  1  0
 27 26  1  1
 27 28  1  0
 27 29  1  0
 29 31  2  0
 29 30  1  0
M  END
$$$$
