WMF.pdb
     RDKit          3D

 34 36  0  0  1  0  0  0  0  0999 V2000
   27.4570  -19.8801  -16.5116 N   0  0  0  0  0  0  0  0  0  0  0  0
   26.8918  -19.4230  -15.2473 C   0  0  1  0  0  0  0  0  0  0  0  0
   25.7715  -18.4552  -15.4776 C   0  0  0  0  0  0  0  0  0  0  0  0
   26.0683  -17.2881  -16.3005 C   0  0  0  0  0  0  0  0  0  0  0  0
   25.6070  -17.1196  -17.6137 C   0  0  0  0  0  0  0  0  0  0  0  0
   26.0971  -15.9602  -18.0787 N   0  0  0  0  0  0  0  0  0  0  0  0
   26.8529  -15.3466  -17.1614 C   0  0  0  0  0  0  0  0  0  0  0  0
   27.5508  -14.1518  -17.1424 C   0  0  0  0  0  0  0  0  0  0  0  0
   28.2540  -13.7350  -16.0225 C   0  0  0  0  0  0  0  0  0  0  0  0
   28.2298  -14.5590  -14.9294 C   0  0  0  0  0  0  0  0  0  0  0  0
   27.5375  -15.7505  -14.9426 C   0  0  0  0  0  0  0  0  0  0  0  0
   26.8343  -16.1684  -16.0623 C   0  0  0  0  0  0  0  0  0  0  0  0
   26.5292  -20.4753  -14.3195 C   0  0  0  0  0  0  0  0  0  0  0  0
   25.8807  -21.4524  -14.7749 O   0  0  0  0  0  0  0  0  0  0  0  0
   26.3575  -19.4761   -6.7651 C   0  0  0  0  0  0  0  0  0  0  0  0
   26.9608  -20.6591   -7.9766 S   0  0  0  0  0  0  0  0  0  0  0  0
   26.1906  -20.4385   -9.5773 C   0  0  0  0  0  0  0  0  0  0  0  0
   26.6521  -21.3579  -10.6397 C   0  0  0  0  0  0  0  0  0  0  0  0
   26.0464  -21.2127  -11.9913 C   0  0  2  0  0  0  0  0  0  0  0  0
   26.8567  -20.4805  -12.9172 N   0  0  0  0  0  0  0  0  0  0  0  0
   24.6451  -20.6983  -11.9342 C   0  0  0  0  0  0  0  0  0  0  0  0
   24.3795  -19.5198  -12.2569 O   0  0  0  0  0  0  0  0  0  0  0  0
   23.5667  -21.5204  -11.5146 N   0  0  0  0  0  0  0  0  0  0  0  0
   22.1973  -21.0095  -11.4327 C   0  0  1  0  0  0  0  0  0  0  0  0
   21.8037  -20.6834  -12.8345 C   0  0  0  0  0  0  0  0  0  0  0  0
   20.4118  -20.2634  -13.0344 C   0  0  0  0  0  0  0  0  0  0  0  0
   20.1346  -18.9144  -13.0791 C   0  0  0  0  0  0  0  0  0  0  0  0
   18.8522  -18.4116  -13.2595 C   0  0  0  0  0  0  0  0  0  0  0  0
   17.8294  -19.3337  -13.3967 C   0  0  0  0  0  0  0  0  0  0  0  0
   18.0980  -20.6958  -13.3530 C   0  0  0  0  0  0  0  0  0  0  0  0
   19.3918  -21.1794  -13.1714 C   0  0  0  0  0  0  0  0  0  0  0  0
   21.2743  -22.0405  -10.8984 C   0  0  0  0  0  0  0  0  0  0  0  0
   20.1790  -21.7595  -10.1238 O   0  0  0  0  0  0  0  0  0  0  0  0
   21.5295  -23.2459  -11.1836 O   0  0  0  0  0  0  0  0  0  0  0  0
  2  1  1  6
  2  3  1  0
  3  4  1  0
  4  5  2  0
  6  5  1  0
  7  6  1  0
  8  7  2  0
  9  8  1  0
 10  9  2  0
 10 11  1  0
 11 12  2  0
 12  7  1  0
 12  4  1  0
 13  2  1  0
 13 14  2  0
 16 15  1  0
 17 16  1  0
 18 17  1  0
 19 18  1  1
 20 19  1  0
 20 13  1  0
 21 19  1  0
 22 21  2  0
 23 21  1  0
 24 25  1  6
 24 23  1  0
 25 26  1  0
 26 31  2  0
 27 28  2  0
 27 26  1  0
 28 29  1  0
 29 30  2  0
 31 30  1  0
 32 24  1  0
 32 33  1  0
 34 32  2  0
M  END
$$$$
