WMF.pdb
     RDKit          3D

 34 36  0  0  1  0  0  0  0  0999 V2000
   25.4021  -19.0736  -19.5944 N   0  0  0  0  0  0  0  0  0  0  0  0
   25.6614  -19.4256  -18.2031 C   0  0  1  0  0  0  0  0  0  0  0  0
   25.5022  -18.2345  -17.3083 C   0  0  0  0  0  0  0  0  0  0  0  0
   26.3309  -17.0718  -17.6060 C   0  0  0  0  0  0  0  0  0  0  0  0
   25.8213  -15.8360  -18.0289 C   0  0  0  0  0  0  0  0  0  0  0  0
   26.8588  -15.0130  -18.2452 N   0  0  0  0  0  0  0  0  0  0  0  0
   28.0241  -15.6195  -17.9935 C   0  0  0  0  0  0  0  0  0  0  0  0
   29.3450  -15.2104  -18.0457 C   0  0  0  0  0  0  0  0  0  0  0  0
   30.3861  -16.0593  -17.7025 C   0  0  0  0  0  0  0  0  0  0  0  0
   30.0519  -17.3270  -17.3078 C   0  0  0  0  0  0  0  0  0  0  0  0
   28.7384  -17.7405  -17.2548 C   0  0  0  0  0  0  0  0  0  0  0  0
   27.6966  -16.8923  -17.5981 C   0  0  0  0  0  0  0  0  0  0  0  0
   24.9365  -20.5818  -17.7159 C   0  0  0  0  0  0  0  0  0  0  0  0
   24.1790  -21.1755  -18.5259 O   0  0  0  0  0  0  0  0  0  0  0  0
   31.0175  -24.1597  -16.7525 C   0  0  0  0  0  0  0  0  0  0  0  0
   29.9142  -22.7697  -17.0389 S   0  0  0  0  0  0  0  0  0  0  0  0
   28.2542  -23.0935  -16.4527 C   0  0  0  0  0  0  0  0  0  0  0  0
   27.2878  -21.9883  -16.6303 C   0  0  0  0  0  0  0  0  0  0  0  0
   25.9213  -22.1673  -16.0685 C   0  0  2  0  0  0  0  0  0  0  0  0
   25.0211  -21.0965  -16.3736 N   0  0  0  0  0  0  0  0  0  0  0  0
   25.9438  -22.4908  -14.6103 C   0  0  0  0  0  0  0  0  0  0  0  0
   26.6258  -23.4437  -14.1739 O   0  0  0  0  0  0  0  0  0  0  0  0
   25.1976  -21.7353  -13.6684 N   0  0  0  0  0  0  0  0  0  0  0  0
   25.6358  -21.5902  -12.2792 C   0  0  1  0  0  0  0  0  0  0  0  0
   25.3344  -20.1772  -11.9064 C   0  0  0  0  0  0  0  0  0  0  0  0
   23.9337  -19.7590  -12.0357 C   0  0  0  0  0  0  0  0  0  0  0  0
   23.4757  -19.3780  -13.2781 C   0  0  0  0  0  0  0  0  0  0  0  0
   22.1705  -18.9616  -13.5078 C   0  0  0  0  0  0  0  0  0  0  0  0
   21.3171  -18.9394  -12.4185 C   0  0  0  0  0  0  0  0  0  0  0  0
   21.7688  -19.3213  -11.1617 C   0  0  0  0  0  0  0  0  0  0  0  0
   23.0822  -19.7361  -10.9527 C   0  0  0  0  0  0  0  0  0  0  0  0
   24.8792  -22.4988  -11.3834 C   0  0  0  0  0  0  0  0  0  0  0  0
   25.1074  -22.6101  -10.0364 O   0  0  0  0  0  0  0  0  0  0  0  0
   23.9741  -23.2067  -11.9116 O   0  0  0  0  0  0  0  0  0  0  0  0
  2  1  1  6
  2  3  1  0
  3  4  1  0
  4  5  2  0
  6  5  1  0
  7  6  1  0
  8  7  2  0
  9  8  1  0
 10  9  2  0
 10 11  1  0
 11 12  2  0
 12  7  1  0
 12  4  1  0
 13  2  1  0
 13 14  2  0
 16 15  1  0
 17 16  1  0
 18 17  1  0
 19 18  1  1
 20 19  1  0
 20 13  1  0
 21 19  1  0
 22 21  2  0
 23 21  1  0
 24 25  1  1
 24 23  1  0
 25 26  1  0
 26 31  2  0
 27 28  2  0
 27 26  1  0
 28 29  1  0
 29 30  2  0
 31 30  1  0
 32 24  1  0
 32 33  1  0
 34 32  2  0
M  END
$$$$
