WMF.pdb
     RDKit          3D

 34 36  0  0  1  0  0  0  0  0999 V2000
   27.1958  -21.7948  -16.0551 N   0  0  0  0  0  0  0  0  0  0  0  0
   26.7273  -20.9015  -15.0018 C   0  0  1  0  0  0  0  0  0  0  0  0
   25.5456  -20.1028  -15.4602 C   0  0  0  0  0  0  0  0  0  0  0  0
   25.7488  -19.2255  -16.6076 C   0  0  0  0  0  0  0  0  0  0  0  0
   25.4702  -19.5927  -17.9316 C   0  0  0  0  0  0  0  0  0  0  0  0
   25.8081  -18.5652  -18.7257 N   0  0  0  0  0  0  0  0  0  0  0  0
   26.2921  -17.5391  -18.0171 C   0  0  0  0  0  0  0  0  0  0  0  0
   26.7518  -16.2780  -18.3537 C   0  0  0  0  0  0  0  0  0  0  0  0
   27.1892  -15.3799  -17.3923 C   0  0  0  0  0  0  0  0  0  0  0  0
   27.1479  -15.7944  -16.0881 C   0  0  0  0  0  0  0  0  0  0  0  0
   26.6921  -17.0494  -15.7468 C   0  0  0  0  0  0  0  0  0  0  0  0
   26.2548  -17.9483  -16.7076 C   0  0  0  0  0  0  0  0  0  0  0  0
   26.5019  -21.5313  -13.7164 C   0  0  0  0  0  0  0  0  0  0  0  0
   26.0402  -22.7015  -13.7165 O   0  0  0  0  0  0  0  0  0  0  0  0
   27.1691  -18.7109   -7.7404 C   0  0  0  0  0  0  0  0  0  0  0  0
   26.4947  -20.3131   -7.2828 S   0  0  0  0  0  0  0  0  0  0  0  0
   26.2067  -21.3564   -8.7086 C   0  0  0  0  0  0  0  0  0  0  0  0
   26.7110  -20.8314   -9.9958 C   0  0  0  0  0  0  0  0  0  0  0  0
   26.2058  -21.4620  -11.2456 C   0  0  2  0  0  0  0  0  0  0  0  0
   26.7670  -20.9133  -12.4431 N   0  0  0  0  0  0  0  0  0  0  0  0
   24.7137  -21.5166  -11.2921 C   0  0  0  0  0  0  0  0  0  0  0  0
   24.0412  -21.6152  -10.2425 O   0  0  0  0  0  0  0  0  0  0  0  0
   24.0044  -21.4593  -12.5203 N   0  0  0  0  0  0  0  0  0  0  0  0
   22.5441  -21.3663  -12.5610 C   0  0  1  0  0  0  0  0  0  0  0  0
   22.2099  -20.0201  -12.0113 C   0  0  0  0  0  0  0  0  0  0  0  0
   20.7908  -19.6468  -12.0329 C   0  0  0  0  0  0  0  0  0  0  0  0
   20.0120  -19.9689  -10.9428 C   0  0  0  0  0  0  0  0  0  0  0  0
   18.6587  -19.6651  -10.8642 C   0  0  0  0  0  0  0  0  0  0  0  0
   18.0980  -19.0095  -11.9463 C   0  0  0  0  0  0  0  0  0  0  0  0
   18.8743  -18.6803  -13.0501 C   0  0  0  0  0  0  0  0  0  0  0  0
   20.2303  -18.9939  -13.1090 C   0  0  0  0  0  0  0  0  0  0  0  0
   22.0423  -21.4583  -13.9540 C   0  0  0  0  0  0  0  0  0  0  0  0
   22.8502  -21.4416  -15.0611 O   0  0  0  0  0  0  0  0  0  0  0  0
   20.7912  -21.5559  -14.1105 O   0  0  0  0  0  0  0  0  0  0  0  0
  2  1  1  6
  2  3  1  0
  3  4  1  0
  4  5  2  0
  6  5  1  0
  7  6  1  0
  8  7  2  0
  9  8  1  0
 10  9  2  0
 10 11  1  0
 11 12  2  0
 12  7  1  0
 12  4  1  0
 13  2  1  0
 13 14  2  0
 16 15  1  0
 17 16  1  0
 18 17  1  0
 19 18  1  1
 20 19  1  0
 20 13  1  0
 21 19  1  0
 22 21  2  0
 23 21  1  0
 24 25  1  6
 24 23  1  0
 25 26  1  0
 26 31  2  0
 27 28  2  0
 27 26  1  0
 28 29  1  0
 29 30  2  0
 31 30  1  0
 32 24  1  0
 32 33  1  0
 34 32  2  0
M  END
$$$$
