WMF.pdb
     RDKit          3D

 34 36  0  0  1  0  0  0  0  0999 V2000
   25.1405  -15.3172  -16.1309 N   0  0  0  0  0  0  0  0  0  0  0  0
   25.2151  -14.0307  -16.8136 C   0  0  1  0  0  0  0  0  0  0  0  0
   23.8784  -13.6347  -17.3622 C   0  0  0  0  0  0  0  0  0  0  0  0
   23.2265  -14.5839  -18.2574 C   0  0  0  0  0  0  0  0  0  0  0  0
   22.8820  -15.8930  -17.8924 C   0  0  0  0  0  0  0  0  0  0  0  0
   22.3382  -16.4914  -18.9632 N   0  0  0  0  0  0  0  0  0  0  0  0
   22.2977  -15.6667  -20.0156 C   0  0  0  0  0  0  0  0  0  0  0  0
   21.8306  -15.7940  -21.3119 C   0  0  0  0  0  0  0  0  0  0  0  0
   21.8944  -14.7457  -22.2170 C   0  0  0  0  0  0  0  0  0  0  0  0
   22.4423  -13.5721  -21.7732 C   0  0  0  0  0  0  0  0  0  0  0  0
   22.9101  -13.4395  -20.4838 C   0  0  0  0  0  0  0  0  0  0  0  0
   22.8470  -14.4875  -19.5780 C   0  0  0  0  0  0  0  0  0  0  0  0
   25.8361  -12.9656  -16.0522 C   0  0  0  0  0  0  0  0  0  0  0  0
   25.5661  -12.8955  -14.8256 O   0  0  0  0  0  0  0  0  0  0  0  0
   28.8386   -9.4246  -20.6075 C   0  0  0  0  0  0  0  0  0  0  0  0
   29.2203  -10.1247  -18.9964 S   0  0  0  0  0  0  0  0  0  0  0  0
   28.1245   -9.5156  -17.7188 C   0  0  0  0  0  0  0  0  0  0  0  0
   28.3076  -10.1179  -16.3806 C   0  0  0  0  0  0  0  0  0  0  0  0
   27.1653  -10.8757  -15.8010 C   0  0  2  0  0  0  0  0  0  0  0  0
   26.7364  -11.9841  -16.5996 N   0  0  0  0  0  0  0  0  0  0  0  0
   26.0310   -9.9851  -15.4116 C   0  0  0  0  0  0  0  0  0  0  0  0
   26.0362   -9.3787  -14.3180 O   0  0  0  0  0  0  0  0  0  0  0  0
   24.9100   -9.7926  -16.2608 N   0  0  0  0  0  0  0  0  0  0  0  0
   23.7672   -8.9744  -15.8517 C   0  0  1  0  0  0  0  0  0  0  0  0
   24.3042   -7.5946  -15.6670 C   0  0  0  0  0  0  0  0  0  0  0  0
   23.3197   -6.5552  -15.3440 C   0  0  0  0  0  0  0  0  0  0  0  0
   23.0091   -5.6240  -16.3109 C   0  0  0  0  0  0  0  0  0  0  0  0
   22.0951   -4.5981  -16.1067 C   0  0  0  0  0  0  0  0  0  0  0  0
   21.4869   -4.5363  -14.8651 C   0  0  0  0  0  0  0  0  0  0  0  0
   21.7930   -5.4701  -13.8834 C   0  0  0  0  0  0  0  0  0  0  0  0
   22.7128   -6.4918  -14.1087 C   0  0  0  0  0  0  0  0  0  0  0  0
   22.7237   -8.9503  -16.9057 C   0  0  0  0  0  0  0  0  0  0  0  0
   22.8660   -9.5353  -18.1370 O   0  0  0  0  0  0  0  0  0  0  0  0
   21.6450   -8.3481  -16.6350 O   0  0  0  0  0  0  0  0  0  0  0  0
  2  1  1  1
  2  3  1  0
  3  4  1  0
  4  5  2  0
  6  5  1  0
  7  6  1  0
  8  7  2  0
  9  8  1  0
 10  9  2  0
 10 11  1  0
 11 12  2  0
 12  7  1  0
 12  4  1  0
 13  2  1  0
 13 14  2  0
 16 15  1  0
 17 16  1  0
 18 17  1  0
 19 18  1  6
 20 19  1  0
 20 13  1  0
 21 19  1  0
 22 21  2  0
 23 21  1  0
 24 25  1  6
 24 23  1  0
 25 26  1  0
 26 31  2  0
 27 28  2  0
 27 26  1  0
 28 29  1  0
 29 30  2  0
 31 30  1  0
 32 24  1  0
 32 33  1  0
 34 32  2  0
M  END
$$$$
