WMF.pdb
     RDKit          3D

 34 36  0  0  1  0  0  0  0  0999 V2000
   15.7989  -20.6180    1.5711 N   0  0  0  0  0  0  0  0  0  0  0  0
   15.9474  -20.3910    3.0040 C   0  0  1  0  0  0  0  0  0  0  0  0
   16.1443  -21.6834    3.7357 C   0  0  0  0  0  0  0  0  0  0  0  0
   14.9896  -22.2197    4.4474 C   0  0  0  0  0  0  0  0  0  0  0  0
   13.6683  -22.1044    3.9928 C   0  0  0  0  0  0  0  0  0  0  0  0
   12.8658  -22.6731    4.9055 N   0  0  0  0  0  0  0  0  0  0  0  0
   13.5661  -23.1594    5.9363 C   0  0  0  0  0  0  0  0  0  0  0  0
   13.2192  -23.8336    7.0938 C   0  0  0  0  0  0  0  0  0  0  0  0
   14.1735  -24.2531    8.0080 C   0  0  0  0  0  0  0  0  0  0  0  0
   15.4812  -23.9709    7.7171 C   0  0  0  0  0  0  0  0  0  0  0  0
   15.8328  -23.2989    6.5665 C   0  0  0  0  0  0  0  0  0  0  0  0
   14.8791  -22.8787    5.6518 C   0  0  0  0  0  0  0  0  0  0  0  0
   16.9339  -19.3946    3.3697 C   0  0  0  0  0  0  0  0  0  0  0  0
   18.1020  -19.5447    2.9275 O   0  0  0  0  0  0  0  0  0  0  0  0
   19.1582  -11.9864    4.4700 C   0  0  0  0  0  0  0  0  0  0  0  0
   17.8297  -13.1663    4.1975 S   0  0  0  0  0  0  0  0  0  0  0  0
   18.3450  -14.8497    4.5208 C   0  0  0  0  0  0  0  0  0  0  0  0
   17.3437  -15.8938    4.2132 C   0  0  0  0  0  0  0  0  0  0  0  0
   17.7156  -17.3095    4.4826 C   0  0  2  0  0  0  0  0  0  0  0  0
   16.6723  -18.2492    4.2024 N   0  0  0  0  0  0  0  0  0  0  0  0
   18.2948  -17.4956    5.8470 C   0  0  0  0  0  0  0  0  0  0  0  0
   17.5554  -17.6533    6.8430 O   0  0  0  0  0  0  0  0  0  0  0  0
   19.6972  -17.5009    6.0661 N   0  0  0  0  0  0  0  0  0  0  0  0
   20.2642  -17.5082    7.4156 C   0  0  1  0  0  0  0  0  0  0  0  0
   21.7319  -17.7077    7.2357 C   0  0  0  0  0  0  0  0  0  0  0  0
   22.5533  -17.5947    8.4466 C   0  0  0  0  0  0  0  0  0  0  0  0
   22.5057  -18.6178    9.3683 C   0  0  0  0  0  0  0  0  0  0  0  0
   23.2396  -18.6076   10.5477 C   0  0  0  0  0  0  0  0  0  0  0  0
   24.0446  -17.5056   10.7774 C   0  0  0  0  0  0  0  0  0  0  0  0
   24.0997  -16.4687    9.8547 C   0  0  0  0  0  0  0  0  0  0  0  0
   23.3555  -16.4986    8.6774 C   0  0  0  0  0  0  0  0  0  0  0  0
   20.0324  -16.2120    8.0988 C   0  0  0  0  0  0  0  0  0  0  0  0
   19.9562  -15.0075    7.4492 O   0  0  0  0  0  0  0  0  0  0  0  0
   19.9010  -16.2388    9.3563 O   0  0  0  0  0  0  0  0  0  0  0  0
  2  1  1  6
  2  3  1  0
  3  4  1  0
  4  5  2  0
  6  5  1  0
  7  6  1  0
  8  7  2  0
  9  8  1  0
 10  9  2  0
 10 11  1  0
 11 12  2  0
 12  7  1  0
 12  4  1  0
 13  2  1  0
 13 14  2  0
 16 15  1  0
 17 16  1  0
 18 17  1  0
 19 18  1  1
 20 19  1  0
 20 13  1  0
 21 19  1  0
 22 21  2  0
 23 21  1  0
 24 25  1  6
 24 23  1  0
 25 26  1  0
 26 31  2  0
 27 28  2  0
 27 26  1  0
 28 29  1  0
 29 30  2  0
 31 30  1  0
 32 24  1  0
 32 33  1  0
 34 32  2  0
M  END
$$$$
