WMF.pdb
     RDKit          3D

 34 36  0  0  1  0  0  0  0  0999 V2000
   25.8643  -21.0028  -15.1686 N   0  0  0  0  0  0  0  0  0  0  0  0
   25.7897  -20.1634  -13.9783 C   0  0  1  0  0  0  0  0  0  0  0  0
   24.6543  -19.1908  -14.0764 C   0  0  0  0  0  0  0  0  0  0  0  0
   24.7273  -18.1988  -15.1431 C   0  0  0  0  0  0  0  0  0  0  0  0
   23.8533  -18.1631  -16.2388 C   0  0  0  0  0  0  0  0  0  0  0  0
   24.2304  -17.1517  -17.0359 N   0  0  0  0  0  0  0  0  0  0  0  0
   25.2965  -16.5123  -16.5423 C   0  0  0  0  0  0  0  0  0  0  0  0
   26.0377  -15.4229  -16.9652 C   0  0  0  0  0  0  0  0  0  0  0  0
   27.1112  -14.9413  -16.2317 C   0  0  0  0  0  0  0  0  0  0  0  0
   27.4101  -15.5918  -15.0646 C   0  0  0  0  0  0  0  0  0  0  0  0
   26.6763  -16.6778  -14.6388 C   0  0  0  0  0  0  0  0  0  0  0  0
   25.6028  -17.1603  -15.3719 C   0  0  0  0  0  0  0  0  0  0  0  0
   25.7943  -20.8802  -12.7190 C   0  0  0  0  0  0  0  0  0  0  0  0
   25.1733  -21.9732  -12.6711 O   0  0  0  0  0  0  0  0  0  0  0  0
   26.8099  -20.6616   -4.7933 C   0  0  0  0  0  0  0  0  0  0  0  0
   27.4139  -20.1456   -6.4059 S   0  0  0  0  0  0  0  0  0  0  0  0
   26.3108  -20.6346   -7.7281 C   0  0  0  0  0  0  0  0  0  0  0  0
   26.7758  -20.3198   -9.0962 C   0  0  0  0  0  0  0  0  0  0  0  0
   25.9431  -20.7926  -10.2356 C   0  0  2  0  0  0  0  0  0  0  0  0
   26.4565  -20.4302  -11.5221 N   0  0  0  0  0  0  0  0  0  0  0  0
   24.5029  -20.4289  -10.0768 C   0  0  0  0  0  0  0  0  0  0  0  0
   24.0447  -19.3822  -10.5846 O   0  0  0  0  0  0  0  0  0  0  0  0
   23.6033  -21.2508   -9.3487 N   0  0  0  0  0  0  0  0  0  0  0  0
   22.1709  -20.9555   -9.2867 C   0  0  1  0  0  0  0  0  0  0  0  0
   21.6597  -21.1430  -10.6759 C   0  0  0  0  0  0  0  0  0  0  0  0
   20.2094  -21.0081  -10.8550 C   0  0  0  0  0  0  0  0  0  0  0  0
   19.4129  -22.1026  -10.5977 C   0  0  0  0  0  0  0  0  0  0  0  0
   18.0311  -22.0823  -10.7398 C   0  0  0  0  0  0  0  0  0  0  0  0
   17.4601  -20.8941  -11.1607 C   0  0  0  0  0  0  0  0  0  0  0  0
   18.2540  -19.7848  -11.4228 C   0  0  0  0  0  0  0  0  0  0  0  0
   19.6385  -19.8261  -11.2738 C   0  0  0  0  0  0  0  0  0  0  0  0
   21.4703  -21.8994   -8.3819 C   0  0  0  0  0  0  0  0  0  0  0  0
   20.2736  -21.6283   -7.7711 O   0  0  0  0  0  0  0  0  0  0  0  0
   22.0258  -23.0160   -8.1718 O   0  0  0  0  0  0  0  0  0  0  0  0
  2  1  1  6
  2  3  1  0
  3  4  1  0
  4  5  2  0
  6  5  1  0
  7  6  1  0
  8  7  2  0
  9  8  1  0
 10  9  2  0
 10 11  1  0
 11 12  2  0
 12  7  1  0
 12  4  1  0
 13  2  1  0
 13 14  2  0
 16 15  1  0
 17 16  1  0
 18 17  1  0
 19 18  1  1
 20 19  1  0
 20 13  1  0
 21 19  1  0
 22 21  2  0
 23 21  1  0
 24 25  1  6
 24 23  1  0
 25 26  1  0
 26 31  2  0
 27 28  2  0
 27 26  1  0
 28 29  1  0
 29 30  2  0
 31 30  1  0
 32 24  1  0
 32 33  1  0
 34 32  2  0
M  END
$$$$
