WMF.pdb
     RDKit          3D

 34 36  0  0  1  0  0  0  0  0999 V2000
   27.1595  -22.2680   -9.9994 N   0  0  0  0  0  0  0  0  0  0  0  0
   26.5437  -20.9884   -9.6677 C   0  0  1  0  0  0  0  0  0  0  0  0
   27.5745  -19.9924   -9.2315 C   0  0  0  0  0  0  0  0  0  0  0  0
   28.5407  -20.4387   -8.2342 C   0  0  0  0  0  0  0  0  0  0  0  0
   29.6494  -21.2457   -8.5261 C   0  0  0  0  0  0  0  0  0  0  0  0
   30.2960  -21.4918   -7.3763 N   0  0  0  0  0  0  0  0  0  0  0  0
   29.6909  -20.9014   -6.3397 C   0  0  0  0  0  0  0  0  0  0  0  0
   29.9632  -20.8371   -4.9845 C   0  0  0  0  0  0  0  0  0  0  0  0
   29.1608  -20.1177   -4.1121 C   0  0  0  0  0  0  0  0  0  0  0  0
   28.0811  -19.4697   -4.6496 C   0  0  0  0  0  0  0  0  0  0  0  0
   27.8043  -19.5308   -5.9982 C   0  0  0  0  0  0  0  0  0  0  0  0
   28.6059  -20.2503   -6.8713 C   0  0  0  0  0  0  0  0  0  0  0  0
   25.6537  -20.4538  -10.6786 C   0  0  0  0  0  0  0  0  0  0  0  0
   24.9547  -19.4554  -10.3670 O   0  0  0  0  0  0  0  0  0  0  0  0
   25.9200  -17.2218  -16.1897 C   0  0  0  0  0  0  0  0  0  0  0  0
   27.2102  -18.2672  -15.5013 S   0  0  0  0  0  0  0  0  0  0  0  0
   26.6561  -19.1560  -14.0497 C   0  0  0  0  0  0  0  0  0  0  0  0
   25.3884  -19.9019  -14.2035 C   0  0  0  0  0  0  0  0  0  0  0  0
   24.6775  -20.3203  -12.9647 C   0  0  2  0  0  0  0  0  0  0  0  0
   25.5126  -20.9843  -12.0099 N   0  0  0  0  0  0  0  0  0  0  0  0
   23.4295  -21.0876  -13.2569 C   0  0  0  0  0  0  0  0  0  0  0  0
   23.4632  -22.3243  -13.4386 O   0  0  0  0  0  0  0  0  0  0  0  0
   22.1647  -20.4486  -13.3392 N   0  0  0  0  0  0  0  0  0  0  0  0
   20.9347  -21.2062  -13.5759 C   0  0  1  0  0  0  0  0  0  0  0  0
   19.9926  -20.7943  -12.4947 C   0  0  0  0  0  0  0  0  0  0  0  0
   19.6100  -19.3776  -12.4752 C   0  0  0  0  0  0  0  0  0  0  0  0
   18.4853  -18.9930  -13.1722 C   0  0  0  0  0  0  0  0  0  0  0  0
   18.0393  -17.6784  -13.2219 C   0  0  0  0  0  0  0  0  0  0  0  0
   18.7808  -16.7367  -12.5299 C   0  0  0  0  0  0  0  0  0  0  0  0
   19.9162  -17.1138  -11.8242 C   0  0  0  0  0  0  0  0  0  0  0  0
   20.3465  -18.4383  -11.7870 C   0  0  0  0  0  0  0  0  0  0  0  0
   20.3414  -20.8628  -14.8914 C   0  0  0  0  0  0  0  0  0  0  0  0
   19.2729  -21.5199  -15.4439 O   0  0  0  0  0  0  0  0  0  0  0  0
   20.8665  -19.9045  -15.5279 O   0  0  0  0  0  0  0  0  0  0  0  0
  2  1  1  6
  2  3  1  0
  3  4  1  0
  4  5  2  0
  6  5  1  0
  7  6  1  0
  8  7  2  0
  9  8  1  0
 10  9  2  0
 10 11  1  0
 11 12  2  0
 12  7  1  0
 12  4  1  0
 13  2  1  0
 13 14  2  0
 16 15  1  0
 17 16  1  0
 18 17  1  0
 19 18  1  6
 20 19  1  0
 20 13  1  0
 21 19  1  0
 22 21  2  0
 23 21  1  0
 24 25  1  1
 24 23  1  0
 25 26  1  0
 26 31  2  0
 27 28  2  0
 27 26  1  0
 28 29  1  0
 29 30  2  0
 31 30  1  0
 32 24  1  0
 32 33  1  0
 34 32  2  0
M  END
$$$$
