WMF.pdb
     RDKit          3D

 34 36  0  0  1  0  0  0  0  0999 V2000
   22.6316  -18.3083  -18.7734 N   0  0  0  0  0  0  0  0  0  0  0  0
   23.0799  -18.1052  -17.4006 C   0  0  1  0  0  0  0  0  0  0  0  0
   21.9376  -17.7120  -16.5144 C   0  0  0  0  0  0  0  0  0  0  0  0
   21.6278  -16.2892  -16.4318 C   0  0  0  0  0  0  0  0  0  0  0  0
   20.3583  -15.7496  -16.6822 C   0  0  0  0  0  0  0  0  0  0  0  0
   20.4424  -14.4167  -16.5528 N   0  0  0  0  0  0  0  0  0  0  0  0
   21.6836  -14.0346  -16.2323 C   0  0  0  0  0  0  0  0  0  0  0  0
   22.2698  -12.8071  -15.9782 C   0  0  0  0  0  0  0  0  0  0  0  0
   23.6092  -12.6942  -15.6384 C   0  0  0  0  0  0  0  0  0  0  0  0
   24.3329  -13.8540  -15.5644 C   0  0  0  0  0  0  0  0  0  0  0  0
   23.7550  -15.0793  -15.8172 C   0  0  0  0  0  0  0  0  0  0  0  0
   22.4156  -15.1931  -16.1575 C   0  0  0  0  0  0  0  0  0  0  0  0
   23.8626  -19.1895  -16.8425 C   0  0  0  0  0  0  0  0  0  0  0  0
   23.7731  -20.3151  -17.3970 O   0  0  0  0  0  0  0  0  0  0  0  0
   29.1914  -19.1316  -18.3255 C   0  0  0  0  0  0  0  0  0  0  0  0
   29.3678  -19.1006  -16.5369 S   0  0  0  0  0  0  0  0  0  0  0  0
   27.7850  -19.0384  -15.7033 C   0  0  0  0  0  0  0  0  0  0  0  0
   26.8942  -20.1953  -15.9383 C   0  0  0  0  0  0  0  0  0  0  0  0
   25.5501  -20.1742  -15.2997 C   0  0  2  0  0  0  0  0  0  0  0  0
   24.7319  -19.0697  -15.7007 N   0  0  0  0  0  0  0  0  0  0  0  0
   25.6238  -20.3152  -13.8143 C   0  0  0  0  0  0  0  0  0  0  0  0
   25.8475  -19.3243  -13.0851 O   0  0  0  0  0  0  0  0  0  0  0  0
   25.4444  -21.5701  -13.1757 N   0  0  0  0  0  0  0  0  0  0  0  0
   25.2885  -21.6786  -11.7243 C   0  0  1  0  0  0  0  0  0  0  0  0
   26.5547  -21.1461  -11.1414 C   0  0  0  0  0  0  0  0  0  0  0  0
   26.4919  -20.7200   -9.7385 C   0  0  0  0  0  0  0  0  0  0  0  0
   26.7914  -19.4090   -9.4380 C   0  0  0  0  0  0  0  0  0  0  0  0
   26.7662  -18.9053   -8.1437 C   0  0  0  0  0  0  0  0  0  0  0  0
   26.4212  -19.7859   -7.1333 C   0  0  0  0  0  0  0  0  0  0  0  0
   26.1175  -21.1094   -7.4255 C   0  0  0  0  0  0  0  0  0  0  0  0
   26.1486  -21.5948   -8.7309 C   0  0  0  0  0  0  0  0  0  0  0  0
   24.1518  -20.8538  -11.2466 C   0  0  0  0  0  0  0  0  0  0  0  0
   23.2369  -21.2765  -10.3175 O   0  0  0  0  0  0  0  0  0  0  0  0
   24.0345  -19.6944  -11.7379 O   0  0  0  0  0  0  0  0  0  0  0  0
  2  1  1  6
  2  3  1  0
  3  4  1  0
  4  5  2  0
  6  5  1  0
  7  6  1  0
  8  7  2  0
  9  8  1  0
 10  9  2  0
 10 11  1  0
 11 12  2  0
 12  7  1  0
 12  4  1  0
 13  2  1  0
 13 14  2  0
 16 15  1  0
 17 16  1  0
 18 17  1  0
 19 18  1  1
 20 19  1  0
 20 13  1  0
 21 19  1  0
 22 21  2  0
 23 21  1  0
 24 25  1  1
 24 23  1  0
 25 26  1  0
 26 31  2  0
 27 28  2  0
 27 26  1  0
 28 29  1  0
 29 30  2  0
 31 30  1  0
 32 24  1  0
 32 33  1  0
 34 32  2  0
M  END
$$$$
