WMF.pdb
     RDKit          3D

 34 36  0  0  1  0  0  0  0  0999 V2000
   25.8348  -19.9149  -17.1002 N   0  0  0  0  0  0  0  0  0  0  0  0
   26.0860  -19.5620  -15.7077 C   0  0  1  0  0  0  0  0  0  0  0  0
   24.8943  -18.8868  -15.1006 C   0  0  0  0  0  0  0  0  0  0  0  0
   24.4044  -17.6876  -15.7709 C   0  0  0  0  0  0  0  0  0  0  0  0
   23.1987  -17.6279  -16.4840 C   0  0  0  0  0  0  0  0  0  0  0  0
   23.0821  -16.3934  -16.9967 N   0  0  0  0  0  0  0  0  0  0  0  0
   24.1300  -15.6284  -16.6711 C   0  0  0  0  0  0  0  0  0  0  0  0
   24.4700  -14.3126  -16.9317 C   0  0  0  0  0  0  0  0  0  0  0  0
   25.6387  -13.7499  -16.4418 C   0  0  0  0  0  0  0  0  0  0  0  0
   26.4479  -14.5545  -15.6853 C   0  0  0  0  0  0  0  0  0  0  0  0
   26.1152  -15.8659  -15.4232 C   0  0  0  0  0  0  0  0  0  0  0  0
   24.9468  -16.4295  -15.9130 C   0  0  0  0  0  0  0  0  0  0  0  0
   26.5891  -20.6405  -14.8811 C   0  0  0  0  0  0  0  0  0  0  0  0
   26.2015  -21.8068  -15.1496 O   0  0  0  0  0  0  0  0  0  0  0  0
   31.2910  -21.4517   -9.6697 C   0  0  0  0  0  0  0  0  0  0  0  0
   31.1630  -20.2117  -10.9648 S   0  0  0  0  0  0  0  0  0  0  0  0
   29.5414  -20.1920  -11.7227 C   0  0  0  0  0  0  0  0  0  0  0  0
   29.0303  -21.5056  -12.1703 C   0  0  0  0  0  0  0  0  0  0  0  0
   27.7038  -21.5385  -12.8443 C   0  0  2  0  0  0  0  0  0  0  0  0
   27.4975  -20.4716  -13.7766 N   0  0  0  0  0  0  0  0  0  0  0  0
   26.5758  -21.6693  -11.8737 C   0  0  0  0  0  0  0  0  0  0  0  0
   26.5519  -22.5990  -11.0378 O   0  0  0  0  0  0  0  0  0  0  0  0
   25.4938  -20.7506  -11.8614 N   0  0  0  0  0  0  0  0  0  0  0  0
   24.3930  -20.8724  -10.9042 C   0  0  1  0  0  0  0  0  0  0  0  0
   24.5676  -19.7448   -9.9427 C   0  0  0  0  0  0  0  0  0  0  0  0
   25.3295  -20.0453   -8.7250 C   0  0  0  0  0  0  0  0  0  0  0  0
   26.2073  -19.0953   -8.2502 C   0  0  0  0  0  0  0  0  0  0  0  0
   26.9785  -19.2811   -7.1098 C   0  0  0  0  0  0  0  0  0  0  0  0
   26.8354  -20.4859   -6.4440 C   0  0  0  0  0  0  0  0  0  0  0  0
   25.9533  -21.4504   -6.9142 C   0  0  0  0  0  0  0  0  0  0  0  0
   25.1886  -21.2439   -8.0603 C   0  0  0  0  0  0  0  0  0  0  0  0
   23.0801  -20.7326  -11.5805 C   0  0  0  0  0  0  0  0  0  0  0  0
   22.9315  -20.5156  -12.9257 O   0  0  0  0  0  0  0  0  0  0  0  0
   22.0468  -20.8201  -10.8566 O   0  0  0  0  0  0  0  0  0  0  0  0
  2  1  1  6
  2  3  1  0
  3  4  1  0
  4  5  2  0
  6  5  1  0
  7  6  1  0
  8  7  2  0
  9  8  1  0
 10  9  2  0
 10 11  1  0
 11 12  2  0
 12  7  1  0
 12  4  1  0
 13  2  1  0
 13 14  2  0
 16 15  1  0
 17 16  1  0
 18 17  1  0
 19 18  1  1
 20 19  1  0
 20 13  1  0
 21 19  1  0
 22 21  2  0
 23 21  1  0
 24 25  1  1
 24 23  1  0
 25 26  1  0
 26 31  2  0
 27 28  2  0
 27 26  1  0
 28 29  1  0
 29 30  2  0
 31 30  1  0
 32 24  1  0
 32 33  1  0
 34 32  2  0
M  END
$$$$
