WMF.pdb
     RDKit          3D

 34 36  0  0  1  0  0  0  0  0999 V2000
   26.2211  -24.7881  -15.3387 N   0  0  0  0  0  0  0  0  0  0  0  0
   25.2433  -23.7937  -15.7653 C   0  0  1  0  0  0  0  0  0  0  0  0
   24.6130  -24.1832  -17.0675 C   0  0  0  0  0  0  0  0  0  0  0  0
   25.4662  -24.1438  -18.2498 C   0  0  0  0  0  0  0  0  0  0  0  0
   26.3043  -25.1960  -18.6446 C   0  0  0  0  0  0  0  0  0  0  0  0
   26.9666  -24.8068  -19.7449 N   0  0  0  0  0  0  0  0  0  0  0  0
   26.6236  -23.5659  -20.1079 C   0  0  0  0  0  0  0  0  0  0  0  0
   26.9982  -22.7378  -21.1513 C   0  0  0  0  0  0  0  0  0  0  0  0
   26.4568  -21.4711  -21.3083 C   0  0  0  0  0  0  0  0  0  0  0  0
   25.5308  -21.0704  -20.3828 C   0  0  0  0  0  0  0  0  0  0  0  0
   25.1545  -21.8902  -19.3410 C   0  0  0  0  0  0  0  0  0  0  0  0
   25.6957  -23.1570  -19.1830 C   0  0  0  0  0  0  0  0  0  0  0  0
   24.2609  -23.4286  -14.7647 C   0  0  0  0  0  0  0  0  0  0  0  0
   23.8828  -24.3258  -13.9681 O   0  0  0  0  0  0  0  0  0  0  0  0
   25.8808  -21.1420   -9.7940 C   0  0  0  0  0  0  0  0  0  0  0  0
   24.4020  -21.5092  -10.7479 S   0  0  0  0  0  0  0  0  0  0  0  0
   24.1739  -20.3663  -12.1065 C   0  0  0  0  0  0  0  0  0  0  0  0
   22.9352  -20.5494  -12.8933 C   0  0  0  0  0  0  0  0  0  0  0  0
   22.7385  -21.8552  -13.5798 C   0  0  2  0  0  0  0  0  0  0  0  0
   23.6877  -22.1155  -14.6195 N   0  0  0  0  0  0  0  0  0  0  0  0
   21.3296  -22.0512  -14.0362 C   0  0  0  0  0  0  0  0  0  0  0  0
   20.9291  -21.5601  -15.1142 O   0  0  0  0  0  0  0  0  0  0  0  0
   20.3958  -22.7972  -13.2705 N   0  0  0  0  0  0  0  0  0  0  0  0
   18.9876  -22.8948  -13.6580 C   0  0  1  0  0  0  0  0  0  0  0  0
   18.6223  -24.3321  -13.4934 C   0  0  0  0  0  0  0  0  0  0  0  0
   19.2147  -25.2647  -14.4593 C   0  0  0  0  0  0  0  0  0  0  0  0
   18.5769  -25.4505  -15.6665 C   0  0  0  0  0  0  0  0  0  0  0  0
   19.0510  -26.3126  -16.6473 C   0  0  0  0  0  0  0  0  0  0  0  0
   20.2186  -27.0010  -16.3678 C   0  0  0  0  0  0  0  0  0  0  0  0
   20.8693  -26.8209  -15.1539 C   0  0  0  0  0  0  0  0  0  0  0  0
   20.3771  -25.9511  -14.1834 C   0  0  0  0  0  0  0  0  0  0  0  0
   18.1312  -22.0730  -12.7681 C   0  0  0  0  0  0  0  0  0  0  0  0
   16.7733  -21.9523  -12.9107 O   0  0  0  0  0  0  0  0  0  0  0  0
   18.7057  -21.4524  -11.8278 O   0  0  0  0  0  0  0  0  0  0  0  0
  2  1  1  1
  2  3  1  0
  3  4  1  0
  4  5  2  0
  6  5  1  0
  7  6  1  0
  8  7  2  0
  9  8  1  0
 10  9  2  0
 10 11  1  0
 11 12  2  0
 12  7  1  0
 12  4  1  0
 13  2  1  0
 13 14  2  0
 16 15  1  0
 17 16  1  0
 18 17  1  0
 19 18  1  6
 20 19  1  0
 20 13  1  0
 21 19  1  0
 22 21  2  0
 23 21  1  0
 24 25  1  1
 24 23  1  0
 25 26  1  0
 26 31  2  0
 27 28  2  0
 27 26  1  0
 28 29  1  0
 29 30  2  0
 31 30  1  0
 32 24  1  0
 32 33  1  0
 34 32  2  0
M  END
$$$$
