YIR.pdb
     RDKit          3D

 32 32  0  0  1  0  0  0  0  0999 V2000
    6.2334  -17.1137   15.2279 O   0  0  0  0  0  0  0  0  0  0  0  0
    6.8072  -16.8375   16.4612 C   0  0  0  0  0  0  0  0  0  0  0  0
    8.1059  -16.3895   16.5961 C   0  0  0  0  0  0  0  0  0  0  0  0
    8.6793  -16.1144   17.8198 C   0  0  0  0  0  0  0  0  0  0  0  0
    7.9436  -16.2852   18.9924 C   0  0  0  0  0  0  0  0  0  0  0  0
    8.5153  -16.0078   20.3146 C   0  0  0  0  0  0  0  0  0  0  0  0
    8.2002  -14.6352   20.8524 C   0  0  2  0  0  0  0  0  0  0  0  0
    8.8618  -13.6482   20.0340 N   0  0  0  0  0  0  0  0  0  0  0  0
    8.6864  -14.6129   22.2705 C   0  0  0  0  0  0  0  0  0  0  0  0
    9.8795  -14.2603   22.4745 O   0  0  0  0  0  0  0  0  0  0  0  0
    6.6520  -16.7305   18.8583 C   0  0  0  0  0  0  0  0  0  0  0  0
    6.0783  -17.0059   17.6344 C   0  0  0  0  0  0  0  0  0  0  0  0
    5.6070  -12.3127   25.9650 C   0  0  0  0  0  0  0  0  0  0  0  0
    6.7703  -12.8676   25.1964 C   0  0  0  0  0  0  0  0  0  0  0  0
    7.2491  -14.2063   25.5710 C   0  0  2  0  0  0  0  0  0  0  0  0
    7.8018  -14.1187   27.0094 C   0  0  0  0  0  0  0  0  0  0  0  0
    8.1849  -14.9242   24.6847 C   0  0  2  0  0  0  0  0  0  0  0  0
    7.8043  -14.9821   23.3127 N   0  0  0  0  0  0  0  0  0  0  0  0
    8.5269  -16.2746   25.1712 C   0  0  0  0  0  0  0  0  0  0  0  0
    7.5881  -16.9688   25.7067 O   0  0  0  0  0  0  0  0  0  0  0  0
   11.4524  -17.5434   31.4306 N   0  0  0  0  0  0  0  0  0  0  0  0
   12.5138  -18.4295   31.1667 C   0  0  0  0  0  0  0  0  0  0  0  0
   12.9666  -19.1776   32.1025 N   0  0  0  0  0  0  0  0  0  0  0  0
   13.0820  -18.4970   29.8698 N   0  0  0  0  0  0  0  0  0  0  0  0
   12.6743  -17.4792   28.9077 C   0  0  0  0  0  0  0  0  0  0  0  0
   11.4956  -18.0348   28.1718 C   0  0  0  0  0  0  0  0  0  0  0  0
   11.1566  -17.1497   27.0135 C   0  0  0  0  0  0  0  0  0  0  0  0
   10.1874  -17.8580   26.0920 C   0  0  2  0  0  0  0  0  0  0  0  0
    9.8089  -16.8480   25.0838 N   0  0  0  0  0  0  0  0  0  0  0  0
    9.0038  -18.2589   26.8829 C   0  0  0  0  0  0  0  0  0  0  0  0
    8.6685  -19.6099   26.9214 O   0  0  0  0  0  0  0  0  0  0  0  0
    8.2626  -17.4944   27.5305 O   0  0  0  0  0  0  0  0  0  0  0  0
  2  3  2  0
  2  1  1  0
  4  3  1  0
  5  4  2  0
  6  5  1  0
  7  6  1  0
  7  8  1  6
  9  7  1  0
  9 10  2  0
 11  5  1  0
 11 12  2  0
 12  2  1  0
 13 14  1  0
 14 15  1  0
 15 17  1  0
 15 16  1  1
 17 18  1  6
 18  9  1  0
 19 17  1  0
 19 20  2  0
 21 22  1  0
 22 24  1  0
 23 22  2  0
 24 25  1  0
 26 25  1  0
 27 26  1  0
 28 27  1  1
 29 28  1  0
 29 19  1  0
 30 28  1  0
 31 30  1  0
 32 30  2  0
M  END
$$$$
