YIR.pdb
     RDKit          3D

 32 32  0  0  1  0  0  0  0  0999 V2000
    6.6456  -13.6483   15.6504 O   0  0  0  0  0  0  0  0  0  0  0  0
    6.9921  -14.0244   16.9407 C   0  0  0  0  0  0  0  0  0  0  0  0
    6.3418  -15.0323   17.6239 C   0  0  0  0  0  0  0  0  0  0  0  0
    6.6832  -15.4084   18.9061 C   0  0  0  0  0  0  0  0  0  0  0  0
    7.7260  -14.7635   19.5710 C   0  0  0  0  0  0  0  0  0  0  0  0
    8.1198  -15.1293   20.9360 C   0  0  0  0  0  0  0  0  0  0  0  0
    9.2102  -14.2677   21.5202 C   0  0  2  0  0  0  0  0  0  0  0  0
   10.4496  -14.5556   20.8399 N   0  0  0  0  0  0  0  0  0  0  0  0
    9.2761  -14.5988   22.9810 C   0  0  0  0  0  0  0  0  0  0  0  0
   10.3090  -15.1866   23.4017 O   0  0  0  0  0  0  0  0  0  0  0  0
    8.3729  -13.7614   18.8916 C   0  0  0  0  0  0  0  0  0  0  0  0
    8.0315  -13.3850   17.6091 C   0  0  0  0  0  0  0  0  0  0  0  0
    6.1067  -11.2274   26.2052 C   0  0  0  0  0  0  0  0  0  0  0  0
    7.2530  -12.0017   25.6237 C   0  0  0  0  0  0  0  0  0  0  0  0
    7.3501  -13.4267   25.9727 C   0  0  2  0  0  0  0  0  0  0  0  0
    7.5741  -13.5197   27.4970 C   0  0  0  0  0  0  0  0  0  0  0  0
    8.2915  -14.2972   25.2430 C   0  0  2  0  0  0  0  0  0  0  0  0
    8.1951  -14.2460   23.8222 N   0  0  0  0  0  0  0  0  0  0  0  0
    8.2615  -15.6996   25.7009 C   0  0  0  0  0  0  0  0  0  0  0  0
    7.5223  -16.5223   25.0476 O   0  0  0  0  0  0  0  0  0  0  0  0
   12.5841  -20.2153   22.0509 N   0  0  0  0  0  0  0  0  0  0  0  0
   12.7148  -21.0445   23.1808 C   0  0  0  0  0  0  0  0  0  0  0  0
   13.0182  -22.2799   23.0325 N   0  0  0  0  0  0  0  0  0  0  0  0
   12.5129  -20.5169   24.4809 N   0  0  0  0  0  0  0  0  0  0  0  0
   12.1111  -19.1181   24.5796 C   0  0  0  0  0  0  0  0  0  0  0  0
   11.0674  -19.0479   25.6496 C   0  0  0  0  0  0  0  0  0  0  0  0
   10.4913  -17.6678   25.7076 C   0  0  0  0  0  0  0  0  0  0  0  0
    9.4186  -17.6032   26.7732 C   0  0  2  0  0  0  0  0  0  0  0  0
    8.9894  -16.1908   26.8003 N   0  0  0  0  0  0  0  0  0  0  0  0
   10.0275  -17.9770   28.0679 C   0  0  0  0  0  0  0  0  0  0  0  0
   10.2846  -16.9638   28.9879 O   0  0  0  0  0  0  0  0  0  0  0  0
   10.3396  -19.1296   28.4248 O   0  0  0  0  0  0  0  0  0  0  0  0
  2  3  2  0
  2  1  1  0
  4  3  1  0
  5  4  2  0
  6  5  1  0
  7  6  1  0
  7  8  1  6
  9  7  1  0
  9 10  2  0
 11  5  1  0
 11 12  2  0
 12  2  1  0
 13 14  1  0
 14 15  1  0
 15 17  1  0
 15 16  1  1
 17 18  1  6
 18  9  1  0
 19 17  1  0
 19 20  2  0
 21 22  1  0
 22 24  1  0
 23 22  2  0
 24 25  1  0
 26 25  1  0
 27 26  1  0
 28 27  1  6
 29 28  1  0
 29 19  1  0
 30 28  1  0
 31 30  1  0
 32 30  2  0
M  END
$$$$
