YIR.pdb
     RDKit          3D

 32 32  0  0  1  0  0  0  0  0999 V2000
    2.3984  -23.5556   24.8823 O   0  0  0  0  0  0  0  0  0  0  0  0
    3.3234  -22.5298   24.7454 C   0  0  0  0  0  0  0  0  0  0  0  0
    4.6578  -22.6812   25.0648 C   0  0  0  0  0  0  0  0  0  0  0  0
    5.5794  -21.6641   24.9305 C   0  0  0  0  0  0  0  0  0  0  0  0
    5.1803  -20.4154   24.4540 C   0  0  0  0  0  0  0  0  0  0  0  0
    6.1265  -19.3053   24.2990 C   0  0  0  0  0  0  0  0  0  0  0  0
    5.5146  -18.0379   23.7586 C   0  0  2  0  0  0  0  0  0  0  0  0
    5.0737  -18.2710   22.4047 N   0  0  0  0  0  0  0  0  0  0  0  0
    6.5804  -16.9861   23.8338 C   0  0  0  0  0  0  0  0  0  0  0  0
    7.3081  -16.8168   22.8183 O   0  0  0  0  0  0  0  0  0  0  0  0
    3.8534  -20.2650   24.1363 C   0  0  0  0  0  0  0  0  0  0  0  0
    2.9313  -21.2821   24.2707 C   0  0  0  0  0  0  0  0  0  0  0  0
    5.6435  -12.7084   27.2346 C   0  0  0  0  0  0  0  0  0  0  0  0
    6.2100  -13.3367   25.9952 C   0  0  0  0  0  0  0  0  0  0  0  0
    7.4137  -14.1666   26.1498 C   0  0  2  0  0  0  0  0  0  0  0  0
    8.6148  -13.2161   26.3394 C   0  0  0  0  0  0  0  0  0  0  0  0
    7.7155  -15.2123   25.1538 C   0  0  2  0  0  0  0  0  0  0  0  0
    6.7300  -16.2331   25.0218 N   0  0  0  0  0  0  0  0  0  0  0  0
    9.0491  -15.8181   25.3320 C   0  0  0  0  0  0  0  0  0  0  0  0
    9.2006  -16.6467   26.3018 O   0  0  0  0  0  0  0  0  0  0  0  0
   17.2910  -16.7244   22.8556 N   0  0  0  0  0  0  0  0  0  0  0  0
   16.6486  -15.5341   22.4658 C   0  0  0  0  0  0  0  0  0  0  0  0
   17.3196  -14.6073   21.8904 N   0  0  0  0  0  0  0  0  0  0  0  0
   15.2628  -15.3585   22.7069 N   0  0  0  0  0  0  0  0  0  0  0  0
   14.3823  -16.4773   22.3899 C   0  0  0  0  0  0  0  0  0  0  0  0
   13.5640  -16.7374   23.6154 C   0  0  0  0  0  0  0  0  0  0  0  0
   12.2962  -15.9441   23.5577 C   0  0  0  0  0  0  0  0  0  0  0  0
   11.3290  -16.4439   24.6088 C   0  0  2  0  0  0  0  0  0  0  0  0
   10.1588  -15.5491   24.5097 N   0  0  0  0  0  0  0  0  0  0  0  0
   11.9698  -16.3019   25.9340 C   0  0  0  0  0  0  0  0  0  0  0  0
   11.7949  -15.1035   26.6213 O   0  0  0  0  0  0  0  0  0  0  0  0
   12.6638  -17.1635   26.5080 O   0  0  0  0  0  0  0  0  0  0  0  0
  2  3  2  0
  2  1  1  0
  4  3  1  0
  5  4  2  0
  6  5  1  0
  7  6  1  0
  7  8  1  6
  9  7  1  0
  9 10  2  0
 11  5  1  0
 11 12  2  0
 12  2  1  0
 13 14  1  0
 14 15  1  0
 15 17  1  0
 15 16  1  6
 17 18  1  1
 18  9  1  0
 19 17  1  0
 19 20  2  0
 21 22  1  0
 22 24  1  0
 23 22  2  0
 24 25  1  0
 26 25  1  0
 27 26  1  0
 28 27  1  6
 29 28  1  0
 29 19  1  0
 30 28  1  0
 31 30  1  0
 32 30  2  0
M  END
$$$$
