YIR.pdb
     RDKit          3D

 32 32  0  0  1  0  0  0  0  0999 V2000
    9.7989  -22.2482   30.5377 O   0  0  0  0  0  0  0  0  0  0  0  0
    9.3829  -21.4769   29.4613 C   0  0  0  0  0  0  0  0  0  0  0  0
   10.0898  -21.4049   28.2779 C   0  0  0  0  0  0  0  0  0  0  0  0
    9.6796  -20.6394   27.2066 C   0  0  0  0  0  0  0  0  0  0  0  0
    8.5041  -19.8931   27.2882 C   0  0  0  0  0  0  0  0  0  0  0  0
    8.0330  -19.0629   26.1743 C   0  0  0  0  0  0  0  0  0  0  0  0
    6.6244  -18.5500   26.3337 C   0  0  2  0  0  0  0  0  0  0  0  0
    5.7006  -19.6117   26.0155 N   0  0  0  0  0  0  0  0  0  0  0  0
    6.4892  -17.3836   25.4015 C   0  0  0  0  0  0  0  0  0  0  0  0
    5.7454  -17.5235   24.3932 O   0  0  0  0  0  0  0  0  0  0  0  0
    7.8010  -19.9648   28.4650 C   0  0  0  0  0  0  0  0  0  0  0  0
    8.2112  -20.7303   29.5367 C   0  0  0  0  0  0  0  0  0  0  0  0
    6.6924  -12.2931   27.3975 C   0  0  0  0  0  0  0  0  0  0  0  0
    6.2784  -13.2810   26.3465 C   0  0  0  0  0  0  0  0  0  0  0  0
    7.3164  -13.7526   25.4182 C   0  0  2  0  0  0  0  0  0  0  0  0
    7.5320  -12.6500   24.3600 C   0  0  0  0  0  0  0  0  0  0  0  0
    7.1854  -15.0787   24.7850 C   0  0  2  0  0  0  0  0  0  0  0  0
    7.1892  -16.1867   25.6811 N   0  0  0  0  0  0  0  0  0  0  0  0
    8.1590  -15.3039   23.6994 C   0  0  0  0  0  0  0  0  0  0  0  0
    9.2511  -15.9109   23.9972 O   0  0  0  0  0  0  0  0  0  0  0  0
    8.3781  -12.2853   15.2212 N   0  0  0  0  0  0  0  0  0  0  0  0
    8.2938  -13.5596   15.8130 C   0  0  0  0  0  0  0  0  0  0  0  0
    7.6506  -14.4956   15.2209 N   0  0  0  0  0  0  0  0  0  0  0  0
    8.9187  -13.8104   17.0604 N   0  0  0  0  0  0  0  0  0  0  0  0
    8.7051  -15.1212   17.6634 C   0  0  0  0  0  0  0  0  0  0  0  0
    9.4460  -15.1192   18.9636 C   0  0  0  0  0  0  0  0  0  0  0  0
    8.5305  -14.6958   20.0693 C   0  0  0  0  0  0  0  0  0  0  0  0
    8.8750  -15.4466   21.3374 C   0  0  2  0  0  0  0  0  0  0  0  0
    7.9667  -14.9004   22.3652 N   0  0  0  0  0  0  0  0  0  0  0  0
   10.2805  -15.1472   21.6866 C   0  0  0  0  0  0  0  0  0  0  0  0
   11.2685  -16.0149   21.2284 O   0  0  0  0  0  0  0  0  0  0  0  0
   10.6767  -14.1780   22.3627 O   0  0  0  0  0  0  0  0  0  0  0  0
  2  3  2  0
  2  1  1  0
  4  3  1  0
  5  4  2  0
  6  5  1  0
  7  6  1  0
  7  8  1  6
  9  7  1  0
  9 10  2  0
 11  5  1  0
 11 12  2  0
 12  2  1  0
 13 14  1  0
 14 15  1  0
 15 17  1  0
 15 16  1  6
 17 18  1  1
 18  9  1  0
 19 17  1  0
 19 20  2  0
 21 22  1  0
 22 24  1  0
 23 22  2  0
 24 25  1  0
 26 25  1  0
 27 26  1  0
 28 27  1  6
 29 28  1  0
 29 19  1  0
 30 28  1  0
 31 30  1  0
 32 30  2  0
M  END
$$$$
