YIR.pdb
     RDKit          3D

 32 32  0  0  1  0  0  0  0  0999 V2000
    4.9840  -19.4787   16.9553 O   0  0  0  0  0  0  0  0  0  0  0  0
    5.5747  -18.8670   18.0523 C   0  0  0  0  0  0  0  0  0  0  0  0
    6.1085  -17.5951   17.9994 C   0  0  0  0  0  0  0  0  0  0  0  0
    6.6965  -16.9845   19.0872 C   0  0  0  0  0  0  0  0  0  0  0  0
    6.7719  -17.6524   20.3094 C   0  0  0  0  0  0  0  0  0  0  0  0
    7.3917  -17.0417   21.4905 C   0  0  0  0  0  0  0  0  0  0  0  0
    7.7279  -15.5808   21.3305 C   0  0  2  0  0  0  0  0  0  0  0  0
    8.6617  -15.4318   20.2408 N   0  0  0  0  0  0  0  0  0  0  0  0
    8.3080  -15.1330   22.6385 C   0  0  0  0  0  0  0  0  0  0  0  0
    9.5630  -15.0470   22.7232 O   0  0  0  0  0  0  0  0  0  0  0  0
    6.2410  -18.9171   20.3621 C   0  0  0  0  0  0  0  0  0  0  0  0
    5.6529  -19.5282   19.2741 C   0  0  0  0  0  0  0  0  0  0  0  0
    5.2590  -11.7832   25.9774 C   0  0  0  0  0  0  0  0  0  0  0  0
    6.4234  -12.3888   25.2499 C   0  0  0  0  0  0  0  0  0  0  0  0
    6.9950  -13.6252   25.8032 C   0  0  2  0  0  0  0  0  0  0  0  0
    7.6058  -13.2823   27.1785 C   0  0  0  0  0  0  0  0  0  0  0  0
    7.9300  -14.4274   24.9914 C   0  0  2  0  0  0  0  0  0  0  0  0
    7.4416  -14.8278   23.7141 N   0  0  0  0  0  0  0  0  0  0  0  0
    8.4732  -15.5943   25.7128 C   0  0  0  0  0  0  0  0  0  0  0  0
    7.6542  -16.5327   26.0269 O   0  0  0  0  0  0  0  0  0  0  0  0
   14.8179  -20.4568   23.7218 N   0  0  0  0  0  0  0  0  0  0  0  0
   14.5044  -20.8905   25.0238 C   0  0  0  0  0  0  0  0  0  0  0  0
   15.3570  -21.5765   25.6891 N   0  0  0  0  0  0  0  0  0  0  0  0
   13.2498  -20.5698   25.6005 N   0  0  0  0  0  0  0  0  0  0  0  0
   12.5566  -19.3956   25.0824 C   0  0  0  0  0  0  0  0  0  0  0  0
   12.3135  -18.4930   26.2509 C   0  0  0  0  0  0  0  0  0  0  0  0
   11.6516  -17.2322   25.7899 C   0  0  0  0  0  0  0  0  0  0  0  0
   10.2968  -17.0923   26.4496 C   0  0  2  0  0  0  0  0  0  0  0  0
    9.8248  -15.7447   26.0741 N   0  0  0  0  0  0  0  0  0  0  0  0
   10.4826  -17.1789   27.9141 C   0  0  0  0  0  0  0  0  0  0  0  0
   10.6282  -18.4418   28.4825 O   0  0  0  0  0  0  0  0  0  0  0  0
   10.5226  -16.2169   28.7054 O   0  0  0  0  0  0  0  0  0  0  0  0
  2  3  2  0
  2  1  1  0
  4  3  1  0
  5  4  2  0
  6  5  1  0
  7  6  1  0
  7  8  1  6
  9  7  1  0
  9 10  2  0
 11  5  1  0
 11 12  2  0
 12  2  1  0
 13 14  1  0
 14 15  1  0
 15 17  1  0
 15 16  1  1
 17 18  1  6
 18  9  1  0
 19 17  1  0
 19 20  2  0
 21 22  1  0
 22 24  1  0
 23 22  2  0
 24 25  1  0
 26 25  1  0
 27 26  1  0
 28 27  1  6
 29 28  1  0
 29 19  1  0
 30 28  1  0
 31 30  1  0
 32 30  2  0
M  END
$$$$
