YIR.pdb
     RDKit          3D

 32 32  0  0  1  0  0  0  0  0999 V2000
   11.1359  -15.8759   32.0204 O   0  0  0  0  0  0  0  0  0  0  0  0
   10.5896  -16.4162   30.8645 C   0  0  0  0  0  0  0  0  0  0  0  0
   10.2028  -17.7380   30.7696 C   0  0  0  0  0  0  0  0  0  0  0  0
    9.6601  -18.2782   29.6226 C   0  0  0  0  0  0  0  0  0  0  0  0
    9.4800  -17.4830   28.4909 C   0  0  0  0  0  0  0  0  0  0  0  0
    8.9098  -18.0177   27.2496 C   0  0  0  0  0  0  0  0  0  0  0  0
    7.4366  -17.7489   27.0761 C   0  0  2  0  0  0  0  0  0  0  0  0
    6.7396  -19.0081   26.9737 N   0  0  0  0  0  0  0  0  0  0  0  0
    7.2992  -16.9230   25.8324 C   0  0  0  0  0  0  0  0  0  0  0  0
    6.7773  -17.4683   24.8226 O   0  0  0  0  0  0  0  0  0  0  0  0
    9.8645  -16.1687   28.5854 C   0  0  0  0  0  0  0  0  0  0  0  0
   10.4075  -15.6281   29.7325 C   0  0  0  0  0  0  0  0  0  0  0  0
    6.7875  -11.7128   26.5351 C   0  0  0  0  0  0  0  0  0  0  0  0
    6.5426  -12.7875   25.5168 C   0  0  0  0  0  0  0  0  0  0  0  0
    7.7167  -13.3469   24.8312 C   0  0  2  0  0  0  0  0  0  0  0  0
    7.8739  -12.5998   23.4899 C   0  0  0  0  0  0  0  0  0  0  0  0
    7.8294  -14.8059   24.6434 C   0  0  2  0  0  0  0  0  0  0  0  0
    7.7525  -15.5832   25.8352 N   0  0  0  0  0  0  0  0  0  0  0  0
    9.0142  -15.2017   23.8581 C   0  0  0  0  0  0  0  0  0  0  0  0
   10.0601  -15.5713   24.5058 O   0  0  0  0  0  0  0  0  0  0  0  0
    8.7526  -13.0221   17.8226 N   0  0  0  0  0  0  0  0  0  0  0  0
    7.5683  -13.7828   17.8270 C   0  0  0  0  0  0  0  0  0  0  0  0
    6.4453  -13.2143   17.5904 N   0  0  0  0  0  0  0  0  0  0  0  0
    7.6147  -15.1747   18.0913 N   0  0  0  0  0  0  0  0  0  0  0  0
    8.9318  -15.7823   18.2453 C   0  0  0  0  0  0  0  0  0  0  0  0
    9.0427  -16.2048   19.6765 C   0  0  0  0  0  0  0  0  0  0  0  0
   10.1408  -15.4412   20.3481 C   0  0  0  0  0  0  0  0  0  0  0  0
   10.2309  -15.8441   21.8040 C   0  0  2  0  0  0  0  0  0  0  0  0
    9.0699  -15.2025   22.4521 N   0  0  0  0  0  0  0  0  0  0  0  0
   11.4900  -15.3016   22.3586 C   0  0  0  0  0  0  0  0  0  0  0  0
   12.6232  -16.1099   22.3236 O   0  0  0  0  0  0  0  0  0  0  0  0
   11.6410  -14.1723   22.8637 O   0  0  0  0  0  0  0  0  0  0  0  0
  2  3  2  0
  2  1  1  0
  4  3  1  0
  5  4  2  0
  6  5  1  0
  7  6  1  0
  7  8  1  6
  9  7  1  0
  9 10  2  0
 11  5  1  0
 11 12  2  0
 12  2  1  0
 13 14  1  0
 14 15  1  0
 15 17  1  0
 15 16  1  6
 17 18  1  1
 18  9  1  0
 19 17  1  0
 19 20  2  0
 21 22  1  0
 22 24  1  0
 23 22  2  0
 24 25  1  0
 26 25  1  0
 27 26  1  0
 28 27  1  6
 29 28  1  0
 29 19  1  0
 30 28  1  0
 31 30  1  0
 32 30  2  0
M  END
$$$$
