YIR.pdb
     RDKit          3D

 32 32  0  0  1  0  0  0  0  0999 V2000
   10.9844  -14.5312   30.7613 O   0  0  0  0  0  0  0  0  0  0  0  0
   10.2353  -14.7503   29.6135 C   0  0  0  0  0  0  0  0  0  0  0  0
    9.8016  -16.0047   29.2342 C   0  0  0  0  0  0  0  0  0  0  0  0
    9.0575  -16.2261   28.0943 C   0  0  0  0  0  0  0  0  0  0  0  0
    8.7103  -15.1588   27.2661 C   0  0  0  0  0  0  0  0  0  0  0  0
    7.9233  -15.3499   26.0429 C   0  0  0  0  0  0  0  0  0  0  0  0
    8.5076  -16.3498   25.0778 C   0  0  2  0  0  0  0  0  0  0  0  0
    9.9295  -16.1270   24.9762 N   0  0  0  0  0  0  0  0  0  0  0  0
    7.8063  -16.1373   23.7698 C   0  0  0  0  0  0  0  0  0  0  0  0
    6.5460  -16.1684   23.7698 O   0  0  0  0  0  0  0  0  0  0  0  0
    9.1415  -13.9115   27.6435 C   0  0  0  0  0  0  0  0  0  0  0  0
    9.8859  -13.6898   28.7835 C   0  0  0  0  0  0  0  0  0  0  0  0
    8.0577  -11.8156   21.4948 C   0  0  0  0  0  0  0  0  0  0  0  0
    7.5017  -13.1923   21.7120 C   0  0  0  0  0  0  0  0  0  0  0  0
    8.0250  -14.2725   20.8628 C   0  0  2  0  0  0  0  0  0  0  0  0
    7.3760  -14.1272   19.4700 C   0  0  0  0  0  0  0  0  0  0  0  0
    7.9652  -15.6693   21.3341 C   0  0  2  0  0  0  0  0  0  0  0  0
    8.5705  -15.9132   22.6008 N   0  0  0  0  0  0  0  0  0  0  0  0
    8.4634  -16.6403   20.3410 C   0  0  0  0  0  0  0  0  0  0  0  0
    9.7269  -16.6593   20.1106 O   0  0  0  0  0  0  0  0  0  0  0  0
    2.4249  -19.5690   20.3312 N   0  0  0  0  0  0  0  0  0  0  0  0
    3.3761  -20.4656   19.8089 C   0  0  0  0  0  0  0  0  0  0  0  0
    3.0071  -21.6264   19.4131 N   0  0  0  0  0  0  0  0  0  0  0  0
    4.7395  -20.0879   19.7190 N   0  0  0  0  0  0  0  0  0  0  0  0
    5.6779  -21.0862   19.2186 C   0  0  0  0  0  0  0  0  0  0  0  0
    7.0416  -20.4781   19.3176 C   0  0  0  0  0  0  0  0  0  0  0  0
    7.2078  -19.4288   18.2634 C   0  0  0  0  0  0  0  0  0  0  0  0
    8.2931  -18.4567   18.6726 C   0  0  2  0  0  0  0  0  0  0  0  0
    7.6468  -17.5437   19.6361 N   0  0  0  0  0  0  0  0  0  0  0  0
    8.7241  -17.7098   17.4712 C   0  0  0  0  0  0  0  0  0  0  0  0
   10.0263  -17.8979   17.0150 O   0  0  0  0  0  0  0  0  0  0  0  0
    8.0257  -16.9139   16.8140 O   0  0  0  0  0  0  0  0  0  0  0  0
  2  3  2  0
  2  1  1  0
  4  3  1  0
  5  4  2  0
  6  5  1  0
  7  6  1  0
  7  8  1  6
  9  7  1  0
  9 10  2  0
 11  5  1  0
 11 12  2  0
 12  2  1  0
 13 14  1  0
 14 15  1  0
 15 17  1  0
 15 16  1  6
 17 18  1  1
 18  9  1  0
 19 17  1  0
 19 20  2  0
 21 22  1  0
 22 24  1  0
 23 22  2  0
 24 25  1  0
 26 25  1  0
 27 26  1  0
 28 27  1  6
 29 28  1  0
 29 19  1  0
 30 28  1  0
 31 30  1  0
 32 30  2  0
M  END
$$$$
