YIR.pdb
     RDKit          3D

 32 32  0  0  1  0  0  0  0  0999 V2000
    5.3941   -9.6177   27.7889 O   0  0  0  0  0  0  0  0  0  0  0  0
    5.9696  -10.7756   27.2842 C   0  0  0  0  0  0  0  0  0  0  0  0
    7.0279  -11.4124   27.9007 C   0  0  0  0  0  0  0  0  0  0  0  0
    7.6022  -12.5627   27.4019 C   0  0  0  0  0  0  0  0  0  0  0  0
    7.1176  -13.1345   26.2256 C   0  0  0  0  0  0  0  0  0  0  0  0
    7.7010  -14.3552   25.6585 C   0  0  0  0  0  0  0  0  0  0  0  0
    6.7252  -15.2133   24.8942 C   0  0  2  0  0  0  0  0  0  0  0  0
    6.1304  -16.1662   25.7997 N   0  0  0  0  0  0  0  0  0  0  0  0
    7.5097  -15.8810   23.8048 C   0  0  0  0  0  0  0  0  0  0  0  0
    7.7654  -17.1086   23.9360 O   0  0  0  0  0  0  0  0  0  0  0  0
    6.0651  -12.5014   25.6127 C   0  0  0  0  0  0  0  0  0  0  0  0
    5.4905  -11.3507   26.1113 C   0  0  0  0  0  0  0  0  0  0  0  0
    7.7620  -12.7711   19.4397 C   0  0  0  0  0  0  0  0  0  0  0  0
    7.6231  -14.2035   19.8647 C   0  0  0  0  0  0  0  0  0  0  0  0
    8.8163  -14.8620   20.4163 C   0  0  2  0  0  0  0  0  0  0  0  0
    9.4880  -15.6473   19.2699 C   0  0  0  0  0  0  0  0  0  0  0  0
    8.7002  -15.6906   21.6314 C   0  0  2  0  0  0  0  0  0  0  0  0
    7.9287  -15.1229   22.6866 N   0  0  0  0  0  0  0  0  0  0  0  0
   10.0033  -16.1498   22.1493 C   0  0  0  0  0  0  0  0  0  0  0  0
   10.7577  -15.2785   22.7165 O   0  0  0  0  0  0  0  0  0  0  0  0
   12.1228  -22.0301   27.2257 N   0  0  0  0  0  0  0  0  0  0  0  0
   10.8971  -21.4051   26.9287 C   0  0  0  0  0  0  0  0  0  0  0  0
    9.8124  -22.0857   26.9547 N   0  0  0  0  0  0  0  0  0  0  0  0
   10.8592  -20.0262   26.6021 N   0  0  0  0  0  0  0  0  0  0  0  0
   10.4201  -19.6696   25.2577 C   0  0  0  0  0  0  0  0  0  0  0  0
   11.4146  -18.6833   24.7310 C   0  0  0  0  0  0  0  0  0  0  0  0
   11.7636  -19.0204   23.3151 C   0  0  0  0  0  0  0  0  0  0  0  0
   11.8534  -17.7534   22.4925 C   0  0  2  0  0  0  0  0  0  0  0  0
   10.4682  -17.4751   22.0642 N   0  0  0  0  0  0  0  0  0  0  0  0
   12.7075  -18.0236   21.3158 C   0  0  0  0  0  0  0  0  0  0  0  0
   12.0838  -18.2437   20.0904 O   0  0  0  0  0  0  0  0  0  0  0  0
   13.9527  -18.0753   21.3111 O   0  0  0  0  0  0  0  0  0  0  0  0
  2  3  2  0
  2  1  1  0
  4  3  1  0
  5  4  2  0
  6  5  1  0
  7  6  1  0
  7  8  1  1
  9  7  1  0
  9 10  2  0
 11  5  1  0
 11 12  2  0
 12  2  1  0
 13 14  1  0
 14 15  1  0
 15 17  1  0
 15 16  1  6
 17 18  1  1
 18  9  1  0
 19 17  1  0
 19 20  2  0
 21 22  1  0
 22 24  1  0
 23 22  2  0
 24 25  1  0
 26 25  1  0
 27 26  1  0
 28 27  1  1
 29 28  1  0
 29 19  1  0
 30 28  1  0
 31 30  1  0
 32 30  2  0
M  END
$$$$
