YIR.pdb
     RDKit          3D

 32 32  0  0  1  0  0  0  0  0999 V2000
   11.5504  -17.3462   33.1724 O   0  0  0  0  0  0  0  0  0  0  0  0
   11.0544  -17.4395   31.8794 C   0  0  0  0  0  0  0  0  0  0  0  0
   10.9285  -18.6423   31.2138 C   0  0  0  0  0  0  0  0  0  0  0  0
   10.4364  -18.7387   29.9291 C   0  0  0  0  0  0  0  0  0  0  0  0
   10.0392  -17.5910   29.2431 C   0  0  0  0  0  0  0  0  0  0  0  0
    9.5136  -17.6476   27.8748 C   0  0  0  0  0  0  0  0  0  0  0  0
    8.0099  -17.5914   27.7838 C   0  0  2  0  0  0  0  0  0  0  0  0
    7.4813  -18.9254   27.9342 N   0  0  0  0  0  0  0  0  0  0  0  0
    7.6874  -17.0025   26.4432 C   0  0  0  0  0  0  0  0  0  0  0  0
    7.2425  -17.7787   25.5549 O   0  0  0  0  0  0  0  0  0  0  0  0
   10.1642  -16.3949   29.9051 C   0  0  0  0  0  0  0  0  0  0  0  0
   10.6565  -16.2983   31.1901 C   0  0  0  0  0  0  0  0  0  0  0  0
    6.5129  -11.9444   26.7124 C   0  0  0  0  0  0  0  0  0  0  0  0
    6.2602  -13.0397   25.7184 C   0  0  0  0  0  0  0  0  0  0  0  0
    7.4199  -13.5610   24.9802 C   0  0  2  0  0  0  0  0  0  0  0  0
    7.3634  -12.9798   23.5515 C   0  0  0  0  0  0  0  0  0  0  0  0
    7.6789  -15.0132   24.9533 C   0  0  2  0  0  0  0  0  0  0  0  0
    7.8903  -15.6197   26.2253 N   0  0  0  0  0  0  0  0  0  0  0  0
    8.7616  -15.3941   24.0261 C   0  0  0  0  0  0  0  0  0  0  0  0
    9.9660  -15.3553   24.4710 O   0  0  0  0  0  0  0  0  0  0  0  0
   10.9172  -18.3498   15.1747 N   0  0  0  0  0  0  0  0  0  0  0  0
   10.0418  -18.4847   16.2686 C   0  0  0  0  0  0  0  0  0  0  0  0
    8.9204  -19.0846   16.1167 N   0  0  0  0  0  0  0  0  0  0  0  0
   10.3973  -17.9602   17.5367 N   0  0  0  0  0  0  0  0  0  0  0  0
    9.4699  -18.1901   18.6389 C   0  0  0  0  0  0  0  0  0  0  0  0
   10.1183  -17.6313   19.8663 C   0  0  0  0  0  0  0  0  0  0  0  0
    9.1426  -16.7751   20.6113 C   0  0  0  0  0  0  0  0  0  0  0  0
    9.6616  -16.4990   22.0058 C   0  0  2  0  0  0  0  0  0  0  0  0
    8.5593  -15.7976   22.6934 N   0  0  0  0  0  0  0  0  0  0  0  0
   10.8406  -15.6130   21.8952 C   0  0  0  0  0  0  0  0  0  0  0  0
   12.1047  -16.1914   21.9759 O   0  0  0  0  0  0  0  0  0  0  0  0
   10.8155  -14.3774   21.7340 O   0  0  0  0  0  0  0  0  0  0  0  0
  2  3  2  0
  2  1  1  0
  4  3  1  0
  5  4  2  0
  6  5  1  0
  7  6  1  0
  7  8  1  6
  9  7  1  0
  9 10  2  0
 11  5  1  0
 11 12  2  0
 12  2  1  0
 13 14  1  0
 14 15  1  0
 15 17  1  0
 15 16  1  6
 17 18  1  1
 18  9  1  0
 19 17  1  0
 19 20  2  0
 21 22  1  0
 22 24  1  0
 23 22  2  0
 24 25  1  0
 26 25  1  0
 27 26  1  0
 28 27  1  6
 29 28  1  0
 29 19  1  0
 30 28  1  0
 31 30  1  0
 32 30  2  0
M  END
$$$$
