YIR.pdb
     RDKit          3D

 32 32  0  0  1  0  0  0  0  0999 V2000
    6.1541  -16.1640   15.1066 O   0  0  0  0  0  0  0  0  0  0  0  0
    6.6142  -15.9686   16.4014 C   0  0  0  0  0  0  0  0  0  0  0  0
    7.7397  -15.2227   16.6885 C   0  0  0  0  0  0  0  0  0  0  0  0
    8.1999  -15.0269   17.9737 C   0  0  0  0  0  0  0  0  0  0  0  0
    7.5227  -15.5924   19.0541 C   0  0  0  0  0  0  0  0  0  0  0  0
    7.9793  -15.4123   20.4364 C   0  0  0  0  0  0  0  0  0  0  0  0
    7.9608  -13.9831   20.9157 C   0  0  2  0  0  0  0  0  0  0  0  0
    8.8306  -13.1960   20.0756 N   0  0  0  0  0  0  0  0  0  0  0  0
    8.4218  -14.0076   22.3422 C   0  0  0  0  0  0  0  0  0  0  0  0
    9.6481  -13.8168   22.5642 O   0  0  0  0  0  0  0  0  0  0  0  0
    6.4034  -16.3340   18.7686 C   0  0  0  0  0  0  0  0  0  0  0  0
    5.9430  -16.5302   17.4831 C   0  0  0  0  0  0  0  0  0  0  0  0
    6.0730  -11.0662   26.0143 C   0  0  0  0  0  0  0  0  0  0  0  0
    7.0287  -11.9208   25.2345 C   0  0  0  0  0  0  0  0  0  0  0  0
    7.1421  -13.3338   25.6246 C   0  0  2  0  0  0  0  0  0  0  0  0
    7.7035  -13.3777   27.0616 C   0  0  0  0  0  0  0  0  0  0  0  0
    7.8546  -14.2814   24.7465 C   0  0  2  0  0  0  0  0  0  0  0  0
    7.4805  -14.2403   23.3721 N   0  0  0  0  0  0  0  0  0  0  0  0
    7.8168  -15.6719   25.2387 C   0  0  0  0  0  0  0  0  0  0  0  0
    6.8618  -16.4236   24.8229 O   0  0  0  0  0  0  0  0  0  0  0  0
   13.1539  -18.1262   20.3948 N   0  0  0  0  0  0  0  0  0  0  0  0
   13.2390  -19.2313   21.2625 C   0  0  0  0  0  0  0  0  0  0  0  0
   13.9423  -20.2489   20.9306 N   0  0  0  0  0  0  0  0  0  0  0  0
   12.5503  -19.2211   22.5015 N   0  0  0  0  0  0  0  0  0  0  0  0
   11.6977  -18.0716   22.7827 C   0  0  0  0  0  0  0  0  0  0  0  0
   11.0746  -18.3189   24.1206 C   0  0  0  0  0  0  0  0  0  0  0  0
   10.2308  -17.1466   24.5127 C   0  0  0  0  0  0  0  0  0  0  0  0
    9.4174  -17.4875   25.7425 C   0  0  2  0  0  0  0  0  0  0  0  0
    8.7570  -16.2245   26.1278 N   0  0  0  0  0  0  0  0  0  0  0  0
   10.3466  -17.9236   26.8072 C   0  0  0  0  0  0  0  0  0  0  0  0
   11.2331  -16.9845   27.3281 O   0  0  0  0  0  0  0  0  0  0  0  0
   10.4171  -19.0688   27.2939 O   0  0  0  0  0  0  0  0  0  0  0  0
  2  3  2  0
  2  1  1  0
  4  3  1  0
  5  4  2  0
  6  5  1  0
  7  6  1  0
  7  8  1  6
  9  7  1  0
  9 10  2  0
 11  5  1  0
 11 12  2  0
 12  2  1  0
 13 14  1  0
 14 15  1  0
 15 17  1  0
 15 16  1  1
 17 18  1  6
 18  9  1  0
 19 17  1  0
 19 20  2  0
 21 22  1  0
 22 24  1  0
 23 22  2  0
 24 25  1  0
 26 25  1  0
 27 26  1  0
 28 27  1  6
 29 28  1  0
 29 19  1  0
 30 28  1  0
 31 30  1  0
 32 30  2  0
M  END
$$$$
