YIR.pdb
     RDKit          3D

 32 32  0  0  1  0  0  0  0  0999 V2000
    6.7910  -19.0453   16.2577 O   0  0  0  0  0  0  0  0  0  0  0  0
    7.1280  -18.5050   17.4910 C   0  0  0  0  0  0  0  0  0  0  0  0
    8.3678  -18.6853   18.0706 C   0  0  0  0  0  0  0  0  0  0  0  0
    8.7059  -18.1503   19.2959 C   0  0  0  0  0  0  0  0  0  0  0  0
    7.7791  -17.3886   20.0075 C   0  0  0  0  0  0  0  0  0  0  0  0
    8.0957  -16.8040   21.3152 C   0  0  0  0  0  0  0  0  0  0  0  0
    8.5060  -15.3542   21.2649 C   0  0  2  0  0  0  0  0  0  0  0  0
    9.6217  -15.2143   20.3608 N   0  0  0  0  0  0  0  0  0  0  0  0
    8.8623  -14.9649   22.6682 C   0  0  0  0  0  0  0  0  0  0  0  0
   10.0769  -15.0233   23.0012 O   0  0  0  0  0  0  0  0  0  0  0  0
    6.5463  -17.2091   19.4310 C   0  0  0  0  0  0  0  0  0  0  0  0
    6.2078  -17.7443   18.2055 C   0  0  0  0  0  0  0  0  0  0  0  0
    6.7200  -11.5182   27.3242 C   0  0  0  0  0  0  0  0  0  0  0  0
    7.7703  -12.3685   26.6718 C   0  0  0  0  0  0  0  0  0  0  0  0
    7.4628  -12.9192   25.3437 C   0  0  2  0  0  0  0  0  0  0  0  0
    5.9273  -13.0187   25.2238 C   0  0  0  0  0  0  0  0  0  0  0  0
    8.1127  -14.1670   24.8995 C   0  0  2  0  0  0  0  0  0  0  0  0
    7.8403  -14.5527   23.5550 N   0  0  0  0  0  0  0  0  0  0  0  0
    7.8730  -15.3036   25.8093 C   0  0  0  0  0  0  0  0  0  0  0  0
    6.7585  -15.9319   25.6944 O   0  0  0  0  0  0  0  0  0  0  0  0
   12.7111  -20.0565   22.1212 N   0  0  0  0  0  0  0  0  0  0  0  0
   12.0756  -20.9787   22.9738 C   0  0  0  0  0  0  0  0  0  0  0  0
   12.2412  -22.2353   22.7896 N   0  0  0  0  0  0  0  0  0  0  0  0
   11.2544  -20.5217   24.0351 N   0  0  0  0  0  0  0  0  0  0  0  0
   11.0225  -19.0847   24.1295 C   0  0  0  0  0  0  0  0  0  0  0  0
   10.2352  -18.8604   25.3822 C   0  0  0  0  0  0  0  0  0  0  0  0
    9.8974  -17.4086   25.5169 C   0  0  0  0  0  0  0  0  0  0  0  0
    9.1442  -17.1740   26.8083 C   0  0  2  0  0  0  0  0  0  0  0  0
    8.7841  -15.7423   26.7877 N   0  0  0  0  0  0  0  0  0  0  0  0
   10.0585  -17.4546   27.9363 C   0  0  0  0  0  0  0  0  0  0  0  0
   10.0804  -18.7463   28.4561 O   0  0  0  0  0  0  0  0  0  0  0  0
   10.8255  -16.6355   28.4785 O   0  0  0  0  0  0  0  0  0  0  0  0
  2  3  2  0
  2  1  1  0
  4  3  1  0
  5  4  2  0
  6  5  1  0
  7  6  1  0
  7  8  1  6
  9  7  1  0
  9 10  2  0
 11  5  1  0
 11 12  2  0
 12  2  1  0
 13 14  1  0
 14 15  1  0
 15 17  1  0
 15 16  1  1
 17 18  1  6
 18  9  1  0
 19 17  1  0
 19 20  2  0
 21 22  1  0
 22 24  1  0
 23 22  2  0
 24 25  1  0
 26 25  1  0
 27 26  1  0
 28 27  1  6
 29 28  1  0
 29 19  1  0
 30 28  1  0
 31 30  1  0
 32 30  2  0
M  END
$$$$
