YIR.pdb
     RDKit          3D

 32 32  0  0  1  0  0  0  0  0999 V2000
    7.4815  -14.0536   15.0244 O   0  0  0  0  0  0  0  0  0  0  0  0
    7.6724  -13.9537   16.3956 C   0  0  0  0  0  0  0  0  0  0  0  0
    7.3069  -12.8370   17.1201 C   0  0  0  0  0  0  0  0  0  0  0  0
    7.4954  -12.7342   18.4824 C   0  0  0  0  0  0  0  0  0  0  0  0
    8.0777  -13.7855   19.1903 C   0  0  0  0  0  0  0  0  0  0  0  0
    8.2997  -13.7167   20.6387 C   0  0  0  0  0  0  0  0  0  0  0  0
    8.2268  -15.0479   21.3426 C   0  0  2  0  0  0  0  0  0  0  0  0
    6.8651  -15.5233   21.3056 N   0  0  0  0  0  0  0  0  0  0  0  0
    8.7071  -14.8144   22.7435 C   0  0  0  0  0  0  0  0  0  0  0  0
    9.9391  -14.6067   22.9128 O   0  0  0  0  0  0  0  0  0  0  0  0
    8.4409  -14.8960   18.4699 C   0  0  0  0  0  0  0  0  0  0  0  0
    8.2526  -14.9991   17.1072 C   0  0  0  0  0  0  0  0  0  0  0  0
    5.5098  -11.9463   26.1696 C   0  0  0  0  0  0  0  0  0  0  0  0
    6.6695  -12.5574   25.4393 C   0  0  0  0  0  0  0  0  0  0  0  0
    7.2092  -13.8192   25.9666 C   0  0  2  0  0  0  0  0  0  0  0  0
    7.7731  -13.5335   27.3746 C   0  0  0  0  0  0  0  0  0  0  0  0
    8.1653  -14.6012   25.1597 C   0  0  2  0  0  0  0  0  0  0  0  0
    7.7768  -14.8350   23.8088 N   0  0  0  0  0  0  0  0  0  0  0  0
    8.5631  -15.8709   25.7976 C   0  0  0  0  0  0  0  0  0  0  0  0
    7.6271  -16.6709   26.1635 O   0  0  0  0  0  0  0  0  0  0  0  0
   14.0863  -21.6034   27.4911 N   0  0  0  0  0  0  0  0  0  0  0  0
   13.9910  -21.6973   26.0898 C   0  0  0  0  0  0  0  0  0  0  0  0
   14.3998  -22.7542   25.4930 N   0  0  0  0  0  0  0  0  0  0  0  0
   13.4436  -20.6274   25.3381 N   0  0  0  0  0  0  0  0  0  0  0  0
   12.0157  -20.3688   25.4857 C   0  0  0  0  0  0  0  0  0  0  0  0
   11.8758  -19.3546   26.5771 C   0  0  0  0  0  0  0  0  0  0  0  0
   11.4685  -18.0365   25.9967 C   0  0  0  0  0  0  0  0  0  0  0  0
   10.1400  -17.6067   26.5803 C   0  0  2  0  0  0  0  0  0  0  0  0
    9.8957  -16.2599   26.0269 N   0  0  0  0  0  0  0  0  0  0  0  0
   10.2799  -17.5371   28.0509 C   0  0  0  0  0  0  0  0  0  0  0  0
   10.1075  -18.7098   28.7816 O   0  0  0  0  0  0  0  0  0  0  0  0
   10.5413  -16.5147   28.7141 O   0  0  0  0  0  0  0  0  0  0  0  0
  2  3  2  0
  2  1  1  0
  4  3  1  0
  5  4  2  0
  6  5  1  0
  7  6  1  0
  7  8  1  1
  9  7  1  0
  9 10  2  0
 11  5  1  0
 11 12  2  0
 12  2  1  0
 13 14  1  0
 14 15  1  0
 15 17  1  0
 15 16  1  1
 17 18  1  6
 18  9  1  0
 19 17  1  0
 19 20  2  0
 21 22  1  0
 22 24  1  0
 23 22  2  0
 24 25  1  0
 26 25  1  0
 27 26  1  0
 28 27  1  6
 29 28  1  0
 29 19  1  0
 30 28  1  0
 31 30  1  0
 32 30  2  0
M  END
$$$$
