YIR.pdb
     RDKit          3D

 32 32  0  0  1  0  0  0  0  0999 V2000
    9.7555  -14.3474   30.6932 O   0  0  0  0  0  0  0  0  0  0  0  0
    9.7621  -14.5165   29.3156 C   0  0  0  0  0  0  0  0  0  0  0  0
    9.6846  -13.4573   28.4337 C   0  0  0  0  0  0  0  0  0  0  0  0
    9.6906  -13.6217   27.0644 C   0  0  0  0  0  0  0  0  0  0  0  0
    9.7776  -14.8998   26.5127 C   0  0  0  0  0  0  0  0  0  0  0  0
    9.7837  -15.1201   25.0624 C   0  0  0  0  0  0  0  0  0  0  0  0
    8.4529  -15.5403   24.4921 C   0  0  2  0  0  0  0  0  0  0  0  0
    8.0533  -16.7847   25.1034 N   0  0  0  0  0  0  0  0  0  0  0  0
    8.6486  -15.6740   23.0116 C   0  0  0  0  0  0  0  0  0  0  0  0
    8.5316  -16.8236   22.5074 O   0  0  0  0  0  0  0  0  0  0  0  0
    9.8548  -15.9530   27.3896 C   0  0  0  0  0  0  0  0  0  0  0  0
    9.8488  -15.7889   28.7593 C   0  0  0  0  0  0  0  0  0  0  0  0
    7.8003  -11.0344   20.7025 C   0  0  0  0  0  0  0  0  0  0  0  0
    7.6159  -12.5029   20.4548 C   0  0  0  0  0  0  0  0  0  0  0  0
    8.8163  -13.2883   20.1326 C   0  0  2  0  0  0  0  0  0  0  0  0
    8.8592  -13.4679   18.6003 C   0  0  0  0  0  0  0  0  0  0  0  0
    9.0624  -14.5677   20.8249 C   0  0  2  0  0  0  0  0  0  0  0  0
    8.9529  -14.5249   22.2450 N   0  0  0  0  0  0  0  0  0  0  0  0
   10.3352  -15.2045   20.4356 C   0  0  0  0  0  0  0  0  0  0  0  0
   11.3530  -15.0113   21.1950 O   0  0  0  0  0  0  0  0  0  0  0  0
   13.4096  -18.5541   12.9126 N   0  0  0  0  0  0  0  0  0  0  0  0
   14.4433  -18.7469   13.8484 C   0  0  0  0  0  0  0  0  0  0  0  0
   15.5591  -19.2493   13.4703 N   0  0  0  0  0  0  0  0  0  0  0  0
   14.2538  -18.3864   15.2061 N   0  0  0  0  0  0  0  0  0  0  0  0
   12.9601  -17.8215   15.5733 C   0  0  0  0  0  0  0  0  0  0  0  0
   13.0669  -17.4056   17.0068 C   0  0  0  0  0  0  0  0  0  0  0  0
   11.7874  -16.7657   17.4468 C   0  0  0  0  0  0  0  0  0  0  0  0
   11.8764  -16.3928   18.9108 C   0  0  2  0  0  0  0  0  0  0  0  0
   10.5031  -16.0079   19.2926 N   0  0  0  0  0  0  0  0  0  0  0  0
   12.7863  -15.2343   19.0401 C   0  0  0  0  0  0  0  0  0  0  0  0
   14.0226  -15.4369   19.6481 O   0  0  0  0  0  0  0  0  0  0  0  0
   12.5531  -14.0730   18.6523 O   0  0  0  0  0  0  0  0  0  0  0  0
  2  3  2  0
  2  1  1  0
  4  3  1  0
  5  4  2  0
  6  5  1  0
  7  6  1  0
  7  8  1  1
  9  7  1  0
  9 10  2  0
 11  5  1  0
 11 12  2  0
 12  2  1  0
 13 14  1  0
 14 15  1  0
 15 17  1  0
 15 16  1  6
 17 18  1  1
 18  9  1  0
 19 17  1  0
 19 20  2  0
 21 22  1  0
 22 24  1  0
 23 22  2  0
 24 25  1  0
 26 25  1  0
 27 26  1  0
 28 27  1  6
 29 28  1  0
 29 19  1  0
 30 28  1  0
 31 30  1  0
 32 30  2  0
M  END
$$$$
