YIR.pdb
     RDKit          3D

 32 32  0  0  1  0  0  0  0  0999 V2000
    6.6385  -13.4752   15.5131 O   0  0  0  0  0  0  0  0  0  0  0  0
    6.8234  -13.8383   16.8399 C   0  0  0  0  0  0  0  0  0  0  0  0
    6.6748  -15.1363   17.2856 C   0  0  0  0  0  0  0  0  0  0  0  0
    6.8573  -15.5005   18.6032 C   0  0  0  0  0  0  0  0  0  0  0  0
    7.2079  -14.5412   19.5531 C   0  0  0  0  0  0  0  0  0  0  0  0
    7.4084  -14.8844   20.9652 C   0  0  0  0  0  0  0  0  0  0  0  0
    8.6886  -14.3533   21.5581 C   0  0  2  0  0  0  0  0  0  0  0  0
    9.7955  -14.7691   20.7313 N   0  0  0  0  0  0  0  0  0  0  0  0
    8.7777  -14.9125   22.9464 C   0  0  0  0  0  0  0  0  0  0  0  0
    9.6544  -15.7909   23.1683 O   0  0  0  0  0  0  0  0  0  0  0  0
    7.3559  -13.2505   19.1098 C   0  0  0  0  0  0  0  0  0  0  0  0
    7.1732  -12.8859   17.7920 C   0  0  0  0  0  0  0  0  0  0  0  0
    6.2792  -11.1471   26.2680 C   0  0  0  0  0  0  0  0  0  0  0  0
    7.3455  -11.9847   25.6252 C   0  0  0  0  0  0  0  0  0  0  0  0
    7.5027  -13.3640   26.1092 C   0  0  2  0  0  0  0  0  0  0  0  0
    8.0298  -13.2930   27.5580 C   0  0  0  0  0  0  0  0  0  0  0  0
    8.2719  -14.3375   25.3108 C   0  0  2  0  0  0  0  0  0  0  0  0
    7.8895  -14.4431   23.9421 N   0  0  0  0  0  0  0  0  0  0  0  0
    8.3279  -15.6782   25.9243 C   0  0  0  0  0  0  0  0  0  0  0  0
    7.2152  -16.2897   26.1188 O   0  0  0  0  0  0  0  0  0  0  0  0
   13.7681  -19.9961   22.6885 N   0  0  0  0  0  0  0  0  0  0  0  0
   12.6799  -19.3543   22.0678 C   0  0  0  0  0  0  0  0  0  0  0  0
   12.6402  -19.2594   20.7912 N   0  0  0  0  0  0  0  0  0  0  0  0
   11.6285  -18.8140   22.8503 N   0  0  0  0  0  0  0  0  0  0  0  0
   11.7040  -19.0051   24.2943 C   0  0  0  0  0  0  0  0  0  0  0  0
   10.5079  -18.3217   24.8788 C   0  0  0  0  0  0  0  0  0  0  0  0
   10.5075  -18.4825   26.3668 C   0  0  0  0  0  0  0  0  0  0  0  0
    9.4079  -17.6386   26.9744 C   0  0  2  0  0  0  0  0  0  0  0  0
    9.5169  -16.3270   26.3054 N   0  0  0  0  0  0  0  0  0  0  0  0
    9.6772  -17.4978   28.4218 C   0  0  0  0  0  0  0  0  0  0  0  0
    9.4268  -18.5931   29.2443 O   0  0  0  0  0  0  0  0  0  0  0  0
   10.1137  -16.4778   28.9896 O   0  0  0  0  0  0  0  0  0  0  0  0
  2  3  2  0
  2  1  1  0
  4  3  1  0
  5  4  2  0
  6  5  1  0
  7  6  1  0
  7  8  1  6
  9  7  1  0
  9 10  2  0
 11  5  1  0
 11 12  2  0
 12  2  1  0
 13 14  1  0
 14 15  1  0
 15 17  1  0
 15 16  1  1
 17 18  1  6
 18  9  1  0
 19 17  1  0
 19 20  2  0
 21 22  1  0
 22 24  1  0
 23 22  2  0
 24 25  1  0
 26 25  1  0
 27 26  1  0
 28 27  1  6
 29 28  1  0
 29 19  1  0
 30 28  1  0
 31 30  1  0
 32 30  2  0
M  END
$$$$
