YIR.pdb
     RDKit          3D

 32 32  0  0  1  0  0  0  0  0999 V2000
    3.6968  -20.2677   18.3333 O   0  0  0  0  0  0  0  0  0  0  0  0
    4.5071  -19.5446   19.1977 C   0  0  0  0  0  0  0  0  0  0  0  0
    5.8621  -19.7779   19.3204 C   0  0  0  0  0  0  0  0  0  0  0  0
    6.6700  -19.0617   20.1784 C   0  0  0  0  0  0  0  0  0  0  0  0
    6.1274  -18.0504   20.9712 C   0  0  0  0  0  0  0  0  0  0  0  0
    6.9496  -17.2667   21.8994 C   0  0  0  0  0  0  0  0  0  0  0  0
    6.8406  -15.7741   21.7178 C   0  0  2  0  0  0  0  0  0  0  0  0
    7.2946  -15.4292   20.3924 N   0  0  0  0  0  0  0  0  0  0  0  0
    7.6894  -15.1532   22.7864 C   0  0  0  0  0  0  0  0  0  0  0  0
    8.8952  -14.9112   22.5090 O   0  0  0  0  0  0  0  0  0  0  0  0
    4.7800  -17.8183   20.8489 C   0  0  0  0  0  0  0  0  0  0  0  0
    3.9716  -18.5347   19.9909 C   0  0  0  0  0  0  0  0  0  0  0  0
    5.4216  -11.6327   26.3506 C   0  0  0  0  0  0  0  0  0  0  0  0
    6.5182  -12.2391   25.5250 C   0  0  0  0  0  0  0  0  0  0  0  0
    7.1654  -13.4507   26.0491 C   0  0  2  0  0  0  0  0  0  0  0  0
    8.0622  -13.0265   27.2315 C   0  0  0  0  0  0  0  0  0  0  0  0
    7.8878  -14.3513   25.1305 C   0  0  2  0  0  0  0  0  0  0  0  0
    7.1174  -14.8657   24.0477 N   0  0  0  0  0  0  0  0  0  0  0  0
    8.5838  -15.4527   25.8231 C   0  0  0  0  0  0  0  0  0  0  0  0
    7.8611  -16.3801   26.3404 O   0  0  0  0  0  0  0  0  0  0  0  0
   16.1549  -18.8388   23.5616 N   0  0  0  0  0  0  0  0  0  0  0  0
   15.2469  -19.8741   23.8531 C   0  0  0  0  0  0  0  0  0  0  0  0
   15.4854  -21.0643   23.4444 N   0  0  0  0  0  0  0  0  0  0  0  0
   14.0711  -19.6042   24.5974 N   0  0  0  0  0  0  0  0  0  0  0  0
   13.8879  -18.2425   25.0871 C   0  0  0  0  0  0  0  0  0  0  0  0
   12.5684  -18.2160   25.7923 C   0  0  0  0  0  0  0  0  0  0  0  0
   11.8677  -16.9237   25.5107 C   0  0  0  0  0  0  0  0  0  0  0  0
   10.5571  -16.8747   26.2658 C   0  0  2  0  0  0  0  0  0  0  0  0
    9.9816  -15.5523   25.9497 N   0  0  0  0  0  0  0  0  0  0  0  0
   10.8509  -16.9715   27.7120 C   0  0  0  0  0  0  0  0  0  0  0  0
   11.2447  -18.2071   28.2192 O   0  0  0  0  0  0  0  0  0  0  0  0
   10.7798  -16.0406   28.5376 O   0  0  0  0  0  0  0  0  0  0  0  0
  2  3  2  0
  2  1  1  0
  4  3  1  0
  5  4  2  0
  6  5  1  0
  7  6  1  0
  7  8  1  6
  9  7  1  0
  9 10  2  0
 11  5  1  0
 11 12  2  0
 12  2  1  0
 13 14  1  0
 14 15  1  0
 15 17  1  0
 15 16  1  1
 17 18  1  6
 18  9  1  0
 19 17  1  0
 19 20  2  0
 21 22  1  0
 22 24  1  0
 23 22  2  0
 24 25  1  0
 26 25  1  0
 27 26  1  0
 28 27  1  6
 29 28  1  0
 29 19  1  0
 30 28  1  0
 31 30  1  0
 32 30  2  0
M  END
$$$$
