YIR.pdb
     RDKit          3D

 32 32  0  0  1  0  0  0  0  0999 V2000
    6.3399  -14.0797   15.5083 O   0  0  0  0  0  0  0  0  0  0  0  0
    6.6464  -14.2808   16.8470 C   0  0  0  0  0  0  0  0  0  0  0  0
    6.2443  -13.4134   17.8427 C   0  0  0  0  0  0  0  0  0  0  0  0
    6.5473  -13.6099   19.1737 C   0  0  0  0  0  0  0  0  0  0  0  0
    7.2905  -14.7231   19.5660 C   0  0  0  0  0  0  0  0  0  0  0  0
    7.6380  -14.9687   20.9699 C   0  0  0  0  0  0  0  0  0  0  0  0
    8.7322  -14.0798   21.5039 C   0  0  2  0  0  0  0  0  0  0  0  0
    9.9050  -14.2327   20.6775 N   0  0  0  0  0  0  0  0  0  0  0  0
    8.9767  -14.5108   22.9190 C   0  0  0  0  0  0  0  0  0  0  0  0
   10.0057  -15.2013   23.1509 O   0  0  0  0  0  0  0  0  0  0  0  0
    7.6902  -15.5858   18.5759 C   0  0  0  0  0  0  0  0  0  0  0  0
    7.3873  -15.3894   17.2445 C   0  0  0  0  0  0  0  0  0  0  0  0
    5.8769  -11.4142   26.4077 C   0  0  0  0  0  0  0  0  0  0  0  0
    7.1273  -11.9721   25.7936 C   0  0  0  0  0  0  0  0  0  0  0  0
    7.5188  -13.3351   26.1814 C   0  0  2  0  0  0  0  0  0  0  0  0
    8.0654  -13.2712   27.6234 C   0  0  0  0  0  0  0  0  0  0  0  0
    8.4144  -14.1168   25.3077 C   0  0  2  0  0  0  0  0  0  0  0  0
    8.0594  -14.1342   23.9277 N   0  0  0  0  0  0  0  0  0  0  0  0
    8.6403  -15.4935   25.7882 C   0  0  0  0  0  0  0  0  0  0  0  0
    7.6185  -16.2668   25.8776 O   0  0  0  0  0  0  0  0  0  0  0  0
   10.4568  -22.5845   23.9082 N   0  0  0  0  0  0  0  0  0  0  0  0
   11.0607  -22.7725   25.1657 C   0  0  0  0  0  0  0  0  0  0  0  0
   11.3450  -23.9556   25.5652 N   0  0  0  0  0  0  0  0  0  0  0  0
   11.3558  -21.6576   25.9899 N   0  0  0  0  0  0  0  0  0  0  0  0
   10.9683  -20.3407   25.4969 C   0  0  0  0  0  0  0  0  0  0  0  0
   11.5033  -19.3435   26.4759 C   0  0  0  0  0  0  0  0  0  0  0  0
   11.2470  -17.9553   25.9787 C   0  0  0  0  0  0  0  0  0  0  0  0
    9.9688  -17.4196   26.5866 C   0  0  2  0  0  0  0  0  0  0  0  0
    9.8976  -16.0109   26.1504 N   0  0  0  0  0  0  0  0  0  0  0  0
   10.0887  -17.4931   28.0588 C   0  0  0  0  0  0  0  0  0  0  0  0
    9.6094  -18.6331   28.6990 O   0  0  0  0  0  0  0  0  0  0  0  0
   10.5850  -16.6207   28.7976 O   0  0  0  0  0  0  0  0  0  0  0  0
  2  3  2  0
  2  1  1  0
  4  3  1  0
  5  4  2  0
  6  5  1  0
  7  6  1  0
  7  8  1  6
  9  7  1  0
  9 10  2  0
 11  5  1  0
 11 12  2  0
 12  2  1  0
 13 14  1  0
 14 15  1  0
 15 17  1  0
 15 16  1  1
 17 18  1  6
 18  9  1  0
 19 17  1  0
 19 20  2  0
 21 22  1  0
 22 24  1  0
 23 22  2  0
 24 25  1  0
 26 25  1  0
 27 26  1  0
 28 27  1  6
 29 28  1  0
 29 19  1  0
 30 28  1  0
 31 30  1  0
 32 30  2  0
M  END
$$$$
