NYF.pdb
     RDKit          3D

 32 33  0  0  1  0  0  0  0  0999 V2000
    9.8595  -23.5279   21.5233 N   0  0  0  0  0  0  0  0  0  0  0  0
    9.4393  -22.2949   20.9338 C   0  0  0  0  0  0  0  0  0  0  0  0
   10.1630  -21.7707   20.0599 O   0  0  0  0  0  0  0  0  0  0  0  0
    8.1417  -21.6703   21.3844 C   0  0  0  0  0  0  0  0  0  0  0  0
    8.5345  -20.7806   22.5763 C   0  0  2  0  0  0  0  0  0  0  0  0
    7.3311  -20.7691   23.4252 N   0  0  0  0  0  0  0  0  0  0  0  0
    8.8405  -19.4108   22.1301 C   0  0  0  0  0  0  0  0  0  0  0  0
    9.9702  -19.2259   21.5635 O   0  0  0  0  0  0  0  0  0  0  0  0
    8.5163  -11.2401   19.0578 O   0  0  0  0  0  0  0  0  0  0  0  0
    8.1828  -12.4686   19.6337 C   0  0  0  0  0  0  0  0  0  0  0  0
    8.0531  -12.5239   21.0062 C   0  0  0  0  0  0  0  0  0  0  0  0
    7.7242  -13.7122   21.6388 C   0  0  0  0  0  0  0  0  0  0  0  0
    7.5197  -14.8739   20.9005 C   0  0  0  0  0  0  0  0  0  0  0  0
    7.1754  -16.0947   21.6190 C   0  0  0  0  0  0  0  0  0  0  0  0
    8.3691  -17.0259   21.7825 C   0  0  2  0  0  0  0  0  0  0  0  0
    7.9731  -18.3049   22.2885 N   0  0  0  0  0  0  0  0  0  0  0  0
    9.2578  -16.3685   22.7714 C   0  0  0  0  0  0  0  0  0  0  0  0
   10.1174  -15.5575   22.3375 O   0  0  0  0  0  0  0  0  0  0  0  0
    7.6520  -14.8013   19.5486 C   0  0  0  0  0  0  0  0  0  0  0  0
    7.9818  -13.6086   18.9017 C   0  0  0  0  0  0  0  0  0  0  0  0
    9.2181  -16.5792   24.1606 N   0  0  0  0  0  0  0  0  0  0  0  0
   10.0240  -15.8415   25.1163 C   0  0  1  0  0  0  0  0  0  0  0  0
    9.7356  -14.3716   25.0610 C   0  0  0  0  0  0  0  0  0  0  0  0
    8.5081  -14.0407   25.7982 C   0  0  0  0  0  0  0  0  0  0  0  0
    8.6279  -13.4834   27.0630 C   0  0  0  0  0  0  0  0  0  0  0  0
    7.5379  -13.1332   27.8388 C   0  0  0  0  0  0  0  0  0  0  0  0
    6.2900  -13.3459   27.3341 C   0  0  0  0  0  0  0  0  0  0  0  0
    6.1614  -13.9018   26.0695 C   0  0  0  0  0  0  0  0  0  0  0  0
    7.2420  -14.2534   25.2917 C   0  0  0  0  0  0  0  0  0  0  0  0
    9.8724  -16.4179   26.4406 C   0  0  0  0  0  0  0  0  0  0  0  0
   10.5456  -15.9112   27.4071 O   0  0  0  0  0  0  0  0  0  0  0  0
    9.0245  -17.4839   26.6599 O   0  0  0  0  0  0  0  0  0  0  0  0
  2  3  2  0
  2  1  1  0
  4  2  1  0
  5  4  1  0
  5  6  1  1
  7  8  2  0
  7  5  1  0
  9 10  1  0
 10 20  2  0
 10 11  1  0
 11 12  2  0
 12 13  1  0
 13 14  1  0
 15 14  1  1
 15 16  1  0
 16  7  1  0
 17 15  1  0
 17 21  1  0
 18 17  2  0
 19 13  2  0
 20 19  1  0
 22 21  1  0
 22 30  1  0
 22 23  1  1
 24 23  1  0
 25 24  2  0
 26 25  1  0
 27 26  2  0
 27 28  1  0
 28 29  2  0
 29 24  1  0
 30 32  1  0
 31 30  2  0
M  END
$$$$
