NYF.pdb
     RDKit          3D

 32 33  0  0  1  0  0  0  0  0999 V2000
    9.9963  -19.5741   17.5463 N   0  0  0  0  0  0  0  0  0  0  0  0
   10.7698  -19.0599   18.6332 C   0  0  0  0  0  0  0  0  0  0  0  0
   11.6886  -19.7658   19.1023 O   0  0  0  0  0  0  0  0  0  0  0  0
   10.4527  -17.6880   19.1757 C   0  0  0  0  0  0  0  0  0  0  0  0
   10.4016  -17.8781   20.7014 C   0  0  2  0  0  0  0  0  0  0  0  0
    9.1826  -18.6749   20.9213 N   0  0  0  0  0  0  0  0  0  0  0  0
   10.2775  -16.5810   21.3878 C   0  0  0  0  0  0  0  0  0  0  0  0
   11.3261  -15.8539   21.4444 O   0  0  0  0  0  0  0  0  0  0  0  0
    7.2337  -13.3298   16.6474 O   0  0  0  0  0  0  0  0  0  0  0  0
    7.3460  -13.5562   18.0215 C   0  0  0  0  0  0  0  0  0  0  0  0
    8.0188  -12.6182   18.7772 C   0  0  0  0  0  0  0  0  0  0  0  0
    8.1650  -12.7840   20.1452 C   0  0  0  0  0  0  0  0  0  0  0  0
    7.6364  -13.9021   20.7831 C   0  0  0  0  0  0  0  0  0  0  0  0
    7.8202  -14.0240   22.2241 C   0  0  0  0  0  0  0  0  0  0  0  0
    9.0793  -14.8014   22.5830 C   0  0  2  0  0  0  0  0  0  0  0  0
    9.0864  -16.0991   21.9790 N   0  0  0  0  0  0  0  0  0  0  0  0
    9.0492  -14.9544   24.0580 C   0  0  0  0  0  0  0  0  0  0  0  0
    9.0062  -13.9066   24.7544 O   0  0  0  0  0  0  0  0  0  0  0  0
    6.9765  -14.8169   20.0227 C   0  0  0  0  0  0  0  0  0  0  0  0
    6.8227  -14.6583   18.6440 C   0  0  0  0  0  0  0  0  0  0  0  0
    9.0654  -16.1809   24.7447 N   0  0  0  0  0  0  0  0  0  0  0  0
    9.0283  -16.3016   26.1907 C   0  0  1  0  0  0  0  0  0  0  0  0
    7.6649  -15.9964   26.7337 C   0  0  0  0  0  0  0  0  0  0  0  0
    7.4054  -14.5499   26.7419 C   0  0  0  0  0  0  0  0  0  0  0  0
    8.2897  -13.7247   27.4213 C   0  0  0  0  0  0  0  0  0  0  0  0
    8.1393  -12.3516   27.4885 C   0  0  0  0  0  0  0  0  0  0  0  0
    7.0725  -11.7863   26.8563 C   0  0  0  0  0  0  0  0  0  0  0  0
    6.1839  -12.6044   26.1736 C   0  0  0  0  0  0  0  0  0  0  0  0
    6.3271  -13.9722   26.1029 C   0  0  0  0  0  0  0  0  0  0  0  0
    9.5407  -17.5998   26.5922 C   0  0  0  0  0  0  0  0  0  0  0  0
    9.9006  -18.4230   25.6774 O   0  0  0  0  0  0  0  0  0  0  0  0
    9.6419  -17.9439   27.9243 O   0  0  0  0  0  0  0  0  0  0  0  0
  2  3  2  0
  2  1  1  0
  4  2  1  0
  5  4  1  0
  5  6  1  6
  7  8  2  0
  7  5  1  0
  9 10  1  0
 10 20  2  0
 10 11  1  0
 11 12  2  0
 12 13  1  0
 13 14  1  0
 15 14  1  6
 15 16  1  0
 16  7  1  0
 17 15  1  0
 17 21  1  0
 18 17  2  0
 19 13  2  0
 20 19  1  0
 22 21  1  0
 22 30  1  0
 22 23  1  6
 24 23  1  0
 25 24  2  0
 26 25  1  0
 27 26  2  0
 27 28  1  0
 28 29  2  0
 29 24  1  0
 30 32  1  0
 31 30  2  0
M  END
$$$$
