NYF.pdb
     RDKit          3D

 32 33  0  0  1  0  0  0  0  0999 V2000
    7.7782  -12.3523   17.2123 N   0  0  0  0  0  0  0  0  0  0  0  0
    7.8179  -13.7748   17.0741 C   0  0  0  0  0  0  0  0  0  0  0  0
    8.1483  -14.2611   15.9710 O   0  0  0  0  0  0  0  0  0  0  0  0
    7.4612  -14.6379   18.2593 C   0  0  0  0  0  0  0  0  0  0  0  0
    8.6938  -14.5631   19.1766 C   0  0  2  0  0  0  0  0  0  0  0  0
    9.7749  -15.1558   18.3711 N   0  0  0  0  0  0  0  0  0  0  0  0
    8.4888  -15.3618   20.3969 C   0  0  0  0  0  0  0  0  0  0  0  0
    7.4588  -15.0882   21.1010 O   0  0  0  0  0  0  0  0  0  0  0  0
   13.6782  -18.9054   18.0580 O   0  0  0  0  0  0  0  0  0  0  0  0
   12.7773  -18.7607   19.1161 C   0  0  0  0  0  0  0  0  0  0  0  0
   11.4381  -18.9670   18.8561 C   0  0  0  0  0  0  0  0  0  0  0  0
   10.4938  -18.8388   19.8622 C   0  0  0  0  0  0  0  0  0  0  0  0
   10.8791  -18.4977   21.1551 C   0  0  0  0  0  0  0  0  0  0  0  0
    9.8428  -18.3773   22.1734 C   0  0  0  0  0  0  0  0  0  0  0  0
    9.0734  -17.0679   22.0638 C   0  0  2  0  0  0  0  0  0  0  0  0
    9.3498  -16.3970   20.8299 N   0  0  0  0  0  0  0  0  0  0  0  0
    9.5504  -16.2273   23.1889 C   0  0  0  0  0  0  0  0  0  0  0  0
    9.8551  -15.0319   22.9381 O   0  0  0  0  0  0  0  0  0  0  0  0
   12.2034  -18.2977   21.3935 C   0  0  0  0  0  0  0  0  0  0  0  0
   13.1627  -18.4256   20.3869 C   0  0  0  0  0  0  0  0  0  0  0  0
    9.6910  -16.6598   24.5190 N   0  0  0  0  0  0  0  0  0  0  0  0
    9.1175  -15.9711   25.6608 C   0  0  1  0  0  0  0  0  0  0  0  0
    7.6631  -15.6748   25.4514 C   0  0  0  0  0  0  0  0  0  0  0  0
    7.3821  -14.2413   25.6123 C   0  0  0  0  0  0  0  0  0  0  0  0
    7.0636  -13.5005   24.4834 C   0  0  0  0  0  0  0  0  0  0  0  0
    6.7799  -12.1476   24.5249 C   0  0  0  0  0  0  0  0  0  0  0  0
    6.8148  -11.5164   25.7322 C   0  0  0  0  0  0  0  0  0  0  0  0
    7.1314  -12.2501   26.8663 C   0  0  0  0  0  0  0  0  0  0  0  0
    7.4155  -13.5972   26.8325 C   0  0  0  0  0  0  0  0  0  0  0  0
    9.3937  -16.7150   26.8771 C   0  0  0  0  0  0  0  0  0  0  0  0
    9.5009  -16.0661   27.9778 O   0  0  0  0  0  0  0  0  0  0  0  0
    9.5363  -18.0870   26.8553 O   0  0  0  0  0  0  0  0  0  0  0  0
  2  3  2  0
  2  1  1  0
  4  2  1  0
  5  4  1  0
  5  6  1  6
  7  8  2  0
  7  5  1  0
  9 10  1  0
 10 20  2  0
 10 11  1  0
 11 12  2  0
 12 13  1  0
 13 14  1  0
 15 14  1  6
 15 16  1  0
 16  7  1  0
 17 15  1  0
 17 21  1  0
 18 17  2  0
 19 13  2  0
 20 19  1  0
 22 21  1  0
 22 30  1  0
 22 23  1  6
 24 23  1  0
 25 24  2  0
 26 25  1  0
 27 26  2  0
 27 28  1  0
 28 29  2  0
 29 24  1  0
 30 32  1  0
 31 30  2  0
M  END
$$$$
