NYF.pdb
     RDKit          3D

 32 33  0  0  1  0  0  0  0  0999 V2000
    8.0603  -20.7640   19.3739 N   0  0  0  0  0  0  0  0  0  0  0  0
    8.2810  -19.6835   18.4639 C   0  0  0  0  0  0  0  0  0  0  0  0
    8.2552  -19.9183   17.2365 O   0  0  0  0  0  0  0  0  0  0  0  0
    8.5367  -18.3015   19.0133 C   0  0  0  0  0  0  0  0  0  0  0  0
    8.5472  -18.4886   20.5403 C   0  0  2  0  0  0  0  0  0  0  0  0
    7.1212  -18.5660   20.9003 N   0  0  0  0  0  0  0  0  0  0  0  0
    9.1653  -17.3298   21.2066 C   0  0  0  0  0  0  0  0  0  0  0  0
   10.4159  -17.1527   21.0166 O   0  0  0  0  0  0  0  0  0  0  0  0
    7.4643  -12.9379   16.9209 O   0  0  0  0  0  0  0  0  0  0  0  0
    7.6443  -13.2287   18.2755 C   0  0  0  0  0  0  0  0  0  0  0  0
    8.8184  -12.8188   18.8732 C   0  0  0  0  0  0  0  0  0  0  0  0
    9.0579  -13.0766   20.2135 C   0  0  0  0  0  0  0  0  0  0  0  0
    8.1180  -13.7559   20.9825 C   0  0  0  0  0  0  0  0  0  0  0  0
    8.4233  -13.9988   22.3872 C   0  0  0  0  0  0  0  0  0  0  0  0
    9.1744  -15.3064   22.5982 C   0  0  2  0  0  0  0  0  0  0  0  0
    8.4692  -16.4155   22.0313 N   0  0  0  0  0  0  0  0  0  0  0  0
    9.2592  -15.4873   24.0680 C   0  0  0  0  0  0  0  0  0  0  0  0
   10.1104  -14.8028   24.6937 O   0  0  0  0  0  0  0  0  0  0  0  0
    6.9663  -14.1530   20.3771 C   0  0  0  0  0  0  0  0  0  0  0  0
    6.7150  -13.8970   19.0277 C   0  0  0  0  0  0  0  0  0  0  0  0
    8.4623  -16.3659   24.8223 N   0  0  0  0  0  0  0  0  0  0  0  0
    8.6116  -16.5723   26.2512 C   0  0  1  0  0  0  0  0  0  0  0  0
    7.4242  -16.0591   27.0086 C   0  0  0  0  0  0  0  0  0  0  0  0
    7.4083  -14.5900   27.0440 C   0  0  0  0  0  0  0  0  0  0  0  0
    8.5648  -13.9266   27.4272 C   0  0  0  0  0  0  0  0  0  0  0  0
    8.6572  -12.5483   27.4915 C   0  0  0  0  0  0  0  0  0  0  0  0
    7.5597  -11.8106   27.1616 C   0  0  0  0  0  0  0  0  0  0  0  0
    6.3993  -12.4662   26.7762 C   0  0  0  0  0  0  0  0  0  0  0  0
    6.3000  -13.8381   26.7103 C   0  0  0  0  0  0  0  0  0  0  0  0
    8.9194  -17.9658   26.5204 C   0  0  0  0  0  0  0  0  0  0  0  0
    9.1165  -18.3231   27.7359 O   0  0  0  0  0  0  0  0  0  0  0  0
    8.9972  -18.8879   25.4972 O   0  0  0  0  0  0  0  0  0  0  0  0
  2  3  2  0
  2  1  1  0
  4  2  1  0
  5  4  1  0
  5  6  1  1
  7  8  2  0
  7  5  1  0
  9 10  1  0
 10 20  2  0
 10 11  1  0
 11 12  2  0
 12 13  1  0
 13 14  1  0
 15 14  1  1
 15 16  1  0
 16  7  1  0
 17 15  1  0
 17 21  1  0
 18 17  2  0
 19 13  2  0
 20 19  1  0
 22 21  1  0
 22 30  1  0
 22 23  1  1
 24 23  1  0
 25 24  2  0
 26 25  1  0
 27 26  2  0
 27 28  1  0
 28 29  2  0
 29 24  1  0
 30 32  1  0
 31 30  2  0
M  END
$$$$
