NYF.pdb
     RDKit          3D

 32 33  0  0  1  0  0  0  0  0999 V2000
    9.8666  -20.5465   19.3095 N   0  0  0  0  0  0  0  0  0  0  0  0
    9.4492  -19.4441   18.5003 C   0  0  0  0  0  0  0  0  0  0  0  0
    9.4518  -19.5776   17.2575 O   0  0  0  0  0  0  0  0  0  0  0  0
    9.0213  -18.1618   19.1708 C   0  0  0  0  0  0  0  0  0  0  0  0
    9.2378  -18.4197   20.6719 C   0  0  2  0  0  0  0  0  0  0  0  0
    7.9117  -18.8377   21.1573 N   0  0  0  0  0  0  0  0  0  0  0  0
    9.6529  -17.1865   21.3616 C   0  0  0  0  0  0  0  0  0  0  0  0
   10.8491  -16.7862   21.1608 O   0  0  0  0  0  0  0  0  0  0  0  0
    7.0054  -13.3810   17.0969 O   0  0  0  0  0  0  0  0  0  0  0  0
    7.3816  -13.5086   18.4364 C   0  0  0  0  0  0  0  0  0  0  0  0
    6.6314  -14.3416   19.2408 C   0  0  0  0  0  0  0  0  0  0  0  0
    6.9521  -14.5114   20.5782 C   0  0  0  0  0  0  0  0  0  0  0  0
    8.0375  -13.8428   21.1361 C   0  0  0  0  0  0  0  0  0  0  0  0
    8.3282  -14.0598   22.5481 C   0  0  0  0  0  0  0  0  0  0  0  0
    9.3107  -15.2022   22.7675 C   0  0  2  0  0  0  0  0  0  0  0  0
    8.8205  -16.4302   22.2193 N   0  0  0  0  0  0  0  0  0  0  0  0
    9.4371  -15.3453   24.2384 C   0  0  0  0  0  0  0  0  0  0  0  0
   10.2074  -14.5516   24.8396 O   0  0  0  0  0  0  0  0  0  0  0  0
    8.7658  -13.0254   20.3287 C   0  0  0  0  0  0  0  0  0  0  0  0
    8.4516  -12.8486   18.9798 C   0  0  0  0  0  0  0  0  0  0  0  0
    8.7634  -16.3006   25.0191 N   0  0  0  0  0  0  0  0  0  0  0  0
    8.9878  -16.4908   26.4405 C   0  0  1  0  0  0  0  0  0  0  0  0
    7.8495  -15.9534   27.2543 C   0  0  0  0  0  0  0  0  0  0  0  0
    7.7957  -14.4860   27.1926 C   0  0  0  0  0  0  0  0  0  0  0  0
    6.6470  -13.8881   26.6950 C   0  0  0  0  0  0  0  0  0  0  0  0
    6.4926  -12.5174   26.5967 C   0  0  0  0  0  0  0  0  0  0  0  0
    7.5178  -11.7200   27.0095 C   0  0  0  0  0  0  0  0  0  0  0  0
    8.6697  -12.3099   27.5095 C   0  0  0  0  0  0  0  0  0  0  0  0
    8.8306  -13.6738   27.6098 C   0  0  0  0  0  0  0  0  0  0  0  0
    9.2934  -17.8845   26.7111 C   0  0  0  0  0  0  0  0  0  0  0  0
    9.4947  -18.2400   27.9264 O   0  0  0  0  0  0  0  0  0  0  0  0
    9.3648  -18.8087   25.6893 O   0  0  0  0  0  0  0  0  0  0  0  0
  2  3  2  0
  2  1  1  0
  4  2  1  0
  5  4  1  0
  5  6  1  1
  7  8  2  0
  7  5  1  0
  9 10  1  0
 10 20  2  0
 10 11  1  0
 11 12  2  0
 12 13  1  0
 13 14  1  0
 15 14  1  1
 15 16  1  0
 16  7  1  0
 17 15  1  0
 17 21  1  0
 18 17  2  0
 19 13  2  0
 20 19  1  0
 22 21  1  0
 22 30  1  0
 22 23  1  1
 24 23  1  0
 25 24  2  0
 26 25  1  0
 27 26  2  0
 27 28  1  0
 28 29  2  0
 29 24  1  0
 30 32  1  0
 31 30  2  0
M  END
$$$$
