NYF.pdb
     RDKit          3D

 32 33  0  0  1  0  0  0  0  0999 V2000
    9.3539  -15.6646   16.0222 N   0  0  0  0  0  0  0  0  0  0  0  0
    8.5093  -14.6077   16.4846 C   0  0  0  0  0  0  0  0  0  0  0  0
    7.3018  -14.6202   16.1620 O   0  0  0  0  0  0  0  0  0  0  0  0
    9.1014  -13.5170   17.3430 C   0  0  0  0  0  0  0  0  0  0  0  0
    8.2472  -13.5258   18.6224 C   0  0  2  0  0  0  0  0  0  0  0  0
    8.6837  -12.3229   19.3515 N   0  0  0  0  0  0  0  0  0  0  0  0
    8.5257  -14.7248   19.4310 C   0  0  0  0  0  0  0  0  0  0  0  0
    8.0126  -15.8240   19.0311 O   0  0  0  0  0  0  0  0  0  0  0  0
   14.9620  -14.3259   18.7422 O   0  0  0  0  0  0  0  0  0  0  0  0
   13.8608  -14.9539   19.3296 C   0  0  0  0  0  0  0  0  0  0  0  0
   12.8654  -15.4228   18.4972 C   0  0  0  0  0  0  0  0  0  0  0  0
   11.7471  -16.0548   19.0172 C   0  0  0  0  0  0  0  0  0  0  0  0
   11.6063  -16.2273   20.3907 C   0  0  0  0  0  0  0  0  0  0  0  0
   10.4094  -16.8996   20.8813 C   0  0  0  0  0  0  0  0  0  0  0  0
    9.3685  -15.9191   21.4044 C   0  0  2  0  0  0  0  0  0  0  0  0
    9.3145  -14.7330   20.6050 N   0  0  0  0  0  0  0  0  0  0  0  0
    9.8092  -15.5596   22.7743 C   0  0  0  0  0  0  0  0  0  0  0  0
   10.6820  -14.6599   22.8911 O   0  0  0  0  0  0  0  0  0  0  0  0
   12.5970  -15.7586   21.1966 C   0  0  0  0  0  0  0  0  0  0  0  0
   13.7281  -15.1216   20.6824 C   0  0  0  0  0  0  0  0  0  0  0  0
    9.3291  -16.1455   23.9584 N   0  0  0  0  0  0  0  0  0  0  0  0
    9.8540  -15.8518   25.2794 C   0  0  1  0  0  0  0  0  0  0  0  0
    9.8378  -14.3801   25.5635 C   0  0  0  0  0  0  0  0  0  0  0  0
    8.4709  -13.8424   25.5151 C   0  0  0  0  0  0  0  0  0  0  0  0
    8.1392  -12.9749   24.4846 C   0  0  0  0  0  0  0  0  0  0  0  0
    6.8822  -12.4154   24.3454 C   0  0  0  0  0  0  0  0  0  0  0  0
    5.9274  -12.7338   25.2643 C   0  0  0  0  0  0  0  0  0  0  0  0
    6.2506  -13.6015   26.2974 C   0  0  0  0  0  0  0  0  0  0  0  0
    7.5001  -14.1620   26.4426 C   0  0  0  0  0  0  0  0  0  0  0  0
    9.1593  -16.6475   26.2761 C   0  0  0  0  0  0  0  0  0  0  0  0
    9.5419  -16.5655   27.4971 O   0  0  0  0  0  0  0  0  0  0  0  0
    8.1109  -17.4721   25.9238 O   0  0  0  0  0  0  0  0  0  0  0  0
  2  3  2  0
  2  1  1  0
  4  2  1  0
  5  4  1  0
  5  6  1  1
  7  8  2  0
  7  5  1  0
  9 10  1  0
 10 20  2  0
 10 11  1  0
 11 12  2  0
 12 13  1  0
 13 14  1  0
 15 14  1  6
 15 16  1  0
 16  7  1  0
 17 15  1  0
 17 21  1  0
 18 17  2  0
 19 13  2  0
 20 19  1  0
 22 21  1  0
 22 30  1  0
 22 23  1  1
 24 23  1  0
 25 24  2  0
 26 25  1  0
 27 26  2  0
 27 28  1  0
 28 29  2  0
 29 24  1  0
 30 32  1  0
 31 30  2  0
M  END
$$$$
