NYF.pdb
     RDKit          3D

 32 33  0  0  1  0  0  0  0  0999 V2000
    5.9716  -20.7102   20.6858 N   0  0  0  0  0  0  0  0  0  0  0  0
    6.5651  -20.8116   21.9826 C   0  0  0  0  0  0  0  0  0  0  0  0
    6.1766  -21.7180   22.7507 O   0  0  0  0  0  0  0  0  0  0  0  0
    7.6361  -19.8253   22.3791 C   0  0  0  0  0  0  0  0  0  0  0  0
    7.6057  -18.7567   21.2729 C   0  0  2  0  0  0  0  0  0  0  0  0
    8.1672  -19.4435   20.0973 N   0  0  0  0  0  0  0  0  0  0  0  0
    8.4556  -17.6080   21.6297 C   0  0  0  0  0  0  0  0  0  0  0  0
    9.7051  -17.7157   21.3871 O   0  0  0  0  0  0  0  0  0  0  0  0
    7.8114  -12.7961   16.8804 O   0  0  0  0  0  0  0  0  0  0  0  0
    8.0026  -13.0653   18.2380 C   0  0  0  0  0  0  0  0  0  0  0  0
    7.0113  -13.7553   18.9049 C   0  0  0  0  0  0  0  0  0  0  0  0
    7.1400  -14.0536   20.2521 C   0  0  0  0  0  0  0  0  0  0  0  0
    8.2726  -13.6611   20.9587 C   0  0  0  0  0  0  0  0  0  0  0  0
    8.3543  -14.0025   22.3736 C   0  0  0  0  0  0  0  0  0  0  0  0
    8.9160  -15.3996   22.6001 C   0  0  2  0  0  0  0  0  0  0  0  0
    7.9799  -16.4117   22.2154 N   0  0  0  0  0  0  0  0  0  0  0  0
    9.1648  -15.5000   24.0589 C   0  0  0  0  0  0  0  0  0  0  0  0
   10.0792  -14.7857   24.5472 O   0  0  0  0  0  0  0  0  0  0  0  0
    9.2399  -12.9814   20.2856 C   0  0  0  0  0  0  0  0  0  0  0  0
    9.1201  -12.6771   18.9281 C   0  0  0  0  0  0  0  0  0  0  0  0
    8.4590  -16.3328   24.9445 N   0  0  0  0  0  0  0  0  0  0  0  0
    8.6955  -16.3802   26.3758 C   0  0  1  0  0  0  0  0  0  0  0  0
    7.4469  -16.0834   27.1502 C   0  0  0  0  0  0  0  0  0  0  0  0
    6.9924  -14.7046   26.9216 C   0  0  0  0  0  0  0  0  0  0  0  0
    7.6991  -13.6697   27.5168 C   0  0  0  0  0  0  0  0  0  0  0  0
    7.3578  -12.3382   27.3640 C   0  0  0  0  0  0  0  0  0  0  0  0
    6.2774  -12.0322   26.5918 C   0  0  0  0  0  0  0  0  0  0  0  0
    5.5658  -13.0612   25.9922 C   0  0  0  0  0  0  0  0  0  0  0  0
    5.8995  -14.3890   26.1402 C   0  0  0  0  0  0  0  0  0  0  0  0
    9.3189  -17.6424   26.7327 C   0  0  0  0  0  0  0  0  0  0  0  0
    9.5142  -18.5091   25.8083 O   0  0  0  0  0  0  0  0  0  0  0  0
    9.6958  -17.9073   28.0331 O   0  0  0  0  0  0  0  0  0  0  0  0
  2  3  2  0
  2  1  1  0
  4  2  1  0
  5  4  1  0
  5  6  1  6
  7  8  2  0
  7  5  1  0
  9 10  1  0
 10 20  2  0
 10 11  1  0
 11 12  2  0
 12 13  1  0
 13 14  1  0
 15 14  1  1
 15 16  1  0
 16  7  1  0
 17 15  1  0
 17 21  1  0
 18 17  2  0
 19 13  2  0
 20 19  1  0
 22 21  1  0
 22 30  1  0
 22 23  1  1
 24 23  1  0
 25 24  2  0
 26 25  1  0
 27 26  2  0
 27 28  1  0
 28 29  2  0
 29 24  1  0
 30 32  1  0
 31 30  2  0
M  END
$$$$
