NYF.pdb
     RDKit          3D

 32 33  0  0  1  0  0  0  0  0999 V2000
    6.2289  -20.4291   19.8719 N   0  0  0  0  0  0  0  0  0  0  0  0
    6.6567  -20.5887   21.2268 C   0  0  0  0  0  0  0  0  0  0  0  0
    6.3113  -21.6171   21.8476 O   0  0  0  0  0  0  0  0  0  0  0  0
    7.5073  -19.5148   21.8594 C   0  0  0  0  0  0  0  0  0  0  0  0
    7.4732  -18.3519   20.8529 C   0  0  2  0  0  0  0  0  0  0  0  0
    8.1134  -18.9044   19.6471 N   0  0  0  0  0  0  0  0  0  0  0  0
    8.2539  -17.2058   21.3487 C   0  0  0  0  0  0  0  0  0  0  0  0
    9.5253  -17.2899   21.2588 O   0  0  0  0  0  0  0  0  0  0  0  0
    8.0354  -12.9062   16.4379 O   0  0  0  0  0  0  0  0  0  0  0  0
    7.9887  -13.1032   17.8203 C   0  0  0  0  0  0  0  0  0  0  0  0
    9.1332  -12.8482   18.5476 C   0  0  0  0  0  0  0  0  0  0  0  0
    9.1524  -13.0241   19.9220 C   0  0  0  0  0  0  0  0  0  0  0  0
    8.0165  -13.4633   20.5952 C   0  0  0  0  0  0  0  0  0  0  0  0
    8.0944  -13.6301   22.0413 C   0  0  0  0  0  0  0  0  0  0  0  0
    8.5555  -15.0259   22.4386 C   0  0  2  0  0  0  0  0  0  0  0  0
    7.6904  -16.0361   21.9097 N   0  0  0  0  0  0  0  0  0  0  0  0
    8.4928  -15.0622   23.9201 C   0  0  0  0  0  0  0  0  0  0  0  0
    8.2009  -13.9946   24.5198 O   0  0  0  0  0  0  0  0  0  0  0  0
    6.8972  -13.7102   19.8625 C   0  0  0  0  0  0  0  0  0  0  0  0
    6.8673  -13.5349   18.4776 C   0  0  0  0  0  0  0  0  0  0  0  0
    8.7346  -16.1979   24.7125 N   0  0  0  0  0  0  0  0  0  0  0  0
    8.5950  -16.2237   26.1570 C   0  0  1  0  0  0  0  0  0  0  0  0
    7.2799  -15.6517   26.5932 C   0  0  0  0  0  0  0  0  0  0  0  0
    7.3614  -14.1939   26.7606 C   0  0  0  0  0  0  0  0  0  0  0  0
    8.5688  -13.6426   27.1641 C   0  0  0  0  0  0  0  0  0  0  0  0
    8.7532  -12.2845   27.3486 C   0  0  0  0  0  0  0  0  0  0  0  0
    7.6982  -11.4521   27.1218 C   0  0  0  0  0  0  0  0  0  0  0  0
    6.4874  -11.9952   26.7170 C   0  0  0  0  0  0  0  0  0  0  0  0
    6.2964  -13.3464   26.5318 C   0  0  0  0  0  0  0  0  0  0  0  0
    8.8428  -17.5656   26.6541 C   0  0  0  0  0  0  0  0  0  0  0  0
    8.5393  -18.5598   25.9036 O   0  0  0  0  0  0  0  0  0  0  0  0
    9.3932  -17.7717   27.9022 O   0  0  0  0  0  0  0  0  0  0  0  0
  2  3  2  0
  2  1  1  0
  4  2  1  0
  5  4  1  0
  5  6  1  6
  7  8  2  0
  7  5  1  0
  9 10  1  0
 10 20  2  0
 10 11  1  0
 11 12  2  0
 12 13  1  0
 13 14  1  0
 15 14  1  6
 15 16  1  0
 16  7  1  0
 17 15  1  0
 17 21  1  0
 18 17  2  0
 19 13  2  0
 20 19  1  0
 22 21  1  0
 22 30  1  0
 22 23  1  6
 24 23  1  0
 25 24  2  0
 26 25  1  0
 27 26  2  0
 27 28  1  0
 28 29  2  0
 29 24  1  0
 30 32  1  0
 31 30  2  0
M  END
$$$$
