NYF.pdb
     RDKit          3D

 32 33  0  0  1  0  0  0  0  0999 V2000
    8.3004  -13.1490   16.6455 N   0  0  0  0  0  0  0  0  0  0  0  0
    7.5934  -13.1775   17.8879 C   0  0  0  0  0  0  0  0  0  0  0  0
    6.5715  -12.4686   18.0128 O   0  0  0  0  0  0  0  0  0  0  0  0
    8.1023  -14.0586   19.0023 C   0  0  0  0  0  0  0  0  0  0  0  0
    9.4294  -14.6264   18.4704 C   0  0  2  0  0  0  0  0  0  0  0  0
    9.0173  -15.5741   17.4210 N   0  0  0  0  0  0  0  0  0  0  0  0
   10.1552  -15.3452   19.5313 C   0  0  0  0  0  0  0  0  0  0  0  0
    9.7940  -16.5475   19.7666 O   0  0  0  0  0  0  0  0  0  0  0  0
   16.2522  -15.8119   16.8190 O   0  0  0  0  0  0  0  0  0  0  0  0
   15.4935  -15.6115   17.9750 C   0  0  0  0  0  0  0  0  0  0  0  0
   15.4276  -16.6418   18.8903 C   0  0  0  0  0  0  0  0  0  0  0  0
   14.6919  -16.5063   20.0568 C   0  0  0  0  0  0  0  0  0  0  0  0
   14.0037  -15.3274   20.3265 C   0  0  0  0  0  0  0  0  0  0  0  0
   13.2465  -15.2409   21.5692 C   0  0  0  0  0  0  0  0  0  0  0  0
   11.7697  -15.5541   21.3699 C   0  0  2  0  0  0  0  0  0  0  0  0
   11.2113  -14.7936   20.2935 N   0  0  0  0  0  0  0  0  0  0  0  0
   11.1027  -15.1631   22.6356 C   0  0  0  0  0  0  0  0  0  0  0  0
   11.5915  -14.1993   23.2813 O   0  0  0  0  0  0  0  0  0  0  0  0
   14.0794  -14.3221   19.4130 C   0  0  0  0  0  0  0  0  0  0  0  0
   14.8189  -14.4484   18.2354 C   0  0  0  0  0  0  0  0  0  0  0  0
    9.9635  -15.7851   23.1754 N   0  0  0  0  0  0  0  0  0  0  0  0
    9.2459  -15.2950   24.3381 C   0  0  1  0  0  0  0  0  0  0  0  0
    8.2342  -14.2546   23.9623 C   0  0  0  0  0  0  0  0  0  0  0  0
    7.6345  -13.6386   25.1542 C   0  0  0  0  0  0  0  0  0  0  0  0
    6.3388  -13.9940   25.4996 C   0  0  0  0  0  0  0  0  0  0  0  0
    5.6833  -13.4760   26.6017 C   0  0  0  0  0  0  0  0  0  0  0  0
    6.3441  -12.5758   27.3829 C   0  0  0  0  0  0  0  0  0  0  0  0
    7.6407  -12.2157   27.0451 C   0  0  0  0  0  0  0  0  0  0  0  0
    8.2993  -12.7269   25.9491 C   0  0  0  0  0  0  0  0  0  0  0  0
    8.6887  -16.4107   25.0823 C   0  0  0  0  0  0  0  0  0  0  0  0
    8.3721  -16.2268   26.3110 O   0  0  0  0  0  0  0  0  0  0  0  0
    8.5007  -17.6406   24.4862 O   0  0  0  0  0  0  0  0  0  0  0  0
  2  3  2  0
  2  1  1  0
  4  2  1  0
  5  4  1  0
  5  6  1  6
  7  8  2  0
  7  5  1  0
  9 10  1  0
 10 20  2  0
 10 11  1  0
 11 12  2  0
 12 13  1  0
 13 14  1  0
 15 14  1  1
 15 16  1  0
 16  7  1  0
 17 15  1  0
 17 21  1  0
 18 17  2  0
 19 13  2  0
 20 19  1  0
 22 21  1  0
 22 30  1  0
 22 23  1  6
 24 23  1  0
 25 24  2  0
 26 25  1  0
 27 26  2  0
 27 28  1  0
 28 29  2  0
 29 24  1  0
 30 32  1  0
 31 30  2  0
M  END
$$$$
