NYF.pdb
     RDKit          3D

 32 33  0  0  1  0  0  0  0  0999 V2000
    9.8253  -19.3419   17.2888 N   0  0  0  0  0  0  0  0  0  0  0  0
   10.5904  -19.0432   18.4592 C   0  0  0  0  0  0  0  0  0  0  0  0
   11.3071  -19.9407   18.9523 O   0  0  0  0  0  0  0  0  0  0  0  0
   10.5075  -17.6604   19.0574 C   0  0  0  0  0  0  0  0  0  0  0  0
   10.4072  -17.9007   20.5736 C   0  0  2  0  0  0  0  0  0  0  0  0
    9.1219  -18.6002   20.7399 N   0  0  0  0  0  0  0  0  0  0  0  0
   10.3759  -16.6236   21.3063 C   0  0  0  0  0  0  0  0  0  0  0  0
   11.4400  -15.9175   21.2834 O   0  0  0  0  0  0  0  0  0  0  0  0
    7.3529  -13.1801   16.7809 O   0  0  0  0  0  0  0  0  0  0  0  0
    7.4918  -13.4405   18.1466 C   0  0  0  0  0  0  0  0  0  0  0  0
    8.2758  -12.5830   18.8906 C   0  0  0  0  0  0  0  0  0  0  0  0
    8.4540  -12.7861   20.2497 C   0  0  0  0  0  0  0  0  0  0  0  0
    7.8456  -13.8613   20.8903 C   0  0  0  0  0  0  0  0  0  0  0  0
    8.0678  -14.0255   22.3217 C   0  0  0  0  0  0  0  0  0  0  0  0
    9.3178  -14.8412   22.6232 C   0  0  2  0  0  0  0  0  0  0  0  0
    9.2567  -16.1390   22.0225 N   0  0  0  0  0  0  0  0  0  0  0  0
    9.3518  -14.9920   24.0984 C   0  0  0  0  0  0  0  0  0  0  0  0
    9.3744  -13.9427   24.7936 O   0  0  0  0  0  0  0  0  0  0  0  0
    7.0764  -14.6969   20.1414 C   0  0  0  0  0  0  0  0  0  0  0  0
    6.8898  -14.5000   18.7717 C   0  0  0  0  0  0  0  0  0  0  0  0
    9.3614  -16.2178   24.7863 N   0  0  0  0  0  0  0  0  0  0  0  0
    8.8680  -16.3921   26.1402 C   0  0  1  0  0  0  0  0  0  0  0  0
    7.4522  -15.9186   26.2753 C   0  0  0  0  0  0  0  0  0  0  0  0
    7.3981  -14.5048   26.6730 C   0  0  0  0  0  0  0  0  0  0  0  0
    6.2022  -13.8199   26.5138 C   0  0  0  0  0  0  0  0  0  0  0  0
    6.0435  -12.4900   26.8584 C   0  0  0  0  0  0  0  0  0  0  0  0
    7.1131  -11.8250   27.3791 C   0  0  0  0  0  0  0  0  0  0  0  0
    8.3125  -12.5029   27.5426 C   0  0  0  0  0  0  0  0  0  0  0  0
    8.4779  -13.8267   27.2012 C   0  0  0  0  0  0  0  0  0  0  0  0
    9.0686  -17.7656   26.5670 C   0  0  0  0  0  0  0  0  0  0  0  0
    9.3858  -18.6388   25.6832 O   0  0  0  0  0  0  0  0  0  0  0  0
    8.9245  -18.1279   27.8904 O   0  0  0  0  0  0  0  0  0  0  0  0
  2  3  2  0
  2  1  1  0
  4  2  1  0
  5  4  1  0
  5  6  1  6
  7  8  2  0
  7  5  1  0
  9 10  1  0
 10 20  2  0
 10 11  1  0
 11 12  2  0
 12 13  1  0
 13 14  1  0
 15 14  1  1
 15 16  1  0
 16  7  1  0
 17 15  1  0
 17 21  1  0
 18 17  2  0
 19 13  2  0
 20 19  1  0
 22 21  1  0
 22 30  1  0
 22 23  1  6
 24 23  1  0
 25 24  2  0
 26 25  1  0
 27 26  2  0
 27 28  1  0
 28 29  2  0
 29 24  1  0
 30 32  1  0
 31 30  2  0
M  END
$$$$
