NYF.pdb
     RDKit          3D

 32 33  0  0  1  0  0  0  0  0999 V2000
    2.3515  -20.0107   22.0785 N   0  0  0  0  0  0  0  0  0  0  0  0
    3.5665  -20.6635   22.4552 C   0  0  0  0  0  0  0  0  0  0  0  0
    3.5509  -21.4416   23.4333 O   0  0  0  0  0  0  0  0  0  0  0  0
    4.8218  -20.3926   21.6628 C   0  0  0  0  0  0  0  0  0  0  0  0
    5.8550  -19.9527   22.7142 C   0  0  2  0  0  0  0  0  0  0  0  0
    5.0377  -19.5487   23.8708 N   0  0  0  0  0  0  0  0  0  0  0  0
    6.6366  -18.8014   22.2321 C   0  0  0  0  0  0  0  0  0  0  0  0
    7.4345  -19.0115   21.2572 O   0  0  0  0  0  0  0  0  0  0  0  0
    9.1701  -11.7210   18.2992 O   0  0  0  0  0  0  0  0  0  0  0  0
    8.5225  -12.6302   19.1394 C   0  0  0  0  0  0  0  0  0  0  0  0
    8.2533  -12.2343   20.4334 C   0  0  0  0  0  0  0  0  0  0  0  0
    7.6135  -13.0893   21.3166 C   0  0  0  0  0  0  0  0  0  0  0  0
    7.2313  -14.3655   20.9147 C   0  0  0  0  0  0  0  0  0  0  0  0
    6.5612  -15.2216   21.8860 C   0  0  0  0  0  0  0  0  0  0  0  0
    7.3787  -16.4604   22.2263 C   0  0  2  0  0  0  0  0  0  0  0  0
    6.5586  -17.4975   22.7747 N   0  0  0  0  0  0  0  0  0  0  0  0
    8.3581  -16.0250   23.2516 C   0  0  0  0  0  0  0  0  0  0  0  0
    9.2682  -15.2329   22.8925 O   0  0  0  0  0  0  0  0  0  0  0  0
    7.5048  -14.7394   19.6356 C   0  0  0  0  0  0  0  0  0  0  0  0
    8.1478  -13.8849   18.7378 C   0  0  0  0  0  0  0  0  0  0  0  0
    8.3526  -16.4280   24.5983 N   0  0  0  0  0  0  0  0  0  0  0  0
    9.3264  -15.9879   25.5806 C   0  0  1  0  0  0  0  0  0  0  0  0
    8.6625  -15.4867   26.8276 C   0  0  0  0  0  0  0  0  0  0  0  0
    7.8176  -14.3169   26.5489 C   0  0  0  0  0  0  0  0  0  0  0  0
    8.2620  -13.0689   26.9605 C   0  0  0  0  0  0  0  0  0  0  0  0
    7.5462  -11.9052   26.7459 C   0  0  0  0  0  0  0  0  0  0  0  0
    6.3499  -11.9921   26.0990 C   0  0  0  0  0  0  0  0  0  0  0  0
    5.8986  -13.2363   25.6830 C   0  0  0  0  0  0  0  0  0  0  0  0
    6.6057  -14.3991   25.8937 C   0  0  0  0  0  0  0  0  0  0  0  0
   10.2994  -17.0395   25.8183 C   0  0  0  0  0  0  0  0  0  0  0  0
   10.1654  -18.1482   25.1884 O   0  0  0  0  0  0  0  0  0  0  0  0
   11.3460  -16.8550   26.6980 O   0  0  0  0  0  0  0  0  0  0  0  0
  2  3  2  0
  2  1  1  0
  4  2  1  0
  5  4  1  0
  5  6  1  1
  7  8  2  0
  7  5  1  0
  9 10  1  0
 10 20  2  0
 10 11  1  0
 11 12  2  0
 12 13  1  0
 13 14  1  0
 15 14  1  1
 15 16  1  0
 16  7  1  0
 17 15  1  0
 17 21  1  0
 18 17  2  0
 19 13  2  0
 20 19  1  0
 22 21  1  0
 22 30  1  0
 22 23  1  1
 24 23  1  0
 25 24  2  0
 26 25  1  0
 27 26  2  0
 27 28  1  0
 28 29  2  0
 29 24  1  0
 30 32  1  0
 31 30  2  0
M  END
$$$$
