NYF.pdb
     RDKit          3D

 32 33  0  0  1  0  0  0  0  0999 V2000
   10.0061  -18.0946   15.7584 N   0  0  0  0  0  0  0  0  0  0  0  0
   11.0514  -18.5870   16.6005 C   0  0  0  0  0  0  0  0  0  0  0  0
   12.2336  -18.4946   16.2052 O   0  0  0  0  0  0  0  0  0  0  0  0
   10.6941  -19.1990   17.9327 C   0  0  0  0  0  0  0  0  0  0  0  0
   11.2110  -18.1900   18.9725 C   0  0  2  0  0  0  0  0  0  0  0  0
   12.6758  -18.3284   18.9070 N   0  0  0  0  0  0  0  0  0  0  0  0
   10.7392  -18.5400   20.3229 C   0  0  0  0  0  0  0  0  0  0  0  0
    9.4901  -18.4036   20.5526 O   0  0  0  0  0  0  0  0  0  0  0  0
    9.9753  -25.3546   20.8638 O   0  0  0  0  0  0  0  0  0  0  0  0
   10.4429  -24.1632   21.4240 C   0  0  0  0  0  0  0  0  0  0  0  0
    9.6698  -23.5593   22.3942 C   0  0  0  0  0  0  0  0  0  0  0  0
   10.0774  -22.3759   22.9890 C   0  0  0  0  0  0  0  0  0  0  0  0
   11.2751  -21.7729   22.6174 C   0  0  0  0  0  0  0  0  0  0  0  0
   11.6538  -20.5292   23.2771 C   0  0  0  0  0  0  0  0  0  0  0  0
   10.9959  -19.3128   22.6398 C   0  0  2  0  0  0  0  0  0  0  0  0
   11.5720  -19.0107   21.3648 N   0  0  0  0  0  0  0  0  0  0  0  0
   11.2553  -18.1848   23.5674 C   0  0  0  0  0  0  0  0  0  0  0  0
   12.2971  -17.5027   23.3824 O   0  0  0  0  0  0  0  0  0  0  0  0
   12.0246  -22.3818   21.6592 C   0  0  0  0  0  0  0  0  0  0  0  0
   11.6233  -23.5748   21.0548 C   0  0  0  0  0  0  0  0  0  0  0  0
   10.4282  -17.8145   24.6420 N   0  0  0  0  0  0  0  0  0  0  0  0
   10.7163  -16.7162   25.5462 C   0  0  1  0  0  0  0  0  0  0  0  0
    9.4592  -16.0713   26.0470 C   0  0  0  0  0  0  0  0  0  0  0  0
    9.7544  -15.0180   27.0285 C   0  0  0  0  0  0  0  0  0  0  0  0
   10.0614  -15.3942   28.3280 C   0  0  0  0  0  0  0  0  0  0  0  0
   10.3568  -14.4841   29.3265 C   0  0  0  0  0  0  0  0  0  0  0  0
   10.3459  -13.1572   29.0157 C   0  0  0  0  0  0  0  0  0  0  0  0
   10.0409  -12.7725   27.7181 C   0  0  0  0  0  0  0  0  0  0  0  0
    9.7453  -13.6730   26.7191 C   0  0  0  0  0  0  0  0  0  0  0  0
   11.6043  -17.1659   26.6037 C   0  0  0  0  0  0  0  0  0  0  0  0
   11.2846  -18.2187   27.2621 O   0  0  0  0  0  0  0  0  0  0  0  0
   12.7662  -16.4820   26.8962 O   0  0  0  0  0  0  0  0  0  0  0  0
  2  3  2  0
  2  1  1  0
  4  2  1  0
  5  4  1  0
  5  6  1  1
  7  8  2  0
  7  5  1  0
  9 10  1  0
 10 20  2  0
 10 11  1  0
 11 12  2  0
 12 13  1  0
 13 14  1  0
 15 14  1  1
 15 16  1  0
 16  7  1  0
 17 15  1  0
 17 21  1  0
 18 17  2  0
 19 13  2  0
 20 19  1  0
 22 21  1  0
 22 30  1  0
 22 23  1  1
 24 23  1  0
 25 24  2  0
 26 25  1  0
 27 26  2  0
 27 28  1  0
 28 29  2  0
 29 24  1  0
 30 32  1  0
 31 30  2  0
M  END
$$$$
