NYF.pdb
     RDKit          3D

 32 33  0  0  1  0  0  0  0  0999 V2000
   11.1491  -20.0156   19.1404 N   0  0  0  0  0  0  0  0  0  0  0  0
   10.5791  -18.9502   18.3761 C   0  0  0  0  0  0  0  0  0  0  0  0
   10.7201  -18.9609   17.1342 O   0  0  0  0  0  0  0  0  0  0  0  0
    9.8293  -17.8531   19.0911 C   0  0  0  0  0  0  0  0  0  0  0  0
    9.9763  -18.1942   20.5840 C   0  0  2  0  0  0  0  0  0  0  0  0
    8.7022  -18.8481   20.9279 N   0  0  0  0  0  0  0  0  0  0  0  0
   10.1396  -16.9712   21.3880 C   0  0  0  0  0  0  0  0  0  0  0  0
   11.3259  -16.5140   21.5108 O   0  0  0  0  0  0  0  0  0  0  0  0
    7.1036  -13.4819   16.8796 O   0  0  0  0  0  0  0  0  0  0  0  0
    7.4198  -13.5663   18.2379 C   0  0  0  0  0  0  0  0  0  0  0  0
    6.8197  -14.5631   18.9794 C   0  0  0  0  0  0  0  0  0  0  0  0
    7.0909  -14.7004   20.3314 C   0  0  0  0  0  0  0  0  0  0  0  0
    7.9738  -13.8333   20.9677 C   0  0  0  0  0  0  0  0  0  0  0  0
    8.2217  -14.0252   22.3914 C   0  0  0  0  0  0  0  0  0  0  0  0
    9.3394  -15.0253   22.6544 C   0  0  2  0  0  0  0  0  0  0  0  0
    9.0793  -16.2830   22.0226 N   0  0  0  0  0  0  0  0  0  0  0  0
    9.3663  -15.2188   24.1247 C   0  0  0  0  0  0  0  0  0  0  0  0
    9.9706  -14.3586   24.8173 O   0  0  0  0  0  0  0  0  0  0  0  0
    8.5562  -12.8561   20.2215 C   0  0  0  0  0  0  0  0  0  0  0  0
    8.2904  -12.7103   18.8585 C   0  0  0  0  0  0  0  0  0  0  0  0
    8.7692  -16.2907   24.8107 N   0  0  0  0  0  0  0  0  0  0  0  0
    8.8536  -16.4823   26.2470 C   0  0  1  0  0  0  0  0  0  0  0  0
    7.5726  -16.1065   26.9287 C   0  0  0  0  0  0  0  0  0  0  0  0
    7.4157  -14.6471   27.0026 C   0  0  0  0  0  0  0  0  0  0  0  0
    6.2295  -14.0873   26.5510 C   0  0  0  0  0  0  0  0  0  0  0  0
    5.9793  -12.7274   26.5784 C   0  0  0  0  0  0  0  0  0  0  0  0
    6.9444  -11.9023   27.0734 C   0  0  0  0  0  0  0  0  0  0  0  0
    8.1332  -12.4542   27.5281 C   0  0  0  0  0  0  0  0  0  0  0  0
    8.3895  -13.8070   27.5034 C   0  0  0  0  0  0  0  0  0  0  0  0
    9.2979  -17.8334   26.5406 C   0  0  0  0  0  0  0  0  0  0  0  0
    9.4253  -18.1803   27.7684 O   0  0  0  0  0  0  0  0  0  0  0  0
    9.5759  -18.7272   25.5271 O   0  0  0  0  0  0  0  0  0  0  0  0
  2  3  2  0
  2  1  1  0
  4  2  1  0
  5  4  1  0
  5  6  1  1
  7  8  2  0
  7  5  1  0
  9 10  1  0
 10 20  2  0
 10 11  1  0
 11 12  2  0
 12 13  1  0
 13 14  1  0
 15 14  1  1
 15 16  1  0
 16  7  1  0
 17 15  1  0
 17 21  1  0
 18 17  2  0
 19 13  2  0
 20 19  1  0
 22 21  1  0
 22 30  1  0
 22 23  1  1
 24 23  1  0
 25 24  2  0
 26 25  1  0
 27 26  2  0
 27 28  1  0
 28 29  2  0
 29 24  1  0
 30 32  1  0
 31 30  2  0
M  END
$$$$
