NYF.pdb
     RDKit          3D

 32 33  0  0  1  0  0  0  0  0999 V2000
   13.7345  -15.7934   18.0135 N   0  0  0  0  0  0  0  0  0  0  0  0
   13.8248  -14.6375   18.8501 C   0  0  0  0  0  0  0  0  0  0  0  0
   14.8602  -13.9392   18.7984 O   0  0  0  0  0  0  0  0  0  0  0  0
   12.6721  -14.3005   19.7638 C   0  0  0  0  0  0  0  0  0  0  0  0
   12.4893  -15.5557   20.6342 C   0  0  2  0  0  0  0  0  0  0  0  0
   11.9035  -16.5457   19.7145 N   0  0  0  0  0  0  0  0  0  0  0  0
   11.5555  -15.2941   21.7425 C   0  0  0  0  0  0  0  0  0  0  0  0
   11.9498  -14.4902   22.6535 O   0  0  0  0  0  0  0  0  0  0  0  0
    7.6124  -12.9153   17.2695 O   0  0  0  0  0  0  0  0  0  0  0  0
    7.7042  -13.4454   18.5590 C   0  0  0  0  0  0  0  0  0  0  0  0
    7.6100  -14.8144   18.7022 C   0  0  0  0  0  0  0  0  0  0  0  0
    7.6932  -15.4026   19.9542 C   0  0  0  0  0  0  0  0  0  0  0  0
    7.8720  -14.6221   21.0922 C   0  0  0  0  0  0  0  0  0  0  0  0
    7.9529  -15.2949   22.3830 C   0  0  0  0  0  0  0  0  0  0  0  0
    9.3854  -15.4107   22.8862 C   0  0  2  0  0  0  0  0  0  0  0  0
   10.2687  -15.8699   21.8577 N   0  0  0  0  0  0  0  0  0  0  0  0
    9.3474  -16.4163   23.9758 C   0  0  0  0  0  0  0  0  0  0  0  0
   10.0517  -17.4511   23.8421 O   0  0  0  0  0  0  0  0  0  0  0  0
    7.9624  -13.2741   20.9327 C   0  0  0  0  0  0  0  0  0  0  0  0
    7.8811  -12.6721   19.6755 C   0  0  0  0  0  0  0  0  0  0  0  0
    8.5843  -16.3070   25.1514 N   0  0  0  0  0  0  0  0  0  0  0  0
    8.6125  -17.2779   26.2299 C   0  0  1  0  0  0  0  0  0  0  0  0
    8.1907  -16.6667   27.5320 C   0  0  0  0  0  0  0  0  0  0  0  0
    9.0104  -15.4919   27.8602 C   0  0  0  0  0  0  0  0  0  0  0  0
    8.5567  -14.2406   27.4690 C   0  0  0  0  0  0  0  0  0  0  0  0
    9.2490  -13.0722   27.7299 C   0  0  0  0  0  0  0  0  0  0  0  0
   10.4307  -13.1576   28.4035 C   0  0  0  0  0  0  0  0  0  0  0  0
   10.8911  -14.4051   28.7993 C   0  0  0  0  0  0  0  0  0  0  0  0
   10.2074  -15.5726   28.5425 C   0  0  0  0  0  0  0  0  0  0  0  0
    7.8430  -18.4523   25.8586 C   0  0  0  0  0  0  0  0  0  0  0  0
    7.1041  -18.3917   24.8125 O   0  0  0  0  0  0  0  0  0  0  0  0
    7.9031  -19.6087   26.6085 O   0  0  0  0  0  0  0  0  0  0  0  0
  2  3  2  0
  2  1  1  0
  4  2  1  0
  5  4  1  0
  5  6  1  6
  7  8  2  0
  7  5  1  0
  9 10  1  0
 10 20  2  0
 10 11  1  0
 11 12  2  0
 12 13  1  0
 13 14  1  0
 15 14  1  6
 15 16  1  0
 16  7  1  0
 17 15  1  0
 17 21  1  0
 18 17  2  0
 19 13  2  0
 20 19  1  0
 22 21  1  0
 22 30  1  0
 22 23  1  1
 24 23  1  0
 25 24  2  0
 26 25  1  0
 27 26  2  0
 27 28  1  0
 28 29  2  0
 29 24  1  0
 30 32  1  0
 31 30  2  0
M  END
$$$$
