NMM.pdb
     RDKit          3D

 25 24  0  0  1  0  0  0  0  0999 V2000
   30.1160  -19.2683  -19.0052 N   0  0  0  0  0  0  0  0  0  0  0  0
   29.7422  -19.9012  -17.7980 C   0  0  0  0  0  0  0  0  0  0  0  0
   30.1173  -21.0743  -17.5653 O   0  0  0  0  0  0  0  0  0  0  0  0
   28.9150  -19.1795  -16.8214 C   0  0  0  0  0  0  0  0  0  0  0  0
   28.0791  -20.1694  -16.0417 C   0  0  2  0  0  0  0  0  0  0  0  0
   27.0995  -20.7445  -16.9150 N   0  0  0  0  0  0  0  0  0  0  0  0
   27.4341  -19.5067  -14.8633 C   0  0  0  0  0  0  0  0  0  0  0  0
   27.2510  -18.2524  -14.9202 O   0  0  0  0  0  0  0  0  0  0  0  0
   21.9468  -19.8579  -14.4350 C   0  0  0  0  0  0  0  0  0  0  0  0
   22.8110  -18.3177  -14.8441 S   0  0  0  0  0  0  0  0  0  0  0  0
   24.4793  -18.3580  -14.1946 C   0  0  0  0  0  0  0  0  0  0  0  0
   24.8265  -19.5929  -13.4732 C   0  0  0  0  0  0  0  0  0  0  0  0
   26.1226  -19.6456  -12.7410 C   0  0  2  0  0  0  0  0  0  0  0  0
   27.0522  -20.2742  -13.7397 N   0  0  0  0  0  0  0  0  0  0  0  0
   26.0775  -20.5007  -11.5563 C   0  0  0  0  0  0  0  0  0  0  0  0
   25.8154  -21.7603  -11.6538 O   0  0  0  0  0  0  0  0  0  0  0  0
   28.4133  -18.6965   -5.9371 C   0  0  0  0  0  0  0  0  0  0  0  0
   27.5430  -20.1513   -5.2847 S   0  0  0  0  0  0  0  0  0  0  0  0
   26.6913  -20.9804   -6.6966 C   0  0  0  0  0  0  0  0  0  0  0  0
   26.8424  -20.1239   -7.9162 C   0  0  0  0  0  0  0  0  0  0  0  0
   26.2334  -20.8735   -9.1236 C   0  0  2  0  0  0  0  0  0  0  0  0
   26.3380  -19.9514  -10.2730 N   0  0  0  0  0  0  0  0  0  0  0  0
   24.8298  -21.2116   -8.9070 C   0  0  0  0  0  0  0  0  0  0  0  0
   24.4888  -22.2993   -8.0991 O   0  0  0  0  0  0  0  0  0  0  0  0
   23.8955  -20.5400   -9.4404 O   0  0  0  0  0  0  0  0  0  0  0  0
  1  2  1  0
  2  4  1  0
  2  3  2  0
  4  5  1  0
  5  7  1  0
  5  6  1  6
  7  8  2  0
 10  9  1  0
 10 11  1  0
 12 11  1  0
 13 12  1  6
 14 13  1  0
 14  7  1  0
 15 16  2  0
 15 13  1  0
 17 18  1  0
 19 18  1  0
 19 20  1  0
 21 20  1  1
 21 22  1  0
 21 23  1  0
 22 15  1  0
 23 24  1  0
 25 23  2  0
M  END
$$$$
