NMM.pdb
     RDKit          3D

 25 24  0  0  1  0  0  0  0  0999 V2000
   27.6853  -21.9065  -18.3992 N   0  0  0  0  0  0  0  0  0  0  0  0
   28.5221  -21.7632  -17.2691 C   0  0  0  0  0  0  0  0  0  0  0  0
   29.6720  -21.2820  -17.4001 O   0  0  0  0  0  0  0  0  0  0  0  0
   28.0387  -22.1796  -15.9456 C   0  0  0  0  0  0  0  0  0  0  0  0
   27.0414  -21.1654  -15.4327 C   0  0  2  0  0  0  0  0  0  0  0  0
   27.6847  -19.8896  -15.3256 N   0  0  0  0  0  0  0  0  0  0  0  0
   26.4727  -21.5993  -14.1166 C   0  0  0  0  0  0  0  0  0  0  0  0
   25.9276  -22.7437  -14.0591 O   0  0  0  0  0  0  0  0  0  0  0  0
   26.4951  -20.5205   -6.3716 C   0  0  0  0  0  0  0  0  0  0  0  0
   27.2251  -20.2395   -8.0071 S   0  0  0  0  0  0  0  0  0  0  0  0
   26.0729  -20.7306   -9.2869 C   0  0  0  0  0  0  0  0  0  0  0  0
   26.6215  -20.6948  -10.6521 C   0  0  0  0  0  0  0  0  0  0  0  0
   25.7379  -21.0969  -11.7819 C   0  0  2  0  0  0  0  0  0  0  0  0
   26.5535  -20.7454  -12.9934 N   0  0  0  0  0  0  0  0  0  0  0  0
   24.4907  -20.3363  -11.8332 C   0  0  0  0  0  0  0  0  0  0  0  0
   24.4872  -19.0830  -12.1397 O   0  0  0  0  0  0  0  0  0  0  0  0
   20.0627  -19.8590  -17.2822 C   0  0  0  0  0  0  0  0  0  0  0  0
   21.5492  -20.3448  -16.3583 S   0  0  0  0  0  0  0  0  0  0  0  0
   21.1666  -20.2054  -14.5582 C   0  0  0  0  0  0  0  0  0  0  0  0
   22.3821  -20.6032  -13.7784 C   0  0  0  0  0  0  0  0  0  0  0  0
   22.0673  -20.4664  -12.2708 C   0  0  2  0  0  0  0  0  0  0  0  0
   23.2547  -20.9785  -11.5566 N   0  0  0  0  0  0  0  0  0  0  0  0
   20.8992  -21.2508  -11.8819 C   0  0  0  0  0  0  0  0  0  0  0  0
   21.0059  -22.6353  -11.7275 O   0  0  0  0  0  0  0  0  0  0  0  0
   19.7717  -20.7064  -11.6797 O   0  0  0  0  0  0  0  0  0  0  0  0
  1  2  1  0
  2  4  1  0
  2  3  2  0
  4  5  1  0
  5  7  1  0
  5  6  1  1
  7  8  2  0
 10  9  1  0
 10 11  1  0
 12 11  1  0
 13 12  1  1
 14 13  1  0
 14  7  1  0
 15 16  2  0
 15 13  1  0
 17 18  1  0
 19 18  1  0
 19 20  1  0
 21 20  1  6
 21 22  1  0
 21 23  1  0
 22 15  1  0
 23 24  1  0
 25 23  2  0
M  END
$$$$
