NMM.pdb
     RDKit          3D

 25 24  0  0  1  0  0  0  0  0999 V2000
   22.9799  -13.9975  -18.9613 N   0  0  0  0  0  0  0  0  0  0  0  0
   23.3205  -12.8047  -19.6388 C   0  0  0  0  0  0  0  0  0  0  0  0
   24.4005  -12.7316  -20.2708 O   0  0  0  0  0  0  0  0  0  0  0  0
   22.4055  -11.6557  -19.5984 C   0  0  0  0  0  0  0  0  0  0  0  0
   21.2183  -11.9892  -18.7235 C   0  0  2  0  0  0  0  0  0  0  0  0
   20.2843  -12.7694  -19.4799 N   0  0  0  0  0  0  0  0  0  0  0  0
   20.5811  -10.7405  -18.1956 C   0  0  0  0  0  0  0  0  0  0  0  0
   20.0387   -9.9567  -19.0331 O   0  0  0  0  0  0  0  0  0  0  0  0
   17.3625  -12.1200  -13.8124 C   0  0  0  0  0  0  0  0  0  0  0  0
   16.4972  -10.7936  -14.6947 S   0  0  0  0  0  0  0  0  0  0  0  0
   17.5908  -10.0386  -15.8949 C   0  0  0  0  0  0  0  0  0  0  0  0
   18.9203   -9.6823  -15.3738 C   0  0  0  0  0  0  0  0  0  0  0  0
   19.9514   -9.1979  -16.3335 C   0  0  2  0  0  0  0  0  0  0  0  0
   20.5972  -10.4682  -16.8089 N   0  0  0  0  0  0  0  0  0  0  0  0
   20.9782   -8.3706  -15.7027 C   0  0  0  0  0  0  0  0  0  0  0  0
   21.8188   -8.8764  -14.8645 O   0  0  0  0  0  0  0  0  0  0  0  0
   25.0355   -4.2796  -18.4850 C   0  0  0  0  0  0  0  0  0  0  0  0
   24.4628   -3.2823  -17.0790 S   0  0  0  0  0  0  0  0  0  0  0  0
   23.7937   -4.4358  -15.8032 C   0  0  0  0  0  0  0  0  0  0  0  0
   22.7286   -5.2801  -16.4330 C   0  0  0  0  0  0  0  0  0  0  0  0
   22.1517   -6.2294  -15.3574 C   0  0  2  0  0  0  0  0  0  0  0  0
   21.0716   -6.9895  -16.0191 N   0  0  0  0  0  0  0  0  0  0  0  0
   21.5968   -5.4981  -14.2223 C   0  0  0  0  0  0  0  0  0  0  0  0
   22.4088   -5.1793  -13.1310 O   0  0  0  0  0  0  0  0  0  0  0  0
   20.3804   -5.1403  -14.1940 O   0  0  0  0  0  0  0  0  0  0  0  0
  1  2  1  0
  2  4  1  0
  2  3  2  0
  4  5  1  0
  5  7  1  0
  5  6  1  6
  7  8  2  0
 10  9  1  0
 10 11  1  0
 12 11  1  0
 13 12  1  1
 14 13  1  0
 14  7  1  0
 15 16  2  0
 15 13  1  0
 17 18  1  0
 19 18  1  0
 19 20  1  0
 21 20  1  6
 21 22  1  0
 21 23  1  0
 22 15  1  0
 23 24  1  0
 25 23  2  0
M  END
$$$$
