NMM.pdb
     RDKit          3D

 25 24  0  0  1  0  0  0  0  0999 V2000
   21.6761   -8.0524  -18.9788 N   0  0  0  0  0  0  0  0  0  0  0  0
   22.0839   -9.4048  -18.9266 C   0  0  0  0  0  0  0  0  0  0  0  0
   21.4384  -10.2257  -18.2334 O   0  0  0  0  0  0  0  0  0  0  0  0
   23.2636   -9.8411  -19.6860 C   0  0  0  0  0  0  0  0  0  0  0  0
   23.6799  -11.2182  -19.2206 C   0  0  2  0  0  0  0  0  0  0  0  0
   23.0593  -11.4928  -17.9586 N   0  0  0  0  0  0  0  0  0  0  0  0
   25.1715  -11.3176  -19.1256 C   0  0  0  0  0  0  0  0  0  0  0  0
   25.8469  -11.0530  -20.1668 O   0  0  0  0  0  0  0  0  0  0  0  0
   31.7102   -9.1810  -17.7540 C   0  0  0  0  0  0  0  0  0  0  0  0
   29.9153   -9.2546  -17.9978 S   0  0  0  0  0  0  0  0  0  0  0  0
   29.2052  -10.5259  -16.9556 C   0  0  0  0  0  0  0  0  0  0  0  0
   27.7540  -10.7105  -17.1164 C   0  0  0  0  0  0  0  0  0  0  0  0
   27.2707  -11.8848  -17.8949 C   0  0  2  0  0  0  0  0  0  0  0  0
   25.7807  -11.6949  -17.9075 N   0  0  0  0  0  0  0  0  0  0  0  0
   27.5639  -13.1621  -17.2473 C   0  0  0  0  0  0  0  0  0  0  0  0
   28.7793  -13.5671  -17.0933 O   0  0  0  0  0  0  0  0  0  0  0  0
   26.8528  -19.5780  -13.2069 C   0  0  0  0  0  0  0  0  0  0  0  0
   26.7345  -17.7685  -13.3122 S   0  0  0  0  0  0  0  0  0  0  0  0
   26.6954  -17.3078  -15.0989 C   0  0  0  0  0  0  0  0  0  0  0  0
   26.6825  -15.8138  -15.2076 C   0  0  0  0  0  0  0  0  0  0  0  0
   26.7563  -15.4276  -16.7030 C   0  0  2  0  0  0  0  0  0  0  0  0
   26.5038  -13.9734  -16.7631 N   0  0  0  0  0  0  0  0  0  0  0  0
   25.7482  -16.1221  -17.4983 C   0  0  0  0  0  0  0  0  0  0  0  0
   24.7274  -15.3989  -18.1203 O   0  0  0  0  0  0  0  0  0  0  0  0
   25.7686  -17.3821  -17.6419 O   0  0  0  0  0  0  0  0  0  0  0  0
  1  2  1  0
  2  4  1  0
  2  3  2  0
  4  5  1  0
  5  7  1  0
  5  6  1  1
  7  8  2  0
 10  9  1  0
 10 11  1  0
 12 11  1  0
 13 12  1  1
 14 13  1  0
 14  7  1  0
 15 16  2  0
 15 13  1  0
 17 18  1  0
 19 18  1  0
 19 20  1  0
 21 20  1  1
 21 22  1  0
 21 23  1  0
 22 15  1  0
 23 24  1  0
 25 23  2  0
M  END
$$$$
