NMM.pdb
     RDKit          3D

 25 24  0  0  1  0  0  0  0  0999 V2000
   15.7783   -9.5795  -16.7114 N   0  0  0  0  0  0  0  0  0  0  0  0
   14.7115   -9.0311  -15.9635 C   0  0  0  0  0  0  0  0  0  0  0  0
   13.6464   -8.7071  -16.5394 O   0  0  0  0  0  0  0  0  0  0  0  0
   14.8574   -8.8436  -14.5135 C   0  0  0  0  0  0  0  0  0  0  0  0
   16.2360   -9.2930  -14.0849 C   0  0  2  0  0  0  0  0  0  0  0  0
   16.2514  -10.7221  -13.9824 N   0  0  0  0  0  0  0  0  0  0  0  0
   16.6237   -8.6512  -12.7881 C   0  0  0  0  0  0  0  0  0  0  0  0
   16.0067   -9.0180  -11.7417 O   0  0  0  0  0  0  0  0  0  0  0  0
   22.2176   -6.4798  -13.6211 C   0  0  0  0  0  0  0  0  0  0  0  0
   22.1801   -7.2924  -12.0010 S   0  0  0  0  0  0  0  0  0  0  0  0
   20.5170   -7.8409  -11.6270 C   0  0  0  0  0  0  0  0  0  0  0  0
   19.5013   -6.7760  -11.6472 C   0  0  0  0  0  0  0  0  0  0  0  0
   18.0777   -7.1498  -11.4186 C   0  0  2  0  0  0  0  0  0  0  0  0
   17.6442   -7.6738  -12.7580 N   0  0  0  0  0  0  0  0  0  0  0  0
   17.2322   -6.0068  -11.0787 C   0  0  0  0  0  0  0  0  0  0  0  0
   16.7135   -5.2654  -11.9986 O   0  0  0  0  0  0  0  0  0  0  0  0
   12.1724   -3.0640   -5.9326 C   0  0  0  0  0  0  0  0  0  0  0  0
   13.2861   -4.4322   -6.3650 S   0  0  0  0  0  0  0  0  0  0  0  0
   14.2422   -3.9311   -7.8619 C   0  0  0  0  0  0  0  0  0  0  0  0
   15.1684   -5.0481   -8.2342 C   0  0  0  0  0  0  0  0  0  0  0  0
   15.9996   -4.6106   -9.4625 C   0  0  2  0  0  0  0  0  0  0  0  0
   16.9585   -5.7048   -9.7185 N   0  0  0  0  0  0  0  0  0  0  0  0
   16.7373   -3.3759   -9.2129 C   0  0  0  0  0  0  0  0  0  0  0  0
   16.1018   -2.1400   -9.3566 O   0  0  0  0  0  0  0  0  0  0  0  0
   17.9575   -3.3902   -8.8673 O   0  0  0  0  0  0  0  0  0  0  0  0
  1  2  1  0
  2  4  1  0
  2  3  2  0
  4  5  1  0
  5  7  1  0
  5  6  1  1
  7  8  2  0
 10  9  1  0
 10 11  1  0
 12 11  1  0
 13 12  1  6
 14 13  1  0
 14  7  1  0
 15 16  2  0
 15 13  1  0
 17 18  1  0
 19 18  1  0
 19 20  1  0
 21 20  1  1
 21 22  1  0
 21 23  1  0
 22 15  1  0
 23 24  1  0
 25 23  2  0
M  END
$$$$
