NMM.pdb
     RDKit          3D

 25 24  0  0  1  0  0  0  0  0999 V2000
   22.4819  -15.6607  -19.0669 N   0  0  0  0  0  0  0  0  0  0  0  0
   21.8510  -14.4049  -19.2179 C   0  0  0  0  0  0  0  0  0  0  0  0
   21.2749  -14.1204  -20.2941 O   0  0  0  0  0  0  0  0  0  0  0  0
   21.8742  -13.4388  -18.1111 C   0  0  0  0  0  0  0  0  0  0  0  0
   21.7645  -12.0364  -18.6657 C   0  0  2  0  0  0  0  0  0  0  0  0
   22.8729  -11.7912  -19.5399 N   0  0  0  0  0  0  0  0  0  0  0  0
   21.7139  -11.0302  -17.5572 C   0  0  0  0  0  0  0  0  0  0  0  0
   20.7891  -11.1481  -16.6965 O   0  0  0  0  0  0  0  0  0  0  0  0
   27.1078   -9.4352  -16.1438 C   0  0  0  0  0  0  0  0  0  0  0  0
   26.1168  -10.5861  -15.1540 S   0  0  0  0  0  0  0  0  0  0  0  0
   24.4910   -9.8974  -14.8556 C   0  0  0  0  0  0  0  0  0  0  0  0
   24.0252   -8.9565  -15.8869 C   0  0  0  0  0  0  0  0  0  0  0  0
   22.6075   -9.0418  -16.3360 C   0  0  2  0  0  0  0  0  0  0  0  0
   22.6745   -9.9953  -17.4948 N   0  0  0  0  0  0  0  0  0  0  0  0
   22.0823   -7.7671  -16.8219 C   0  0  0  0  0  0  0  0  0  0  0  0
   22.6027   -7.1793  -17.8459 O   0  0  0  0  0  0  0  0  0  0  0  0
   16.5514   -6.2224  -20.4332 C   0  0  0  0  0  0  0  0  0  0  0  0
   16.8684   -6.0998  -18.6489 S   0  0  0  0  0  0  0  0  0  0  0  0
   18.6969   -6.0632  -18.4010 C   0  0  0  0  0  0  0  0  0  0  0  0
   18.9797   -6.0251  -16.9304 C   0  0  0  0  0  0  0  0  0  0  0  0
   20.5048   -5.8741  -16.7254 C   0  0  2  0  0  0  0  0  0  0  0  0
   20.9731   -7.1620  -16.1738 N   0  0  0  0  0  0  0  0  0  0  0  0
   20.8278   -4.8047  -15.7856 C   0  0  0  0  0  0  0  0  0  0  0  0
   21.1071   -3.5196  -16.2572 O   0  0  0  0  0  0  0  0  0  0  0  0
   20.8666   -5.0100  -14.5347 O   0  0  0  0  0  0  0  0  0  0  0  0
  1  2  1  0
  2  4  1  0
  2  3  2  0
  4  5  1  0
  5  7  1  0
  5  6  1  6
  7  8  2  0
 10  9  1  0
 10 11  1  0
 12 11  1  0
 13 12  1  6
 14 13  1  0
 14  7  1  0
 15 16  2  0
 15 13  1  0
 17 18  1  0
 19 18  1  0
 19 20  1  0
 21 20  1  1
 21 22  1  0
 21 23  1  0
 22 15  1  0
 23 24  1  0
 25 23  2  0
M  END
$$$$
