NMM.pdb
     RDKit          3D

 25 24  0  0  1  0  0  0  0  0999 V2000
   27.5253  -22.4506  -16.9149 N   0  0  0  0  0  0  0  0  0  0  0  0
   28.4629  -22.0968  -15.9180 C   0  0  0  0  0  0  0  0  0  0  0  0
   29.6208  -22.5756  -15.9512 O   0  0  0  0  0  0  0  0  0  0  0  0
   28.0744  -21.1687  -14.8472 C   0  0  0  0  0  0  0  0  0  0  0  0
   26.5852  -20.9166  -14.9164 C   0  0  2  0  0  0  0  0  0  0  0  0
   26.3033  -20.0875  -16.0504 N   0  0  0  0  0  0  0  0  0  0  0  0
   26.0943  -20.2880  -13.6484 C   0  0  0  0  0  0  0  0  0  0  0  0
   26.3820  -19.0689  -13.4456 O   0  0  0  0  0  0  0  0  0  0  0  0
   20.1162  -20.0659  -10.8223 C   0  0  0  0  0  0  0  0  0  0  0  0
   20.7612  -20.4373  -12.4753 S   0  0  0  0  0  0  0  0  0  0  0  0
   22.4999  -20.0180  -12.5650 C   0  0  0  0  0  0  0  0  0  0  0  0
   23.3428  -20.6801  -11.5566 C   0  0  0  0  0  0  0  0  0  0  0  0
   24.7939  -20.3460  -11.5156 C   0  0  2  0  0  0  0  0  0  0  0  0
   25.3390  -21.0479  -12.7267 N   0  0  0  0  0  0  0  0  0  0  0  0
   25.4715  -20.8778  -10.3346 C   0  0  0  0  0  0  0  0  0  0  0  0
   25.6798  -22.1441  -10.2001 O   0  0  0  0  0  0  0  0  0  0  0  0
   27.5574  -17.5210   -4.6393 C   0  0  0  0  0  0  0  0  0  0  0  0
   28.7737  -18.7290   -5.2398 S   0  0  0  0  0  0  0  0  0  0  0  0
   27.8549  -20.0677   -6.1171 C   0  0  0  0  0  0  0  0  0  0  0  0
   27.3138  -19.5152   -7.4000 C   0  0  0  0  0  0  0  0  0  0  0  0
   26.4920  -20.6192   -8.1046 C   0  0  2  0  0  0  0  0  0  0  0  0
   25.9251  -19.9961   -9.3181 N   0  0  0  0  0  0  0  0  0  0  0  0
   25.4034  -21.1113   -7.2656 C   0  0  0  0  0  0  0  0  0  0  0  0
   25.6674  -22.0231   -6.2404 O   0  0  0  0  0  0  0  0  0  0  0  0
   24.2058  -20.7334   -7.4432 O   0  0  0  0  0  0  0  0  0  0  0  0
  1  2  1  0
  2  4  1  0
  2  3  2  0
  4  5  1  0
  5  7  1  0
  5  6  1  6
  7  8  2  0
 10  9  1  0
 10 11  1  0
 12 11  1  0
 13 12  1  1
 14 13  1  0
 14  7  1  0
 15 16  2  0
 15 13  1  0
 17 18  1  0
 19 18  1  0
 19 20  1  0
 21 20  1  1
 21 22  1  0
 21 23  1  0
 22 15  1  0
 23 24  1  0
 25 23  2  0
M  END
$$$$
