NMM.pdb
     RDKit          3D

 25 24  0  0  1  0  0  0  0  0999 V2000
   27.2367  -23.8201  -16.0439 N   0  0  0  0  0  0  0  0  0  0  0  0
   26.7201  -22.6151  -15.5157 C   0  0  0  0  0  0  0  0  0  0  0  0
   27.1498  -21.5145  -15.9343 O   0  0  0  0  0  0  0  0  0  0  0  0
   25.6811  -22.6594  -14.4778 C   0  0  0  0  0  0  0  0  0  0  0  0
   24.3198  -22.5314  -15.1235 C   0  0  2  0  0  0  0  0  0  0  0  0
   24.2359  -21.2664  -15.7910 N   0  0  0  0  0  0  0  0  0  0  0  0
   23.2329  -22.6807  -14.1036 C   0  0  0  0  0  0  0  0  0  0  0  0
   23.1803  -23.7695  -13.4541 O   0  0  0  0  0  0  0  0  0  0  0  0
   21.4403  -18.9068   -9.1530 C   0  0  0  0  0  0  0  0  0  0  0  0
   20.0548  -18.8453  -10.3206 S   0  0  0  0  0  0  0  0  0  0  0  0
   19.9775  -20.3661  -11.2629 C   0  0  0  0  0  0  0  0  0  0  0  0
   21.1175  -20.5852  -12.1676 C   0  0  0  0  0  0  0  0  0  0  0  0
   21.1863  -21.8666  -12.9238 C   0  0  2  0  0  0  0  0  0  0  0  0
   22.3110  -21.6308  -13.8913 N   0  0  0  0  0  0  0  0  0  0  0  0
   19.9736  -22.1456  -13.6908 C   0  0  0  0  0  0  0  0  0  0  0  0
   19.7598  -21.5764  -14.8289 O   0  0  0  0  0  0  0  0  0  0  0  0
   16.6337  -27.4560  -13.1900 C   0  0  0  0  0  0  0  0  0  0  0  0
   15.2805  -26.5110  -13.9485 S   0  0  0  0  0  0  0  0  0  0  0  0
   15.9182  -24.8232  -14.3367 C   0  0  0  0  0  0  0  0  0  0  0  0
   17.2055  -24.6167  -13.5990 C   0  0  0  0  0  0  0  0  0  0  0  0
   17.7829  -23.2371  -13.9917 C   0  0  2  0  0  0  0  0  0  0  0  0
   19.0138  -23.0662  -13.1931 N   0  0  0  0  0  0  0  0  0  0  0  0
   16.8585  -22.1494  -13.6857 C   0  0  0  0  0  0  0  0  0  0  0  0
   16.0342  -21.6292  -14.6868 O   0  0  0  0  0  0  0  0  0  0  0  0
   16.7814  -21.6518  -12.5217 O   0  0  0  0  0  0  0  0  0  0  0  0
  1  2  1  0
  2  4  1  0
  2  3  2  0
  4  5  1  0
  5  7  1  0
  5  6  1  1
  7  8  2  0
 10  9  1  0
 10 11  1  0
 12 11  1  0
 13 12  1  6
 14 13  1  0
 14  7  1  0
 15 16  2  0
 15 13  1  0
 17 18  1  0
 19 18  1  0
 19 20  1  0
 21 20  1  1
 21 22  1  0
 21 23  1  0
 22 15  1  0
 23 24  1  0
 25 23  2  0
M  END
$$$$
