NMM.pdb
     RDKit          3D

 25 24  0  0  1  0  0  0  0  0999 V2000
   13.2320  -10.5824  -16.4803 N   0  0  0  0  0  0  0  0  0  0  0  0
   14.4558   -9.9485  -16.1664 C   0  0  0  0  0  0  0  0  0  0  0  0
   14.9940   -9.1818  -16.9992 O   0  0  0  0  0  0  0  0  0  0  0  0
   15.0908  -10.1922  -14.8640 C   0  0  0  0  0  0  0  0  0  0  0  0
   16.5917  -10.2463  -15.0389 C   0  0  2  0  0  0  0  0  0  0  0  0
   16.9701  -11.5735  -15.4243 N   0  0  0  0  0  0  0  0  0  0  0  0
   17.2878   -9.8266  -13.7807 C   0  0  0  0  0  0  0  0  0  0  0  0
   17.4436  -10.7007  -12.8741 O   0  0  0  0  0  0  0  0  0  0  0  0
   22.6706   -6.9242  -13.5059 C   0  0  0  0  0  0  0  0  0  0  0  0
   21.8745   -5.9487  -12.2016 S   0  0  0  0  0  0  0  0  0  0  0  0
   20.3968   -6.7812  -11.6269 C   0  0  0  0  0  0  0  0  0  0  0  0
   19.5773   -7.3804  -12.6923 C   0  0  0  0  0  0  0  0  0  0  0  0
   18.3292   -8.0971  -12.3084 C   0  0  2  0  0  0  0  0  0  0  0  0
   17.7455   -8.4977  -13.6333 N   0  0  0  0  0  0  0  0  0  0  0  0
   17.3635   -7.2401  -11.6231 C   0  0  0  0  0  0  0  0  0  0  0  0
   16.7065   -6.3326  -12.2633 O   0  0  0  0  0  0  0  0  0  0  0  0
   11.5017   -6.7086   -6.7506 C   0  0  0  0  0  0  0  0  0  0  0  0
   12.7617   -7.7452   -7.5488 S   0  0  0  0  0  0  0  0  0  0  0  0
   14.0262   -6.6256   -8.2929 C   0  0  0  0  0  0  0  0  0  0  0  0
   15.0973   -7.4637   -8.9207 C   0  0  0  0  0  0  0  0  0  0  0  0
   16.1068   -6.5276   -9.6246 C   0  0  2  0  0  0  0  0  0  0  0  0
   17.1253   -7.4076  -10.2333 N   0  0  0  0  0  0  0  0  0  0  0  0
   16.7580   -5.6193   -8.6855 C   0  0  0  0  0  0  0  0  0  0  0  0
   16.2232   -4.3492   -8.4555 O   0  0  0  0  0  0  0  0  0  0  0  0
   17.8128   -5.9511   -8.0644 O   0  0  0  0  0  0  0  0  0  0  0  0
  1  2  1  0
  2  4  1  0
  2  3  2  0
  4  5  1  0
  5  7  1  0
  5  6  1  1
  7  8  2  0
 10  9  1  0
 10 11  1  0
 12 11  1  0
 13 12  1  6
 14 13  1  0
 14  7  1  0
 15 16  2  0
 15 13  1  0
 17 18  1  0
 19 18  1  0
 19 20  1  0
 21 20  1  1
 21 22  1  0
 21 23  1  0
 22 15  1  0
 23 24  1  0
 25 23  2  0
M  END
$$$$
