NMM.pdb
     RDKit          3D

 25 24  0  0  1  0  0  0  0  0999 V2000
   16.5995  -22.8489  -11.6844 N   0  0  0  0  0  0  0  0  0  0  0  0
   17.9758  -23.1016  -11.8842 C   0  0  0  0  0  0  0  0  0  0  0  0
   18.3841  -24.2810  -11.9997 O   0  0  0  0  0  0  0  0  0  0  0  0
   18.9211  -21.9790  -11.9553 C   0  0  0  0  0  0  0  0  0  0  0  0
   20.0997  -22.2563  -11.0496 C   0  0  2  0  0  0  0  0  0  0  0  0
   19.6600  -22.2230   -9.6863 N   0  0  0  0  0  0  0  0  0  0  0  0
   21.1980  -21.2666  -11.2905 C   0  0  0  0  0  0  0  0  0  0  0  0
   20.8695  -20.1076  -11.6890 O   0  0  0  0  0  0  0  0  0  0  0  0
   26.0699  -21.2131   -7.4587 C   0  0  0  0  0  0  0  0  0  0  0  0
   26.4296  -19.7873   -8.5190 S   0  0  0  0  0  0  0  0  0  0  0  0
   25.8346  -20.0915  -10.1804 C   0  0  0  0  0  0  0  0  0  0  0  0
   24.6189  -20.9176  -10.2544 C   0  0  0  0  0  0  0  0  0  0  0  0
   23.6046  -20.5945  -11.2963 C   0  0  2  0  0  0  0  0  0  0  0  0
   22.5449  -21.6358  -11.0741 N   0  0  0  0  0  0  0  0  0  0  0  0
   24.1142  -20.7434  -12.6582 C   0  0  0  0  0  0  0  0  0  0  0  0
   24.3891  -21.9071  -13.1429 O   0  0  0  0  0  0  0  0  0  0  0  0
   22.1675  -18.6083  -18.3105 C   0  0  0  0  0  0  0  0  0  0  0  0
   21.3704  -19.7549  -17.1489 S   0  0  0  0  0  0  0  0  0  0  0  0
   22.6659  -20.3785  -15.9918 C   0  0  0  0  0  0  0  0  0  0  0  0
   23.6897  -19.3028  -15.7952 C   0  0  0  0  0  0  0  0  0  0  0  0
   24.7904  -19.8367  -14.8495 C   0  0  2  0  0  0  0  0  0  0  0  0
   24.3013  -19.5978  -13.4762 N   0  0  0  0  0  0  0  0  0  0  0  0
   26.0582  -19.1372  -15.0349 C   0  0  0  0  0  0  0  0  0  0  0  0
   26.8647  -19.4309  -16.1373 O   0  0  0  0  0  0  0  0  0  0  0  0
   26.4584  -18.2594  -14.2115 O   0  0  0  0  0  0  0  0  0  0  0  0
  1  2  1  0
  2  4  1  0
  2  3  2  0
  4  5  1  0
  5  7  1  0
  5  6  1  1
  7  8  2  0
 10  9  1  0
 10 11  1  0
 12 11  1  0
 13 12  1  1
 14 13  1  0
 14  7  1  0
 15 16  2  0
 15 13  1  0
 17 18  1  0
 19 18  1  0
 19 20  1  0
 21 20  1  6
 21 22  1  0
 21 23  1  0
 22 15  1  0
 23 24  1  0
 25 23  2  0
M  END
$$$$
