NMM.pdb
     RDKit          3D

 25 24  0  0  1  0  0  0  0  0999 V2000
   28.9187  -20.7618  -17.3354 N   0  0  0  0  0  0  0  0  0  0  0  0
   28.8007  -22.1153  -16.9454 C   0  0  0  0  0  0  0  0  0  0  0  0
   29.4198  -23.0037  -17.5768 O   0  0  0  0  0  0  0  0  0  0  0  0
   27.9520  -22.4737  -15.8008 C   0  0  0  0  0  0  0  0  0  0  0  0
   27.3114  -21.2244  -15.2395 C   0  0  2  0  0  0  0  0  0  0  0  0
   28.3354  -20.2687  -14.9378 N   0  0  0  0  0  0  0  0  0  0  0  0
   26.4944  -21.5467  -14.0260 C   0  0  0  0  0  0  0  0  0  0  0  0
   25.6653  -22.5034  -14.1112 O   0  0  0  0  0  0  0  0  0  0  0  0
   25.9662  -20.0978   -6.2851 C   0  0  0  0  0  0  0  0  0  0  0  0
   26.8323  -19.9021   -7.8656 S   0  0  0  0  0  0  0  0  0  0  0  0
   25.8474  -20.5872   -9.1950 C   0  0  0  0  0  0  0  0  0  0  0  0
   26.5013  -20.5712  -10.5133 C   0  0  0  0  0  0  0  0  0  0  0  0
   25.7448  -21.0916  -11.6863 C   0  0  2  0  0  0  0  0  0  0  0  0
   26.6604  -20.7963  -12.8399 N   0  0  0  0  0  0  0  0  0  0  0  0
   24.4828  -20.3893  -11.9120 C   0  0  0  0  0  0  0  0  0  0  0  0
   24.4383  -19.3103  -12.6182 O   0  0  0  0  0  0  0  0  0  0  0  0
   22.6280  -21.7573  -16.4398 C   0  0  0  0  0  0  0  0  0  0  0  0
   20.9516  -22.0357  -15.7981 S   0  0  0  0  0  0  0  0  0  0  0  0
   20.8227  -21.1838  -14.1660 C   0  0  0  0  0  0  0  0  0  0  0  0
   22.1164  -21.3587  -13.4314 C   0  0  0  0  0  0  0  0  0  0  0  0
   22.0316  -20.5888  -12.0932 C   0  0  2  0  0  0  0  0  0  0  0  0
   23.2771  -20.8998  -11.3624 N   0  0  0  0  0  0  0  0  0  0  0  0
   20.8873  -21.0102  -11.2906 C   0  0  0  0  0  0  0  0  0  0  0  0
   19.6450  -20.3958  -11.4666 O   0  0  0  0  0  0  0  0  0  0  0  0
   20.9882  -21.9291  -10.4223 O   0  0  0  0  0  0  0  0  0  0  0  0
  1  2  1  0
  2  4  1  0
  2  3  2  0
  4  5  1  0
  5  7  1  0
  5  6  1  1
  7  8  2  0
 10  9  1  0
 10 11  1  0
 12 11  1  0
 13 12  1  1
 14 13  1  0
 14  7  1  0
 15 16  2  0
 15 13  1  0
 17 18  1  0
 19 18  1  0
 19 20  1  0
 21 20  1  6
 21 22  1  0
 21 23  1  0
 22 15  1  0
 23 24  1  0
 25 23  2  0
M  END
$$$$
