NMM.pdb
     RDKit          3D

 25 24  0  0  1  0  0  0  0  0999 V2000
   28.1813  -16.9560  -17.9255 N   0  0  0  0  0  0  0  0  0  0  0  0
   29.0556  -18.0076  -17.5682 C   0  0  0  0  0  0  0  0  0  0  0  0
   30.1975  -18.0723  -18.0811 O   0  0  0  0  0  0  0  0  0  0  0  0
   28.6205  -19.0202  -16.5965 C   0  0  0  0  0  0  0  0  0  0  0  0
   27.1623  -18.8017  -16.2619 C   0  0  2  0  0  0  0  0  0  0  0  0
   27.0263  -17.5676  -15.5466 N   0  0  0  0  0  0  0  0  0  0  0  0
   26.6221  -19.9518  -15.4685 C   0  0  0  0  0  0  0  0  0  0  0  0
   26.7569  -21.1167  -15.9534 O   0  0  0  0  0  0  0  0  0  0  0  0
   26.8821  -21.0470   -9.1394 C   0  0  0  0  0  0  0  0  0  0  0  0
   28.1916  -20.8627  -10.3796 S   0  0  0  0  0  0  0  0  0  0  0  0
   27.5175  -21.0886  -12.0231 C   0  0  0  0  0  0  0  0  0  0  0  0
   26.0816  -20.7890  -12.1432 C   0  0  0  0  0  0  0  0  0  0  0  0
   25.4426  -20.9067  -13.4836 C   0  0  2  0  0  0  0  0  0  0  0  0
   25.9889  -19.7208  -14.2264 N   0  0  0  0  0  0  0  0  0  0  0  0
   23.9865  -20.7867  -13.4371 C   0  0  0  0  0  0  0  0  0  0  0  0
   23.4137  -19.6305  -13.4255 O   0  0  0  0  0  0  0  0  0  0  0  0
   21.5827  -19.5036   -9.3931 C   0  0  0  0  0  0  0  0  0  0  0  0
   19.9435  -19.6506  -10.1617 S   0  0  0  0  0  0  0  0  0  0  0  0
   20.1203  -20.6918  -11.6752 C   0  0  0  0  0  0  0  0  0  0  0  0
   21.5789  -20.8628  -11.9706 C   0  0  0  0  0  0  0  0  0  0  0  0
   21.7265  -21.7509  -13.2278 C   0  0  2  0  0  0  0  0  0  0  0  0
   23.1774  -21.9534  -13.4177 N   0  0  0  0  0  0  0  0  0  0  0  0
   21.1722  -21.1121  -14.4177 C   0  0  0  0  0  0  0  0  0  0  0  0
   22.0251  -20.6036  -15.4004 O   0  0  0  0  0  0  0  0  0  0  0  0
   19.9205  -20.9996  -14.5883 O   0  0  0  0  0  0  0  0  0  0  0  0
  1  2  1  0
  2  4  1  0
  2  3  2  0
  4  5  1  0
  5  7  1  0
  5  6  1  1
  7  8  2  0
 10  9  1  0
 10 11  1  0
 12 11  1  0
 13 12  1  1
 14 13  1  0
 14  7  1  0
 15 16  2  0
 15 13  1  0
 17 18  1  0
 19 18  1  0
 19 20  1  0
 21 20  1  1
 21 22  1  0
 21 23  1  0
 22 15  1  0
 23 24  1  0
 25 23  2  0
M  END
$$$$
