SFC.pdb
     RDKit          3D

 24 24  0  0  1  0  0  0  0  0999 V2000
    8.3902  -19.6933   21.1061 O   0  0  0  0  0  0  0  0  0  0  0  0
    7.1315  -19.2160   20.7866 C   0  0  0  0  0  0  0  0  0  0  0  0
    7.2270  -17.7884   20.3172 C   0  0  2  0  0  0  0  0  0  0  0  0
    8.0096  -17.6227   19.1336 N   0  0  0  0  0  0  0  0  0  0  0  0
    7.8362  -16.9927   21.4093 C   0  0  0  0  0  0  0  0  0  0  0  0
    9.0466  -16.6819   21.3947 O   0  0  0  0  0  0  0  0  0  0  0  0
    7.0591  -16.5582   22.5089 N   0  0  0  0  0  0  0  0  0  0  0  0
    7.6093  -15.7040   23.5727 C   0  0  1  0  0  0  0  0  0  0  0  0
    6.4160  -14.9716   24.1480 C   0  0  0  0  0  0  0  0  0  0  0  0
    6.7986  -14.0304   25.2116 C   0  0  0  0  0  0  0  0  0  0  0  0
    7.4241  -12.8474   24.8350 C   0  0  0  0  0  0  0  0  0  0  0  0
    7.7828  -11.9583   25.8265 C   0  0  0  0  0  0  0  0  0  0  0  0
    7.5130  -12.2683   27.1361 C   0  0  0  0  0  0  0  0  0  0  0  0
    6.8946  -13.4387   27.5031 C   0  0  0  0  0  0  0  0  0  0  0  0
    6.5295  -14.3404   26.5128 C   0  0  0  0  0  0  0  0  0  0  0  0
    8.3014  -16.5573   24.5423 C   0  0  0  0  0  0  0  0  0  0  0  0
    7.9358  -17.7279   24.8183 O   0  0  0  0  0  0  0  0  0  0  0  0
    9.4686  -16.0945   25.2530 N   0  0  0  0  0  0  0  0  0  0  0  0
   10.2359  -16.9854   26.1032 C   0  0  1  0  0  0  0  0  0  0  0  0
   11.3523  -17.6556   25.2922 C   0  0  0  0  0  0  0  0  0  0  0  0
   12.3354  -16.3626   24.5139 S   0  0  0  0  0  0  0  0  0  0  0  0
   10.8340  -16.2902   27.2493 C   0  0  0  0  0  0  0  0  0  0  0  0
   11.4629  -17.0553   28.2204 O   0  0  0  0  0  0  0  0  0  0  0  0
   10.7972  -15.0495   27.3796 O   0  0  0  0  0  0  0  0  0  0  0  0
  1  2  1  0
  2  3  1  0
  3  5  1  0
  3  4  1  6
  5  6  2  0
  7  8  1  0
  7  5  1  0
  9 10  1  0
  8  9  1  1
 10 11  2  0
 11 12  1  0
 13 12  2  0
 14 13  1  0
 15 14  2  0
 15 10  1  0
 16  8  1  0
 16 17  2  0
 18 16  1  0
 19 18  1  0
 19 22  1  0
 19 20  1  6
 21 20  1  0
 22 23  1  0
 24 22  2  0
M  END
$$$$
