SFC.pdb
     RDKit          3D

 24 24  0  0  1  0  0  0  0  0999 V2000
    9.7062  -18.8073   20.5041 O   0  0  0  0  0  0  0  0  0  0  0  0
    8.7624  -17.9578   19.9549 C   0  0  0  0  0  0  0  0  0  0  0  0
    9.3489  -16.5819   19.7802 C   0  0  2  0  0  0  0  0  0  0  0  0
   10.6171  -16.5759   19.1228 N   0  0  0  0  0  0  0  0  0  0  0  0
    9.5046  -15.9821   21.1267 C   0  0  0  0  0  0  0  0  0  0  0  0
   10.6254  -15.8768   21.6695 O   0  0  0  0  0  0  0  0  0  0  0  0
    8.3803  -15.5075   21.8424 N   0  0  0  0  0  0  0  0  0  0  0  0
    8.4960  -14.9011   23.1776 C   0  0  1  0  0  0  0  0  0  0  0  0
    7.2191  -14.1099   23.3642 C   0  0  0  0  0  0  0  0  0  0  0  0
    7.1538  -13.4581   24.6812 C   0  0  0  0  0  0  0  0  0  0  0  0
    7.9907  -12.3715   24.9079 C   0  0  0  0  0  0  0  0  0  0  0  0
    7.9327  -11.7531   26.1393 C   0  0  0  0  0  0  0  0  0  0  0  0
    7.0607  -12.2262   27.0879 C   0  0  0  0  0  0  0  0  0  0  0  0
    6.2357  -13.3004   26.8589 C   0  0  0  0  0  0  0  0  0  0  0  0
    6.2863  -13.9299   25.6227 C   0  0  0  0  0  0  0  0  0  0  0  0
    8.6748  -15.9729   24.1607 C   0  0  0  0  0  0  0  0  0  0  0  0
    7.9162  -16.9720   24.2402 O   0  0  0  0  0  0  0  0  0  0  0  0
    9.7554  -15.9443   25.1163 N   0  0  0  0  0  0  0  0  0  0  0  0
    9.9627  -17.0333   26.0524 C   0  0  1  0  0  0  0  0  0  0  0  0
   11.2848  -17.7479   25.7448 C   0  0  0  0  0  0  0  0  0  0  0  0
   12.0382  -16.9466   24.3185 S   0  0  0  0  0  0  0  0  0  0  0  0
    9.9834  -16.5773   27.4475 C   0  0  0  0  0  0  0  0  0  0  0  0
    9.8885  -15.2149   27.6898 O   0  0  0  0  0  0  0  0  0  0  0  0
   10.0822  -17.3629   28.4123 O   0  0  0  0  0  0  0  0  0  0  0  0
  1  2  1  0
  2  3  1  0
  3  5  1  0
  3  4  1  1
  5  6  2  0
  7  8  1  0
  7  5  1  0
  9 10  1  0
  8  9  1  1
 10 11  2  0
 11 12  1  0
 13 12  2  0
 14 13  1  0
 15 14  2  0
 15 10  1  0
 16  8  1  0
 16 17  2  0
 18 16  1  0
 19 18  1  0
 19 22  1  0
 19 20  1  6
 21 20  1  0
 22 23  1  0
 24 22  2  0
M  END
$$$$
