SFC.pdb
     RDKit          3D

 24 24  0  0  1  0  0  0  0  0999 V2000
   11.5770  -18.8141   21.8996 O   0  0  0  0  0  0  0  0  0  0  0  0
   10.4150  -18.4554   21.2399 C   0  0  0  0  0  0  0  0  0  0  0  0
   10.4891  -17.0124   20.8159 C   0  0  2  0  0  0  0  0  0  0  0  0
   11.7077  -16.6686   20.1544 N   0  0  0  0  0  0  0  0  0  0  0  0
   10.3517  -16.1758   22.0317 C   0  0  0  0  0  0  0  0  0  0  0  0
   11.3388  -15.6148   22.5539 O   0  0  0  0  0  0  0  0  0  0  0  0
    9.0892  -15.9864   22.6414 N   0  0  0  0  0  0  0  0  0  0  0  0
    8.9034  -15.1150   23.8119 C   0  0  1  0  0  0  0  0  0  0  0  0
    7.4348  -14.7482   23.8022 C   0  0  0  0  0  0  0  0  0  0  0  0
    7.0979  -13.7666   24.8445 C   0  0  0  0  0  0  0  0  0  0  0  0
    6.3391  -14.2034   25.9242 C   0  0  0  0  0  0  0  0  0  0  0  0
    6.0220  -13.2894   26.9073 C   0  0  0  0  0  0  0  0  0  0  0  0
    6.4615  -11.9947   26.7872 C   0  0  0  0  0  0  0  0  0  0  0  0
    7.2112  -11.5679   25.7182 C   0  0  0  0  0  0  0  0  0  0  0  0
    7.5358  -12.4800   24.7234 C   0  0  0  0  0  0  0  0  0  0  0  0
    9.3199  -15.8503   25.0092 C   0  0  0  0  0  0  0  0  0  0  0  0
    9.1488  -17.0870   25.1556 O   0  0  0  0  0  0  0  0  0  0  0  0
    9.9648  -15.1840   26.1145 N   0  0  0  0  0  0  0  0  0  0  0  0
   10.5472  -15.9347   27.2110 C   0  0  1  0  0  0  0  0  0  0  0  0
   11.0689  -14.9748   28.2879 C   0  0  0  0  0  0  0  0  0  0  0  0
    9.6859  -13.9794   28.8713 S   0  0  0  0  0  0  0  0  0  0  0  0
    9.5907  -16.8628   27.8259 C   0  0  0  0  0  0  0  0  0  0  0  0
   10.0559  -17.7204   28.8119 O   0  0  0  0  0  0  0  0  0  0  0  0
    8.3875  -16.9074   27.4969 O   0  0  0  0  0  0  0  0  0  0  0  0
  1  2  1  0
  2  3  1  0
  3  5  1  0
  3  4  1  1
  5  6  2  0
  7  8  1  0
  7  5  1  0
  9 10  1  0
  8  9  1  1
 10 11  2  0
 11 12  1  0
 13 12  2  0
 14 13  1  0
 15 14  2  0
 15 10  1  0
 16  8  1  0
 16 17  2  0
 18 16  1  0
 19 18  1  0
 19 22  1  0
 19 20  1  1
 21 20  1  0
 22 23  1  0
 24 22  2  0
M  END
$$$$
