SFC.pdb
     RDKit          3D

 24 24  0  0  1  0  0  0  0  0999 V2000
    9.4334  -18.7058   20.4698 O   0  0  0  0  0  0  0  0  0  0  0  0
    8.4074  -17.8546   20.0996 C   0  0  0  0  0  0  0  0  0  0  0  0
    8.9496  -16.4708   19.8577 C   0  0  2  0  0  0  0  0  0  0  0  0
   10.1627  -16.4515   19.1035 N   0  0  0  0  0  0  0  0  0  0  0  0
    9.1966  -15.8443   21.1781 C   0  0  0  0  0  0  0  0  0  0  0  0
   10.3448  -15.7836   21.6681 O   0  0  0  0  0  0  0  0  0  0  0  0
    8.1317  -15.2923   21.9283 N   0  0  0  0  0  0  0  0  0  0  0  0
    8.3351  -14.6791   23.2498 C   0  0  1  0  0  0  0  0  0  0  0  0
    7.0856  -13.8631   23.5033 C   0  0  0  0  0  0  0  0  0  0  0  0
    7.1011  -13.2139   24.8230 C   0  0  0  0  0  0  0  0  0  0  0  0
    6.1944  -13.6633   25.7762 C   0  0  0  0  0  0  0  0  0  0  0  0
    6.2053  -13.0616   27.0172 C   0  0  0  0  0  0  0  0  0  0  0  0
    7.1007  -12.0514   27.2658 C   0  0  0  0  0  0  0  0  0  0  0  0
    7.9947  -11.6110   26.3205 C   0  0  0  0  0  0  0  0  0  0  0  0
    7.9920  -12.2100   25.0682 C   0  0  0  0  0  0  0  0  0  0  0  0
    8.5508  -15.7474   24.2294 C   0  0  0  0  0  0  0  0  0  0  0  0
    7.7595  -16.7114   24.3869 O   0  0  0  0  0  0  0  0  0  0  0  0
    9.7089  -15.7563   25.0897 N   0  0  0  0  0  0  0  0  0  0  0  0
    9.9415  -16.8369   26.0296 C   0  0  1  0  0  0  0  0  0  0  0  0
   11.3431  -17.4242   25.8206 C   0  0  0  0  0  0  0  0  0  0  0  0
   11.5665  -17.7328   24.0603 S   0  0  0  0  0  0  0  0  0  0  0  0
    9.8121  -16.4034   27.4260 C   0  0  0  0  0  0  0  0  0  0  0  0
    9.9393  -17.3617   28.4207 O   0  0  0  0  0  0  0  0  0  0  0  0
    9.5943  -15.2170   27.7464 O   0  0  0  0  0  0  0  0  0  0  0  0
  1  2  1  0
  2  3  1  0
  3  5  1  0
  3  4  1  6
  5  6  2  0
  7  8  1  0
  7  5  1  0
  9 10  1  0
  8  9  1  1
 10 11  2  0
 11 12  1  0
 13 12  2  0
 14 13  1  0
 15 14  2  0
 15 10  1  0
 16  8  1  0
 16 17  2  0
 18 16  1  0
 19 18  1  0
 19 22  1  0
 19 20  1  1
 21 20  1  0
 22 23  1  0
 24 22  2  0
M  END
$$$$
