SFC.pdb
     RDKit          3D

 24 24  0  0  1  0  0  0  0  0999 V2000
   11.3922  -18.9111   23.2580 O   0  0  0  0  0  0  0  0  0  0  0  0
   10.1146  -19.1830   22.8019 C   0  0  0  0  0  0  0  0  0  0  0  0
    9.7128  -18.1689   21.7638 C   0  0  2  0  0  0  0  0  0  0  0  0
   10.5912  -18.1178   20.6385 N   0  0  0  0  0  0  0  0  0  0  0  0
    9.6918  -16.8379   22.4159 C   0  0  0  0  0  0  0  0  0  0  0  0
   10.6195  -16.0162   22.2539 O   0  0  0  0  0  0  0  0  0  0  0  0
    8.6127  -16.4557   23.2471 N   0  0  0  0  0  0  0  0  0  0  0  0
    8.5385  -15.1301   23.8806 C   0  0  1  0  0  0  0  0  0  0  0  0
    7.1269  -15.0272   24.4173 C   0  0  0  0  0  0  0  0  0  0  0  0
    6.9034  -13.7801   25.1644 C   0  0  0  0  0  0  0  0  0  0  0  0
    7.2455  -12.5839   24.5444 C   0  0  0  0  0  0  0  0  0  0  0  0
    7.0357  -11.4100   25.2375 C   0  0  0  0  0  0  0  0  0  0  0  0
    6.5025  -11.4626   26.5012 C   0  0  0  0  0  0  0  0  0  0  0  0
    6.1660  -12.6473   27.1095 C   0  0  0  0  0  0  0  0  0  0  0  0
    6.3731  -13.8344   26.4204 C   0  0  0  0  0  0  0  0  0  0  0  0
    9.5710  -15.0523   24.9176 C   0  0  0  0  0  0  0  0  0  0  0  0
   10.3183  -14.0540   25.0759 O   0  0  0  0  0  0  0  0  0  0  0  0
    9.7958  -16.1403   25.8381 N   0  0  0  0  0  0  0  0  0  0  0  0
   10.5357  -15.9440   27.0707 C   0  0  1  0  0  0  0  0  0  0  0  0
    9.8086  -14.9328   27.9661 C   0  0  0  0  0  0  0  0  0  0  0  0
   10.8394  -14.6164   29.4087 S   0  0  0  0  0  0  0  0  0  0  0  0
   10.7206  -17.1933   27.8189 C   0  0  0  0  0  0  0  0  0  0  0  0
   11.8593  -17.3230   28.6001 O   0  0  0  0  0  0  0  0  0  0  0  0
    9.8991  -18.1320   27.7776 O   0  0  0  0  0  0  0  0  0  0  0  0
  1  2  1  0
  2  3  1  0
  3  5  1  0
  3  4  1  6
  5  6  2  0
  7  8  1  0
  7  5  1  0
  9 10  1  0
  8  9  1  1
 10 11  2  0
 11 12  1  0
 13 12  2  0
 14 13  1  0
 15 14  2  0
 15 10  1  0
 16  8  1  0
 16 17  2  0
 18 16  1  0
 19 18  1  0
 19 22  1  0
 19 20  1  1
 21 20  1  0
 22 23  1  0
 24 22  2  0
M  END
$$$$
