SFC.pdb
     RDKit          3D

 24 24  0  0  1  0  0  0  0  0999 V2000
    8.2452  -19.0771   19.8622 O   0  0  0  0  0  0  0  0  0  0  0  0
    9.4387  -18.4700   20.2103 C   0  0  0  0  0  0  0  0  0  0  0  0
    9.3640  -16.9921   19.9317 C   0  0  2  0  0  0  0  0  0  0  0  0
   10.3635  -16.5262   19.0234 N   0  0  0  0  0  0  0  0  0  0  0  0
    9.5202  -16.2798   21.2221 C   0  0  0  0  0  0  0  0  0  0  0  0
   10.6410  -16.1304   21.7546 O   0  0  0  0  0  0  0  0  0  0  0  0
    8.3964  -15.7440   21.8941 N   0  0  0  0  0  0  0  0  0  0  0  0
    8.5011  -15.1006   23.2129 C   0  0  1  0  0  0  0  0  0  0  0  0
    7.2346  -14.2841   23.3557 C   0  0  0  0  0  0  0  0  0  0  0  0
    7.1550  -13.6004   24.6555 C   0  0  0  0  0  0  0  0  0  0  0  0
    6.3306  -14.1537   25.6286 C   0  0  0  0  0  0  0  0  0  0  0  0
    6.2534  -13.5201   26.8512 C   0  0  0  0  0  0  0  0  0  0  0  0
    6.9847  -12.3780   27.0630 C   0  0  0  0  0  0  0  0  0  0  0  0
    7.7979  -11.8352   26.0981 C   0  0  0  0  0  0  0  0  0  0  0  0
    7.8827  -12.4652   24.8641 C   0  0  0  0  0  0  0  0  0  0  0  0
    8.6468  -16.1460   24.2295 C   0  0  0  0  0  0  0  0  0  0  0  0
    7.9612  -17.1996   24.2412 O   0  0  0  0  0  0  0  0  0  0  0  0
    9.6062  -16.0252   25.3002 N   0  0  0  0  0  0  0  0  0  0  0  0
    9.7984  -17.0926   26.2640 C   0  0  1  0  0  0  0  0  0  0  0  0
   10.9050  -18.0411   25.7857 C   0  0  0  0  0  0  0  0  0  0  0  0
   12.3594  -17.0546   25.3914 S   0  0  0  0  0  0  0  0  0  0  0  0
   10.1493  -16.5882   27.5970 C   0  0  0  0  0  0  0  0  0  0  0  0
   10.2646  -17.5050   28.6316 O   0  0  0  0  0  0  0  0  0  0  0  0
   10.3454  -15.3779   27.8301 O   0  0  0  0  0  0  0  0  0  0  0  0
  1  2  1  0
  2  3  1  0
  3  5  1  0
  3  4  1  6
  5  6  2  0
  7  8  1  0
  7  5  1  0
  9 10  1  0
  8  9  1  1
 10 11  2  0
 11 12  1  0
 13 12  2  0
 14 13  1  0
 15 14  2  0
 15 10  1  0
 16  8  1  0
 16 17  2  0
 18 16  1  0
 19 18  1  0
 19 22  1  0
 19 20  1  6
 21 20  1  0
 22 23  1  0
 24 22  2  0
M  END
$$$$
