SFC.pdb
     RDKit          3D

 24 24  0  0  1  0  0  0  0  0999 V2000
    5.8681  -21.8628   23.3128 O   0  0  0  0  0  0  0  0  0  0  0  0
    6.5879  -20.6922   23.1520 C   0  0  0  0  0  0  0  0  0  0  0  0
    5.6589  -19.5627   22.7931 C   0  0  2  0  0  0  0  0  0  0  0  0
    5.2462  -19.5692   21.4255 N   0  0  0  0  0  0  0  0  0  0  0  0
    6.3642  -18.2898   23.0746 C   0  0  0  0  0  0  0  0  0  0  0  0
    7.0418  -17.7106   22.1985 O   0  0  0  0  0  0  0  0  0  0  0  0
    6.2905  -17.6885   24.3530 N   0  0  0  0  0  0  0  0  0  0  0  0
    7.1255  -16.5378   24.7307 C   0  0  1  0  0  0  0  0  0  0  0  0
    6.4139  -15.9021   25.9058 C   0  0  0  0  0  0  0  0  0  0  0  0
    6.9350  -14.5619   26.2153 C   0  0  0  0  0  0  0  0  0  0  0  0
    7.9786  -14.4681   27.1289 C   0  0  0  0  0  0  0  0  0  0  0  0
    8.4747  -13.2150   27.4216 C   0  0  0  0  0  0  0  0  0  0  0  0
    7.9275  -12.1160   26.8079 C   0  0  0  0  0  0  0  0  0  0  0  0
    6.8962  -12.2139   25.9057 C   0  0  0  0  0  0  0  0  0  0  0  0
    6.3897  -13.4707   25.6041 C   0  0  0  0  0  0  0  0  0  0  0  0
    8.4707  -17.0243   25.0486 C   0  0  0  0  0  0  0  0  0  0  0  0
    8.7436  -18.2390   25.2224 O   0  0  0  0  0  0  0  0  0  0  0  0
    9.5855  -16.1186   25.1838 N   0  0  0  0  0  0  0  0  0  0  0  0
   10.7951  -16.2900   24.4011 C   0  0  1  0  0  0  0  0  0  0  0  0
   10.5238  -15.9473   22.9306 C   0  0  0  0  0  0  0  0  0  0  0  0
   11.5333  -17.0308   21.9055 S   0  0  0  0  0  0  0  0  0  0  0  0
   11.9005  -15.4550   24.8866 C   0  0  0  0  0  0  0  0  0  0  0  0
   13.1807  -15.7417   24.4363 O   0  0  0  0  0  0  0  0  0  0  0  0
   11.7313  -14.5074   25.6809 O   0  0  0  0  0  0  0  0  0  0  0  0
  1  2  1  0
  2  3  1  0
  3  5  1  0
  3  4  1  6
  5  6  2  0
  7  8  1  0
  7  5  1  0
  9 10  1  0
  8  9  1  1
 10 11  2  0
 11 12  1  0
 13 12  2  0
 14 13  1  0
 15 14  2  0
 15 10  1  0
 16  8  1  0
 16 17  2  0
 18 16  1  0
 19 18  1  0
 19 22  1  0
 19 20  1  6
 21 20  1  0
 22 23  1  0
 24 22  2  0
M  END
$$$$
