SFC.pdb
     RDKit          3D

 24 24  0  0  1  0  0  0  0  0999 V2000
    9.8473  -18.6618   20.3756 O   0  0  0  0  0  0  0  0  0  0  0  0
    8.7283  -18.0047   19.8957 C   0  0  0  0  0  0  0  0  0  0  0  0
    9.0492  -16.5536   19.6527 C   0  0  2  0  0  0  0  0  0  0  0  0
   10.2048  -16.3481   18.8385 N   0  0  0  0  0  0  0  0  0  0  0  0
    9.2717  -15.9125   20.9705 C   0  0  0  0  0  0  0  0  0  0  0  0
   10.4231  -15.6944   21.4050 O   0  0  0  0  0  0  0  0  0  0  0  0
    8.1788  -15.5258   21.7814 N   0  0  0  0  0  0  0  0  0  0  0  0
    8.3602  -14.8888   23.0949 C   0  0  1  0  0  0  0  0  0  0  0  0
    7.0493  -14.1868   23.3779 C   0  0  0  0  0  0  0  0  0  0  0  0
    7.0481  -13.5127   24.6852 C   0  0  0  0  0  0  0  0  0  0  0  0
    6.4351  -14.1646   25.7491 C   0  0  0  0  0  0  0  0  0  0  0  0
    6.4328  -13.5403   26.9789 C   0  0  0  0  0  0  0  0  0  0  0  0
    7.0290  -12.3108   27.1088 C   0  0  0  0  0  0  0  0  0  0  0  0
    7.6335  -11.6708   26.0543 C   0  0  0  0  0  0  0  0  0  0  0  0
    7.6413  -12.2906   24.8123 C   0  0  0  0  0  0  0  0  0  0  0  0
    8.6961  -15.9275   24.0725 C   0  0  0  0  0  0  0  0  0  0  0  0
    8.0168  -16.9732   24.2315 O   0  0  0  0  0  0  0  0  0  0  0  0
    9.8511  -15.8089   24.9289 N   0  0  0  0  0  0  0  0  0  0  0  0
   10.2179  -16.8677   25.8507 C   0  0  1  0  0  0  0  0  0  0  0  0
   11.7334  -17.1010   25.8087 C   0  0  0  0  0  0  0  0  0  0  0  0
   12.2188  -17.3354   24.0902 S   0  0  0  0  0  0  0  0  0  0  0  0
    9.8217  -16.5707   27.2325 C   0  0  0  0  0  0  0  0  0  0  0  0
   10.0130  -17.5544   28.1915 O   0  0  0  0  0  0  0  0  0  0  0  0
    9.3246  -15.4772   27.5713 O   0  0  0  0  0  0  0  0  0  0  0  0
  1  2  1  0
  2  3  1  0
  3  5  1  0
  3  4  1  6
  5  6  2  0
  7  8  1  0
  7  5  1  0
  9 10  1  0
  8  9  1  1
 10 11  2  0
 11 12  1  0
 13 12  2  0
 14 13  1  0
 15 14  2  0
 15 10  1  0
 16  8  1  0
 16 17  2  0
 18 16  1  0
 19 18  1  0
 19 22  1  0
 19 20  1  1
 21 20  1  0
 22 23  1  0
 24 22  2  0
M  END
$$$$
