SFC.pdb
     RDKit          3D

 24 24  0  0  1  0  0  0  0  0999 V2000
   10.4709  -19.0927   22.9952 O   0  0  0  0  0  0  0  0  0  0  0  0
   10.9412  -18.7029   21.7538 C   0  0  0  0  0  0  0  0  0  0  0  0
    9.9789  -17.7328   21.1210 C   0  0  2  0  0  0  0  0  0  0  0  0
   10.3418  -17.3440   19.7952 N   0  0  0  0  0  0  0  0  0  0  0  0
    9.9266  -16.5239   21.9771 C   0  0  0  0  0  0  0  0  0  0  0  0
   10.7968  -15.6302   21.8999 O   0  0  0  0  0  0  0  0  0  0  0  0
    8.8818  -16.3449   22.9141 N   0  0  0  0  0  0  0  0  0  0  0  0
    8.7796  -15.1451   23.7590 C   0  0  1  0  0  0  0  0  0  0  0  0
    7.3742  -15.1759   24.3206 C   0  0  0  0  0  0  0  0  0  0  0  0
    7.0660  -13.9798   25.1192 C   0  0  0  0  0  0  0  0  0  0  0  0
    7.5590  -12.7589   24.6731 C   0  0  0  0  0  0  0  0  0  0  0  0
    7.2712  -11.6323   25.4149 C   0  0  0  0  0  0  0  0  0  0  0  0
    6.5167  -11.7537   26.5551 C   0  0  0  0  0  0  0  0  0  0  0  0
    6.0318  -12.9625   26.9916 C   0  0  0  0  0  0  0  0  0  0  0  0
    6.3157  -14.1025   26.2522 C   0  0  0  0  0  0  0  0  0  0  0  0
    9.8256  -15.2078   24.7834 C   0  0  0  0  0  0  0  0  0  0  0  0
   10.9228  -14.6016   24.6894 O   0  0  0  0  0  0  0  0  0  0  0  0
    9.6544  -15.9857   25.9864 N   0  0  0  0  0  0  0  0  0  0  0  0
   10.6215  -15.9261   27.0665 C   0  0  1  0  0  0  0  0  0  0  0  0
   10.6481  -14.5171   27.6725 C   0  0  0  0  0  0  0  0  0  0  0  0
    9.4391  -14.4559   29.0061 S   0  0  0  0  0  0  0  0  0  0  0  0
   10.3338  -16.8949   28.1310 C   0  0  0  0  0  0  0  0  0  0  0  0
   11.2551  -17.0262   29.1596 O   0  0  0  0  0  0  0  0  0  0  0  0
    9.3018  -17.5967   28.1434 O   0  0  0  0  0  0  0  0  0  0  0  0
  1  2  1  0
  2  3  1  0
  3  5  1  0
  3  4  1  6
  5  6  2  0
  7  8  1  0
  7  5  1  0
  9 10  1  0
  8  9  1  1
 10 11  2  0
 11 12  1  0
 13 12  2  0
 14 13  1  0
 15 14  2  0
 15 10  1  0
 16  8  1  0
 16 17  2  0
 18 16  1  0
 19 18  1  0
 19 22  1  0
 19 20  1  1
 21 20  1  0
 22 23  1  0
 24 22  2  0
M  END
$$$$
