SFC.pdb
     RDKit          3D

 24 24  0  0  1  0  0  0  0  0999 V2000
    9.3731  -19.1524   21.6657 O   0  0  0  0  0  0  0  0  0  0  0  0
    9.7404  -18.5331   20.4842 C   0  0  0  0  0  0  0  0  0  0  0  0
    8.9018  -17.3013   20.2673 C   0  0  2  0  0  0  0  0  0  0  0  0
    9.1688  -16.6332   19.0331 N   0  0  0  0  0  0  0  0  0  0  0  0
    9.1722  -16.3671   21.3858 C   0  0  0  0  0  0  0  0  0  0  0  0
   10.2127  -15.6757   21.4229 O   0  0  0  0  0  0  0  0  0  0  0  0
    8.2531  -16.2295   22.4525 N   0  0  0  0  0  0  0  0  0  0  0  0
    8.4940  -15.3246   23.5870 C   0  0  1  0  0  0  0  0  0  0  0  0
    7.1205  -14.8555   24.0168 C   0  0  0  0  0  0  0  0  0  0  0  0
    7.1785  -13.9325   25.1605 C   0  0  0  0  0  0  0  0  0  0  0  0
    7.1505  -14.4815   26.4374 C   0  0  0  0  0  0  0  0  0  0  0  0
    7.2079  -13.6225   27.5150 C   0  0  0  0  0  0  0  0  0  0  0  0
    7.2898  -12.2706   27.2923 C   0  0  0  0  0  0  0  0  0  0  0  0
    7.3173  -11.7331   26.0284 C   0  0  0  0  0  0  0  0  0  0  0  0
    7.2600  -12.5890   24.9371 C   0  0  0  0  0  0  0  0  0  0  0  0
    9.2166  -16.0639   24.6257 C   0  0  0  0  0  0  0  0  0  0  0  0
    8.9704  -17.2607   24.9207 O   0  0  0  0  0  0  0  0  0  0  0  0
   10.2761  -15.4486   25.3875 N   0  0  0  0  0  0  0  0  0  0  0  0
   11.0546  -16.2096   26.3467 C   0  0  1  0  0  0  0  0  0  0  0  0
   12.5235  -15.7702   26.2999 C   0  0  0  0  0  0  0  0  0  0  0  0
   13.4386  -16.7375   27.5126 S   0  0  0  0  0  0  0  0  0  0  0  0
   10.5575  -16.0573   27.7194 C   0  0  0  0  0  0  0  0  0  0  0  0
   10.2883  -14.7758   28.1771 O   0  0  0  0  0  0  0  0  0  0  0  0
   10.3706  -17.0285   28.4806 O   0  0  0  0  0  0  0  0  0  0  0  0
  1  2  1  0
  2  3  1  0
  3  5  1  0
  3  4  1  6
  5  6  2  0
  7  8  1  0
  7  5  1  0
  9 10  1  0
  8  9  1  1
 10 11  2  0
 11 12  1  0
 13 12  2  0
 14 13  1  0
 15 14  2  0
 15 10  1  0
 16  8  1  0
 16 17  2  0
 18 16  1  0
 19 18  1  0
 19 22  1  0
 19 20  1  1
 21 20  1  0
 22 23  1  0
 24 22  2  0
M  END
$$$$
