SFC.pdb
     RDKit          3D

 24 24  0  0  1  0  0  0  0  0999 V2000
    9.3702  -18.9863   21.8204 O   0  0  0  0  0  0  0  0  0  0  0  0
   10.2638  -18.4459   20.9128 C   0  0  0  0  0  0  0  0  0  0  0  0
    9.8621  -17.0348   20.5739 C   0  0  2  0  0  0  0  0  0  0  0  0
   10.7022  -16.4155   19.5985 N   0  0  0  0  0  0  0  0  0  0  0  0
    9.9106  -16.2381   21.8229 C   0  0  0  0  0  0  0  0  0  0  0  0
   10.9936  -15.8356   22.2995 O   0  0  0  0  0  0  0  0  0  0  0  0
    8.7233  -15.9075   22.5175 N   0  0  0  0  0  0  0  0  0  0  0  0
    8.7296  -15.0966   23.7448 C   0  0  1  0  0  0  0  0  0  0  0  0
    7.3433  -14.4942   23.8273 C   0  0  0  0  0  0  0  0  0  0  0  0
    7.1927  -13.5966   24.9828 C   0  0  0  0  0  0  0  0  0  0  0  0
    7.8180  -12.3563   24.9248 C   0  0  0  0  0  0  0  0  0  0  0  0
    7.6785  -11.5078   26.0032 C   0  0  0  0  0  0  0  0  0  0  0  0
    6.9357  -11.9123   27.0842 C   0  0  0  0  0  0  0  0  0  0  0  0
    6.3198  -13.1390   27.1366 C   0  0  0  0  0  0  0  0  0  0  0  0
    6.4539  -14.0005   26.0564 C   0  0  0  0  0  0  0  0  0  0  0  0
    9.0625  -15.9675   24.8753 C   0  0  0  0  0  0  0  0  0  0  0  0
    8.6055  -17.1307   25.0102 O   0  0  0  0  0  0  0  0  0  0  0  0
    9.9537  -15.5321   25.9231 N   0  0  0  0  0  0  0  0  0  0  0  0
   10.4764  -16.4647   26.9040 C   0  0  1  0  0  0  0  0  0  0  0  0
   11.9698  -16.2026   27.1366 C   0  0  0  0  0  0  0  0  0  0  0  0
   12.1740  -14.4683   27.5776 S   0  0  0  0  0  0  0  0  0  0  0  0
    9.7737  -16.3787   28.1899 C   0  0  0  0  0  0  0  0  0  0  0  0
   10.1087  -17.2923   29.1784 O   0  0  0  0  0  0  0  0  0  0  0  0
    8.8958  -15.5227   28.4227 O   0  0  0  0  0  0  0  0  0  0  0  0
  1  2  1  0
  2  3  1  0
  3  5  1  0
  3  4  1  6
  5  6  2  0
  7  8  1  0
  7  5  1  0
  9 10  1  0
  8  9  1  1
 10 11  2  0
 11 12  1  0
 13 12  2  0
 14 13  1  0
 15 14  2  0
 15 10  1  0
 16  8  1  0
 16 17  2  0
 18 16  1  0
 19 18  1  0
 19 22  1  0
 19 20  1  1
 21 20  1  0
 22 23  1  0
 24 22  2  0
M  END
$$$$
