SFC.pdb
     RDKit          3D

 24 24  0  0  1  0  0  0  0  0999 V2000
   10.0703  -19.6640   21.1455 O   0  0  0  0  0  0  0  0  0  0  0  0
    8.8506  -19.0127   21.1941 C   0  0  0  0  0  0  0  0  0  0  0  0
    9.0292  -17.5599   20.8405 C   0  0  2  0  0  0  0  0  0  0  0  0
    9.9651  -17.3352   19.7850 N   0  0  0  0  0  0  0  0  0  0  0  0
    9.4988  -16.8528   22.0556 C   0  0  0  0  0  0  0  0  0  0  0  0
   10.6787  -16.4556   22.1656 O   0  0  0  0  0  0  0  0  0  0  0  0
    8.6184  -16.6049   23.1349 N   0  0  0  0  0  0  0  0  0  0  0  0
    9.0574  -15.9409   24.3720 C   0  0  1  0  0  0  0  0  0  0  0  0
    7.8150  -15.2773   24.9264 C   0  0  0  0  0  0  0  0  0  0  0  0
    8.0747  -14.5767   26.1934 C   0  0  0  0  0  0  0  0  0  0  0  0
    8.2682  -13.2009   26.1445 C   0  0  0  0  0  0  0  0  0  0  0  0
    8.5088  -12.5365   27.3290 C   0  0  0  0  0  0  0  0  0  0  0  0
    8.5486  -13.2482   28.5019 C   0  0  0  0  0  0  0  0  0  0  0  0
    8.3568  -14.6077   28.5449 C   0  0  0  0  0  0  0  0  0  0  0  0
    8.1138  -15.2859   27.3583 C   0  0  0  0  0  0  0  0  0  0  0  0
    9.6336  -16.9519   25.2627 C   0  0  0  0  0  0  0  0  0  0  0  0
    9.0568  -18.0319   25.5477 O   0  0  0  0  0  0  0  0  0  0  0  0
   10.9246  -16.7636   25.8785 N   0  0  0  0  0  0  0  0  0  0  0  0
   11.5303  -17.8014   26.6918 C   0  0  1  0  0  0  0  0  0  0  0  0
   13.0528  -17.6180   26.7316 C   0  0  0  0  0  0  0  0  0  0  0  0
   13.4031  -15.9537   27.3243 S   0  0  0  0  0  0  0  0  0  0  0  0
   11.0171  -17.8074   28.0670 C   0  0  0  0  0  0  0  0  0  0  0  0
   11.4705  -18.7961   28.9278 O   0  0  0  0  0  0  0  0  0  0  0  0
   10.1968  -16.9645   28.4844 O   0  0  0  0  0  0  0  0  0  0  0  0
  1  2  1  0
  2  3  1  0
  3  5  1  0
  3  4  1  6
  5  6  2  0
  7  8  1  0
  7  5  1  0
  9 10  1  0
  8  9  1  1
 10 11  2  0
 11 12  1  0
 13 12  2  0
 14 13  1  0
 15 14  2  0
 15 10  1  0
 16  8  1  0
 16 17  2  0
 18 16  1  0
 19 18  1  0
 19 22  1  0
 19 20  1  1
 21 20  1  0
 22 23  1  0
 24 22  2  0
M  END
$$$$
