SFC.pdb
     RDKit          3D

 24 24  0  0  1  0  0  0  0  0999 V2000
   11.8146  -18.7023   21.8928 O   0  0  0  0  0  0  0  0  0  0  0  0
   10.5057  -18.6714   21.4457 C   0  0  0  0  0  0  0  0  0  0  0  0
   10.2297  -17.3627   20.7537 C   0  0  2  0  0  0  0  0  0  0  0  0
   11.2056  -17.0144   19.7704 N   0  0  0  0  0  0  0  0  0  0  0  0
   10.1931  -16.3024   21.7888 C   0  0  0  0  0  0  0  0  0  0  0  0
   11.1382  -15.4975   21.9335 O   0  0  0  0  0  0  0  0  0  0  0  0
    9.0787  -16.1694   22.6501 N   0  0  0  0  0  0  0  0  0  0  0  0
    8.9718  -15.0834   23.6366 C   0  0  1  0  0  0  0  0  0  0  0  0
    7.5500  -15.1555   24.1510 C   0  0  0  0  0  0  0  0  0  0  0  0
    7.2055  -14.0066   25.0023 C   0  0  0  0  0  0  0  0  0  0  0  0
    7.6307  -12.7477   24.5938 C   0  0  0  0  0  0  0  0  0  0  0  0
    7.3086  -11.6650   25.3852 C   0  0  0  0  0  0  0  0  0  0  0  0
    6.5876  -11.8652   26.5358 C   0  0  0  0  0  0  0  0  0  0  0  0
    6.1696  -13.1113   26.9351 C   0  0  0  0  0  0  0  0  0  0  0  0
    6.4886  -14.2077   26.1457 C   0  0  0  0  0  0  0  0  0  0  0  0
    9.9856  -15.2960   24.6732 C   0  0  0  0  0  0  0  0  0  0  0  0
   11.1912  -14.9661   24.5394 O   0  0  0  0  0  0  0  0  0  0  0  0
    9.6529  -15.9096   25.9359 N   0  0  0  0  0  0  0  0  0  0  0  0
   10.6073  -15.9520   27.0279 C   0  0  1  0  0  0  0  0  0  0  0  0
   10.9371  -14.5284   27.4947 C   0  0  0  0  0  0  0  0  0  0  0  0
   10.2942  -14.3212   29.1643 S   0  0  0  0  0  0  0  0  0  0  0  0
   10.1140  -16.7247   28.1743 C   0  0  0  0  0  0  0  0  0  0  0  0
   11.0195  -17.0682   29.1673 O   0  0  0  0  0  0  0  0  0  0  0  0
    8.9227  -17.0796   28.2859 O   0  0  0  0  0  0  0  0  0  0  0  0
  1  2  1  0
  2  3  1  0
  3  5  1  0
  3  4  1  6
  5  6  2  0
  7  8  1  0
  7  5  1  0
  9 10  1  0
  8  9  1  1
 10 11  2  0
 11 12  1  0
 13 12  2  0
 14 13  1  0
 15 14  2  0
 15 10  1  0
 16  8  1  0
 16 17  2  0
 18 16  1  0
 19 18  1  0
 19 22  1  0
 19 20  1  1
 21 20  1  0
 22 23  1  0
 24 22  2  0
M  END
$$$$
