SFC.pdb
     RDKit          3D

 24 24  0  0  1  0  0  0  0  0999 V2000
   11.6507  -19.2433   21.9920 O   0  0  0  0  0  0  0  0  0  0  0  0
   10.3048  -18.9477   22.1162 C   0  0  0  0  0  0  0  0  0  0  0  0
    9.9517  -17.7791   21.2346 C   0  0  2  0  0  0  0  0  0  0  0  0
   10.8617  -17.5793   20.1517 N   0  0  0  0  0  0  0  0  0  0  0  0
    9.9390  -16.5619   22.0803 C   0  0  0  0  0  0  0  0  0  0  0  0
   10.9030  -15.7667   22.0956 O   0  0  0  0  0  0  0  0  0  0  0  0
    8.8264  -16.2622   22.9013 N   0  0  0  0  0  0  0  0  0  0  0  0
    8.7766  -15.0632   23.7521 C   0  0  1  0  0  0  0  0  0  0  0  0
    7.3675  -15.0286   24.3038 C   0  0  0  0  0  0  0  0  0  0  0  0
    7.0964  -13.7999   25.0655 C   0  0  0  0  0  0  0  0  0  0  0  0
    6.2599  -13.8953   26.1717 C   0  0  0  0  0  0  0  0  0  0  0  0
    6.0037  -12.7480   26.8930 C   0  0  0  0  0  0  0  0  0  0  0  0
    6.5769  -11.5648   26.4985 C   0  0  0  0  0  0  0  0  0  0  0  0
    7.4029  -11.4758   25.4046 C   0  0  0  0  0  0  0  0  0  0  0  0
    7.6672  -12.6248   24.6719 C   0  0  0  0  0  0  0  0  0  0  0  0
    9.8110  -15.1820   24.7833 C   0  0  0  0  0  0  0  0  0  0  0  0
   10.7610  -14.3680   24.9069 O   0  0  0  0  0  0  0  0  0  0  0  0
    9.8002  -16.2634   25.7383 N   0  0  0  0  0  0  0  0  0  0  0  0
   10.4090  -16.1189   27.0474 C   0  0  1  0  0  0  0  0  0  0  0  0
    9.6372  -15.0840   27.8758 C   0  0  0  0  0  0  0  0  0  0  0  0
   10.8223  -14.1666   28.8747 S   0  0  0  0  0  0  0  0  0  0  0  0
   10.4507  -17.3848   27.7893 C   0  0  0  0  0  0  0  0  0  0  0  0
   11.4745  -17.5694   28.7068 O   0  0  0  0  0  0  0  0  0  0  0  0
    9.6076  -18.2904   27.6259 O   0  0  0  0  0  0  0  0  0  0  0  0
  1  2  1  0
  2  3  1  0
  3  5  1  0
  3  4  1  6
  5  6  2  0
  7  8  1  0
  7  5  1  0
  9 10  1  0
  8  9  1  1
 10 11  2  0
 11 12  1  0
 13 12  2  0
 14 13  1  0
 15 14  2  0
 15 10  1  0
 16  8  1  0
 16 17  2  0
 18 16  1  0
 19 18  1  0
 19 22  1  0
 19 20  1  1
 21 20  1  0
 22 23  1  0
 24 22  2  0
M  END
$$$$
