QII.pdb
     RDKit          3D

 26 25  0  0  1  0  0  0  0  0999 V2000
   23.1008  -18.8382  -16.6351 N   0  0  0  0  0  0  0  0  0  0  0  0
   21.9225  -19.0610  -15.8947 C   0  0  0  0  0  0  0  0  0  0  0  0
   20.9938  -19.7386  -16.4036 O   0  0  0  0  0  0  0  0  0  0  0  0
   21.8340  -18.4768  -14.5313 C   0  0  0  0  0  0  0  0  0  0  0  0
   21.5990  -19.5607  -13.4876 C   0  0  0  0  0  0  0  0  0  0  0  0
   22.9658  -19.8907  -12.8980 C   0  0  2  0  0  0  0  0  0  0  0  0
   23.7839  -20.3860  -13.9761 N   0  0  0  0  0  0  0  0  0  0  0  0
   22.8657  -20.8767  -11.8041 C   0  0  0  0  0  0  0  0  0  0  0  0
   22.8594  -22.0922  -12.0880 O   0  0  0  0  0  0  0  0  0  0  0  0
   25.9063  -19.6752   -7.7875 C   0  0  0  0  0  0  0  0  0  0  0  0
   25.1517  -20.5940   -8.7157 C   0  0  0  0  0  0  0  0  0  0  0  0
   23.7271  -20.7539   -8.3083 C   0  0  2  0  0  0  0  0  0  0  0  0
   23.6133  -21.6252   -7.0538 C   0  0  0  0  0  0  0  0  0  0  0  0
   22.8369  -21.3985   -9.3437 C   0  0  2  0  0  0  0  0  0  0  0  0
   22.7783  -20.4712  -10.4627 N   0  0  0  0  0  0  0  0  0  0  0  0
   21.4893  -21.5583   -8.7334 C   0  0  0  0  0  0  0  0  0  0  0  0
   20.8300  -20.5063   -8.5327 O   0  0  0  0  0  0  0  0  0  0  0  0
   17.4814  -22.8112  -10.7471 C   0  0  0  0  0  0  0  0  0  0  0  0
   18.6729  -23.4600  -10.1691 C   0  0  0  0  0  0  0  0  0  0  0  0
   18.7632  -23.7379   -8.7364 C   0  0  2  0  0  0  0  0  0  0  0  0
   17.3746  -24.0547   -8.1364 C   0  0  0  0  0  0  0  0  0  0  0  0
   19.5326  -22.8436   -7.8563 C   0  0  2  0  0  0  0  0  0  0  0  0
   20.9381  -22.7925   -8.3827 N   0  0  0  0  0  0  0  0  0  0  0  0
   19.6103  -23.1339   -6.4167 C   0  0  0  0  0  0  0  0  0  0  0  0
   18.7936  -22.7640   -5.5477 O   0  0  0  0  0  0  0  0  0  0  0  0
   20.6868  -23.8997   -5.9036 O   0  0  0  0  0  0  0  0  0  0  0  0
  2  1  1  0
  2  4  1  0
  3  2  2  0
  5  4  1  0
  6  5  1  0
  6  7  1  6
  8  6  1  0
  8  9  2  0
 11 10  1  0
 12 11  1  0
 12 14  1  0
 12 13  1  1
 14 15  1  6
 15  8  1  0
 16 14  1  0
 17 16  2  0
 18 19  1  0
 20 19  1  0
 20 22  1  0
 20 21  1  1
 22 23  1  6
 22 24  1  0
 23 16  1  0
 24 26  1  0
 25 24  2  0
M  END
$$$$
