QII.pdb
     RDKit          3D

 26 25  0  0  1  0  0  0  0  0999 V2000
   20.3299  -15.0069  -15.9246 N   0  0  0  0  0  0  0  0  0  0  0  0
   19.4380  -16.0957  -15.9979 C   0  0  0  0  0  0  0  0  0  0  0  0
   19.7056  -17.1545  -15.3749 O   0  0  0  0  0  0  0  0  0  0  0  0
   18.2093  -15.9373  -16.8183 C   0  0  0  0  0  0  0  0  0  0  0  0
   18.1368  -14.5439  -17.4286 C   0  0  0  0  0  0  0  0  0  0  0  0
   16.9138  -13.8710  -16.8151 C   0  0  2  0  0  0  0  0  0  0  0  0
   15.7556  -14.4025  -17.4880 N   0  0  0  0  0  0  0  0  0  0  0  0
   16.9787  -12.4016  -16.9389 C   0  0  0  0  0  0  0  0  0  0  0  0
   16.9755  -11.8928  -18.0788 O   0  0  0  0  0  0  0  0  0  0  0  0
   13.5246   -9.0825  -15.1374 C   0  0  0  0  0  0  0  0  0  0  0  0
   14.6860   -9.6376  -15.9237 C   0  0  0  0  0  0  0  0  0  0  0  0
   15.9636   -9.5664  -15.1598 C   0  0  2  0  0  0  0  0  0  0  0  0
   16.3160   -8.1150  -14.8206 C   0  0  0  0  0  0  0  0  0  0  0  0
   17.1673  -10.1290  -15.8775 C   0  0  2  0  0  0  0  0  0  0  0  0
   17.0433  -11.5763  -15.8047 N   0  0  0  0  0  0  0  0  0  0  0  0
   18.3768   -9.6758  -15.1389 C   0  0  0  0  0  0  0  0  0  0  0  0
   18.4570  -10.0043  -13.9275 O   0  0  0  0  0  0  0  0  0  0  0  0
   23.0119  -10.9653  -16.8753 C   0  0  0  0  0  0  0  0  0  0  0  0
   21.8703  -10.4734  -16.0821 C   0  0  0  0  0  0  0  0  0  0  0  0
   21.7923   -9.0779  -15.6528 C   0  0  2  0  0  0  0  0  0  0  0  0
   23.1095   -8.6202  -14.9862 C   0  0  0  0  0  0  0  0  0  0  0  0
   20.6205   -8.5991  -14.9017 C   0  0  2  0  0  0  0  0  0  0  0  0
   19.4006   -8.9214  -15.7158 N   0  0  0  0  0  0  0  0  0  0  0  0
   20.5344   -7.1818  -14.5187 C   0  0  0  0  0  0  0  0  0  0  0  0
   20.9367   -6.6851  -13.4462 O   0  0  0  0  0  0  0  0  0  0  0  0
   19.9519   -6.2409  -15.4041 O   0  0  0  0  0  0  0  0  0  0  0  0
  2  1  1  0
  2  4  1  0
  3  2  2  0
  5  4  1  0
  6  5  1  0
  6  7  1  6
  8  6  1  0
  8  9  2  0
 11 10  1  0
 12 11  1  0
 12 14  1  0
 12 13  1  6
 14 15  1  1
 15  8  1  0
 16 14  1  0
 17 16  2  0
 18 19  1  0
 20 19  1  0
 20 22  1  0
 20 21  1  1
 22 23  1  6
 22 24  1  0
 23 16  1  0
 24 26  1  0
 25 24  2  0
M  END
$$$$
