QII.pdb
     RDKit          3D

 26 25  0  0  1  0  0  0  0  0999 V2000
   29.1182  -22.3007  -15.1851 N   0  0  0  0  0  0  0  0  0  0  0  0
   28.6231  -21.3907  -16.1406 C   0  0  0  0  0  0  0  0  0  0  0  0
   29.4298  -20.7874  -16.8930 O   0  0  0  0  0  0  0  0  0  0  0  0
   27.1532  -21.1858  -16.2133 C   0  0  0  0  0  0  0  0  0  0  0  0
   26.6833  -20.2187  -15.1349 C   0  0  0  0  0  0  0  0  0  0  0  0
   26.2884  -21.0736  -13.9357 C   0  0  2  0  0  0  0  0  0  0  0  0
   25.1694  -21.8848  -14.3439 N   0  0  0  0  0  0  0  0  0  0  0  0
   25.9505  -20.2456  -12.7615 C   0  0  0  0  0  0  0  0  0  0  0  0
   25.4059  -19.1371  -12.9432 O   0  0  0  0  0  0  0  0  0  0  0  0
   22.4207  -20.8453  -12.0514 C   0  0  0  0  0  0  0  0  0  0  0  0
   23.2945  -19.8819  -11.2874 C   0  0  0  0  0  0  0  0  0  0  0  0
   24.1638  -20.5792  -10.2980 C   0  0  2  0  0  0  0  0  0  0  0  0
   23.6345  -20.3840   -8.8742 C   0  0  0  0  0  0  0  0  0  0  0  0
   25.6007  -20.1154  -10.2740 C   0  0  2  0  0  0  0  0  0  0  0  0
   26.2300  -20.6821  -11.4565 N   0  0  0  0  0  0  0  0  0  0  0  0
   26.2251  -20.6673   -9.0412 C   0  0  0  0  0  0  0  0  0  0  0  0
   26.2355  -21.9193   -8.9234 O   0  0  0  0  0  0  0  0  0  0  0  0
   30.3987  -19.3054   -4.7032 C   0  0  0  0  0  0  0  0  0  0  0  0
   29.3161  -20.1541   -5.2344 C   0  0  0  0  0  0  0  0  0  0  0  0
   28.4924  -19.7142   -6.3595 C   0  0  2  0  0  0  0  0  0  0  0  0
   28.0726  -18.2348   -6.2044 C   0  0  0  0  0  0  0  0  0  0  0  0
   27.3662  -20.5421   -6.8205 C   0  0  2  0  0  0  0  0  0  0  0  0
   26.7855  -19.8773   -8.0353 N   0  0  0  0  0  0  0  0  0  0  0  0
   26.2551  -20.8314   -5.9015 C   0  0  0  0  0  0  0  0  0  0  0  0
   25.1388  -20.2723   -5.8998 O   0  0  0  0  0  0  0  0  0  0  0  0
   26.4004  -21.8258   -4.9021 O   0  0  0  0  0  0  0  0  0  0  0  0
  2  1  1  0
  2  4  1  0
  3  2  2  0
  5  4  1  0
  6  5  1  0
  6  7  1  6
  8  6  1  0
  8  9  2  0
 11 10  1  0
 12 11  1  0
 12 14  1  0
 12 13  1  1
 14 15  1  6
 15  8  1  0
 16 14  1  0
 17 16  2  0
 18 19  1  0
 20 19  1  0
 20 22  1  0
 20 21  1  1
 22 23  1  6
 22 24  1  0
 23 16  1  0
 24 26  1  0
 25 24  2  0
M  END
$$$$
