QII.pdb
     RDKit          3D

 26 25  0  0  1  0  0  0  0  0999 V2000
   16.2927  -14.1885  -15.7408 N   0  0  0  0  0  0  0  0  0  0  0  0
   16.3601  -13.3729  -14.5934 C   0  0  0  0  0  0  0  0  0  0  0  0
   17.4438  -12.8053  -14.3035 O   0  0  0  0  0  0  0  0  0  0  0  0
   15.1313  -13.2216  -13.7716 C   0  0  0  0  0  0  0  0  0  0  0  0
   14.8179  -11.7520  -13.5246 C   0  0  0  0  0  0  0  0  0  0  0  0
   13.6084  -11.7224  -12.5965 C   0  0  2  0  0  0  0  0  0  0  0  0
   12.4716  -12.1574  -13.3681 N   0  0  0  0  0  0  0  0  0  0  0  0
   13.3882  -10.3781  -12.0282 C   0  0  0  0  0  0  0  0  0  0  0  0
   12.8707   -9.4981  -12.7466 O   0  0  0  0  0  0  0  0  0  0  0  0
   10.5984   -9.7288   -7.8038 C   0  0  0  0  0  0  0  0  0  0  0  0
   11.3605   -9.5337   -9.0908 C   0  0  0  0  0  0  0  0  0  0  0  0
   12.7318   -9.0006   -8.8535 C   0  0  2  0  0  0  0  0  0  0  0  0
   12.6748   -7.6513   -8.1312 C   0  0  0  0  0  0  0  0  0  0  0  0
   13.5502   -8.7694  -10.1013 C   0  0  2  0  0  0  0  0  0  0  0  0
   13.7488  -10.0778  -10.7048 N   0  0  0  0  0  0  0  0  0  0  0  0
   14.8544   -8.1925   -9.6766 C   0  0  0  0  0  0  0  0  0  0  0  0
   15.5507   -8.8845   -8.8905 O   0  0  0  0  0  0  0  0  0  0  0  0
   18.7183   -7.3022  -12.7429 C   0  0  0  0  0  0  0  0  0  0  0  0
   17.8158   -7.4293  -11.5838 C   0  0  0  0  0  0  0  0  0  0  0  0
   17.5550   -6.2944  -10.6996 C   0  0  2  0  0  0  0  0  0  0  0  0
   18.8687   -5.6023  -10.2706 C   0  0  0  0  0  0  0  0  0  0  0  0
   16.6330   -6.4395   -9.5615 C   0  0  2  0  0  0  0  0  0  0  0  0
   15.3275   -6.9491  -10.1010 N   0  0  0  0  0  0  0  0  0  0  0  0
   16.3365   -5.2738   -8.7154 C   0  0  0  0  0  0  0  0  0  0  0  0
   15.6470   -4.2855   -9.0421 O   0  0  0  0  0  0  0  0  0  0  0  0
   16.8508   -5.2041   -7.3966 O   0  0  0  0  0  0  0  0  0  0  0  0
  2  1  1  0
  2  4  1  0
  3  2  2  0
  5  4  1  0
  6  5  1  0
  6  7  1  6
  8  6  1  0
  8  9  2  0
 11 10  1  0
 12 11  1  0
 12 14  1  0
 12 13  1  6
 14 15  1  1
 15  8  1  0
 16 14  1  0
 17 16  2  0
 18 19  1  0
 20 19  1  0
 20 22  1  0
 20 21  1  1
 22 23  1  6
 22 24  1  0
 23 16  1  0
 24 26  1  0
 25 24  2  0
M  END
$$$$
