QII.pdb
     RDKit          3D

 26 25  0  0  1  0  0  0  0  0999 V2000
   27.5473  -17.1398  -14.8417 N   0  0  0  0  0  0  0  0  0  0  0  0
   28.3676  -17.4351  -15.9490 C   0  0  0  0  0  0  0  0  0  0  0  0
   29.2784  -16.6313  -16.2730 O   0  0  0  0  0  0  0  0  0  0  0  0
   28.1128  -18.6982  -16.6892 C   0  0  0  0  0  0  0  0  0  0  0  0
   26.9673  -19.4785  -16.0582 C   0  0  0  0  0  0  0  0  0  0  0  0
   27.6018  -20.4292  -15.0490 C   0  0  2  0  0  0  0  0  0  0  0  0
   28.3227  -21.4253  -15.8005 N   0  0  0  0  0  0  0  0  0  0  0  0
   26.5902  -21.0483  -14.1703 C   0  0  0  0  0  0  0  0  0  0  0  0
   25.9499  -22.0340  -14.5907 O   0  0  0  0  0  0  0  0  0  0  0  0
   27.0113  -20.2367   -8.7110 C   0  0  0  0  0  0  0  0  0  0  0  0
   26.7389  -20.9438  -10.0153 C   0  0  0  0  0  0  0  0  0  0  0  0
   25.4936  -20.4512  -10.6692 C   0  0  2  0  0  0  0  0  0  0  0  0
   24.2607  -20.8116   -9.8352 C   0  0  0  0  0  0  0  0  0  0  0  0
   25.2372  -21.0052  -12.0503 C   0  0  2  0  0  0  0  0  0  0  0  0
   26.3402  -20.5497  -12.8817 N   0  0  0  0  0  0  0  0  0  0  0  0
   23.9538  -20.4251  -12.5305 C   0  0  0  0  0  0  0  0  0  0  0  0
   23.8643  -19.1706  -12.5305 O   0  0  0  0  0  0  0  0  0  0  0  0
   22.2757  -20.9335  -17.2179 C   0  0  0  0  0  0  0  0  0  0  0  0
   22.4409  -20.5517  -15.8032 C   0  0  0  0  0  0  0  0  0  0  0  0
   21.3930  -20.8200  -14.8195 C   0  0  2  0  0  0  0  0  0  0  0  0
   20.0199  -20.3028  -15.3054 C   0  0  0  0  0  0  0  0  0  0  0  0
   21.6111  -20.4993  -13.3997 C   0  0  2  0  0  0  0  0  0  0  0  0
   22.8724  -21.1916  -12.9697 N   0  0  0  0  0  0  0  0  0  0  0  0
   20.5696  -20.8264  -12.4142 C   0  0  0  0  0  0  0  0  0  0  0  0
   20.3512  -21.9533  -11.9230 O   0  0  0  0  0  0  0  0  0  0  0  0
   19.7002  -19.8140  -11.9370 O   0  0  0  0  0  0  0  0  0  0  0  0
  2  1  1  0
  2  4  1  0
  3  2  2  0
  5  4  1  0
  6  5  1  0
  6  7  1  6
  8  6  1  0
  8  9  2  0
 11 10  1  0
 12 11  1  0
 12 14  1  0
 12 13  1  1
 14 15  1  6
 15  8  1  0
 16 14  1  0
 17 16  2  0
 18 19  1  0
 20 19  1  0
 20 22  1  0
 20 21  1  6
 22 23  1  1
 22 24  1  0
 23 16  1  0
 24 26  1  0
 25 24  2  0
M  END
$$$$
