QII.pdb
     RDKit          3D

 26 25  0  0  1  0  0  0  0  0999 V2000
   27.9854  -17.7813  -16.3752 N   0  0  0  0  0  0  0  0  0  0  0  0
   28.8020  -18.9030  -16.6229 C   0  0  0  0  0  0  0  0  0  0  0  0
   29.2351  -19.1053  -17.7858 O   0  0  0  0  0  0  0  0  0  0  0  0
   29.1155  -19.8033  -15.4831 C   0  0  0  0  0  0  0  0  0  0  0  0
   28.5991  -19.2243  -14.1726 C   0  0  0  0  0  0  0  0  0  0  0  0
   27.6088  -20.2414  -13.6160 C   0  0  2  0  0  0  0  0  0  0  0  0
   26.7157  -20.5948  -14.6904 N   0  0  0  0  0  0  0  0  0  0  0  0
   26.8682  -19.7056  -12.4572 C   0  0  0  0  0  0  0  0  0  0  0  0
   26.3757  -18.5611  -12.5343 O   0  0  0  0  0  0  0  0  0  0  0  0
   22.4605  -20.6930  -11.9755 C   0  0  0  0  0  0  0  0  0  0  0  0
   23.8227  -20.0910  -11.7365 C   0  0  0  0  0  0  0  0  0  0  0  0
   24.4746  -20.6486  -10.5179 C   0  0  2  0  0  0  0  0  0  0  0  0
   23.6066  -20.4120   -9.2785 C   0  0  0  0  0  0  0  0  0  0  0  0
   25.8283  -20.0625  -10.1948 C   0  0  2  0  0  0  0  0  0  0  0  0
   26.7112  -20.4568  -11.2813 N   0  0  0  0  0  0  0  0  0  0  0  0
   26.2812  -20.6698   -8.9141 C   0  0  0  0  0  0  0  0  0  0  0  0
   26.3963  -21.9220   -8.8906 O   0  0  0  0  0  0  0  0  0  0  0  0
   29.8158  -18.0958   -5.6755 C   0  0  0  0  0  0  0  0  0  0  0  0
   29.0412  -19.1451   -6.3637 C   0  0  0  0  0  0  0  0  0  0  0  0
   27.8547  -19.7370   -5.7476 C   0  0  2  0  0  0  0  0  0  0  0  0
   28.1757  -20.3154   -4.3507 C   0  0  0  0  0  0  0  0  0  0  0  0
   26.9986  -20.6523   -6.5194 C   0  0  2  0  0  0  0  0  0  0  0  0
   26.5764  -19.9306   -7.7668 N   0  0  0  0  0  0  0  0  0  0  0  0
   25.7866  -21.2080   -5.8988 C   0  0  0  0  0  0  0  0  0  0  0  0
   24.6851  -20.6299   -5.7920 O   0  0  0  0  0  0  0  0  0  0  0  0
   25.8040  -22.5155   -5.3523 O   0  0  0  0  0  0  0  0  0  0  0  0
  2  1  1  0
  2  4  1  0
  3  2  2  0
  5  4  1  0
  6  5  1  0
  6  7  1  6
  8  6  1  0
  8  9  2  0
 11 10  1  0
 12 11  1  0
 12 14  1  0
 12 13  1  1
 14 15  1  6
 15  8  1  0
 16 14  1  0
 17 16  2  0
 18 19  1  0
 20 19  1  0
 20 22  1  0
 20 21  1  1
 22 23  1  6
 22 24  1  0
 23 16  1  0
 24 26  1  0
 25 24  2  0
M  END
$$$$
