QII.pdb
     RDKit          3D

 26 25  0  0  1  0  0  0  0  0999 V2000
   29.9656  -23.6610  -15.3460 N   0  0  0  0  0  0  0  0  0  0  0  0
   29.7749  -23.0840  -16.6176 C   0  0  0  0  0  0  0  0  0  0  0  0
   30.7673  -22.9065  -17.3689 O   0  0  0  0  0  0  0  0  0  0  0  0
   28.3927  -22.7086  -17.0134 C   0  0  0  0  0  0  0  0  0  0  0  0
   27.4003  -23.0358  -15.9056 C   0  0  0  0  0  0  0  0  0  0  0  0
   26.4008  -21.8847  -15.8727 C   0  0  2  0  0  0  0  0  0  0  0  0
   27.1298  -20.7015  -15.4914 N   0  0  0  0  0  0  0  0  0  0  0  0
   25.2885  -22.1532  -14.9403 C   0  0  0  0  0  0  0  0  0  0  0  0
   24.5998  -23.1812  -15.1049 O   0  0  0  0  0  0  0  0  0  0  0  0
   26.1472  -20.6605   -9.8254 C   0  0  0  0  0  0  0  0  0  0  0  0
   25.7129  -21.4079  -11.0616 C   0  0  0  0  0  0  0  0  0  0  0  0
   24.4329  -20.8805  -11.6133 C   0  0  2  0  0  0  0  0  0  0  0  0
   23.2918  -21.0565  -10.6071 C   0  0  0  0  0  0  0  0  0  0  0  0
   23.9680  -21.5425  -12.8884 C   0  0  2  0  0  0  0  0  0  0  0  0
   24.9969  -21.2779  -13.8817 N   0  0  0  0  0  0  0  0  0  0  0  0
   22.6882  -20.8947  -13.2842 C   0  0  0  0  0  0  0  0  0  0  0  0
   22.6857  -19.6388  -13.3497 O   0  0  0  0  0  0  0  0  0  0  0  0
   20.4233  -21.9879  -17.6494 C   0  0  0  0  0  0  0  0  0  0  0  0
   20.7117  -21.2409  -16.4111 C   0  0  0  0  0  0  0  0  0  0  0  0
   19.8248  -21.3263  -15.2518 C   0  0  2  0  0  0  0  0  0  0  0  0
   18.4097  -20.8025  -15.5865 C   0  0  0  0  0  0  0  0  0  0  0  0
   20.2758  -20.8405  -13.9376 C   0  0  2  0  0  0  0  0  0  0  0  0
   21.5200  -21.6008  -13.5786 N   0  0  0  0  0  0  0  0  0  0  0  0
   19.3648  -20.9146  -12.7856 C   0  0  0  0  0  0  0  0  0  0  0  0
   19.1088  -21.9370  -12.1161 O   0  0  0  0  0  0  0  0  0  0  0  0
   18.6831  -19.7534  -12.3433 O   0  0  0  0  0  0  0  0  0  0  0  0
  2  1  1  0
  2  4  1  0
  3  2  2  0
  5  4  1  0
  6  5  1  0
  6  7  1  1
  8  6  1  0
  8  9  2  0
 11 10  1  0
 12 11  1  0
 12 14  1  0
 12 13  1  1
 14 15  1  6
 15  8  1  0
 16 14  1  0
 17 16  2  0
 18 19  1  0
 20 19  1  0
 20 22  1  0
 20 21  1  6
 22 23  1  1
 22 24  1  0
 23 16  1  0
 24 26  1  0
 25 24  2  0
M  END
$$$$
