QII.pdb
     RDKit          3D

 26 25  0  0  1  0  0  0  0  0999 V2000
   28.8217  -22.1737  -15.2130 N   0  0  0  0  0  0  0  0  0  0  0  0
   29.2740  -21.4642  -16.3437 C   0  0  0  0  0  0  0  0  0  0  0  0
   29.9112  -22.0741  -17.2397 O   0  0  0  0  0  0  0  0  0  0  0  0
   28.9719  -20.0115  -16.4228 C   0  0  0  0  0  0  0  0  0  0  0  0
   28.2644  -19.5321  -15.1623 C   0  0  0  0  0  0  0  0  0  0  0  0
   26.7864  -19.8549  -15.3521 C   0  0  2  0  0  0  0  0  0  0  0  0
   26.3438  -19.1412  -16.5232 N   0  0  0  0  0  0  0  0  0  0  0  0
   25.9895  -19.4853  -14.1658 C   0  0  0  0  0  0  0  0  0  0  0  0
   25.6734  -18.2889  -14.0018 O   0  0  0  0  0  0  0  0  0  0  0  0
   21.2769  -20.8925  -13.4306 C   0  0  0  0  0  0  0  0  0  0  0  0
   22.6495  -20.2696  -13.3738 C   0  0  0  0  0  0  0  0  0  0  0  0
   23.4592  -20.8025  -12.2418 C   0  0  2  0  0  0  0  0  0  0  0  0
   22.7121  -20.6428  -10.9144 C   0  0  0  0  0  0  0  0  0  0  0  0
   24.7993  -20.1343  -12.0471 C   0  0  2  0  0  0  0  0  0  0  0  0
   25.5859  -20.4502  -13.2289 N   0  0  0  0  0  0  0  0  0  0  0  0
   25.4224  -20.7331  -10.8358 C   0  0  0  0  0  0  0  0  0  0  0  0
   25.6380  -21.9718  -10.8633 O   0  0  0  0  0  0  0  0  0  0  0  0
   29.3223  -19.5309   -6.2887 C   0  0  0  0  0  0  0  0  0  0  0  0
   28.2837  -20.3809   -6.8997 C   0  0  0  0  0  0  0  0  0  0  0  0
   27.4207  -19.8734   -7.9653 C   0  0  2  0  0  0  0  0  0  0  0  0
   26.9060  -18.4521   -7.6432 C   0  0  0  0  0  0  0  0  0  0  0  0
   26.3466  -20.7176   -8.5130 C   0  0  2  0  0  0  0  0  0  0  0  0
   25.7694  -19.9999   -9.6991 N   0  0  0  0  0  0  0  0  0  0  0  0
   25.2252  -21.1157   -7.6488 C   0  0  0  0  0  0  0  0  0  0  0  0
   24.1251  -20.5322   -7.5577 O   0  0  0  0  0  0  0  0  0  0  0  0
   25.3396  -22.2580   -6.8178 O   0  0  0  0  0  0  0  0  0  0  0  0
  2  1  1  0
  2  4  1  0
  3  2  2  0
  5  4  1  0
  6  5  1  0
  6  7  1  6
  8  6  1  0
  8  9  2  0
 11 10  1  0
 12 11  1  0
 12 14  1  0
 12 13  1  1
 14 15  1  6
 15  8  1  0
 16 14  1  0
 17 16  2  0
 18 19  1  0
 20 19  1  0
 20 22  1  0
 20 21  1  1
 22 23  1  6
 22 24  1  0
 23 16  1  0
 24 26  1  0
 25 24  2  0
M  END
$$$$
