QII.pdb
     RDKit          3D

 26 25  0  0  1  0  0  0  0  0999 V2000
   27.2679  -18.9725  -17.9181 N   0  0  0  0  0  0  0  0  0  0  0  0
   28.4030  -18.4351  -17.2786 C   0  0  0  0  0  0  0  0  0  0  0  0
   29.2247  -17.7585  -17.9477 O   0  0  0  0  0  0  0  0  0  0  0  0
   28.5755  -18.6976  -15.8262 C   0  0  0  0  0  0  0  0  0  0  0  0
   27.3641  -19.4226  -15.2553 C   0  0  0  0  0  0  0  0  0  0  0  0
   27.9095  -20.4997  -14.3241 C   0  0  2  0  0  0  0  0  0  0  0  0
   28.6302  -21.4419  -15.1424 N   0  0  0  0  0  0  0  0  0  0  0  0
   26.8314  -21.1632  -13.5650 C   0  0  0  0  0  0  0  0  0  0  0  0
   26.2772  -22.1668  -14.0589 O   0  0  0  0  0  0  0  0  0  0  0  0
   26.7213  -20.4697   -8.1083 C   0  0  0  0  0  0  0  0  0  0  0  0
   26.6005  -21.1229   -9.4626 C   0  0  0  0  0  0  0  0  0  0  0  0
   25.3706  -20.6903  -10.1845 C   0  0  2  0  0  0  0  0  0  0  0  0
   24.1129  -21.1815   -9.4617 C   0  0  0  0  0  0  0  0  0  0  0  0
   25.2559  -21.1912  -11.6045 C   0  0  2  0  0  0  0  0  0  0  0  0
   26.4244  -20.6868  -12.3085 N   0  0  0  0  0  0  0  0  0  0  0  0
   24.0137  -20.6100  -12.1815 C   0  0  0  0  0  0  0  0  0  0  0  0
   23.9108  -19.3568  -12.1583 O   0  0  0  0  0  0  0  0  0  0  0  0
   22.6760  -21.1116  -17.0057 C   0  0  0  0  0  0  0  0  0  0  0  0
   22.7447  -20.7335  -15.5820 C   0  0  0  0  0  0  0  0  0  0  0  0
   21.6284  -20.9952  -14.6748 C   0  0  2  0  0  0  0  0  0  0  0  0
   20.2977  -20.4614  -15.2519 C   0  0  0  0  0  0  0  0  0  0  0  0
   21.7508  -20.6834  -13.2416 C   0  0  2  0  0  0  0  0  0  0  0  0
   22.9835  -21.3743  -12.7335 N   0  0  0  0  0  0  0  0  0  0  0  0
   20.6476  -21.0206  -12.3294 C   0  0  0  0  0  0  0  0  0  0  0  0
   20.3712  -22.1603  -11.9009 O   0  0  0  0  0  0  0  0  0  0  0  0
   19.7814  -20.0037  -11.8559 O   0  0  0  0  0  0  0  0  0  0  0  0
  2  1  1  0
  2  4  1  0
  3  2  2  0
  5  4  1  0
  6  5  1  0
  6  7  1  6
  8  6  1  0
  8  9  2  0
 11 10  1  0
 12 11  1  0
 12 14  1  0
 12 13  1  1
 14 15  1  6
 15  8  1  0
 16 14  1  0
 17 16  2  0
 18 19  1  0
 20 19  1  0
 20 22  1  0
 20 21  1  6
 22 23  1  1
 22 24  1  0
 23 16  1  0
 24 26  1  0
 25 24  2  0
M  END
$$$$
