QII.pdb
     RDKit          3D

 26 25  0  0  1  0  0  0  0  0999 V2000
   23.5345   -7.3126  -22.7187 N   0  0  0  0  0  0  0  0  0  0  0  0
   23.1766   -8.5174  -22.0810 C   0  0  0  0  0  0  0  0  0  0  0  0
   24.0706   -9.2194  -21.5435 O   0  0  0  0  0  0  0  0  0  0  0  0
   21.7420   -8.9043  -22.0748 C   0  0  0  0  0  0  0  0  0  0  0  0
   21.1289   -8.7037  -20.6953 C   0  0  0  0  0  0  0  0  0  0  0  0
   21.5081   -9.9321  -19.8756 C   0  0  2  0  0  0  0  0  0  0  0  0
   20.7338  -11.0362  -20.3838 N   0  0  0  0  0  0  0  0  0  0  0  0
   21.2645   -9.7244  -18.4347 C   0  0  0  0  0  0  0  0  0  0  0  0
   20.1727  -10.0873  -17.9503 O   0  0  0  0  0  0  0  0  0  0  0  0
   24.1499  -11.9174  -14.9672 C   0  0  0  0  0  0  0  0  0  0  0  0
   23.0350  -11.1894  -15.6759 C   0  0  0  0  0  0  0  0  0  0  0  0
   23.1247   -9.7133  -15.4912 C   0  0  2  0  0  0  0  0  0  0  0  0
   23.0359   -9.3431  -14.0078 C   0  0  0  0  0  0  0  0  0  0  0  0
   22.0436   -8.9178  -16.1832 C   0  0  2  0  0  0  0  0  0  0  0  0
   22.2330   -9.1306  -17.6094 N   0  0  0  0  0  0  0  0  0  0  0  0
   22.2579   -7.4857  -15.8410 C   0  0  0  0  0  0  0  0  0  0  0  0
   23.3466   -6.9729  -16.2060 O   0  0  0  0  0  0  0  0  0  0  0  0
   19.1890   -3.7526  -17.4734 C   0  0  0  0  0  0  0  0  0  0  0  0
   20.3431   -4.4552  -16.8826 C   0  0  0  0  0  0  0  0  0  0  0  0
   20.5760   -4.4475  -15.4392 C   0  0  2  0  0  0  0  0  0  0  0  0
   20.6104   -3.0059  -14.8828 C   0  0  0  0  0  0  0  0  0  0  0  0
   21.6507   -5.2685  -14.8585 C   0  0  2  0  0  0  0  0  0  0  0  0
   21.3279   -6.7058  -15.1504 N   0  0  0  0  0  0  0  0  0  0  0  0
   21.9464   -5.1651  -13.4217 C   0  0  0  0  0  0  0  0  0  0  0  0
   21.4012   -5.8219  -12.5105 O   0  0  0  0  0  0  0  0  0  0  0  0
   22.9309   -4.2547  -12.9628 O   0  0  0  0  0  0  0  0  0  0  0  0
  2  1  1  0
  2  4  1  0
  3  2  2  0
  5  4  1  0
  6  5  1  0
  6  7  1  6
  8  6  1  0
  8  9  2  0
 11 10  1  0
 12 11  1  0
 12 14  1  0
 12 13  1  1
 14 15  1  6
 15  8  1  0
 16 14  1  0
 17 16  2  0
 18 19  1  0
 20 19  1  0
 20 22  1  0
 20 21  1  6
 22 23  1  1
 22 24  1  0
 23 16  1  0
 24 26  1  0
 25 24  2  0
M  END
$$$$
