LDM.pdb
     RDKit          3D

 25 24  0  0  1  0  0  0  0  0999 V2000
   24.1591  -13.5156  -14.4057 C   0  0  0  0  0  0  0  0  0  0  0  0
   24.7829  -14.4109  -15.4516 C   0  0  1  0  0  0  0  0  0  0  0  0
   26.2374  -13.9352  -15.5810 C   0  0  0  0  0  0  0  0  0  0  0  0
   24.8186  -15.8431  -15.0563 C   0  0  0  0  0  0  0  0  0  0  0  0
   25.5098  -16.7725  -15.9986 C   0  0  2  0  0  0  0  0  0  0  0  0
   25.0018  -16.7273  -17.3467 N   0  0  0  0  0  0  0  0  0  0  0  0
   25.7179  -18.1398  -15.4779 C   0  0  0  0  0  0  0  0  0  0  0  0
   24.7720  -18.9664  -15.5277 O   0  0  0  0  0  0  0  0  0  0  0  0
   26.9396  -18.5983  -14.9106 N   0  0  0  0  0  0  0  0  0  0  0  0
   27.0830  -19.8876  -14.3044 C   0  0  1  0  0  0  0  0  0  0  0  0
   28.5091  -20.3320  -14.2395 C   0  0  0  0  0  0  0  0  0  0  0  0
   28.6911  -21.7617  -13.9189 C   0  0  0  0  0  0  0  0  0  0  0  0
   27.6923  -22.4922  -13.7105 O   0  0  0  0  0  0  0  0  0  0  0  0
   26.5575  -19.9005  -12.8961 C   0  0  0  0  0  0  0  0  0  0  0  0
   26.6311  -18.9226  -12.1309 O   0  0  0  0  0  0  0  0  0  0  0  0
   29.9278  -22.3691  -13.8301 O   0  0  0  0  0  0  0  0  0  0  0  0
   28.4742  -19.7150   -7.5566 C   0  0  0  0  0  0  0  0  0  0  0  0
   26.7001  -19.3700   -7.6322 S   0  0  0  0  0  0  0  0  0  0  0  0
   25.8235  -20.5409   -8.6707 C   0  0  0  0  0  0  0  0  0  0  0  0
   26.3455  -20.4432  -10.0896 C   0  0  0  0  0  0  0  0  0  0  0  0
   25.4822  -21.2355  -11.0500 C   0  0  2  0  0  0  0  0  0  0  0  0
   25.9472  -21.0897  -12.4189 N   0  0  0  0  0  0  0  0  0  0  0  0
   24.1012  -20.7188  -10.9490 C   0  0  0  0  0  0  0  0  0  0  0  0
   23.3758  -20.7734   -9.7511 O   0  0  0  0  0  0  0  0  0  0  0  0
   23.5462  -20.2147  -11.9492 O   0  0  0  0  0  0  0  0  0  0  0  0
  2  1  1  1
  3  2  1  0
  4  5  1  0
  4  2  1  0
  5  6  1  6
  7  5  1  0
  7  9  1  0
  8  7  2  0
 10  9  1  0
 10 11  1  1
 12 11  1  0
 12 13  2  0
 14 10  1  0
 15 14  2  0
 16 12  1  0
 17 18  1  0
 18 19  1  0
 20 19  1  0
 21 20  1  1
 21 22  1  0
 22 14  1  0
 23 21  1  0
 24 23  1  0
 25 23  2  0
M  END
$$$$
