LDM.pdb
     RDKit          3D

 25 24  0  0  1  0  0  0  0  0999 V2000
   26.2416  -25.7832  -15.8037 C   0  0  0  0  0  0  0  0  0  0  0  0
   24.8794  -25.6541  -16.4459 C   0  0  1  0  0  0  0  0  0  0  0  0
   24.6470  -26.9825  -17.1805 C   0  0  0  0  0  0  0  0  0  0  0  0
   23.7769  -25.4927  -15.4624 C   0  0  0  0  0  0  0  0  0  0  0  0
   22.4036  -25.3372  -16.0276 C   0  0  2  0  0  0  0  0  0  0  0  0
   22.3219  -24.4063  -17.1250 N   0  0  0  0  0  0  0  0  0  0  0  0
   21.3343  -25.1774  -15.0201 C   0  0  0  0  0  0  0  0  0  0  0  0
   21.3195  -25.9327  -14.0153 O   0  0  0  0  0  0  0  0  0  0  0  0
   20.2960  -24.2085  -15.1080 N   0  0  0  0  0  0  0  0  0  0  0  0
   19.2366  -24.1110  -14.1495 C   0  0  1  0  0  0  0  0  0  0  0  0
   18.6040  -22.7563  -14.1343 C   0  0  0  0  0  0  0  0  0  0  0  0
   17.5551  -22.5816  -13.1100 C   0  0  0  0  0  0  0  0  0  0  0  0
   16.9012  -21.5121  -13.0547 O   0  0  0  0  0  0  0  0  0  0  0  0
   18.1409  -25.1010  -14.4306 C   0  0  0  0  0  0  0  0  0  0  0  0
   17.6312  -25.2545  -15.5548 O   0  0  0  0  0  0  0  0  0  0  0  0
   17.2347  -23.5485  -12.1779 O   0  0  0  0  0  0  0  0  0  0  0  0
   16.2340  -29.0822   -9.6236 C   0  0  0  0  0  0  0  0  0  0  0  0
   15.0439  -29.5812  -10.8912 S   0  0  0  0  0  0  0  0  0  0  0  0
   15.1904  -28.5994  -12.3854 C   0  0  0  0  0  0  0  0  0  0  0  0
   16.3195  -27.6025  -12.2229 C   0  0  0  0  0  0  0  0  0  0  0  0
   16.5558  -26.8244  -13.5014 C   0  0  2  0  0  0  0  0  0  0  0  0
   17.6666  -25.8991  -13.3570 N   0  0  0  0  0  0  0  0  0  0  0  0
   15.3254  -26.0624  -13.8013 C   0  0  0  0  0  0  0  0  0  0  0  0
   15.0575  -24.8234  -13.2037 O   0  0  0  0  0  0  0  0  0  0  0  0
   14.4869  -26.5187  -14.6083 O   0  0  0  0  0  0  0  0  0  0  0  0
  2  1  1  1
  3  2  1  0
  4  5  1  0
  4  2  1  0
  5  6  1  6
  7  5  1  0
  7  9  1  0
  8  7  2  0
 10  9  1  0
 10 11  1  6
 12 11  1  0
 12 13  2  0
 14 10  1  0
 15 14  2  0
 16 12  1  0
 17 18  1  0
 18 19  1  0
 20 19  1  0
 21 20  1  1
 21 22  1  0
 22 14  1  0
 23 21  1  0
 24 23  1  0
 25 23  2  0
M  END
$$$$
