LDM.pdb
     RDKit          3D

 25 24  0  0  1  0  0  0  0  0999 V2000
   25.7501  -20.4087  -13.4999 C   0  0  0  0  0  0  0  0  0  0  0  0
   26.4191  -20.3063  -14.8514 C   0  0  1  0  0  0  0  0  0  0  0  0
   27.7214  -19.5307  -14.6043 C   0  0  0  0  0  0  0  0  0  0  0  0
   26.7911  -21.6252  -15.4265 C   0  0  0  0  0  0  0  0  0  0  0  0
   27.5472  -21.5962  -16.7137 C   0  0  2  0  0  0  0  0  0  0  0  0
   27.0285  -20.6596  -17.6787 N   0  0  0  0  0  0  0  0  0  0  0  0
   27.8656  -22.9260  -17.2745 C   0  0  0  0  0  0  0  0  0  0  0  0
   26.9801  -23.5523  -17.9102 O   0  0  0  0  0  0  0  0  0  0  0  0
   29.1309  -23.5632  -17.1430 N   0  0  0  0  0  0  0  0  0  0  0  0
   29.4217  -24.8450  -17.7112 C   0  0  1  0  0  0  0  0  0  0  0  0
   30.8892  -25.0721  -17.8853 C   0  0  0  0  0  0  0  0  0  0  0  0
   31.5259  -24.2112  -18.9018 C   0  0  0  0  0  0  0  0  0  0  0  0
   32.7661  -24.0218  -18.8789 O   0  0  0  0  0  0  0  0  0  0  0  0
   28.9063  -25.9639  -16.8497 C   0  0  0  0  0  0  0  0  0  0  0  0
   28.9390  -25.9392  -15.6065 O   0  0  0  0  0  0  0  0  0  0  0  0
   30.8248  -23.5796  -19.9097 O   0  0  0  0  0  0  0  0  0  0  0  0
   22.9400  -30.6154  -15.5945 C   0  0  0  0  0  0  0  0  0  0  0  0
   23.7963  -29.2521  -16.4194 S   0  0  0  0  0  0  0  0  0  0  0  0
   25.5752  -29.3376  -16.2047 C   0  0  0  0  0  0  0  0  0  0  0  0
   26.2273  -28.1937  -16.9539 C   0  0  0  0  0  0  0  0  0  0  0  0
   27.7292  -28.1891  -16.7539 C   0  0  2  0  0  0  0  0  0  0  0  0
   28.3552  -27.1043  -17.4903 N   0  0  0  0  0  0  0  0  0  0  0  0
   28.2555  -29.4786  -17.2487 C   0  0  0  0  0  0  0  0  0  0  0  0
   28.4846  -30.5630  -16.3910 O   0  0  0  0  0  0  0  0  0  0  0  0
   28.5102  -29.6265  -18.4635 O   0  0  0  0  0  0  0  0  0  0  0  0
  2  1  1  1
  3  2  1  0
  4  5  1  0
  4  2  1  0
  5  6  1  6
  7  5  1  0
  7  9  1  0
  8  7  2  0
 10  9  1  0
 10 11  1  1
 12 11  1  0
 12 13  2  0
 14 10  1  0
 15 14  2  0
 16 12  1  0
 17 18  1  0
 18 19  1  0
 20 19  1  0
 21 20  1  6
 21 22  1  0
 22 14  1  0
 23 21  1  0
 24 23  1  0
 25 23  2  0
M  END
$$$$
