LDM.pdb
     RDKit          3D

 25 24  0  0  1  0  0  0  0  0999 V2000
   19.0831  -15.0796  -18.1943 C   0  0  0  0  0  0  0  0  0  0  0  0
   18.8192  -14.1776  -17.0105 C   0  0  1  0  0  0  0  0  0  0  0  0
   19.8012  -14.6351  -15.9219 C   0  0  0  0  0  0  0  0  0  0  0  0
   19.1002  -12.7446  -17.2870 C   0  0  0  0  0  0  0  0  0  0  0  0
   18.7906  -11.7852  -16.1856 C   0  0  2  0  0  0  0  0  0  0  0  0
   17.6390  -12.1468  -15.3979 N   0  0  0  0  0  0  0  0  0  0  0  0
   18.8309  -10.3605  -16.5764 C   0  0  0  0  0  0  0  0  0  0  0  0
   19.8331   -9.9217  -17.1957 O   0  0  0  0  0  0  0  0  0  0  0  0
   17.7935   -9.4282  -16.2951 N   0  0  0  0  0  0  0  0  0  0  0  0
   17.7961   -8.0849  -16.7912 C   0  0  1  0  0  0  0  0  0  0  0  0
   16.4189   -7.5837  -17.0875 C   0  0  0  0  0  0  0  0  0  0  0  0
   16.3752   -6.2486  -17.7164 C   0  0  0  0  0  0  0  0  0  0  0  0
   15.5283   -5.4027  -17.3397 O   0  0  0  0  0  0  0  0  0  0  0  0
   18.4049   -7.1294  -15.8033 C   0  0  0  0  0  0  0  0  0  0  0  0
   18.2431   -7.2235  -14.5737 O   0  0  0  0  0  0  0  0  0  0  0  0
   17.2323   -5.8552  -18.7247 O   0  0  0  0  0  0  0  0  0  0  0  0
   23.4676   -0.9738  -15.2862 C   0  0  0  0  0  0  0  0  0  0  0  0
   22.7842   -2.3665  -16.2166 S   0  0  0  0  0  0  0  0  0  0  0  0
   21.5326   -3.2553  -15.2885 C   0  0  0  0  0  0  0  0  0  0  0  0
   20.9347   -4.3394  -16.1617 C   0  0  0  0  0  0  0  0  0  0  0  0
   19.8400   -5.0922  -15.4334 C   0  0  2  0  0  0  0  0  0  0  0  0
   19.2041   -6.0679  -16.3023 N   0  0  0  0  0  0  0  0  0  0  0  0
   18.8313   -4.1072  -14.9899 C   0  0  0  0  0  0  0  0  0  0  0  0
   18.8884   -3.5073  -13.7246 O   0  0  0  0  0  0  0  0  0  0  0  0
   17.8923   -3.7865  -15.7501 O   0  0  0  0  0  0  0  0  0  0  0  0
  2  1  1  6
  3  2  1  0
  4  5  1  0
  4  2  1  0
  5  6  1  6
  7  5  1  0
  7  9  1  0
  8  7  2  0
 10  9  1  0
 10 11  1  1
 12 11  1  0
 12 13  2  0
 14 10  1  0
 15 14  2  0
 16 12  1  0
 17 18  1  0
 18 19  1  0
 20 19  1  0
 21 20  1  6
 21 22  1  0
 22 14  1  0
 23 21  1  0
 24 23  1  0
 25 23  2  0
M  END
$$$$
