LDM.pdb
     RDKit          3D

 25 24  0  0  1  0  0  0  0  0999 V2000
   34.7888  -22.2241  -11.7919 C   0  0  0  0  0  0  0  0  0  0  0  0
   33.4310  -22.8468  -12.0227 C   0  0  1  0  0  0  0  0  0  0  0  0
   33.3652  -24.0479  -11.0680 C   0  0  0  0  0  0  0  0  0  0  0  0
   32.3020  -21.9440  -11.6775 C   0  0  0  0  0  0  0  0  0  0  0  0
   30.9311  -22.4555  -11.9750 C   0  0  2  0  0  0  0  0  0  0  0  0
   30.8515  -23.2654  -13.1647 N   0  0  0  0  0  0  0  0  0  0  0  0
   29.8559  -21.4483  -11.8579 C   0  0  0  0  0  0  0  0  0  0  0  0
   29.9739  -20.5188  -11.0198 O   0  0  0  0  0  0  0  0  0  0  0  0
   28.6693  -21.4556  -12.6430 N   0  0  0  0  0  0  0  0  0  0  0  0
   27.5910  -20.5364  -12.4359 C   0  0  1  0  0  0  0  0  0  0  0  0
   26.6946  -20.4307  -13.6279 C   0  0  0  0  0  0  0  0  0  0  0  0
   27.2950  -19.7398  -14.7863 C   0  0  0  0  0  0  0  0  0  0  0  0
   27.7818  -18.5911  -14.6512 O   0  0  0  0  0  0  0  0  0  0  0  0
   26.7275  -20.9459  -11.2756 C   0  0  0  0  0  0  0  0  0  0  0  0
   25.8908  -21.8642  -11.3378 O   0  0  0  0  0  0  0  0  0  0  0  0
   27.3590  -20.2912  -16.0505 O   0  0  0  0  0  0  0  0  0  0  0  0
   29.1305  -19.3824   -5.5220 C   0  0  0  0  0  0  0  0  0  0  0  0
   27.3830  -19.6324   -5.1271 S   0  0  0  0  0  0  0  0  0  0  0  0
   26.5182  -20.5367   -6.4125 C   0  0  0  0  0  0  0  0  0  0  0  0
   26.5099  -19.7159   -7.6858 C   0  0  0  0  0  0  0  0  0  0  0  0
   26.0754  -20.5480   -8.8750 C   0  0  2  0  0  0  0  0  0  0  0  0
   26.8772  -20.2478  -10.0489 N   0  0  0  0  0  0  0  0  0  0  0  0
   24.6607  -20.2277   -9.1588 C   0  0  0  0  0  0  0  0  0  0  0  0
   23.6153  -20.7310   -8.3728 O   0  0  0  0  0  0  0  0  0  0  0  0
   24.3670  -19.4885  -10.1231 O   0  0  0  0  0  0  0  0  0  0  0  0
  2  1  1  1
  3  2  1  0
  4  5  1  0
  4  2  1  0
  5  6  1  6
  7  5  1  0
  7  9  1  0
  8  7  2  0
 10  9  1  0
 10 11  1  6
 12 11  1  0
 12 13  2  0
 14 10  1  0
 15 14  2  0
 16 12  1  0
 17 18  1  0
 18 19  1  0
 20 19  1  0
 21 20  1  1
 21 22  1  0
 22 14  1  0
 23 21  1  0
 24 23  1  0
 25 23  2  0
M  END
$$$$
