LDM.pdb
     RDKit          3D

 25 24  0  0  1  0  0  0  0  0999 V2000
   30.6303  -21.1647  -10.6792 C   0  0  0  0  0  0  0  0  0  0  0  0
   29.1717  -21.5473  -10.5761 C   0  0  1  0  0  0  0  0  0  0  0  0
   28.7628  -21.2118   -9.1343 C   0  0  0  0  0  0  0  0  0  0  0  0
   28.2911  -20.7628  -11.4804 C   0  0  0  0  0  0  0  0  0  0  0  0
   26.8479  -21.1455  -11.4944 C   0  0  2  0  0  0  0  0  0  0  0  0
   26.6013  -22.5206  -11.1400 N   0  0  0  0  0  0  0  0  0  0  0  0
   26.0968  -20.6842  -12.6807 C   0  0  0  0  0  0  0  0  0  0  0  0
   25.8733  -19.4557  -12.8265 O   0  0  0  0  0  0  0  0  0  0  0  0
   25.5964  -21.5505  -13.6924 N   0  0  0  0  0  0  0  0  0  0  0  0
   24.7296  -21.1056  -14.7418 C   0  0  1  0  0  0  0  0  0  0  0  0
   25.1589  -21.6020  -16.0853 C   0  0  0  0  0  0  0  0  0  0  0  0
   26.5459  -22.1054  -16.1377 C   0  0  0  0  0  0  0  0  0  0  0  0
   27.4974  -21.3102  -16.3298 O   0  0  0  0  0  0  0  0  0  0  0  0
   23.3177  -21.5776  -14.5331 C   0  0  0  0  0  0  0  0  0  0  0  0
   23.0333  -22.6897  -14.0542 O   0  0  0  0  0  0  0  0  0  0  0  0
   26.8773  -23.4369  -15.9841 O   0  0  0  0  0  0  0  0  0  0  0  0
   18.9148  -19.5824   -9.1773 C   0  0  0  0  0  0  0  0  0  0  0  0
   20.3840  -19.6062  -10.2322 S   0  0  0  0  0  0  0  0  0  0  0  0
   20.0084  -20.1203  -11.9093 C   0  0  0  0  0  0  0  0  0  0  0  0
   21.2858  -20.1522  -12.7232 C   0  0  0  0  0  0  0  0  0  0  0  0
   21.0235  -20.6130  -14.1425 C   0  0  2  0  0  0  0  0  0  0  0  0
   22.2585  -20.7079  -14.9021 N   0  0  0  0  0  0  0  0  0  0  0  0
   20.1347  -19.6212  -14.7834 C   0  0  0  0  0  0  0  0  0  0  0  0
   20.6111  -18.6994  -15.7254 O   0  0  0  0  0  0  0  0  0  0  0  0
   18.9199  -19.5869  -14.4905 O   0  0  0  0  0  0  0  0  0  0  0  0
  2  1  1  1
  3  2  1  0
  4  5  1  0
  4  2  1  0
  5  6  1  6
  7  5  1  0
  7  9  1  0
  8  7  2  0
 10  9  1  0
 10 11  1  6
 12 11  1  0
 12 13  2  0
 14 10  1  0
 15 14  2  0
 16 12  1  0
 17 18  1  0
 18 19  1  0
 20 19  1  0
 21 20  1  1
 21 22  1  0
 22 14  1  0
 23 21  1  0
 24 23  1  0
 25 23  2  0
M  END
$$$$
