LDM.pdb
     RDKit          3D

 25 24  0  0  1  0  0  0  0  0999 V2000
   37.5090  -12.3155   -6.6276 C   0  0  0  0  0  0  0  0  0  0  0  0
   38.5433  -11.4634   -7.3267 C   0  0  1  0  0  0  0  0  0  0  0  0
   38.5004  -11.8960   -8.7997 C   0  0  0  0  0  0  0  0  0  0  0  0
   38.2370  -10.0098   -7.2826 C   0  0  0  0  0  0  0  0  0  0  0  0
   39.1840   -9.1118   -8.0081 C   0  0  2  0  0  0  0  0  0  0  0  0
   40.5693   -9.3231   -7.6706 N   0  0  0  0  0  0  0  0  0  0  0  0
   38.7825   -7.6901   -8.0462 C   0  0  0  0  0  0  0  0  0  0  0  0
   37.5685   -7.3986   -8.1937 O   0  0  0  0  0  0  0  0  0  0  0  0
   39.6919   -6.6025   -7.9257 N   0  0  0  0  0  0  0  0  0  0  0  0
   39.2690   -5.2365   -7.8501 C   0  0  1  0  0  0  0  0  0  0  0  0
   40.2647   -4.3691   -7.1487 C   0  0  0  0  0  0  0  0  0  0  0  0
   40.4165   -4.6528   -5.7078 C   0  0  0  0  0  0  0  0  0  0  0  0
   41.4542   -5.2163   -5.2831 O   0  0  0  0  0  0  0  0  0  0  0  0
   39.0594   -4.6438   -9.2155 C   0  0  0  0  0  0  0  0  0  0  0  0
   39.7572   -4.9382  -10.2021 O   0  0  0  0  0  0  0  0  0  0  0  0
   39.4617   -4.3286   -4.7647 O   0  0  0  0  0  0  0  0  0  0  0  0
   33.8945   -0.2419  -13.4188 C   0  0  0  0  0  0  0  0  0  0  0  0
   34.3460   -1.0953  -11.8890 S   0  0  0  0  0  0  0  0  0  0  0  0
   35.9818   -1.8264  -11.9759 C   0  0  0  0  0  0  0  0  0  0  0  0
   36.2812   -2.5440  -10.6757 C   0  0  0  0  0  0  0  0  0  0  0  0
   37.6831   -3.1186  -10.6736 C   0  0  2  0  0  0  0  0  0  0  0  0
   38.0115   -3.7014   -9.3838 N   0  0  0  0  0  0  0  0  0  0  0  0
   38.6245   -2.0162  -10.9617 C   0  0  0  0  0  0  0  0  0  0  0  0
   39.0106   -1.0959   -9.9777 O   0  0  0  0  0  0  0  0  0  0  0  0
   39.1012   -1.8833  -12.1095 O   0  0  0  0  0  0  0  0  0  0  0  0
  2  1  1  1
  3  2  1  0
  4  5  1  0
  4  2  1  0
  5  6  1  1
  7  5  1  0
  7  9  1  0
  8  7  2  0
 10  9  1  0
 10 11  1  6
 12 11  1  0
 12 13  2  0
 14 10  1  0
 15 14  2  0
 16 12  1  0
 17 18  1  0
 18 19  1  0
 20 19  1  0
 21 20  1  1
 21 22  1  0
 22 14  1  0
 23 21  1  0
 24 23  1  0
 25 23  2  0
M  END
$$$$
