LDM.pdb
     RDKit          3D

 25 24  0  0  1  0  0  0  0  0999 V2000
   25.3772  -18.7025  -18.6294 C   0  0  0  0  0  0  0  0  0  0  0  0
   25.3047  -19.6052  -17.4192 C   0  0  1  0  0  0  0  0  0  0  0  0
   24.7399  -20.9364  -17.9364 C   0  0  0  0  0  0  0  0  0  0  0  0
   26.6328  -19.8913  -16.8167 C   0  0  0  0  0  0  0  0  0  0  0  0
   26.6345  -20.7556  -15.5991 C   0  0  2  0  0  0  0  0  0  0  0  0
   26.0859  -22.0714  -15.8119 N   0  0  0  0  0  0  0  0  0  0  0  0
   26.1530  -20.0929  -14.3691 C   0  0  0  0  0  0  0  0  0  0  0  0
   26.6813  -19.0109  -14.0075 O   0  0  0  0  0  0  0  0  0  0  0  0
   25.1112  -20.6033  -13.5454 N   0  0  0  0  0  0  0  0  0  0  0  0
   24.6707  -19.9498  -12.3499 C   0  0  1  0  0  0  0  0  0  0  0  0
   23.1848  -19.7907  -12.3011 C   0  0  0  0  0  0  0  0  0  0  0  0
   22.4974  -20.7319  -11.3948 C   0  0  0  0  0  0  0  0  0  0  0  0
   23.1649  -21.5119  -10.6731 O   0  0  0  0  0  0  0  0  0  0  0  0
   25.0679  -20.7166  -11.1195 C   0  0  0  0  0  0  0  0  0  0  0  0
   25.0378  -21.9581  -11.0492 O   0  0  0  0  0  0  0  0  0  0  0  0
   21.1237  -20.8142  -11.2842 O   0  0  0  0  0  0  0  0  0  0  0  0
   28.6819  -19.8161   -4.0615 C   0  0  0  0  0  0  0  0  0  0  0  0
   27.9956  -19.0864   -5.5677 S   0  0  0  0  0  0  0  0  0  0  0  0
   27.1570  -20.2991   -6.5895 C   0  0  0  0  0  0  0  0  0  0  0  0
   26.7232  -19.6490   -7.8873 C   0  0  0  0  0  0  0  0  0  0  0  0
   25.9809  -20.6287   -8.7732 C   0  0  2  0  0  0  0  0  0  0  0  0
   25.4986  -19.9840   -9.9827 N   0  0  0  0  0  0  0  0  0  0  0  0
   24.8283  -21.1478   -8.0073 C   0  0  0  0  0  0  0  0  0  0  0  0
   24.9803  -22.1159   -7.0055 O   0  0  0  0  0  0  0  0  0  0  0  0
   23.6765  -20.7241   -8.2446 O   0  0  0  0  0  0  0  0  0  0  0  0
  2  1  1  6
  3  2  1  0
  4  5  1  0
  4  2  1  0
  5  6  1  6
  7  5  1  0
  7  9  1  0
  8  7  2  0
 10  9  1  0
 10 11  1  6
 12 11  1  0
 12 13  2  0
 14 10  1  0
 15 14  2  0
 16 12  1  0
 17 18  1  0
 18 19  1  0
 20 19  1  0
 21 20  1  1
 21 22  1  0
 22 14  1  0
 23 21  1  0
 24 23  1  0
 25 23  2  0
M  END
$$$$
