LDM.pdb
     RDKit          3D

 25 24  0  0  1  0  0  0  0  0999 V2000
   25.1788  -14.4859  -19.8839 C   0  0  0  0  0  0  0  0  0  0  0  0
   25.9392  -15.7920  -19.9053 C   0  0  1  0  0  0  0  0  0  0  0  0
   27.2621  -15.5060  -19.1795 C   0  0  0  0  0  0  0  0  0  0  0  0
   25.2552  -16.8846  -19.1656 C   0  0  0  0  0  0  0  0  0  0  0  0
   25.9963  -18.1765  -19.0591 C   0  0  2  0  0  0  0  0  0  0  0  0
   26.3208  -18.7741  -20.3299 N   0  0  0  0  0  0  0  0  0  0  0  0
   25.4461  -19.1257  -18.0689 C   0  0  0  0  0  0  0  0  0  0  0  0
   24.3400  -19.6780  -18.2966 O   0  0  0  0  0  0  0  0  0  0  0  0
   26.0928  -19.4666  -16.8483 N   0  0  0  0  0  0  0  0  0  0  0  0
   25.5017  -20.3236  -15.8651 C   0  0  1  0  0  0  0  0  0  0  0  0
   26.5081  -20.8642  -14.9005 C   0  0  0  0  0  0  0  0  0  0  0  0
   27.5240  -21.7479  -15.5063 C   0  0  0  0  0  0  0  0  0  0  0  0
   27.2976  -22.3047  -16.6078 O   0  0  0  0  0  0  0  0  0  0  0  0
   24.4625  -19.6026  -15.0529 C   0  0  0  0  0  0  0  0  0  0  0  0
   24.6255  -18.4564  -14.5980 O   0  0  0  0  0  0  0  0  0  0  0  0
   28.7472  -22.0114  -14.9227 O   0  0  0  0  0  0  0  0  0  0  0  0
   18.3080  -15.7649  -15.6049 C   0  0  0  0  0  0  0  0  0  0  0  0
   19.7348  -16.7386  -16.1417 S   0  0  0  0  0  0  0  0  0  0  0  0
   20.2818  -17.8939  -14.8831 C   0  0  0  0  0  0  0  0  0  0  0  0
   21.5835  -18.5340  -15.3200 C   0  0  0  0  0  0  0  0  0  0  0  0
   22.0535  -19.5672  -14.3165 C   0  0  2  0  0  0  0  0  0  0  0  0
   23.2346  -20.2659  -14.7940 N   0  0  0  0  0  0  0  0  0  0  0  0
   20.9587  -20.5412  -14.1232 C   0  0  0  0  0  0  0  0  0  0  0  0
   20.8128  -21.6646  -14.9482 O   0  0  0  0  0  0  0  0  0  0  0  0
   20.1286  -20.3762  -13.2033 O   0  0  0  0  0  0  0  0  0  0  0  0
  2  1  1  1
  3  2  1  0
  4  5  1  0
  4  2  1  0
  5  6  1  6
  7  5  1  0
  7  9  1  0
  8  7  2  0
 10  9  1  0
 10 11  1  1
 12 11  1  0
 12 13  2  0
 14 10  1  0
 15 14  2  0
 16 12  1  0
 17 18  1  0
 18 19  1  0
 20 19  1  0
 21 20  1  6
 21 22  1  0
 22 14  1  0
 23 21  1  0
 24 23  1  0
 25 23  2  0
M  END
$$$$
