LDM.pdb
     RDKit          3D

 25 24  0  0  1  0  0  0  0  0999 V2000
   22.7175  -17.3420  -18.3507 C   0  0  0  0  0  0  0  0  0  0  0  0
   23.9295  -17.7467  -17.5434 C   0  0  1  0  0  0  0  0  0  0  0  0
   25.0551  -16.8056  -17.9972 C   0  0  0  0  0  0  0  0  0  0  0  0
   23.7542  -17.5546  -16.0801 C   0  0  0  0  0  0  0  0  0  0  0  0
   24.8903  -17.9903  -15.2148 C   0  0  2  0  0  0  0  0  0  0  0  0
   26.1015  -18.2837  -15.9389 N   0  0  0  0  0  0  0  0  0  0  0  0
   24.5388  -18.9990  -14.1934 C   0  0  0  0  0  0  0  0  0  0  0  0
   23.4803  -18.8580  -13.5300 O   0  0  0  0  0  0  0  0  0  0  0  0
   25.3307  -20.1441  -13.8998 N   0  0  0  0  0  0  0  0  0  0  0  0
   24.9734  -21.1041  -12.8993 C   0  0  1  0  0  0  0  0  0  0  0  0
   25.3266  -22.5014  -13.2975 C   0  0  0  0  0  0  0  0  0  0  0  0
   24.5924  -23.0071  -14.4743 C   0  0  0  0  0  0  0  0  0  0  0  0
   25.1763  -23.7297  -15.3179 O   0  0  0  0  0  0  0  0  0  0  0  0
   25.6703  -20.8327  -11.5954 C   0  0  0  0  0  0  0  0  0  0  0  0
   26.8736  -20.5282  -11.5148 O   0  0  0  0  0  0  0  0  0  0  0  0
   23.2619  -22.7292  -14.7170 O   0  0  0  0  0  0  0  0  0  0  0  0
   29.6929  -18.9710   -6.7451 C   0  0  0  0  0  0  0  0  0  0  0  0
   27.9574  -18.5307   -7.0021 S   0  0  0  0  0  0  0  0  0  0  0  0
   26.9350  -19.9654   -7.3403 C   0  0  0  0  0  0  0  0  0  0  0  0
   26.3563  -19.8525   -8.7358 C   0  0  0  0  0  0  0  0  0  0  0  0
   25.5332  -21.0738   -9.0915 C   0  0  2  0  0  0  0  0  0  0  0  0
   24.9143  -20.9293  -10.3981 N   0  0  0  0  0  0  0  0  0  0  0  0
   24.4772  -21.2216   -8.0680 C   0  0  0  0  0  0  0  0  0  0  0  0
   24.7757  -21.5431   -6.7370 O   0  0  0  0  0  0  0  0  0  0  0  0
   23.2772  -21.0593   -8.3781 O   0  0  0  0  0  0  0  0  0  0  0  0
  2  1  1  6
  3  2  1  0
  4  5  1  0
  4  2  1  0
  5  6  1  6
  7  5  1  0
  7  9  1  0
  8  7  2  0
 10  9  1  0
 10 11  1  6
 12 11  1  0
 12 13  2  0
 14 10  1  0
 15 14  2  0
 16 12  1  0
 17 18  1  0
 18 19  1  0
 20 19  1  0
 21 20  1  1
 21 22  1  0
 22 14  1  0
 23 21  1  0
 24 23  1  0
 25 23  2  0
M  END
$$$$
