LDM.pdb
     RDKit          3D

 25 24  0  0  1  0  0  0  0  0999 V2000
   18.2782  -15.7385  -20.5497 C   0  0  0  0  0  0  0  0  0  0  0  0
   18.1146  -15.3029  -19.1116 C   0  0  1  0  0  0  0  0  0  0  0  0
   18.3649  -16.5642  -18.2721 C   0  0  0  0  0  0  0  0  0  0  0  0
   19.1095  -14.2835  -18.6875 C   0  0  0  0  0  0  0  0  0  0  0  0
   18.9288  -13.7113  -17.3202 C   0  0  2  0  0  0  0  0  0  0  0  0
   17.7466  -14.1773  -16.6399 N   0  0  0  0  0  0  0  0  0  0  0  0
   19.1428  -12.2520  -17.2268 C   0  0  0  0  0  0  0  0  0  0  0  0
   20.2089  -11.7579  -17.6739 O   0  0  0  0  0  0  0  0  0  0  0  0
   18.2081  -11.3454  -16.6535 N   0  0  0  0  0  0  0  0  0  0  0  0
   18.4205   -9.9300  -16.6092 C   0  0  1  0  0  0  0  0  0  0  0  0
   17.2179   -9.1877  -16.1209 C   0  0  0  0  0  0  0  0  0  0  0  0
   17.3655   -7.7187  -16.1151 C   0  0  0  0  0  0  0  0  0  0  0  0
   17.8681   -7.1326  -17.1044 O   0  0  0  0  0  0  0  0  0  0  0  0
   19.5576   -9.5676  -15.6953 C   0  0  0  0  0  0  0  0  0  0  0  0
   19.7110  -10.0653  -14.5657 O   0  0  0  0  0  0  0  0  0  0  0  0
   16.9744   -6.9199  -15.0592 O   0  0  0  0  0  0  0  0  0  0  0  0
   26.0821  -10.6086  -14.2271 C   0  0  0  0  0  0  0  0  0  0  0  0
   25.5360   -9.5602  -15.5962 S   0  0  0  0  0  0  0  0  0  0  0  0
   24.1518   -8.5139  -15.1410 C   0  0  0  0  0  0  0  0  0  0  0  0
   22.8982   -9.0103  -15.8317 C   0  0  0  0  0  0  0  0  0  0  0  0
   21.6755   -8.2419  -15.3732 C   0  0  2  0  0  0  0  0  0  0  0  0
   20.5019   -8.6092  -16.1472 N   0  0  0  0  0  0  0  0  0  0  0  0
   21.9493   -6.8017  -15.5611 C   0  0  0  0  0  0  0  0  0  0  0  0
   22.8222   -6.0980  -14.7203 O   0  0  0  0  0  0  0  0  0  0  0  0
   21.3966   -6.1749  -16.4908 O   0  0  0  0  0  0  0  0  0  0  0  0
  2  1  1  6
  3  2  1  0
  4  5  1  0
  4  2  1  0
  5  6  1  6
  7  5  1  0
  7  9  1  0
  8  7  2  0
 10  9  1  0
 10 11  1  1
 12 11  1  0
 12 13  2  0
 14 10  1  0
 15 14  2  0
 16 12  1  0
 17 18  1  0
 18 19  1  0
 20 19  1  0
 21 20  1  6
 21 22  1  0
 22 14  1  0
 23 21  1  0
 24 23  1  0
 25 23  2  0
M  END
$$$$
