LDI.pdb
     RDKit          3D

 25 24  0  0  1  0  0  0  0  0999 V2000
    9.2989  -13.3555   19.3521 C   0  0  0  0  0  0  0  0  0  0  0  0
    7.7965  -13.3458   19.5067 C   0  0  2  0  0  0  0  0  0  0  0  0
    7.2948  -11.9243   19.6089 C   0  0  0  0  0  0  0  0  0  0  0  0
    7.3341  -14.2145   20.6447 C   0  0  0  0  0  0  0  0  0  0  0  0
    8.0104  -15.5751   20.5133 C   0  0  2  0  0  0  0  0  0  0  0  0
    7.0234  -16.4476   19.8434 N   0  0  0  0  0  0  0  0  0  0  0  0
    8.2595  -16.1700   21.8466 C   0  0  0  0  0  0  0  0  0  0  0  0
    7.2988  -16.4022   22.6081 O   0  0  0  0  0  0  0  0  0  0  0  0
    9.5699  -16.4962   22.3060 N   0  0  0  0  0  0  0  0  0  0  0  0
    9.8438  -16.9884   23.6227 C   0  0  1  0  0  0  0  0  0  0  0  0
   11.0140  -17.9649   23.5430 C   0  0  0  0  0  0  0  0  0  0  0  0
   11.4134  -18.5248   24.8460 C   0  0  0  0  0  0  0  0  0  0  0  0
   10.5146  -18.9094   25.6402 O   0  0  0  0  0  0  0  0  0  0  0  0
   10.1700  -15.9044   24.6067 C   0  0  0  0  0  0  0  0  0  0  0  0
   11.1696  -15.1555   24.3822 O   0  0  0  0  0  0  0  0  0  0  0  0
   12.7300  -18.6627   25.2645 O   0  0  0  0  0  0  0  0  0  0  0  0
    6.8238  -12.2923   26.0287 C   0  0  0  0  0  0  0  0  0  0  0  0
    8.1086  -13.0711   25.8485 C   0  0  0  0  0  0  0  0  0  0  0  0
    8.4510  -13.8603   27.1016 C   0  0  2  0  0  0  0  0  0  0  0  0
    8.8654  -12.7848   28.1227 C   0  0  0  0  0  0  0  0  0  0  0  0
    9.6519  -14.7330   26.8201 C   0  0  2  0  0  0  0  0  0  0  0  0
    9.4303  -15.6740   25.7507 N   0  0  0  0  0  0  0  0  0  0  0  0
    9.9817  -15.5294   28.0010 C   0  0  0  0  0  0  0  0  0  0  0  0
    9.3826  -16.7619   28.2060 O   0  0  0  0  0  0  0  0  0  0  0  0
   10.8121  -15.1484   28.8826 O   0  0  0  0  0  0  0  0  0  0  0  0
  2  1  1  1
  2  3  1  0
  4  5  1  0
  4  2  1  0
  5  7  1  0
  5  6  1  6
  7  8  2  0
  9  7  1  0
  9 10  1  0
 10 14  1  0
 10 11  1  6
 12 11  1  0
 13 12  2  0
 14 15  2  0
 16 12  1  0
 18 19  1  0
 18 17  1  0
 19 21  1  0
 19 20  1  1
 21 23  1  0
 21 22  1  6
 22 14  1  0
 23 25  2  0
 23 24  1  0
M  END
$$$$
