LDI.pdb
     RDKit          3D

 25 24  0  0  1  0  0  0  0  0999 V2000
    9.0524  -12.6194   18.7392 C   0  0  0  0  0  0  0  0  0  0  0  0
    7.8496  -13.5144   18.9231 C   0  0  2  0  0  0  0  0  0  0  0  0
    6.6044  -12.8183   18.4255 C   0  0  0  0  0  0  0  0  0  0  0  0
    7.7187  -14.0115   20.3370 C   0  0  0  0  0  0  0  0  0  0  0  0
    9.0746  -14.5489   20.7826 C   0  0  2  0  0  0  0  0  0  0  0  0
    9.4573  -15.5541   19.7690 N   0  0  0  0  0  0  0  0  0  0  0  0
    8.9566  -15.2739   22.0687 C   0  0  0  0  0  0  0  0  0  0  0  0
    8.0296  -14.9905   22.8542 O   0  0  0  0  0  0  0  0  0  0  0  0
    9.8695  -16.2995   22.4552 N   0  0  0  0  0  0  0  0  0  0  0  0
    9.8250  -16.9561   23.7271 C   0  0  1  0  0  0  0  0  0  0  0  0
   10.7484  -18.1703   23.6800 C   0  0  0  0  0  0  0  0  0  0  0  0
   10.8730  -18.8753   24.9677 C   0  0  0  0  0  0  0  0  0  0  0  0
    9.8727  -19.4947   25.4175 O   0  0  0  0  0  0  0  0  0  0  0  0
   10.2299  -16.0705   24.8679 C   0  0  0  0  0  0  0  0  0  0  0  0
   11.3539  -15.4834   24.8170 O   0  0  0  0  0  0  0  0  0  0  0  0
   12.0331  -18.9075   25.7298 O   0  0  0  0  0  0  0  0  0  0  0  0
    6.6573  -12.6324   26.5272 C   0  0  0  0  0  0  0  0  0  0  0  0
    7.9627  -13.3486   26.2576 C   0  0  0  0  0  0  0  0  0  0  0  0
    8.3864  -14.1842   27.4544 C   0  0  2  0  0  0  0  0  0  0  0  0
    8.7640  -13.1441   28.5253 C   0  0  0  0  0  0  0  0  0  0  0  0
    9.6289  -14.9646   27.0940 C   0  0  2  0  0  0  0  0  0  0  0  0
    9.4346  -15.8550   25.9771 N   0  0  0  0  0  0  0  0  0  0  0  0
   10.0374  -15.8053   28.2182 C   0  0  0  0  0  0  0  0  0  0  0  0
   10.9296  -15.3272   29.1644 O   0  0  0  0  0  0  0  0  0  0  0  0
    9.6111  -16.9893   28.3875 O   0  0  0  0  0  0  0  0  0  0  0  0
  2  1  1  1
  2  3  1  0
  4  5  1  0
  4  2  1  0
  5  7  1  0
  5  6  1  6
  7  8  2  0
  9  7  1  0
  9 10  1  0
 10 14  1  0
 10 11  1  6
 12 11  1  0
 13 12  2  0
 14 15  2  0
 16 12  1  0
 18 19  1  0
 18 17  1  0
 19 21  1  0
 19 20  1  1
 21 23  1  0
 21 22  1  6
 22 14  1  0
 23 25  2  0
 23 24  1  0
M  END
$$$$
