LDI.pdb
     RDKit          3D

 25 24  0  0  1  0  0  0  0  0999 V2000
    9.4544  -13.1654   19.2247 C   0  0  0  0  0  0  0  0  0  0  0  0
    7.9674  -13.3493   19.4156 C   0  0  2  0  0  0  0  0  0  0  0  0
    7.2764  -12.0057   19.4297 C   0  0  0  0  0  0  0  0  0  0  0  0
    7.6461  -14.1871   20.6231 C   0  0  0  0  0  0  0  0  0  0  0  0
    8.4288  -15.4921   20.5220 C   0  0  2  0  0  0  0  0  0  0  0  0
    7.5660  -16.4157   19.7559 N   0  0  0  0  0  0  0  0  0  0  0  0
    8.6118  -16.1012   21.8596 C   0  0  0  0  0  0  0  0  0  0  0  0
    7.6136  -16.3571   22.5629 O   0  0  0  0  0  0  0  0  0  0  0  0
    9.8992  -16.4148   22.3876 N   0  0  0  0  0  0  0  0  0  0  0  0
   10.1098  -16.8865   23.7233 C   0  0  1  0  0  0  0  0  0  0  0  0
   11.3161  -17.8213   23.7243 C   0  0  0  0  0  0  0  0  0  0  0  0
   11.2770  -18.8467   22.6670 C   0  0  0  0  0  0  0  0  0  0  0  0
   10.3878  -19.7372   22.7206 O   0  0  0  0  0  0  0  0  0  0  0  0
   10.3375  -15.7838   24.7142 C   0  0  0  0  0  0  0  0  0  0  0  0
   11.2398  -14.9239   24.4754 O   0  0  0  0  0  0  0  0  0  0  0  0
   12.1625  -18.8993   21.5990 O   0  0  0  0  0  0  0  0  0  0  0  0
    6.4544  -12.8031   26.2736 C   0  0  0  0  0  0  0  0  0  0  0  0
    7.8454  -13.3454   26.0275 C   0  0  0  0  0  0  0  0  0  0  0  0
    8.3999  -14.0166   27.2734 C   0  0  2  0  0  0  0  0  0  0  0  0
    8.6786  -12.8491   28.2380 C   0  0  0  0  0  0  0  0  0  0  0  0
    9.7172  -14.6736   26.9329 C   0  0  2  0  0  0  0  0  0  0  0  0
    9.6070  -15.6516   25.8796 N   0  0  0  0  0  0  0  0  0  0  0  0
   10.2383  -15.3872   28.0977 C   0  0  0  0  0  0  0  0  0  0  0  0
   11.1192  -14.7636   28.9666 O   0  0  0  0  0  0  0  0  0  0  0  0
    9.9235  -16.5861   28.3725 O   0  0  0  0  0  0  0  0  0  0  0  0
  2  1  1  1
  2  3  1  0
  4  5  1  0
  4  2  1  0
  5  7  1  0
  5  6  1  6
  7  8  2  0
  9  7  1  0
  9 10  1  0
 10 14  1  0
 10 11  1  6
 12 11  1  0
 13 12  2  0
 14 15  2  0
 16 12  1  0
 18 19  1  0
 18 17  1  0
 19 21  1  0
 19 20  1  1
 21 23  1  0
 21 22  1  6
 22 14  1  0
 23 25  2  0
 23 24  1  0
M  END
$$$$
