LDI.pdb
     RDKit          3D

 25 24  0  0  1  0  0  0  0  0999 V2000
    8.9766  -12.4124   19.0516 C   0  0  0  0  0  0  0  0  0  0  0  0
    7.8074  -13.3419   19.2763 C   0  0  2  0  0  0  0  0  0  0  0  0
    6.5195  -12.6619   18.8742 C   0  0  0  0  0  0  0  0  0  0  0  0
    7.7711  -13.8850   20.6788 C   0  0  0  0  0  0  0  0  0  0  0  0
    9.1702  -14.3734   21.0391 C   0  0  2  0  0  0  0  0  0  0  0  0
    9.5730  -15.2747   19.9392 N   0  0  0  0  0  0  0  0  0  0  0  0
    9.1392  -15.1993   22.2681 C   0  0  0  0  0  0  0  0  0  0  0  0
    8.2497  -15.0039   23.1208 O   0  0  0  0  0  0  0  0  0  0  0  0
   10.0957  -16.2261   22.5240 N   0  0  0  0  0  0  0  0  0  0  0  0
   10.1792  -16.9339   23.7663 C   0  0  1  0  0  0  0  0  0  0  0  0
   11.2081  -18.0516   23.6208 C   0  0  0  0  0  0  0  0  0  0  0  0
   10.8673  -19.0454   22.5880 C   0  0  0  0  0  0  0  0  0  0  0  0
   11.7292  -19.9071   22.2698 O   0  0  0  0  0  0  0  0  0  0  0  0
   10.5587  -16.0595   24.9243 C   0  0  0  0  0  0  0  0  0  0  0  0
   11.6075  -15.3504   24.8371 O   0  0  0  0  0  0  0  0  0  0  0  0
    9.6441  -19.1013   21.9335 O   0  0  0  0  0  0  0  0  0  0  0  0
    6.8379  -13.0088   26.8083 C   0  0  0  0  0  0  0  0  0  0  0  0
    8.1695  -13.6445   26.4731 C   0  0  0  0  0  0  0  0  0  0  0  0
    8.7131  -14.4321   27.6539 C   0  0  2  0  0  0  0  0  0  0  0  0
    9.0702  -13.3539   28.6936 C   0  0  0  0  0  0  0  0  0  0  0  0
    9.9879  -15.1271   27.2362 C   0  0  2  0  0  0  0  0  0  0  0  0
    9.8174  -15.9816   26.0878 N   0  0  0  0  0  0  0  0  0  0  0  0
   10.4675  -15.9881   28.3162 C   0  0  0  0  0  0  0  0  0  0  0  0
   11.4605  -15.5479   29.1764 O   0  0  0  0  0  0  0  0  0  0  0  0
   10.0151  -17.1565   28.5222 O   0  0  0  0  0  0  0  0  0  0  0  0
  2  1  1  1
  2  3  1  0
  4  5  1  0
  4  2  1  0
  5  7  1  0
  5  6  1  6
  7  8  2  0
  9  7  1  0
  9 10  1  0
 10 14  1  0
 10 11  1  6
 12 11  1  0
 13 12  2  0
 14 15  2  0
 16 12  1  0
 18 19  1  0
 18 17  1  0
 19 21  1  0
 19 20  1  1
 21 23  1  0
 21 22  1  6
 22 14  1  0
 23 25  2  0
 23 24  1  0
M  END
$$$$
