LDI.pdb
     RDKit          3D

 25 24  0  0  1  0  0  0  0  0999 V2000
    9.3761  -13.3876   19.2868 C   0  0  0  0  0  0  0  0  0  0  0  0
    7.9108  -13.3620   19.6528 C   0  0  2  0  0  0  0  0  0  0  0  0
    7.4130  -11.9363   19.7002 C   0  0  0  0  0  0  0  0  0  0  0  0
    7.6247  -14.1258   20.9169 C   0  0  0  0  0  0  0  0  0  0  0  0
    8.2240  -15.5214   20.7787 C   0  0  2  0  0  0  0  0  0  0  0  0
    7.1430  -16.3666   20.2299 N   0  0  0  0  0  0  0  0  0  0  0  0
    8.5622  -16.0829   22.1069 C   0  0  0  0  0  0  0  0  0  0  0  0
    7.6529  -16.3120   22.9298 O   0  0  0  0  0  0  0  0  0  0  0  0
    9.9029  -16.3798   22.4929 N   0  0  0  0  0  0  0  0  0  0  0  0
   10.2579  -16.8826   23.7861 C   0  0  1  0  0  0  0  0  0  0  0  0
   11.5599  -17.6691   23.6613 C   0  0  0  0  0  0  0  0  0  0  0  0
   11.4543  -18.8661   22.8089 C   0  0  0  0  0  0  0  0  0  0  0  0
   10.3435  -19.4544   22.7271 O   0  0  0  0  0  0  0  0  0  0  0  0
   10.4268  -15.8061   24.8167 C   0  0  0  0  0  0  0  0  0  0  0  0
   11.3897  -14.9884   24.6945 O   0  0  0  0  0  0  0  0  0  0  0  0
   12.5077  -19.3972   22.0769 O   0  0  0  0  0  0  0  0  0  0  0  0
    6.4629  -12.7583   26.2888 C   0  0  0  0  0  0  0  0  0  0  0  0
    7.8238  -13.3781   26.0575 C   0  0  0  0  0  0  0  0  0  0  0  0
    8.3316  -14.0687   27.3125 C   0  0  2  0  0  0  0  0  0  0  0  0
    8.5917  -12.9149   28.2985 C   0  0  0  0  0  0  0  0  0  0  0  0
    9.6522  -14.7360   27.0063 C   0  0  2  0  0  0  0  0  0  0  0  0
    9.5794  -15.6542   25.8974 N   0  0  0  0  0  0  0  0  0  0  0  0
   10.0963  -15.5217   28.1565 C   0  0  0  0  0  0  0  0  0  0  0  0
   10.9543  -14.9700   29.0942 O   0  0  0  0  0  0  0  0  0  0  0  0
    9.7326  -16.7215   28.3568 O   0  0  0  0  0  0  0  0  0  0  0  0
  2  1  1  1
  2  3  1  0
  4  5  1  0
  4  2  1  0
  5  7  1  0
  5  6  1  1
  7  8  2  0
  9  7  1  0
  9 10  1  0
 10 14  1  0
 10 11  1  6
 12 11  1  0
 13 12  2  0
 14 15  2  0
 16 12  1  0
 18 19  1  0
 18 17  1  0
 19 21  1  0
 19 20  1  1
 21 23  1  0
 21 22  1  6
 22 14  1  0
 23 25  2  0
 23 24  1  0
M  END
$$$$
