LDI.pdb
     RDKit          3D

 25 24  0  0  1  0  0  0  0  0999 V2000
    9.4024  -13.3579   19.0822 C   0  0  0  0  0  0  0  0  0  0  0  0
    7.8988  -13.4329   19.2055 C   0  0  2  0  0  0  0  0  0  0  0  0
    7.3099  -12.0416   19.2229 C   0  0  0  0  0  0  0  0  0  0  0  0
    7.4631  -14.2692   20.3777 C   0  0  0  0  0  0  0  0  0  0  0  0
    8.4143  -15.4551   20.4991 C   0  0  2  0  0  0  0  0  0  0  0  0
    7.7882  -16.5485   19.7265 N   0  0  0  0  0  0  0  0  0  0  0  0
    8.4938  -15.9247   21.9016 C   0  0  0  0  0  0  0  0  0  0  0  0
    7.5260  -15.7455   22.6682 O   0  0  0  0  0  0  0  0  0  0  0  0
    9.6457  -16.5848   22.4230 N   0  0  0  0  0  0  0  0  0  0  0  0
    9.7352  -17.0700   23.7675 C   0  0  1  0  0  0  0  0  0  0  0  0
   10.7451  -18.2136   23.8055 C   0  0  0  0  0  0  0  0  0  0  0  0
   10.4966  -19.2625   22.8011 C   0  0  0  0  0  0  0  0  0  0  0  0
    9.3295  -19.7209   22.6813 O   0  0  0  0  0  0  0  0  0  0  0  0
   10.1433  -16.0164   24.7538 C   0  0  0  0  0  0  0  0  0  0  0  0
   11.1060  -15.2435   24.4596 O   0  0  0  0  0  0  0  0  0  0  0  0
   11.4720  -19.7866   21.9636 O   0  0  0  0  0  0  0  0  0  0  0  0
    7.0120  -12.3795   26.2851 C   0  0  0  0  0  0  0  0  0  0  0  0
    8.2574  -13.2117   26.0702 C   0  0  0  0  0  0  0  0  0  0  0  0
    8.6238  -13.9840   27.3269 C   0  0  2  0  0  0  0  0  0  0  0  0
    9.0978  -12.8988   28.3112 C   0  0  0  0  0  0  0  0  0  0  0  0
    9.7935  -14.8907   27.0232 C   0  0  2  0  0  0  0  0  0  0  0  0
    9.5178  -15.8388   25.9729 N   0  0  0  0  0  0  0  0  0  0  0  0
   10.1364  -15.6808   28.2047 C   0  0  0  0  0  0  0  0  0  0  0  0
    9.5939  -16.9426   28.3868 O   0  0  0  0  0  0  0  0  0  0  0  0
   10.9281  -15.2678   29.1073 O   0  0  0  0  0  0  0  0  0  0  0  0
  2  1  1  1
  2  3  1  0
  4  5  1  0
  4  2  1  0
  5  7  1  0
  5  6  1  6
  7  8  2  0
  9  7  1  0
  9 10  1  0
 10 14  1  0
 10 11  1  6
 12 11  1  0
 13 12  2  0
 14 15  2  0
 16 12  1  0
 18 19  1  0
 18 17  1  0
 19 21  1  0
 19 20  1  1
 21 23  1  0
 21 22  1  6
 22 14  1  0
 23 25  2  0
 23 24  1  0
M  END
$$$$
