LDI.pdb
     RDKit          3D

 25 24  0  0  1  0  0  0  0  0999 V2000
    9.4642  -13.3466   19.3247 C   0  0  0  0  0  0  0  0  0  0  0  0
    7.9663  -13.3913   19.1356 C   0  0  2  0  0  0  0  0  0  0  0  0
    7.4029  -11.9894   19.1246 C   0  0  0  0  0  0  0  0  0  0  0  0
    7.2908  -14.2873   20.1376 C   0  0  0  0  0  0  0  0  0  0  0  0
    8.0364  -15.6173   20.1692 C   0  0  2  0  0  0  0  0  0  0  0  0
    7.2086  -16.5567   19.3840 N   0  0  0  0  0  0  0  0  0  0  0  0
    8.0912  -16.1575   21.5472 C   0  0  0  0  0  0  0  0  0  0  0  0
    7.0350  -16.4895   22.1224 O   0  0  0  0  0  0  0  0  0  0  0  0
    9.3177  -16.3191   22.2572 N   0  0  0  0  0  0  0  0  0  0  0  0
    9.3907  -16.7908   23.6075 C   0  0  1  0  0  0  0  0  0  0  0  0
   10.3686  -17.9613   23.6614 C   0  0  0  0  0  0  0  0  0  0  0  0
   10.5630  -18.5143   25.0131 C   0  0  0  0  0  0  0  0  0  0  0  0
    9.5572  -18.6610   25.7571 O   0  0  0  0  0  0  0  0  0  0  0  0
    9.8255  -15.7373   24.5825 C   0  0  0  0  0  0  0  0  0  0  0  0
   10.9616  -15.1931   24.4284 O   0  0  0  0  0  0  0  0  0  0  0  0
   11.7944  -18.8929   25.5307 O   0  0  0  0  0  0  0  0  0  0  0  0
    5.8442  -12.8142   27.1206 C   0  0  0  0  0  0  0  0  0  0  0  0
    6.9150  -13.8730   26.9727 C   0  0  0  0  0  0  0  0  0  0  0  0
    8.2763  -13.2444   26.7242 C   0  0  2  0  0  0  0  0  0  0  0  0
    8.1513  -12.6162   25.3238 C   0  0  0  0  0  0  0  0  0  0  0  0
    9.3182  -14.3368   26.6612 C   0  0  2  0  0  0  0  0  0  0  0  0
    9.0455  -15.3219   25.6448 N   0  0  0  0  0  0  0  0  0  0  0  0
    9.3620  -15.0625   27.9297 C   0  0  0  0  0  0  0  0  0  0  0  0
    9.0069  -16.4007   27.9853 O   0  0  0  0  0  0  0  0  0  0  0  0
    9.7171  -14.5237   29.0232 O   0  0  0  0  0  0  0  0  0  0  0  0
  2  1  1  1
  2  3  1  0
  4  5  1  0
  4  2  1  0
  5  7  1  0
  5  6  1  6
  7  8  2  0
  9  7  1  0
  9 10  1  0
 10 14  1  0
 10 11  1  6
 12 11  1  0
 13 12  2  0
 14 15  2  0
 16 12  1  0
 18 19  1  0
 18 17  1  0
 19 21  1  0
 19 20  1  6
 21 23  1  0
 21 22  1  6
 22 14  1  0
 23 25  2  0
 23 24  1  0
M  END
$$$$
