LDI.pdb
     RDKit          3D

 25 24  0  0  1  0  0  0  0  0999 V2000
    9.3147  -13.9418   18.7827 C   0  0  0  0  0  0  0  0  0  0  0  0
    7.8538  -13.5986   18.9546 C   0  0  2  0  0  0  0  0  0  0  0  0
    7.6513  -12.1080   18.8142 C   0  0  0  0  0  0  0  0  0  0  0  0
    7.2843  -14.1504   20.2331 C   0  0  0  0  0  0  0  0  0  0  0  0
    7.6374  -15.6318   20.3140 C   0  0  2  0  0  0  0  0  0  0  0  0
    6.4263  -16.3546   19.8722 N   0  0  0  0  0  0  0  0  0  0  0  0
    7.8806  -16.0392   21.7170 C   0  0  0  0  0  0  0  0  0  0  0  0
    6.9520  -15.9759   22.5479 O   0  0  0  0  0  0  0  0  0  0  0  0
    9.1494  -16.5098   22.1679 N   0  0  0  0  0  0  0  0  0  0  0  0
    9.4417  -16.7960   23.5404 C   0  0  1  0  0  0  0  0  0  0  0  0
   10.6756  -17.6923   23.5980 C   0  0  0  0  0  0  0  0  0  0  0  0
   10.5594  -18.9197   22.7914 C   0  0  0  0  0  0  0  0  0  0  0  0
    9.4799  -19.5677   22.8280 O   0  0  0  0  0  0  0  0  0  0  0  0
    9.6838  -15.5671   24.3654 C   0  0  0  0  0  0  0  0  0  0  0  0
   10.6371  -14.7932   24.0445 O   0  0  0  0  0  0  0  0  0  0  0  0
   11.5700  -19.4179   21.9801 O   0  0  0  0  0  0  0  0  0  0  0  0
    5.5768  -12.8077   26.8445 C   0  0  0  0  0  0  0  0  0  0  0  0
    6.6716  -13.8210   26.5912 C   0  0  0  0  0  0  0  0  0  0  0  0
    8.0184  -13.1394   26.4137 C   0  0  2  0  0  0  0  0  0  0  0  0
    7.9556  -12.5446   24.9948 C   0  0  0  0  0  0  0  0  0  0  0  0
    9.1068  -14.1870   26.4397 C   0  0  2  0  0  0  0  0  0  0  0  0
    8.9141  -15.2286   25.4619 N   0  0  0  0  0  0  0  0  0  0  0  0
    9.1333  -14.8514   27.7418 C   0  0  0  0  0  0  0  0  0  0  0  0
    8.8299  -16.1991   27.8484 O   0  0  0  0  0  0  0  0  0  0  0  0
    9.4267  -14.2488   28.8201 O   0  0  0  0  0  0  0  0  0  0  0  0
  2  1  1  1
  2  3  1  0
  4  5  1  0
  4  2  1  0
  5  7  1  0
  5  6  1  1
  7  8  2  0
  9  7  1  0
  9 10  1  0
 10 14  1  0
 10 11  1  6
 12 11  1  0
 13 12  2  0
 14 15  2  0
 16 12  1  0
 18 19  1  0
 18 17  1  0
 19 21  1  0
 19 20  1  6
 21 23  1  0
 21 22  1  6
 22 14  1  0
 23 25  2  0
 23 24  1  0
M  END
$$$$
