LDI.pdb
     RDKit          3D

 25 24  0  0  1  0  0  0  0  0999 V2000
    7.8356  -12.9062   21.9297 C   0  0  0  0  0  0  0  0  0  0  0  0
    8.3036  -13.6792   20.7194 C   0  0  2  0  0  0  0  0  0  0  0  0
    8.6497  -12.7274   19.5981 C   0  0  0  0  0  0  0  0  0  0  0  0
    7.3217  -14.7413   20.3054 C   0  0  0  0  0  0  0  0  0  0  0  0
    7.0248  -15.6170   21.5182 C   0  0  2  0  0  0  0  0  0  0  0  0
    6.7225  -14.6809   22.6211 N   0  0  0  0  0  0  0  0  0  0  0  0
    8.2300  -16.3737   21.9288 C   0  0  0  0  0  0  0  0  0  0  0  0
    8.6613  -17.2902   21.2003 O   0  0  0  0  0  0  0  0  0  0  0  0
    8.9320  -16.0960   23.1390 N   0  0  0  0  0  0  0  0  0  0  0  0
   10.1173  -16.7924   23.5403 C   0  0  1  0  0  0  0  0  0  0  0  0
   11.1305  -16.7245   22.4010 C   0  0  0  0  0  0  0  0  0  0  0  0
   12.3464  -17.5226   22.6357 C   0  0  0  0  0  0  0  0  0  0  0  0
   12.3617  -18.3323   23.6005 O   0  0  0  0  0  0  0  0  0  0  0  0
   10.7383  -16.2390   24.7884 C   0  0  0  0  0  0  0  0  0  0  0  0
   11.6804  -15.3956   24.6804 O   0  0  0  0  0  0  0  0  0  0  0  0
   13.4921  -17.4457   21.8552 O   0  0  0  0  0  0  0  0  0  0  0  0
    7.7513  -13.3436   27.1076 C   0  0  0  0  0  0  0  0  0  0  0  0
    8.9925  -14.1184   26.7221 C   0  0  0  0  0  0  0  0  0  0  0  0
    9.3535  -15.1400   27.7880 C   0  0  2  0  0  0  0  0  0  0  0  0
    9.7840  -14.2879   28.9963 C   0  0  0  0  0  0  0  0  0  0  0  0
   10.5495  -15.9363   27.3207 C   0  0  2  0  0  0  0  0  0  0  0  0
   10.3314  -16.5985   26.0590 N   0  0  0  0  0  0  0  0  0  0  0  0
   10.8588  -16.9905   28.2854 C   0  0  0  0  0  0  0  0  0  0  0  0
   11.8415  -16.7992   29.2432 O   0  0  0  0  0  0  0  0  0  0  0  0
   10.2623  -18.1113   28.3004 O   0  0  0  0  0  0  0  0  0  0  0  0
  2  1  1  1
  2  3  1  0
  4  5  1  0
  4  2  1  0
  5  7  1  0
  5  6  1  1
  7  8  2  0
  9  7  1  0
  9 10  1  0
 10 14  1  0
 10 11  1  6
 12 11  1  0
 13 12  2  0
 14 15  2  0
 16 12  1  0
 18 19  1  0
 18 17  1  0
 19 21  1  0
 19 20  1  1
 21 23  1  0
 21 22  1  6
 22 14  1  0
 23 25  2  0
 23 24  1  0
M  END
$$$$
