LDI.pdb
     RDKit          3D

 25 24  0  0  1  0  0  0  0  0999 V2000
    9.4131  -12.4686   19.5619 C   0  0  0  0  0  0  0  0  0  0  0  0
    8.0833  -13.1093   19.2416 C   0  0  2  0  0  0  0  0  0  0  0  0
    7.0027  -12.0554   19.1743 C   0  0  0  0  0  0  0  0  0  0  0  0
    7.7491  -14.2330   20.1845 C   0  0  0  0  0  0  0  0  0  0  0  0
    9.0512  -14.9020   20.6121 C   0  0  2  0  0  0  0  0  0  0  0  0
    9.2188  -16.0605   19.7098 N   0  0  0  0  0  0  0  0  0  0  0  0
    8.9355  -15.4510   21.9828 C   0  0  0  0  0  0  0  0  0  0  0  0
    8.0096  -15.0668   22.7255 O   0  0  0  0  0  0  0  0  0  0  0  0
    9.8495  -16.4165   22.4996 N   0  0  0  0  0  0  0  0  0  0  0  0
    9.7634  -16.9534   23.8246 C   0  0  1  0  0  0  0  0  0  0  0  0
   10.6851  -18.1661   23.9186 C   0  0  0  0  0  0  0  0  0  0  0  0
   10.3833  -19.2223   22.9367 C   0  0  0  0  0  0  0  0  0  0  0  0
    9.1897  -19.6028   22.8052 O   0  0  0  0  0  0  0  0  0  0  0  0
   10.1340  -15.9663   24.8913 C   0  0  0  0  0  0  0  0  0  0  0  0
   11.2512  -15.3697   24.8107 O   0  0  0  0  0  0  0  0  0  0  0  0
   11.3354  -19.8345   22.1328 O   0  0  0  0  0  0  0  0  0  0  0  0
    6.5028  -12.4931   26.5480 C   0  0  0  0  0  0  0  0  0  0  0  0
    7.8056  -13.2016   26.2475 C   0  0  0  0  0  0  0  0  0  0  0  0
    8.2897  -13.9921   27.4521 C   0  0  2  0  0  0  0  0  0  0  0  0
    8.6933  -12.9128   28.4736 C   0  0  0  0  0  0  0  0  0  0  0  0
    9.5290  -14.7656   27.0667 C   0  0  2  0  0  0  0  0  0  0  0  0
    9.3139  -15.6668   25.9622 N   0  0  0  0  0  0  0  0  0  0  0  0
    9.9727  -15.5938   28.1869 C   0  0  0  0  0  0  0  0  0  0  0  0
   10.8852  -15.1011   29.1058 O   0  0  0  0  0  0  0  0  0  0  0  0
    9.5597  -16.7793   28.3770 O   0  0  0  0  0  0  0  0  0  0  0  0
  2  1  1  1
  2  3  1  0
  4  5  1  0
  4  2  1  0
  5  7  1  0
  5  6  1  6
  7  8  2  0
  9  7  1  0
  9 10  1  0
 10 14  1  0
 10 11  1  6
 12 11  1  0
 13 12  2  0
 14 15  2  0
 16 12  1  0
 18 19  1  0
 18 17  1  0
 19 21  1  0
 19 20  1  1
 21 23  1  0
 21 22  1  6
 22 14  1  0
 23 25  2  0
 23 24  1  0
M  END
$$$$
