LDI.pdb
     RDKit          3D

 25 24  0  0  1  0  0  0  0  0999 V2000
    9.4601  -13.2332   20.1947 C   0  0  0  0  0  0  0  0  0  0  0  0
    8.1281  -13.0029   19.5206 C   0  0  2  0  0  0  0  0  0  0  0  0
    7.1748  -12.3222   20.4748 C   0  0  0  0  0  0  0  0  0  0  0  0
    7.5630  -14.2645   18.9269 C   0  0  0  0  0  0  0  0  0  0  0  0
    8.4588  -15.4289   19.3365 C   0  0  2  0  0  0  0  0  0  0  0  0
    8.0664  -16.5581   18.4675 N   0  0  0  0  0  0  0  0  0  0  0  0
    8.1715  -15.8502   20.7270 C   0  0  0  0  0  0  0  0  0  0  0  0
    6.9947  -16.0801   21.0716 O   0  0  0  0  0  0  0  0  0  0  0  0
    9.1973  -16.0089   21.7055 N   0  0  0  0  0  0  0  0  0  0  0  0
    8.9543  -16.4952   23.0305 C   0  0  1  0  0  0  0  0  0  0  0  0
    9.6349  -17.8527   23.1825 C   0  0  0  0  0  0  0  0  0  0  0  0
    9.5110  -18.4345   24.5303 C   0  0  0  0  0  0  0  0  0  0  0  0
    8.3865  -18.4130   25.0974 O   0  0  0  0  0  0  0  0  0  0  0  0
    9.4488  -15.5708   24.1031 C   0  0  0  0  0  0  0  0  0  0  0  0
   10.6860  -15.2918   24.1471 O   0  0  0  0  0  0  0  0  0  0  0  0
   10.5612  -19.0157   25.2281 O   0  0  0  0  0  0  0  0  0  0  0  0
    5.5289  -12.4776   26.7648 C   0  0  0  0  0  0  0  0  0  0  0  0
    6.5463  -13.5554   26.4603 C   0  0  0  0  0  0  0  0  0  0  0  0
    7.9283  -12.9597   26.2475 C   0  0  2  0  0  0  0  0  0  0  0  0
    7.8249  -12.2440   24.8880 C   0  0  0  0  0  0  0  0  0  0  0  0
    8.9323  -14.0811   26.1165 C   0  0  2  0  0  0  0  0  0  0  0  0
    8.6203  -14.9991   25.0496 N   0  0  0  0  0  0  0  0  0  0  0  0
    8.9591  -14.8768   27.3428 C   0  0  0  0  0  0  0  0  0  0  0  0
    9.4861  -14.3489   28.5105 O   0  0  0  0  0  0  0  0  0  0  0  0
    8.5145  -16.0643   27.4069 O   0  0  0  0  0  0  0  0  0  0  0  0
  2  1  1  1
  2  3  1  0
  4  5  1  0
  4  2  1  0
  5  7  1  0
  5  6  1  6
  7  8  2  0
  9  7  1  0
  9 10  1  0
 10 14  1  0
 10 11  1  6
 12 11  1  0
 13 12  2  0
 14 15  2  0
 16 12  1  0
 18 19  1  0
 18 17  1  0
 19 21  1  0
 19 20  1  6
 21 23  1  0
 21 22  1  6
 22 14  1  0
 23 25  2  0
 23 24  1  0
M  END
$$$$
