LDI.pdb
     RDKit          3D

 25 24  0  0  1  0  0  0  0  0999 V2000
    8.9407  -12.4217   18.9794 C   0  0  0  0  0  0  0  0  0  0  0  0
    7.7503  -13.3509   18.9506 C   0  0  2  0  0  0  0  0  0  0  0  0
    6.5176  -12.6007   18.5028 C   0  0  0  0  0  0  0  0  0  0  0  0
    7.5565  -14.0712   20.2571 C   0  0  0  0  0  0  0  0  0  0  0  0
    8.9122  -14.5933   20.7212 C   0  0  2  0  0  0  0  0  0  0  0  0
    9.2934  -15.6349   19.7444 N   0  0  0  0  0  0  0  0  0  0  0  0
    8.7943  -15.2713   22.0327 C   0  0  0  0  0  0  0  0  0  0  0  0
    7.9677  -14.8562   22.8699 O   0  0  0  0  0  0  0  0  0  0  0  0
    9.5957  -16.3969   22.3866 N   0  0  0  0  0  0  0  0  0  0  0  0
    9.5446  -17.0283   23.6711 C   0  0  1  0  0  0  0  0  0  0  0  0
   10.3346  -18.3324   23.6036 C   0  0  0  0  0  0  0  0  0  0  0  0
   10.4487  -19.0283   24.8971 C   0  0  0  0  0  0  0  0  0  0  0  0
    9.4085  -19.5117   25.4177 O   0  0  0  0  0  0  0  0  0  0  0  0
   10.0926  -16.1743   24.7756 C   0  0  0  0  0  0  0  0  0  0  0  0
   11.2943  -15.7734   24.6996 O   0  0  0  0  0  0  0  0  0  0  0  0
   11.6397  -19.1934   25.5912 O   0  0  0  0  0  0  0  0  0  0  0  0
    6.8791  -12.3349   26.3078 C   0  0  0  0  0  0  0  0  0  0  0  0
    8.1002  -13.1867   26.0375 C   0  0  0  0  0  0  0  0  0  0  0  0
    8.5245  -13.9467   27.2834 C   0  0  2  0  0  0  0  0  0  0  0  0
    9.0553  -12.8536   28.2291 C   0  0  0  0  0  0  0  0  0  0  0  0
    9.6711  -14.8657   26.9320 C   0  0  2  0  0  0  0  0  0  0  0  0
    9.3500  -15.7945   25.8772 N   0  0  0  0  0  0  0  0  0  0  0  0
   10.0373  -15.6777   28.0913 C   0  0  0  0  0  0  0  0  0  0  0  0
   11.0352  -15.2572   28.9557 O   0  0  0  0  0  0  0  0  0  0  0  0
    9.4786  -16.7845   28.3652 O   0  0  0  0  0  0  0  0  0  0  0  0
  2  1  1  1
  2  3  1  0
  4  5  1  0
  4  2  1  0
  5  7  1  0
  5  6  1  6
  7  8  2  0
  9  7  1  0
  9 10  1  0
 10 14  1  0
 10 11  1  6
 12 11  1  0
 13 12  2  0
 14 15  2  0
 16 12  1  0
 18 19  1  0
 18 17  1  0
 19 21  1  0
 19 20  1  1
 21 23  1  0
 21 22  1  6
 22 14  1  0
 23 25  2  0
 23 24  1  0
M  END
$$$$
