LDI.pdb
     RDKit          3D

 25 24  0  0  1  0  0  0  0  0999 V2000
    9.5144  -13.0862   19.1801 C   0  0  0  0  0  0  0  0  0  0  0  0
    8.0487  -13.4425   19.2586 C   0  0  2  0  0  0  0  0  0  0  0  0
    7.2059  -12.1910   19.1795 C   0  0  0  0  0  0  0  0  0  0  0  0
    7.7306  -14.2892   20.4608 C   0  0  0  0  0  0  0  0  0  0  0  0
    8.7263  -15.4433   20.5101 C   0  0  2  0  0  0  0  0  0  0  0  0
    8.1486  -16.5045   19.6591 N   0  0  0  0  0  0  0  0  0  0  0  0
    8.8147  -16.0041   21.8780 C   0  0  0  0  0  0  0  0  0  0  0  0
    7.7917  -16.0586   22.5900 O   0  0  0  0  0  0  0  0  0  0  0  0
   10.0370  -16.4942   22.4263 N   0  0  0  0  0  0  0  0  0  0  0  0
   10.1614  -16.9759   23.7693 C   0  0  1  0  0  0  0  0  0  0  0  0
   11.3400  -17.9435   23.8315 C   0  0  0  0  0  0  0  0  0  0  0  0
   11.2349  -19.0728   22.8911 C   0  0  0  0  0  0  0  0  0  0  0  0
   10.1055  -19.5961   22.6980 O   0  0  0  0  0  0  0  0  0  0  0  0
   10.3645  -15.8832   24.7763 C   0  0  0  0  0  0  0  0  0  0  0  0
   11.3237  -15.0691   24.6101 O   0  0  0  0  0  0  0  0  0  0  0  0
   12.3083  -19.6066   22.1909 O   0  0  0  0  0  0  0  0  0  0  0  0
    6.4644  -12.7343   26.1482 C   0  0  0  0  0  0  0  0  0  0  0  0
    7.8207  -13.3733   25.9439 C   0  0  0  0  0  0  0  0  0  0  0  0
    8.2991  -14.0603   27.2125 C   0  0  2  0  0  0  0  0  0  0  0  0
    8.5428  -12.9030   28.1987 C   0  0  0  0  0  0  0  0  0  0  0  0
    9.6232  -14.7339   26.9373 C   0  0  2  0  0  0  0  0  0  0  0  0
    9.5524  -15.7125   25.8812 N   0  0  0  0  0  0  0  0  0  0  0  0
   10.0784  -15.4516   28.1270 C   0  0  0  0  0  0  0  0  0  0  0  0
   10.9116  -14.8321   29.0445 O   0  0  0  0  0  0  0  0  0  0  0  0
    9.7465  -16.6505   28.3809 O   0  0  0  0  0  0  0  0  0  0  0  0
  2  1  1  1
  2  3  1  0
  4  5  1  0
  4  2  1  0
  5  7  1  0
  5  6  1  6
  7  8  2  0
  9  7  1  0
  9 10  1  0
 10 14  1  0
 10 11  1  6
 12 11  1  0
 13 12  2  0
 14 15  2  0
 16 12  1  0
 18 19  1  0
 18 17  1  0
 19 21  1  0
 19 20  1  1
 21 23  1  0
 21 22  1  6
 22 14  1  0
 23 25  2  0
 23 24  1  0
M  END
$$$$
