LDI.pdb
     RDKit          3D

 25 24  0  0  1  0  0  0  0  0999 V2000
    9.3394  -13.5941   19.2747 C   0  0  0  0  0  0  0  0  0  0  0  0
    7.8952  -13.4265   19.6842 C   0  0  2  0  0  0  0  0  0  0  0  0
    7.5390  -11.9592   19.7401 C   0  0  0  0  0  0  0  0  0  0  0  0
    7.5750  -14.1570   20.9599 C   0  0  0  0  0  0  0  0  0  0  0  0
    8.0188  -15.6078   20.8046 C   0  0  2  0  0  0  0  0  0  0  0  0
    6.8267  -16.3402   20.3283 N   0  0  0  0  0  0  0  0  0  0  0  0
    8.3737  -16.1932   22.1180 C   0  0  0  0  0  0  0  0  0  0  0  0
    7.4748  -16.4381   22.9477 O   0  0  0  0  0  0  0  0  0  0  0  0
    9.7193  -16.4958   22.4820 N   0  0  0  0  0  0  0  0  0  0  0  0
   10.0888  -17.0356   23.7560 C   0  0  1  0  0  0  0  0  0  0  0  0
   11.3251  -17.9115   23.5728 C   0  0  0  0  0  0  0  0  0  0  0  0
   11.7861  -18.5595   24.8131 C   0  0  0  0  0  0  0  0  0  0  0  0
   13.0202  -18.5746   25.0651 O   0  0  0  0  0  0  0  0  0  0  0  0
   10.3754  -15.9844   24.7867 C   0  0  0  0  0  0  0  0  0  0  0  0
   11.3295  -15.1727   24.5833 O   0  0  0  0  0  0  0  0  0  0  0  0
   10.9434  -19.1609   25.7381 O   0  0  0  0  0  0  0  0  0  0  0  0
    6.5941  -12.8887   26.3986 C   0  0  0  0  0  0  0  0  0  0  0  0
    7.9574  -13.4914   26.1381 C   0  0  0  0  0  0  0  0  0  0  0  0
    8.4869  -14.2025   27.3726 C   0  0  2  0  0  0  0  0  0  0  0  0
    8.7992  -13.0622   28.3592 C   0  0  0  0  0  0  0  0  0  0  0  0
    9.7838  -14.8942   27.0231 C   0  0  2  0  0  0  0  0  0  0  0  0
    9.6459  -15.8496   25.9524 N   0  0  0  0  0  0  0  0  0  0  0  0
   10.2795  -15.6442   28.1761 C   0  0  0  0  0  0  0  0  0  0  0  0
    9.9646  -16.9847   28.3295 O   0  0  0  0  0  0  0  0  0  0  0  0
   11.0060  -15.1251   29.0788 O   0  0  0  0  0  0  0  0  0  0  0  0
  2  1  1  1
  2  3  1  0
  4  5  1  0
  4  2  1  0
  5  7  1  0
  5  6  1  1
  7  8  2  0
  9  7  1  0
  9 10  1  0
 10 14  1  0
 10 11  1  6
 12 11  1  0
 13 12  2  0
 14 15  2  0
 16 12  1  0
 18 19  1  0
 18 17  1  0
 19 21  1  0
 19 20  1  1
 21 23  1  0
 21 22  1  6
 22 14  1  0
 23 25  2  0
 23 24  1  0
M  END
$$$$
