LDI.pdb
     RDKit          3D

 25 24  0  0  1  0  0  0  0  0999 V2000
    9.6624  -13.5061   19.4664 C   0  0  0  0  0  0  0  0  0  0  0  0
    8.1550  -13.4147   19.4372 C   0  0  2  0  0  0  0  0  0  0  0  0
    7.7223  -11.9676   19.4737 C   0  0  0  0  0  0  0  0  0  0  0  0
    7.5116  -14.2468   20.5129 C   0  0  0  0  0  0  0  0  0  0  0  0
    8.0931  -15.6548   20.4406 C   0  0  2  0  0  0  0  0  0  0  0  0
    7.0670  -16.4752   19.7636 N   0  0  0  0  0  0  0  0  0  0  0  0
    8.2590  -16.2261   21.7970 C   0  0  0  0  0  0  0  0  0  0  0  0
    7.2514  -16.4746   22.4895 O   0  0  0  0  0  0  0  0  0  0  0  0
    9.5402  -16.5108   22.3556 N   0  0  0  0  0  0  0  0  0  0  0  0
    9.7253  -17.0478   23.6703 C   0  0  1  0  0  0  0  0  0  0  0  0
   10.8281  -18.1013   23.6143 C   0  0  0  0  0  0  0  0  0  0  0  0
   11.1692  -18.6781   24.9264 C   0  0  0  0  0  0  0  0  0  0  0  0
   10.2445  -19.1554   25.6361 O   0  0  0  0  0  0  0  0  0  0  0  0
   10.0841  -16.0096   24.6915 C   0  0  0  0  0  0  0  0  0  0  0  0
   11.1525  -15.3426   24.5359 O   0  0  0  0  0  0  0  0  0  0  0  0
   12.4571  -18.7357   25.4416 O   0  0  0  0  0  0  0  0  0  0  0  0
    6.4761  -12.5414   26.2906 C   0  0  0  0  0  0  0  0  0  0  0  0
    7.7857  -13.2458   26.0104 C   0  0  0  0  0  0  0  0  0  0  0  0
    8.2628  -14.0198   27.2283 C   0  0  2  0  0  0  0  0  0  0  0  0
    8.6476  -12.9268   28.2424 C   0  0  0  0  0  0  0  0  0  0  0  0
    9.5119  -14.7880   26.8641 C   0  0  2  0  0  0  0  0  0  0  0  0
    9.3035  -15.7361   25.7983 N   0  0  0  0  0  0  0  0  0  0  0  0
    9.9773  -15.5634   28.0129 C   0  0  0  0  0  0  0  0  0  0  0  0
    9.4955  -16.8429   28.2378 O   0  0  0  0  0  0  0  0  0  0  0  0
   10.8255  -15.1215   28.8480 O   0  0  0  0  0  0  0  0  0  0  0  0
  2  1  1  1
  2  3  1  0
  4  5  1  0
  4  2  1  0
  5  7  1  0
  5  6  1  6
  7  8  2  0
  9  7  1  0
  9 10  1  0
 10 14  1  0
 10 11  1  6
 12 11  1  0
 13 12  2  0
 14 15  2  0
 16 12  1  0
 18 19  1  0
 18 17  1  0
 19 21  1  0
 19 20  1  1
 21 23  1  0
 21 22  1  6
 22 14  1  0
 23 25  2  0
 23 24  1  0
M  END
$$$$
