LDI.pdb
     RDKit          3D

 25 24  0  0  1  0  0  0  0  0999 V2000
    7.4408  -12.4027   20.8093 C   0  0  0  0  0  0  0  0  0  0  0  0
    8.4202  -13.4057   20.2468 C   0  0  2  0  0  0  0  0  0  0  0  0
    9.3083  -12.7434   19.2195 C   0  0  0  0  0  0  0  0  0  0  0  0
    7.7366  -14.6395   19.7234 C   0  0  0  0  0  0  0  0  0  0  0  0
    8.6596  -15.8316   19.9529 C   0  0  2  0  0  0  0  0  0  0  0  0
    8.0345  -16.9631   19.2365 N   0  0  0  0  0  0  0  0  0  0  0  0
    8.6886  -16.2067   21.3854 C   0  0  0  0  0  0  0  0  0  0  0  0
    7.6168  -16.3837   21.9989 O   0  0  0  0  0  0  0  0  0  0  0  0
    9.9072  -16.3790   22.1065 N   0  0  0  0  0  0  0  0  0  0  0  0
    9.9617  -16.8126   23.4703 C   0  0  1  0  0  0  0  0  0  0  0  0
   11.1065  -17.8110   23.6178 C   0  0  0  0  0  0  0  0  0  0  0  0
   10.9060  -19.0634   22.8682 C   0  0  0  0  0  0  0  0  0  0  0  0
    9.7438  -19.5429   22.7913 O   0  0  0  0  0  0  0  0  0  0  0  0
   10.1567  -15.6887   24.4441 C   0  0  0  0  0  0  0  0  0  0  0  0
   11.1378  -14.9006   24.2798 O   0  0  0  0  0  0  0  0  0  0  0  0
   11.9224  -19.7606   22.2291 O   0  0  0  0  0  0  0  0  0  0  0  0
    6.3033  -12.4605   26.1626 C   0  0  0  0  0  0  0  0  0  0  0  0
    7.6320  -13.1074   25.8372 C   0  0  0  0  0  0  0  0  0  0  0  0
    8.1663  -13.8891   27.0261 C   0  0  2  0  0  0  0  0  0  0  0  0
    8.4845  -12.8081   28.0755 C   0  0  0  0  0  0  0  0  0  0  0  0
    9.4610  -14.5605   26.6312 C   0  0  2  0  0  0  0  0  0  0  0  0
    9.3145  -15.4620   25.5158 N   0  0  0  0  0  0  0  0  0  0  0  0
    9.9679  -15.3657   27.7412 C   0  0  0  0  0  0  0  0  0  0  0  0
   10.9297  -14.8542   28.5975 O   0  0  0  0  0  0  0  0  0  0  0  0
    9.5683  -16.5474   27.9778 O   0  0  0  0  0  0  0  0  0  0  0  0
  2  1  1  6
  2  3  1  0
  4  5  1  0
  4  2  1  0
  5  7  1  0
  5  6  1  6
  7  8  2  0
  9  7  1  0
  9 10  1  0
 10 14  1  0
 10 11  1  6
 12 11  1  0
 13 12  2  0
 14 15  2  0
 16 12  1  0
 18 19  1  0
 18 17  1  0
 19 21  1  0
 19 20  1  1
 21 23  1  0
 21 22  1  6
 22 14  1  0
 23 25  2  0
 23 24  1  0
M  END
$$$$
