LDI.pdb
     RDKit          3D

 25 24  0  0  1  0  0  0  0  0999 V2000
    9.5719  -13.5615   19.1225 C   0  0  0  0  0  0  0  0  0  0  0  0
    8.0764  -13.4898   19.3215 C   0  0  2  0  0  0  0  0  0  0  0  0
    7.6151  -12.0519   19.2729 C   0  0  0  0  0  0  0  0  0  0  0  0
    7.6312  -14.2070   20.5669 C   0  0  0  0  0  0  0  0  0  0  0  0
    8.2526  -15.5998   20.5649 C   0  0  2  0  0  0  0  0  0  0  0  0
    7.2190  -16.4963   20.0063 N   0  0  0  0  0  0  0  0  0  0  0  0
    8.5079  -16.0643   21.9479 C   0  0  0  0  0  0  0  0  0  0  0  0
    7.5648  -16.1252   22.7624 O   0  0  0  0  0  0  0  0  0  0  0  0
    9.8047  -16.4529   22.3971 N   0  0  0  0  0  0  0  0  0  0  0  0
   10.0672  -16.9459   23.7159 C   0  0  1  0  0  0  0  0  0  0  0  0
   11.2888  -17.8589   23.6594 C   0  0  0  0  0  0  0  0  0  0  0  0
   11.1569  -18.9735   22.7050 C   0  0  0  0  0  0  0  0  0  0  0  0
   10.1243  -19.6931   22.7543 O   0  0  0  0  0  0  0  0  0  0  0  0
   10.3081  -15.8583   24.7202 C   0  0  0  0  0  0  0  0  0  0  0  0
   11.2797  -15.0624   24.5382 O   0  0  0  0  0  0  0  0  0  0  0  0
   12.1034  -19.2890   21.7395 O   0  0  0  0  0  0  0  0  0  0  0  0
    6.5112  -12.7300   26.3923 C   0  0  0  0  0  0  0  0  0  0  0  0
    7.8617  -13.3482   26.1028 C   0  0  0  0  0  0  0  0  0  0  0  0
    8.4172  -14.0505   27.3310 C   0  0  2  0  0  0  0  0  0  0  0  0
    8.7828  -12.9016   28.2888 C   0  0  0  0  0  0  0  0  0  0  0  0
    9.6888  -14.7726   26.9512 C   0  0  2  0  0  0  0  0  0  0  0  0
    9.5184  -15.6734   25.8388 N   0  0  0  0  0  0  0  0  0  0  0  0
   10.1547  -15.5910   28.0697 C   0  0  0  0  0  0  0  0  0  0  0  0
   11.1718  -15.1386   28.8946 O   0  0  0  0  0  0  0  0  0  0  0  0
    9.6685  -16.7319   28.3417 O   0  0  0  0  0  0  0  0  0  0  0  0
  2  1  1  1
  2  3  1  0
  4  5  1  0
  4  2  1  0
  5  7  1  0
  5  6  1  1
  7  8  2  0
  9  7  1  0
  9 10  1  0
 10 14  1  0
 10 11  1  6
 12 11  1  0
 13 12  2  0
 14 15  2  0
 16 12  1  0
 18 19  1  0
 18 17  1  0
 19 21  1  0
 19 20  1  1
 21 23  1  0
 21 22  1  6
 22 14  1  0
 23 25  2  0
 23 24  1  0
M  END
$$$$
