LDI.pdb
     RDKit          3D

 25 24  0  0  1  0  0  0  0  0999 V2000
    9.3840  -13.5173   18.7408 C   0  0  0  0  0  0  0  0  0  0  0  0
    7.9270  -13.4059   19.1234 C   0  0  2  0  0  0  0  0  0  0  0  0
    7.4855  -11.9620   19.0687 C   0  0  0  0  0  0  0  0  0  0  0  0
    7.6323  -14.0598   20.4458 C   0  0  0  0  0  0  0  0  0  0  0  0
    8.1948  -15.4770   20.4145 C   0  0  2  0  0  0  0  0  0  0  0  0
    7.1613  -16.3013   19.7536 N   0  0  0  0  0  0  0  0  0  0  0  0
    8.3454  -16.0140   21.7866 C   0  0  0  0  0  0  0  0  0  0  0  0
    7.3436  -16.1147   22.5234 O   0  0  0  0  0  0  0  0  0  0  0  0
    9.6050  -16.4294   22.3114 N   0  0  0  0  0  0  0  0  0  0  0  0
    9.7763  -16.9408   23.6382 C   0  0  1  0  0  0  0  0  0  0  0  0
   10.8813  -17.9932   23.6147 C   0  0  0  0  0  0  0  0  0  0  0  0
   11.1008  -18.6566   24.9118 C   0  0  0  0  0  0  0  0  0  0  0  0
   10.1999  -18.5830   25.7890 O   0  0  0  0  0  0  0  0  0  0  0  0
   10.1219  -15.8825   24.6432 C   0  0  0  0  0  0  0  0  0  0  0  0
   11.1574  -15.1738   24.4532 O   0  0  0  0  0  0  0  0  0  0  0  0
   12.2462  -19.3698   25.2386 O   0  0  0  0  0  0  0  0  0  0  0  0
    6.4219  -12.5691   26.3365 C   0  0  0  0  0  0  0  0  0  0  0  0
    7.7710  -13.1840   26.0341 C   0  0  0  0  0  0  0  0  0  0  0  0
    8.3017  -13.9562   27.2308 C   0  0  2  0  0  0  0  0  0  0  0  0
    8.6718  -12.8632   28.2504 C   0  0  0  0  0  0  0  0  0  0  0  0
    9.5675  -14.6765   26.8291 C   0  0  2  0  0  0  0  0  0  0  0  0
    9.3632  -15.6339   25.7709 N   0  0  0  0  0  0  0  0  0  0  0  0
   10.0975  -15.4312   27.9637 C   0  0  0  0  0  0  0  0  0  0  0  0
   11.0439  -14.8652   28.8025 O   0  0  0  0  0  0  0  0  0  0  0  0
    9.7321  -16.6158   28.2379 O   0  0  0  0  0  0  0  0  0  0  0  0
  2  1  1  1
  2  3  1  0
  4  5  1  0
  4  2  1  0
  5  7  1  0
  5  6  1  6
  7  8  2  0
  9  7  1  0
  9 10  1  0
 10 14  1  0
 10 11  1  6
 12 11  1  0
 13 12  2  0
 14 15  2  0
 16 12  1  0
 18 19  1  0
 18 17  1  0
 19 21  1  0
 19 20  1  1
 21 23  1  0
 21 22  1  6
 22 14  1  0
 23 25  2  0
 23 24  1  0
M  END
$$$$
