LDI.pdb
     RDKit          3D

 25 24  0  0  1  0  0  0  0  0999 V2000
    9.0001  -12.3100   18.5954 C   0  0  0  0  0  0  0  0  0  0  0  0
    7.9705  -13.3825   18.3288 C   0  0  2  0  0  0  0  0  0  0  0  0
    6.7005  -12.7611   17.7959 C   0  0  0  0  0  0  0  0  0  0  0  0
    7.7361  -14.2598   19.5283 C   0  0  0  0  0  0  0  0  0  0  0  0
    9.0904  -14.6177   20.1312 C   0  0  2  0  0  0  0  0  0  0  0  0
    9.7193  -15.5502   19.1724 N   0  0  0  0  0  0  0  0  0  0  0  0
    8.9214  -15.3682   21.3968 C   0  0  0  0  0  0  0  0  0  0  0  0
    7.9659  -15.0975   22.1520 O   0  0  0  0  0  0  0  0  0  0  0  0
    9.8160  -16.4047   21.7967 N   0  0  0  0  0  0  0  0  0  0  0  0
    9.7418  -17.0638   23.0661 C   0  0  1  0  0  0  0  0  0  0  0  0
   10.7828  -18.1794   23.0962 C   0  0  0  0  0  0  0  0  0  0  0  0
   10.7647  -19.0445   21.9037 C   0  0  0  0  0  0  0  0  0  0  0  0
    9.6755  -19.5730   21.5562 O   0  0  0  0  0  0  0  0  0  0  0  0
    9.9692  -16.1433   24.2281 C   0  0  0  0  0  0  0  0  0  0  0  0
   11.0827  -15.5419   24.3230 O   0  0  0  0  0  0  0  0  0  0  0  0
   11.8796  -19.3197   21.1233 O   0  0  0  0  0  0  0  0  0  0  0  0
    6.9883  -11.7883   27.0683 C   0  0  0  0  0  0  0  0  0  0  0  0
    8.0085  -12.8934   27.2343 C   0  0  0  0  0  0  0  0  0  0  0  0
    7.8942  -13.9168   26.1164 C   0  0  2  0  0  0  0  0  0  0  0  0
    6.5550  -14.6258   26.3902 C   0  0  0  0  0  0  0  0  0  0  0  0
    9.0047  -14.9307   26.2627 C   0  0  2  0  0  0  0  0  0  0  0  0
    9.0205  -15.9104   25.2053 N   0  0  0  0  0  0  0  0  0  0  0  0
    8.8407  -15.6789   27.5080 C   0  0  0  0  0  0  0  0  0  0  0  0
    9.3410  -15.1779   28.6990 O   0  0  0  0  0  0  0  0  0  0  0  0
    8.2477  -16.8000   27.5686 O   0  0  0  0  0  0  0  0  0  0  0  0
  2  1  1  1
  2  3  1  0
  4  5  1  0
  4  2  1  0
  5  7  1  0
  5  6  1  6
  7  8  2  0
  9  7  1  0
  9 10  1  0
 10 14  1  0
 10 11  1  6
 12 11  1  0
 13 12  2  0
 14 15  2  0
 16 12  1  0
 18 19  1  0
 18 17  1  0
 19 21  1  0
 19 20  1  1
 21 23  1  0
 21 22  1  6
 22 14  1  0
 23 25  2  0
 23 24  1  0
M  END
$$$$
