LDI.pdb
     RDKit          3D

 25 24  0  0  1  0  0  0  0  0999 V2000
    8.8397  -12.5235   18.7637 C   0  0  0  0  0  0  0  0  0  0  0  0
    7.8089  -13.6275   18.7497 C   0  0  2  0  0  0  0  0  0  0  0  0
    6.4997  -13.1076   18.2032 C   0  0  0  0  0  0  0  0  0  0  0  0
    7.6626  -14.2891   20.0930 C   0  0  0  0  0  0  0  0  0  0  0  0
    9.0560  -14.5048   20.6742 C   0  0  2  0  0  0  0  0  0  0  0  0
    9.7191  -15.4691   19.7717 N   0  0  0  0  0  0  0  0  0  0  0  0
    8.9775  -15.1579   22.0012 C   0  0  0  0  0  0  0  0  0  0  0  0
    8.1126  -14.7882   22.8209 O   0  0  0  0  0  0  0  0  0  0  0  0
    9.8600  -16.2090   22.3898 N   0  0  0  0  0  0  0  0  0  0  0  0
    9.8040  -16.8534   23.6676 C   0  0  1  0  0  0  0  0  0  0  0  0
   10.7180  -18.0752   23.6364 C   0  0  0  0  0  0  0  0  0  0  0  0
   10.4859  -18.9646   22.4850 C   0  0  0  0  0  0  0  0  0  0  0  0
    9.4928  -19.7390   22.5093 O   0  0  0  0  0  0  0  0  0  0  0  0
   10.2100  -15.9604   24.8021 C   0  0  0  0  0  0  0  0  0  0  0  0
   11.3990  -15.5179   24.8365 O   0  0  0  0  0  0  0  0  0  0  0  0
   11.2951  -19.0077   21.3577 O   0  0  0  0  0  0  0  0  0  0  0  0
    6.5171  -12.4690   26.4753 C   0  0  0  0  0  0  0  0  0  0  0  0
    7.8454  -13.1267   26.1704 C   0  0  0  0  0  0  0  0  0  0  0  0
    8.3332  -13.9493   27.3517 C   0  0  2  0  0  0  0  0  0  0  0  0
    8.7417  -12.8978   28.3999 C   0  0  0  0  0  0  0  0  0  0  0  0
    9.5703  -14.7134   26.9412 C   0  0  2  0  0  0  0  0  0  0  0  0
    9.3491  -15.5877   25.8165 N   0  0  0  0  0  0  0  0  0  0  0  0
   10.0197  -15.5683   28.0388 C   0  0  0  0  0  0  0  0  0  0  0  0
    9.5659  -16.8732   28.1431 O   0  0  0  0  0  0  0  0  0  0  0  0
   10.8285  -15.1753   28.9352 O   0  0  0  0  0  0  0  0  0  0  0  0
  2  1  1  1
  2  3  1  0
  4  5  1  0
  4  2  1  0
  5  7  1  0
  5  6  1  6
  7  8  2  0
  9  7  1  0
  9 10  1  0
 10 14  1  0
 10 11  1  6
 12 11  1  0
 13 12  2  0
 14 15  2  0
 16 12  1  0
 18 19  1  0
 18 17  1  0
 19 21  1  0
 19 20  1  1
 21 23  1  0
 21 22  1  6
 22 14  1  0
 23 25  2  0
 23 24  1  0
M  END
$$$$
