IDN.pdb
     RDKit          3D

 25 24  0  0  1  0  0  0  0  0999 V2000
    6.5281  -11.6153   26.6908 C   0  0  0  0  0  0  0  0  0  0  0  0
    6.1433  -12.7724   25.7930 C   0  0  0  0  0  0  0  0  0  0  0  0
    7.2434  -13.7830   25.6671 C   0  0  2  0  0  0  0  0  0  0  0  0
    8.5007  -13.1938   25.0693 C   0  0  0  0  0  0  0  0  0  0  0  0
    6.8056  -14.9163   24.7718 C   0  0  2  0  0  0  0  0  0  0  0  0
    5.5931  -15.4798   25.2976 N   0  0  0  0  0  0  0  0  0  0  0  0
    7.8758  -15.9517   24.6208 C   0  0  0  0  0  0  0  0  0  0  0  0
    7.9421  -16.9115   25.4329 O   0  0  0  0  0  0  0  0  0  0  0  0
    8.8203  -15.8703   23.5750 N   0  0  0  0  0  0  0  0  0  0  0  0
    9.8380  -16.8932   23.3966 C   0  0  1  0  0  0  0  0  0  0  0  0
   10.5717  -16.6347   22.1166 C   0  0  0  0  0  0  0  0  0  0  0  0
    9.6683  -16.7644   20.9662 C   0  0  0  0  0  0  0  0  0  0  0  0
    9.5248  -15.9066   20.0581 O   0  0  0  0  0  0  0  0  0  0  0  0
   10.7600  -16.9470   24.5373 C   0  0  0  0  0  0  0  0  0  0  0  0
   11.3695  -15.9063   24.8837 O   0  0  0  0  0  0  0  0  0  0  0  0
    8.8826  -17.9237   20.8298 O   0  0  0  0  0  0  0  0  0  0  0  0
    9.1005  -19.6402   27.6012 N   0  0  0  0  0  0  0  0  0  0  0  0
   10.3306  -19.0520   27.9968 C   0  0  0  0  0  0  0  0  0  0  0  0
   10.3279  -18.2641   28.9758 O   0  0  0  0  0  0  0  0  0  0  0  0
   11.5963  -19.3572   27.2736 C   0  0  0  0  0  0  0  0  0  0  0  0
   11.9600  -18.2533   26.3070 C   0  0  2  0  0  0  0  0  0  0  0  0
   10.9671  -18.1794   25.2558 N   0  0  0  0  0  0  0  0  0  0  0  0
   13.2521  -18.6393   25.6843 C   0  0  0  0  0  0  0  0  0  0  0  0
   14.4353  -18.6984   26.4278 O   0  0  0  0  0  0  0  0  0  0  0  0
   13.3221  -18.9218   24.4832 O   0  0  0  0  0  0  0  0  0  0  0  0
  2  1  1  0
  2  3  1  0
  3  5  1  0
  3  4  1  6
  5  6  1  1
  5  7  1  0
  7  8  2  0
  9  7  1  0
  9 10  1  0
 10 14  1  0
 10 11  1  6
 12 11  1  0
 13 12  2  0
 14 15  2  0
 16 12  1  0
 17 18  1  0
 18 19  2  0
 18 20  1  0
 21 20  1  1
 21 23  1  0
 22 21  1  0
 22 14  1  0
 23 25  2  0
 23 24  1  0
M  END
$$$$
