IDN.pdb
     RDKit          3D

 25 24  0  0  1  0  0  0  0  0999 V2000
    7.6306  -12.1618   21.4936 C   0  0  0  0  0  0  0  0  0  0  0  0
    7.6306  -13.5154   20.8148 C   0  0  0  0  0  0  0  0  0  0  0  0
    8.7107  -13.6321   19.7818 C   0  0  2  0  0  0  0  0  0  0  0  0
    8.5554  -12.6200   18.6696 C   0  0  0  0  0  0  0  0  0  0  0  0
    8.6796  -15.0034   19.1524 C   0  0  2  0  0  0  0  0  0  0  0  0
    7.4015  -15.1957   18.5247 N   0  0  0  0  0  0  0  0  0  0  0  0
    8.9727  -16.0804   20.1495 C   0  0  0  0  0  0  0  0  0  0  0  0
    8.0270  -16.7028   20.7002 O   0  0  0  0  0  0  0  0  0  0  0  0
   10.3024  -16.4135   20.4863 N   0  0  0  0  0  0  0  0  0  0  0  0
   10.5970  -17.4788   21.4309 C   0  0  1  0  0  0  0  0  0  0  0  0
   12.0241  -17.9009   21.2621 C   0  0  0  0  0  0  0  0  0  0  0  0
   12.2207  -18.5554   19.9624 C   0  0  0  0  0  0  0  0  0  0  0  0
   11.5989  -19.5724   19.5625 O   0  0  0  0  0  0  0  0  0  0  0  0
   10.3225  -17.0700   22.8136 C   0  0  0  0  0  0  0  0  0  0  0  0
   10.7803  -15.9799   23.2339 O   0  0  0  0  0  0  0  0  0  0  0  0
   13.1698  -18.0366   19.0623 O   0  0  0  0  0  0  0  0  0  0  0  0
    6.2976  -17.8143   23.4908 N   0  0  0  0  0  0  0  0  0  0  0  0
    6.8365  -17.2440   24.6740 C   0  0  0  0  0  0  0  0  0  0  0  0
    6.4032  -16.1253   25.0484 O   0  0  0  0  0  0  0  0  0  0  0  0
    7.8896  -17.9489   25.4565 C   0  0  0  0  0  0  0  0  0  0  0  0
    9.2743  -17.5001   25.0484 C   0  0  2  0  0  0  0  0  0  0  0  0
    9.5363  -17.9079   23.6840 N   0  0  0  0  0  0  0  0  0  0  0  0
   10.2323  -18.2174   25.9281 C   0  0  0  0  0  0  0  0  0  0  0  0
   10.2746  -17.9873   27.3071 O   0  0  0  0  0  0  0  0  0  0  0  0
   11.0262  -19.0443   25.4663 O   0  0  0  0  0  0  0  0  0  0  0  0
  2  1  1  0
  2  3  1  0
  3  5  1  0
  3  4  1  6
  5  6  1  1
  5  7  1  0
  7  8  2  0
  9  7  1  0
  9 10  1  0
 10 14  1  0
 10 11  1  1
 12 11  1  0
 13 12  2  0
 14 15  2  0
 16 12  1  0
 17 18  1  0
 18 19  2  0
 18 20  1  0
 21 20  1  1
 21 23  1  0
 22 21  1  0
 22 14  1  0
 23 25  2  0
 23 24  1  0
M  END
$$$$
