IDN.pdb
     RDKit          3D

 25 24  0  0  1  0  0  0  0  0999 V2000
    7.7717  -12.3326   22.0428 C   0  0  0  0  0  0  0  0  0  0  0  0
    7.6278  -13.7100   21.4303 C   0  0  0  0  0  0  0  0  0  0  0  0
    8.3551  -13.8292   20.1249 C   0  0  2  0  0  0  0  0  0  0  0  0
    7.7916  -12.9094   19.0658 C   0  0  0  0  0  0  0  0  0  0  0  0
    8.2498  -15.2404   19.6003 C   0  0  2  0  0  0  0  0  0  0  0  0
    6.8607  -15.5792   19.4592 N   0  0  0  0  0  0  0  0  0  0  0  0
    8.9698  -16.2158   20.4779 C   0  0  0  0  0  0  0  0  0  0  0  0
    8.3206  -16.9487   21.2693 O   0  0  0  0  0  0  0  0  0  0  0  0
   10.3761  -16.3294   20.4335 N   0  0  0  0  0  0  0  0  0  0  0  0
   11.0865  -17.2480   21.3082 C   0  0  1  0  0  0  0  0  0  0  0  0
   12.5036  -17.3722   20.8392 C   0  0  0  0  0  0  0  0  0  0  0  0
   13.2113  -18.4115   21.5976 C   0  0  0  0  0  0  0  0  0  0  0  0
   14.2496  -18.2275   22.2825 O   0  0  0  0  0  0  0  0  0  0  0  0
   11.0253  -16.8197   22.7107 C   0  0  0  0  0  0  0  0  0  0  0  0
   11.6182  -15.7698   23.0584 O   0  0  0  0  0  0  0  0  0  0  0  0
   12.7238  -19.7314   21.5847 O   0  0  0  0  0  0  0  0  0  0  0  0
    8.7651  -14.6927   24.9479 N   0  0  0  0  0  0  0  0  0  0  0  0
    8.0300  -15.8445   25.3331 C   0  0  0  0  0  0  0  0  0  0  0  0
    6.8043  -15.7158   25.5787 O   0  0  0  0  0  0  0  0  0  0  0  0
    8.6894  -17.1753   25.4453 C   0  0  0  0  0  0  0  0  0  0  0  0
   10.1437  -17.1070   25.0384 C   0  0  2  0  0  0  0  0  0  0  0  0
   10.2936  -17.5928   23.6827 N   0  0  0  0  0  0  0  0  0  0  0  0
   10.8821  -18.0320   25.9359 C   0  0  0  0  0  0  0  0  0  0  0  0
   12.0503  -18.6793   25.5205 O   0  0  0  0  0  0  0  0  0  0  0  0
   10.4849  -18.2596   27.0838 O   0  0  0  0  0  0  0  0  0  0  0  0
  2  1  1  0
  2  3  1  0
  3  5  1  0
  3  4  1  6
  5  6  1  1
  5  7  1  0
  7  8  2  0
  9  7  1  0
  9 10  1  0
 10 14  1  0
 10 11  1  6
 12 11  1  0
 13 12  2  0
 14 15  2  0
 16 12  1  0
 17 18  1  0
 18 19  2  0
 18 20  1  0
 21 20  1  1
 21 23  1  0
 22 21  1  0
 22 14  1  0
 23 25  2  0
 23 24  1  0
M  END
$$$$
