IDN.pdb
     RDKit          3D

 25 24  0  0  1  0  0  0  0  0999 V2000
    7.3672  -11.8469   21.2228 C   0  0  0  0  0  0  0  0  0  0  0  0
    7.4647  -13.2203   20.5926 C   0  0  0  0  0  0  0  0  0  0  0  0
    8.6682  -13.3550   19.7091 C   0  0  2  0  0  0  0  0  0  0  0  0
    8.6445  -12.3827   18.5518 C   0  0  0  0  0  0  0  0  0  0  0  0
    8.7315  -14.7468   19.1287 C   0  0  2  0  0  0  0  0  0  0  0  0
    7.9596  -15.6299   19.9585 N   0  0  0  0  0  0  0  0  0  0  0  0
   10.1422  -15.2233   18.9776 C   0  0  0  0  0  0  0  0  0  0  0  0
   10.6084  -15.4571   17.8318 O   0  0  0  0  0  0  0  0  0  0  0  0
   10.9665  -15.4168   20.1071 N   0  0  0  0  0  0  0  0  0  0  0  0
   12.3904  -15.6747   19.9665 C   0  0  1  0  0  0  0  0  0  0  0  0
   12.9812  -14.6607   19.0357 C   0  0  0  0  0  0  0  0  0  0  0  0
   14.4240  -14.8822   18.8763 C   0  0  0  0  0  0  0  0  0  0  0  0
   14.9633  -15.9909   18.6297 O   0  0  0  0  0  0  0  0  0  0  0  0
   13.0745  -15.6680   21.2650 C   0  0  0  0  0  0  0  0  0  0  0  0
   14.3145  -15.8559   21.3067 O   0  0  0  0  0  0  0  0  0  0  0  0
   15.3094  -13.7957   19.0012 O   0  0  0  0  0  0  0  0  0  0  0  0
    9.5323  -18.8854   23.8939 N   0  0  0  0  0  0  0  0  0  0  0  0
   10.8235  -18.7728   23.3144 C   0  0  0  0  0  0  0  0  0  0  0  0
   11.6470  -19.7025   23.5062 O   0  0  0  0  0  0  0  0  0  0  0  0
   11.1989  -17.5847   22.4984 C   0  0  0  0  0  0  0  0  0  0  0  0
   11.9586  -16.5683   23.3199 C   0  0  2  0  0  0  0  0  0  0  0  0
   12.3350  -15.4485   22.4827 N   0  0  0  0  0  0  0  0  0  0  0  0
   13.2061  -17.2336   23.7753 C   0  0  0  0  0  0  0  0  0  0  0  0
   13.3681  -17.6611   25.0971 O   0  0  0  0  0  0  0  0  0  0  0  0
   14.1448  -17.4311   22.9961 O   0  0  0  0  0  0  0  0  0  0  0  0
  2  1  1  0
  2  3  1  0
  3  5  1  0
  3  4  1  6
  5  6  1  1
  5  7  1  0
  7  8  2  0
  9  7  1  0
  9 10  1  0
 10 14  1  0
 10 11  1  6
 12 11  1  0
 13 12  2  0
 14 15  2  0
 16 12  1  0
 17 18  1  0
 18 19  2  0
 18 20  1  0
 21 20  1  6
 21 23  1  0
 22 21  1  0
 22 14  1  0
 23 25  2  0
 23 24  1  0
M  END
$$$$
