IDN.pdb
     RDKit          3D

 25 24  0  0  1  0  0  0  0  0999 V2000
    7.9355  -11.7208   20.2917 C   0  0  0  0  0  0  0  0  0  0  0  0
    7.1786  -13.0323   20.2760 C   0  0  0  0  0  0  0  0  0  0  0  0
    8.0819  -14.2111   20.4798 C   0  0  2  0  0  0  0  0  0  0  0  0
    9.1843  -14.2770   19.4475 C   0  0  0  0  0  0  0  0  0  0  0  0
    7.2915  -15.4929   20.3791 C   0  0  2  0  0  0  0  0  0  0  0  0
    6.1497  -15.4020   21.2465 N   0  0  0  0  0  0  0  0  0  0  0  0
    8.1311  -16.6909   20.6951 C   0  0  0  0  0  0  0  0  0  0  0  0
    8.3055  -17.0393   21.8923 O   0  0  0  0  0  0  0  0  0  0  0  0
    8.7361  -17.4436   19.6656 N   0  0  0  0  0  0  0  0  0  0  0  0
    9.6008  -18.5733   19.9656 C   0  0  1  0  0  0  0  0  0  0  0  0
    9.7507  -19.4143   18.7352 C   0  0  0  0  0  0  0  0  0  0  0  0
   10.5024  -20.6399   19.0336 C   0  0  0  0  0  0  0  0  0  0  0  0
   10.4175  -21.2995   20.1007 O   0  0  0  0  0  0  0  0  0  0  0  0
   10.9064  -18.1378   20.4752 C   0  0  0  0  0  0  0  0  0  0  0  0
   11.4393  -17.1071   19.9974 O   0  0  0  0  0  0  0  0  0  0  0  0
   11.3997  -21.1519   18.0783 O   0  0  0  0  0  0  0  0  0  0  0  0
   13.2761  -15.7677   24.8097 N   0  0  0  0  0  0  0  0  0  0  0  0
   13.4302  -16.3122   23.5077 C   0  0  0  0  0  0  0  0  0  0  0  0
   14.5556  -16.2280   22.9548 O   0  0  0  0  0  0  0  0  0  0  0  0
   12.2901  -16.9680   22.8089 C   0  0  0  0  0  0  0  0  0  0  0  0
   12.6951  -18.3011   22.2224 C   0  0  2  0  0  0  0  0  0  0  0  0
   11.5742  -18.8822   21.5135 N   0  0  0  0  0  0  0  0  0  0  0  0
   13.0183  -19.1909   23.3671 C   0  0  0  0  0  0  0  0  0  0  0  0
   12.0318  -19.6271   24.2574 O   0  0  0  0  0  0  0  0  0  0  0  0
   14.1752  -19.5753   23.5693 O   0  0  0  0  0  0  0  0  0  0  0  0
  2  1  1  0
  2  3  1  0
  3  5  1  0
  3  4  1  6
  5  6  1  1
  5  7  1  0
  7  8  2  0
  9  7  1  0
  9 10  1  0
 10 14  1  0
 10 11  1  6
 12 11  1  0
 13 12  2  0
 14 15  2  0
 16 12  1  0
 17 18  1  0
 18 19  2  0
 18 20  1  0
 21 20  1  1
 21 23  1  0
 22 21  1  0
 22 14  1  0
 23 25  2  0
 23 24  1  0
M  END
$$$$
