IDN.pdb
     RDKit          3D

 25 24  0  0  1  0  0  0  0  0999 V2000
    7.1165  -11.6852   19.3032 C   0  0  0  0  0  0  0  0  0  0  0  0
    7.6204  -12.7667   18.3707 C   0  0  0  0  0  0  0  0  0  0  0  0
    8.8538  -13.4383   18.8948 C   0  0  2  0  0  0  0  0  0  0  0  0
   10.0129  -12.4791   19.0428 C   0  0  0  0  0  0  0  0  0  0  0  0
    9.2899  -14.5312   17.9497 C   0  0  2  0  0  0  0  0  0  0  0  0
    8.1459  -15.3296   17.6060 N   0  0  0  0  0  0  0  0  0  0  0  0
   10.3898  -15.3635   18.5306 C   0  0  0  0  0  0  0  0  0  0  0  0
   10.1240  -16.2536   19.3804 O   0  0  0  0  0  0  0  0  0  0  0  0
   11.7316  -15.1663   18.1392 N   0  0  0  0  0  0  0  0  0  0  0  0
   12.8037  -15.9846   18.6823 C   0  0  1  0  0  0  0  0  0  0  0  0
   14.0076  -15.8614   17.7997 C   0  0  0  0  0  0  0  0  0  0  0  0
   15.0694  -16.7746   18.2411 C   0  0  0  0  0  0  0  0  0  0  0  0
   16.0988  -16.4341   18.8778 O   0  0  0  0  0  0  0  0  0  0  0  0
   13.1191  -15.6170   20.0677 C   0  0  0  0  0  0  0  0  0  0  0  0
   13.2816  -14.4077   20.3603 O   0  0  0  0  0  0  0  0  0  0  0  0
   14.9674  -18.1475   17.9499 O   0  0  0  0  0  0  0  0  0  0  0  0
   13.6446  -15.7101   25.1887 N   0  0  0  0  0  0  0  0  0  0  0  0
   12.5725  -16.5411   24.7697 C   0  0  0  0  0  0  0  0  0  0  0  0
   11.7808  -16.9792   25.6419 O   0  0  0  0  0  0  0  0  0  0  0  0
   12.3853  -16.8888   23.3337 C   0  0  0  0  0  0  0  0  0  0  0  0
   13.4499  -16.2540   22.4684 C   0  0  2  0  0  0  0  0  0  0  0  0
   13.2423  -16.6302   21.0857 N   0  0  0  0  0  0  0  0  0  0  0  0
   14.7504  -16.8249   22.9035 C   0  0  0  0  0  0  0  0  0  0  0  0
   15.4227  -16.3412   24.0305 O   0  0  0  0  0  0  0  0  0  0  0  0
   15.2815  -17.7500   22.2796 O   0  0  0  0  0  0  0  0  0  0  0  0
  2  1  1  0
  2  3  1  0
  3  5  1  0
  3  4  1  6
  5  6  1  1
  5  7  1  0
  7  8  2  0
  9  7  1  0
  9 10  1  0
 10 14  1  0
 10 11  1  6
 12 11  1  0
 13 12  2  0
 14 15  2  0
 16 12  1  0
 17 18  1  0
 18 19  2  0
 18 20  1  0
 21 20  1  1
 21 23  1  0
 22 21  1  0
 22 14  1  0
 23 25  2  0
 23 24  1  0
M  END
$$$$
