IDN.pdb
     RDKit          3D

 25 24  0  0  1  0  0  0  0  0999 V2000
    5.9139  -11.4678   26.9014 C   0  0  0  0  0  0  0  0  0  0  0  0
    5.6691  -12.6936   26.0467 C   0  0  0  0  0  0  0  0  0  0  0  0
    6.8920  -13.5515   25.9217 C   0  0  2  0  0  0  0  0  0  0  0  0
    8.0604  -12.8042   25.3202 C   0  0  0  0  0  0  0  0  0  0  0  0
    6.6055  -14.7351   25.0302 C   0  0  2  0  0  0  0  0  0  0  0  0
    5.4446  -15.4195   25.5283 N   0  0  0  0  0  0  0  0  0  0  0  0
    7.7843  -15.6514   24.9255 C   0  0  0  0  0  0  0  0  0  0  0  0
    7.9347  -16.5815   25.7605 O   0  0  0  0  0  0  0  0  0  0  0  0
    8.7387  -15.4896   23.8981 N   0  0  0  0  0  0  0  0  0  0  0  0
    9.8913  -16.3697   23.7940 C   0  0  1  0  0  0  0  0  0  0  0  0
   10.6950  -15.9823   22.5908 C   0  0  0  0  0  0  0  0  0  0  0  0
   11.6124  -17.0639   22.2103 C   0  0  0  0  0  0  0  0  0  0  0  0
   12.1597  -17.8641   23.0108 O   0  0  0  0  0  0  0  0  0  0  0  0
   10.7090  -16.3403   25.0125 C   0  0  0  0  0  0  0  0  0  0  0  0
   11.4706  -15.3643   25.2176 O   0  0  0  0  0  0  0  0  0  0  0  0
   11.9318  -17.2558   20.8534 O   0  0  0  0  0  0  0  0  0  0  0  0
   10.5417  -14.2595   28.7030 N   0  0  0  0  0  0  0  0  0  0  0  0
   11.1691  -15.5242   28.8530 C   0  0  0  0  0  0  0  0  0  0  0  0
   12.2617  -15.5790   29.4714 O   0  0  0  0  0  0  0  0  0  0  0  0
   10.5526  -16.7592   28.2935 C   0  0  0  0  0  0  0  0  0  0  0  0
   11.4053  -17.3536   27.1959 C   0  0  2  0  0  0  0  0  0  0  0  0
   10.6422  -17.4184   25.9671 N   0  0  0  0  0  0  0  0  0  0  0  0
   11.7218  -18.7453   27.6072 C   0  0  0  0  0  0  0  0  0  0  0  0
   11.7367  -19.7967   26.6849 O   0  0  0  0  0  0  0  0  0  0  0  0
   11.9832  -19.0189   28.7837 O   0  0  0  0  0  0  0  0  0  0  0  0
  2  1  1  0
  2  3  1  0
  3  5  1  0
  3  4  1  6
  5  6  1  1
  5  7  1  0
  7  8  2  0
  9  7  1  0
  9 10  1  0
 10 14  1  0
 10 11  1  6
 12 11  1  0
 13 12  2  0
 14 15  2  0
 16 12  1  0
 17 18  1  0
 18 19  2  0
 18 20  1  0
 21 20  1  1
 21 23  1  0
 22 21  1  0
 22 14  1  0
 23 25  2  0
 23 24  1  0
M  END
$$$$
