IDN.pdb
     RDKit          3D

 25 24  0  0  1  0  0  0  0  0999 V2000
    5.8680  -11.5680   26.4184 C   0  0  0  0  0  0  0  0  0  0  0  0
    5.7069  -12.9182   25.7521 C   0  0  0  0  0  0  0  0  0  0  0  0
    7.0046  -13.6625   25.6573 C   0  0  2  0  0  0  0  0  0  0  0  0
    8.0643  -12.8799   24.9158 C   0  0  0  0  0  0  0  0  0  0  0  0
    6.8032  -14.9628   24.9181 C   0  0  2  0  0  0  0  0  0  0  0  0
    5.7090  -15.6730   25.5204 N   0  0  0  0  0  0  0  0  0  0  0  0
    8.0511  -15.7886   24.8940 C   0  0  0  0  0  0  0  0  0  0  0  0
    8.2979  -16.5841   25.8381 O   0  0  0  0  0  0  0  0  0  0  0  0
    8.9644  -15.6904   23.8222 N   0  0  0  0  0  0  0  0  0  0  0  0
   10.1355  -16.5489   23.7480 C   0  0  1  0  0  0  0  0  0  0  0  0
   10.8008  -16.3543   22.4202 C   0  0  0  0  0  0  0  0  0  0  0  0
    9.8946  -16.7278   21.3268 C   0  0  0  0  0  0  0  0  0  0  0  0
    9.1212  -17.7190   21.3342 O   0  0  0  0  0  0  0  0  0  0  0  0
   11.0671  -16.2935   24.8530 C   0  0  0  0  0  0  0  0  0  0  0  0
   12.0837  -15.5870   24.6481 O   0  0  0  0  0  0  0  0  0  0  0  0
    9.8565  -15.9422   20.1600 O   0  0  0  0  0  0  0  0  0  0  0  0
   10.8183  -14.2746   27.8396 N   0  0  0  0  0  0  0  0  0  0  0  0
   10.6382  -15.3167   28.7868 C   0  0  0  0  0  0  0  0  0  0  0  0
    9.9969  -15.0641   29.8376 O   0  0  0  0  0  0  0  0  0  0  0  0
   11.1932  -16.6779   28.5469 C   0  0  0  0  0  0  0  0  0  0  0  0
   11.8433  -16.7771   27.1858 C   0  0  2  0  0  0  0  0  0  0  0  0
   10.8220  -16.8458   26.1618 N   0  0  0  0  0  0  0  0  0  0  0  0
   12.5946  -18.0584   27.1637 C   0  0  0  0  0  0  0  0  0  0  0  0
   12.1551  -19.1527   26.4117 O   0  0  0  0  0  0  0  0  0  0  0  0
   13.6369  -18.1979   27.8128 O   0  0  0  0  0  0  0  0  0  0  0  0
  2  1  1  0
  2  3  1  0
  3  5  1  0
  3  4  1  6
  5  6  1  1
  5  7  1  0
  7  8  2  0
  9  7  1  0
  9 10  1  0
 10 14  1  0
 10 11  1  6
 12 11  1  0
 13 12  2  0
 14 15  2  0
 16 12  1  0
 17 18  1  0
 18 19  2  0
 18 20  1  0
 21 20  1  1
 21 23  1  0
 22 21  1  0
 22 14  1  0
 23 25  2  0
 23 24  1  0
M  END
$$$$
