IDN.pdb
     RDKit          3D

 25 24  0  0  1  0  0  0  0  0999 V2000
    7.5516  -11.8778   20.1889 C   0  0  0  0  0  0  0  0  0  0  0  0
    7.9987  -13.0497   19.3404 C   0  0  0  0  0  0  0  0  0  0  0  0
    8.3218  -14.2579   20.1669 C   0  0  2  0  0  0  0  0  0  0  0  0
    9.4391  -13.9997   21.1519 C   0  0  0  0  0  0  0  0  0  0  0  0
    8.7596  -15.3938   19.2747 C   0  0  2  0  0  0  0  0  0  0  0  0
    7.7627  -15.5960   18.2600 N   0  0  0  0  0  0  0  0  0  0  0  0
    9.0169  -16.6458   20.0533 C   0  0  0  0  0  0  0  0  0  0  0  0
    8.5178  -17.7373   19.6731 O   0  0  0  0  0  0  0  0  0  0  0  0
    9.8162  -16.6242   21.2166 N   0  0  0  0  0  0  0  0  0  0  0  0
   10.4664  -17.8285   21.7074 C   0  0  1  0  0  0  0  0  0  0  0  0
   11.1953  -18.4861   20.5762 C   0  0  0  0  0  0  0  0  0  0  0  0
   11.7419  -19.7827   20.9959 C   0  0  0  0  0  0  0  0  0  0  0  0
   12.1628  -20.6768   20.2185 O   0  0  0  0  0  0  0  0  0  0  0  0
   11.3703  -17.5398   22.8271 C   0  0  0  0  0  0  0  0  0  0  0  0
   12.6106  -17.6025   22.6469 O   0  0  0  0  0  0  0  0  0  0  0  0
   11.8194  -20.0905   22.3667 O   0  0  0  0  0  0  0  0  0  0  0  0
   11.4535  -19.8180   27.3722 N   0  0  0  0  0  0  0  0  0  0  0  0
   10.7413  -20.2788   26.2337 C   0  0  0  0  0  0  0  0  0  0  0  0
   10.2747  -21.4455   26.2534 O   0  0  0  0  0  0  0  0  0  0  0  0
   10.5486  -19.4059   25.0424 C   0  0  0  0  0  0  0  0  0  0  0  0
   11.1169  -18.0242   25.2724 C   0  0  2  0  0  0  0  0  0  0  0  0
   10.8447  -17.1877   24.1224 N   0  0  0  0  0  0  0  0  0  0  0  0
   12.5901  -18.1809   25.3808 C   0  0  0  0  0  0  0  0  0  0  0  0
   13.3582  -18.6473   24.3090 O   0  0  0  0  0  0  0  0  0  0  0  0
   13.1859  -17.9026   26.4271 O   0  0  0  0  0  0  0  0  0  0  0  0
  2  1  1  0
  2  3  1  0
  3  5  1  0
  3  4  1  1
  5  6  1  6
  5  7  1  0
  7  8  2  0
  9  7  1  0
  9 10  1  0
 10 14  1  0
 10 11  1  6
 12 11  1  0
 13 12  2  0
 14 15  2  0
 16 12  1  0
 17 18  1  0
 18 19  2  0
 18 20  1  0
 21 20  1  6
 21 23  1  0
 22 21  1  0
 22 14  1  0
 23 25  2  0
 23 24  1  0
M  END
$$$$
