IDN.pdb
     RDKit          3D

 25 24  0  0  1  0  0  0  0  0999 V2000
    7.7578  -11.8936   20.6690 C   0  0  0  0  0  0  0  0  0  0  0  0
    7.4514  -13.0579   19.7505 C   0  0  0  0  0  0  0  0  0  0  0  0
    8.6453  -13.9379   19.5325 C   0  0  2  0  0  0  0  0  0  0  0  0
    9.8035  -13.1929   18.9090 C   0  0  0  0  0  0  0  0  0  0  0  0
    8.2885  -15.0749   18.6064 C   0  0  2  0  0  0  0  0  0  0  0  0
    7.0340  -15.6365   19.0248 N   0  0  0  0  0  0  0  0  0  0  0  0
    9.3676  -16.1107   18.5552 C   0  0  0  0  0  0  0  0  0  0  0  0
    9.3063  -17.1211   19.3037 O   0  0  0  0  0  0  0  0  0  0  0  0
   10.4623  -15.9735   17.6747 N   0  0  0  0  0  0  0  0  0  0  0  0
   11.4680  -17.0165   17.5535 C   0  0  1  0  0  0  0  0  0  0  0  0
   12.1088  -16.9230   16.2029 C   0  0  0  0  0  0  0  0  0  0  0  0
   13.1022  -17.9898   16.0257 C   0  0  0  0  0  0  0  0  0  0  0  0
   14.3395  -17.8648   16.2110 O   0  0  0  0  0  0  0  0  0  0  0  0
   12.4683  -16.9337   18.6244 C   0  0  0  0  0  0  0  0  0  0  0  0
   13.3971  -17.7766   18.6636 O   0  0  0  0  0  0  0  0  0  0  0  0
   12.6801  -19.2684   15.6172 O   0  0  0  0  0  0  0  0  0  0  0  0
   14.9786  -15.2194   18.4465 N   0  0  0  0  0  0  0  0  0  0  0  0
   14.8494  -14.2087   19.4352 C   0  0  0  0  0  0  0  0  0  0  0  0
   15.4614  -13.1245   19.2640 O   0  0  0  0  0  0  0  0  0  0  0  0
   14.0110  -14.4221   20.6475 C   0  0  0  0  0  0  0  0  0  0  0  0
   13.3975  -15.8036   20.6586 C   0  0  2  0  0  0  0  0  0  0  0  0
   12.3896  -15.8974   19.6233 N   0  0  0  0  0  0  0  0  0  0  0  0
   12.7168  -15.9582   21.9697 C   0  0  0  0  0  0  0  0  0  0  0  0
   13.4390  -16.0535   23.1637 O   0  0  0  0  0  0  0  0  0  0  0  0
   11.4843  -16.0076   22.0467 O   0  0  0  0  0  0  0  0  0  0  0  0
  2  1  1  0
  2  3  1  0
  3  5  1  0
  3  4  1  6
  5  6  1  1
  5  7  1  0
  7  8  2  0
  9  7  1  0
  9 10  1  0
 10 14  1  0
 10 11  1  6
 12 11  1  0
 13 12  2  0
 14 15  2  0
 16 12  1  0
 17 18  1  0
 18 19  2  0
 18 20  1  0
 21 20  1  1
 21 23  1  0
 22 21  1  0
 22 14  1  0
 23 25  2  0
 23 24  1  0
M  END
$$$$
