IDN.pdb
     RDKit          3D

 25 24  0  0  1  0  0  0  0  0999 V2000
    6.0250  -11.8314   26.4649 C   0  0  0  0  0  0  0  0  0  0  0  0
    5.8010  -13.0782   25.6353 C   0  0  0  0  0  0  0  0  0  0  0  0
    7.0658  -13.8553   25.4264 C   0  0  2  0  0  0  0  0  0  0  0  0
    8.1371  -13.0380   24.7410 C   0  0  0  0  0  0  0  0  0  0  0  0
    6.7954  -15.0620   24.5612 C   0  0  2  0  0  0  0  0  0  0  0  0
    5.6656  -15.7709   25.0955 N   0  0  0  0  0  0  0  0  0  0  0  0
    7.9979  -15.9456   24.4466 C   0  0  0  0  0  0  0  0  0  0  0  0
    8.0760  -16.9953   25.1374 O   0  0  0  0  0  0  0  0  0  0  0  0
    9.0554  -15.6199   23.5701 N   0  0  0  0  0  0  0  0  0  0  0  0
   10.2477  -16.4479   23.4863 C   0  0  1  0  0  0  0  0  0  0  0  0
   11.1043  -15.9585   22.3592 C   0  0  0  0  0  0  0  0  0  0  0  0
   10.6322  -16.4975   21.0776 C   0  0  0  0  0  0  0  0  0  0  0  0
   10.0128  -17.5821   20.9325 O   0  0  0  0  0  0  0  0  0  0  0  0
   10.9899  -16.4612   24.7524 C   0  0  0  0  0  0  0  0  0  0  0  0
   12.1256  -16.9933   24.7928 O   0  0  0  0  0  0  0  0  0  0  0  0
   10.8700  -15.7761   19.8931 O   0  0  0  0  0  0  0  0  0  0  0  0
   12.2283  -16.0047   29.7567 N   0  0  0  0  0  0  0  0  0  0  0  0
   11.1920  -15.0645   29.5160 C   0  0  0  0  0  0  0  0  0  0  0  0
   10.8413  -14.3088   30.4569 O   0  0  0  0  0  0  0  0  0  0  0  0
   10.5329  -14.9712   28.1837 C   0  0  0  0  0  0  0  0  0  0  0  0
   11.1303  -15.9534   27.2021 C   0  0  2  0  0  0  0  0  0  0  0  0
   10.4252  -15.8709   25.9401 N   0  0  0  0  0  0  0  0  0  0  0  0
   10.9009  -17.3099   27.7620 C   0  0  0  0  0  0  0  0  0  0  0  0
   11.8096  -17.9014   28.6455 O   0  0  0  0  0  0  0  0  0  0  0  0
    9.8943  -17.9616   27.4629 O   0  0  0  0  0  0  0  0  0  0  0  0
  2  1  1  0
  2  3  1  0
  3  5  1  0
  3  4  1  6
  5  6  1  1
  5  7  1  0
  7  8  2  0
  9  7  1  0
  9 10  1  0
 10 14  1  0
 10 11  1  6
 12 11  1  0
 13 12  2  0
 14 15  2  0
 16 12  1  0
 17 18  1  0
 18 19  2  0
 18 20  1  0
 21 20  1  1
 21 23  1  0
 22 21  1  0
 22 14  1  0
 23 25  2  0
 23 24  1  0
M  END
$$$$
