VIN.pdb
     RDKit          3D

 24 23  0  0  1  0  0  0  0  0999 V2000
   18.2331  -14.8262  -18.9832 C   0  0  0  0  0  0  0  0  0  0  0  0
   18.6048  -14.0036  -17.7741 C   0  0  2  0  0  0  0  0  0  0  0  0
   17.3068  -13.4241  -17.2159 C   0  0  0  0  0  0  0  0  0  0  0  0
   19.4852  -12.8326  -18.1250 C   0  0  2  0  0  0  0  0  0  0  0  0
   20.6339  -13.3545  -18.8506 N   0  0  0  0  0  0  0  0  0  0  0  0
   19.9014  -12.0451  -16.9536 C   0  0  0  0  0  0  0  0  0  0  0  0
   19.1309  -11.6656  -16.0377 O   0  0  0  0  0  0  0  0  0  0  0  0
   24.5207  -13.0795  -14.5674 C   0  0  0  0  0  0  0  0  0  0  0  0
   23.0984  -12.6211  -14.8077 C   0  0  0  0  0  0  0  0  0  0  0  0
   23.1065  -11.2023  -15.3101 C   0  0  2  0  0  0  0  0  0  0  0  0
   23.4553  -10.3094  -14.1346 C   0  0  0  0  0  0  0  0  0  0  0  0
   21.7201  -10.7947  -15.7722 C   0  0  2  0  0  0  0  0  0  0  0  0
   21.2720  -11.6845  -16.8441 N   0  0  0  0  0  0  0  0  0  0  0  0
   21.6549   -9.3824  -16.1741 C   0  0  0  0  0  0  0  0  0  0  0  0
   22.1788   -9.0077  -17.2534 O   0  0  0  0  0  0  0  0  0  0  0  0
   20.6254   -5.0024  -18.5212 N   0  0  0  0  0  0  0  0  0  0  0  0
   19.7686   -5.6883  -17.6247 C   0  0  0  0  0  0  0  0  0  0  0  0
   18.7306   -5.0687  -17.2476 O   0  0  0  0  0  0  0  0  0  0  0  0
   20.0567   -7.0493  -17.1483 C   0  0  0  0  0  0  0  0  0  0  0  0
   20.8225   -7.0036  -15.8695 C   0  0  2  0  0  0  0  0  0  0  0  0
   21.0146   -8.3836  -15.3903 N   0  0  0  0  0  0  0  0  0  0  0  0
   20.2738   -6.1465  -14.8244 C   0  0  0  0  0  0  0  0  0  0  0  0
   20.3530   -4.7723  -14.9411 O   0  0  0  0  0  0  0  0  0  0  0  0
   19.7178   -6.6523  -13.7947 O   0  0  0  0  0  0  0  0  0  0  0  0
  2  1  1  6
  2  3  1  0
  4  6  1  0
  4  2  1  0
  4  5  1  1
  6 13  1  0
  7  6  2  0
  9  8  1  0
 10  9  1  0
 10 11  1  1
 12 10  1  0
 12 13  1  6
 14 21  1  0
 14 12  1  0
 15 14  2  0
 17 16  1  0
 17 18  2  0
 19 17  1  0
 20 19  1  6
 20 21  1  0
 22 20  1  0
 22 23  1  0
 24 22  2  0
M  END
$$$$
