VIN.pdb
     RDKit          3D

 24 23  0  0  1  0  0  0  0  0999 V2000
   20.2271  -22.0078  -11.3953 C   0  0  0  0  0  0  0  0  0  0  0  0
   19.7553  -21.4054  -12.6958 C   0  0  2  0  0  0  0  0  0  0  0  0
   18.6973  -22.3489  -13.2637 C   0  0  0  0  0  0  0  0  0  0  0  0
   20.8551  -21.3216  -13.7220 C   0  0  2  0  0  0  0  0  0  0  0  0
   21.1804  -22.6825  -14.1227 N   0  0  0  0  0  0  0  0  0  0  0  0
   22.0463  -20.6031  -13.2418 C   0  0  0  0  0  0  0  0  0  0  0  0
   22.0571  -19.4016  -12.8775 O   0  0  0  0  0  0  0  0  0  0  0  0
   25.1335  -21.2414   -9.2624 C   0  0  0  0  0  0  0  0  0  0  0  0
   24.4321  -20.7215  -10.4988 C   0  0  0  0  0  0  0  0  0  0  0  0
   25.2189  -21.1086  -11.7222 C   0  0  2  0  0  0  0  0  0  0  0  0
   26.5599  -20.4048  -11.6375 C   0  0  0  0  0  0  0  0  0  0  0  0
   24.5356  -20.5973  -12.9766 C   0  0  2  0  0  0  0  0  0  0  0  0
   23.2762  -21.3134  -13.1835 N   0  0  0  0  0  0  0  0  0  0  0  0
   25.4048  -20.6720  -14.1595 C   0  0  0  0  0  0  0  0  0  0  0  0
   26.2430  -21.6021  -14.2701 O   0  0  0  0  0  0  0  0  0  0  0  0
   24.1817  -19.7719  -19.1343 N   0  0  0  0  0  0  0  0  0  0  0  0
   24.2918  -20.3790  -17.8586 C   0  0  0  0  0  0  0  0  0  0  0  0
   23.2229  -20.4864  -17.1884 O   0  0  0  0  0  0  0  0  0  0  0  0
   25.5743  -20.8640  -17.3271 C   0  0  0  0  0  0  0  0  0  0  0  0
   26.1863  -19.8436  -16.4283 C   0  0  2  0  0  0  0  0  0  0  0  0
   25.3525  -19.7255  -15.2192 N   0  0  0  0  0  0  0  0  0  0  0  0
   26.4494  -18.5390  -17.0255 C   0  0  0  0  0  0  0  0  0  0  0  0
   27.3707  -18.4166  -18.0476 O   0  0  0  0  0  0  0  0  0  0  0  0
   25.8361  -17.5001  -16.6133 O   0  0  0  0  0  0  0  0  0  0  0  0
  2  1  1  1
  2  3  1  0
  4  6  1  0
  4  2  1  0
  4  5  1  1
  6 13  1  0
  7  6  2  0
  9  8  1  0
 10  9  1  0
 10 11  1  1
 12 10  1  0
 12 13  1  6
 14 21  1  0
 14 12  1  0
 15 14  2  0
 17 16  1  0
 17 18  2  0
 19 17  1  0
 20 19  1  6
 20 21  1  0
 22 20  1  0
 22 23  1  0
 24 22  2  0
M  END
$$$$
