VIN.pdb
     RDKit          3D

 24 23  0  0  1  0  0  0  0  0999 V2000
   19.1453  -13.2529  -16.4729 C   0  0  0  0  0  0  0  0  0  0  0  0
   17.9233  -12.3758  -16.3548 C   0  0  2  0  0  0  0  0  0  0  0  0
   16.9549  -12.8144  -17.4512 C   0  0  0  0  0  0  0  0  0  0  0  0
   18.2327  -10.9232  -16.6073 C   0  0  2  0  0  0  0  0  0  0  0  0
   18.7260  -10.8147  -17.9723 N   0  0  0  0  0  0  0  0  0  0  0  0
   19.1885  -10.3551  -15.6434 C   0  0  0  0  0  0  0  0  0  0  0  0
   18.9542  -10.1837  -14.4217 O   0  0  0  0  0  0  0  0  0  0  0  0
   24.3919  -11.6827  -15.4089 C   0  0  0  0  0  0  0  0  0  0  0  0
   22.9794  -11.2232  -15.1183 C   0  0  0  0  0  0  0  0  0  0  0  0
   22.8277   -9.7812  -15.5222 C   0  0  2  0  0  0  0  0  0  0  0  0
   23.7582   -8.9664  -14.6442 C   0  0  0  0  0  0  0  0  0  0  0  0
   21.4194   -9.2949  -15.2357 C   0  0  2  0  0  0  0  0  0  0  0  0
   20.4705   -9.9704  -16.1217 N   0  0  0  0  0  0  0  0  0  0  0  0
   21.3014   -7.8326  -15.3252 C   0  0  0  0  0  0  0  0  0  0  0  0
   21.9705   -7.0964  -14.5570 O   0  0  0  0  0  0  0  0  0  0  0  0
   22.0710   -3.0417  -18.3861 N   0  0  0  0  0  0  0  0  0  0  0  0
   21.3200   -3.7630  -17.4249 C   0  0  0  0  0  0  0  0  0  0  0  0
   20.6604   -3.0763  -16.5902 O   0  0  0  0  0  0  0  0  0  0  0  0
   21.2981   -5.2328  -17.3863 C   0  0  0  0  0  0  0  0  0  0  0  0
   20.3452   -5.7135  -16.3448 C   0  0  2  0  0  0  0  0  0  0  0  0
   20.4489   -7.1807  -16.2580 N   0  0  0  0  0  0  0  0  0  0  0  0
   18.9595   -5.2837  -16.4968 C   0  0  0  0  0  0  0  0  0  0  0  0
   18.4293   -4.3356  -15.6434 O   0  0  0  0  0  0  0  0  0  0  0  0
   18.2235   -5.7760  -17.4140 O   0  0  0  0  0  0  0  0  0  0  0  0
  2  1  1  6
  2  3  1  0
  4  6  1  0
  4  2  1  0
  4  5  1  6
  6 13  1  0
  7  6  2  0
  9  8  1  0
 10  9  1  0
 10 11  1  1
 12 10  1  0
 12 13  1  6
 14 21  1  0
 14 12  1  0
 15 14  2  0
 17 16  1  0
 17 18  2  0
 19 17  1  0
 20 19  1  6
 20 21  1  0
 22 20  1  0
 22 23  1  0
 24 22  2  0
M  END
$$$$
