VIN.pdb
     RDKit          3D

 24 23  0  0  1  0  0  0  0  0999 V2000
   26.4094  -21.3157   -9.8971 C   0  0  0  0  0  0  0  0  0  0  0  0
   25.2376  -20.3655   -9.9245 C   0  0  2  0  0  0  0  0  0  0  0  0
   24.1988  -20.9140   -8.9488 C   0  0  0  0  0  0  0  0  0  0  0  0
   24.5745  -20.3107  -11.2761 C   0  0  2  0  0  0  0  0  0  0  0  0
   24.1564  -21.6642  -11.6103 N   0  0  0  0  0  0  0  0  0  0  0  0
   25.4348  -19.7393  -12.3244 C   0  0  0  0  0  0  0  0  0  0  0  0
   25.8802  -18.5654  -12.3216 O   0  0  0  0  0  0  0  0  0  0  0  0
   29.1229  -19.3299  -13.2382 C   0  0  0  0  0  0  0  0  0  0  0  0
   28.6458  -20.7433  -13.4940 C   0  0  0  0  0  0  0  0  0  0  0  0
   27.8242  -20.7751  -14.7547 C   0  0  2  0  0  0  0  0  0  0  0  0
   28.6072  -20.0349  -15.8223 C   0  0  0  0  0  0  0  0  0  0  0  0
   26.5248  -20.0163  -14.5610 C   0  0  2  0  0  0  0  0  0  0  0  0
   25.7914  -20.5694  -13.4218 N   0  0  0  0  0  0  0  0  0  0  0  0
   25.7017  -19.9925  -15.7785 C   0  0  0  0  0  0  0  0  0  0  0  0
   25.7190  -20.9670  -16.5722 O   0  0  0  0  0  0  0  0  0  0  0  0
   22.4092  -22.5349  -15.7290 N   0  0  0  0  0  0  0  0  0  0  0  0
   22.4647  -21.2840  -16.3928 C   0  0  0  0  0  0  0  0  0  0  0  0
   22.2236  -21.2914  -17.6358 O   0  0  0  0  0  0  0  0  0  0  0  0
   22.7845  -20.0338  -15.6878 C   0  0  0  0  0  0  0  0  0  0  0  0
   23.4795  -19.0822  -16.6017 C   0  0  2  0  0  0  0  0  0  0  0  0
   24.8608  -18.8988  -16.1228 N   0  0  0  0  0  0  0  0  0  0  0  0
   22.8150  -17.8020  -16.8196 C   0  0  0  0  0  0  0  0  0  0  0  0
   22.1800  -17.5449  -18.0192 O   0  0  0  0  0  0  0  0  0  0  0  0
   22.8128  -16.9082  -15.9106 O   0  0  0  0  0  0  0  0  0  0  0  0
  2  1  1  6
  2  3  1  0
  4  6  1  0
  4  2  1  0
  4  5  1  6
  6 13  1  0
  7  6  2  0
  9  8  1  0
 10  9  1  0
 10 11  1  6
 12 10  1  0
 12 13  1  1
 14 21  1  0
 14 12  1  0
 15 14  2  0
 17 16  1  0
 17 18  2  0
 19 17  1  0
 20 19  1  1
 20 21  1  0
 22 20  1  0
 22 23  1  0
 24 22  2  0
M  END
$$$$
