VIN.pdb
     RDKit          3D

 24 23  0  0  1  0  0  0  0  0999 V2000
   23.8866  -10.0337  -16.1998 C   0  0  0  0  0  0  0  0  0  0  0  0
   23.3555  -10.9194  -15.0998 C   0  0  2  0  0  0  0  0  0  0  0  0
   24.4462  -11.9418  -14.7879 C   0  0  0  0  0  0  0  0  0  0  0  0
   22.1406  -11.7007  -15.5281 C   0  0  2  0  0  0  0  0  0  0  0  0
   22.5732  -12.6608  -16.5328 N   0  0  0  0  0  0  0  0  0  0  0  0
   21.0491  -10.8512  -16.0307 C   0  0  0  0  0  0  0  0  0  0  0  0
   20.8754  -10.5512  -17.2374 O   0  0  0  0  0  0  0  0  0  0  0  0
   16.8832  -12.5163  -15.6053 C   0  0  0  0  0  0  0  0  0  0  0  0
   17.4943  -11.3124  -16.2895 C   0  0  0  0  0  0  0  0  0  0  0  0
   17.6924  -10.2104  -15.2837 C   0  0  2  0  0  0  0  0  0  0  0  0
   16.5897   -9.1928  -15.5062 C   0  0  0  0  0  0  0  0  0  0  0  0
   19.0057   -9.4931  -15.5337 C   0  0  2  0  0  0  0  0  0  0  0  0
   20.1212  -10.3294  -15.0888 N   0  0  0  0  0  0  0  0  0  0  0  0
   19.0441   -8.1604  -14.9151 C   0  0  0  0  0  0  0  0  0  0  0  0
   18.9334   -8.0385  -13.6690 O   0  0  0  0  0  0  0  0  0  0  0  0
   22.5207   -5.9228  -16.1481 N   0  0  0  0  0  0  0  0  0  0  0  0
   21.6083   -5.3587  -15.2221 C   0  0  0  0  0  0  0  0  0  0  0  0
   21.9731   -5.3365  -14.0097 O   0  0  0  0  0  0  0  0  0  0  0  0
   20.3020   -4.8228  -15.6329 C   0  0  0  0  0  0  0  0  0  0  0  0
   19.1969   -5.6294  -15.0397 C   0  0  2  0  0  0  0  0  0  0  0  0
   19.2039   -6.9632  -15.6656 N   0  0  0  0  0  0  0  0  0  0  0  0
   17.8694   -5.0262  -15.0819 C   0  0  0  0  0  0  0  0  0  0  0  0
   17.4629   -4.1720  -14.0751 O   0  0  0  0  0  0  0  0  0  0  0  0
   17.0711   -5.2792  -16.0431 O   0  0  0  0  0  0  0  0  0  0  0  0
  2  1  1  6
  2  3  1  0
  4  6  1  0
  4  2  1  0
  4  5  1  6
  6 13  1  0
  7  6  2  0
  9  8  1  0
 10  9  1  0
 10 11  1  6
 12 10  1  0
 12 13  1  1
 14 21  1  0
 14 12  1  0
 15 14  2  0
 17 16  1  0
 17 18  2  0
 19 17  1  0
 20 19  1  6
 20 21  1  0
 22 20  1  0
 22 23  1  0
 24 22  2  0
M  END
$$$$
