VIN.pdb
     RDKit          3D

 24 23  0  0  1  0  0  0  0  0999 V2000
   17.8606  -15.8944  -18.7073 C   0  0  0  0  0  0  0  0  0  0  0  0
   17.4241  -16.1135  -17.2797 C   0  0  2  0  0  0  0  0  0  0  0  0
   16.2640  -17.1059  -17.3180 C   0  0  0  0  0  0  0  0  0  0  0  0
   16.8955  -14.8553  -16.6415 C   0  0  2  0  0  0  0  0  0  0  0  0
   15.6776  -14.4878  -17.3486 N   0  0  0  0  0  0  0  0  0  0  0  0
   17.8687  -13.7514  -16.6368 C   0  0  0  0  0  0  0  0  0  0  0  0
   18.9683  -13.7712  -16.0311 O   0  0  0  0  0  0  0  0  0  0  0  0
   18.5565  -12.1643  -20.8553 C   0  0  0  0  0  0  0  0  0  0  0  0
   19.3798  -11.7541  -19.6534 C   0  0  0  0  0  0  0  0  0  0  0  0
   18.5611  -10.8534  -18.7680 C   0  0  2  0  0  0  0  0  0  0  0  0
   19.3097   -9.5399  -18.6451 C   0  0  0  0  0  0  0  0  0  0  0  0
   18.4614  -11.4320  -17.3690 C   0  0  2  0  0  0  0  0  0  0  0  0
   17.5480  -12.5754  -17.3681 N   0  0  0  0  0  0  0  0  0  0  0  0
   18.0736  -10.4248  -16.3713 C   0  0  0  0  0  0  0  0  0  0  0  0
   16.8926   -9.9964  -16.3318 O   0  0  0  0  0  0  0  0  0  0  0  0
   17.5385   -8.3699  -11.2136 N   0  0  0  0  0  0  0  0  0  0  0  0
   18.6465   -8.2678  -12.0911 C   0  0  0  0  0  0  0  0  0  0  0  0
   19.3631   -7.2297  -11.9801 O   0  0  0  0  0  0  0  0  0  0  0  0
   18.9606   -9.3056  -13.0845 C   0  0  0  0  0  0  0  0  0  0  0  0
   18.5959   -8.8440  -14.4548 C   0  0  2  0  0  0  0  0  0  0  0  0
   18.9830   -9.8893  -15.4184 N   0  0  0  0  0  0  0  0  0  0  0  0
   19.1103   -7.5371  -14.8487 C   0  0  0  0  0  0  0  0  0  0  0  0
   18.3965   -6.3921  -14.5520 O   0  0  0  0  0  0  0  0  0  0  0  0
   20.2191   -7.4354  -15.4695 O   0  0  0  0  0  0  0  0  0  0  0  0
  2  1  1  6
  2  3  1  0
  4  6  1  0
  4  2  1  0
  4  5  1  6
  6 13  1  0
  7  6  2  0
  9  8  1  0
 10  9  1  0
 10 11  1  1
 12 10  1  0
 12 13  1  6
 14 21  1  0
 14 12  1  0
 15 14  2  0
 17 16  1  0
 17 18  2  0
 19 17  1  0
 20 19  1  1
 20 21  1  0
 22 20  1  0
 22 23  1  0
 24 22  2  0
M  END
$$$$
