VIN.pdb
     RDKit          3D

 24 23  0  0  1  0  0  0  0  0999 V2000
   18.6802  -13.3464  -17.1771 C   0  0  0  0  0  0  0  0  0  0  0  0
   17.6630  -12.2852  -16.8369 C   0  0  2  0  0  0  0  0  0  0  0  0
   16.5767  -12.3524  -17.9081 C   0  0  0  0  0  0  0  0  0  0  0  0
   18.2419  -10.8955  -16.8951 C   0  0  2  0  0  0  0  0  0  0  0  0
   18.6445  -10.6497  -18.2720 N   0  0  0  0  0  0  0  0  0  0  0  0
   19.3619  -10.6915  -15.9626 C   0  0  0  0  0  0  0  0  0  0  0  0
   19.2910  -10.8399  -14.7178 O   0  0  0  0  0  0  0  0  0  0  0  0
   23.9114  -13.0034  -16.0121 C   0  0  0  0  0  0  0  0  0  0  0  0
   22.6894  -12.1918  -15.6395 C   0  0  0  0  0  0  0  0  0  0  0  0
   22.9467  -10.7369  -15.9267 C   0  0  2  0  0  0  0  0  0  0  0  0
   24.0347  -10.2748  -14.9762 C   0  0  0  0  0  0  0  0  0  0  0  0
   21.7143   -9.9083  -15.6159 C   0  0  2  0  0  0  0  0  0  0  0  0
   20.6168  -10.2983  -16.5021 N   0  0  0  0  0  0  0  0  0  0  0  0
   21.9782   -8.4639  -15.6796 C   0  0  0  0  0  0  0  0  0  0  0  0
   22.1952   -7.9092  -16.7864 O   0  0  0  0  0  0  0  0  0  0  0  0
   22.0597   -3.4207  -14.8912 N   0  0  0  0  0  0  0  0  0  0  0  0
   21.0110   -4.1757  -15.4728 C   0  0  0  0  0  0  0  0  0  0  0  0
   20.0958   -3.5205  -16.0528 O   0  0  0  0  0  0  0  0  0  0  0  0
   20.9738   -5.6446  -15.4138 C   0  0  0  0  0  0  0  0  0  0  0  0
   22.1202   -6.1641  -14.6140 C   0  0  2  0  0  0  0  0  0  0  0  0
   22.0035   -7.6304  -14.5278 N   0  0  0  0  0  0  0  0  0  0  0  0
   22.3067   -5.5646  -13.2973 C   0  0  0  0  0  0  0  0  0  0  0  0
   22.6995   -4.2449  -13.1848 O   0  0  0  0  0  0  0  0  0  0  0  0
   22.1115   -6.2477  -12.2387 O   0  0  0  0  0  0  0  0  0  0  0  0
  2  1  1  6
  2  3  1  0
  4  6  1  0
  4  2  1  0
  4  5  1  6
  6 13  1  0
  7  6  2  0
  9  8  1  0
 10  9  1  0
 10 11  1  1
 12 10  1  0
 12 13  1  6
 14 21  1  0
 14 12  1  0
 15 14  2  0
 17 16  1  0
 17 18  2  0
 19 17  1  0
 20 19  1  1
 20 21  1  0
 22 20  1  0
 22 23  1  0
 24 22  2  0
M  END
$$$$
