VIN.pdb
     RDKit          3D

 24 23  0  0  1  0  0  0  0  0999 V2000
   21.4767  -14.7828  -16.1209 C   0  0  0  0  0  0  0  0  0  0  0  0
   20.4463  -14.1136  -16.9967 C   0  0  2  0  0  0  0  0  0  0  0  0
   20.0551  -15.1241  -18.0727 C   0  0  0  0  0  0  0  0  0  0  0  0
   20.9979  -12.9095  -17.7147 C   0  0  2  0  0  0  0  0  0  0  0  0
   21.9992  -13.3865  -18.6572 N   0  0  0  0  0  0  0  0  0  0  0  0
   21.5546  -11.8942  -16.8066 C   0  0  0  0  0  0  0  0  0  0  0  0
   20.9289  -11.3685  -15.8534 O   0  0  0  0  0  0  0  0  0  0  0  0
   26.8915  -11.8762  -15.5314 C   0  0  0  0  0  0  0  0  0  0  0  0
   25.3838  -11.7487  -15.4937 C   0  0  0  0  0  0  0  0  0  0  0  0
   24.9694  -10.4839  -16.1965 C   0  0  2  0  0  0  0  0  0  0  0  0
   25.4732   -9.3198  -15.3649 C   0  0  0  0  0  0  0  0  0  0  0  0
   23.4570  -10.3699  -16.2366 C   0  0  2  0  0  0  0  0  0  0  0  0
   22.8960  -11.4734  -17.0171 N   0  0  0  0  0  0  0  0  0  0  0  0
   23.0056   -9.0641  -16.7379 C   0  0  0  0  0  0  0  0  0  0  0  0
   23.4150   -8.6368  -17.8467 O   0  0  0  0  0  0  0  0  0  0  0  0
   20.5321   -4.6145  -17.5403 N   0  0  0  0  0  0  0  0  0  0  0  0
   19.8938   -5.8474  -17.8246 C   0  0  0  0  0  0  0  0  0  0  0  0
   18.8575   -5.7945  -18.5502 O   0  0  0  0  0  0  0  0  0  0  0  0
   20.3973   -7.1298  -17.3105 C   0  0  0  0  0  0  0  0  0  0  0  0
   21.6549   -6.9242  -16.5358 C   0  0  2  0  0  0  0  0  0  0  0  0
   22.1052   -8.2291  -16.0208 N   0  0  0  0  0  0  0  0  0  0  0  0
   21.5984   -5.9224  -15.4769 C   0  0  0  0  0  0  0  0  0  0  0  0
   21.3243   -4.6035  -15.7831 O   0  0  0  0  0  0  0  0  0  0  0  0
   21.8014   -6.2495  -14.2615 O   0  0  0  0  0  0  0  0  0  0  0  0
  2  1  1  1
  2  3  1  0
  4  6  1  0
  4  2  1  0
  4  5  1  6
  6 13  1  0
  7  6  2  0
  9  8  1  0
 10  9  1  0
 10 11  1  1
 12 10  1  0
 12 13  1  6
 14 21  1  0
 14 12  1  0
 15 14  2  0
 17 16  1  0
 17 18  2  0
 19 17  1  0
 20 19  1  1
 20 21  1  0
 22 20  1  0
 22 23  1  0
 24 22  2  0
M  END
$$$$
