VIN.pdb
     RDKit          3D

 24 23  0  0  1  0  0  0  0  0999 V2000
   19.2651  -13.0574  -18.5242 C   0  0  0  0  0  0  0  0  0  0  0  0
   18.1613  -12.0297  -18.5689 C   0  0  2  0  0  0  0  0  0  0  0  0
   17.7164  -11.9198  -20.0257 C   0  0  0  0  0  0  0  0  0  0  0  0
   18.6350  -10.6602  -18.1572 C   0  0  2  0  0  0  0  0  0  0  0  0
   19.5788  -10.2048  -19.1673 N   0  0  0  0  0  0  0  0  0  0  0  0
   19.2307  -10.6299  -16.8120 C   0  0  0  0  0  0  0  0  0  0  0  0
   18.6298  -10.9511  -15.7573 O   0  0  0  0  0  0  0  0  0  0  0  0
   24.2171  -12.3566  -15.7888 C   0  0  0  0  0  0  0  0  0  0  0  0
   22.7593  -11.9701  -15.6616 C   0  0  0  0  0  0  0  0  0  0  0  0
   22.6518  -10.4871  -15.4280 C   0  0  2  0  0  0  0  0  0  0  0  0
   23.2457  -10.2014  -14.0618 C   0  0  0  0  0  0  0  0  0  0  0  0
   21.1963  -10.0629  -15.3690 C   0  0  2  0  0  0  0  0  0  0  0  0
   20.5826  -10.2080  -16.6896 N   0  0  0  0  0  0  0  0  0  0  0  0
   21.0291   -8.7029  -14.8375 C   0  0  0  0  0  0  0  0  0  0  0  0
   21.4596   -8.4145  -13.6924 O   0  0  0  0  0  0  0  0  0  0  0  0
   22.5701   -3.4142  -14.7793 N   0  0  0  0  0  0  0  0  0  0  0  0
   21.7110   -4.4296  -14.2902 C   0  0  0  0  0  0  0  0  0  0  0  0
   20.9238   -4.1028  -13.3537 O   0  0  0  0  0  0  0  0  0  0  0  0
   21.7216   -5.7965  -14.8321 C   0  0  0  0  0  0  0  0  0  0  0  0
   20.3293   -6.2739  -15.0718 C   0  0  2  0  0  0  0  0  0  0  0  0
   20.3893   -7.6614  -15.5640 N   0  0  0  0  0  0  0  0  0  0  0  0
   19.5044   -5.4359  -15.9350 C   0  0  0  0  0  0  0  0  0  0  0  0
   18.4860   -4.6744  -15.3953 O   0  0  0  0  0  0  0  0  0  0  0  0
   19.7112   -5.3965  -17.1924 O   0  0  0  0  0  0  0  0  0  0  0  0
  2  1  1  6
  2  3  1  0
  4  6  1  0
  4  2  1  0
  4  5  1  6
  6 13  1  0
  7  6  2  0
  9  8  1  0
 10  9  1  0
 10 11  1  1
 12 10  1  0
 12 13  1  6
 14 21  1  0
 14 12  1  0
 15 14  2  0
 17 16  1  0
 17 18  2  0
 19 17  1  0
 20 19  1  6
 20 21  1  0
 22 20  1  0
 22 23  1  0
 24 22  2  0
M  END
$$$$
