VIN.pdb
     RDKit          3D

 24 23  0  0  1  0  0  0  0  0999 V2000
   17.6195  -12.5037  -17.4256 C   0  0  0  0  0  0  0  0  0  0  0  0
   17.0573  -11.2009  -17.9386 C   0  0  2  0  0  0  0  0  0  0  0  0
   16.4637  -11.4859  -19.3164 C   0  0  0  0  0  0  0  0  0  0  0  0
   18.1225  -10.1538  -18.1351 C   0  0  2  0  0  0  0  0  0  0  0  0
   18.9966  -10.6180  -19.2023 N   0  0  0  0  0  0  0  0  0  0  0  0
   18.8809   -9.8571  -16.9095 C   0  0  0  0  0  0  0  0  0  0  0  0
   18.3679   -9.4956  -15.8220 O   0  0  0  0  0  0  0  0  0  0  0  0
   24.2219  -11.1892  -14.2709 C   0  0  0  0  0  0  0  0  0  0  0  0
   23.0752  -10.2117  -14.4142 C   0  0  0  0  0  0  0  0  0  0  0  0
   22.2697  -10.5589  -15.6373 C   0  0  2  0  0  0  0  0  0  0  0  0
   23.1717  -10.3656  -16.8415 C   0  0  0  0  0  0  0  0  0  0  0  0
   21.1100   -9.5944  -15.8008 C   0  0  2  0  0  0  0  0  0  0  0  0
   20.2958   -9.9868  -16.9518 N   0  0  0  0  0  0  0  0  0  0  0  0
   21.5523   -8.1962  -15.8983 C   0  0  0  0  0  0  0  0  0  0  0  0
   22.0574   -7.7660  -16.9659 O   0  0  0  0  0  0  0  0  0  0  0  0
   18.6897   -3.8504  -15.2101 N   0  0  0  0  0  0  0  0  0  0  0  0
   19.5463   -4.9587  -14.9957 C   0  0  0  0  0  0  0  0  0  0  0  0
   19.2054   -5.7702  -14.0854 O   0  0  0  0  0  0  0  0  0  0  0  0
   20.7712   -5.1689  -15.7818 C   0  0  0  0  0  0  0  0  0  0  0  0
   21.8094   -5.8522  -14.9579 C   0  0  2  0  0  0  0  0  0  0  0  0
   21.4395   -7.2721  -14.8235 N   0  0  0  0  0  0  0  0  0  0  0  0
   22.0969   -5.2498  -13.6608 C   0  0  0  0  0  0  0  0  0  0  0  0
   22.5527   -3.9479  -13.5859 O   0  0  0  0  0  0  0  0  0  0  0  0
   21.9328   -5.9142  -12.5852 O   0  0  0  0  0  0  0  0  0  0  0  0
  2  1  1  6
  2  3  1  0
  4  6  1  0
  4  2  1  0
  4  5  1  6
  6 13  1  0
  7  6  2  0
  9  8  1  0
 10  9  1  0
 10 11  1  6
 12 10  1  0
 12 13  1  6
 14 21  1  0
 14 12  1  0
 15 14  2  0
 17 16  1  0
 17 18  2  0
 19 17  1  0
 20 19  1  1
 20 21  1  0
 22 20  1  0
 22 23  1  0
 24 22  2  0
M  END
$$$$
