VIN.pdb
     RDKit          3D

 24 23  0  0  1  0  0  0  0  0999 V2000
   21.0707  -21.2720  -10.4966 C   0  0  0  0  0  0  0  0  0  0  0  0
   20.2588  -20.6211  -11.5892 C   0  0  2  0  0  0  0  0  0  0  0  0
   18.9109  -21.3380  -11.6272 C   0  0  0  0  0  0  0  0  0  0  0  0
   20.8810  -20.7983  -12.9498 C   0  0  2  0  0  0  0  0  0  0  0  0
   20.9556  -22.2282  -13.2107 N   0  0  0  0  0  0  0  0  0  0  0  0
   22.2006  -20.1592  -13.0746 C   0  0  0  0  0  0  0  0  0  0  0  0
   22.4072  -18.9238  -12.9866 O   0  0  0  0  0  0  0  0  0  0  0  0
   26.3025  -21.5997  -10.2212 C   0  0  0  0  0  0  0  0  0  0  0  0
   25.2941  -20.8966  -11.1041 C   0  0  0  0  0  0  0  0  0  0  0  0
   25.6400  -21.1353  -12.5494 C   0  0  2  0  0  0  0  0  0  0  0  0
   27.0030  -20.5168  -12.7953 C   0  0  0  0  0  0  0  0  0  0  0  0
   24.6619  -20.4116  -13.4559 C   0  0  2  0  0  0  0  0  0  0  0  0
   23.3269  -20.9934  -13.3117 N   0  0  0  0  0  0  0  0  0  0  0  0
   25.1011  -20.3980  -14.8584 C   0  0  0  0  0  0  0  0  0  0  0  0
   25.2636  -21.4781  -15.4804 O   0  0  0  0  0  0  0  0  0  0  0  0
   23.0959  -19.5706  -17.5934 N   0  0  0  0  0  0  0  0  0  0  0  0
   23.6890  -18.3287  -17.9312 C   0  0  0  0  0  0  0  0  0  0  0  0
   22.9345  -17.4707  -18.4771 O   0  0  0  0  0  0  0  0  0  0  0  0
   25.1060  -18.0369  -17.6677 C   0  0  0  0  0  0  0  0  0  0  0  0
   25.7610  -19.1952  -16.9944 C   0  0  2  0  0  0  0  0  0  0  0  0
   25.3614  -19.1984  -15.5762 N   0  0  0  0  0  0  0  0  0  0  0  0
   27.2094  -19.2866  -17.1418 C   0  0  0  0  0  0  0  0  0  0  0  0
   27.7646  -20.2582  -17.9518 O   0  0  0  0  0  0  0  0  0  0  0  0
   27.9774  -18.4757  -16.5271 O   0  0  0  0  0  0  0  0  0  0  0  0
  2  1  1  1
  2  3  1  0
  4  6  1  0
  4  2  1  0
  4  5  1  1
  6 13  1  0
  7  6  2  0
  9  8  1  0
 10  9  1  0
 10 11  1  1
 12 10  1  0
 12 13  1  6
 14 21  1  0
 14 12  1  0
 15 14  2  0
 17 16  1  0
 17 18  2  0
 19 17  1  0
 20 19  1  1
 20 21  1  0
 22 20  1  0
 22 23  1  0
 24 22  2  0
M  END
$$$$
