VIN.pdb
     RDKit          3D

 24 23  0  0  1  0  0  0  0  0999 V2000
   24.0437  -21.6292   -8.3980 C   0  0  0  0  0  0  0  0  0  0  0  0
   24.7631  -20.7446   -9.3863 C   0  0  2  0  0  0  0  0  0  0  0  0
   24.1165  -19.3639   -9.2983 C   0  0  0  0  0  0  0  0  0  0  0  0
   24.5902  -21.2130  -10.8077 C   0  0  2  0  0  0  0  0  0  0  0  0
   25.0548  -22.5909  -10.8709 N   0  0  0  0  0  0  0  0  0  0  0  0
   25.2860  -20.3653  -11.7890 C   0  0  0  0  0  0  0  0  0  0  0  0
   25.0605  -19.1426  -11.9638 O   0  0  0  0  0  0  0  0  0  0  0  0
   30.1524  -20.8425  -11.5857 C   0  0  0  0  0  0  0  0  0  0  0  0
   28.9404  -20.0262  -11.9802 C   0  0  0  0  0  0  0  0  0  0  0  0
   28.5247  -20.3896  -13.3804 C   0  0  2  0  0  0  0  0  0  0  0  0
   29.2331  -19.4358  -14.3234 C   0  0  0  0  0  0  0  0  0  0  0  0
   27.0361  -20.1640  -13.5677 C   0  0  2  0  0  0  0  0  0  0  0  0
   26.2863  -20.9665  -12.6006 N   0  0  0  0  0  0  0  0  0  0  0  0
   26.5981  -20.4238  -14.9464 C   0  0  0  0  0  0  0  0  0  0  0  0
   26.5713  -21.5995  -15.3902 O   0  0  0  0  0  0  0  0  0  0  0  0
   22.5554  -19.7275  -17.9636 N   0  0  0  0  0  0  0  0  0  0  0  0
   22.5964  -19.9920  -16.5720 C   0  0  0  0  0  0  0  0  0  0  0  0
   21.5025  -20.3215  -16.0258 O   0  0  0  0  0  0  0  0  0  0  0  0
   23.8374  -19.8932  -15.7894 C   0  0  0  0  0  0  0  0  0  0  0  0
   24.9769  -19.4961  -16.6656 C   0  0  2  0  0  0  0  0  0  0  0  0
   26.1902  -19.3923  -15.8361 N   0  0  0  0  0  0  0  0  0  0  0  0
   24.7771  -18.2975  -17.4726 C   0  0  0  0  0  0  0  0  0  0  0  0
   24.4257  -18.4078  -18.8041 O   0  0  0  0  0  0  0  0  0  0  0  0
   24.9244  -17.1386  -16.9622 O   0  0  0  0  0  0  0  0  0  0  0  0
  2  1  1  1
  2  3  1  0
  4  6  1  0
  4  2  1  0
  4  5  1  1
  6 13  1  0
  7  6  2  0
  9  8  1  0
 10  9  1  0
 10 11  1  6
 12 10  1  0
 12 13  1  1
 14 21  1  0
 14 12  1  0
 15 14  2  0
 17 16  1  0
 17 18  2  0
 19 17  1  0
 20 19  1  1
 20 21  1  0
 22 20  1  0
 22 23  1  0
 24 22  2  0
M  END
$$$$
