VIN.pdb
     RDKit          3D

 24 23  0  0  1  0  0  0  0  0999 V2000
   22.3697  -18.7850  -17.8949 C   0  0  0  0  0  0  0  0  0  0  0  0
   23.3647  -17.8880  -17.2007 C   0  0  2  0  0  0  0  0  0  0  0  0
   23.8431  -16.8718  -18.2355 C   0  0  0  0  0  0  0  0  0  0  0  0
   24.5856  -18.6374  -16.7345 C   0  0  2  0  0  0  0  0  0  0  0  0
   25.3052  -19.0769  -17.9209 N   0  0  0  0  0  0  0  0  0  0  0  0
   24.2713  -19.7680  -15.8465 C   0  0  0  0  0  0  0  0  0  0  0  0
   24.0014  -20.9301  -16.2379 O   0  0  0  0  0  0  0  0  0  0  0  0
   27.0565  -21.2552  -11.6969 C   0  0  0  0  0  0  0  0  0  0  0  0
   26.0858  -21.1942  -12.8566 C   0  0  0  0  0  0  0  0  0  0  0  0
   24.7451  -20.7195  -12.3643 C   0  0  2  0  0  0  0  0  0  0  0  0
   24.1810  -21.8081  -11.4712 C   0  0  0  0  0  0  0  0  0  0  0  0
   23.7792  -20.5616  -13.5237 C   0  0  2  0  0  0  0  0  0  0  0  0
   24.2713  -19.5357  -14.4442 N   0  0  0  0  0  0  0  0  0  0  0  0
   22.4076  -20.2796  -13.0773 C   0  0  0  0  0  0  0  0  0  0  0  0
   22.0174  -19.0921  -12.9455 O   0  0  0  0  0  0  0  0  0  0  0  0
   17.4396  -20.1395  -13.6013 N   0  0  0  0  0  0  0  0  0  0  0  0
   18.3594  -20.4540  -14.6324 C   0  0  0  0  0  0  0  0  0  0  0  0
   17.8833  -20.5709  -15.7998 O   0  0  0  0  0  0  0  0  0  0  0  0
   19.7955  -20.6382  -14.3751 C   0  0  0  0  0  0  0  0  0  0  0  0
   20.0178  -21.1311  -12.9853 C   0  0  2  0  0  0  0  0  0  0  0  0
   21.4663  -21.3019  -12.7762 N   0  0  0  0  0  0  0  0  0  0  0  0
   19.2780  -22.3292  -12.6044 C   0  0  0  0  0  0  0  0  0  0  0  0
   18.3863  -22.2884  -11.5500 O   0  0  0  0  0  0  0  0  0  0  0  0
   19.4447  -23.4240  -13.2359 O   0  0  0  0  0  0  0  0  0  0  0  0
  2  1  1  6
  2  3  1  0
  4  6  1  0
  4  2  1  0
  4  5  1  6
  6 13  1  0
  7  6  2  0
  9  8  1  0
 10  9  1  0
 10 11  1  1
 12 10  1  0
 12 13  1  6
 14 21  1  0
 14 12  1  0
 15 14  2  0
 17 16  1  0
 17 18  2  0
 19 17  1  0
 20 19  1  6
 20 21  1  0
 22 20  1  0
 22 23  1  0
 24 22  2  0
M  END
$$$$
