VIN.pdb
     RDKit          3D

 24 23  0  0  1  0  0  0  0  0999 V2000
   22.9410  -14.0333  -19.3950 C   0  0  0  0  0  0  0  0  0  0  0  0
   23.9633  -12.9352  -19.5557 C   0  0  2  0  0  0  0  0  0  0  0  0
   25.3328  -13.5646  -19.3100 C   0  0  0  0  0  0  0  0  0  0  0  0
   23.7992  -11.8435  -18.5305 C   0  0  2  0  0  0  0  0  0  0  0  0
   24.0120  -12.4417  -17.2208 N   0  0  0  0  0  0  0  0  0  0  0  0
   22.4958  -11.1645  -18.6062 C   0  0  0  0  0  0  0  0  0  0  0  0
   22.0874  -10.5112  -19.5976 O   0  0  0  0  0  0  0  0  0  0  0  0
   18.8736  -13.9821  -17.2207 C   0  0  0  0  0  0  0  0  0  0  0  0
   18.8626  -12.6239  -17.8885 C   0  0  0  0  0  0  0  0  0  0  0  0
   19.2856  -11.5736  -16.8969 C   0  0  2  0  0  0  0  0  0  0  0  0
   18.0616  -10.7376  -16.5752 C   0  0  0  0  0  0  0  0  0  0  0  0
   20.3039  -10.6362  -17.5183 C   0  0  2  0  0  0  0  0  0  0  0  0
   21.6321  -11.2495  -17.4805 N   0  0  0  0  0  0  0  0  0  0  0  0
   20.3001   -9.3073  -16.8904 C   0  0  0  0  0  0  0  0  0  0  0  0
   19.3344   -8.5241  -17.0745 O   0  0  0  0  0  0  0  0  0  0  0  0
   21.5440   -5.0402  -14.2180 N   0  0  0  0  0  0  0  0  0  0  0  0
   22.0488   -6.1856  -13.5536 C   0  0  0  0  0  0  0  0  0  0  0  0
   22.5974   -5.9922  -12.4290 O   0  0  0  0  0  0  0  0  0  0  0  0
   21.9480   -7.5355  -14.1282 C   0  0  0  0  0  0  0  0  0  0  0  0
   21.3838   -7.4751  -15.5073 C   0  0  2  0  0  0  0  0  0  0  0  0
   21.3565   -8.8401  -16.0613 N   0  0  0  0  0  0  0  0  0  0  0  0
   22.0281   -6.5396  -16.4226 C   0  0  0  0  0  0  0  0  0  0  0  0
   21.4906   -5.2829  -16.6227 O   0  0  0  0  0  0  0  0  0  0  0  0
   23.0896   -6.8687  -17.0473 O   0  0  0  0  0  0  0  0  0  0  0  0
  2  1  1  1
  2  3  1  0
  4  6  1  0
  4  2  1  0
  4  5  1  1
  6 13  1  0
  7  6  2  0
  9  8  1  0
 10  9  1  0
 10 11  1  6
 12 10  1  0
 12 13  1  1
 14 21  1  0
 14 12  1  0
 15 14  2  0
 17 16  1  0
 17 18  2  0
 19 17  1  0
 20 19  1  1
 20 21  1  0
 22 20  1  0
 22 23  1  0
 24 22  2  0
M  END
$$$$
