VIN.pdb
     RDKit          3D

 24 23  0  0  1  0  0  0  0  0999 V2000
   11.8304  -11.0871  -10.3595 C   0  0  0  0  0  0  0  0  0  0  0  0
   12.3931  -11.5562  -11.6786 C   0  0  2  0  0  0  0  0  0  0  0  0
   12.1391  -13.0599  -11.7595 C   0  0  0  0  0  0  0  0  0  0  0  0
   13.8848  -11.3645  -11.7671 C   0  0  2  0  0  0  0  0  0  0  0  0
   14.4902  -12.1770  -10.7223 N   0  0  0  0  0  0  0  0  0  0  0  0
   14.2984   -9.9562  -11.6607 C   0  0  0  0  0  0  0  0  0  0  0  0
   13.9616   -9.0504  -12.4623 O   0  0  0  0  0  0  0  0  0  0  0  0
   13.3698   -8.1091   -7.5409 C   0  0  0  0  0  0  0  0  0  0  0  0
   13.9014   -7.3837   -8.7583 C   0  0  0  0  0  0  0  0  0  0  0  0
   15.3431   -7.7574   -8.9754 C   0  0  2  0  0  0  0  0  0  0  0  0
   16.1704   -6.5028   -8.7692 C   0  0  0  0  0  0  0  0  0  0  0  0
   15.5673   -8.1977  -10.4099 C   0  0  2  0  0  0  0  0  0  0  0  0
   15.1394   -9.5873  -10.5758 N   0  0  0  0  0  0  0  0  0  0  0  0
   16.9565   -8.0000  -10.8472 C   0  0  0  0  0  0  0  0  0  0  0  0
   17.8661   -8.7573  -10.4242 O   0  0  0  0  0  0  0  0  0  0  0  0
   21.0372   -7.0661  -13.7958 N   0  0  0  0  0  0  0  0  0  0  0  0
   20.2256   -8.2261  -13.7326 C   0  0  0  0  0  0  0  0  0  0  0  0
   20.6642   -9.2568  -14.3231 O   0  0  0  0  0  0  0  0  0  0  0  0
   18.9384   -8.2469  -13.0220 C   0  0  0  0  0  0  0  0  0  0  0  0
   18.6781   -6.9289  -12.3747 C   0  0  2  0  0  0  0  0  0  0  0  0
   17.3451   -6.9711  -11.7484 N   0  0  0  0  0  0  0  0  0  0  0  0
   18.8311   -5.7551  -13.2272 C   0  0  0  0  0  0  0  0  0  0  0  0
   20.0861   -5.2294  -13.4657 O   0  0  0  0  0  0  0  0  0  0  0  0
   17.8134   -5.2017  -13.7595 O   0  0  0  0  0  0  0  0  0  0  0  0
  2  1  1  1
  2  3  1  0
  4  6  1  0
  4  2  1  0
  4  5  1  1
  6 13  1  0
  7  6  2  0
  9  8  1  0
 10  9  1  0
 10 11  1  6
 12 10  1  0
 12 13  1  1
 14 21  1  0
 14 12  1  0
 15 14  2  0
 17 16  1  0
 17 18  2  0
 19 17  1  0
 20 19  1  6
 20 21  1  0
 22 20  1  0
 22 23  1  0
 24 22  2  0
M  END
$$$$
