VIN.pdb
     RDKit          3D

 24 23  0  0  1  0  0  0  0  0999 V2000
   20.1766  -13.3239  -17.4994 C   0  0  0  0  0  0  0  0  0  0  0  0
   18.7544  -13.0815  -17.0575 C   0  0  2  0  0  0  0  0  0  0  0  0
   17.8619  -13.3528  -18.2666 C   0  0  0  0  0  0  0  0  0  0  0  0
   18.5143  -11.6495  -16.6558 C   0  0  2  0  0  0  0  0  0  0  0  0
   18.5553  -10.8452  -17.8682 N   0  0  0  0  0  0  0  0  0  0  0  0
   19.4712  -11.1579  -15.6517 C   0  0  0  0  0  0  0  0  0  0  0  0
   19.6357  -11.6634  -14.5142 O   0  0  0  0  0  0  0  0  0  0  0  0
   24.5494  -10.8994  -16.0945 C   0  0  0  0  0  0  0  0  0  0  0  0
   23.1166  -10.9010  -15.6066 C   0  0  0  0  0  0  0  0  0  0  0  0
   22.6064   -9.4864  -15.5436 C   0  0  2  0  0  0  0  0  0  0  0  0
   23.4706   -8.7391  -14.5459 C   0  0  0  0  0  0  0  0  0  0  0  0
   21.1892   -9.4567  -15.0026 C   0  0  2  0  0  0  0  0  0  0  0  0
   20.2698  -10.0305  -15.9859 N   0  0  0  0  0  0  0  0  0  0  0  0
   20.7738   -8.1084  -14.5908 C   0  0  0  0  0  0  0  0  0  0  0  0
   20.3491   -7.2895  -15.4446 O   0  0  0  0  0  0  0  0  0  0  0  0
   18.8665   -4.8330   -9.9451 N   0  0  0  0  0  0  0  0  0  0  0  0
   18.8422   -5.1736  -11.3204 C   0  0  0  0  0  0  0  0  0  0  0  0
   18.4149   -4.2861  -12.1161 O   0  0  0  0  0  0  0  0  0  0  0  0
   19.2870   -6.4858  -11.8132 C   0  0  0  0  0  0  0  0  0  0  0  0
   20.3623   -6.3231  -12.8335 C   0  0  2  0  0  0  0  0  0  0  0  0
   20.8251   -7.6610  -13.2420 N   0  0  0  0  0  0  0  0  0  0  0  0
   21.4789   -5.4636  -12.4561 C   0  0  0  0  0  0  0  0  0  0  0  0
   21.3255   -4.0908  -12.4459 O   0  0  0  0  0  0  0  0  0  0  0  0
   22.6053   -5.9660  -12.1334 O   0  0  0  0  0  0  0  0  0  0  0  0
  2  1  1  6
  2  3  1  0
  4  6  1  0
  4  2  1  0
  4  5  1  6
  6 13  1  0
  7  6  2  0
  9  8  1  0
 10  9  1  0
 10 11  1  1
 12 10  1  0
 12 13  1  6
 14 21  1  0
 14 12  1  0
 15 14  2  0
 17 16  1  0
 17 18  2  0
 19 17  1  0
 20 19  1  1
 20 21  1  0
 22 20  1  0
 22 23  1  0
 24 22  2  0
M  END
$$$$
