MTV.pdb
     RDKit          3D

 23 22  0  0  1  0  0  0  0  0999 V2000
    8.2134  -12.1104   19.7322 C   0  0  0  0  0  0  0  0  0  0  0  0
    8.0305  -13.1833   18.3183 S   0  0  0  0  0  0  0  0  0  0  0  0
    7.5857  -14.8695   18.6648 C   0  0  0  0  0  0  0  0  0  0  0  0
    7.6489  -15.2173   20.1069 C   0  0  0  0  0  0  0  0  0  0  0  0
    7.2243  -16.5972   20.4721 C   0  0  2  0  0  0  0  0  0  0  0  0
    6.0546  -16.9614   19.6915 N   0  0  0  0  0  0  0  0  0  0  0  0
    6.8379  -16.5666   21.9297 C   0  0  0  0  0  0  0  0  0  0  0  0
    5.6748  -16.2004   22.2675 O   0  0  0  0  0  0  0  0  0  0  0  0
    7.3103  -18.2778   26.4446 C   0  0  0  0  0  0  0  0  0  0  0  0
    7.5814  -18.1709   24.9930 C   0  0  1  0  0  0  0  0  0  0  0  0
    6.6936  -19.0734   24.3521 O   0  0  0  0  0  0  0  0  0  0  0  0
    7.3010  -16.8307   24.3623 C   0  0  2  0  0  0  0  0  0  0  0  0
    7.7401  -16.9370   22.9570 N   0  0  0  0  0  0  0  0  0  0  0  0
    8.0404  -15.7069   24.9446 C   0  0  0  0  0  0  0  0  0  0  0  0
    9.1852  -15.4082   24.5333 O   0  0  0  0  0  0  0  0  0  0  0  0
    6.1400  -12.8935   27.6476 C   0  0  0  0  0  0  0  0  0  0  0  0
    7.3033  -12.6219   26.7548 C   0  0  2  0  0  0  0  0  0  0  0  0
    6.8063  -12.1249   25.3936 C   0  0  0  0  0  0  0  0  0  0  0  0
    8.1833  -13.8253   26.5226 C   0  0  2  0  0  0  0  0  0  0  0  0
    7.4585  -14.9450   25.9839 N   0  0  0  0  0  0  0  0  0  0  0  0
    8.8438  -14.2286   27.7838 C   0  0  0  0  0  0  0  0  0  0  0  0
    9.8249  -13.4401   28.3739 O   0  0  0  0  0  0  0  0  0  0  0  0
    8.5332  -15.3042   28.3611 O   0  0  0  0  0  0  0  0  0  0  0  0
  2  1  1  0
  3  4  1  0
  3  2  1  0
  5  4  1  0
  5  6  1  6
  7  8  2  0
  7  5  1  0
 10 12  1  0
 10  9  1  1
 11 10  1  0
 12 13  1  6
 13  7  1  0
 14 12  1  0
 15 14  2  0
 17 16  1  1
 17 19  1  0
 18 17  1  0
 19 21  1  0
 19 20  1  1
 20 14  1  0
 21 22  1  0
 23 21  2  0
M  END
$$$$
