MTV.pdb
     RDKit          3D

 23 22  0  0  1  0  0  0  0  0999 V2000
    7.9065  -11.7739   19.3484 C   0  0  0  0  0  0  0  0  0  0  0  0
    8.3767  -12.7217   17.9117 S   0  0  0  0  0  0  0  0  0  0  0  0
    8.7539  -14.4365   18.1915 C   0  0  0  0  0  0  0  0  0  0  0  0
    8.5447  -14.8703   19.5959 C   0  0  0  0  0  0  0  0  0  0  0  0
    8.7552  -16.3174   19.8779 C   0  0  2  0  0  0  0  0  0  0  0  0
    8.0418  -17.1073   18.8893 N   0  0  0  0  0  0  0  0  0  0  0  0
    8.1561  -16.5922   21.2346 C   0  0  0  0  0  0  0  0  0  0  0  0
    7.1740  -17.3825   21.3434 O   0  0  0  0  0  0  0  0  0  0  0  0
    7.9930  -18.8147   22.7374 C   0  0  0  0  0  0  0  0  0  0  0  0
    8.5670  -17.9414   23.7863 C   0  0  1  0  0  0  0  0  0  0  0  0
    9.9732  -17.9589   23.5969 O   0  0  0  0  0  0  0  0  0  0  0  0
    8.1809  -16.4856   23.7225 C   0  0  2  0  0  0  0  0  0  0  0  0
    8.6557  -15.9904   22.4156 N   0  0  0  0  0  0  0  0  0  0  0  0
    8.8052  -15.6354   24.7405 C   0  0  0  0  0  0  0  0  0  0  0  0
    9.9351  -15.1292   24.5507 O   0  0  0  0  0  0  0  0  0  0  0  0
    6.4525  -13.0151   26.4970 C   0  0  0  0  0  0  0  0  0  0  0  0
    7.4496  -13.5651   27.4601 C   0  0  2  0  0  0  0  0  0  0  0  0
    8.0461  -12.4269   28.2941 C   0  0  0  0  0  0  0  0  0  0  0  0
    8.5846  -14.3080   26.7997 C   0  0  2  0  0  0  0  0  0  0  0  0
    8.1276  -15.3786   25.9546 N   0  0  0  0  0  0  0  0  0  0  0  0
    9.5071  -14.8491   27.8222 C   0  0  0  0  0  0  0  0  0  0  0  0
   10.4695  -14.0492   28.4276 O   0  0  0  0  0  0  0  0  0  0  0  0
    9.4454  -16.0568   28.1745 O   0  0  0  0  0  0  0  0  0  0  0  0
  2  1  1  0
  3  4  1  0
  3  2  1  0
  5  4  1  0
  5  6  1  6
  7  8  2  0
  7  5  1  0
 10 12  1  0
 10  9  1  6
 11 10  1  0
 12 13  1  6
 13  7  1  0
 14 12  1  0
 15 14  2  0
 17 16  1  6
 17 19  1  0
 18 17  1  0
 19 21  1  0
 19 20  1  1
 20 14  1  0
 21 22  1  0
 23 21  2  0
M  END
$$$$
