MTV.pdb
     RDKit          3D

 23 22  0  0  1  0  0  0  0  0999 V2000
    6.2458  -11.7992   26.4745 C   0  0  0  0  0  0  0  0  0  0  0  0
    5.9698  -11.0107   24.8979 S   0  0  0  0  0  0  0  0  0  0  0  0
    6.5229  -11.9060   23.4648 C   0  0  0  0  0  0  0  0  0  0  0  0
    7.1024  -13.2359   23.7811 C   0  0  0  0  0  0  0  0  0  0  0  0
    7.5567  -14.0508   22.6202 C   0  0  2  0  0  0  0  0  0  0  0  0
    6.4126  -14.3778   21.7870 N   0  0  0  0  0  0  0  0  0  0  0  0
    8.1255  -15.3313   23.1783 C   0  0  0  0  0  0  0  0  0  0  0  0
    7.3502  -16.2204   23.6361 O   0  0  0  0  0  0  0  0  0  0  0  0
   10.2139  -17.9907   21.7088 C   0  0  0  0  0  0  0  0  0  0  0  0
   10.8757  -17.5305   22.9507 C   0  0  1  0  0  0  0  0  0  0  0  0
   11.8704  -16.5998   22.5534 O   0  0  0  0  0  0  0  0  0  0  0  0
   10.0060  -16.7815   23.9281 C   0  0  2  0  0  0  0  0  0  0  0  0
    9.5185  -15.5857   23.2131 N   0  0  0  0  0  0  0  0  0  0  0  0
   10.6985  -16.2960   25.1254 C   0  0  0  0  0  0  0  0  0  0  0  0
   11.6238  -15.4565   25.0371 O   0  0  0  0  0  0  0  0  0  0  0  0
    9.9970  -14.0394   27.6103 C   0  0  0  0  0  0  0  0  0  0  0  0
   10.2680  -15.3009   28.3581 C   0  0  2  0  0  0  0  0  0  0  0  0
   11.0637  -14.9884   29.6293 C   0  0  0  0  0  0  0  0  0  0  0  0
   11.0388  -16.3243   27.5614 C   0  0  2  0  0  0  0  0  0  0  0  0
   10.3206  -16.7770   26.4002 N   0  0  0  0  0  0  0  0  0  0  0  0
   11.3792  -17.4862   28.4122 C   0  0  0  0  0  0  0  0  0  0  0  0
   12.4640  -17.4568   29.2810 O   0  0  0  0  0  0  0  0  0  0  0  0
   10.6911  -18.5405   28.3723 O   0  0  0  0  0  0  0  0  0  0  0  0
  2  1  1  0
  3  4  1  0
  3  2  1  0
  5  4  1  0
  5  6  1  6
  7  8  2  0
  7  5  1  0
 10 12  1  0
 10  9  1  6
 11 10  1  0
 12 13  1  6
 13  7  1  0
 14 12  1  0
 15 14  2  0
 17 16  1  6
 17 19  1  0
 18 17  1  0
 19 21  1  0
 19 20  1  6
 20 14  1  0
 21 22  1  0
 23 21  2  0
M  END
$$$$
