MTV.pdb
     RDKit          3D

 23 22  0  0  1  0  0  0  0  0999 V2000
    8.7418  -11.8726   19.4978 C   0  0  0  0  0  0  0  0  0  0  0  0
    8.1993  -12.7410   18.0366 S   0  0  0  0  0  0  0  0  0  0  0  0
    8.1764  -14.5157   18.1413 C   0  0  0  0  0  0  0  0  0  0  0  0
    8.7815  -15.0461   19.3891 C   0  0  0  0  0  0  0  0  0  0  0  0
    8.6442  -16.5112   19.6182 C   0  0  2  0  0  0  0  0  0  0  0  0
    7.8129  -17.0840   18.5737 N   0  0  0  0  0  0  0  0  0  0  0  0
    7.9404  -16.6849   20.9408 C   0  0  0  0  0  0  0  0  0  0  0  0
    6.9006  -17.4023   21.0140 O   0  0  0  0  0  0  0  0  0  0  0  0
    7.7538  -18.8613   22.6085 C   0  0  0  0  0  0  0  0  0  0  0  0
    8.1893  -17.8965   23.6437 C   0  0  1  0  0  0  0  0  0  0  0  0
    9.6082  -17.9014   23.6243 O   0  0  0  0  0  0  0  0  0  0  0  0
    7.7991  -16.4582   23.4168 C   0  0  2  0  0  0  0  0  0  0  0  0
    8.4027  -16.0660   22.1281 N   0  0  0  0  0  0  0  0  0  0  0  0
    8.3067  -15.5148   24.4174 C   0  0  0  0  0  0  0  0  0  0  0  0
    9.4715  -15.0607   24.3403 O   0  0  0  0  0  0  0  0  0  0  0  0
    5.7856  -12.7149   25.6300 C   0  0  0  0  0  0  0  0  0  0  0  0
    6.6772  -13.1570   26.7408 C   0  0  2  0  0  0  0  0  0  0  0  0
    7.2057  -11.9347   27.4981 C   0  0  0  0  0  0  0  0  0  0  0  0
    7.8605  -13.9720   26.2806 C   0  0  2  0  0  0  0  0  0  0  0  0
    7.4750  -15.1072   25.4857 N   0  0  0  0  0  0  0  0  0  0  0  0
    8.6497  -14.4327   27.4444 C   0  0  0  0  0  0  0  0  0  0  0  0
    9.6462  -13.6418   28.0047 O   0  0  0  0  0  0  0  0  0  0  0  0
    8.4389  -15.5611   27.9628 O   0  0  0  0  0  0  0  0  0  0  0  0
  2  1  1  0
  3  4  1  0
  3  2  1  0
  5  4  1  0
  5  6  1  6
  7  8  2  0
  7  5  1  0
 10 12  1  0
 10  9  1  6
 11 10  1  0
 12 13  1  6
 13  7  1  0
 14 12  1  0
 15 14  2  0
 17 16  1  6
 17 19  1  0
 18 17  1  0
 19 21  1  0
 19 20  1  1
 20 14  1  0
 21 22  1  0
 23 21  2  0
M  END
$$$$
