MTV.pdb
     RDKit          3D

 23 22  0  0  1  0  0  0  0  0999 V2000
    9.1125  -11.5653   19.6763 C   0  0  0  0  0  0  0  0  0  0  0  0
    8.3068  -12.4503   18.3530 S   0  0  0  0  0  0  0  0  0  0  0  0
    8.0742  -14.1951   18.6031 C   0  0  0  0  0  0  0  0  0  0  0  0
    9.1794  -14.8409   19.3555 C   0  0  0  0  0  0  0  0  0  0  0  0
    9.0034  -16.2844   19.6773 C   0  0  2  0  0  0  0  0  0  0  0  0
    8.2659  -16.9284   18.6043 N   0  0  0  0  0  0  0  0  0  0  0  0
    8.1775  -16.3559   20.9373 C   0  0  0  0  0  0  0  0  0  0  0  0
    7.0941  -17.0094   20.9465 O   0  0  0  0  0  0  0  0  0  0  0  0
    7.5135  -18.3768   22.5473 C   0  0  0  0  0  0  0  0  0  0  0  0
    7.9920  -17.4806   23.6244 C   0  0  1  0  0  0  0  0  0  0  0  0
    9.3921  -17.6879   23.7256 O   0  0  0  0  0  0  0  0  0  0  0  0
    7.8312  -16.0021   23.3780 C   0  0  2  0  0  0  0  0  0  0  0  0
    8.5707  -15.7090   22.1346 N   0  0  0  0  0  0  0  0  0  0  0  0
    8.4023  -15.1372   24.4146 C   0  0  0  0  0  0  0  0  0  0  0  0
    9.6142  -14.8211   24.3925 O   0  0  0  0  0  0  0  0  0  0  0  0
    5.9003  -13.4256   27.5316 C   0  0  0  0  0  0  0  0  0  0  0  0
    7.0804  -12.7474   26.9220 C   0  0  2  0  0  0  0  0  0  0  0  0
    6.6231  -11.8521   25.7661 C   0  0  0  0  0  0  0  0  0  0  0  0
    8.1218  -13.7022   26.3927 C   0  0  2  0  0  0  0  0  0  0  0  0
    7.5792  -14.6488   25.4553 N   0  0  0  0  0  0  0  0  0  0  0  0
    8.7649  -14.4300   27.5091 C   0  0  0  0  0  0  0  0  0  0  0  0
    8.6623  -15.8111   27.6300 O   0  0  0  0  0  0  0  0  0  0  0  0
    9.4271  -13.8145   28.3861 O   0  0  0  0  0  0  0  0  0  0  0  0
  2  1  1  0
  3  4  1  0
  3  2  1  0
  5  4  1  0
  5  6  1  6
  7  8  2  0
  7  5  1  0
 10 12  1  0
 10  9  1  6
 11 10  1  0
 12 13  1  6
 13  7  1  0
 14 12  1  0
 15 14  2  0
 17 16  1  6
 17 19  1  0
 18 17  1  0
 19 21  1  0
 19 20  1  6
 20 14  1  0
 21 22  1  0
 23 21  2  0
M  END
$$$$
