MTV.pdb
     RDKit          3D

 23 22  0  0  1  0  0  0  0  0999 V2000
    6.6849  -19.9941   28.0042 C   0  0  0  0  0  0  0  0  0  0  0  0
    7.3549  -21.4117   27.1527 S   0  0  0  0  0  0  0  0  0  0  0  0
    7.7054  -21.1952   25.4231 C   0  0  0  0  0  0  0  0  0  0  0  0
    7.7778  -19.7726   25.0042 C   0  0  0  0  0  0  0  0  0  0  0  0
    8.0016  -19.5225   23.5532 C   0  0  2  0  0  0  0  0  0  0  0  0
    9.1408  -20.3029   23.1022 N   0  0  0  0  0  0  0  0  0  0  0  0
    8.3342  -18.0588   23.4059 C   0  0  0  0  0  0  0  0  0  0  0  0
    9.5135  -17.6540   23.6216 O   0  0  0  0  0  0  0  0  0  0  0  0
    7.2197  -13.5916   21.6823 C   0  0  0  0  0  0  0  0  0  0  0  0
    7.0994  -15.0612   21.8167 C   0  0  1  0  0  0  0  0  0  0  0  0
    7.8030  -15.6227   20.7199 O   0  0  0  0  0  0  0  0  0  0  0  0
    7.7327  -15.6698   23.0419 C   0  0  2  0  0  0  0  0  0  0  0  0
    7.3630  -17.0988   23.0298 N   0  0  0  0  0  0  0  0  0  0  0  0
    7.2559  -15.1281   24.3178 C   0  0  0  0  0  0  0  0  0  0  0  0
    6.1818  -15.5265   24.8243 O   0  0  0  0  0  0  0  0  0  0  0  0
    9.6947  -13.6867   27.4492 C   0  0  0  0  0  0  0  0  0  0  0  0
    8.5625  -12.8316   26.9900 C   0  0  2  0  0  0  0  0  0  0  0  0
    7.8881  -12.1731   28.1977 C   0  0  0  0  0  0  0  0  0  0  0  0
    7.5086  -13.5850   26.2167 C   0  0  2  0  0  0  0  0  0  0  0  0
    8.0147  -14.1434   24.9915 N   0  0  0  0  0  0  0  0  0  0  0  0
    6.3619  -12.6994   25.9160 C   0  0  0  0  0  0  0  0  0  0  0  0
    5.2823  -12.5894   26.7847 O   0  0  0  0  0  0  0  0  0  0  0  0
    6.3325  -12.0164   24.8581 O   0  0  0  0  0  0  0  0  0  0  0  0
  2  1  1  0
  3  4  1  0
  3  2  1  0
  5  4  1  0
  5  6  1  1
  7  8  2  0
  7  5  1  0
 10 12  1  0
 10  9  1  1
 11 10  1  0
 12 13  1  1
 13  7  1  0
 14 12  1  0
 15 14  2  0
 17 16  1  1
 17 19  1  0
 18 17  1  0
 19 21  1  0
 19 20  1  6
 20 14  1  0
 21 22  1  0
 23 21  2  0
M  END
$$$$
