MTV.pdb
     RDKit          3D

 23 22  0  0  1  0  0  0  0  0999 V2000
    7.9769  -11.8106   19.2466 C   0  0  0  0  0  0  0  0  0  0  0  0
    8.1628  -13.0107   17.9394 S   0  0  0  0  0  0  0  0  0  0  0  0
    8.2997  -14.7092   18.4468 C   0  0  0  0  0  0  0  0  0  0  0  0
    7.8469  -14.9525   19.8397 C   0  0  0  0  0  0  0  0  0  0  0  0
    7.8198  -16.3730   20.2862 C   0  0  2  0  0  0  0  0  0  0  0  0
    6.9535  -17.1363   19.4047 N   0  0  0  0  0  0  0  0  0  0  0  0
    7.2256  -16.3864   21.6724 C   0  0  0  0  0  0  0  0  0  0  0  0
    5.9693  -16.3618   21.8217 O   0  0  0  0  0  0  0  0  0  0  0  0
    6.6885  -18.7845   23.9662 C   0  0  0  0  0  0  0  0  0  0  0  0
    7.4180  -17.7456   24.7283 C   0  0  1  0  0  0  0  0  0  0  0  0
    8.7879  -18.1143   24.6981 O   0  0  0  0  0  0  0  0  0  0  0  0
    7.3746  -16.3508   24.1581 C   0  0  2  0  0  0  0  0  0  0  0  0
    8.0301  -16.4252   22.8376 N   0  0  0  0  0  0  0  0  0  0  0  0
    8.1091  -15.3444   24.9302 C   0  0  0  0  0  0  0  0  0  0  0  0
    9.2966  -15.0602   24.6511 O   0  0  0  0  0  0  0  0  0  0  0  0
    6.0926  -12.6965   27.7089 C   0  0  0  0  0  0  0  0  0  0  0  0
    7.3573  -12.4273   26.9658 C   0  0  2  0  0  0  0  0  0  0  0  0
    7.0355  -11.7930   25.6089 C   0  0  0  0  0  0  0  0  0  0  0  0
    8.1913  -13.6606   26.7216 C   0  0  2  0  0  0  0  0  0  0  0  0
    7.4738  -14.6808   26.0051 N   0  0  0  0  0  0  0  0  0  0  0  0
    8.6787  -14.2124   28.0052 C   0  0  0  0  0  0  0  0  0  0  0  0
    9.5993  -13.5251   28.7880 O   0  0  0  0  0  0  0  0  0  0  0  0
    8.2703  -15.3269   28.4266 O   0  0  0  0  0  0  0  0  0  0  0  0
  2  1  1  0
  3  4  1  0
  3  2  1  0
  5  4  1  0
  5  6  1  6
  7  8  2  0
  7  5  1  0
 10 12  1  0
 10  9  1  6
 11 10  1  0
 12 13  1  6
 13  7  1  0
 14 12  1  0
 15 14  2  0
 17 16  1  6
 17 19  1  0
 18 17  1  0
 19 21  1  0
 19 20  1  1
 20 14  1  0
 21 22  1  0
 23 21  2  0
M  END
$$$$
