MTV.pdb
     RDKit          3D

 23 22  0  0  1  0  0  0  0  0999 V2000
    9.0689  -11.6941   19.7928 C   0  0  0  0  0  0  0  0  0  0  0  0
    7.6740  -12.5603   19.0947 S   0  0  0  0  0  0  0  0  0  0  0  0
    7.5723  -14.2995   19.4494 C   0  0  0  0  0  0  0  0  0  0  0  0
    8.8943  -14.9428   19.6569 C   0  0  0  0  0  0  0  0  0  0  0  0
    8.8782  -16.3997   19.9651 C   0  0  2  0  0  0  0  0  0  0  0  0
    7.9205  -17.0628   19.0971 N   0  0  0  0  0  0  0  0  0  0  0  0
    8.4108  -16.5416   21.3920 C   0  0  0  0  0  0  0  0  0  0  0  0
    7.1823  -16.7151   21.6403 O   0  0  0  0  0  0  0  0  0  0  0  0
    9.3964  -18.4454   25.6929 C   0  0  0  0  0  0  0  0  0  0  0  0
    9.5853  -18.0337   24.2833 C   0  0  1  0  0  0  0  0  0  0  0  0
    9.1007  -19.1024   23.4855 O   0  0  0  0  0  0  0  0  0  0  0  0
    8.8051  -16.8244   23.8347 C   0  0  2  0  0  0  0  0  0  0  0  0
    9.3066  -16.4871   22.4880 N   0  0  0  0  0  0  0  0  0  0  0  0
    8.9924  -15.6272   24.6595 C   0  0  0  0  0  0  0  0  0  0  0  0
   10.0240  -14.9254   24.5494 O   0  0  0  0  0  0  0  0  0  0  0  0
    5.9959  -13.0875   25.9085 C   0  0  0  0  0  0  0  0  0  0  0  0
    6.9443  -13.5224   26.9741 C   0  0  2  0  0  0  0  0  0  0  0  0
    7.3043  -12.3294   27.8651 C   0  0  0  0  0  0  0  0  0  0  0  0
    8.2257  -14.1138   26.4408 C   0  0  2  0  0  0  0  0  0  0  0  0
    7.9984  -15.2535   25.5930 N   0  0  0  0  0  0  0  0  0  0  0  0
    9.1151  -14.5022   27.5577 C   0  0  0  0  0  0  0  0  0  0  0  0
   10.0837  -13.6348   28.0498 O   0  0  0  0  0  0  0  0  0  0  0  0
    9.0185  -15.6364   28.0969 O   0  0  0  0  0  0  0  0  0  0  0  0
  2  1  1  0
  3  4  1  0
  3  2  1  0
  5  4  1  0
  5  6  1  6
  7  8  2  0
  7  5  1  0
 10 12  1  0
 10  9  1  1
 11 10  1  0
 12 13  1  6
 13  7  1  0
 14 12  1  0
 15 14  2  0
 17 16  1  6
 17 19  1  0
 18 17  1  0
 19 21  1  0
 19 20  1  1
 20 14  1  0
 21 22  1  0
 23 21  2  0
M  END
$$$$
