MTV.pdb
     RDKit          3D

 23 22  0  0  1  0  0  0  0  0999 V2000
    7.7114  -12.0298   19.2599 C   0  0  0  0  0  0  0  0  0  0  0  0
    8.3463  -13.1470   18.0221 S   0  0  0  0  0  0  0  0  0  0  0  0
    8.1352  -14.8820   18.3481 C   0  0  0  0  0  0  0  0  0  0  0  0
    7.9280  -15.1967   19.7842 C   0  0  0  0  0  0  0  0  0  0  0  0
    7.7356  -16.6339   20.1237 C   0  0  2  0  0  0  0  0  0  0  0  0
    6.8059  -17.2293   19.1796 N   0  0  0  0  0  0  0  0  0  0  0  0
    7.1187  -16.6815   21.4993 C   0  0  0  0  0  0  0  0  0  0  0  0
    5.8707  -16.5256   21.6380 O   0  0  0  0  0  0  0  0  0  0  0  0
    6.5327  -19.2489   23.8136 C   0  0  0  0  0  0  0  0  0  0  0  0
    7.2761  -18.2091   24.5608 C   0  0  1  0  0  0  0  0  0  0  0  0
    8.6439  -18.5840   24.5156 O   0  0  0  0  0  0  0  0  0  0  0  0
    7.2318  -16.8172   23.9834 C   0  0  2  0  0  0  0  0  0  0  0  0
    7.8928  -16.8967   22.6659 N   0  0  0  0  0  0  0  0  0  0  0  0
    7.9609  -15.8052   24.7534 C   0  0  0  0  0  0  0  0  0  0  0  0
    9.1405  -15.5014   24.4615 O   0  0  0  0  0  0  0  0  0  0  0  0
    6.0291  -12.5465   26.1771 C   0  0  0  0  0  0  0  0  0  0  0  0
    7.0428  -13.0899   27.1265 C   0  0  2  0  0  0  0  0  0  0  0  0
    7.8596  -11.9406   27.7254 C   0  0  0  0  0  0  0  0  0  0  0  0
    8.0019  -14.0682   26.4947 C   0  0  2  0  0  0  0  0  0  0  0  0
    7.3293  -15.1586   25.8408 N   0  0  0  0  0  0  0  0  0  0  0  0
    8.9320  -14.6047   27.5129 C   0  0  0  0  0  0  0  0  0  0  0  0
   10.1002  -13.9331   27.8548 O   0  0  0  0  0  0  0  0  0  0  0  0
    8.6893  -15.6914   28.1018 O   0  0  0  0  0  0  0  0  0  0  0  0
  2  1  1  0
  3  4  1  0
  3  2  1  0
  5  4  1  0
  5  6  1  6
  7  8  2  0
  7  5  1  0
 10 12  1  0
 10  9  1  6
 11 10  1  0
 12 13  1  6
 13  7  1  0
 14 12  1  0
 15 14  2  0
 17 16  1  6
 17 19  1  0
 18 17  1  0
 19 21  1  0
 19 20  1  1
 20 14  1  0
 21 22  1  0
 23 21  2  0
M  END
$$$$
