MTV.pdb
     RDKit          3D

 23 22  0  0  1  0  0  0  0  0999 V2000
    9.3781  -11.7045   18.5790 C   0  0  0  0  0  0  0  0  0  0  0  0
    8.8358  -12.6116   20.0165 S   0  0  0  0  0  0  0  0  0  0  0  0
    7.2989  -13.4909   19.8562 C   0  0  0  0  0  0  0  0  0  0  0  0
    7.4117  -14.7492   19.0762 C   0  0  0  0  0  0  0  0  0  0  0  0
    8.3706  -15.7636   19.5952 C   0  0  2  0  0  0  0  0  0  0  0  0
    8.3164  -16.9481   18.7560 N   0  0  0  0  0  0  0  0  0  0  0  0
    7.9081  -16.1363   20.9816 C   0  0  0  0  0  0  0  0  0  0  0  0
    6.9889  -16.9927   21.1322 O   0  0  0  0  0  0  0  0  0  0  0  0
    8.0026  -18.3817   22.5848 C   0  0  0  0  0  0  0  0  0  0  0  0
    8.4565  -17.4291   23.6234 C   0  0  1  0  0  0  0  0  0  0  0  0
    9.8703  -17.3672   23.5200 O   0  0  0  0  0  0  0  0  0  0  0  0
    7.9891  -16.0044   23.4671 C   0  0  2  0  0  0  0  0  0  0  0  0
    8.4696  -15.5560   22.1454 N   0  0  0  0  0  0  0  0  0  0  0  0
    8.5361  -15.0633   24.4490 C   0  0  0  0  0  0  0  0  0  0  0  0
    9.6821  -14.5785   24.3059 O   0  0  0  0  0  0  0  0  0  0  0  0
    5.9143  -13.0814   27.1487 C   0  0  0  0  0  0  0  0  0  0  0  0
    7.2433  -12.5763   26.6982 C   0  0  2  0  0  0  0  0  0  0  0  0
    7.0811  -11.7788   25.4003 C   0  0  0  0  0  0  0  0  0  0  0  0
    8.2561  -13.6677   26.4552 C   0  0  2  0  0  0  0  0  0  0  0  0
    7.7642  -14.6929   25.5742 N   0  0  0  0  0  0  0  0  0  0  0  0
    8.6690  -14.2791   27.7379 C   0  0  0  0  0  0  0  0  0  0  0  0
    9.3966  -13.5638   28.6821 O   0  0  0  0  0  0  0  0  0  0  0  0
    8.3705  -15.4719   28.0115 O   0  0  0  0  0  0  0  0  0  0  0  0
  2  1  1  0
  3  4  1  0
  3  2  1  0
  5  4  1  0
  5  6  1  6
  7  8  2  0
  7  5  1  0
 10 12  1  0
 10  9  1  6
 11 10  1  0
 12 13  1  6
 13  7  1  0
 14 12  1  0
 15 14  2  0
 17 16  1  6
 17 19  1  0
 18 17  1  0
 19 21  1  0
 19 20  1  6
 20 14  1  0
 21 22  1  0
 23 21  2  0
M  END
$$$$
