MTV.pdb
     RDKit          3D

 23 22  0  0  1  0  0  0  0  0999 V2000
    6.4381  -12.6181   20.2761 C   0  0  0  0  0  0  0  0  0  0  0  0
    8.1727  -12.5759   19.8602 S   0  0  0  0  0  0  0  0  0  0  0  0
    9.1098  -14.0350   20.2528 C   0  0  0  0  0  0  0  0  0  0  0  0
    8.8284  -15.1827   19.3538 C   0  0  0  0  0  0  0  0  0  0  0  0
    9.4724  -16.4763   19.7139 C   0  0  2  0  0  0  0  0  0  0  0  0
    9.0444  -17.5018   18.7782 N   0  0  0  0  0  0  0  0  0  0  0  0
    8.9771  -16.8455   21.0899 C   0  0  0  0  0  0  0  0  0  0  0  0
    8.0256  -17.6695   21.2190 O   0  0  0  0  0  0  0  0  0  0  0  0
    8.7280  -19.0989   22.5265 C   0  0  0  0  0  0  0  0  0  0  0  0
    9.4187  -18.2974   23.5623 C   0  0  1  0  0  0  0  0  0  0  0  0
   10.8056  -18.3800   23.2740 O   0  0  0  0  0  0  0  0  0  0  0  0
    9.1083  -16.8223   23.5767 C   0  0  2  0  0  0  0  0  0  0  0  0
    9.5426  -16.2973   22.2672 N   0  0  0  0  0  0  0  0  0  0  0  0
    9.8277  -16.0493   24.5933 C   0  0  0  0  0  0  0  0  0  0  0  0
   10.9918  -15.6371   24.3835 O   0  0  0  0  0  0  0  0  0  0  0  0
    8.4343  -12.9079   26.1334 C   0  0  0  0  0  0  0  0  0  0  0  0
    8.9626  -13.7647   27.2338 C   0  0  2  0  0  0  0  0  0  0  0  0
    9.7539  -12.9052   28.2247 C   0  0  0  0  0  0  0  0  0  0  0  0
    9.8612  -14.8787   26.7566 C   0  0  2  0  0  0  0  0  0  0  0  0
    9.2043  -15.7606   25.8292 N   0  0  0  0  0  0  0  0  0  0  0  0
   10.3627  -15.6618   27.9077 C   0  0  0  0  0  0  0  0  0  0  0  0
   11.5002  -15.2761   28.6075 O   0  0  0  0  0  0  0  0  0  0  0  0
    9.7691  -16.7057   28.2874 O   0  0  0  0  0  0  0  0  0  0  0  0
  2  1  1  0
  3  4  1  0
  3  2  1  0
  5  4  1  0
  5  6  1  6
  7  8  2  0
  7  5  1  0
 10 12  1  0
 10  9  1  6
 11 10  1  0
 12 13  1  6
 13  7  1  0
 14 12  1  0
 15 14  2  0
 17 16  1  6
 17 19  1  0
 18 17  1  0
 19 21  1  0
 19 20  1  6
 20 14  1  0
 21 22  1  0
 23 21  2  0
M  END
$$$$
