MTV.pdb
     RDKit          3D

 23 22  0  0  1  0  0  0  0  0999 V2000
    7.5764  -11.4685   19.9667 C   0  0  0  0  0  0  0  0  0  0  0  0
    8.7974  -12.5697   19.2738 S   0  0  0  0  0  0  0  0  0  0  0  0
    8.1877  -14.1072   18.6216 C   0  0  0  0  0  0  0  0  0  0  0  0
    8.0709  -15.1811   19.6403 C   0  0  0  0  0  0  0  0  0  0  0  0
    9.2968  -15.4743   20.4335 C   0  0  2  0  0  0  0  0  0  0  0  0
    9.9081  -16.6952   19.9377 N   0  0  0  0  0  0  0  0  0  0  0  0
    8.8544  -15.7032   21.8572 C   0  0  0  0  0  0  0  0  0  0  0  0
    7.9314  -14.9942   22.3538 O   0  0  0  0  0  0  0  0  0  0  0  0
    7.9600  -19.1613   23.4334 C   0  0  0  0  0  0  0  0  0  0  0  0
    8.8944  -18.3822   24.2773 C   0  0  1  0  0  0  0  0  0  0  0  0
   10.2003  -18.8263   23.9441 O   0  0  0  0  0  0  0  0  0  0  0  0
    8.9153  -16.8930   24.0441 C   0  0  2  0  0  0  0  0  0  0  0  0
    9.4405  -16.6973   22.6785 N   0  0  0  0  0  0  0  0  0  0  0  0
    9.7971  -16.1394   24.9402 C   0  0  0  0  0  0  0  0  0  0  0  0
   10.9875  -15.9082   24.6262 O   0  0  0  0  0  0  0  0  0  0  0  0
    8.3498  -13.7244   28.2138 C   0  0  0  0  0  0  0  0  0  0  0  0
    9.6696  -13.6468   27.5237 C   0  0  2  0  0  0  0  0  0  0  0  0
    9.5575  -12.7425   26.2923 C   0  0  0  0  0  0  0  0  0  0  0  0
   10.1992  -14.9866   27.0757 C   0  0  2  0  0  0  0  0  0  0  0  0
    9.3032  -15.6632   26.1765 N   0  0  0  0  0  0  0  0  0  0  0  0
   10.4647  -15.8508   28.2471 C   0  0  0  0  0  0  0  0  0  0  0  0
   11.4576  -15.5393   29.1689 O   0  0  0  0  0  0  0  0  0  0  0  0
    9.7942  -16.8990   28.4426 O   0  0  0  0  0  0  0  0  0  0  0  0
  2  1  1  0
  3  4  1  0
  3  2  1  0
  5  4  1  0
  5  6  1  6
  7  8  2  0
  7  5  1  0
 10 12  1  0
 10  9  1  6
 11 10  1  0
 12 13  1  6
 13  7  1  0
 14 12  1  0
 15 14  2  0
 17 16  1  6
 17 19  1  0
 18 17  1  0
 19 21  1  0
 19 20  1  6
 20 14  1  0
 21 22  1  0
 23 21  2  0
M  END
$$$$
