MTV.pdb
     RDKit          3D

 23 22  0  0  1  0  0  0  0  0999 V2000
    7.9430  -11.6480   20.3372 C   0  0  0  0  0  0  0  0  0  0  0  0
    8.0545  -12.6482   18.8640 S   0  0  0  0  0  0  0  0  0  0  0  0
    7.9321  -14.4065   19.0978 C   0  0  0  0  0  0  0  0  0  0  0  0
    7.5653  -14.7986   20.4821 C   0  0  0  0  0  0  0  0  0  0  0  0
    7.4238  -16.2587   20.7388 C   0  0  2  0  0  0  0  0  0  0  0  0
    6.2919  -16.7705   19.9858 N   0  0  0  0  0  0  0  0  0  0  0  0
    7.1335  -16.4199   22.2101 C   0  0  0  0  0  0  0  0  0  0  0  0
    5.9700  -16.1938   22.6531 O   0  0  0  0  0  0  0  0  0  0  0  0
    6.5092  -19.1021   24.0079 C   0  0  0  0  0  0  0  0  0  0  0  0
    7.5756  -18.4430   24.7957 C   0  0  1  0  0  0  0  0  0  0  0  0
    8.7986  -19.0377   24.3906 O   0  0  0  0  0  0  0  0  0  0  0  0
    7.7601  -16.9659   24.5577 C   0  0  2  0  0  0  0  0  0  0  0  0
    8.1281  -16.8207   23.1356 N   0  0  0  0  0  0  0  0  0  0  0  0
    8.8393  -16.3453   25.3315 C   0  0  0  0  0  0  0  0  0  0  0  0
    9.9197  -16.0241   24.7851 O   0  0  0  0  0  0  0  0  0  0  0  0
    8.4927  -13.1652   27.2128 C   0  0  0  0  0  0  0  0  0  0  0  0
    9.1224  -14.1555   28.1331 C   0  0  2  0  0  0  0  0  0  0  0  0
   10.2665  -13.4904   28.9049 C   0  0  0  0  0  0  0  0  0  0  0  0
    9.6746  -15.3708   27.4300 C   0  0  2  0  0  0  0  0  0  0  0  0
    8.6642  -16.1020   26.7133 N   0  0  0  0  0  0  0  0  0  0  0  0
   10.3348  -16.2699   28.4022 C   0  0  0  0  0  0  0  0  0  0  0  0
   11.6152  -16.0105   28.8775 O   0  0  0  0  0  0  0  0  0  0  0  0
    9.7513  -17.3015   28.8286 O   0  0  0  0  0  0  0  0  0  0  0  0
  2  1  1  0
  3  4  1  0
  3  2  1  0
  5  4  1  0
  5  6  1  6
  7  8  2  0
  7  5  1  0
 10 12  1  0
 10  9  1  6
 11 10  1  0
 12 13  1  6
 13  7  1  0
 14 12  1  0
 15 14  2  0
 17 16  1  6
 17 19  1  0
 18 17  1  0
 19 21  1  0
 19 20  1  1
 20 14  1  0
 21 22  1  0
 23 21  2  0
M  END
$$$$
