MTV.pdb
     RDKit          3D

 23 22  0  0  1  0  0  0  0  0999 V2000
    8.0849  -11.8046   19.0987 C   0  0  0  0  0  0  0  0  0  0  0  0
    8.5184  -12.9649   17.8145 S   0  0  0  0  0  0  0  0  0  0  0  0
    8.6854  -14.6629   18.3143 C   0  0  0  0  0  0  0  0  0  0  0  0
    7.9938  -14.9785   19.5897 C   0  0  0  0  0  0  0  0  0  0  0  0
    8.0917  -16.3874   20.0623 C   0  0  2  0  0  0  0  0  0  0  0  0
    7.3416  -17.2478   19.1639 N   0  0  0  0  0  0  0  0  0  0  0  0
    7.4477  -16.4392   21.4252 C   0  0  0  0  0  0  0  0  0  0  0  0
    6.2034  -16.6438   21.5288 O   0  0  0  0  0  0  0  0  0  0  0  0
    6.7355  -18.6514   23.5908 C   0  0  0  0  0  0  0  0  0  0  0  0
    7.4781  -17.6675   24.4109 C   0  0  1  0  0  0  0  0  0  0  0  0
    8.8395  -18.0664   24.3800 O   0  0  0  0  0  0  0  0  0  0  0  0
    7.4743  -16.2464   23.9080 C   0  0  2  0  0  0  0  0  0  0  0  0
    8.1916  -16.2642   22.6180 N   0  0  0  0  0  0  0  0  0  0  0  0
    8.1799  -15.2867   24.7622 C   0  0  0  0  0  0  0  0  0  0  0  0
    9.3835  -15.0070   24.5573 O   0  0  0  0  0  0  0  0  0  0  0  0
    6.0636  -12.8063   27.5889 C   0  0  0  0  0  0  0  0  0  0  0  0
    7.3982  -12.5063   26.9948 C   0  0  2  0  0  0  0  0  0  0  0  0
    7.2209  -11.7006   25.7039 C   0  0  0  0  0  0  0  0  0  0  0  0
    8.2089  -13.7372   26.6725 C   0  0  2  0  0  0  0  0  0  0  0  0
    7.4979  -14.6637   25.8328 N   0  0  0  0  0  0  0  0  0  0  0  0
    8.6212  -14.4204   27.9186 C   0  0  0  0  0  0  0  0  0  0  0  0
    9.5186  -13.8354   28.8045 O   0  0  0  0  0  0  0  0  0  0  0  0
    8.1675  -15.5580   28.2128 O   0  0  0  0  0  0  0  0  0  0  0  0
  2  1  1  0
  3  4  1  0
  3  2  1  0
  5  4  1  0
  5  6  1  6
  7  8  2  0
  7  5  1  0
 10 12  1  0
 10  9  1  6
 11 10  1  0
 12 13  1  6
 13  7  1  0
 14 12  1  0
 15 14  2  0
 17 16  1  6
 17 19  1  0
 18 17  1  0
 19 21  1  0
 19 20  1  6
 20 14  1  0
 21 22  1  0
 23 21  2  0
M  END
$$$$
