MTV.pdb
     RDKit          3D

 23 22  0  0  1  0  0  0  0  0999 V2000
    8.9255  -11.7374   16.8394 C   0  0  0  0  0  0  0  0  0  0  0  0
    8.2327  -12.5042   18.2939 S   0  0  0  0  0  0  0  0  0  0  0  0
    8.6250  -14.2210   18.5386 C   0  0  0  0  0  0  0  0  0  0  0  0
    8.0409  -14.7941   19.7775 C   0  0  0  0  0  0  0  0  0  0  0  0
    8.2431  -16.2545   19.9881 C   0  0  2  0  0  0  0  0  0  0  0  0
    7.4941  -16.9918   18.9853 N   0  0  0  0  0  0  0  0  0  0  0  0
    7.6785  -16.5845   21.3473 C   0  0  0  0  0  0  0  0  0  0  0  0
    6.6944  -17.3734   21.4482 O   0  0  0  0  0  0  0  0  0  0  0  0
    7.4303  -18.8358   22.8820 C   0  0  0  0  0  0  0  0  0  0  0  0
    8.0153  -17.9670   23.9285 C   0  0  1  0  0  0  0  0  0  0  0  0
    9.4232  -18.0361   23.7657 O   0  0  0  0  0  0  0  0  0  0  0  0
    7.6815  -16.4998   23.8362 C   0  0  2  0  0  0  0  0  0  0  0  0
    8.2133  -16.0372   22.5393 N   0  0  0  0  0  0  0  0  0  0  0  0
    8.3027  -15.6588   24.8636 C   0  0  0  0  0  0  0  0  0  0  0  0
    9.5100  -15.3347   24.7857 O   0  0  0  0  0  0  0  0  0  0  0  0
    5.9538  -12.7207   26.1565 C   0  0  0  0  0  0  0  0  0  0  0  0
    6.8643  -13.2148   27.2295 C   0  0  2  0  0  0  0  0  0  0  0  0
    7.4694  -12.0261   27.9829 C   0  0  0  0  0  0  0  0  0  0  0  0
    7.9958  -14.0715   26.7176 C   0  0  2  0  0  0  0  0  0  0  0  0
    7.5337  -15.2031   25.9592 N   0  0  0  0  0  0  0  0  0  0  0  0
    8.8318  -14.5433   27.8436 C   0  0  0  0  0  0  0  0  0  0  0  0
    9.8169  -13.7380   28.4036 O   0  0  0  0  0  0  0  0  0  0  0  0
    8.6728  -15.6947   28.3289 O   0  0  0  0  0  0  0  0  0  0  0  0
  2  1  1  0
  3  4  1  0
  3  2  1  0
  5  4  1  0
  5  6  1  6
  7  8  2  0
  7  5  1  0
 10 12  1  0
 10  9  1  6
 11 10  1  0
 12 13  1  6
 13  7  1  0
 14 12  1  0
 15 14  2  0
 17 16  1  6
 17 19  1  0
 18 17  1  0
 19 21  1  0
 19 20  1  1
 20 14  1  0
 21 22  1  0
 23 21  2  0
M  END
$$$$
