HMF.pdb
     RDKit          3D

 30 31  0  0  1  0  0  0  0  0999 V2000
   29.3915  -29.2258  -20.1625 N   0  0  0  0  0  0  0  0  0  0  0  0
   28.4206  -28.3040  -19.5944 C   0  0  1  0  0  0  0  0  0  0  0  0
   28.2215  -27.1060  -20.4661 C   0  0  0  0  0  0  0  0  0  0  0  0
   29.4245  -26.2787  -20.6862 C   0  0  0  0  0  0  0  0  0  0  0  0
   30.0814  -25.6135  -19.6893 C   0  0  0  0  0  0  0  0  0  0  0  0
   31.1160  -24.9643  -20.2483 N   0  0  0  0  0  0  0  0  0  0  0  0
   31.0921  -25.2235  -21.5516 C   0  0  0  0  0  0  0  0  0  0  0  0
   30.0645  -26.0266  -21.8273 N   0  0  0  0  0  0  0  0  0  0  0  0
   27.1900  -28.9919  -19.1737 C   0  0  0  0  0  0  0  0  0  0  0  0
   26.4957  -29.5534  -20.0578 O   0  0  0  0  0  0  0  0  0  0  0  0
   27.8505  -32.6763  -14.6630 C   0  0  0  0  0  0  0  0  0  0  0  0
   28.2472  -32.1258  -16.3558 S   0  0  0  0  0  0  0  0  0  0  0  0
   26.7054  -32.0191  -17.3529 C   0  0  0  0  0  0  0  0  0  0  0  0
   25.7360  -31.0661  -16.7146 C   0  0  0  0  0  0  0  0  0  0  0  0
   25.5446  -29.7913  -17.4433 C   0  0  2  0  0  0  0  0  0  0  0  0
   26.7343  -29.0672  -17.8319 N   0  0  0  0  0  0  0  0  0  0  0  0
   24.5542  -28.9458  -16.7972 C   0  0  0  0  0  0  0  0  0  0  0  0
   24.8870  -27.8800  -16.2515 O   0  0  0  0  0  0  0  0  0  0  0  0
   23.1588  -29.2671  -16.7308 N   0  0  0  0  0  0  0  0  0  0  0  0
   22.2311  -28.3819  -16.1183 C   0  0  1  0  0  0  0  0  0  0  0  0
   21.8028  -27.2313  -16.9373 C   0  0  0  0  0  0  0  0  0  0  0  0
   21.3443  -27.5495  -18.3086 C   0  0  0  0  0  0  0  0  0  0  0  0
   20.0071  -27.9377  -18.4762 C   0  0  0  0  0  0  0  0  0  0  0  0
   19.4855  -28.2554  -19.7209 C   0  0  0  0  0  0  0  0  0  0  0  0
   20.2897  -28.1980  -20.8376 C   0  0  0  0  0  0  0  0  0  0  0  0
   21.6008  -27.8213  -20.6936 C   0  0  0  0  0  0  0  0  0  0  0  0
   22.1115  -27.5038  -19.4486 C   0  0  0  0  0  0  0  0  0  0  0  0
   20.9300  -29.1182  -15.7971 C   0  0  0  0  0  0  0  0  0  0  0  0
   20.7091  -30.3781  -16.2564 O   0  0  0  0  0  0  0  0  0  0  0  0
   20.1196  -28.4978  -15.1034 O   0  0  0  0  0  0  0  0  0  0  0  0
  2  1  1  6
  2  9  1  0
  3  2  1  0
  3  4  1  0
  4  5  2  0
  4  8  1  0
  5  6  1  0
  6  7  1  0
  8  7  2  0
  9 10  2  0
 11 12  1  0
 13 12  1  0
 13 14  1  0
 15 14  1  1
 15 17  1  0
 16  9  1  0
 16 15  1  0
 17 18  2  0
 19 20  1  0
 19 17  1  0
 20 21  1  6
 21 22  1  0
 22 23  2  0
 23 24  1  0
 25 24  2  0
 26 25  1  0
 27 26  2  0
 27 22  1  0
 28 20  1  0
 28 29  1  0
 30 28  2  0
M  END
$$$$
