HMF.pdb
     RDKit          3D

 30 31  0  0  1  0  0  0  0  0999 V2000
   15.3354  -20.1599    1.6331 N   0  0  0  0  0  0  0  0  0  0  0  0
   15.5511  -19.5476    2.9345 C   0  0  1  0  0  0  0  0  0  0  0  0
   14.3224  -19.6095    3.7838 C   0  0  0  0  0  0  0  0  0  0  0  0
   13.3380  -18.5345    3.5488 C   0  0  0  0  0  0  0  0  0  0  0  0
   12.1585  -18.7172    2.8831 C   0  0  0  0  0  0  0  0  0  0  0  0
   11.5232  -17.5341    2.8515 N   0  0  0  0  0  0  0  0  0  0  0  0
   12.2932  -16.6512    3.4791 C   0  0  0  0  0  0  0  0  0  0  0  0
   13.4017  -17.2535    3.9098 N   0  0  0  0  0  0  0  0  0  0  0  0
   16.7858  -20.0312    3.5719 C   0  0  0  0  0  0  0  0  0  0  0  0
   17.2740  -21.1157    3.1663 O   0  0  0  0  0  0  0  0  0  0  0  0
   21.1699  -17.8716    8.9877 C   0  0  0  0  0  0  0  0  0  0  0  0
   21.7995  -18.1092    7.2926 S   0  0  0  0  0  0  0  0  0  0  0  0
   20.8337  -19.4278    6.4492 C   0  0  0  0  0  0  0  0  0  0  0  0
   19.5748  -18.8577    5.8613 C   0  0  0  0  0  0  0  0  0  0  0  0
   18.6838  -19.8493    5.2165 C   0  0  2  0  0  0  0  0  0  0  0  0
   17.4668  -19.3516    4.6151 N   0  0  0  0  0  0  0  0  0  0  0  0
   18.4612  -21.0062    6.0681 C   0  0  0  0  0  0  0  0  0  0  0  0
   17.4621  -21.0707    6.8045 O   0  0  0  0  0  0  0  0  0  0  0  0
   19.3525  -22.1270    6.1327 N   0  0  0  0  0  0  0  0  0  0  0  0
   19.0805  -23.2318    6.9841 C   0  0  1  0  0  0  0  0  0  0  0  0
   18.5883  -24.4526    6.3164 C   0  0  0  0  0  0  0  0  0  0  0  0
   19.1981  -24.7610    5.0030 C   0  0  0  0  0  0  0  0  0  0  0  0
   18.3513  -24.8134    3.8864 C   0  0  0  0  0  0  0  0  0  0  0  0
   18.8288  -25.0947    2.6155 C   0  0  0  0  0  0  0  0  0  0  0  0
   20.1712  -25.3367    2.4243 C   0  0  0  0  0  0  0  0  0  0  0  0
   21.0152  -25.2908    3.5046 C   0  0  0  0  0  0  0  0  0  0  0  0
   20.5302  -25.0071    4.7679 C   0  0  0  0  0  0  0  0  0  0  0  0
   20.3589  -23.6815    7.6923 C   0  0  0  0  0  0  0  0  0  0  0  0
   20.3166  -24.6009    8.6922 O   0  0  0  0  0  0  0  0  0  0  0  0
   21.4046  -23.1618    7.2930 O   0  0  0  0  0  0  0  0  0  0  0  0
  2  1  1  6
  2  9  1  0
  3  2  1  0
  3  4  1  0
  4  5  2  0
  4  8  1  0
  5  6  1  0
  6  7  1  0
  8  7  2  0
  9 10  2  0
 11 12  1  0
 13 12  1  0
 13 14  1  0
 15 14  1  1
 15 17  1  0
 16  9  1  0
 16 15  1  0
 17 18  2  0
 19 20  1  0
 19 17  1  0
 20 21  1  6
 21 22  1  0
 22 23  2  0
 23 24  1  0
 25 24  2  0
 26 25  1  0
 27 26  2  0
 27 22  1  0
 28 20  1  0
 28 29  1  0
 30 28  2  0
M  END
$$$$
