HMF.pdb
     RDKit          3D

 30 31  0  0  1  0  0  0  0  0999 V2000
   27.7671  -21.5667  -15.6645 N   0  0  0  0  0  0  0  0  0  0  0  0
   27.5103  -20.5084  -14.7006 C   0  0  1  0  0  0  0  0  0  0  0  0
   26.8818  -19.3152  -15.3457 C   0  0  0  0  0  0  0  0  0  0  0  0
   27.6955  -18.6600  -16.3890 C   0  0  0  0  0  0  0  0  0  0  0  0
   28.6573  -17.7251  -16.1264 C   0  0  0  0  0  0  0  0  0  0  0  0
   29.1847  -17.3447  -17.3018 N   0  0  0  0  0  0  0  0  0  0  0  0
   28.5618  -18.0266  -18.2576 C   0  0  0  0  0  0  0  0  0  0  0  0
   27.6531  -18.8332  -17.7094 N   0  0  0  0  0  0  0  0  0  0  0  0
   26.8258  -21.0124  -13.4998 C   0  0  0  0  0  0  0  0  0  0  0  0
   25.9161  -21.8657  -13.6531 O   0  0  0  0  0  0  0  0  0  0  0  0
   25.4366  -20.7891   -5.6151 C   0  0  0  0  0  0  0  0  0  0  0  0
   26.5892  -20.3712   -6.9653 S   0  0  0  0  0  0  0  0  0  0  0  0
   25.7834  -20.6806   -8.5895 C   0  0  0  0  0  0  0  0  0  0  0  0
   26.7864  -20.5612   -9.7008 C   0  0  0  0  0  0  0  0  0  0  0  0
   26.2620  -20.8755  -11.0495 C   0  0  2  0  0  0  0  0  0  0  0  0
   27.1268  -20.6012  -12.1753 N   0  0  0  0  0  0  0  0  0  0  0  0
   24.9137  -20.3646  -11.2349 C   0  0  0  0  0  0  0  0  0  0  0  0
   24.7182  -19.1640  -11.4895 O   0  0  0  0  0  0  0  0  0  0  0  0
   23.7367  -21.1765  -11.1330 N   0  0  0  0  0  0  0  0  0  0  0  0
   22.4726  -20.6925  -11.5657 C   0  0  1  0  0  0  0  0  0  0  0  0
   21.8502  -21.4283  -12.6835 C   0  0  0  0  0  0  0  0  0  0  0  0
   20.5446  -20.9096  -13.1508 C   0  0  0  0  0  0  0  0  0  0  0  0
   19.4042  -21.6838  -12.8919 C   0  0  0  0  0  0  0  0  0  0  0  0
   18.1384  -21.2821  -13.2901 C   0  0  0  0  0  0  0  0  0  0  0  0
   17.9760  -20.0923  -13.9648 C   0  0  0  0  0  0  0  0  0  0  0  0
   19.0798  -19.3216  -14.2280 C   0  0  0  0  0  0  0  0  0  0  0  0
   20.3380  -19.7292  -13.8248 C   0  0  0  0  0  0  0  0  0  0  0  0
   21.4503  -20.7964  -10.4333 C   0  0  0  0  0  0  0  0  0  0  0  0
   20.4685  -19.8675  -10.2916 O   0  0  0  0  0  0  0  0  0  0  0  0
   21.5802  -21.7658   -9.6806 O   0  0  0  0  0  0  0  0  0  0  0  0
  2  1  1  6
  2  9  1  0
  3  2  1  0
  3  4  1  0
  4  5  2  0
  4  8  1  0
  5  6  1  0
  6  7  1  0
  8  7  2  0
  9 10  2  0
 11 12  1  0
 13 12  1  0
 13 14  1  0
 15 14  1  1
 15 17  1  0
 16  9  1  0
 16 15  1  0
 17 18  2  0
 19 20  1  0
 19 17  1  0
 20 21  1  6
 21 22  1  0
 22 23  2  0
 23 24  1  0
 25 24  2  0
 26 25  1  0
 27 26  2  0
 27 22  1  0
 28 20  1  0
 28 29  1  0
 30 28  2  0
M  END
$$$$
