HMF.pdb
     RDKit          3D

 30 31  0  0  1  0  0  0  0  0999 V2000
   27.8941  -21.3594  -14.8836 N   0  0  0  0  0  0  0  0  0  0  0  0
   27.5567  -20.3043  -13.9414 C   0  0  1  0  0  0  0  0  0  0  0  0
   27.0040  -19.1010  -14.6351 C   0  0  0  0  0  0  0  0  0  0  0  0
   27.8935  -18.4891  -15.6422 C   0  0  0  0  0  0  0  0  0  0  0  0
   29.1387  -18.0016  -15.3596 C   0  0  0  0  0  0  0  0  0  0  0  0
   29.6537  -17.5180  -16.5020 N   0  0  0  0  0  0  0  0  0  0  0  0
   28.7483  -17.7026  -17.4572 C   0  0  0  0  0  0  0  0  0  0  0  0
   27.6719  -18.2966  -16.9419 N   0  0  0  0  0  0  0  0  0  0  0  0
   26.7559  -20.8085  -12.8147 C   0  0  0  0  0  0  0  0  0  0  0  0
   25.9352  -21.7328  -13.0407 O   0  0  0  0  0  0  0  0  0  0  0  0
   26.7980  -19.1415   -6.3551 C   0  0  0  0  0  0  0  0  0  0  0  0
   27.9252  -20.4976   -6.8204 S   0  0  0  0  0  0  0  0  0  0  0  0
   27.5218  -21.0885   -8.5148 C   0  0  0  0  0  0  0  0  0  0  0  0
   26.3154  -20.3683   -9.0452 C   0  0  0  0  0  0  0  0  0  0  0  0
   25.9407  -20.7201  -10.4340 C   0  0  2  0  0  0  0  0  0  0  0  0
   26.8505  -20.3222  -11.4849 N   0  0  0  0  0  0  0  0  0  0  0  0
   24.5585  -20.3742  -10.7222 C   0  0  0  0  0  0  0  0  0  0  0  0
   24.2525  -19.2247  -11.0821 O   0  0  0  0  0  0  0  0  0  0  0  0
   23.4692  -21.2991  -10.6092 N   0  0  0  0  0  0  0  0  0  0  0  0
   22.1366  -20.9015  -10.9015 C   0  0  1  0  0  0  0  0  0  0  0  0
   21.6184  -21.3094  -12.2219 C   0  0  0  0  0  0  0  0  0  0  0  0
   21.9178  -20.3920  -13.3448 C   0  0  0  0  0  0  0  0  0  0  0  0
   21.0933  -19.2694  -13.5080 C   0  0  0  0  0  0  0  0  0  0  0  0
   21.2940  -18.3535  -14.5293 C   0  0  0  0  0  0  0  0  0  0  0  0
   22.3261  -18.5365  -15.4228 C   0  0  0  0  0  0  0  0  0  0  0  0
   23.1428  -19.6292  -15.2800 C   0  0  0  0  0  0  0  0  0  0  0  0
   22.9365  -20.5360  -14.2568 C   0  0  0  0  0  0  0  0  0  0  0  0
   21.1646  -21.5351   -9.9055 C   0  0  0  0  0  0  0  0  0  0  0  0
   19.8397  -21.2338   -9.9349 O   0  0  0  0  0  0  0  0  0  0  0  0
   21.6628  -22.3234   -9.0973 O   0  0  0  0  0  0  0  0  0  0  0  0
  2  1  1  6
  2  9  1  0
  3  2  1  0
  3  4  1  0
  4  5  2  0
  4  8  1  0
  5  6  1  0
  6  7  1  0
  8  7  2  0
  9 10  2  0
 11 12  1  0
 13 12  1  0
 13 14  1  0
 15 14  1  1
 15 17  1  0
 16  9  1  0
 16 15  1  0
 17 18  2  0
 19 20  1  0
 19 17  1  0
 20 21  1  6
 21 22  1  0
 22 23  2  0
 23 24  1  0
 25 24  2  0
 26 25  1  0
 27 26  2  0
 27 22  1  0
 28 20  1  0
 28 29  1  0
 30 28  2  0
M  END
$$$$
