HMF.pdb
     RDKit          3D

 30 31  0  0  1  0  0  0  0  0999 V2000
   21.2487  -12.2817  -19.1999 N   0  0  0  0  0  0  0  0  0  0  0  0
   20.4085  -11.3225  -18.5005 C   0  0  1  0  0  0  0  0  0  0  0  0
   19.9238  -11.8633  -17.1939 C   0  0  0  0  0  0  0  0  0  0  0  0
   19.1388  -13.1108  -17.2795 C   0  0  0  0  0  0  0  0  0  0  0  0
   17.7853  -13.1450  -17.4663 C   0  0  0  0  0  0  0  0  0  0  0  0
   17.4113  -14.4350  -17.4874 N   0  0  0  0  0  0  0  0  0  0  0  0
   18.5053  -15.1701  -17.3165 C   0  0  0  0  0  0  0  0  0  0  0  0
   19.5643  -14.3704  -17.1910 N   0  0  0  0  0  0  0  0  0  0  0  0
   21.0272   -9.9888  -18.4428 C   0  0  0  0  0  0  0  0  0  0  0  0
   22.2632   -9.9202  -18.2266 O   0  0  0  0  0  0  0  0  0  0  0  0
   21.9505   -2.7311  -21.2457 C   0  0  0  0  0  0  0  0  0  0  0  0
   20.9965   -4.2855  -21.2489 S   0  0  0  0  0  0  0  0  0  0  0  0
   21.5113   -5.3346  -19.8286 C   0  0  0  0  0  0  0  0  0  0  0  0
   20.7111   -6.6051  -19.8012 C   0  0  0  0  0  0  0  0  0  0  0  0
   20.9694   -7.4787  -18.6338 C   0  0  2  0  0  0  0  0  0  0  0  0
   20.3206   -8.7708  -18.6189 N   0  0  0  0  0  0  0  0  0  0  0  0
   20.8226   -6.7582  -17.3798 C   0  0  0  0  0  0  0  0  0  0  0  0
   19.7097   -6.6446  -16.8384 O   0  0  0  0  0  0  0  0  0  0  0  0
   21.9134   -6.1319  -16.6923 N   0  0  0  0  0  0  0  0  0  0  0  0
   21.7129   -5.4641  -15.4541 C   0  0  1  0  0  0  0  0  0  0  0  0
   22.1145   -6.2124  -14.2470 C   0  0  0  0  0  0  0  0  0  0  0  0
   22.2785   -7.6739  -14.4179 C   0  0  0  0  0  0  0  0  0  0  0  0
   23.5040   -8.1394  -14.9160 C   0  0  0  0  0  0  0  0  0  0  0  0
   23.7521   -9.4895  -15.1105 C   0  0  0  0  0  0  0  0  0  0  0  0
   22.7771  -10.4164  -14.8154 C   0  0  0  0  0  0  0  0  0  0  0  0
   21.5714   -9.9803  -14.3280 C   0  0  0  0  0  0  0  0  0  0  0  0
   21.3339   -8.6319  -14.1349 C   0  0  0  0  0  0  0  0  0  0  0  0
   22.5521   -4.1870  -15.3997 C   0  0  0  0  0  0  0  0  0  0  0  0
   23.4370   -3.8904  -16.3876 O   0  0  0  0  0  0  0  0  0  0  0  0
   22.3653   -3.4637  -14.4173 O   0  0  0  0  0  0  0  0  0  0  0  0
  2  1  1  1
  2  9  1  0
  3  2  1  0
  3  4  1  0
  4  5  2  0
  4  8  1  0
  5  6  1  0
  6  7  1  0
  8  7  2  0
  9 10  2  0
 11 12  1  0
 13 12  1  0
 13 14  1  0
 15 14  1  6
 15 17  1  0
 16  9  1  0
 16 15  1  0
 17 18  2  0
 19 20  1  0
 19 17  1  0
 20 21  1  1
 21 22  1  0
 22 23  2  0
 23 24  1  0
 25 24  2  0
 26 25  1  0
 27 26  2  0
 27 22  1  0
 28 20  1  0
 28 29  1  0
 30 28  2  0
M  END
$$$$
