HMF.pdb
     RDKit          3D

 30 31  0  0  1  0  0  0  0  0999 V2000
   28.8255  -20.9987  -18.1652 N   0  0  0  0  0  0  0  0  0  0  0  0
   27.4638  -20.7437  -17.7229 C   0  0  1  0  0  0  0  0  0  0  0  0
   26.4616  -21.4084  -18.6108 C   0  0  0  0  0  0  0  0  0  0  0  0
   26.5333  -21.0313  -20.0365 C   0  0  0  0  0  0  0  0  0  0  0  0
   26.1774  -19.8018  -20.5156 C   0  0  0  0  0  0  0  0  0  0  0  0
   26.3632  -19.8155  -21.8459 N   0  0  0  0  0  0  0  0  0  0  0  0
   26.8187  -21.0207  -22.1723 C   0  0  0  0  0  0  0  0  0  0  0  0
   26.9277  -21.7683  -21.0741 N   0  0  0  0  0  0  0  0  0  0  0  0
   27.2974  -20.9941  -16.2826 C   0  0  0  0  0  0  0  0  0  0  0  0
   26.3256  -21.7006  -15.9145 O   0  0  0  0  0  0  0  0  0  0  0  0
   30.7717  -21.7878  -10.4642 C   0  0  0  0  0  0  0  0  0  0  0  0
   29.0012  -21.7902  -10.9019 S   0  0  0  0  0  0  0  0  0  0  0  0
   28.5000  -20.1166  -11.4768 C   0  0  0  0  0  0  0  0  0  0  0  0
   28.8277  -19.9449  -12.9324 C   0  0  0  0  0  0  0  0  0  0  0  0
   27.8660  -20.5748  -13.8657 C   0  0  2  0  0  0  0  0  0  0  0  0
   28.1653  -20.4929  -15.2779 N   0  0  0  0  0  0  0  0  0  0  0  0
   26.4947  -20.2045  -13.5563 C   0  0  0  0  0  0  0  0  0  0  0  0
   26.0042  -19.1531  -14.0018 O   0  0  0  0  0  0  0  0  0  0  0  0
   25.6273  -20.9922  -12.7304 N   0  0  0  0  0  0  0  0  0  0  0  0
   24.3292  -20.5311  -12.3816 C   0  0  1  0  0  0  0  0  0  0  0  0
   23.2090  -21.1396  -13.1252 C   0  0  0  0  0  0  0  0  0  0  0  0
   21.8611  -20.6187  -12.8030 C   0  0  0  0  0  0  0  0  0  0  0  0
   21.0677  -21.3638  -11.9185 C   0  0  0  0  0  0  0  0  0  0  0  0
   19.7925  -20.9576  -11.5564 C   0  0  0  0  0  0  0  0  0  0  0  0
   19.2701  -19.7927  -12.0732 C   0  0  0  0  0  0  0  0  0  0  0  0
   20.0307  -19.0508  -12.9408 C   0  0  0  0  0  0  0  0  0  0  0  0
   21.3024  -19.4625  -13.2942 C   0  0  0  0  0  0  0  0  0  0  0  0
   24.0278  -20.8558  -10.9181 C   0  0  0  0  0  0  0  0  0  0  0  0
   24.4426  -22.0246  -10.3625 O   0  0  0  0  0  0  0  0  0  0  0  0
   23.3990  -19.9951  -10.2961 O   0  0  0  0  0  0  0  0  0  0  0  0
  2  1  1  6
  2  9  1  0
  3  2  1  0
  3  4  1  0
  4  5  2  0
  4  8  1  0
  5  6  1  0
  6  7  1  0
  8  7  2  0
  9 10  2  0
 11 12  1  0
 13 12  1  0
 13 14  1  0
 15 14  1  1
 15 17  1  0
 16  9  1  0
 16 15  1  0
 17 18  2  0
 19 20  1  0
 19 17  1  0
 20 21  1  6
 21 22  1  0
 22 23  2  0
 23 24  1  0
 25 24  2  0
 26 25  1  0
 27 26  2  0
 27 22  1  0
 28 20  1  0
 28 29  1  0
 30 28  2  0
M  END
$$$$
