HMF.pdb
     RDKit          3D

 30 31  0  0  1  0  0  0  0  0999 V2000
   15.1123  -18.1482    4.0429 N   0  0  0  0  0  0  0  0  0  0  0  0
   16.5087  -18.2250    4.4417 C   0  0  1  0  0  0  0  0  0  0  0  0
   17.4265  -17.9924    3.2850 C   0  0  0  0  0  0  0  0  0  0  0  0
   17.3320  -18.9840    2.1951 C   0  0  0  0  0  0  0  0  0  0  0  0
   16.4558  -20.0328    2.1966 C   0  0  0  0  0  0  0  0  0  0  0  0
   16.6504  -20.7255    1.0623 N   0  0  0  0  0  0  0  0  0  0  0  0
   17.6203  -20.1185    0.3859 C   0  0  0  0  0  0  0  0  0  0  0  0
   18.0405  -19.0536    1.0688 N   0  0  0  0  0  0  0  0  0  0  0  0
   16.7835  -17.4166    5.6400 C   0  0  0  0  0  0  0  0  0  0  0  0
   16.2999  -16.2581    5.6943 O   0  0  0  0  0  0  0  0  0  0  0  0
   14.3078  -20.3557   10.8382 C   0  0  0  0  0  0  0  0  0  0  0  0
   15.9763  -19.6282   10.7232 S   0  0  0  0  0  0  0  0  0  0  0  0
   16.0685  -18.5099    9.2659 C   0  0  0  0  0  0  0  0  0  0  0  0
   17.3916  -17.8001    9.2355 C   0  0  0  0  0  0  0  0  0  0  0  0
   17.6937  -17.0999    7.9663 C   0  0  2  0  0  0  0  0  0  0  0  0
   17.5578  -17.8597    6.7437 N   0  0  0  0  0  0  0  0  0  0  0  0
   18.9480  -16.3687    8.0406 C   0  0  0  0  0  0  0  0  0  0  0  0
   19.9760  -16.8133    7.5020 O   0  0  0  0  0  0  0  0  0  0  0  0
   19.0986  -15.1197    8.7276 N   0  0  0  0  0  0  0  0  0  0  0  0
   20.3474  -14.4418    8.7511 C   0  0  1  0  0  0  0  0  0  0  0  0
   20.3077  -13.0079    8.4038 C   0  0  0  0  0  0  0  0  0  0  0  0
   19.8644  -12.6886    7.0278 C   0  0  0  0  0  0  0  0  0  0  0  0
   18.5604  -13.0520    6.6612 C   0  0  0  0  0  0  0  0  0  0  0  0
   18.0552  -12.7954    5.3959 C   0  0  0  0  0  0  0  0  0  0  0  0
   18.8433  -12.1695    4.4556 C   0  0  0  0  0  0  0  0  0  0  0  0
   20.1220  -11.8072    4.7951 C   0  0  0  0  0  0  0  0  0  0  0  0
   20.6165  -12.0650    6.0604 C   0  0  0  0  0  0  0  0  0  0  0  0
   20.9383  -14.4697   10.1611 C   0  0  0  0  0  0  0  0  0  0  0  0
   22.2017  -14.0282   10.3975 O   0  0  0  0  0  0  0  0  0  0  0  0
   20.1971  -14.9085   11.0448 O   0  0  0  0  0  0  0  0  0  0  0  0
  2  1  1  6
  2  9  1  0
  3  2  1  0
  3  4  1  0
  4  5  2  0
  4  8  1  0
  5  6  1  0
  6  7  1  0
  8  7  2  0
  9 10  2  0
 11 12  1  0
 13 12  1  0
 13 14  1  0
 15 14  1  1
 15 17  1  0
 16  9  1  0
 16 15  1  0
 17 18  2  0
 19 20  1  0
 19 17  1  0
 20 21  1  1
 21 22  1  0
 22 23  2  0
 23 24  1  0
 25 24  2  0
 26 25  1  0
 27 26  2  0
 27 22  1  0
 28 20  1  0
 28 29  1  0
 30 28  2  0
M  END
$$$$
