HMF.pdb
     RDKit          3D

 30 31  0  0  1  0  0  0  0  0999 V2000
   13.1482  -17.6891    4.2199 N   0  0  0  0  0  0  0  0  0  0  0  0
   14.2730  -17.0614    4.8950 C   0  0  1  0  0  0  0  0  0  0  0  0
   13.9942  -16.8459    6.3477 C   0  0  0  0  0  0  0  0  0  0  0  0
   12.8787  -15.9260    6.6466 C   0  0  0  0  0  0  0  0  0  0  0  0
   11.7462  -16.2977    7.3154 C   0  0  0  0  0  0  0  0  0  0  0  0
   10.9527  -15.2173    7.4010 N   0  0  0  0  0  0  0  0  0  0  0  0
   11.5813  -14.2123    6.7998 C   0  0  0  0  0  0  0  0  0  0  0  0
   12.7582  -14.6353    6.3385 N   0  0  0  0  0  0  0  0  0  0  0  0
   15.5444  -17.7352    4.5879 C   0  0  0  0  0  0  0  0  0  0  0  0
   15.5482  -18.9904    4.5288 O   0  0  0  0  0  0  0  0  0  0  0  0
   20.6242  -15.3638    1.3225 C   0  0  0  0  0  0  0  0  0  0  0  0
   21.5042  -16.7341    2.1435 S   0  0  0  0  0  0  0  0  0  0  0  0
   20.3039  -17.7845    3.0594 C   0  0  0  0  0  0  0  0  0  0  0  0
   19.1027  -16.9768    3.4594 C   0  0  0  0  0  0  0  0  0  0  0  0
   18.0136  -17.7532    4.0949 C   0  0  2  0  0  0  0  0  0  0  0  0
   16.7702  -17.0609    4.3499 N   0  0  0  0  0  0  0  0  0  0  0  0
   18.4888  -18.5037    5.2457 C   0  0  0  0  0  0  0  0  0  0  0  0
   18.5820  -17.9649    6.3617 O   0  0  0  0  0  0  0  0  0  0  0  0
   18.8849  -19.8801    5.1867 N   0  0  0  0  0  0  0  0  0  0  0  0
   19.4250  -20.5369    6.3252 C   0  0  1  0  0  0  0  0  0  0  0  0
   18.7412  -21.7786    6.7363 C   0  0  0  0  0  0  0  0  0  0  0  0
   19.2894  -22.4509    7.9361 C   0  0  0  0  0  0  0  0  0  0  0  0
   19.2410  -21.7558    9.1532 C   0  0  0  0  0  0  0  0  0  0  0  0
   19.7291  -22.3021   10.3303 C   0  0  0  0  0  0  0  0  0  0  0  0
   20.2854  -23.5620   10.3239 C   0  0  0  0  0  0  0  0  0  0  0  0
   20.3425  -24.2572    9.1428 C   0  0  0  0  0  0  0  0  0  0  0  0
   19.8509  -23.7053    7.9742 C   0  0  0  0  0  0  0  0  0  0  0  0
   20.8640  -20.9750    6.0503 C   0  0  0  0  0  0  0  0  0  0  0  0
   21.2578  -21.3338    4.8000 O   0  0  0  0  0  0  0  0  0  0  0  0
   21.6208  -20.9734    7.0251 O   0  0  0  0  0  0  0  0  0  0  0  0
  2  1  1  1
  2  9  1  0
  3  2  1  0
  3  4  1  0
  4  5  2  0
  4  8  1  0
  5  6  1  0
  6  7  1  0
  8  7  2  0
  9 10  2  0
 11 12  1  0
 13 12  1  0
 13 14  1  0
 15 14  1  1
 15 17  1  0
 16  9  1  0
 16 15  1  0
 17 18  2  0
 19 20  1  0
 19 17  1  0
 20 21  1  6
 21 22  1  0
 22 23  2  0
 23 24  1  0
 25 24  2  0
 26 25  1  0
 27 26  2  0
 27 22  1  0
 28 20  1  0
 28 29  1  0
 30 28  2  0
M  END
$$$$
