HMF.pdb
     RDKit          3D

 30 31  0  0  1  0  0  0  0  0999 V2000
   28.9141  -29.2266  -15.7714 N   0  0  0  0  0  0  0  0  0  0  0  0
   28.9481  -28.2746  -16.8703 C   0  0  1  0  0  0  0  0  0  0  0  0
   28.6872  -28.9387  -18.1839 C   0  0  0  0  0  0  0  0  0  0  0  0
   29.6933  -29.9372  -18.5971 C   0  0  0  0  0  0  0  0  0  0  0  0
   30.9439  -30.0251  -18.0530 C   0  0  0  0  0  0  0  0  0  0  0  0
   31.5837  -31.0336  -18.6678 N   0  0  0  0  0  0  0  0  0  0  0  0
   30.7484  -31.5478  -19.5646 C   0  0  0  0  0  0  0  0  0  0  0  0
   29.5917  -30.8863  -19.5268 N   0  0  0  0  0  0  0  0  0  0  0  0
   28.1320  -27.0827  -16.5907 C   0  0  0  0  0  0  0  0  0  0  0  0
   27.1130  -27.2210  -15.8685 O   0  0  0  0  0  0  0  0  0  0  0  0
   31.7500  -24.2786  -17.1723 C   0  0  0  0  0  0  0  0  0  0  0  0
   30.3457  -24.4027  -16.0153 S   0  0  0  0  0  0  0  0  0  0  0  0
   29.2329  -22.9540  -16.2297 C   0  0  0  0  0  0  0  0  0  0  0  0
   28.0830  -23.3078  -17.1285 C   0  0  0  0  0  0  0  0  0  0  0  0
   27.5217  -24.6618  -16.9181 C   0  0  2  0  0  0  0  0  0  0  0  0
   28.4207  -25.7825  -17.0805 N   0  0  0  0  0  0  0  0  0  0  0  0
   26.2643  -24.8389  -17.6258 C   0  0  0  0  0  0  0  0  0  0  0  0
   26.2396  -25.3424  -18.7617 O   0  0  0  0  0  0  0  0  0  0  0  0
   24.9919  -24.4508  -17.0918 N   0  0  0  0  0  0  0  0  0  0  0  0
   23.8020  -24.5935  -17.8554 C   0  0  1  0  0  0  0  0  0  0  0  0
   22.9743  -25.7746  -17.5422 C   0  0  0  0  0  0  0  0  0  0  0  0
   21.7348  -25.9241  -18.3379 C   0  0  0  0  0  0  0  0  0  0  0  0
   20.5164  -25.6264  -17.7103 C   0  0  0  0  0  0  0  0  0  0  0  0
   19.3034  -25.7361  -18.3728 C   0  0  0  0  0  0  0  0  0  0  0  0
   19.2730  -26.1522  -19.6854 C   0  0  0  0  0  0  0  0  0  0  0  0
   20.4544  -26.4489  -20.3161 C   0  0  0  0  0  0  0  0  0  0  0  0
   21.6596  -26.3341  -19.6481 C   0  0  0  0  0  0  0  0  0  0  0  0
   22.8697  -23.4067  -17.6093 C   0  0  0  0  0  0  0  0  0  0  0  0
   23.0535  -22.5838  -16.5435 O   0  0  0  0  0  0  0  0  0  0  0  0
   21.9642  -23.2558  -18.4341 O   0  0  0  0  0  0  0  0  0  0  0  0
  2  1  1  1
  2  9  1  0
  3  2  1  0
  3  4  1  0
  4  5  2  0
  4  8  1  0
  5  6  1  0
  6  7  1  0
  8  7  2  0
  9 10  2  0
 11 12  1  0
 13 12  1  0
 13 14  1  0
 15 14  1  6
 15 17  1  0
 16  9  1  0
 16 15  1  0
 17 18  2  0
 19 20  1  0
 19 17  1  0
 20 21  1  1
 21 22  1  0
 22 23  2  0
 23 24  1  0
 25 24  2  0
 26 25  1  0
 27 26  2  0
 27 22  1  0
 28 20  1  0
 28 29  1  0
 30 28  2  0
M  END
$$$$
