HMF.pdb
     RDKit          3D

 30 31  0  0  1  0  0  0  0  0999 V2000
   28.9711  -13.3443  -23.4658 N   0  0  0  0  0  0  0  0  0  0  0  0
   28.6990  -11.9344  -23.6959 C   0  0  1  0  0  0  0  0  0  0  0  0
   27.5774  -11.7399  -24.6649 C   0  0  0  0  0  0  0  0  0  0  0  0
   27.8135  -12.2773  -26.0197 C   0  0  0  0  0  0  0  0  0  0  0  0
   27.9012  -11.5000  -27.1404 C   0  0  0  0  0  0  0  0  0  0  0  0
   28.1121  -12.3172  -28.1853 N   0  0  0  0  0  0  0  0  0  0  0  0
   28.1507  -13.5607  -27.7175 C   0  0  0  0  0  0  0  0  0  0  0  0
   27.9717  -13.5455  -26.3967 N   0  0  0  0  0  0  0  0  0  0  0  0
   28.5837  -11.1837  -22.4358 C   0  0  0  0  0  0  0  0  0  0  0  0
   27.9800  -11.7280  -21.4775 O   0  0  0  0  0  0  0  0  0  0  0  0
   31.4257   -5.7820  -17.3438 C   0  0  0  0  0  0  0  0  0  0  0  0
   31.5744   -6.6083  -18.9629 S   0  0  0  0  0  0  0  0  0  0  0  0
   30.0893   -7.6493  -19.2690 C   0  0  0  0  0  0  0  0  0  0  0  0
   30.1542   -8.2611  -20.6390 C   0  0  0  0  0  0  0  0  0  0  0  0
   29.0571   -9.2051  -20.9521 C   0  0  2  0  0  0  0  0  0  0  0  0
   29.1129   -9.8835  -22.2277 N   0  0  0  0  0  0  0  0  0  0  0  0
   27.7530   -8.6243  -20.6776 C   0  0  0  0  0  0  0  0  0  0  0  0
   27.2778   -7.7488  -21.4207 O   0  0  0  0  0  0  0  0  0  0  0  0
   26.9391   -8.9957  -19.5576 N   0  0  0  0  0  0  0  0  0  0  0  0
   25.6718   -8.3908  -19.3397 C   0  0  1  0  0  0  0  0  0  0  0  0
   24.7035   -9.1881  -18.5619 C   0  0  0  0  0  0  0  0  0  0  0  0
   25.1855   -9.6969  -17.2578 C   0  0  0  0  0  0  0  0  0  0  0  0
   25.9054  -10.9006  -17.2524 C   0  0  0  0  0  0  0  0  0  0  0  0
   26.3972  -11.4565  -16.0814 C   0  0  0  0  0  0  0  0  0  0  0  0
   26.1794  -10.8249  -14.8770 C   0  0  0  0  0  0  0  0  0  0  0  0
   25.4766   -9.6470  -14.8618 C   0  0  0  0  0  0  0  0  0  0  0  0
   24.9920   -9.0989  -16.0350 C   0  0  0  0  0  0  0  0  0  0  0  0
   25.8321   -7.1029  -18.5311 C   0  0  0  0  0  0  0  0  0  0  0  0
   24.8298   -6.1871  -18.4707 O   0  0  0  0  0  0  0  0  0  0  0  0
   26.9119   -6.9655  -17.9496 O   0  0  0  0  0  0  0  0  0  0  0  0
  2  1  1  1
  2  9  1  0
  3  2  1  0
  3  4  1  0
  4  5  2  0
  4  8  1  0
  5  6  1  0
  6  7  1  0
  8  7  2  0
  9 10  2  0
 11 12  1  0
 13 12  1  0
 13 14  1  0
 15 14  1  6
 15 17  1  0
 16  9  1  0
 16 15  1  0
 17 18  2  0
 19 20  1  0
 19 17  1  0
 20 21  1  1
 21 22  1  0
 22 23  2  0
 23 24  1  0
 25 24  2  0
 26 25  1  0
 27 26  2  0
 27 22  1  0
 28 20  1  0
 28 29  1  0
 30 28  2  0
M  END
$$$$
