RNT.pdb
     RDKit          3D

 27 26  0  0  1  0  0  0  0  0999 V2000
    7.4661  -14.9404   16.7613 N   0  0  0  0  0  0  0  0  0  0  0  0
    7.9456  -13.6187   16.5512 C   0  0  0  0  0  0  0  0  0  0  0  0
    8.5123  -13.2504   15.4483 N   0  0  0  0  0  0  0  0  0  0  0  0
    7.8078  -12.6413   17.5880 N   0  0  0  0  0  0  0  0  0  0  0  0
    7.1026  -13.0140   18.8004 C   0  0  0  0  0  0  0  0  0  0  0  0
    7.9585  -13.9526   19.5859 C   0  0  0  0  0  0  0  0  0  0  0  0
    7.2795  -14.4353   20.8047 C   0  0  0  0  0  0  0  0  0  0  0  0
    7.8390  -15.6256   21.4884 C   0  0  2  0  0  0  0  0  0  0  0  0
    6.9783  -16.7447   21.6598 N   0  0  0  0  0  0  0  0  0  0  0  0
    8.4033  -15.2880   22.8442 C   0  0  0  0  0  0  0  0  0  0  0  0
    9.4080  -14.5448   22.9838 O   0  0  0  0  0  0  0  0  0  0  0  0
    8.8230  -12.2559   15.3914 N   0  0  0  0  0  0  0  0  0  0  0  0
    7.6508  -12.8480   25.2082 C   0  0  0  0  0  0  0  0  0  0  0  0
    6.7816  -13.7350   25.9454 O   0  0  0  0  0  0  0  0  0  0  0  0
    5.7481  -13.1784   26.3797 C   0  0  0  0  0  0  0  0  0  0  0  0
    7.1385  -15.1356   26.1276 C   0  0  2  0  0  0  0  0  0  0  0  0
    8.3723  -15.5623   25.3701 N   0  0  0  0  0  0  0  0  0  0  0  0
    7.8012  -15.8109   23.9948 C   0  0  0  0  0  0  0  0  0  0  0  0
    8.8629  -16.8999   25.7644 O   0  0  0  0  0  0  0  0  0  0  0  0
    7.9950  -17.7386   26.1972 C   0  0  0  0  0  0  0  0  0  0  0  0
   10.5992  -19.5025   23.8252 C   0  0  2  0  0  0  0  0  0  0  0  0
   11.4353  -19.3392   25.0952 O   0  0  0  0  0  0  0  0  0  0  0  0
   12.4952  -18.5106   24.7576 C   0  0  2  0  0  0  0  0  0  0  0  0
   10.5439  -18.6645   26.1213 N   0  0  0  0  0  0  0  0  0  0  0  0
   10.2052  -17.3089   25.6906 C   0  0  0  0  0  0  0  0  0  0  0  0
   11.2497  -18.5450   27.4243 O   0  0  0  0  0  0  0  0  0  0  0  0
   11.5742  -17.4371   27.8800 O   0  0  0  0  0  0  0  0  0  0  0  0
  2  1  1  0
  3  2  2  0
  4  2  1  0
  5  4  1  0
  6  5  1  0
  7  8  1  0
  7  6  1  0
  8  9  1  1
 10  8  1  0
 10 17  1  0
 11 10  2  0
 13 12  1  0
 14 13  2  0
 16 15  1  6
 15 13  1  0
 16 17  1  0
 18 16  1  0
 19 18  2  0
 21 20  1  6
 21 22  1  0
 23 21  1  0
 23 24  1  1
 24 18  1  0
 25 23  1  0
 26 25  2  0
 27 25  1  0
M  END
$$$$
