RNT.pdb
     RDKit          3D

 27 26  0  0  1  0  0  0  0  0999 V2000
    7.5545  -12.0732   18.1795 N   0  0  0  0  0  0  0  0  0  0  0  0
    8.1457  -13.3612   18.0686 C   0  0  0  0  0  0  0  0  0  0  0  0
    7.9995  -14.1071   17.0219 N   0  0  0  0  0  0  0  0  0  0  0  0
    8.9364  -13.8736   19.1463 N   0  0  0  0  0  0  0  0  0  0  0  0
    8.4625  -13.6804   20.5044 C   0  0  0  0  0  0  0  0  0  0  0  0
    7.2649  -14.5453   20.7239 C   0  0  0  0  0  0  0  0  0  0  0  0
    7.2068  -15.0742   22.1010 C   0  0  0  0  0  0  0  0  0  0  0  0
    7.8340  -16.3905   22.3684 C   0  0  2  0  0  0  0  0  0  0  0  0
    7.1201  -17.5495   21.9566 N   0  0  0  0  0  0  0  0  0  0  0  0
    8.1724  -16.5720   23.8255 C   0  0  0  0  0  0  0  0  0  0  0  0
    8.7093  -15.6607   24.5055 O   0  0  0  0  0  0  0  0  0  0  0  0
    8.4668  -15.0398   17.0432 N   0  0  0  0  0  0  0  0  0  0  0  0
    8.3218  -19.0909   28.5073 C   0  0  0  0  0  0  0  0  0  0  0  0
    7.0842  -19.2045   27.7714 O   0  0  0  0  0  0  0  0  0  0  0  0
    6.1585  -19.7355   28.4253 C   0  0  0  0  0  0  0  0  0  0  0  0
    6.9945  -18.7247   26.3989 C   0  0  1  0  0  0  0  0  0  0  0  0
    8.2410  -18.0324   25.9037 N   0  0  0  0  0  0  0  0  0  0  0  0
    7.8863  -17.7884   24.4567 C   0  0  0  0  0  0  0  0  0  0  0  0
    9.4071  -18.9355   25.8043 O   0  0  0  0  0  0  0  0  0  0  0  0
    9.1726  -20.1960   25.7874 C   0  0  0  0  0  0  0  0  0  0  0  0
   14.1174  -20.0466   25.1360 C   0  0  2  0  0  0  0  0  0  0  0  0
   13.1111  -18.9008   25.2513 O   0  0  0  0  0  0  0  0  0  0  0  0
   12.9834  -18.3676   23.9772 C   0  0  1  0  0  0  0  0  0  0  0  0
   11.7985  -19.5159   25.7000 N   0  0  0  0  0  0  0  0  0  0  0  0
   10.7422  -18.5053   25.7221 C   0  0  0  0  0  0  0  0  0  0  0  0
   11.9206  -20.0499   27.0821 O   0  0  0  0  0  0  0  0  0  0  0  0
   11.6215  -19.3570   28.0674 O   0  0  0  0  0  0  0  0  0  0  0  0
  2  1  1  0
  3  2  2  0
  4  2  1  0
  5  4  1  0
  6  5  1  0
  7  8  1  0
  7  6  1  0
  8  9  1  1
 10  8  1  0
 10 17  1  0
 11 10  2  0
 13 12  1  0
 14 13  2  0
 16 15  1  1
 15 13  1  0
 16 17  1  0
 18 16  1  0
 19 18  2  0
 21 20  1  1
 21 22  1  0
 23 21  1  0
 23 24  1  1
 24 18  1  0
 25 23  1  0
 26 25  2  0
 27 25  1  0
M  END
$$$$
