RNT.pdb
     RDKit          3D

 27 26  0  0  1  0  0  0  0  0999 V2000
    9.5903  -13.9049   16.5316 N   0  0  0  0  0  0  0  0  0  0  0  0
    8.2252  -13.5363   16.3850 C   0  0  0  0  0  0  0  0  0  0  0  0
    7.5784  -13.6863   15.2748 N   0  0  0  0  0  0  0  0  0  0  0  0
    7.5194  -12.9734   17.4961 N   0  0  0  0  0  0  0  0  0  0  0  0
    8.2214  -12.8246   18.7575 C   0  0  0  0  0  0  0  0  0  0  0  0
    8.3056  -14.1596   19.4219 C   0  0  0  0  0  0  0  0  0  0  0  0
    8.3392  -14.0463   20.8935 C   0  0  0  0  0  0  0  0  0  0  0  0
    8.6610  -15.2620   21.6782 C   0  0  2  0  0  0  0  0  0  0  0  0
    7.7525  -16.3529   21.5941 N   0  0  0  0  0  0  0  0  0  0  0  0
    8.8551  -14.9580   23.1413 C   0  0  0  0  0  0  0  0  0  0  0  0
    9.6297  -14.0504   23.5382 O   0  0  0  0  0  0  0  0  0  0  0  0
    6.5574  -13.4726   15.2957 N   0  0  0  0  0  0  0  0  0  0  0  0
    7.3078  -12.7529   25.5168 C   0  0  0  0  0  0  0  0  0  0  0  0
    6.3681  -13.8191   25.7739 O   0  0  0  0  0  0  0  0  0  0  0  0
    5.1768  -13.4377   25.8201 C   0  0  0  0  0  0  0  0  0  0  0  0
    6.8346  -15.1874   25.9531 C   0  0  2  0  0  0  0  0  0  0  0  0
    8.2803  -15.4015   25.5762 N   0  0  0  0  0  0  0  0  0  0  0  0
    8.1582  -15.7009   24.1015 C   0  0  0  0  0  0  0  0  0  0  0  0
    8.8422  -16.6575   26.1169 O   0  0  0  0  0  0  0  0  0  0  0  0
    8.7100  -16.8649   27.3753 C   0  0  0  0  0  0  0  0  0  0  0  0
   10.7988  -21.1186   25.8340 C   0  0  2  0  0  0  0  0  0  0  0  0
   10.4247  -19.8747   25.0268 O   0  0  0  0  0  0  0  0  0  0  0  0
    9.3157  -20.2230   24.2699 C   0  0  1  0  0  0  0  0  0  0  0  0
   10.0614  -18.7959   26.0301 N   0  0  0  0  0  0  0  0  0  0  0  0
    9.5002  -17.6314   25.3469 C   0  0  0  0  0  0  0  0  0  0  0  0
   11.2728  -18.3335   26.7574 O   0  0  0  0  0  0  0  0  0  0  0  0
   11.8818  -17.3106   26.4061 O   0  0  0  0  0  0  0  0  0  0  0  0
  2  1  1  0
  3  2  2  0
  4  2  1  0
  5  4  1  0
  6  5  1  0
  7  8  1  0
  7  6  1  0
  8  9  1  1
 10  8  1  0
 10 17  1  0
 11 10  2  0
 13 12  1  0
 14 13  2  0
 16 15  1  6
 15 13  1  0
 16 17  1  0
 18 16  1  0
 19 18  2  0
 21 20  1  6
 21 22  1  0
 23 21  1  0
 23 24  1  6
 24 18  1  0
 25 23  1  0
 26 25  2  0
 27 25  1  0
M  END
$$$$
