RNT.pdb
     RDKit          3D

 27 26  0  0  1  0  0  0  0  0999 V2000
    8.5870  -12.8622   19.0028 N   0  0  0  0  0  0  0  0  0  0  0  0
    8.2861  -13.2928   17.6819 C   0  0  0  0  0  0  0  0  0  0  0  0
    8.7229  -12.6765   16.6318 N   0  0  0  0  0  0  0  0  0  0  0  0
    7.4681  -14.4505   17.4825 N   0  0  0  0  0  0  0  0  0  0  0  0
    7.7877  -15.6585   18.2207 C   0  0  0  0  0  0  0  0  0  0  0  0
    7.3260  -15.4967   19.6317 C   0  0  0  0  0  0  0  0  0  0  0  0
    7.9866  -16.4503   20.5449 C   0  0  0  0  0  0  0  0  0  0  0  0
    7.5344  -16.4900   21.9561 C   0  0  2  0  0  0  0  0  0  0  0  0
    7.4558  -15.2520   22.6516 N   0  0  0  0  0  0  0  0  0  0  0  0
    8.3747  -17.4178   22.7951 C   0  0  0  0  0  0  0  0  0  0  0  0
    8.5534  -18.6230   22.4838 O   0  0  0  0  0  0  0  0  0  0  0  0
    8.4116  -13.0482   15.7079 N   0  0  0  0  0  0  0  0  0  0  0  0
   12.1047  -14.5345   21.2731 C   0  0  0  0  0  0  0  0  0  0  0  0
   11.3473  -15.6793   21.7223 O   0  0  0  0  0  0  0  0  0  0  0  0
   11.8125  -16.7736   21.3315 C   0  0  0  0  0  0  0  0  0  0  0  0
   10.1621  -15.5019   22.5505 C   0  0  2  0  0  0  0  0  0  0  0  0
   10.2617  -16.1375   23.9159 N   0  0  0  0  0  0  0  0  0  0  0  0
    8.9824  -16.9378   23.9613 C   0  0  0  0  0  0  0  0  0  0  0  0
   10.0803  -15.1725   25.0210 O   0  0  0  0  0  0  0  0  0  0  0  0
   10.9649  -14.2529   25.1474 C   0  0  0  0  0  0  0  0  0  0  0  0
    7.3072  -12.8261   25.5370 C   0  0  2  0  0  0  0  0  0  0  0  0
    7.4842  -13.5334   26.8812 O   0  0  0  0  0  0  0  0  0  0  0  0
    6.5494  -14.5579   26.9061 C   0  0  2  0  0  0  0  0  0  0  0  0
    8.8910  -14.1022   26.8935 N   0  0  0  0  0  0  0  0  0  0  0  0
    9.0084  -15.1948   25.9292 C   0  0  0  0  0  0  0  0  0  0  0  0
    9.2123  -14.6646   28.2317 O   0  0  0  0  0  0  0  0  0  0  0  0
    9.2670  -13.9391   29.2373 O   0  0  0  0  0  0  0  0  0  0  0  0
  2  1  1  0
  3  2  2  0
  4  2  1  0
  5  4  1  0
  6  5  1  0
  7  8  1  0
  7  6  1  0
  8  9  1  1
 10  8  1  0
 10 17  1  0
 11 10  2  0
 13 12  1  0
 14 13  2  0
 16 15  1  6
 15 13  1  0
 16 17  1  0
 18 16  1  0
 19 18  2  0
 21 20  1  1
 21 22  1  0
 23 21  1  0
 23 24  1  1
 24 18  1  0
 25 23  1  0
 26 25  2  0
 27 25  1  0
M  END
$$$$
