RNT.pdb
     RDKit          3D

 27 26  0  0  1  0  0  0  0  0999 V2000
    7.9673  -13.0273   17.8343 N   0  0  0  0  0  0  0  0  0  0  0  0
    8.5551  -12.5019   19.0172 C   0  0  0  0  0  0  0  0  0  0  0  0
    9.5247  -11.6461   18.9925 N   0  0  0  0  0  0  0  0  0  0  0  0
    8.0719  -12.9240   20.2969 N   0  0  0  0  0  0  0  0  0  0  0  0
    6.9179  -13.8028   20.3449 C   0  0  0  0  0  0  0  0  0  0  0  0
    7.3913  -15.2193   20.3454 C   0  0  0  0  0  0  0  0  0  0  0  0
    8.6054  -15.3986   21.1662 C   0  0  0  0  0  0  0  0  0  0  0  0
    9.1339  -16.7730   21.3364 C   0  0  2  0  0  0  0  0  0  0  0  0
    8.4598  -17.8213   20.6514 N   0  0  0  0  0  0  0  0  0  0  0  0
    9.2179  -17.1729   22.7869 C   0  0  0  0  0  0  0  0  0  0  0  0
    8.2450  -17.6864   23.3960 O   0  0  0  0  0  0  0  0  0  0  0  0
    9.9827  -11.4314   19.9051 N   0  0  0  0  0  0  0  0  0  0  0  0
   12.6564  -19.7500   23.2459 C   0  0  0  0  0  0  0  0  0  0  0  0
   11.8884  -19.4037   24.4190 O   0  0  0  0  0  0  0  0  0  0  0  0
   11.2509  -20.3658   24.9034 C   0  0  0  0  0  0  0  0  0  0  0  0
   11.9012  -18.0413   24.9343 C   0  0  2  0  0  0  0  0  0  0  0  0
   10.5488  -17.3710   24.9422 N   0  0  0  0  0  0  0  0  0  0  0  0
   10.4101  -16.9724   23.4927 C   0  0  0  0  0  0  0  0  0  0  0  0
   10.5503  -16.0671   25.6387 O   0  0  0  0  0  0  0  0  0  0  0  0
   11.3595  -15.1719   25.2053 C   0  0  0  0  0  0  0  0  0  0  0  0
    8.4506  -13.1863   25.8303 C   0  0  2  0  0  0  0  0  0  0  0  0
    8.5927  -13.6488   27.2811 O   0  0  0  0  0  0  0  0  0  0  0  0
    7.5066  -14.4740   27.5329 C   0  0  2  0  0  0  0  0  0  0  0  0
    9.8859  -14.4386   27.3630 N   0  0  0  0  0  0  0  0  0  0  0  0
    9.7258  -15.7471   26.7306 C   0  0  0  0  0  0  0  0  0  0  0  0
   10.2570  -14.6819   28.7819 O   0  0  0  0  0  0  0  0  0  0  0  0
   10.2478  -15.8268   29.2612 O   0  0  0  0  0  0  0  0  0  0  0  0
  2  1  1  0
  3  2  2  0
  4  2  1  0
  5  4  1  0
  6  5  1  0
  7  8  1  0
  7  6  1  0
  8  9  1  6
 10  8  1  0
 10 17  1  0
 11 10  2  0
 13 12  1  0
 14 13  2  0
 16 15  1  6
 15 13  1  0
 16 17  1  0
 18 16  1  0
 19 18  2  0
 21 20  1  1
 21 22  1  0
 23 21  1  0
 23 24  1  1
 24 18  1  0
 25 23  1  0
 26 25  2  0
 27 25  1  0
M  END
$$$$
