RNT.pdb
     RDKit          3D

 27 26  0  0  1  0  0  0  0  0999 V2000
    8.5814  -13.0469   17.4116 N   0  0  0  0  0  0  0  0  0  0  0  0
    9.5299  -13.1299   18.4672 C   0  0  0  0  0  0  0  0  0  0  0  0
   10.7904  -13.3307   18.2569 N   0  0  0  0  0  0  0  0  0  0  0  0
    9.0950  -12.9905   19.8239 N   0  0  0  0  0  0  0  0  0  0  0  0
    7.6741  -12.8493   20.0835 C   0  0  0  0  0  0  0  0  0  0  0  0
    7.0250  -14.1877   19.9500 C   0  0  0  0  0  0  0  0  0  0  0  0
    6.7842  -14.8213   21.2616 C   0  0  0  0  0  0  0  0  0  0  0  0
    7.9315  -15.4643   21.9454 C   0  0  2  0  0  0  0  0  0  0  0  0
    8.4401  -16.6652   21.3781 N   0  0  0  0  0  0  0  0  0  0  0  0
    7.6409  -15.7473   23.3966 C   0  0  0  0  0  0  0  0  0  0  0  0
    7.0683  -14.9095   24.1392 O   0  0  0  0  0  0  0  0  0  0  0  0
   11.3989  -13.4083   19.1009 N   0  0  0  0  0  0  0  0  0  0  0  0
    6.3355  -19.7477   27.2246 C   0  0  0  0  0  0  0  0  0  0  0  0
    7.6206  -19.4974   26.6150 O   0  0  0  0  0  0  0  0  0  0  0  0
    8.5884  -19.8890   27.3055 C   0  0  0  0  0  0  0  0  0  0  0  0
    7.7071  -18.8448   25.3155 C   0  0  1  0  0  0  0  0  0  0  0  0
    7.6802  -17.3370   25.3784 N   0  0  0  0  0  0  0  0  0  0  0  0
    8.0143  -16.9775   23.9507 C   0  0  0  0  0  0  0  0  0  0  0  0
    8.8171  -16.7661   26.1314 O   0  0  0  0  0  0  0  0  0  0  0  0
    9.9877  -16.9193   25.6311 C   0  0  0  0  0  0  0  0  0  0  0  0
    9.5689  -13.2368   27.3980 C   0  0  2  0  0  0  0  0  0  0  0  0
    9.6909  -14.2019   28.5780 O   0  0  0  0  0  0  0  0  0  0  0  0
    8.4758  -14.1535   29.2453 C   0  0  2  0  0  0  0  0  0  0  0  0
    9.9162  -15.5830   27.9912 N   0  0  0  0  0  0  0  0  0  0  0  0
    8.6977  -16.0682   27.3451 C   0  0  0  0  0  0  0  0  0  0  0  0
   10.2578  -16.5539   29.0640 O   0  0  0  0  0  0  0  0  0  0  0  0
   11.2940  -16.4306   29.7360 O   0  0  0  0  0  0  0  0  0  0  0  0
  2  1  1  0
  3  2  2  0
  4  2  1  0
  5  4  1  0
  6  5  1  0
  7  8  1  0
  7  6  1  0
  8  9  1  6
 10  8  1  0
 10 17  1  0
 11 10  2  0
 13 12  1  0
 14 13  2  0
 16 15  1  6
 15 13  1  0
 16 17  1  0
 18 16  1  0
 19 18  2  0
 21 20  1  1
 21 22  1  0
 23 21  1  0
 23 24  1  1
 24 18  1  0
 25 23  1  0
 26 25  2  0
 27 25  1  0
M  END
$$$$
