RNT.pdb
     RDKit          3D

 27 26  0  0  1  0  0  0  0  0999 V2000
    7.8085  -13.5477   13.0228 N   0  0  0  0  0  0  0  0  0  0  0  0
    8.2843  -13.9020   14.3147 C   0  0  0  0  0  0  0  0  0  0  0  0
    8.1094  -13.1493   15.3521 N   0  0  0  0  0  0  0  0  0  0  0  0
    8.9889  -15.1346   14.4974 N   0  0  0  0  0  0  0  0  0  0  0  0
    8.4499  -16.1077   15.4295 C   0  0  0  0  0  0  0  0  0  0  0  0
    8.8175  -15.6989   16.8181 C   0  0  0  0  0  0  0  0  0  0  0  0
    9.3519  -16.8273   17.6060 C   0  0  0  0  0  0  0  0  0  0  0  0
    9.2380  -16.7613   19.0825 C   0  0  2  0  0  0  0  0  0  0  0  0
    8.6306  -15.6022   19.6392 N   0  0  0  0  0  0  0  0  0  0  0  0
   10.5716  -16.9336   19.7625 C   0  0  0  0  0  0  0  0  0  0  0  0
   11.2187  -18.0102   19.7018 O   0  0  0  0  0  0  0  0  0  0  0  0
    8.5060  -13.4950   16.2531 N   0  0  0  0  0  0  0  0  0  0  0  0
   13.5796  -13.6257   18.6306 C   0  0  0  0  0  0  0  0  0  0  0  0
   13.7212  -14.7567   19.5175 O   0  0  0  0  0  0  0  0  0  0  0  0
   14.3798  -15.7006   19.0258 C   0  0  0  0  0  0  0  0  0  0  0  0
   13.1259  -14.7319   20.8468 C   0  0  2  0  0  0  0  0  0  0  0  0
   12.4264  -16.0119   21.2345 N   0  0  0  0  0  0  0  0  0  0  0  0
   11.1211  -15.8706   20.4891 C   0  0  0  0  0  0  0  0  0  0  0  0
   11.9926  -16.0324   22.6476 O   0  0  0  0  0  0  0  0  0  0  0  0
   12.8645  -15.7166   23.5331 C   0  0  0  0  0  0  0  0  0  0  0  0
    8.8577  -15.6773   26.2806 C   0  0  2  0  0  0  0  0  0  0  0  0
    9.0313  -15.7563   24.7633 O   0  0  0  0  0  0  0  0  0  0  0  0
    8.9634  -14.4517   24.2970 C   0  0  1  0  0  0  0  0  0  0  0  0
   10.4110  -16.3357   24.5112 N   0  0  0  0  0  0  0  0  0  0  0  0
   10.6975  -16.3669   23.0778 C   0  0  0  0  0  0  0  0  0  0  0  0
   10.4833  -17.7373   25.0015 O   0  0  0  0  0  0  0  0  0  0  0  0
   10.9389  -18.0022   26.1252 O   0  0  0  0  0  0  0  0  0  0  0  0
  2  1  1  0
  3  2  2  0
  4  2  1  0
  5  4  1  0
  6  5  1  0
  7  8  1  0
  7  6  1  0
  8  9  1  6
 10  8  1  0
 10 17  1  0
 11 10  2  0
 13 12  1  0
 14 13  2  0
 16 15  1  6
 15 13  1  0
 16 17  1  0
 18 16  1  0
 19 18  2  0
 21 20  1  6
 21 22  1  0
 23 21  1  0
 23 24  1  6
 24 18  1  0
 25 23  1  0
 26 25  2  0
 27 25  1  0
M  END
$$$$
