RNT.pdb
     RDKit          3D

 27 26  0  0  1  0  0  0  0  0999 V2000
    8.6907  -12.7801   16.3179 N   0  0  0  0  0  0  0  0  0  0  0  0
    8.3209  -14.1211   16.0252 C   0  0  0  0  0  0  0  0  0  0  0  0
    7.8340  -14.4754   14.8803 N   0  0  0  0  0  0  0  0  0  0  0  0
    8.4834  -15.1353   17.0223 N   0  0  0  0  0  0  0  0  0  0  0  0
    9.2629  -14.8227   18.2059 C   0  0  0  0  0  0  0  0  0  0  0  0
    9.2742  -16.0161   19.1038 C   0  0  0  0  0  0  0  0  0  0  0  0
   10.0982  -15.7965   20.3089 C   0  0  0  0  0  0  0  0  0  0  0  0
   10.1419  -16.8720   21.3280 C   0  0  2  0  0  0  0  0  0  0  0  0
    9.3101  -18.0060   21.1165 N   0  0  0  0  0  0  0  0  0  0  0  0
    9.8438  -16.3549   22.7117 C   0  0  0  0  0  0  0  0  0  0  0  0
   10.7554  -16.0296   23.5144 O   0  0  0  0  0  0  0  0  0  0  0  0
    7.5330  -15.4701   14.7875 N   0  0  0  0  0  0  0  0  0  0  0  0
    6.5734  -13.2829   22.1996 C   0  0  0  0  0  0  0  0  0  0  0  0
    7.1230  -13.5744   23.5030 O   0  0  0  0  0  0  0  0  0  0  0  0
    7.7774  -12.6276   23.9949 C   0  0  0  0  0  0  0  0  0  0  0  0
    6.8969  -14.8713   24.1265 C   0  0  2  0  0  0  0  0  0  0  0  0
    8.1614  -15.6211   24.4687 N   0  0  0  0  0  0  0  0  0  0  0  0
    8.5145  -16.2271   23.1318 C   0  0  0  0  0  0  0  0  0  0  0  0
    7.9213  -16.8117   25.3115 O   0  0  0  0  0  0  0  0  0  0  0  0
    7.7584  -16.6171   26.5684 C   0  0  0  0  0  0  0  0  0  0  0  0
    5.9480  -20.2422   24.4851 C   0  0  2  0  0  0  0  0  0  0  0  0
    7.3242  -20.5028   25.0990 O   0  0  0  0  0  0  0  0  0  0  0  0
    8.1758  -20.7768   24.0389 C   0  0  2  0  0  0  0  0  0  0  0  0
    7.7424  -19.2204   25.7941 N   0  0  0  0  0  0  0  0  0  0  0  0
    7.8551  -18.1292   24.8275 C   0  0  0  0  0  0  0  0  0  0  0  0
    9.0782  -19.3837   26.4258 O   0  0  0  0  0  0  0  0  0  0  0  0
    9.2585  -20.1961   27.3467 O   0  0  0  0  0  0  0  0  0  0  0  0
  2  1  1  0
  3  2  2  0
  4  2  1  0
  5  4  1  0
  6  5  1  0
  7  8  1  0
  7  6  1  0
  8  9  1  6
 10  8  1  0
 10 17  1  0
 11 10  2  0
 13 12  1  0
 14 13  2  0
 16 15  1  6
 15 13  1  0
 16 17  1  0
 18 16  1  0
 19 18  2  0
 21 20  1  1
 21 22  1  0
 23 21  1  0
 23 24  1  1
 24 18  1  0
 25 23  1  0
 26 25  2  0
 27 25  1  0
M  END
$$$$
