RNT.pdb
     RDKit          3D

 27 26  0  0  1  0  0  0  0  0999 V2000
    6.4078  -12.7330   18.9234 N   0  0  0  0  0  0  0  0  0  0  0  0
    7.0187  -13.3502   17.7980 C   0  0  0  0  0  0  0  0  0  0  0  0
    6.3456  -14.0218   16.9210 N   0  0  0  0  0  0  0  0  0  0  0  0
    8.4333  -13.2384   17.6089 N   0  0  0  0  0  0  0  0  0  0  0  0
    9.2771  -13.0812   18.7792 C   0  0  0  0  0  0  0  0  0  0  0  0
    8.5046  -13.4948   19.9886 C   0  0  0  0  0  0  0  0  0  0  0  0
    8.7203  -14.9158   20.3261 C   0  0  0  0  0  0  0  0  0  0  0  0
    8.1613  -15.4208   21.6027 C   0  0  2  0  0  0  0  0  0  0  0  0
    7.0694  -14.7047   22.1660 N   0  0  0  0  0  0  0  0  0  0  0  0
    9.2136  -15.5408   22.6747 C   0  0  0  0  0  0  0  0  0  0  0  0
    8.9497  -15.3703   23.8923 O   0  0  0  0  0  0  0  0  0  0  0  0
    6.8855  -14.4214   16.1225 N   0  0  0  0  0  0  0  0  0  0  0  0
   13.1946  -17.1130   25.4265 C   0  0  0  0  0  0  0  0  0  0  0  0
   11.9362  -17.7655   25.1500 O   0  0  0  0  0  0  0  0  0  0  0  0
   11.7087  -18.7503   25.8882 C   0  0  0  0  0  0  0  0  0  0  0  0
   11.0634  -17.2693   24.0945 C   0  0  1  0  0  0  0  0  0  0  0  0
   11.6029  -16.0651   23.3618 N   0  0  0  0  0  0  0  0  0  0  0  0
   10.5317  -15.8511   22.3197 C   0  0  0  0  0  0  0  0  0  0  0  0
   12.7959  -16.3690   22.5433 O   0  0  0  0  0  0  0  0  0  0  0  0
   12.9145  -17.5671   22.1023 C   0  0  0  0  0  0  0  0  0  0  0  0
   16.4777  -15.1034   19.6051 C   0  0  2  0  0  0  0  0  0  0  0  0
   15.3883  -14.6043   20.5552 O   0  0  0  0  0  0  0  0  0  0  0  0
   14.4202  -14.0119   19.7577 C   0  0  1  0  0  0  0  0  0  0  0  0
   14.8221  -15.8279   21.2516 N   0  0  0  0  0  0  0  0  0  0  0  0
   13.7951  -15.4369   22.2160 C   0  0  0  0  0  0  0  0  0  0  0  0
   15.8880  -16.5333   22.0109 O   0  0  0  0  0  0  0  0  0  0  0  0
   16.1499  -16.2280   23.1850 O   0  0  0  0  0  0  0  0  0  0  0  0
  2  1  1  0
  3  2  2  0
  4  2  1  0
  5  4  1  0
  6  5  1  0
  7  8  1  0
  7  6  1  0
  8  9  1  1
 10  8  1  0
 10 17  1  0
 11 10  2  0
 13 12  1  0
 14 13  2  0
 16 15  1  1
 15 13  1  0
 16 17  1  0
 18 16  1  0
 19 18  2  0
 21 20  1  1
 21 22  1  0
 23 21  1  0
 23 24  1  1
 24 18  1  0
 25 23  1  0
 26 25  2  0
 27 25  1  0
M  END
$$$$
