RNT.pdb
     RDKit          3D

 27 26  0  0  1  0  0  0  0  0999 V2000
    8.2231  -14.3198   15.8987 N   0  0  0  0  0  0  0  0  0  0  0  0
    7.9418  -13.5741   17.0758 C   0  0  0  0  0  0  0  0  0  0  0  0
    8.2194  -12.3155   17.1861 N   0  0  0  0  0  0  0  0  0  0  0  0
    7.3290  -14.2216   18.1958 N   0  0  0  0  0  0  0  0  0  0  0  0
    7.2974  -15.6723   18.2237 C   0  0  0  0  0  0  0  0  0  0  0  0
    8.3632  -16.1592   19.1496 C   0  0  0  0  0  0  0  0  0  0  0  0
    8.1560  -15.6860   20.5326 C   0  0  0  0  0  0  0  0  0  0  0  0
    9.3522  -15.3404   21.3369 C   0  0  2  0  0  0  0  0  0  0  0  0
   10.6205  -15.7191   20.8166 N   0  0  0  0  0  0  0  0  0  0  0  0
    9.2684  -15.8829   22.7403 C   0  0  0  0  0  0  0  0  0  0  0  0
    8.1842  -15.9277   23.3758 O   0  0  0  0  0  0  0  0  0  0  0  0
    8.0128  -11.8698   18.1067 N   0  0  0  0  0  0  0  0  0  0  0  0
   11.0382  -20.0725   24.5718 C   0  0  0  0  0  0  0  0  0  0  0  0
   11.7497  -18.9167   24.0781 O   0  0  0  0  0  0  0  0  0  0  0  0
   12.3605  -19.1240   23.0054 C   0  0  0  0  0  0  0  0  0  0  0  0
   11.7158  -17.6592   24.8126 C   0  0  2  0  0  0  0  0  0  0  0  0
   10.3857  -16.9478   24.7586 N   0  0  0  0  0  0  0  0  0  0  0  0
   10.4256  -16.3556   23.3704 C   0  0  0  0  0  0  0  0  0  0  0  0
   10.3322  -15.7488   25.6216 O   0  0  0  0  0  0  0  0  0  0  0  0
   11.1986  -14.8293   25.4020 C   0  0  0  0  0  0  0  0  0  0  0  0
    8.4507  -12.7800   25.9625 C   0  0  2  0  0  0  0  0  0  0  0  0
    8.3124  -13.4633   27.3236 O   0  0  0  0  0  0  0  0  0  0  0  0
    7.1559  -14.2263   27.2584 C   0  0  2  0  0  0  0  0  0  0  0  0
    9.5267  -14.3584   27.4883 N   0  0  0  0  0  0  0  0  0  0  0  0
    9.3985  -15.5514   26.6529 C   0  0  0  0  0  0  0  0  0  0  0  0
    9.6434  -14.8217   28.8961 O   0  0  0  0  0  0  0  0  0  0  0  0
    9.5342  -16.0230   29.1883 O   0  0  0  0  0  0  0  0  0  0  0  0
  2  1  1  0
  3  2  2  0
  4  2  1  0
  5  4  1  0
  6  5  1  0
  7  8  1  0
  7  6  1  0
  8  9  1  6
 10  8  1  0
 10 17  1  0
 11 10  2  0
 13 12  1  0
 14 13  2  0
 16 15  1  6
 15 13  1  0
 16 17  1  0
 18 16  1  0
 19 18  2  0
 21 20  1  1
 21 22  1  0
 23 21  1  0
 23 24  1  1
 24 18  1  0
 25 23  1  0
 26 25  2  0
 27 25  1  0
M  END
$$$$
