RNT.pdb
     RDKit          3D

 27 26  0  0  1  0  0  0  0  0999 V2000
    8.0848  -13.0746   15.6376 N   0  0  0  0  0  0  0  0  0  0  0  0
    8.3348  -14.4435   15.9283 C   0  0  0  0  0  0  0  0  0  0  0  0
    8.2359  -15.3746   15.0358 N   0  0  0  0  0  0  0  0  0  0  0  0
    8.7104  -14.8296   17.2546 N   0  0  0  0  0  0  0  0  0  0  0  0
    8.8599  -13.7938   18.2602 C   0  0  0  0  0  0  0  0  0  0  0  0
    7.5277  -13.5303   18.8814 C   0  0  0  0  0  0  0  0  0  0  0  0
    7.6378  -13.2190   20.3204 C   0  0  0  0  0  0  0  0  0  0  0  0
    8.0393  -14.3101   21.2400 C   0  0  2  0  0  0  0  0  0  0  0  0
    7.1708  -15.4317   21.3409 N   0  0  0  0  0  0  0  0  0  0  0  0
    8.2835  -13.8105   22.6405 C   0  0  0  0  0  0  0  0  0  0  0  0
    9.1472  -12.9329   22.8960 O   0  0  0  0  0  0  0  0  0  0  0  0
    8.4767  -16.3428   15.3411 N   0  0  0  0  0  0  0  0  0  0  0  0
    7.2208  -11.8714   27.2894 C   0  0  0  0  0  0  0  0  0  0  0  0
    6.1766  -12.6938   26.7243 O   0  0  0  0  0  0  0  0  0  0  0  0
    5.1884  -12.8387   27.4786 C   0  0  0  0  0  0  0  0  0  0  0  0
    6.3278  -13.2688   25.3944 C   0  0  1  0  0  0  0  0  0  0  0  0
    7.7030  -13.8241   25.1142 N   0  0  0  0  0  0  0  0  0  0  0  0
    7.5332  -14.3302   23.7020 C   0  0  0  0  0  0  0  0  0  0  0  0
    7.9956  -15.0610   25.8692 O   0  0  0  0  0  0  0  0  0  0  0  0
    7.9729  -14.9857   27.1490 C   0  0  0  0  0  0  0  0  0  0  0  0
    7.8177  -19.7282   26.7456 C   0  0  2  0  0  0  0  0  0  0  0  0
    7.6554  -18.6304   25.6935 O   0  0  0  0  0  0  0  0  0  0  0  0
    6.3108  -18.2897   25.6930 C   0  0  1  0  0  0  0  0  0  0  0  0
    8.4974  -17.4553   26.1549 N   0  0  0  0  0  0  0  0  0  0  0  0
    8.2882  -16.3026   25.2802 C   0  0  0  0  0  0  0  0  0  0  0  0
    9.9433  -17.7953   26.0907 O   0  0  0  0  0  0  0  0  0  0  0  0
   10.7061  -17.2123   25.3041 O   0  0  0  0  0  0  0  0  0  0  0  0
  2  1  1  0
  3  2  2  0
  4  2  1  0
  5  4  1  0
  6  5  1  0
  7  8  1  0
  7  6  1  0
  8  9  1  1
 10  8  1  0
 10 17  1  0
 11 10  2  0
 13 12  1  0
 14 13  2  0
 16 15  1  6
 15 13  1  0
 16 17  1  0
 18 16  1  0
 19 18  2  0
 21 20  1  6
 21 22  1  0
 23 21  1  0
 23 24  1  6
 24 18  1  0
 25 23  1  0
 26 25  2  0
 27 25  1  0
M  END
$$$$
