RNT.pdb
     RDKit          3D

 27 26  0  0  1  0  0  0  0  0999 V2000
    7.9134  -12.7386   16.4419 N   0  0  0  0  0  0  0  0  0  0  0  0
    8.5385  -13.9094   16.9510 C   0  0  0  0  0  0  0  0  0  0  0  0
    9.1137  -14.7804   16.1869 N   0  0  0  0  0  0  0  0  0  0  0  0
    8.5419  -14.1553   18.3612 N   0  0  0  0  0  0  0  0  0  0  0  0
    7.7422  -13.2962   19.2149 C   0  0  0  0  0  0  0  0  0  0  0  0
    6.9151  -14.1508   20.1183 C   0  0  0  0  0  0  0  0  0  0  0  0
    7.5081  -14.2716   21.4649 C   0  0  0  0  0  0  0  0  0  0  0  0
    8.2399  -15.5180   21.7942 C   0  0  2  0  0  0  0  0  0  0  0  0
    7.7669  -16.7261   21.2116 N   0  0  0  0  0  0  0  0  0  0  0  0
    8.3294  -15.7474   23.2808 C   0  0  0  0  0  0  0  0  0  0  0  0
    8.6900  -14.8426   24.0761 O   0  0  0  0  0  0  0  0  0  0  0  0
    9.5123  -15.6231   16.6555 N   0  0  0  0  0  0  0  0  0  0  0  0
    7.3384  -18.0605   28.0027 C   0  0  0  0  0  0  0  0  0  0  0  0
    6.9167  -18.8051   26.8392 O   0  0  0  0  0  0  0  0  0  0  0  0
    6.5412  -19.9706   27.0982 C   0  0  0  0  0  0  0  0  0  0  0  0
    6.9524  -18.1929   25.5178 C   0  0  1  0  0  0  0  0  0  0  0  0
    8.1491  -17.3041   25.2809 N   0  0  0  0  0  0  0  0  0  0  0  0
    8.0041  -17.0025   23.8087 C   0  0  0  0  0  0  0  0  0  0  0  0
    9.4345  -18.0320   25.3380 O   0  0  0  0  0  0  0  0  0  0  0  0
    9.9647  -18.1957   26.4939 C   0  0  0  0  0  0  0  0  0  0  0  0
   10.4627  -21.3797   23.6271 C   0  0  2  0  0  0  0  0  0  0  0  0
   11.5564  -20.3389   23.3832 O   0  0  0  0  0  0  0  0  0  0  0  0
   11.3292  -19.8284   22.1136 C   0  0  2  0  0  0  0  0  0  0  0  0
   11.3693  -19.2555   24.4291 N   0  0  0  0  0  0  0  0  0  0  0  0
   10.1029  -18.5559   24.2185 C   0  0  0  0  0  0  0  0  0  0  0  0
   12.4510  -18.2409   24.3253 O   0  0  0  0  0  0  0  0  0  0  0  0
   12.2073  -17.0755   23.9749 O   0  0  0  0  0  0  0  0  0  0  0  0
  2  1  1  0
  3  2  2  0
  4  2  1  0
  5  4  1  0
  6  5  1  0
  7  8  1  0
  7  6  1  0
  8  9  1  6
 10  8  1  0
 10 17  1  0
 11 10  2  0
 13 12  1  0
 14 13  2  0
 16 15  1  1
 15 13  1  0
 16 17  1  0
 18 16  1  0
 19 18  2  0
 21 20  1  6
 21 22  1  0
 23 21  1  0
 23 24  1  1
 24 18  1  0
 25 23  1  0
 26 25  2  0
 27 25  1  0
M  END
$$$$
