RNT.pdb
     RDKit          3D

 27 26  0  0  1  0  0  0  0  0999 V2000
    6.8971  -12.7374   17.5875 N   0  0  0  0  0  0  0  0  0  0  0  0
    8.3086  -12.8755   17.4909 C   0  0  0  0  0  0  0  0  0  0  0  0
    9.1109  -11.8610   17.5123 N   0  0  0  0  0  0  0  0  0  0  0  0
    8.8864  -14.1789   17.3624 N   0  0  0  0  0  0  0  0  0  0  0  0
    8.0409  -15.3359   17.5920 C   0  0  0  0  0  0  0  0  0  0  0  0
    8.5826  -16.1053   18.7517 C   0  0  0  0  0  0  0  0  0  0  0  0
    8.9680  -17.4798   18.3749 C   0  0  0  0  0  0  0  0  0  0  0  0
    9.4836  -18.3746   19.4382 C   0  0  2  0  0  0  0  0  0  0  0  0
    8.6343  -18.6223   20.5517 N   0  0  0  0  0  0  0  0  0  0  0  0
   10.8060  -17.9025   19.9851 C   0  0  0  0  0  0  0  0  0  0  0  0
   11.8444  -17.8584   19.2773 O   0  0  0  0  0  0  0  0  0  0  0  0
   10.1295  -12.0681   17.4215 N   0  0  0  0  0  0  0  0  0  0  0  0
   13.2539  -14.1219   19.3234 C   0  0  0  0  0  0  0  0  0  0  0  0
   13.2223  -15.2493   20.2255 O   0  0  0  0  0  0  0  0  0  0  0  0
   14.2596  -15.9489   20.1908 C   0  0  0  0  0  0  0  0  0  0  0  0
   12.0581  -15.4888   21.0676 C   0  0  2  0  0  0  0  0  0  0  0  0
   12.1161  -16.7786   21.8496 N   0  0  0  0  0  0  0  0  0  0  0  0
   10.8977  -17.4970   21.3219 C   0  0  0  0  0  0  0  0  0  0  0  0
   11.7953  -16.6048   23.2822 O   0  0  0  0  0  0  0  0  0  0  0  0
   12.5472  -15.8179   23.9601 C   0  0  0  0  0  0  0  0  0  0  0  0
    9.1487  -14.9975   25.1040 C   0  0  2  0  0  0  0  0  0  0  0  0
    9.1594  -16.4300   25.6391 O   0  0  0  0  0  0  0  0  0  0  0  0
    8.2095  -17.1250   24.9051 C   0  0  2  0  0  0  0  0  0  0  0  0
   10.5452  -16.9864   25.3699 N   0  0  0  0  0  0  0  0  0  0  0  0
   10.7264  -17.2359   23.9406 C   0  0  0  0  0  0  0  0  0  0  0  0
   10.7273  -18.2871   26.0666 O   0  0  0  0  0  0  0  0  0  0  0  0
   10.9431  -19.3314   25.4316 O   0  0  0  0  0  0  0  0  0  0  0  0
  2  1  1  0
  3  2  2  0
  4  2  1  0
  5  4  1  0
  6  5  1  0
  7  8  1  0
  7  6  1  0
  8  9  1  1
 10  8  1  0
 10 17  1  0
 11 10  2  0
 13 12  1  0
 14 13  2  0
 16 15  1  6
 15 13  1  0
 16 17  1  0
 18 16  1  0
 19 18  2  0
 21 20  1  1
 21 22  1  0
 23 21  1  0
 23 24  1  1
 24 18  1  0
 25 23  1  0
 26 25  2  0
 27 25  1  0
M  END
$$$$
