CTS.pdb
     RDKit          3D

 20 19  0  0  1  0  0  0  0  0999 V2000
   -2.5367  -21.8611   22.0137 N   0  0  0  0  0  0  0  0  0  0  0  0
   -2.6885  -21.3654   23.3827 C   0  0  1  0  0  0  0  0  0  0  0  0
   -2.7484  -19.8420   23.3228 C   0  0  0  0  0  0  0  0  0  0  0  0
   -1.1536  -19.1473   22.8419 S   0  0  0  0  0  0  0  0  0  0  0  0
   -3.9104  -21.8983   23.9968 C   0  0  0  0  0  0  0  0  0  0  0  0
   -4.9941  -21.7706   23.3782 O   0  0  0  0  0  0  0  0  0  0  0  0
   -5.2011  -25.1547   24.3350 C   0  0  0  0  0  0  0  0  0  0  0  0
   -5.1863  -24.6105   25.7337 C   0  0  1  0  0  0  0  0  0  0  0  0
   -4.0787  -25.1394   26.3852 O   0  0  0  0  0  0  0  0  0  0  0  0
   -5.1885  -23.0970   25.7657 C   0  0  2  0  0  0  0  0  0  0  0  0
   -3.9549  -22.5545   25.2532 N   0  0  0  0  0  0  0  0  0  0  0  0
   -5.4045  -22.7021   27.1963 C   0  0  0  0  0  0  0  0  0  0  0  0
   -4.4172  -22.3638   27.8930 O   0  0  0  0  0  0  0  0  0  0  0  0
   -9.3302  -22.5543   28.6189 O   0  0  0  0  0  0  0  0  0  0  0  0
   -8.3712  -21.6406   29.0936 C   0  0  0  0  0  0  0  0  0  0  0  0
   -7.0138  -22.3276   29.0628 C   0  0  2  0  0  0  0  0  0  0  0  0
   -6.7189  -22.7210   27.7254 N   0  0  0  0  0  0  0  0  0  0  0  0
   -6.9468  -23.4431   30.0330 C   0  0  0  0  0  0  0  0  0  0  0  0
   -6.8130  -24.6418   29.7052 O   0  0  0  0  0  0  0  0  0  0  0  0
   -7.0380  -23.1386   31.3841 O   0  0  0  0  0  0  0  0  0  0  0  0
  2  3  1  0
  2  1  1  6
  4  3  1  0
  5  2  1  0
  5  6  2  0
  8  7  1  6
  8 10  1  0
  9  8  1  0
 10 12  1  0
 10 11  1  1
 11  5  1  0
 12 13  2  0
 15 14  1  0
 16 15  1  6
 17 16  1  0
 17 12  1  0
 18 16  1  0
 19 18  2  0
 20 18  1  0
M  END
$$$$
