CTS.pdb
     RDKit          3D

 20 19  0  0  1  0  0  0  0  0999 V2000
    7.5953  -14.7281   16.8437 N   0  0  0  0  0  0  0  0  0  0  0  0
    8.5897  -14.2737   17.8171 C   0  0  1  0  0  0  0  0  0  0  0  0
    7.9951  -13.0887   18.5724 C   0  0  0  0  0  0  0  0  0  0  0  0
    7.8713  -11.6360   17.5087 S   0  0  0  0  0  0  0  0  0  0  0  0
    8.9335  -15.3516   18.7521 C   0  0  0  0  0  0  0  0  0  0  0  0
    8.0092  -16.0737   19.1966 O   0  0  0  0  0  0  0  0  0  0  0  0
   10.3673  -18.5464   18.4413 C   0  0  0  0  0  0  0  0  0  0  0  0
   11.2146  -17.8667   19.4771 C   0  0  1  0  0  0  0  0  0  0  0  0
   12.3985  -17.4709   18.8665 O   0  0  0  0  0  0  0  0  0  0  0  0
   10.5034  -16.7028   20.1337 C   0  0  2  0  0  0  0  0  0  0  0  0
   10.2499  -15.6388   19.1942 N   0  0  0  0  0  0  0  0  0  0  0  0
   11.3873  -16.2413   21.2538 C   0  0  0  0  0  0  0  0  0  0  0  0
   12.3023  -15.4176   21.0111 O   0  0  0  0  0  0  0  0  0  0  0  0
   10.4522  -17.6085   25.0019 O   0  0  0  0  0  0  0  0  0  0  0  0
   11.1454  -16.3860   24.9334 C   0  0  0  0  0  0  0  0  0  0  0  0
   11.9900  -16.3964   23.6678 C   0  0  2  0  0  0  0  0  0  0  0  0
   11.1668  -16.7474   22.5589 N   0  0  0  0  0  0  0  0  0  0  0  0
   13.1801  -17.2635   23.8154 C   0  0  0  0  0  0  0  0  0  0  0  0
   13.3734  -18.2984   23.1417 O   0  0  0  0  0  0  0  0  0  0  0  0
   14.1353  -16.9053   24.7565 O   0  0  0  0  0  0  0  0  0  0  0  0
  2  3  1  0
  2  1  1  6
  4  3  1  0
  5  2  1  0
  5  6  2  0
  8  7  1  6
  8 10  1  0
  9  8  1  0
 10 12  1  0
 10 11  1  6
 11  5  1  0
 12 13  2  0
 15 14  1  0
 16 15  1  1
 17 16  1  0
 17 12  1  0
 18 16  1  0
 19 18  2  0
 20 18  1  0
M  END
$$$$
