CTS.pdb
     RDKit          3D

 20 19  0  0  1  0  0  0  0  0999 V2000
   -0.9916  -25.7361   25.3019 N   0  0  0  0  0  0  0  0  0  0  0  0
   -1.9283  -26.1104   26.3628 C   0  0  1  0  0  0  0  0  0  0  0  0
   -1.1953  -25.9898   27.6956 C   0  0  0  0  0  0  0  0  0  0  0  0
    0.2027  -27.1287   27.7739 S   0  0  0  0  0  0  0  0  0  0  0  0
   -3.1065  -25.2352   26.3498 C   0  0  0  0  0  0  0  0  0  0  0  0
   -2.9364  -24.0082   26.1531 O   0  0  0  0  0  0  0  0  0  0  0  0
   -5.8863  -25.1017   23.9935 C   0  0  0  0  0  0  0  0  0  0  0  0
   -6.5112  -25.1700   25.3564 C   0  0  1  0  0  0  0  0  0  0  0  0
   -6.9949  -26.4598   25.5395 O   0  0  0  0  0  0  0  0  0  0  0  0
   -5.5499  -24.7682   26.4545 C   0  0  2  0  0  0  0  0  0  0  0  0
   -4.4381  -25.6818   26.5456 N   0  0  0  0  0  0  0  0  0  0  0  0
   -6.3428  -24.7466   27.7273 C   0  0  0  0  0  0  0  0  0  0  0  0
   -6.5388  -25.8217   28.3440 O   0  0  0  0  0  0  0  0  0  0  0  0
   -6.5896  -21.2943   29.8903 O   0  0  0  0  0  0  0  0  0  0  0  0
   -6.7537  -22.5887   30.4170 C   0  0  0  0  0  0  0  0  0  0  0  0
   -7.5747  -23.3981   29.4239 C   0  0  2  0  0  0  0  0  0  0  0  0
   -6.8511  -23.5118   28.2016 N   0  0  0  0  0  0  0  0  0  0  0  0
   -8.9325  -22.8346   29.2540 C   0  0  0  0  0  0  0  0  0  0  0  0
   -9.3669  -22.3830   28.1725 O   0  0  0  0  0  0  0  0  0  0  0  0
   -9.7702  -22.8069   30.3604 O   0  0  0  0  0  0  0  0  0  0  0  0
  2  3  1  0
  2  1  1  6
  4  3  1  0
  5  2  1  0
  5  6  2  0
  8  7  1  6
  8 10  1  0
  9  8  1  0
 10 12  1  0
 10 11  1  1
 11  5  1  0
 12 13  2  0
 15 14  1  0
 16 15  1  1
 17 16  1  0
 17 12  1  0
 18 16  1  0
 19 18  2  0
 20 18  1  0
M  END
$$$$
