CTS.pdb
     RDKit          3D

 20 19  0  0  1  0  0  0  0  0999 V2000
    7.6004  -14.8102   17.3769 N   0  0  0  0  0  0  0  0  0  0  0  0
    8.6212  -14.3212   18.3051 C   0  0  1  0  0  0  0  0  0  0  0  0
    7.9958  -13.2095   19.1424 C   0  0  0  0  0  0  0  0  0  0  0  0
    7.8167  -11.6933   18.1798 S   0  0  0  0  0  0  0  0  0  0  0  0
    9.0973  -15.4047   19.1733 C   0  0  0  0  0  0  0  0  0  0  0  0
    8.2522  -16.1893   19.6667 O   0  0  0  0  0  0  0  0  0  0  0  0
   10.8337  -18.3700   18.4757 C   0  0  0  0  0  0  0  0  0  0  0  0
   11.6224  -17.7778   19.6071 C   0  0  1  0  0  0  0  0  0  0  0  0
   12.8076  -17.2755   19.0835 O   0  0  0  0  0  0  0  0  0  0  0  0
   10.8468  -16.7190   20.3612 C   0  0  2  0  0  0  0  0  0  0  0  0
   10.4590  -15.6311   19.4981 N   0  0  0  0  0  0  0  0  0  0  0  0
   11.7407  -16.2442   21.4679 C   0  0  0  0  0  0  0  0  0  0  0  0
   12.0198  -15.0234   21.5475 O   0  0  0  0  0  0  0  0  0  0  0  0
   10.5748  -16.6159   25.5511 O   0  0  0  0  0  0  0  0  0  0  0  0
   10.6658  -16.7736   24.1559 C   0  0  0  0  0  0  0  0  0  0  0  0
   12.1264  -17.0179   23.8061 C   0  0  2  0  0  0  0  0  0  0  0  0
   12.2478  -17.1869   22.3964 N   0  0  0  0  0  0  0  0  0  0  0  0
   12.6913  -18.1424   24.5848 C   0  0  0  0  0  0  0  0  0  0  0  0
   12.4783  -19.3456   24.3218 O   0  0  0  0  0  0  0  0  0  0  0  0
   13.5040  -17.8416   25.6690 O   0  0  0  0  0  0  0  0  0  0  0  0
  2  3  1  0
  2  1  1  6
  4  3  1  0
  5  2  1  0
  5  6  2  0
  8  7  1  6
  8 10  1  0
  9  8  1  0
 10 12  1  0
 10 11  1  6
 11  5  1  0
 12 13  2  0
 15 14  1  0
 16 15  1  6
 17 16  1  0
 17 12  1  0
 18 16  1  0
 19 18  2  0
 20 18  1  0
M  END
$$$$
