CTS.pdb
     RDKit          3D

 20 19  0  0  1  0  0  0  0  0999 V2000
    8.0869  -14.2804   16.9901 N   0  0  0  0  0  0  0  0  0  0  0  0
    8.9515  -13.7280   18.0342 C   0  0  1  0  0  0  0  0  0  0  0  0
    8.0544  -13.1455   19.1224 C   0  0  0  0  0  0  0  0  0  0  0  0
    7.0333  -11.8057   18.4746 S   0  0  0  0  0  0  0  0  0  0  0  0
    9.8206  -14.7691   18.5955 C   0  0  0  0  0  0  0  0  0  0  0  0
    9.3370  -15.9102   18.7885 O   0  0  0  0  0  0  0  0  0  0  0  0
   13.0783  -16.1184   17.2826 C   0  0  0  0  0  0  0  0  0  0  0  0
   13.2806  -15.8140   18.7383 C   0  0  1  0  0  0  0  0  0  0  0  0
   14.0712  -14.6748   18.8297 O   0  0  0  0  0  0  0  0  0  0  0  0
   11.9726  -15.6526   19.4829 C   0  0  2  0  0  0  0  0  0  0  0  0
   11.1828  -14.5759   18.9390 N   0  0  0  0  0  0  0  0  0  0  0  0
   12.3283  -15.3965   20.9172 C   0  0  0  0  0  0  0  0  0  0  0  0
   12.7598  -14.2656   21.2477 O   0  0  0  0  0  0  0  0  0  0  0  0
   11.4218  -16.4730   25.4017 O   0  0  0  0  0  0  0  0  0  0  0  0
   11.1658  -16.6773   24.0333 C   0  0  0  0  0  0  0  0  0  0  0  0
   12.4040  -16.2542   23.2566 C   0  0  2  0  0  0  0  0  0  0  0  0
   12.1681  -16.4390   21.8635 N   0  0  0  0  0  0  0  0  0  0  0  0
   13.6161  -16.9482   23.7456 C   0  0  0  0  0  0  0  0  0  0  0  0
   14.0839  -16.8023   24.8955 O   0  0  0  0  0  0  0  0  0  0  0  0
   14.2696  -17.8102   22.8759 O   0  0  0  0  0  0  0  0  0  0  0  0
  2  3  1  0
  2  1  1  6
  4  3  1  0
  5  2  1  0
  5  6  2  0
  8  7  1  6
  8 10  1  0
  9  8  1  0
 10 12  1  0
 10 11  1  6
 11  5  1  0
 12 13  2  0
 15 14  1  0
 16 15  1  1
 17 16  1  0
 17 12  1  0
 18 16  1  0
 19 18  2  0
 20 18  1  0
M  END
$$$$
