CTS.pdb
     RDKit          3D

 20 19  0  0  1  0  0  0  0  0999 V2000
    8.8194  -17.1068   16.4798 N   0  0  0  0  0  0  0  0  0  0  0  0
    8.0080  -17.1956   17.6949 C   0  0  1  0  0  0  0  0  0  0  0  0
    7.7232  -18.6713   17.9583 C   0  0  0  0  0  0  0  0  0  0  0  0
    6.7281  -19.3876   16.6340 S   0  0  0  0  0  0  0  0  0  0  0  0
    8.7139  -16.6025   18.8369 C   0  0  0  0  0  0  0  0  0  0  0  0
    9.9680  -16.6244   18.8402 O   0  0  0  0  0  0  0  0  0  0  0  0
    7.7233  -13.1435   20.7477 C   0  0  0  0  0  0  0  0  0  0  0  0
    8.0527  -14.2733   21.6792 C   0  0  1  0  0  0  0  0  0  0  0  0
    6.8606  -14.7451   22.2154 O   0  0  0  0  0  0  0  0  0  0  0  0
    8.8385  -15.3738   20.9989 C   0  0  2  0  0  0  0  0  0  0  0  0
    8.0734  -15.9998   19.9493 N   0  0  0  0  0  0  0  0  0  0  0  0
    9.2039  -16.3594   22.0686 C   0  0  0  0  0  0  0  0  0  0  0  0
    8.4971  -17.3846   22.2227 O   0  0  0  0  0  0  0  0  0  0  0  0
   13.0386  -16.5170   23.3886 O   0  0  0  0  0  0  0  0  0  0  0  0
   12.1294  -17.5855   23.4952 C   0  0  0  0  0  0  0  0  0  0  0  0
   10.7763  -17.0118   23.8896 C   0  0  2  0  0  0  0  0  0  0  0  0
   10.3389  -16.1077   22.8787 N   0  0  0  0  0  0  0  0  0  0  0  0
   10.8138  -16.4103   25.2413 C   0  0  0  0  0  0  0  0  0  0  0  0
   11.0909  -17.0499   26.2788 O   0  0  0  0  0  0  0  0  0  0  0  0
   10.5243  -15.0582   25.3616 O   0  0  0  0  0  0  0  0  0  0  0  0
  2  3  1  0
  2  1  1  6
  4  3  1  0
  5  2  1  0
  5  6  2  0
  8  7  1  6
  8 10  1  0
  9  8  1  0
 10 12  1  0
 10 11  1  6
 11  5  1  0
 12 13  2  0
 15 14  1  0
 16 15  1  6
 17 16  1  0
 17 12  1  0
 18 16  1  0
 19 18  2  0
 20 18  1  0
M  END
$$$$
