CTS.pdb
     RDKit          3D

 20 19  0  0  1  0  0  0  0  0999 V2000
    8.6435  -14.7438   14.1815 N   0  0  0  0  0  0  0  0  0  0  0  0
    8.4252  -15.5466   15.3860 C   0  0  1  0  0  0  0  0  0  0  0  0
    9.0167  -16.9308   15.1370 C   0  0  0  0  0  0  0  0  0  0  0  0
    8.4181  -17.6233   13.5816 S   0  0  0  0  0  0  0  0  0  0  0  0
    9.0645  -14.9226   16.5505 C   0  0  0  0  0  0  0  0  0  0  0  0
   10.1324  -14.2880   16.3766 O   0  0  0  0  0  0  0  0  0  0  0  0
    7.4340  -12.6659   19.4124 C   0  0  0  0  0  0  0  0  0  0  0  0
    8.2697  -13.7771   19.9778 C   0  0  1  0  0  0  0  0  0  0  0  0
    7.4084  -14.7520   20.4665 O   0  0  0  0  0  0  0  0  0  0  0  0
    9.2428  -14.3420   18.9652 C   0  0  2  0  0  0  0  0  0  0  0  0
    8.5563  -14.9860   17.8729 N   0  0  0  0  0  0  0  0  0  0  0  0
   10.1146  -15.3107   19.7074 C   0  0  0  0  0  0  0  0  0  0  0  0
    9.9511  -16.5418   19.5283 O   0  0  0  0  0  0  0  0  0  0  0  0
   14.1502  -15.8027   22.2604 O   0  0  0  0  0  0  0  0  0  0  0  0
   13.2543  -14.9029   21.6543 C   0  0  0  0  0  0  0  0  0  0  0  0
   11.9772  -15.6625   21.3264 C   0  0  2  0  0  0  0  0  0  0  0  0
   11.1015  -14.8107   20.5929 N   0  0  0  0  0  0  0  0  0  0  0  0
   11.3586  -16.2365   22.5421 C   0  0  0  0  0  0  0  0  0  0  0  0
   10.3094  -15.7980   23.0608 O   0  0  0  0  0  0  0  0  0  0  0  0
   11.9808  -17.3242   23.1390 O   0  0  0  0  0  0  0  0  0  0  0  0
  2  3  1  0
  2  1  1  6
  4  3  1  0
  5  2  1  0
  5  6  2  0
  8  7  1  6
  8 10  1  0
  9  8  1  0
 10 12  1  0
 10 11  1  6
 11  5  1  0
 12 13  2  0
 15 14  1  0
 16 15  1  1
 17 16  1  0
 17 12  1  0
 18 16  1  0
 19 18  2  0
 20 18  1  0
M  END
$$$$
