CTS.pdb
     RDKit          3D

 20 19  0  0  1  0  0  0  0  0999 V2000
    7.6218  -14.7923   17.4088 N   0  0  0  0  0  0  0  0  0  0  0  0
    8.4311  -14.3182   18.5326 C   0  0  1  0  0  0  0  0  0  0  0  0
    7.7316  -13.1008   19.1298 C   0  0  0  0  0  0  0  0  0  0  0  0
    8.2639  -11.5808   18.3152 S   0  0  0  0  0  0  0  0  0  0  0  0
    8.5787  -15.3682   19.5475 C   0  0  0  0  0  0  0  0  0  0  0  0
    7.5626  -16.0241   19.8799 O   0  0  0  0  0  0  0  0  0  0  0  0
   10.0885  -18.5867   19.4970 C   0  0  0  0  0  0  0  0  0  0  0  0
   10.6880  -17.9174   20.6992 C   0  0  1  0  0  0  0  0  0  0  0  0
   11.9852  -17.5394   20.3741 O   0  0  0  0  0  0  0  0  0  0  0  0
    9.8629  -16.7424   21.1789 C   0  0  2  0  0  0  0  0  0  0  0  0
    9.8008  -15.6983   20.1865 N   0  0  0  0  0  0  0  0  0  0  0  0
   10.5093  -16.2559   22.4417 C   0  0  0  0  0  0  0  0  0  0  0  0
   11.4148  -15.3901   22.3708 O   0  0  0  0  0  0  0  0  0  0  0  0
    8.6022  -16.1944   25.9307 O   0  0  0  0  0  0  0  0  0  0  0  0
    9.8320  -15.5429   25.7236 C   0  0  0  0  0  0  0  0  0  0  0  0
   10.7249  -16.4732   24.9157 C   0  0  2  0  0  0  0  0  0  0  0  0
   10.0809  -16.7866   23.6838 N   0  0  0  0  0  0  0  0  0  0  0  0
   11.1139  -17.6681   25.6974 C   0  0  0  0  0  0  0  0  0  0  0  0
   10.7586  -18.8316   25.4107 O   0  0  0  0  0  0  0  0  0  0  0  0
   11.9196  -17.4839   26.8125 O   0  0  0  0  0  0  0  0  0  0  0  0
  2  3  1  0
  2  1  1  6
  4  3  1  0
  5  2  1  0
  5  6  2  0
  8  7  1  6
  8 10  1  0
  9  8  1  0
 10 12  1  0
 10 11  1  6
 11  5  1  0
 12 13  2  0
 15 14  1  0
 16 15  1  1
 17 16  1  0
 17 12  1  0
 18 16  1  0
 19 18  2  0
 20 18  1  0
M  END
$$$$
