CTS.pdb
     RDKit          3D

 20 19  0  0  1  0  0  0  0  0999 V2000
    8.1885  -15.6164   15.0960 N   0  0  0  0  0  0  0  0  0  0  0  0
    9.0161  -14.9582   16.1083 C   0  0  1  0  0  0  0  0  0  0  0  0
    8.2632  -13.7236   16.5951 C   0  0  0  0  0  0  0  0  0  0  0  0
    8.0097  -12.5452   15.2518 S   0  0  0  0  0  0  0  0  0  0  0  0
    9.2852  -15.8648   17.2307 C   0  0  0  0  0  0  0  0  0  0  0  0
    8.3442  -16.5700   17.6673 O   0  0  0  0  0  0  0  0  0  0  0  0
   11.1402  -18.9639   17.5460 C   0  0  0  0  0  0  0  0  0  0  0  0
   11.7014  -18.0338   18.5818 C   0  0  1  0  0  0  0  0  0  0  0  0
   12.9011  -17.5284   18.0955 O   0  0  0  0  0  0  0  0  0  0  0  0
   10.7346  -16.9297   18.9526 C   0  0  2  0  0  0  0  0  0  0  0  0
   10.5463  -16.0027   17.8643 N   0  0  0  0  0  0  0  0  0  0  0  0
   11.3108  -16.2462   20.1567 C   0  0  0  0  0  0  0  0  0  0  0  0
   12.0604  -15.2529   19.9958 O   0  0  0  0  0  0  0  0  0  0  0  0
    9.2364  -15.6831   23.3200 O   0  0  0  0  0  0  0  0  0  0  0  0
   10.4264  -16.3054   23.7398 C   0  0  0  0  0  0  0  0  0  0  0  0
   11.4637  -16.1221   22.6418 C   0  0  2  0  0  0  0  0  0  0  0  0
   10.9940  -16.7399   21.4467 N   0  0  0  0  0  0  0  0  0  0  0  0
   12.7972  -16.6022   23.0679 C   0  0  0  0  0  0  0  0  0  0  0  0
   13.3644  -17.6027   22.5783 O   0  0  0  0  0  0  0  0  0  0  0  0
   13.4540  -15.8998   24.0687 O   0  0  0  0  0  0  0  0  0  0  0  0
  2  3  1  0
  2  1  1  6
  4  3  1  0
  5  2  1  0
  5  6  2  0
  8  7  1  6
  8 10  1  0
  9  8  1  0
 10 12  1  0
 10 11  1  6
 11  5  1  0
 12 13  2  0
 15 14  1  0
 16 15  1  1
 17 16  1  0
 17 12  1  0
 18 16  1  0
 19 18  2  0
 20 18  1  0
M  END
$$$$
