CTS.pdb
     RDKit          3D

 20 19  0  0  1  0  0  0  0  0999 V2000
    8.1967  -14.4852   16.5143 N   0  0  0  0  0  0  0  0  0  0  0  0
    9.0611  -14.4662   17.6955 C   0  0  1  0  0  0  0  0  0  0  0  0
    9.2992  -13.0078   18.0754 C   0  0  0  0  0  0  0  0  0  0  0  0
    7.8013  -12.2586   18.7481 S   0  0  0  0  0  0  0  0  0  0  0  0
    8.4348  -15.1862   18.8106 C   0  0  0  0  0  0  0  0  0  0  0  0
    7.1824  -15.2120   18.8762 O   0  0  0  0  0  0  0  0  0  0  0  0
    8.1265  -18.6196   19.5554 C   0  0  0  0  0  0  0  0  0  0  0  0
    8.6508  -18.0342   20.8341 C   0  0  1  0  0  0  0  0  0  0  0  0
    9.9886  -18.3921   20.9498 O   0  0  0  0  0  0  0  0  0  0  0  0
    8.4614  -16.5339   20.9040 C   0  0  2  0  0  0  0  0  0  0  0  0
    9.1512  -15.8623   19.8307 N   0  0  0  0  0  0  0  0  0  0  0  0
    8.9831  -16.1011   22.2418 C   0  0  0  0  0  0  0  0  0  0  0  0
   10.1694  -15.7030   22.3359 O   0  0  0  0  0  0  0  0  0  0  0  0
    6.4563  -16.5437   25.4622 O   0  0  0  0  0  0  0  0  0  0  0  0
    7.2789  -15.4024   25.4865 C   0  0  0  0  0  0  0  0  0  0  0  0
    8.5199  -15.7014   24.6584 C   0  0  2  0  0  0  0  0  0  0  0  0
    8.1227  -16.1528   23.3665 N   0  0  0  0  0  0  0  0  0  0  0  0
    9.4266  -16.6397   25.3569 C   0  0  0  0  0  0  0  0  0  0  0  0
    9.7279  -17.7707   24.9183 O   0  0  0  0  0  0  0  0  0  0  0  0
    9.9726  -16.2388   26.5683 O   0  0  0  0  0  0  0  0  0  0  0  0
  2  3  1  0
  2  1  1  6
  4  3  1  0
  5  2  1  0
  5  6  2  0
  8  7  1  6
  8 10  1  0
  9  8  1  0
 10 12  1  0
 10 11  1  6
 11  5  1  0
 12 13  2  0
 15 14  1  0
 16 15  1  1
 17 16  1  0
 17 12  1  0
 18 16  1  0
 19 18  2  0
 20 18  1  0
M  END
$$$$
