CTS.pdb
     RDKit          3D

 20 19  0  0  1  0  0  0  0  0999 V2000
    5.1616  -12.7358   26.3970 N   0  0  0  0  0  0  0  0  0  0  0  0
    6.5084  -12.5846   25.8437 C   0  0  1  0  0  0  0  0  0  0  0  0
    7.4340  -12.1594   26.9798 C   0  0  0  0  0  0  0  0  0  0  0  0
    7.1114  -10.4549   27.4775 S   0  0  0  0  0  0  0  0  0  0  0  0
    6.9736  -13.8456   25.2540 C   0  0  0  0  0  0  0  0  0  0  0  0
    6.7197  -14.9159   25.8567 O   0  0  0  0  0  0  0  0  0  0  0  0
    7.1826  -14.5062   21.2830 C   0  0  0  0  0  0  0  0  0  0  0  0
    8.3213  -15.1580   22.0119 C   0  0  1  0  0  0  0  0  0  0  0  0
    9.4823  -14.4613   21.6989 O   0  0  0  0  0  0  0  0  0  0  0  0
    8.0898  -15.2237   23.5064 C   0  0  2  0  0  0  0  0  0  0  0  0
    7.6975  -13.9423   24.0385 N   0  0  0  0  0  0  0  0  0  0  0  0
    9.3762  -15.6958   24.1158 C   0  0  0  0  0  0  0  0  0  0  0  0
   10.1979  -14.8488   24.5424 O   0  0  0  0  0  0  0  0  0  0  0  0
    9.8627  -18.8778   26.3334 O   0  0  0  0  0  0  0  0  0  0  0  0
   10.6779  -19.0048   25.1936 C   0  0  0  0  0  0  0  0  0  0  0  0
   10.8881  -17.6151   24.6105 C   0  0  2  0  0  0  0  0  0  0  0  0
    9.6315  -17.0874   24.1945 N   0  0  0  0  0  0  0  0  0  0  0  0
   11.9073  -17.6241   23.5375 C   0  0  0  0  0  0  0  0  0  0  0  0
   11.6793  -17.2721   22.3600 O   0  0  0  0  0  0  0  0  0  0  0  0
   13.1892  -18.0480   23.8592 O   0  0  0  0  0  0  0  0  0  0  0  0
  2  3  1  0
  2  1  1  1
  4  3  1  0
  5  2  1  0
  5  6  2  0
  8  7  1  6
  8 10  1  0
  9  8  1  0
 10 12  1  0
 10 11  1  1
 11  5  1  0
 12 13  2  0
 15 14  1  0
 16 15  1  6
 17 16  1  0
 17 12  1  0
 18 16  1  0
 19 18  2  0
 20 18  1  0
M  END
$$$$
