CTS.pdb
     RDKit          3D

 20 19  0  0  1  0  0  0  0  0999 V2000
    8.2176  -14.2889   17.8973 N   0  0  0  0  0  0  0  0  0  0  0  0
    9.2707  -13.8570   18.8178 C   0  0  1  0  0  0  0  0  0  0  0  0
    8.6696  -12.8173   19.7589 C   0  0  0  0  0  0  0  0  0  0  0  0
    8.3562  -11.2634   18.8960 S   0  0  0  0  0  0  0  0  0  0  0  0
    9.7916  -14.9953   19.5840 C   0  0  0  0  0  0  0  0  0  0  0  0
    8.9815  -15.8633   19.9886 O   0  0  0  0  0  0  0  0  0  0  0  0
   11.6101  -17.8210   18.5337 C   0  0  0  0  0  0  0  0  0  0  0  0
   12.4209  -17.2675   19.6691 C   0  0  1  0  0  0  0  0  0  0  0  0
   13.5083  -16.5930   19.1272 O   0  0  0  0  0  0  0  0  0  0  0  0
   11.6052  -16.3781   20.5829 C   0  0  2  0  0  0  0  0  0  0  0  0
   11.1598  -15.1869   19.9035 N   0  0  0  0  0  0  0  0  0  0  0  0
   12.4873  -16.0427   21.7485 C   0  0  0  0  0  0  0  0  0  0  0  0
   13.2467  -15.0467   21.6740 O   0  0  0  0  0  0  0  0  0  0  0  0
   13.6736  -17.3165   26.2734 O   0  0  0  0  0  0  0  0  0  0  0  0
   12.8027  -17.5181   25.1868 C   0  0  0  0  0  0  0  0  0  0  0  0
   13.2649  -16.6261   24.0440 C   0  0  2  0  0  0  0  0  0  0  0  0
   12.4408  -16.8598   22.9053 N   0  0  0  0  0  0  0  0  0  0  0  0
   14.7093  -16.7972   23.7705 C   0  0  0  0  0  0  0  0  0  0  0  0
   15.1668  -17.6039   22.9326 O   0  0  0  0  0  0  0  0  0  0  0  0
   15.6056  -16.0161   24.4868 O   0  0  0  0  0  0  0  0  0  0  0  0
  2  3  1  0
  2  1  1  6
  4  3  1  0
  5  2  1  0
  5  6  2  0
  8  7  1  6
  8 10  1  0
  9  8  1  0
 10 12  1  0
 10 11  1  6
 11  5  1  0
 12 13  2  0
 15 14  1  0
 16 15  1  1
 17 16  1  0
 17 12  1  0
 18 16  1  0
 19 18  2  0
 20 18  1  0
M  END
$$$$
