CTS.pdb
     RDKit          3D

 20 19  0  0  1  0  0  0  0  0999 V2000
    8.1725  -14.3097   16.5683 N   0  0  0  0  0  0  0  0  0  0  0  0
    8.5863  -13.8982   17.9108 C   0  0  1  0  0  0  0  0  0  0  0  0
    7.6202  -12.8168   18.3854 C   0  0  0  0  0  0  0  0  0  0  0  0
    7.9283  -12.3812   20.1095 S   0  0  0  0  0  0  0  0  0  0  0  0
    8.5661  -15.0388   18.8344 C   0  0  0  0  0  0  0  0  0  0  0  0
    7.6009  -15.8377   18.7752 O   0  0  0  0  0  0  0  0  0  0  0  0
   10.2457  -18.1035   19.1125 C   0  0  0  0  0  0  0  0  0  0  0  0
   10.4193  -17.4961   20.4740 C   0  0  1  0  0  0  0  0  0  0  0  0
   11.7318  -17.0515   20.5782 O   0  0  0  0  0  0  0  0  0  0  0  0
    9.4259  -16.3861   20.7434 C   0  0  2  0  0  0  0  0  0  0  0  0
    9.5700  -15.3057   19.7996 N   0  0  0  0  0  0  0  0  0  0  0  0
    9.6780  -15.9209   22.1467 C   0  0  0  0  0  0  0  0  0  0  0  0
   10.3509  -14.8784   22.3337 O   0  0  0  0  0  0  0  0  0  0  0  0
    7.1443  -15.7517   24.8468 O   0  0  0  0  0  0  0  0  0  0  0  0
    8.1565  -16.5501   25.4104 C   0  0  0  0  0  0  0  0  0  0  0  0
    9.4217  -16.3521   24.5886 C   0  0  2  0  0  0  0  0  0  0  0  0
    9.1496  -16.6709   23.2267 N   0  0  0  0  0  0  0  0  0  0  0  0
   10.5613  -17.1084   25.1539 C   0  0  0  0  0  0  0  0  0  0  0  0
   11.1235  -18.0586   24.5680 O   0  0  0  0  0  0  0  0  0  0  0  0
   11.0312  -16.7397   26.4068 O   0  0  0  0  0  0  0  0  0  0  0  0
  2  3  1  0
  2  1  1  6
  4  3  1  0
  5  2  1  0
  5  6  2  0
  8  7  1  6
  8 10  1  0
  9  8  1  0
 10 12  1  0
 10 11  1  6
 11  5  1  0
 12 13  2  0
 15 14  1  0
 16 15  1  1
 17 16  1  0
 17 12  1  0
 18 16  1  0
 19 18  2  0
 20 18  1  0
M  END
$$$$
