LMA.pdb
     RDKit          3D

 22 21  0  0  1  0  0  0  0  0999 V2000
    7.4376  -14.7934   18.8261 C   0  0  0  0  0  0  0  0  0  0  0  0
    7.9895  -13.8727   19.8897 C   0  0  2  0  0  0  0  0  0  0  0  0
    7.9040  -12.4153   19.4991 C   0  0  0  0  0  0  0  0  0  0  0  0
    9.3595  -14.2834   20.3518 C   0  0  0  0  0  0  0  0  0  0  0  0
    9.3317  -15.4954   21.2527 C   0  0  2  0  0  0  0  0  0  0  0  0
    8.1944  -16.3434   20.9771 N   0  0  0  0  0  0  0  0  0  0  0  0
    9.2502  -15.0065   22.6480 C   0  0  0  0  0  0  0  0  0  0  0  0
   10.1045  -14.1815   23.0491 O   0  0  0  0  0  0  0  0  0  0  0  0
    5.5414  -11.4480   26.9928 C   0  0  0  0  0  0  0  0  0  0  0  0
    7.0665  -12.3556   26.6149 S   0  0  0  0  0  0  0  0  0  0  0  0
    6.6528  -14.1414   26.7335 C   0  0  0  0  0  0  0  0  0  0  0  0
    6.7575  -14.7908   25.3852 C   0  0  0  0  0  0  0  0  0  0  0  0
    8.1758  -14.8512   24.9315 C   0  0  2  0  0  0  0  0  0  0  0  0
    8.2627  -15.4115   23.5693 N   0  0  0  0  0  0  0  0  0  0  0  0
    9.1338  -15.4995   25.8254 C   0  0  0  0  0  0  0  0  0  0  0  0
    9.5103  -16.6875   25.7177 O   0  0  0  0  0  0  0  0  0  0  0  0
   11.0380  -14.4153   28.9003 C   0  0  0  0  0  0  0  0  0  0  0  0
   10.6770  -15.4162   27.8050 C   0  0  2  0  0  0  0  0  0  0  0  0
    9.7291  -14.7793   26.9335 N   0  0  0  0  0  0  0  0  0  0  0  0
   10.2079  -16.6803   28.3645 C   0  0  0  0  0  0  0  0  0  0  0  0
    8.9835  -16.9196   28.4160 O   0  0  0  0  0  0  0  0  0  0  0  0
   11.0877  -17.6280   28.8429 O   0  0  0  0  0  0  0  0  0  0  0  0
  2  1  1  6
  2  4  1  0
  2  3  1  0
  4  5  1  0
  5  7  1  0
  5  6  1  6
  7  8  2  0
  9 10  1  0
 10 11  1  0
 11 12  1  0
 13 12  1  1
 13 15  1  0
 14 13  1  0
 14  7  1  0
 15 19  1  0
 15 16  2  0
 18 17  1  1
 18 20  1  0
 19 18  1  0
 20 21  2  0
 20 22  1  0
M  END
$$$$
