LMA.pdb
     RDKit          3D

 22 21  0  0  1  0  0  0  0  0999 V2000
    7.6818  -14.2937   18.1640 C   0  0  0  0  0  0  0  0  0  0  0  0
    7.8162  -13.3724   19.3541 C   0  0  2  0  0  0  0  0  0  0  0  0
    7.8450  -11.9137   18.9603 C   0  0  0  0  0  0  0  0  0  0  0  0
    8.9494  -13.7646   20.2603 C   0  0  0  0  0  0  0  0  0  0  0  0
    8.7560  -15.1292   20.8783 C   0  0  2  0  0  0  0  0  0  0  0  0
    7.4413  -15.6621   20.6025 N   0  0  0  0  0  0  0  0  0  0  0  0
    8.9255  -14.9791   22.3415 C   0  0  0  0  0  0  0  0  0  0  0  0
   10.0217  -14.5599   22.7821 O   0  0  0  0  0  0  0  0  0  0  0  0
    8.2294  -12.3310   28.7771 C   0  0  0  0  0  0  0  0  0  0  0  0
    8.0679  -12.6461   26.9974 S   0  0  0  0  0  0  0  0  0  0  0  0
    7.1706  -14.2401   26.8300 C   0  0  0  0  0  0  0  0  0  0  0  0
    6.9168  -14.5454   25.3833 C   0  0  0  0  0  0  0  0  0  0  0  0
    8.1323  -15.1179   24.7383 C   0  0  2  0  0  0  0  0  0  0  0  0
    7.9234  -15.2799   23.2867 N   0  0  0  0  0  0  0  0  0  0  0  0
    8.6867  -16.3362   25.3259 C   0  0  0  0  0  0  0  0  0  0  0  0
    8.0428  -17.3945   25.4996 O   0  0  0  0  0  0  0  0  0  0  0  0
   12.0226  -17.7587   25.5653 C   0  0  0  0  0  0  0  0  0  0  0  0
   10.6471  -17.6295   26.2157 C   0  0  2  0  0  0  0  0  0  0  0  0
   10.0682  -16.3961   25.7600 N   0  0  0  0  0  0  0  0  0  0  0  0
   10.7261  -17.7431   27.6689 C   0  0  0  0  0  0  0  0  0  0  0  0
   11.2086  -18.7723   28.1854 O   0  0  0  0  0  0  0  0  0  0  0  0
   10.2783  -16.7353   28.4965 O   0  0  0  0  0  0  0  0  0  0  0  0
  2  1  1  6
  2  4  1  0
  2  3  1  0
  4  5  1  0
  5  7  1  0
  5  6  1  1
  7  8  2  0
  9 10  1  0
 10 11  1  0
 11 12  1  0
 13 12  1  1
 13 15  1  0
 14 13  1  0
 14  7  1  0
 15 19  1  0
 15 16  2  0
 18 17  1  6
 18 20  1  0
 19 18  1  0
 20 21  2  0
 20 22  1  0
M  END
$$$$
