LMA.pdb
     RDKit          3D

 22 21  0  0  1  0  0  0  0  0999 V2000
    6.9116  -13.9003   19.0742 C   0  0  0  0  0  0  0  0  0  0  0  0
    8.0238  -13.5734   20.0435 C   0  0  2  0  0  0  0  0  0  0  0  0
    8.4664  -12.1311   19.9563 C   0  0  0  0  0  0  0  0  0  0  0  0
    9.1637  -14.5496   19.9618 C   0  0  0  0  0  0  0  0  0  0  0  0
    8.9275  -15.7919   20.7877 C   0  0  2  0  0  0  0  0  0  0  0  0
    7.5705  -16.2722   20.6593 N   0  0  0  0  0  0  0  0  0  0  0  0
    9.1891  -15.4384   22.2015 C   0  0  0  0  0  0  0  0  0  0  0  0
   10.3143  -14.9802   22.5107 O   0  0  0  0  0  0  0  0  0  0  0  0
    6.6344  -11.3039   26.0895 C   0  0  0  0  0  0  0  0  0  0  0  0
    6.5941  -12.7187   27.2248 S   0  0  0  0  0  0  0  0  0  0  0  0
    7.8316  -13.9237   26.5996 C   0  0  0  0  0  0  0  0  0  0  0  0
    7.5112  -14.3134   25.1868 C   0  0  0  0  0  0  0  0  0  0  0  0
    8.5492  -15.2318   24.6390 C   0  0  2  0  0  0  0  0  0  0  0  0
    8.2452  -15.5841   23.2388 N   0  0  0  0  0  0  0  0  0  0  0  0
    8.8624  -16.4256   25.4222 C   0  0  0  0  0  0  0  0  0  0  0  0
    8.0323  -17.3110   25.7254 O   0  0  0  0  0  0  0  0  0  0  0  0
   11.9040  -18.3163   26.2365 C   0  0  0  0  0  0  0  0  0  0  0  0
   10.5140  -17.8520   26.6654 C   0  0  2  0  0  0  0  0  0  0  0  0
   10.2040  -16.6669   25.9148 N   0  0  0  0  0  0  0  0  0  0  0  0
   10.4285  -17.6739   28.1117 C   0  0  0  0  0  0  0  0  0  0  0  0
   10.1625  -16.5489   28.5836 O   0  0  0  0  0  0  0  0  0  0  0  0
   10.6351  -18.7238   28.9811 O   0  0  0  0  0  0  0  0  0  0  0  0
  2  1  1  6
  2  4  1  0
  2  3  1  0
  4  5  1  0
  5  7  1  0
  5  6  1  1
  7  8  2  0
  9 10  1  0
 10 11  1  0
 11 12  1  0
 13 12  1  1
 13 15  1  0
 14 13  1  0
 14  7  1  0
 15 19  1  0
 15 16  2  0
 18 17  1  1
 18 20  1  0
 19 18  1  0
 20 21  2  0
 20 22  1  0
M  END
$$$$
