LMA.pdb
     RDKit          3D

 22 21  0  0  1  0  0  0  0  0999 V2000
    6.6829  -13.5538   20.0686 C   0  0  0  0  0  0  0  0  0  0  0  0
    8.1099  -13.1329   20.3328 C   0  0  2  0  0  0  0  0  0  0  0  0
    8.4578  -11.8145   19.6810 C   0  0  0  0  0  0  0  0  0  0  0  0
    9.0976  -14.2240   20.0279 C   0  0  0  0  0  0  0  0  0  0  0  0
    8.8393  -15.4826   20.8220 C   0  0  2  0  0  0  0  0  0  0  0  0
    7.4795  -15.9463   20.6663 N   0  0  0  0  0  0  0  0  0  0  0  0
    9.0870  -15.1641   22.2467 C   0  0  0  0  0  0  0  0  0  0  0  0
   10.2535  -14.8803   22.6075 O   0  0  0  0  0  0  0  0  0  0  0  0
    7.0037  -11.1445   27.2003 C   0  0  0  0  0  0  0  0  0  0  0  0
    6.4240  -12.8265   27.5571 S   0  0  0  0  0  0  0  0  0  0  0  0
    7.6401  -13.9700   26.7905 C   0  0  0  0  0  0  0  0  0  0  0  0
    7.3675  -14.1121   25.3221 C   0  0  0  0  0  0  0  0  0  0  0  0
    8.3932  -14.9750   24.6707 C   0  0  2  0  0  0  0  0  0  0  0  0
    8.0857  -15.1583   23.2393 N   0  0  0  0  0  0  0  0  0  0  0  0
    8.6890  -16.2559   25.3100 C   0  0  0  0  0  0  0  0  0  0  0  0
    7.8444  -17.1551   25.5175 O   0  0  0  0  0  0  0  0  0  0  0  0
   11.5373  -18.4233   25.5964 C   0  0  0  0  0  0  0  0  0  0  0  0
   10.3287  -17.8566   26.3380 C   0  0  2  0  0  0  0  0  0  0  0  0
   10.0291  -16.5759   25.7600 N   0  0  0  0  0  0  0  0  0  0  0  0
   10.5527  -17.8156   27.7799 C   0  0  0  0  0  0  0  0  0  0  0  0
   10.5883  -16.7164   28.3713 O   0  0  0  0  0  0  0  0  0  0  0  0
   10.7280  -18.9684   28.5156 O   0  0  0  0  0  0  0  0  0  0  0  0
  2  1  1  6
  2  4  1  0
  2  3  1  0
  4  5  1  0
  5  7  1  0
  5  6  1  1
  7  8  2  0
  9 10  1  0
 10 11  1  0
 11 12  1  0
 13 12  1  1
 13 15  1  0
 14 13  1  0
 14  7  1  0
 15 19  1  0
 15 16  2  0
 18 17  1  6
 18 20  1  0
 19 18  1  0
 20 21  2  0
 20 22  1  0
M  END
$$$$
