LMA.pdb
     RDKit          3D

 22 21  0  0  1  0  0  0  0  0999 V2000
    6.6530  -14.0452   19.8843 C   0  0  0  0  0  0  0  0  0  0  0  0
    7.9855  -13.3865   20.1557 C   0  0  2  0  0  0  0  0  0  0  0  0
    8.1908  -12.1309   19.3401 C   0  0  0  0  0  0  0  0  0  0  0  0
    9.1344  -14.3508   20.0592 C   0  0  0  0  0  0  0  0  0  0  0  0
    8.9616  -15.5548   20.9547 C   0  0  2  0  0  0  0  0  0  0  0  0
    7.6629  -16.1664   20.7875 N   0  0  0  0  0  0  0  0  0  0  0  0
    9.1064  -15.0895   22.3528 C   0  0  0  0  0  0  0  0  0  0  0  0
   10.1822  -14.5476   22.7001 O   0  0  0  0  0  0  0  0  0  0  0  0
    6.6878  -10.7533   26.9817 C   0  0  0  0  0  0  0  0  0  0  0  0
    5.9803  -12.4179   27.1269 S   0  0  0  0  0  0  0  0  0  0  0  0
    7.3079  -13.5921   26.6443 C   0  0  0  0  0  0  0  0  0  0  0  0
    7.0992  -14.0636   25.2355 C   0  0  0  0  0  0  0  0  0  0  0  0
    8.3028  -14.7829   24.7305 C   0  0  2  0  0  0  0  0  0  0  0  0
    8.1021  -15.2161   23.3344 N   0  0  0  0  0  0  0  0  0  0  0  0
    8.8154  -15.8798   25.5497 C   0  0  0  0  0  0  0  0  0  0  0  0
    8.8164  -15.8883   26.8006 O   0  0  0  0  0  0  0  0  0  0  0  0
    9.8772  -19.4067   24.8945 C   0  0  0  0  0  0  0  0  0  0  0  0
    9.8904  -18.1409   25.7484 C   0  0  2  0  0  0  0  0  0  0  0  0
    9.3753  -17.0700   24.9409 N   0  0  0  0  0  0  0  0  0  0  0  0
   11.2156  -17.8784   26.3013 C   0  0  0  0  0  0  0  0  0  0  0  0
   11.8243  -16.8351   25.9851 O   0  0  0  0  0  0  0  0  0  0  0  0
   11.8211  -18.7593   27.1722 O   0  0  0  0  0  0  0  0  0  0  0  0
  2  1  1  6
  2  4  1  0
  2  3  1  0
  4  5  1  0
  5  7  1  0
  5  6  1  1
  7  8  2  0
  9 10  1  0
 10 11  1  0
 11 12  1  0
 13 12  1  1
 13 15  1  0
 14 13  1  0
 14  7  1  0
 15 19  1  0
 15 16  2  0
 18 17  1  6
 18 20  1  0
 19 18  1  0
 20 21  2  0
 20 22  1  0
M  END
$$$$
