LMA.pdb
     RDKit          3D

 22 21  0  0  1  0  0  0  0  0999 V2000
    7.3376  -14.0634   18.4746 C   0  0  0  0  0  0  0  0  0  0  0  0
    7.8220  -13.4649   19.7748 C   0  0  2  0  0  0  0  0  0  0  0  0
    7.8485  -11.9541   19.7457 C   0  0  0  0  0  0  0  0  0  0  0  0
    9.1154  -14.0719   20.2412 C   0  0  0  0  0  0  0  0  0  0  0  0
    8.9202  -15.4018   20.9301 C   0  0  2  0  0  0  0  0  0  0  0  0
    7.5918  -15.9284   20.7143 N   0  0  0  0  0  0  0  0  0  0  0  0
    9.1298  -15.1831   22.3795 C   0  0  0  0  0  0  0  0  0  0  0  0
   10.2453  -14.7670   22.7717 O   0  0  0  0  0  0  0  0  0  0  0  0
    5.7718  -12.5360   27.4851 C   0  0  0  0  0  0  0  0  0  0  0  0
    7.3447  -12.0416   26.7272 S   0  0  0  0  0  0  0  0  0  0  0  0
    7.5083  -13.0203   25.1814 C   0  0  0  0  0  0  0  0  0  0  0  0
    7.3522  -14.4837   25.4726 C   0  0  0  0  0  0  0  0  0  0  0  0
    8.4229  -15.2770   24.8053 C   0  0  2  0  0  0  0  0  0  0  0  0
    8.1459  -15.4142   23.3626 N   0  0  0  0  0  0  0  0  0  0  0  0
    8.7612  -16.5698   25.3978 C   0  0  0  0  0  0  0  0  0  0  0  0
    7.9712  -17.5356   25.4876 O   0  0  0  0  0  0  0  0  0  0  0  0
   11.7069  -18.5682   25.7751 C   0  0  0  0  0  0  0  0  0  0  0  0
   10.4281  -18.1105   26.4727 C   0  0  2  0  0  0  0  0  0  0  0  0
   10.0820  -16.8226   25.9384 N   0  0  0  0  0  0  0  0  0  0  0  0
   10.5718  -18.1277   27.9253 C   0  0  0  0  0  0  0  0  0  0  0  0
   10.8744  -19.1907   28.5063 O   0  0  0  0  0  0  0  0  0  0  0  0
   10.3810  -16.9913   28.6824 O   0  0  0  0  0  0  0  0  0  0  0  0
  2  1  1  6
  2  4  1  0
  2  3  1  0
  4  5  1  0
  5  7  1  0
  5  6  1  1
  7  8  2  0
  9 10  1  0
 10 11  1  0
 11 12  1  0
 13 12  1  1
 13 15  1  0
 14 13  1  0
 14  7  1  0
 15 19  1  0
 15 16  2  0
 18 17  1  6
 18 20  1  0
 19 18  1  0
 20 21  2  0
 20 22  1  0
M  END
$$$$
