LMA.pdb
     RDKit          3D

 22 21  0  0  1  0  0  0  0  0999 V2000
    7.7667  -14.8547   18.5030 C   0  0  0  0  0  0  0  0  0  0  0  0
    7.4765  -13.8413   19.5856 C   0  0  2  0  0  0  0  0  0  0  0  0
    7.1967  -12.4630   19.0326 C   0  0  0  0  0  0  0  0  0  0  0  0
    8.5162  -13.8451   20.6710 C   0  0  0  0  0  0  0  0  0  0  0  0
    8.6040  -15.1707   21.3895 C   0  0  2  0  0  0  0  0  0  0  0  0
    7.3306  -15.8537   21.4138 N   0  0  0  0  0  0  0  0  0  0  0  0
    9.0360  -14.8925   22.7781 C   0  0  0  0  0  0  0  0  0  0  0  0
   10.1856  -14.4316   22.9714 O   0  0  0  0  0  0  0  0  0  0  0  0
    6.4869  -12.1326   27.8187 C   0  0  0  0  0  0  0  0  0  0  0  0
    5.6563  -12.3656   26.2223 S   0  0  0  0  0  0  0  0  0  0  0  0
    6.7521  -13.4445   25.2176 C   0  0  0  0  0  0  0  0  0  0  0  0
    7.7402  -14.1490   26.0997 C   0  0  0  0  0  0  0  0  0  0  0  0
    8.7299  -14.9121   25.2879 C   0  0  2  0  0  0  0  0  0  0  0  0
    8.2307  -15.1137   23.9141 N   0  0  0  0  0  0  0  0  0  0  0  0
    9.2290  -16.1650   25.8518 C   0  0  0  0  0  0  0  0  0  0  0  0
    9.4246  -16.3639   27.0712 O   0  0  0  0  0  0  0  0  0  0  0  0
   10.0443  -19.5644   24.4373 C   0  0  0  0  0  0  0  0  0  0  0  0
   10.0268  -18.5283   25.5589 C   0  0  2  0  0  0  0  0  0  0  0  0
    9.5401  -17.2969   25.0016 N   0  0  0  0  0  0  0  0  0  0  0  0
   11.3316  -18.4099   26.2027 C   0  0  0  0  0  0  0  0  0  0  0  0
   11.6117  -19.1401   27.1761 O   0  0  0  0  0  0  0  0  0  0  0  0
   12.2739  -17.5051   25.7618 O   0  0  0  0  0  0  0  0  0  0  0  0
  2  1  1  6
  2  4  1  0
  2  3  1  0
  4  5  1  0
  5  7  1  0
  5  6  1  1
  7  8  2  0
  9 10  1  0
 10 11  1  0
 11 12  1  0
 13 12  1  1
 13 15  1  0
 14 13  1  0
 14  7  1  0
 15 19  1  0
 15 16  2  0
 18 17  1  6
 18 20  1  0
 19 18  1  0
 20 21  2  0
 20 22  1  0
M  END
$$$$
