LMA.pdb
     RDKit          3D

 22 21  0  0  1  0  0  0  0  0999 V2000
    6.5586  -14.1319   19.7576 C   0  0  0  0  0  0  0  0  0  0  0  0
    7.8168  -13.4190   20.1957 C   0  0  2  0  0  0  0  0  0  0  0  0
    7.9454  -12.0404   19.5898 C   0  0  0  0  0  0  0  0  0  0  0  0
    9.0479  -14.2624   20.0172 C   0  0  0  0  0  0  0  0  0  0  0  0
    9.0272  -15.5111   20.8667 C   0  0  2  0  0  0  0  0  0  0  0  0
    7.8115  -16.2692   20.6775 N   0  0  0  0  0  0  0  0  0  0  0  0
    9.1219  -15.0842   22.2813 C   0  0  0  0  0  0  0  0  0  0  0  0
   10.1588  -14.4936   22.6652 O   0  0  0  0  0  0  0  0  0  0  0  0
    6.9245  -10.9062   27.2852 C   0  0  0  0  0  0  0  0  0  0  0  0
    5.9767  -12.3943   26.8614 S   0  0  0  0  0  0  0  0  0  0  0  0
    7.2060  -13.7202   26.5378 C   0  0  0  0  0  0  0  0  0  0  0  0
    7.0037  -14.2946   25.1667 C   0  0  0  0  0  0  0  0  0  0  0  0
    8.2634  -14.9030   24.6526 C   0  0  2  0  0  0  0  0  0  0  0  0
    8.1105  -15.2997   23.2398 N   0  0  0  0  0  0  0  0  0  0  0  0
    8.8487  -15.9870   25.4396 C   0  0  0  0  0  0  0  0  0  0  0  0
    8.7978  -16.0631   26.6871 O   0  0  0  0  0  0  0  0  0  0  0  0
    9.8942  -19.4433   24.6623 C   0  0  0  0  0  0  0  0  0  0  0  0
   10.0060  -18.2127   25.5594 C   0  0  2  0  0  0  0  0  0  0  0  0
    9.5508  -17.0816   24.7996 N   0  0  0  0  0  0  0  0  0  0  0  0
   11.3546  -18.0589   26.0965 C   0  0  0  0  0  0  0  0  0  0  0  0
   11.8325  -18.9440   26.8363 O   0  0  0  0  0  0  0  0  0  0  0  0
   12.1244  -16.9522   25.8069 O   0  0  0  0  0  0  0  0  0  0  0  0
  2  1  1  6
  2  4  1  0
  2  3  1  0
  4  5  1  0
  5  7  1  0
  5  6  1  1
  7  8  2  0
  9 10  1  0
 10 11  1  0
 11 12  1  0
 13 12  1  1
 13 15  1  0
 14 13  1  0
 14  7  1  0
 15 19  1  0
 15 16  2  0
 18 17  1  6
 18 20  1  0
 19 18  1  0
 20 21  2  0
 20 22  1  0
M  END
$$$$
