LMA.pdb
     RDKit          3D

 22 21  0  0  1  0  0  0  0  0999 V2000
    7.4266  -14.5097   18.9284 C   0  0  0  0  0  0  0  0  0  0  0  0
    7.7332  -13.5275   20.0350 C   0  0  2  0  0  0  0  0  0  0  0  0
    7.5639  -12.0900   19.6004 C   0  0  0  0  0  0  0  0  0  0  0  0
    9.0579  -13.7963   20.6922 C   0  0  0  0  0  0  0  0  0  0  0  0
    9.0943  -15.1258   21.4081 C   0  0  2  0  0  0  0  0  0  0  0  0
    7.9514  -15.9457   21.0764 N   0  0  0  0  0  0  0  0  0  0  0  0
    9.0888  -14.8446   22.8618 C   0  0  0  0  0  0  0  0  0  0  0  0
    9.9766  -14.0967   23.3351 O   0  0  0  0  0  0  0  0  0  0  0  0
    6.4489  -11.8587   27.8116 C   0  0  0  0  0  0  0  0  0  0  0  0
    7.4470  -12.1378   26.3221 S   0  0  0  0  0  0  0  0  0  0  0  0
    6.5799  -13.4324   25.3492 C   0  0  0  0  0  0  0  0  0  0  0  0
    6.9762  -14.7974   25.8292 C   0  0  0  0  0  0  0  0  0  0  0  0
    8.2715  -15.2195   25.2250 C   0  0  2  0  0  0  0  0  0  0  0  0
    8.1393  -15.3684   23.7630 N   0  0  0  0  0  0  0  0  0  0  0  0
    8.9316  -16.3845   25.8115 C   0  0  0  0  0  0  0  0  0  0  0  0
    8.9822  -16.6264   27.0378 O   0  0  0  0  0  0  0  0  0  0  0  0
   10.1132  -19.6546   24.5125 C   0  0  0  0  0  0  0  0  0  0  0  0
   10.1951  -18.5394   25.5524 C   0  0  2  0  0  0  0  0  0  0  0  0
    9.5933  -17.3683   24.9778 N   0  0  0  0  0  0  0  0  0  0  0  0
   11.5647  -18.3333   26.0137 C   0  0  0  0  0  0  0  0  0  0  0  0
   12.1347  -17.2436   25.7978 O   0  0  0  0  0  0  0  0  0  0  0  0
   12.2543  -19.3183   26.6885 O   0  0  0  0  0  0  0  0  0  0  0  0
  2  1  1  6
  2  4  1  0
  2  3  1  0
  4  5  1  0
  5  7  1  0
  5  6  1  1
  7  8  2  0
  9 10  1  0
 10 11  1  0
 11 12  1  0
 13 12  1  1
 13 15  1  0
 14 13  1  0
 14  7  1  0
 15 19  1  0
 15 16  2  0
 18 17  1  6
 18 20  1  0
 19 18  1  0
 20 21  2  0
 20 22  1  0
M  END
$$$$
