LMA.pdb
     RDKit          3D

 22 21  0  0  1  0  0  0  0  0999 V2000
    8.1178  -14.3457   18.1690 C   0  0  0  0  0  0  0  0  0  0  0  0
    7.8615  -13.5352   19.4183 C   0  0  2  0  0  0  0  0  0  0  0  0
    7.6492  -12.0677   19.1264 C   0  0  0  0  0  0  0  0  0  0  0  0
    8.8885  -13.7848   20.4869 C   0  0  0  0  0  0  0  0  0  0  0  0
    8.7678  -15.1591   21.1017 C   0  0  2  0  0  0  0  0  0  0  0  0
    7.4301  -15.6903   20.9710 N   0  0  0  0  0  0  0  0  0  0  0  0
    9.1048  -15.0314   22.5378 C   0  0  0  0  0  0  0  0  0  0  0  0
   10.2370  -14.5972   22.8556 O   0  0  0  0  0  0  0  0  0  0  0  0
    5.4196  -12.0042   26.5094 C   0  0  0  0  0  0  0  0  0  0  0  0
    7.0493  -12.3535   27.2267 S   0  0  0  0  0  0  0  0  0  0  0  0
    8.0283  -13.1861   25.9143 C   0  0  0  0  0  0  0  0  0  0  0  0
    7.6806  -14.6441   25.8510 C   0  0  0  0  0  0  0  0  0  0  0  0
    8.6523  -15.3872   24.9999 C   0  0  2  0  0  0  0  0  0  0  0  0
    8.2262  -15.3698   23.5874 N   0  0  0  0  0  0  0  0  0  0  0  0
    9.0079  -16.7409   25.4219 C   0  0  0  0  0  0  0  0  0  0  0  0
    8.1858  -17.6686   25.5903 O   0  0  0  0  0  0  0  0  0  0  0  0
   11.9768  -18.8296   25.2185 C   0  0  0  0  0  0  0  0  0  0  0  0
   10.7406  -18.4534   26.0322 C   0  0  2  0  0  0  0  0  0  0  0  0
   10.3863  -17.1061   25.6813 N   0  0  0  0  0  0  0  0  0  0  0  0
   10.9560  -18.6538   27.4620 C   0  0  0  0  0  0  0  0  0  0  0  0
   11.2649  -19.7852   27.8904 O   0  0  0  0  0  0  0  0  0  0  0  0
   10.8269  -17.6181   28.3629 O   0  0  0  0  0  0  0  0  0  0  0  0
  2  1  1  6
  2  4  1  0
  2  3  1  0
  4  5  1  0
  5  7  1  0
  5  6  1  1
  7  8  2  0
  9 10  1  0
 10 11  1  0
 11 12  1  0
 13 12  1  1
 13 15  1  0
 14 13  1  0
 14  7  1  0
 15 19  1  0
 15 16  2  0
 18 17  1  6
 18 20  1  0
 19 18  1  0
 20 21  2  0
 20 22  1  0
M  END
$$$$
