LMA.pdb
     RDKit          3D

 22 21  0  0  1  0  0  0  0  0999 V2000
    9.5669  -13.3395   19.2935 C   0  0  0  0  0  0  0  0  0  0  0  0
    8.0830  -13.4776   19.0440 C   0  0  2  0  0  0  0  0  0  0  0  0
    7.4656  -12.2132   18.4928 C   0  0  0  0  0  0  0  0  0  0  0  0
    7.3479  -14.0263   20.2346 C   0  0  0  0  0  0  0  0  0  0  0  0
    8.0218  -15.2416   20.8264 C   0  0  2  0  0  0  0  0  0  0  0  0
    7.1350  -16.3820   20.8652 N   0  0  0  0  0  0  0  0  0  0  0  0
    8.4294  -14.8922   22.2063 C   0  0  0  0  0  0  0  0  0  0  0  0
    9.5354  -14.3297   22.3846 O   0  0  0  0  0  0  0  0  0  0  0  0
    6.1566  -11.4743   26.7538 C   0  0  0  0  0  0  0  0  0  0  0  0
    7.6635  -12.2462   27.4065 S   0  0  0  0  0  0  0  0  0  0  0  0
    7.5805  -14.0224   26.9456 C   0  0  0  0  0  0  0  0  0  0  0  0
    7.1315  -14.1704   25.5218 C   0  0  0  0  0  0  0  0  0  0  0  0
    8.1435  -14.9130   24.7184 C   0  0  2  0  0  0  0  0  0  0  0  0
    7.6469  -15.1528   23.3499 N   0  0  0  0  0  0  0  0  0  0  0  0
    8.6858  -16.1396   25.3001 C   0  0  0  0  0  0  0  0  0  0  0  0
    8.0133  -17.1669   25.5394 O   0  0  0  0  0  0  0  0  0  0  0  0
   12.0118  -17.6631   25.5676 C   0  0  0  0  0  0  0  0  0  0  0  0
   10.6275  -17.4664   26.1814 C   0  0  2  0  0  0  0  0  0  0  0  0
   10.0886  -16.2458   25.6490 N   0  0  0  0  0  0  0  0  0  0  0  0
   10.6753  -17.5039   27.6399 C   0  0  0  0  0  0  0  0  0  0  0  0
   10.3318  -16.4998   28.2980 O   0  0  0  0  0  0  0  0  0  0  0  0
   11.0934  -18.6285   28.3192 O   0  0  0  0  0  0  0  0  0  0  0  0
  2  1  1  1
  2  4  1  0
  2  3  1  0
  4  5  1  0
  5  7  1  0
  5  6  1  1
  7  8  2  0
  9 10  1  0
 10 11  1  0
 11 12  1  0
 13 12  1  1
 13 15  1  0
 14 13  1  0
 14  7  1  0
 15 19  1  0
 15 16  2  0
 18 17  1  6
 18 20  1  0
 19 18  1  0
 20 21  2  0
 20 22  1  0
M  END
$$$$
