LMA.pdb
     RDKit          3D

 22 21  0  0  1  0  0  0  0  0999 V2000
    7.9908  -14.6668   18.0137 C   0  0  0  0  0  0  0  0  0  0  0  0
    7.8876  -13.8140   19.2568 C   0  0  2  0  0  0  0  0  0  0  0  0
    7.5252  -12.3793   18.9498 C   0  0  0  0  0  0  0  0  0  0  0  0
    9.0926  -13.9442   20.1456 C   0  0  0  0  0  0  0  0  0  0  0  0
    9.0842  -15.2188   20.9559 C   0  0  2  0  0  0  0  0  0  0  0  0
    7.8780  -15.9847   20.7396 N   0  0  0  0  0  0  0  0  0  0  0  0
    9.1702  -14.8350   22.3834 C   0  0  0  0  0  0  0  0  0  0  0  0
   10.1750  -14.1974   22.7773 O   0  0  0  0  0  0  0  0  0  0  0  0
    6.8349  -10.8364   27.1535 C   0  0  0  0  0  0  0  0  0  0  0  0
    5.9941  -12.4444   27.1669 S   0  0  0  0  0  0  0  0  0  0  0  0
    7.2554  -13.6956   26.7004 C   0  0  0  0  0  0  0  0  0  0  0  0
    7.1212  -14.0545   25.2499 C   0  0  0  0  0  0  0  0  0  0  0  0
    8.3288  -14.7822   24.7671 C   0  0  2  0  0  0  0  0  0  0  0  0
    8.1845  -15.1423   23.3436 N   0  0  0  0  0  0  0  0  0  0  0  0
    8.7731  -15.9309   25.5545 C   0  0  0  0  0  0  0  0  0  0  0  0
    8.5859  -16.0608   26.7845 O   0  0  0  0  0  0  0  0  0  0  0  0
    9.6481  -19.4118   24.7843 C   0  0  0  0  0  0  0  0  0  0  0  0
    9.8409  -18.1998   25.6930 C   0  0  2  0  0  0  0  0  0  0  0  0
    9.4847  -17.0318   24.9362 N   0  0  0  0  0  0  0  0  0  0  0  0
   11.1895  -18.1538   26.2498 C   0  0  0  0  0  0  0  0  0  0  0  0
   11.9576  -17.2198   25.9388 O   0  0  0  0  0  0  0  0  0  0  0  0
   11.6444  -19.1226   27.1190 O   0  0  0  0  0  0  0  0  0  0  0  0
  2  1  1  6
  2  4  1  0
  2  3  1  0
  4  5  1  0
  5  7  1  0
  5  6  1  1
  7  8  2  0
  9 10  1  0
 10 11  1  0
 11 12  1  0
 13 12  1  1
 13 15  1  0
 14 13  1  0
 14  7  1  0
 15 19  1  0
 15 16  2  0
 18 17  1  6
 18 20  1  0
 19 18  1  0
 20 21  2  0
 20 22  1  0
M  END
$$$$
