LMA.pdb
     RDKit          3D

 22 21  0  0  1  0  0  0  0  0999 V2000
    8.6793  -14.4115   17.7745 C   0  0  0  0  0  0  0  0  0  0  0  0
    7.7576  -13.6084   18.6627 C   0  0  2  0  0  0  0  0  0  0  0  0
    7.4392  -12.2464   18.0905 C   0  0  0  0  0  0  0  0  0  0  0  0
    8.2325  -13.5567   20.0878 C   0  0  0  0  0  0  0  0  0  0  0  0
    8.4946  -14.9277   20.6649 C   0  0  2  0  0  0  0  0  0  0  0  0
    7.3676  -15.8131   20.4789 N   0  0  0  0  0  0  0  0  0  0  0  0
    8.7473  -14.7559   22.1136 C   0  0  0  0  0  0  0  0  0  0  0  0
    9.7691  -14.1275   22.4775 O   0  0  0  0  0  0  0  0  0  0  0  0
    8.2717  -12.1808   28.5292 C   0  0  0  0  0  0  0  0  0  0  0  0
    7.1378  -12.4783   27.1442 S   0  0  0  0  0  0  0  0  0  0  0  0
    7.2991  -14.2563   26.7117 C   0  0  0  0  0  0  0  0  0  0  0  0
    7.0136  -14.4655   25.2538 C   0  0  0  0  0  0  0  0  0  0  0  0
    8.1900  -15.0627   24.5608 C   0  0  2  0  0  0  0  0  0  0  0  0
    7.9047  -15.2582   23.1264 N   0  0  0  0  0  0  0  0  0  0  0  0
    8.7666  -16.2707   25.1484 C   0  0  0  0  0  0  0  0  0  0  0  0
    8.1163  -17.3029   25.4248 O   0  0  0  0  0  0  0  0  0  0  0  0
   12.2184  -17.5906   25.6049 C   0  0  0  0  0  0  0  0  0  0  0  0
   10.7482  -17.5472   26.0151 C   0  0  2  0  0  0  0  0  0  0  0  0
   10.1800  -16.3505   25.4592 N   0  0  0  0  0  0  0  0  0  0  0  0
   10.5896  -17.6591   27.4619 C   0  0  0  0  0  0  0  0  0  0  0  0
   10.0793  -16.7181   28.1047 O   0  0  0  0  0  0  0  0  0  0  0  0
   10.9915  -18.7864   28.1465 O   0  0  0  0  0  0  0  0  0  0  0  0
  2  1  1  6
  2  4  1  0
  2  3  1  0
  4  5  1  0
  5  7  1  0
  5  6  1  1
  7  8  2  0
  9 10  1  0
 10 11  1  0
 11 12  1  0
 13 12  1  1
 13 15  1  0
 14 13  1  0
 14  7  1  0
 15 19  1  0
 15 16  2  0
 18 17  1  1
 18 20  1  0
 19 18  1  0
 20 21  2  0
 20 22  1  0
M  END
$$$$
