GHK.pdb
     RDKit          3D

 24 24  0  0  1  0  0  0  0  0999 V2000
    8.0505  -16.9695   18.8926 N   0  0  0  0  0  0  0  0  0  0  0  0
    7.1593  -16.8642   20.0206 C   0  0  0  0  0  0  0  0  0  0  0  0
    7.8342  -16.0789   21.1046 C   0  0  0  0  0  0  0  0  0  0  0  0
    9.0366  -15.7315   20.9952 O   0  0  0  0  0  0  0  0  0  0  0  0
    7.1354  -15.7170   22.2622 N   0  0  0  0  0  0  0  0  0  0  0  0
    7.7715  -14.9804   23.3905 C   0  0  1  0  0  0  0  0  0  0  0  0
    6.6944  -14.1124   23.9203 C   0  0  0  0  0  0  0  0  0  0  0  0
    7.0642  -13.4196   25.1639 C   0  0  0  0  0  0  0  0  0  0  0  0
    6.4661  -13.6389   26.4046 C   0  0  0  0  0  0  0  0  0  0  0  0
    7.0218  -12.8556   27.3379 N   0  0  0  0  0  0  0  0  0  0  0  0
    7.9746  -12.1289   26.7199 C   0  0  0  0  0  0  0  0  0  0  0  0
    7.9876  -12.4784   25.4176 N   0  0  0  0  0  0  0  0  0  0  0  0
    8.3484  -15.9826   24.2646 C   0  0  0  0  0  0  0  0  0  0  0  0
    7.6577  -17.0417   24.5069 O   0  0  0  0  0  0  0  0  0  0  0  0
    9.6301  -15.9021   24.8841 N   0  0  0  0  0  0  0  0  0  0  0  0
   10.1370  -17.0848   25.5986 C   0  0  1  0  0  0  0  0  0  0  0  0
   11.5694  -17.3243   25.1711 C   0  0  0  0  0  0  0  0  0  0  0  0
   12.2077  -18.4914   25.8656 C   0  0  0  0  0  0  0  0  0  0  0  0
   13.6555  -18.6752   25.4595 C   0  0  0  0  0  0  0  0  0  0  0  0
   14.2508  -19.9012   26.1262 C   0  0  0  0  0  0  0  0  0  0  0  0
   15.6510  -19.9888   25.8398 N   0  0  0  0  0  0  0  0  0  0  0  0
   10.1061  -16.8580   27.0552 C   0  0  0  0  0  0  0  0  0  0  0  0
   10.1203  -17.9479   27.9076 O   0  0  0  0  0  0  0  0  0  0  0  0
   10.0668  -15.7298   27.5904 O   0  0  0  0  0  0  0  0  0  0  0  0
  2  1  1  0
  3  4  2  0
  3  2  1  0
  5  3  1  0
  6  7  1  1
  6  5  1  0
  8  9  2  0
  8  7  1  0
 10  9  1  0
 11 12  2  0
 11 10  1  0
 12  8  1  0
 13  6  1  0
 13 14  2  0
 15 13  1  0
 16 15  1  0
 16 17  1  6
 17 18  1  0
 19 18  1  0
 20 19  1  0
 20 21  1  0
 22 16  1  0
 23 22  1  0
 24 22  2  0
M  END
$$$$
