GHK.pdb
     RDKit          3D

 24 24  0  0  1  0  0  0  0  0999 V2000
    5.1288  -19.1094   19.9851 N   0  0  0  0  0  0  0  0  0  0  0  0
    4.9192  -17.9835   20.8604 C   0  0  0  0  0  0  0  0  0  0  0  0
    6.2482  -17.3908   21.2208 C   0  0  0  0  0  0  0  0  0  0  0  0
    7.3104  -18.0398   21.0505 O   0  0  0  0  0  0  0  0  0  0  0  0
    6.3308  -16.0998   21.7552 N   0  0  0  0  0  0  0  0  0  0  0  0
    7.6204  -15.4815   22.1735 C   0  0  1  0  0  0  0  0  0  0  0  0
    7.4872  -14.0554   21.7959 C   0  0  0  0  0  0  0  0  0  0  0  0
    7.8029  -13.7957   20.3830 C   0  0  0  0  0  0  0  0  0  0  0  0
    7.0027  -13.0562   19.5123 C   0  0  0  0  0  0  0  0  0  0  0  0
    7.5608  -13.0005   18.2961 N   0  0  0  0  0  0  0  0  0  0  0  0
    8.7145  -13.6948   18.3644 C   0  0  0  0  0  0  0  0  0  0  0  0
    8.8452  -14.1649   19.6215 N   0  0  0  0  0  0  0  0  0  0  0  0
    7.8035  -15.8151   23.5722 C   0  0  0  0  0  0  0  0  0  0  0  0
    6.8169  -15.6141   24.3747 O   0  0  0  0  0  0  0  0  0  0  0  0
    8.9911  -16.3569   24.1457 N   0  0  0  0  0  0  0  0  0  0  0  0
    9.0103  -16.6230   25.5932 C   0  0  1  0  0  0  0  0  0  0  0  0
    9.1597  -18.1148   25.8032 C   0  0  0  0  0  0  0  0  0  0  0  0
    9.2296  -18.5052   27.2504 C   0  0  0  0  0  0  0  0  0  0  0  0
    9.3176  -20.0065   27.4332 C   0  0  0  0  0  0  0  0  0  0  0  0
    9.2309  -20.3767   28.9019 C   0  0  0  0  0  0  0  0  0  0  0  0
    9.1017  -21.7953   29.0473 N   0  0  0  0  0  0  0  0  0  0  0  0
   10.1507  -15.9361   26.2271 C   0  0  0  0  0  0  0  0  0  0  0  0
   10.1710  -15.7928   27.6032 O   0  0  0  0  0  0  0  0  0  0  0  0
   11.1224  -15.4622   25.6010 O   0  0  0  0  0  0  0  0  0  0  0  0
  2  1  1  0
  3  4  2  0
  3  2  1  0
  5  3  1  0
  6  7  1  1
  6  5  1  0
  8  9  2  0
  8  7  1  0
 10  9  1  0
 11 12  2  0
 11 10  1  0
 12  8  1  0
 13  6  1  0
 13 14  2  0
 15 13  1  0
 16 15  1  0
 16 17  1  6
 17 18  1  0
 19 18  1  0
 20 19  1  0
 20 21  1  0
 22 16  1  0
 23 22  1  0
 24 22  2  0
M  END
$$$$
