GHK.pdb
     RDKit          3D

 24 24  0  0  1  0  0  0  0  0999 V2000
    4.0898  -18.5236   20.5246 N   0  0  0  0  0  0  0  0  0  0  0  0
    4.1957  -17.1939   21.0709 C   0  0  0  0  0  0  0  0  0  0  0  0
    5.6356  -16.9013   21.3683 C   0  0  0  0  0  0  0  0  0  0  0  0
    6.5092  -17.7987   21.2690 O   0  0  0  0  0  0  0  0  0  0  0  0
    6.0348  -15.6191   21.7633 N   0  0  0  0  0  0  0  0  0  0  0  0
    7.4576  -15.2632   22.0264 C   0  0  1  0  0  0  0  0  0  0  0  0
    7.5904  -13.8746   21.5281 C   0  0  0  0  0  0  0  0  0  0  0  0
    7.8913  -13.7987   20.0903 C   0  0  0  0  0  0  0  0  0  0  0  0
    7.2477  -12.9534   19.1867 C   0  0  0  0  0  0  0  0  0  0  0  0
    7.7450  -13.1189   17.9543 N   0  0  0  0  0  0  0  0  0  0  0  0
    8.7045  -14.0618   18.0446 C   0  0  0  0  0  0  0  0  0  0  0  0
    8.7800  -14.4591   19.3310 N   0  0  0  0  0  0  0  0  0  0  0  0
    7.6944  -15.5215   23.4330 C   0  0  0  0  0  0  0  0  0  0  0  0
    6.7547  -15.2362   24.2655 O   0  0  0  0  0  0  0  0  0  0  0  0
    8.8875  -16.0746   23.9839 N   0  0  0  0  0  0  0  0  0  0  0  0
    8.8954  -16.4404   25.4096 C   0  0  1  0  0  0  0  0  0  0  0  0
    8.3820  -17.8584   25.5423 C   0  0  0  0  0  0  0  0  0  0  0  0
    8.4431  -18.3814   26.9474 C   0  0  0  0  0  0  0  0  0  0  0  0
    8.1326  -19.8625   27.0193 C   0  0  0  0  0  0  0  0  0  0  0  0
    8.2420  -20.3675   28.4457 C   0  0  0  0  0  0  0  0  0  0  0  0
    8.0587  -21.7872   28.4829 N   0  0  0  0  0  0  0  0  0  0  0  0
   10.2663  -16.3776   25.9489 C   0  0  0  0  0  0  0  0  0  0  0  0
   10.4560  -16.4484   27.3177 O   0  0  0  0  0  0  0  0  0  0  0  0
   11.2933  -16.2622   25.2471 O   0  0  0  0  0  0  0  0  0  0  0  0
  2  1  1  0
  3  4  2  0
  3  2  1  0
  5  3  1  0
  6  7  1  1
  6  5  1  0
  8  9  2  0
  8  7  1  0
 10  9  1  0
 11 12  2  0
 11 10  1  0
 12  8  1  0
 13  6  1  0
 13 14  2  0
 15 13  1  0
 16 15  1  0
 16 17  1  6
 17 18  1  0
 19 18  1  0
 20 19  1  0
 20 21  1  0
 22 16  1  0
 23 22  1  0
 24 22  2  0
M  END
$$$$
