GHK.pdb
     RDKit          3D

 24 24  0  0  1  0  0  0  0  0999 V2000
    8.8998  -19.5733   18.3483 N   0  0  0  0  0  0  0  0  0  0  0  0
    8.0407  -18.7854   19.1961 C   0  0  0  0  0  0  0  0  0  0  0  0
    8.8484  -17.6930   19.8298 C   0  0  0  0  0  0  0  0  0  0  0  0
   10.1014  -17.6830   19.7393 O   0  0  0  0  0  0  0  0  0  0  0  0
    8.2199  -16.6608   20.5362 N   0  0  0  0  0  0  0  0  0  0  0  0
    8.9652  -15.5017   21.1029 C   0  0  1  0  0  0  0  0  0  0  0  0
    8.0089  -14.3731   21.0265 C   0  0  0  0  0  0  0  0  0  0  0  0
    7.7601  -13.9134   19.6517 C   0  0  0  0  0  0  0  0  0  0  0  0
    8.2720  -12.7386   19.1010 C   0  0  0  0  0  0  0  0  0  0  0  0
    7.8652  -12.5995   17.8327 N   0  0  0  0  0  0  0  0  0  0  0  0
    7.0947  -13.6693   17.5509 C   0  0  0  0  0  0  0  0  0  0  0  0
    7.0415  -14.4472   18.6511 N   0  0  0  0  0  0  0  0  0  0  0  0
    9.4459  -15.9172   22.4058 C   0  0  0  0  0  0  0  0  0  0  0  0
    8.5734  -16.2290   23.2997 O   0  0  0  0  0  0  0  0  0  0  0  0
   10.8154  -16.0176   22.7898 N   0  0  0  0  0  0  0  0  0  0  0  0
   11.1315  -16.5826   24.1116 C   0  0  1  0  0  0  0  0  0  0  0  0
   11.2228  -18.0879   23.9790 C   0  0  0  0  0  0  0  0  0  0  0  0
   11.5800  -18.7752   25.2641 C   0  0  0  0  0  0  0  0  0  0  0  0
   11.7056  -20.2753   25.0935 C   0  0  0  0  0  0  0  0  0  0  0  0
   12.0121  -20.9448   26.4200 C   0  0  0  0  0  0  0  0  0  0  0  0
   11.9784  -22.3689   26.2743 N   0  0  0  0  0  0  0  0  0  0  0  0
   12.4258  -16.0675   24.5948 C   0  0  0  0  0  0  0  0  0  0  0  0
   12.7543  -16.2164   25.9307 O   0  0  0  0  0  0  0  0  0  0  0  0
   13.2677  -15.4930   23.8724 O   0  0  0  0  0  0  0  0  0  0  0  0
  2  1  1  0
  3  4  2  0
  3  2  1  0
  5  3  1  0
  6  7  1  1
  6  5  1  0
  8  9  2  0
  8  7  1  0
 10  9  1  0
 11 12  2  0
 11 10  1  0
 12  8  1  0
 13  6  1  0
 13 14  2  0
 15 13  1  0
 16 15  1  0
 16 17  1  6
 17 18  1  0
 19 18  1  0
 20 19  1  0
 20 21  1  0
 22 16  1  0
 23 22  1  0
 24 22  2  0
M  END
$$$$
