GHK.pdb
     RDKit          3D

 24 24  0  0  1  0  0  0  0  0999 V2000
    9.9922  -17.7239   19.8734 N   0  0  0  0  0  0  0  0  0  0  0  0
    8.7756  -17.5256   20.6205 C   0  0  0  0  0  0  0  0  0  0  0  0
    9.0507  -16.5963   21.7642 C   0  0  0  0  0  0  0  0  0  0  0  0
   10.2188  -16.2040   22.0088 O   0  0  0  0  0  0  0  0  0  0  0  0
    8.0082  -16.1470   22.5832 N   0  0  0  0  0  0  0  0  0  0  0  0
    8.2421  -15.3605   23.8270 C   0  0  1  0  0  0  0  0  0  0  0  0
    6.9831  -14.6073   24.0313 C   0  0  0  0  0  0  0  0  0  0  0  0
    7.0058  -13.7490   25.2255 C   0  0  0  0  0  0  0  0  0  0  0  0
    8.0692  -13.6643   26.1240 C   0  0  0  0  0  0  0  0  0  0  0  0
    7.7857  -12.7983   27.1054 N   0  0  0  0  0  0  0  0  0  0  0  0
    6.5506  -12.3182   26.8568 C   0  0  0  0  0  0  0  0  0  0  0  0
    6.0968  -12.8976   25.7269 N   0  0  0  0  0  0  0  0  0  0  0  0
    8.6569  -16.3079   24.8426 C   0  0  0  0  0  0  0  0  0  0  0  0
    7.9523  -17.3744   24.9968 O   0  0  0  0  0  0  0  0  0  0  0  0
    9.7919  -16.1655   25.6937 N   0  0  0  0  0  0  0  0  0  0  0  0
   10.1484  -17.2872   26.5776 C   0  0  1  0  0  0  0  0  0  0  0  0
   11.4633  -17.8695   26.1046 C   0  0  0  0  0  0  0  0  0  0  0  0
   11.9470  -19.0077   26.9545 C   0  0  0  0  0  0  0  0  0  0  0  0
   13.2137  -19.6318   26.4058 C   0  0  0  0  0  0  0  0  0  0  0  0
   13.7253  -20.7175   27.3338 C   0  0  0  0  0  0  0  0  0  0  0  0
   14.9068  -21.3163   26.7898 N   0  0  0  0  0  0  0  0  0  0  0  0
   10.3075  -16.8172   27.9661 C   0  0  0  0  0  0  0  0  0  0  0  0
   10.1334  -15.4735   28.2470 O   0  0  0  0  0  0  0  0  0  0  0  0
   10.5947  -17.5577   28.9304 O   0  0  0  0  0  0  0  0  0  0  0  0
  2  1  1  0
  3  4  2  0
  3  2  1  0
  5  3  1  0
  6  7  1  1
  6  5  1  0
  8  9  2  0
  8  7  1  0
 10  9  1  0
 11 12  2  0
 11 10  1  0
 12  8  1  0
 13  6  1  0
 13 14  2  0
 15 13  1  0
 16 15  1  0
 16 17  1  6
 17 18  1  0
 19 18  1  0
 20 19  1  0
 20 21  1  0
 22 16  1  0
 23 22  1  0
 24 22  2  0
M  END
$$$$
