GHK.pdb
     RDKit          3D

 24 24  0  0  1  0  0  0  0  0999 V2000
    6.5584  -19.2090   19.7663 N   0  0  0  0  0  0  0  0  0  0  0  0
    6.8251  -18.0058   20.5139 C   0  0  0  0  0  0  0  0  0  0  0  0
    8.2347  -17.5692   20.2499 C   0  0  0  0  0  0  0  0  0  0  0  0
    9.0074  -18.2733   19.5531 O   0  0  0  0  0  0  0  0  0  0  0  0
    8.7177  -16.3654   20.7762 N   0  0  0  0  0  0  0  0  0  0  0  0
   10.1522  -15.9700   20.6991 C   0  0  1  0  0  0  0  0  0  0  0  0
   10.1259  -14.5759   20.1994 C   0  0  0  0  0  0  0  0  0  0  0  0
    8.8049  -14.1602   19.7038 C   0  0  0  0  0  0  0  0  0  0  0  0
    7.6901  -14.9938   19.6158 C   0  0  0  0  0  0  0  0  0  0  0  0
    6.6402  -14.3222   19.1257 N   0  0  0  0  0  0  0  0  0  0  0  0
    7.0579  -13.0615   18.8936 C   0  0  0  0  0  0  0  0  0  0  0  0
    8.3572  -12.9805   19.2452 N   0  0  0  0  0  0  0  0  0  0  0  0
   10.7224  -16.2280   22.0067 C   0  0  0  0  0  0  0  0  0  0  0  0
    9.9889  -16.0013   23.0402 O   0  0  0  0  0  0  0  0  0  0  0  0
   12.0371  -16.7210   22.2541 N   0  0  0  0  0  0  0  0  0  0  0  0
   12.4148  -17.0407   23.6403 C   0  0  1  0  0  0  0  0  0  0  0  0
   12.9047  -18.4725   23.6844 C   0  0  0  0  0  0  0  0  0  0  0  0
   13.3764  -18.8955   25.0446 C   0  0  0  0  0  0  0  0  0  0  0  0
   13.8637  -20.3299   25.0593 C   0  0  0  0  0  0  0  0  0  0  0  0
   14.1615  -20.7834   26.4761 C   0  0  0  0  0  0  0  0  0  0  0  0
   14.6119  -22.1426   26.4756 N   0  0  0  0  0  0  0  0  0  0  0  0
   13.4996  -16.1518   24.0957 C   0  0  0  0  0  0  0  0  0  0  0  0
   13.7732  -16.0609   25.4490 O   0  0  0  0  0  0  0  0  0  0  0  0
   14.2064  -15.4580   23.3343 O   0  0  0  0  0  0  0  0  0  0  0  0
  2  1  1  0
  3  4  2  0
  3  2  1  0
  5  3  1  0
  6  7  1  1
  6  5  1  0
  8  9  2  0
  8  7  1  0
 10  9  1  0
 11 12  2  0
 11 10  1  0
 12  8  1  0
 13  6  1  0
 13 14  2  0
 15 13  1  0
 16 15  1  0
 16 17  1  6
 17 18  1  0
 19 18  1  0
 20 19  1  0
 20 21  1  0
 22 16  1  0
 23 22  1  0
 24 22  2  0
M  END
$$$$
