GHK.pdb
     RDKit          3D

 24 24  0  0  1  0  0  0  0  0999 V2000
    1.2847  -20.0690   21.5369 N   0  0  0  0  0  0  0  0  0  0  0  0
    1.9027  -18.9004   22.1115 C   0  0  0  0  0  0  0  0  0  0  0  0
    3.3916  -19.0728   22.0861 C   0  0  0  0  0  0  0  0  0  0  0  0
    3.9061  -20.2044   21.9038 O   0  0  0  0  0  0  0  0  0  0  0  0
    4.2389  -17.9732   22.2654 N   0  0  0  0  0  0  0  0  0  0  0  0
    5.7242  -18.0930   22.2738 C   0  0  1  0  0  0  0  0  0  0  0  0
    6.1893  -16.9958   21.3941 C   0  0  0  0  0  0  0  0  0  0  0  0
    6.3497  -17.4040   19.9902 C   0  0  0  0  0  0  0  0  0  0  0  0
    6.1961  -18.7075   19.5184 C   0  0  0  0  0  0  0  0  0  0  0  0
    6.4078  -18.7556   18.1969 N   0  0  0  0  0  0  0  0  0  0  0  0
    6.6973  -17.4993   17.8025 C   0  0  0  0  0  0  0  0  0  0  0  0
    6.6585  -16.7011   18.8887 N   0  0  0  0  0  0  0  0  0  0  0  0
    6.1308  -18.0870   23.6652 C   0  0  0  0  0  0  0  0  0  0  0  0
    5.5834  -17.2258   24.4502 O   0  0  0  0  0  0  0  0  0  0  0  0
    7.0911  -18.9631   24.2510 N   0  0  0  0  0  0  0  0  0  0  0  0
    7.3747  -18.8289   25.6891 C   0  0  1  0  0  0  0  0  0  0  0  0
    7.6669  -20.2046   26.2493 C   0  0  0  0  0  0  0  0  0  0  0  0
    8.0709  -20.1822   27.6943 C   0  0  0  0  0  0  0  0  0  0  0  0
    8.3870  -21.5674   28.2202 C   0  0  0  0  0  0  0  0  0  0  0  0
    8.6835  -21.5245   29.7075 C   0  0  0  0  0  0  0  0  0  0  0  0
    8.9381  -22.8451   30.1990 N   0  0  0  0  0  0  0  0  0  0  0  0
    8.5521  -17.9674   25.9028 C   0  0  0  0  0  0  0  0  0  0  0  0
    8.7925  -17.4556   27.1657 O   0  0  0  0  0  0  0  0  0  0  0  0
    9.3678  -17.6572   25.0089 O   0  0  0  0  0  0  0  0  0  0  0  0
  2  1  1  0
  3  4  2  0
  3  2  1  0
  5  3  1  0
  6  7  1  6
  6  5  1  0
  8  9  2  0
  8  7  1  0
 10  9  1  0
 11 12  2  0
 11 10  1  0
 12  8  1  0
 13  6  1  0
 13 14  2  0
 15 13  1  0
 16 15  1  0
 16 17  1  6
 17 18  1  0
 19 18  1  0
 20 19  1  0
 20 21  1  0
 22 16  1  0
 23 22  1  0
 24 22  2  0
M  END
$$$$
