GHK.pdb
     RDKit          3D

 24 24  0  0  1  0  0  0  0  0999 V2000
   12.1221  -17.0685   18.7532 N   0  0  0  0  0  0  0  0  0  0  0  0
   11.0467  -17.6390   19.5249 C   0  0  0  0  0  0  0  0  0  0  0  0
   10.5675  -16.6248   20.5194 C   0  0  0  0  0  0  0  0  0  0  0  0
   11.3767  -15.8564   21.0966 O   0  0  0  0  0  0  0  0  0  0  0  0
    9.2058  -16.5145   20.8243 N   0  0  0  0  0  0  0  0  0  0  0  0
    8.6732  -15.5032   21.7802 C   0  0  1  0  0  0  0  0  0  0  0  0
    7.3858  -15.0741   21.1863 C   0  0  0  0  0  0  0  0  0  0  0  0
    7.5459  -14.3141   19.9372 C   0  0  0  0  0  0  0  0  0  0  0  0
    8.0914  -13.0334   19.8498 C   0  0  0  0  0  0  0  0  0  0  0  0
    8.0994  -12.6133   18.5782 N   0  0  0  0  0  0  0  0  0  0  0  0
    7.5656  -13.6047   17.8368 C   0  0  0  0  0  0  0  0  0  0  0  0
    7.2390  -14.6169   18.6657 N   0  0  0  0  0  0  0  0  0  0  0  0
    8.6595  -16.1352   23.0846 C   0  0  0  0  0  0  0  0  0  0  0  0
    8.3214  -17.3757   23.1506 O   0  0  0  0  0  0  0  0  0  0  0  0
    8.9956  -15.5001   24.3161 N   0  0  0  0  0  0  0  0  0  0  0  0
    8.9337  -16.2955   25.5530 C   0  0  1  0  0  0  0  0  0  0  0  0
    9.4624  -15.4501   26.6922 C   0  0  0  0  0  0  0  0  0  0  0  0
    9.5159  -16.1846   27.9996 C   0  0  0  0  0  0  0  0  0  0  0  0
   10.6101  -15.6585   28.9056 C   0  0  0  0  0  0  0  0  0  0  0  0
   10.5723  -16.3513   30.2548 C   0  0  0  0  0  0  0  0  0  0  0  0
   11.6532  -15.8947   31.0754 N   0  0  0  0  0  0  0  0  0  0  0  0
    7.5407  -16.6772   25.8496 C   0  0  0  0  0  0  0  0  0  0  0  0
    7.2995  -17.7933   26.6312 O   0  0  0  0  0  0  0  0  0  0  0  0
    6.5385  -16.0549   25.4387 O   0  0  0  0  0  0  0  0  0  0  0  0
  2  1  1  0
  3  4  2  0
  3  2  1  0
  5  3  1  0
  6  7  1  6
  6  5  1  0
  8  9  2  0
  8  7  1  0
 10  9  1  0
 11 12  2  0
 11 10  1  0
 12  8  1  0
 13  6  1  0
 13 14  2  0
 15 13  1  0
 16 15  1  0
 16 17  1  1
 17 18  1  0
 19 18  1  0
 20 19  1  0
 20 21  1  0
 22 16  1  0
 23 22  1  0
 24 22  2  0
M  END
$$$$
