GHK.pdb
     RDKit          3D

 24 24  0  0  1  0  0  0  0  0999 V2000
    7.9699  -13.2615   18.5925 N   0  0  0  0  0  0  0  0  0  0  0  0
    9.2665  -12.7813   18.9998 C   0  0  0  0  0  0  0  0  0  0  0  0
   10.2173  -13.9383   19.0657 C   0  0  0  0  0  0  0  0  0  0  0  0
    9.7988  -15.1209   18.9961 O   0  0  0  0  0  0  0  0  0  0  0  0
   11.5931  -13.7223   19.2063 N   0  0  0  0  0  0  0  0  0  0  0  0
   12.5796  -14.8360   19.2896 C   0  0  1  0  0  0  0  0  0  0  0  0
   13.6943  -14.4100   18.4121 C   0  0  0  0  0  0  0  0  0  0  0  0
   13.7497  -15.1488   17.1415 C   0  0  0  0  0  0  0  0  0  0  0  0
   12.8416  -16.1340   16.7542 C   0  0  0  0  0  0  0  0  0  0  0  0
   13.1616  -16.6178   15.5471 N   0  0  0  0  0  0  0  0  0  0  0  0
   14.2669  -15.9596   15.1438 C   0  0  0  0  0  0  0  0  0  0  0  0
   14.6069  -15.0827   16.1102 N   0  0  0  0  0  0  0  0  0  0  0  0
   12.8467  -15.0462   20.6987 C   0  0  0  0  0  0  0  0  0  0  0  0
   13.1155  -14.0157   21.4222 O   0  0  0  0  0  0  0  0  0  0  0  0
   12.8337  -16.3066   21.3650 N   0  0  0  0  0  0  0  0  0  0  0  0
   13.0422  -16.3298   22.8218 C   0  0  1  0  0  0  0  0  0  0  0  0
   12.2230  -17.4619   23.4042 C   0  0  0  0  0  0  0  0  0  0  0  0
   12.3601  -17.5873   24.8933 C   0  0  0  0  0  0  0  0  0  0  0  0
   11.5862  -18.7691   25.4403 C   0  0  0  0  0  0  0  0  0  0  0  0
   11.6343  -18.7896   26.9566 C   0  0  0  0  0  0  0  0  0  0  0  0
   10.7495  -19.7938   27.4656 N   0  0  0  0  0  0  0  0  0  0  0  0
   14.4646  -16.5614   23.1341 C   0  0  0  0  0  0  0  0  0  0  0  0
   14.9452  -16.2150   24.3845 O   0  0  0  0  0  0  0  0  0  0  0  0
   15.2878  -17.0578   22.3362 O   0  0  0  0  0  0  0  0  0  0  0  0
  2  1  1  0
  3  4  2  0
  3  2  1  0
  5  3  1  0
  6  7  1  6
  6  5  1  0
  8  9  2  0
  8  7  1  0
 10  9  1  0
 11 12  2  0
 11 10  1  0
 12  8  1  0
 13  6  1  0
 13 14  2  0
 15 13  1  0
 16 15  1  0
 16 17  1  1
 17 18  1  0
 19 18  1  0
 20 19  1  0
 20 21  1  0
 22 16  1  0
 23 22  1  0
 24 22  2  0
M  END
$$$$
