GHK.pdb
     RDKit          3D

 24 24  0  0  1  0  0  0  0  0999 V2000
   11.5525  -16.5975   19.3096 N   0  0  0  0  0  0  0  0  0  0  0  0
   10.2835  -16.8652   19.9386 C   0  0  0  0  0  0  0  0  0  0  0  0
   10.1721  -16.0392   21.1846 C   0  0  0  0  0  0  0  0  0  0  0  0
   11.1852  -15.4931   21.6882 O   0  0  0  0  0  0  0  0  0  0  0  0
    8.9337  -15.8606   21.8121 N   0  0  0  0  0  0  0  0  0  0  0  0
    8.7856  -15.1586   23.1181 C   0  0  1  0  0  0  0  0  0  0  0  0
    7.4396  -14.5432   23.0575 C   0  0  0  0  0  0  0  0  0  0  0  0
    7.0012  -13.9751   24.3414 C   0  0  0  0  0  0  0  0  0  0  0  0
    7.3113  -12.6916   24.7905 C   0  0  0  0  0  0  0  0  0  0  0  0
    6.7675  -12.4722   25.9945 N   0  0  0  0  0  0  0  0  0  0  0  0
    6.1071  -13.5972   26.3347 C   0  0  0  0  0  0  0  0  0  0  0  0
    6.2566  -14.4884   25.3338 N   0  0  0  0  0  0  0  0  0  0  0  0
    9.0533  -16.1426   24.1483 C   0  0  0  0  0  0  0  0  0  0  0  0
    8.7131  -17.3631   23.9200 O   0  0  0  0  0  0  0  0  0  0  0  0
    9.6715  -15.8780   25.4056 N   0  0  0  0  0  0  0  0  0  0  0  0
    9.8506  -16.9960   26.3460 C   0  0  1  0  0  0  0  0  0  0  0  0
   10.3439  -16.4380   27.6640 C   0  0  0  0  0  0  0  0  0  0  0  0
   10.4790  -17.4802   28.7351 C   0  0  0  0  0  0  0  0  0  0  0  0
   11.5847  -17.1500   29.7167 C   0  0  0  0  0  0  0  0  0  0  0  0
   11.6178  -18.1579   30.8502 C   0  0  0  0  0  0  0  0  0  0  0  0
   12.7558  -17.9233   31.6871 N   0  0  0  0  0  0  0  0  0  0  0  0
    8.5684  -17.6883   26.5717 C   0  0  0  0  0  0  0  0  0  0  0  0
    8.5724  -19.0484   26.8263 O   0  0  0  0  0  0  0  0  0  0  0  0
    7.4527  -17.1267   26.5496 O   0  0  0  0  0  0  0  0  0  0  0  0
  2  1  1  0
  3  4  2  0
  3  2  1  0
  5  3  1  0
  6  7  1  1
  6  5  1  0
  8  9  2  0
  8  7  1  0
 10  9  1  0
 11 12  2  0
 11 10  1  0
 12  8  1  0
 13  6  1  0
 13 14  2  0
 15 13  1  0
 16 15  1  0
 16 17  1  1
 17 18  1  0
 19 18  1  0
 20 19  1  0
 20 21  1  0
 22 16  1  0
 23 22  1  0
 24 22  2  0
M  END
$$$$
