GHK.pdb
     RDKit          3D

 24 24  0  0  1  0  0  0  0  0999 V2000
    5.3898  -19.1974   19.3068 N   0  0  0  0  0  0  0  0  0  0  0  0
    5.4715  -18.1291   20.2709 C   0  0  0  0  0  0  0  0  0  0  0  0
    6.8519  -17.5455   20.2375 C   0  0  0  0  0  0  0  0  0  0  0  0
    7.7583  -18.0741   19.5465 O   0  0  0  0  0  0  0  0  0  0  0  0
    7.1578  -16.3974   20.9776 N   0  0  0  0  0  0  0  0  0  0  0  0
    8.5281  -15.8146   21.0317 C   0  0  1  0  0  0  0  0  0  0  0  0
    8.3192  -14.3594   20.8503 C   0  0  0  0  0  0  0  0  0  0  0  0
    8.1306  -13.9695   19.4446 C   0  0  0  0  0  0  0  0  0  0  0  0
    7.1049  -13.1475   18.9782 C   0  0  0  0  0  0  0  0  0  0  0  0
    7.2042  -12.9804   17.6531 N   0  0  0  0  0  0  0  0  0  0  0  0
    8.2820  -13.6835   17.2513 C   0  0  0  0  0  0  0  0  0  0  0  0
    8.8263  -14.2705   18.3365 N   0  0  0  0  0  0  0  0  0  0  0  0
    9.1267  -16.2813   22.2666 C   0  0  0  0  0  0  0  0  0  0  0  0
    8.4353  -16.1808   23.3481 O   0  0  0  0  0  0  0  0  0  0  0  0
   10.4266  -16.8533   22.3923 N   0  0  0  0  0  0  0  0  0  0  0  0
   10.8534  -17.3358   23.7158 C   0  0  1  0  0  0  0  0  0  0  0  0
   11.8516  -18.4566   23.5172 C   0  0  0  0  0  0  0  0  0  0  0  0
   12.4109  -18.9868   24.8047 C   0  0  0  0  0  0  0  0  0  0  0  0
   12.0697  -20.4475   25.0167 C   0  0  0  0  0  0  0  0  0  0  0  0
   12.7200  -20.9747   26.2820 C   0  0  0  0  0  0  0  0  0  0  0  0
   12.2884  -22.3159   26.5376 N   0  0  0  0  0  0  0  0  0  0  0  0
   11.5010  -16.2500   24.4746 C   0  0  0  0  0  0  0  0  0  0  0  0
   11.5015  -16.3013   25.8574 O   0  0  0  0  0  0  0  0  0  0  0  0
   12.0620  -15.2641   23.9512 O   0  0  0  0  0  0  0  0  0  0  0  0
  2  1  1  0
  3  4  2  0
  3  2  1  0
  5  3  1  0
  6  7  1  1
  6  5  1  0
  8  9  2  0
  8  7  1  0
 10  9  1  0
 11 12  2  0
 11 10  1  0
 12  8  1  0
 13  6  1  0
 13 14  2  0
 15 13  1  0
 16 15  1  0
 16 17  1  6
 17 18  1  0
 19 18  1  0
 20 19  1  0
 20 21  1  0
 22 16  1  0
 23 22  1  0
 24 22  2  0
M  END
$$$$
