MPT.pdb
     RDKit          3D

 23 23  0  0  1  0  0  0  0  0999 V2000
   27.3665  -18.4335   -6.4947 C   0  0  0  0  0  0  0  0  0  0  0  0
   26.8846  -20.1596   -6.4922 S   0  0  0  0  0  0  0  0  0  0  0  0
   27.2925  -20.9682   -8.0782 C   0  0  0  0  0  0  0  0  0  0  0  0
   26.3336  -20.5251   -9.1436 C   0  0  0  0  0  0  0  0  0  0  0  0
   26.7005  -21.1413  -10.4718 C   0  0  2  0  0  0  0  0  0  0  0  0
   28.0647  -20.7375  -10.8389 N   0  0  0  0  0  0  0  0  0  0  0  0
   25.7339  -20.7995  -11.5219 C   0  0  0  0  0  0  0  0  0  0  0  0
   25.3671  -19.6121  -11.6693 O   0  0  0  0  0  0  0  0  0  0  0  0
   25.1619  -21.7857  -12.4254 N   0  0  0  0  0  0  0  0  0  0  0  0
   25.5523  -23.1652  -12.4229 C   0  0  0  0  0  0  0  0  0  0  0  0
   24.9510  -23.7410  -13.6844 C   0  0  0  0  0  0  0  0  0  0  0  0
   23.7794  -22.8468  -13.9914 C   0  0  0  0  0  0  0  0  0  0  0  0
   24.1684  -21.5295  -13.3989 C   0  0  1  0  0  0  0  0  0  0  0  0
   22.9534  -20.8651  -12.8385 C   0  0  0  0  0  0  0  0  0  0  0  0
   22.7206  -20.9876  -11.6157 O   0  0  0  0  0  0  0  0  0  0  0  0
   21.3159  -17.1810  -13.5146 C   0  0  0  0  0  0  0  0  0  0  0  0
   20.4100  -18.3194  -13.9203 C   0  0  1  0  0  0  0  0  0  0  0  0
   20.5647  -18.5037  -15.2997 O   0  0  0  0  0  0  0  0  0  0  0  0
   20.8132  -19.5406  -13.1439 C   0  0  2  0  0  0  0  0  0  0  0  0
   22.0590  -20.1088  -13.6232 N   0  0  0  0  0  0  0  0  0  0  0  0
   19.7783  -20.5890  -13.3891 C   0  0  0  0  0  0  0  0  0  0  0  0
   18.5899  -20.4805  -12.6829 O   0  0  0  0  0  0  0  0  0  0  0  0
   19.9264  -21.5438  -14.1852 O   0  0  0  0  0  0  0  0  0  0  0  0
  1  2  1  0
  3  2  1  0
  4  3  1  0
  5  7  1  0
  5  4  1  0
  5  6  1  6
  7  9  1  0
  8  7  2  0
  9 10  1  0
  9 13  1  0
 10 11  1  0
 11 12  1  0
 13 12  1  0
 13 14  1  1
 14 20  1  0
 15 14  2  0
 17 16  1  1
 18 17  1  0
 19 17  1  0
 19 20  1  6
 19 21  1  0
 21 22  1  0
 23 21  2  0
M  END
$$$$
