MPT.pdb
     RDKit          3D

 23 23  0  0  1  0  0  0  0  0999 V2000
   24.0466  -20.6893   -8.1638 C   0  0  0  0  0  0  0  0  0  0  0  0
   25.1673  -21.9208   -8.8265 S   0  0  0  0  0  0  0  0  0  0  0  0
   26.4120  -21.1652   -9.9290 C   0  0  0  0  0  0  0  0  0  0  0  0
   25.9428  -21.2255  -11.3528 C   0  0  0  0  0  0  0  0  0  0  0  0
   25.6039  -19.8429  -11.8547 C   0  0  2  0  0  0  0  0  0  0  0  0
   24.4766  -19.3039  -11.0816 N   0  0  0  0  0  0  0  0  0  0  0  0
   25.3254  -19.8342  -13.2955 C   0  0  0  0  0  0  0  0  0  0  0  0
   24.1753  -20.1020  -13.7100 O   0  0  0  0  0  0  0  0  0  0  0  0
   26.3340  -19.5244  -14.2969 N   0  0  0  0  0  0  0  0  0  0  0  0
   27.7045  -19.2609  -13.9683 C   0  0  0  0  0  0  0  0  0  0  0  0
   28.3075  -18.7035  -15.2373 C   0  0  0  0  0  0  0  0  0  0  0  0
   27.4430  -19.2492  -16.3424 C   0  0  0  0  0  0  0  0  0  0  0  0
   26.1108  -19.4472  -15.6913 C   0  0  1  0  0  0  0  0  0  0  0  0
   25.4673  -20.6728  -16.2528 C   0  0  0  0  0  0  0  0  0  0  0  0
   25.9381  -21.7879  -15.9374 O   0  0  0  0  0  0  0  0  0  0  0  0
   22.5294  -22.4842  -15.5848 C   0  0  0  0  0  0  0  0  0  0  0  0
   22.3162  -21.9829  -16.9935 C   0  0  1  0  0  0  0  0  0  0  0  0
   21.6084  -20.7780  -16.9044 O   0  0  0  0  0  0  0  0  0  0  0  0
   23.6619  -21.7954  -17.6343 C   0  0  2  0  0  0  0  0  0  0  0  0
   24.3567  -20.6302  -17.1202 N   0  0  0  0  0  0  0  0  0  0  0  0
   23.4326  -21.5139  -19.0830 C   0  0  0  0  0  0  0  0  0  0  0  0
   22.9949  -22.5686  -19.8696 O   0  0  0  0  0  0  0  0  0  0  0  0
   23.6125  -20.3944  -19.6138 O   0  0  0  0  0  0  0  0  0  0  0  0
  1  2  1  0
  3  2  1  0
  4  3  1  0
  5  7  1  0
  5  4  1  0
  5  6  1  1
  7  9  1  0
  8  7  2  0
  9 10  1  0
  9 13  1  0
 10 11  1  0
 11 12  1  0
 13 12  1  0
 13 14  1  6
 14 20  1  0
 15 14  2  0
 17 16  1  1
 18 17  1  0
 19 17  1  0
 19 20  1  1
 19 21  1  0
 21 22  1  0
 23 21  2  0
M  END
$$$$
