MPT.pdb
     RDKit          3D

 23 23  0  0  1  0  0  0  0  0999 V2000
   25.9022  -35.1171  -18.4576 C   0  0  0  0  0  0  0  0  0  0  0  0
   27.1695  -35.9762  -17.5260 S   0  0  0  0  0  0  0  0  0  0  0  0
   27.9111  -34.8948  -16.2548 C   0  0  0  0  0  0  0  0  0  0  0  0
   28.6172  -33.7428  -16.9071 C   0  0  0  0  0  0  0  0  0  0  0  0
   29.1963  -32.8202  -15.8623 C   0  0  2  0  0  0  0  0  0  0  0  0
   28.1116  -32.2762  -15.0338 N   0  0  0  0  0  0  0  0  0  0  0  0
   30.0076  -31.7533  -16.4601 C   0  0  0  0  0  0  0  0  0  0  0  0
   29.5378  -30.5984  -16.5677 O   0  0  0  0  0  0  0  0  0  0  0  0
   31.3616  -31.9648  -16.9480 N   0  0  0  0  0  0  0  0  0  0  0  0
   32.0301  -33.2308  -16.8704 C   0  0  0  0  0  0  0  0  0  0  0  0
   33.4738  -32.9282  -17.1999 C   0  0  0  0  0  0  0  0  0  0  0  0
   33.4214  -31.6701  -18.0252 C   0  0  0  0  0  0  0  0  0  0  0  0
   32.1800  -30.9823  -17.5524 C   0  0  1  0  0  0  0  0  0  0  0  0
   31.5248  -30.3017  -18.7096 C   0  0  0  0  0  0  0  0  0  0  0  0
   32.0840  -29.2968  -19.2015 O   0  0  0  0  0  0  0  0  0  0  0  0
   28.6849  -32.3939  -20.8832 C   0  0  0  0  0  0  0  0  0  0  0  0
   29.5064  -31.2976  -21.5192 C   0  0  1  0  0  0  0  0  0  0  0  0
   28.7879  -30.8267  -22.6249 O   0  0  0  0  0  0  0  0  0  0  0  0
   29.7265  -30.2209  -20.4950 C   0  0  2  0  0  0  0  0  0  0  0  0
   30.3075  -30.7388  -19.2707 N   0  0  0  0  0  0  0  0  0  0  0  0
   28.3850  -29.6926  -20.1055 C   0  0  0  0  0  0  0  0  0  0  0  0
   27.6732  -29.0009  -21.0738 O   0  0  0  0  0  0  0  0  0  0  0  0
   27.8796  -29.8395  -18.9695 O   0  0  0  0  0  0  0  0  0  0  0  0
  1  2  1  0
  3  2  1  0
  4  3  1  0
  5  7  1  0
  5  4  1  0
  5  6  1  6
  7  9  1  0
  8  7  2  0
  9 10  1  0
  9 13  1  0
 10 11  1  0
 11 12  1  0
 13 12  1  0
 13 14  1  6
 14 20  1  0
 15 14  2  0
 17 16  1  1
 18 17  1  0
 19 17  1  0
 19 20  1  1
 19 21  1  0
 21 22  1  0
 23 21  2  0
M  END
$$$$
