MPT.pdb
     RDKit          3D

 23 23  0  0  1  0  0  0  0  0999 V2000
   26.4313  -16.0755  -17.1995 C   0  0  0  0  0  0  0  0  0  0  0  0
   28.1037  -16.4340  -16.6644 S   0  0  0  0  0  0  0  0  0  0  0  0
   28.3378  -18.2193  -16.3588 C   0  0  0  0  0  0  0  0  0  0  0  0
   27.0559  -18.8312  -15.8756 C   0  0  0  0  0  0  0  0  0  0  0  0
   27.2479  -20.3016  -15.5931 C   0  0  2  0  0  0  0  0  0  0  0  0
   27.4222  -21.0251  -16.8601 N   0  0  0  0  0  0  0  0  0  0  0  0
   26.1453  -20.8573  -14.8000 C   0  0  0  0  0  0  0  0  0  0  0  0
   25.0903  -21.2203  -15.3670 O   0  0  0  0  0  0  0  0  0  0  0  0
   26.2080  -21.0152  -13.3552 N   0  0  0  0  0  0  0  0  0  0  0  0
   27.4061  -20.7991  -12.5980 C   0  0  0  0  0  0  0  0  0  0  0  0
   27.1035  -21.3555  -11.2256 C   0  0  0  0  0  0  0  0  0  0  0  0
   25.6043  -21.2858  -11.1075 C   0  0  0  0  0  0  0  0  0  0  0  0
   25.1278  -21.3880  -12.5219 C   0  0  1  0  0  0  0  0  0  0  0  0
   23.9232  -20.5223  -12.6978 C   0  0  0  0  0  0  0  0  0  0  0  0
   24.0393  -19.2942  -12.4906 O   0  0  0  0  0  0  0  0  0  0  0  0
   22.3240  -18.9491  -15.1583 C   0  0  0  0  0  0  0  0  0  0  0  0
   21.2219  -19.8743  -14.6993 C   0  0  1  0  0  0  0  0  0  0  0  0
   21.2587  -21.0066  -15.5223 O   0  0  0  0  0  0  0  0  0  0  0  0
   21.4690  -20.2213  -13.2588 C   0  0  2  0  0  0  0  0  0  0  0  0
   22.6642  -21.0250  -13.0853 N   0  0  0  0  0  0  0  0  0  0  0  0
   20.3392  -21.0871  -12.8067 C   0  0  0  0  0  0  0  0  0  0  0  0
   20.6021  -22.4401  -12.6549 O   0  0  0  0  0  0  0  0  0  0  0  0
   19.1875  -20.6613  -12.5623 O   0  0  0  0  0  0  0  0  0  0  0  0
  1  2  1  0
  3  2  1  0
  4  3  1  0
  5  7  1  0
  5  4  1  0
  5  6  1  6
  7  9  1  0
  8  7  2  0
  9 10  1  0
  9 13  1  0
 10 11  1  0
 11 12  1  0
 13 12  1  0
 13 14  1  1
 14 20  1  0
 15 14  2  0
 17 16  1  6
 18 17  1  0
 19 17  1  0
 19 20  1  6
 19 21  1  0
 21 22  1  0
 23 21  2  0
M  END
$$$$
