MPT.pdb
     RDKit          3D

 23 23  0  0  1  0  0  0  0  0999 V2000
   24.8460   -9.9926  -22.1837 C   0  0  0  0  0  0  0  0  0  0  0  0
   23.7790  -11.4233  -22.3463 S   0  0  0  0  0  0  0  0  0  0  0  0
   23.5592  -12.2764  -20.7464 C   0  0  0  0  0  0  0  0  0  0  0  0
   23.3502  -11.2719  -19.6518 C   0  0  0  0  0  0  0  0  0  0  0  0
   23.1567  -11.9690  -18.3271 C   0  0  2  0  0  0  0  0  0  0  0  0
   21.9011  -12.7318  -18.3539 N   0  0  0  0  0  0  0  0  0  0  0  0
   23.1948  -11.0291  -17.2007 C   0  0  0  0  0  0  0  0  0  0  0  0
   22.1375  -10.4929  -16.7998 O   0  0  0  0  0  0  0  0  0  0  0  0
   24.4217  -10.6745  -16.5042 N   0  0  0  0  0  0  0  0  0  0  0  0
   25.6730  -11.3319  -16.7443 C   0  0  0  0  0  0  0  0  0  0  0  0
   26.5753  -10.8704  -15.6229 C   0  0  0  0  0  0  0  0  0  0  0  0
   26.0013   -9.5473  -15.1911 C   0  0  0  0  0  0  0  0  0  0  0  0
   24.5479   -9.6599  -15.5270 C   0  0  1  0  0  0  0  0  0  0  0  0
   24.0467   -8.3312  -15.9905 C   0  0  0  0  0  0  0  0  0  0  0  0
   24.4338   -7.9053  -17.1011 O   0  0  0  0  0  0  0  0  0  0  0  0
   20.3987   -7.2264  -15.4154 C   0  0  0  0  0  0  0  0  0  0  0  0
   21.2802   -6.3938  -16.3161 C   0  0  1  0  0  0  0  0  0  0  0  0
   20.6527   -5.1531  -16.4820 O   0  0  0  0  0  0  0  0  0  0  0  0
   22.6254   -6.2575  -15.6616 C   0  0  2  0  0  0  0  0  0  0  0  0
   23.1601   -7.5369  -15.2350 N   0  0  0  0  0  0  0  0  0  0  0  0
   22.4355   -5.4686  -14.4079 C   0  0  0  0  0  0  0  0  0  0  0  0
   22.3920   -6.1769  -13.2166 O   0  0  0  0  0  0  0  0  0  0  0  0
   22.3155   -4.2227  -14.3782 O   0  0  0  0  0  0  0  0  0  0  0  0
  1  2  1  0
  3  2  1  0
  4  3  1  0
  5  7  1  0
  5  4  1  0
  5  6  1  6
  7  9  1  0
  8  7  2  0
  9 10  1  0
  9 13  1  0
 10 11  1  0
 11 12  1  0
 13 12  1  0
 13 14  1  6
 14 20  1  0
 15 14  2  0
 17 16  1  1
 18 17  1  0
 19 17  1  0
 19 20  1  1
 19 21  1  0
 21 22  1  0
 23 21  2  0
M  END
$$$$
