MPT.pdb
     RDKit          3D

 23 23  0  0  1  0  0  0  0  0999 V2000
   16.0136  -10.9624  -19.2368 C   0  0  0  0  0  0  0  0  0  0  0  0
   17.5547  -11.4811  -19.9903 S   0  0  0  0  0  0  0  0  0  0  0  0
   18.6930  -12.1978  -18.7549 C   0  0  0  0  0  0  0  0  0  0  0  0
   19.0755  -11.1581  -17.7431 C   0  0  0  0  0  0  0  0  0  0  0  0
   19.6025  -11.8123  -16.4890 C   0  0  2  0  0  0  0  0  0  0  0  0
   18.5263  -12.5804  -15.8480 N   0  0  0  0  0  0  0  0  0  0  0  0
   20.1938  -10.8359  -15.5667 C   0  0  0  0  0  0  0  0  0  0  0  0
   19.4521  -10.0995  -14.8785 O   0  0  0  0  0  0  0  0  0  0  0  0
   21.6293  -10.6692  -15.4009 N   0  0  0  0  0  0  0  0  0  0  0  0
   22.5904  -11.5635  -15.9774 C   0  0  0  0  0  0  0  0  0  0  0  0
   23.9014  -11.2021  -15.3176 C   0  0  0  0  0  0  0  0  0  0  0  0
   23.7313   -9.7686  -14.8904 C   0  0  0  0  0  0  0  0  0  0  0  0
   22.2574   -9.6310  -14.6744 C   0  0  1  0  0  0  0  0  0  0  0  0
   21.8235   -8.2673  -15.1030 C   0  0  0  0  0  0  0  0  0  0  0  0
   21.5140   -8.0925  -16.3022 O   0  0  0  0  0  0  0  0  0  0  0  0
   19.6223   -4.0878  -14.4562 C   0  0  0  0  0  0  0  0  0  0  0  0
   19.9523   -5.5090  -14.0658 C   0  0  1  0  0  0  0  0  0  0  0  0
   18.9682   -6.3337  -14.6245 O   0  0  0  0  0  0  0  0  0  0  0  0
   21.3209   -5.8353  -14.5921 C   0  0  2  0  0  0  0  0  0  0  0  0
   21.7478   -7.1709  -14.2198 N   0  0  0  0  0  0  0  0  0  0  0  0
   22.2878   -4.9102  -13.9292 C   0  0  0  0  0  0  0  0  0  0  0  0
   22.7210   -3.8170  -14.6641 O   0  0  0  0  0  0  0  0  0  0  0  0
   22.7197   -5.0686  -12.7648 O   0  0  0  0  0  0  0  0  0  0  0  0
  1  2  1  0
  3  2  1  0
  4  3  1  0
  5  7  1  0
  5  4  1  0
  5  6  1  1
  7  9  1  0
  8  7  2  0
  9 10  1  0
  9 13  1  0
 10 11  1  0
 11 12  1  0
 13 12  1  0
 13 14  1  6
 14 20  1  0
 15 14  2  0
 17 16  1  6
 18 17  1  0
 19 17  1  0
 19 20  1  1
 19 21  1  0
 21 22  1  0
 23 21  2  0
M  END
$$$$
