MPT.pdb
     RDKit          3D

 23 23  0  0  1  0  0  0  0  0999 V2000
   26.4131  -20.0116   -8.5292 C   0  0  0  0  0  0  0  0  0  0  0  0
   24.7702  -20.7136   -8.6688 S   0  0  0  0  0  0  0  0  0  0  0  0
   23.9136  -20.1133  -10.1660 C   0  0  0  0  0  0  0  0  0  0  0  0
   24.5609  -20.6841  -11.3932 C   0  0  0  0  0  0  0  0  0  0  0  0
   23.9386  -20.0988  -12.6376 C   0  0  2  0  0  0  0  0  0  0  0  0
   22.5188  -20.4725  -12.6974 N   0  0  0  0  0  0  0  0  0  0  0  0
   24.6559  -20.5022  -13.8527 C   0  0  0  0  0  0  0  0  0  0  0  0
   24.2096  -21.4328  -14.5604 O   0  0  0  0  0  0  0  0  0  0  0  0
   25.8878  -19.8673  -14.2947 N   0  0  0  0  0  0  0  0  0  0  0  0
   26.4579  -18.7280  -13.6369 C   0  0  0  0  0  0  0  0  0  0  0  0
   27.5275  -18.2295  -14.5813 C   0  0  0  0  0  0  0  0  0  0  0  0
   27.9113  -19.4369  -15.3947 C   0  0  0  0  0  0  0  0  0  0  0  0
   26.6728  -20.2758  -15.3979 C   0  0  1  0  0  0  0  0  0  0  0  0
   27.0568  -21.7184  -15.3444 C   0  0  0  0  0  0  0  0  0  0  0  0
   27.6267  -22.1432  -14.3152 O   0  0  0  0  0  0  0  0  0  0  0  0
   24.7994  -24.6357  -17.0456 C   0  0  0  0  0  0  0  0  0  0  0  0
   25.8375  -24.8301  -15.9659 C   0  0  1  0  0  0  0  0  0  0  0  0
   26.1002  -26.2030  -15.8828 O   0  0  0  0  0  0  0  0  0  0  0  0
   27.0626  -24.0479  -16.3454 C   0  0  2  0  0  0  0  0  0  0  0  0
   26.8074  -22.6207  -16.3987 N   0  0  0  0  0  0  0  0  0  0  0  0
   27.4288  -24.4381  -17.7397 C   0  0  0  0  0  0  0  0  0  0  0  0
   27.9424  -25.7128  -17.9244 O   0  0  0  0  0  0  0  0  0  0  0  0
   27.2984  -23.6864  -18.7323 O   0  0  0  0  0  0  0  0  0  0  0  0
  1  2  1  0
  3  2  1  0
  4  3  1  0
  5  7  1  0
  5  4  1  0
  5  6  1  6
  7  9  1  0
  8  7  2  0
  9 10  1  0
  9 13  1  0
 10 11  1  0
 11 12  1  0
 13 12  1  0
 13 14  1  1
 14 20  1  0
 15 14  2  0
 17 16  1  6
 18 17  1  0
 19 17  1  0
 19 20  1  6
 19 21  1  0
 21 22  1  0
 23 21  2  0
M  END
$$$$
