MPT.pdb
     RDKit          3D

 23 23  0  0  1  0  0  0  0  0999 V2000
   21.5745  -18.1488  -13.2393 C   0  0  0  0  0  0  0  0  0  0  0  0
   22.5010  -18.5669  -14.7152 S   0  0  0  0  0  0  0  0  0  0  0  0
   24.1547  -19.2223  -14.3011 C   0  0  0  0  0  0  0  0  0  0  0  0
   24.2448  -19.4994  -12.8294 C   0  0  0  0  0  0  0  0  0  0  0  0
   24.5958  -20.9473  -12.5866 C   0  0  2  0  0  0  0  0  0  0  0  0
   23.3664  -21.7518  -12.5619 N   0  0  0  0  0  0  0  0  0  0  0  0
   25.3827  -21.1239  -11.3605 C   0  0  0  0  0  0  0  0  0  0  0  0
   24.8027  -21.2204  -10.2557 O   0  0  0  0  0  0  0  0  0  0  0  0
   26.8356  -21.1952  -11.3534 N   0  0  0  0  0  0  0  0  0  0  0  0
   27.6236  -21.1742  -12.5509 C   0  0  0  0  0  0  0  0  0  0  0  0
   29.0142  -21.5665  -12.1074 C   0  0  0  0  0  0  0  0  0  0  0  0
   29.0708  -21.1897  -10.6509 C   0  0  0  0  0  0  0  0  0  0  0  0
   27.6480  -21.2876  -10.1994 C   0  0  1  0  0  0  0  0  0  0  0  0
   27.3749  -20.2114   -9.2000 C   0  0  0  0  0  0  0  0  0  0  0  0
   26.5942  -19.2882   -9.5204 O   0  0  0  0  0  0  0  0  0  0  0  0
   26.7049  -21.5055   -5.7276 C   0  0  0  0  0  0  0  0  0  0  0  0
   26.2747  -20.1155   -6.1330 C   0  0  1  0  0  0  0  0  0  0  0  0
   25.8671  -19.4498   -4.9706 O   0  0  0  0  0  0  0  0  0  0  0  0
   27.4427  -19.4343   -6.7876 C   0  0  2  0  0  0  0  0  0  0  0  0
   27.9560  -20.1885   -7.9157 N   0  0  0  0  0  0  0  0  0  0  0  0
   28.5562  -19.4004   -5.7930 C   0  0  0  0  0  0  0  0  0  0  0  0
   28.5739  -18.3391   -4.9008 O   0  0  0  0  0  0  0  0  0  0  0  0
   29.4584  -20.2658   -5.7250 O   0  0  0  0  0  0  0  0  0  0  0  0
  1  2  1  0
  3  2  1  0
  4  3  1  0
  5  7  1  0
  5  4  1  0
  5  6  1  1
  7  9  1  0
  8  7  2  0
  9 10  1  0
  9 13  1  0
 10 11  1  0
 11 12  1  0
 13 12  1  0
 13 14  1  1
 14 20  1  0
 15 14  2  0
 17 16  1  1
 18 17  1  0
 19 17  1  0
 19 20  1  6
 19 21  1  0
 21 22  1  0
 23 21  2  0
M  END
$$$$
