MPT.pdb
     RDKit          3D

 23 23  0  0  1  0  0  0  0  0999 V2000
   12.2950  -10.1741   -4.1780 C   0  0  0  0  0  0  0  0  0  0  0  0
   13.5543   -8.9300   -4.4576 S   0  0  0  0  0  0  0  0  0  0  0  0
   15.2241   -9.6687   -4.4982 C   0  0  0  0  0  0  0  0  0  0  0  0
   15.5370  -10.3068   -3.1768 C   0  0  0  0  0  0  0  0  0  0  0  0
   16.7820  -11.1535   -3.2825 C   0  0  2  0  0  0  0  0  0  0  0  0
   16.5425  -12.2623   -4.2164 N   0  0  0  0  0  0  0  0  0  0  0  0
   17.2305  -11.6374   -1.9716 C   0  0  0  0  0  0  0  0  0  0  0  0
   16.6958  -12.6486   -1.4638 O   0  0  0  0  0  0  0  0  0  0  0  0
   18.2879  -10.9940   -1.2075 N   0  0  0  0  0  0  0  0  0  0  0  0
   18.9688   -9.8151   -1.6571 C   0  0  0  0  0  0  0  0  0  0  0  0
   20.1564   -9.6764   -0.7325 C   0  0  0  0  0  0  0  0  0  0  0  0
   19.7468  -10.3951    0.5254 C   0  0  0  0  0  0  0  0  0  0  0  0
   18.7732  -11.4260    0.0488 C   0  0  1  0  0  0  0  0  0  0  0  0
   17.6956  -11.5928    1.0698 C   0  0  0  0  0  0  0  0  0  0  0  0
   16.7941  -10.7277    1.1282 O   0  0  0  0  0  0  0  0  0  0  0  0
   14.9157  -14.0458    1.6090 C   0  0  0  0  0  0  0  0  0  0  0  0
   15.8981  -14.2084    2.7447 C   0  0  1  0  0  0  0  0  0  0  0  0
   16.7881  -15.2271    2.3831 O   0  0  0  0  0  0  0  0  0  0  0  0
   16.6017  -12.8970    2.9489 C   0  0  2  0  0  0  0  0  0  0  0  0
   17.6489  -12.6778    1.9690 N   0  0  0  0  0  0  0  0  0  0  0  0
   17.2997  -12.9639    4.2675 C   0  0  0  0  0  0  0  0  0  0  0  0
   16.5062  -12.9329    5.4043 O   0  0  0  0  0  0  0  0  0  0  0  0
   18.5423  -13.0449    4.3966 O   0  0  0  0  0  0  0  0  0  0  0  0
  1  2  1  0
  3  2  1  0
  4  3  1  0
  5  7  1  0
  5  4  1  0
  5  6  1  6
  7  9  1  0
  8  7  2  0
  9 10  1  0
  9 13  1  0
 10 11  1  0
 11 12  1  0
 13 12  1  0
 13 14  1  1
 14 20  1  0
 15 14  2  0
 17 16  1  6
 18 17  1  0
 19 17  1  0
 19 20  1  6
 19 21  1  0
 21 22  1  0
 23 21  2  0
M  END
$$$$
