MPT.pdb
     RDKit          3D

 23 23  0  0  1  0  0  0  0  0999 V2000
   33.4316  -23.0173  -20.5292 C   0  0  0  0  0  0  0  0  0  0  0  0
   32.5416  -24.4862  -20.0173 S   0  0  0  0  0  0  0  0  0  0  0  0
   33.3646  -26.0050  -20.6102 C   0  0  0  0  0  0  0  0  0  0  0  0
   32.5893  -27.2137  -20.1756 C   0  0  0  0  0  0  0  0  0  0  0  0
   33.2452  -28.4727  -20.6889 C   0  0  2  0  0  0  0  0  0  0  0  0
   33.0402  -28.5751  -22.1402 N   0  0  0  0  0  0  0  0  0  0  0  0
   32.7626  -29.6686  -19.9885 C   0  0  0  0  0  0  0  0  0  0  0  0
   31.7405  -30.2621  -20.3996 O   0  0  0  0  0  0  0  0  0  0  0  0
   33.4197  -30.2193  -18.8133 N   0  0  0  0  0  0  0  0  0  0  0  0
   34.6286  -29.6744  -18.2681 C   0  0  0  0  0  0  0  0  0  0  0  0
   35.1059  -30.7073  -17.2733 C   0  0  0  0  0  0  0  0  0  0  0  0
   33.8617  -31.4538  -16.8715 C   0  0  0  0  0  0  0  0  0  0  0  0
   32.9688  -31.3318  -18.0655 C   0  0  1  0  0  0  0  0  0  0  0  0
   31.5530  -31.1983  -17.6082 C   0  0  0  0  0  0  0  0  0  0  0  0
   31.1460  -30.0681  -17.2594 O   0  0  0  0  0  0  0  0  0  0  0  0
   29.0829  -34.5922  -16.8796 C   0  0  0  0  0  0  0  0  0  0  0  0
   28.4813  -33.4136  -17.6079 C   0  0  1  0  0  0  0  0  0  0  0  0
   27.1361  -33.3317  -17.2282 O   0  0  0  0  0  0  0  0  0  0  0  0
   29.2480  -32.1810  -17.2213 C   0  0  2  0  0  0  0  0  0  0  0  0
   30.6569  -32.2853  -17.5513 N   0  0  0  0  0  0  0  0  0  0  0  0
   29.1960  -32.0700  -15.7329 C   0  0  0  0  0  0  0  0  0  0  0  0
   30.2752  -32.5753  -15.0239 O   0  0  0  0  0  0  0  0  0  0  0  0
   28.2447  -31.5534  -15.1039 O   0  0  0  0  0  0  0  0  0  0  0  0
  1  2  1  0
  3  2  1  0
  4  3  1  0
  5  7  1  0
  5  4  1  0
  5  6  1  6
  7  9  1  0
  8  7  2  0
  9 10  1  0
  9 13  1  0
 10 11  1  0
 11 12  1  0
 13 12  1  0
 13 14  1  1
 14 20  1  0
 15 14  2  0
 17 16  1  1
 18 17  1  0
 19 17  1  0
 19 20  1  1
 19 21  1  0
 21 22  1  0
 23 21  2  0
M  END
$$$$
