MPT.pdb
     RDKit          3D

 23 23  0  0  1  0  0  0  0  0999 V2000
   43.9254  -22.0452  -10.9945 C   0  0  0  0  0  0  0  0  0  0  0  0
   44.7445  -20.4698  -10.7515 S   0  0  0  0  0  0  0  0  0  0  0  0
   43.5456  -19.0924  -10.7233 C   0  0  0  0  0  0  0  0  0  0  0  0
   44.2677  -17.7841  -10.5899 C   0  0  0  0  0  0  0  0  0  0  0  0
   43.3015  -16.6327  -10.7284 C   0  0  2  0  0  0  0  0  0  0  0  0
   42.7791  -16.5940  -12.1012 N   0  0  0  0  0  0  0  0  0  0  0  0
   43.9116  -15.3541  -10.3453 C   0  0  0  0  0  0  0  0  0  0  0  0
   44.4052  -14.6109  -11.2230 O   0  0  0  0  0  0  0  0  0  0  0  0
   43.9784  -14.8873   -8.9692 N   0  0  0  0  0  0  0  0  0  0  0  0
   43.3914  -15.6020   -7.8736 C   0  0  0  0  0  0  0  0  0  0  0  0
   43.4326  -14.6349   -6.7128 C   0  0  0  0  0  0  0  0  0  0  0  0
   44.5631  -13.6955   -7.0385 C   0  0  0  0  0  0  0  0  0  0  0  0
   44.6160  -13.7025   -8.5335 C   0  0  1  0  0  0  0  0  0  0  0  0
   46.0398  -13.6044   -8.9749 C   0  0  0  0  0  0  0  0  0  0  0  0
   46.7745  -14.6071   -8.8367 O   0  0  0  0  0  0  0  0  0  0  0  0
   47.4764  -12.1601  -12.3684 C   0  0  0  0  0  0  0  0  0  0  0  0
   48.0873  -11.4265  -11.1979 C   0  0  1  0  0  0  0  0  0  0  0  0
   47.3864  -10.2236  -11.0483 O   0  0  0  0  0  0  0  0  0  0  0  0
   47.9666  -12.2995   -9.9814 C   0  0  2  0  0  0  0  0  0  0  0  0
   46.5920  -12.4357   -9.5381 N   0  0  0  0  0  0  0  0  0  0  0  0
   48.6779  -11.6105   -8.8635 C   0  0  0  0  0  0  0  0  0  0  0  0
   50.0640  -11.6109   -8.9015 O   0  0  0  0  0  0  0  0  0  0  0  0
   48.0969  -11.0428   -7.9107 O   0  0  0  0  0  0  0  0  0  0  0  0
  1  2  1  0
  3  2  1  0
  4  3  1  0
  5  7  1  0
  5  4  1  0
  5  6  1  6
  7  9  1  0
  8  7  2  0
  9 10  1  0
  9 13  1  0
 10 11  1  0
 11 12  1  0
 13 12  1  0
 13 14  1  1
 14 20  1  0
 15 14  2  0
 17 16  1  6
 18 17  1  0
 19 17  1  0
 19 20  1  1
 19 21  1  0
 21 22  1  0
 23 21  2  0
M  END
$$$$
