MPT.pdb
     RDKit          3D

 23 23  0  0  1  0  0  0  0  0999 V2000
   10.8800  -10.2488   -7.9020 C   0  0  0  0  0  0  0  0  0  0  0  0
   11.7336   -9.2181   -9.0939 S   0  0  0  0  0  0  0  0  0  0  0  0
   13.4958   -9.0153   -8.6590 C   0  0  0  0  0  0  0  0  0  0  0  0
   14.1883   -8.1777   -9.6934 C   0  0  0  0  0  0  0  0  0  0  0  0
   15.6275   -7.9429   -9.3038 C   0  0  2  0  0  0  0  0  0  0  0  0
   15.6779   -7.1102   -8.0943 N   0  0  0  0  0  0  0  0  0  0  0  0
   16.4043   -7.3525  -10.4000 C   0  0  0  0  0  0  0  0  0  0  0  0
   16.5861   -6.1150  -10.4396 O   0  0  0  0  0  0  0  0  0  0  0  0
   16.9911   -8.1420  -11.4718 N   0  0  0  0  0  0  0  0  0  0  0  0
   16.9413   -9.5745  -11.5028 C   0  0  0  0  0  0  0  0  0  0  0  0
   17.9076   -9.9728  -12.5947 C   0  0  0  0  0  0  0  0  0  0  0  0
   17.9715   -8.7744  -13.5037 C   0  0  0  0  0  0  0  0  0  0  0  0
   17.6673   -7.6219  -12.5998 C   0  0  1  0  0  0  0  0  0  0  0  0
   16.8666   -6.6079  -13.3497 C   0  0  0  0  0  0  0  0  0  0  0  0
   15.7066   -6.9123  -13.7052 O   0  0  0  0  0  0  0  0  0  0  0  0
   15.1725   -3.5270  -12.5666 C   0  0  0  0  0  0  0  0  0  0  0  0
   16.2860   -3.1286  -13.5061 C   0  0  1  0  0  0  0  0  0  0  0  0
   17.3805   -2.7510  -12.7185 O   0  0  0  0  0  0  0  0  0  0  0  0
   16.6065   -4.3066  -14.3815 C   0  0  2  0  0  0  0  0  0  0  0  0
   17.3577   -5.3270  -13.6748 N   0  0  0  0  0  0  0  0  0  0  0  0
   17.5136   -3.8250  -15.4657 C   0  0  0  0  0  0  0  0  0  0  0  0
   16.9588   -3.0025  -16.4344 O   0  0  0  0  0  0  0  0  0  0  0  0
   18.7276   -4.1211  -15.5433 O   0  0  0  0  0  0  0  0  0  0  0  0
  1  2  1  0
  3  2  1  0
  4  3  1  0
  5  7  1  0
  5  4  1  0
  5  6  1  1
  7  9  1  0
  8  7  2  0
  9 10  1  0
  9 13  1  0
 10 11  1  0
 11 12  1  0
 13 12  1  0
 13 14  1  6
 14 20  1  0
 15 14  2  0
 17 16  1  1
 18 17  1  0
 19 17  1  0
 19 20  1  1
 19 21  1  0
 21 22  1  0
 23 21  2  0
M  END
$$$$
