DCY.pdb
     RDKit          3D

 27 27  0  0  1  0  0  0  0  0999 V2000
   23.9800  -12.1380  -19.0269 N   0  0  0  0  0  0  0  0  0  0  0  0
   23.2395  -10.9111  -18.9034 C   0  0  1  0  0  0  0  0  0  0  0  0
   21.8222  -11.1240  -18.4852 C   0  0  0  0  0  0  0  0  0  0  0  0
   21.1383  -12.1983  -19.2484 C   0  0  0  0  0  0  0  0  0  0  0  0
   20.8604  -12.1094  -20.4676 O   0  0  0  0  0  0  0  0  0  0  0  0
   23.9131   -9.9267  -18.0375 C   0  0  0  0  0  0  0  0  0  0  0  0
   25.0703  -10.1449  -17.5432 O   0  0  0  0  0  0  0  0  0  0  0  0
   20.7616  -13.3975  -18.6178 O   0  0  0  0  0  0  0  0  0  0  0  0
   23.3444   -8.6692  -17.6798 N   0  0  0  0  0  0  0  0  0  0  0  0
   24.0802   -7.6298  -16.9906 C   0  0  1  0  0  0  0  0  0  0  0  0
   25.3705   -7.3927  -17.6887 C   0  0  0  0  0  0  0  0  0  0  0  0
   26.2898   -6.1025  -16.8107 S   0  0  0  0  0  0  0  0  0  0  0  0
   23.2639   -6.3970  -16.8374 C   0  0  0  0  0  0  0  0  0  0  0  0
   22.8588   -5.8363  -17.8848 O   0  0  0  0  0  0  0  0  0  0  0  0
   18.3323   -9.4639  -12.6482 O   0  0  0  0  0  0  0  0  0  0  0  0
   18.8747   -8.4735  -13.4685 C   0  0  0  0  0  0  0  0  0  0  0  0
   19.3897   -8.7876  -14.7075 C   0  0  0  0  0  0  0  0  0  0  0  0
   19.9341   -7.7954  -15.5313 C   0  0  0  0  0  0  0  0  0  0  0  0
   19.9757   -6.4821  -15.1404 C   0  0  0  0  0  0  0  0  0  0  0  0
   20.5404   -5.4221  -15.9865 C   0  0  0  0  0  0  0  0  0  0  0  0
   21.8499   -4.8600  -15.4847 C   0  0  2  0  0  0  0  0  0  0  0  0
   22.9252   -5.8323  -15.5997 N   0  0  0  0  0  0  0  0  0  0  0  0
   21.7326   -4.3475  -14.0952 C   0  0  0  0  0  0  0  0  0  0  0  0
   22.5199   -4.8215  -13.0557 O   0  0  0  0  0  0  0  0  0  0  0  0
   19.4589   -6.1730  -13.8992 C   0  0  0  0  0  0  0  0  0  0  0  0
   18.9191   -7.1513  -13.0801 C   0  0  0  0  0  0  0  0  0  0  0  0
   20.8915   -3.4569  -13.8627 O   0  0  0  0  0  0  0  0  0  0  0  0
  2  1  1  1
  3  2  1  0
  4  3  1  0
  5  4  2  0
  6  2  1  0
  7  6  2  0
  8  4  1  0
  9  6  1  0
 10  9  1  0
 10 11  1  6
 11 12  1  0
 13 22  1  0
 13 10  1  0
 14 13  2  0
 16 15  1  0
 17 16  2  0
 18 17  1  0
 19 25  1  0
 19 18  2  0
 20 19  1  0
 21 23  1  0
 21 20  1  1
 21 22  1  0
 23 24  1  0
 25 26  2  0
 26 16  1  0
 27 23  2  0
M  END
$$$$
