DCY.pdb
     RDKit          3D

 27 27  0  0  1  0  0  0  0  0999 V2000
   23.7196  -16.6820  -20.4506 N   0  0  0  0  0  0  0  0  0  0  0  0
   23.8936  -17.7941  -19.5551 C   0  0  1  0  0  0  0  0  0  0  0  0
   25.2203  -17.7905  -18.8705 C   0  0  0  0  0  0  0  0  0  0  0  0
   26.3565  -18.0614  -19.7870 C   0  0  0  0  0  0  0  0  0  0  0  0
   26.2126  -18.3489  -20.9987 O   0  0  0  0  0  0  0  0  0  0  0  0
   22.7897  -17.9209  -18.5868 C   0  0  0  0  0  0  0  0  0  0  0  0
   22.3298  -16.9115  -17.9539 O   0  0  0  0  0  0  0  0  0  0  0  0
   27.6824  -18.0055  -19.3216 O   0  0  0  0  0  0  0  0  0  0  0  0
   22.1505  -19.1565  -18.2747 N   0  0  0  0  0  0  0  0  0  0  0  0
   21.1453  -19.2942  -17.2414 C   0  0  1  0  0  0  0  0  0  0  0  0
   19.9716  -20.0230  -17.7886 C   0  0  0  0  0  0  0  0  0  0  0  0
   18.7567  -20.2649  -16.4671 S   0  0  0  0  0  0  0  0  0  0  0  0
   21.7067  -19.9257  -16.0184 C   0  0  0  0  0  0  0  0  0  0  0  0
   22.4350  -20.9367  -16.1704 O   0  0  0  0  0  0  0  0  0  0  0  0
   25.2373  -21.4921   -8.1120 O   0  0  0  0  0  0  0  0  0  0  0  0
   24.6426  -20.9171   -9.2361 C   0  0  0  0  0  0  0  0  0  0  0  0
   23.3268  -20.5085   -9.2069 C   0  0  0  0  0  0  0  0  0  0  0  0
   22.7289  -19.9317  -10.3335 C   0  0  0  0  0  0  0  0  0  0  0  0
   23.4241  -19.7521  -11.5013 C   0  0  0  0  0  0  0  0  0  0  0  0
   22.8203  -19.1485  -12.6969 C   0  0  0  0  0  0  0  0  0  0  0  0
   22.0530  -20.1207  -13.5621 C   0  0  2  0  0  0  0  0  0  0  0  0
   21.4696  -19.4586  -14.7180 N   0  0  0  0  0  0  0  0  0  0  0  0
   21.0221  -20.8549  -12.7841 C   0  0  0  0  0  0  0  0  0  0  0  0
   19.8021  -20.2899  -12.4417 O   0  0  0  0  0  0  0  0  0  0  0  0
   24.7409  -20.1628  -11.5253 C   0  0  0  0  0  0  0  0  0  0  0  0
   25.3372  -20.7343  -10.4130 C   0  0  0  0  0  0  0  0  0  0  0  0
   21.2710  -22.0240  -12.4289 O   0  0  0  0  0  0  0  0  0  0  0  0
  2  1  1  1
  3  2  1  0
  4  3  1  0
  5  4  2  0
  6  2  1  0
  7  6  2  0
  8  4  1  0
  9  6  1  0
 10  9  1  0
 10 11  1  6
 11 12  1  0
 13 22  1  0
 13 10  1  0
 14 13  2  0
 16 15  1  0
 17 16  2  0
 18 17  1  0
 19 25  1  0
 19 18  2  0
 20 19  1  0
 21 23  1  0
 21 20  1  1
 21 22  1  0
 23 24  1  0
 25 26  2  0
 26 16  1  0
 27 23  2  0
M  END
$$$$
