DCY.pdb
     RDKit          3D

 27 27  0  0  1  0  0  0  0  0999 V2000
   29.1470  -20.6083  -19.3094 N   0  0  0  0  0  0  0  0  0  0  0  0
   28.2438  -21.4468  -18.5677 C   0  0  1  0  0  0  0  0  0  0  0  0
   28.8709  -22.0516  -17.3554 C   0  0  0  0  0  0  0  0  0  0  0  0
   29.4638  -23.3898  -17.6046 C   0  0  0  0  0  0  0  0  0  0  0  0
   29.4463  -23.9550  -18.7235 O   0  0  0  0  0  0  0  0  0  0  0  0
   26.9801  -20.7649  -18.2356 C   0  0  0  0  0  0  0  0  0  0  0  0
   26.8871  -19.4913  -18.2155 O   0  0  0  0  0  0  0  0  0  0  0  0
   30.0890  -24.1020  -16.5656 O   0  0  0  0  0  0  0  0  0  0  0  0
   25.7733  -21.4514  -17.9115 N   0  0  0  0  0  0  0  0  0  0  0  0
   24.5494  -20.7755  -17.5342 C   0  0  1  0  0  0  0  0  0  0  0  0
   23.5106  -21.0222  -18.5677 C   0  0  0  0  0  0  0  0  0  0  0  0
   23.7431  -19.8528  -19.9311 S   0  0  0  0  0  0  0  0  0  0  0  0
   24.1155  -21.1618  -16.1659 C   0  0  0  0  0  0  0  0  0  0  0  0
   24.1119  -22.3846  -15.8827 O   0  0  0  0  0  0  0  0  0  0  0  0
   23.1290  -21.1372   -7.3869 O   0  0  0  0  0  0  0  0  0  0  0  0
   23.2868  -20.7585   -8.7209 C   0  0  0  0  0  0  0  0  0  0  0  0
   22.2055  -20.3480   -9.4702 C   0  0  0  0  0  0  0  0  0  0  0  0
   22.3622  -19.9679  -10.8084 C   0  0  0  0  0  0  0  0  0  0  0  0
   23.5884  -19.9890  -11.4208 C   0  0  0  0  0  0  0  0  0  0  0  0
   23.7796  -19.5941  -12.8230 C   0  0  0  0  0  0  0  0  0  0  0  0
   23.4342  -20.6722  -13.8234 C   0  0  2  0  0  0  0  0  0  0  0  0
   23.7142  -20.2443  -15.1847 N   0  0  0  0  0  0  0  0  0  0  0  0
   22.0270  -21.1263  -13.6795 C   0  0  0  0  0  0  0  0  0  0  0  0
   20.9531  -20.3955  -14.1670 O   0  0  0  0  0  0  0  0  0  0  0  0
   24.6675  -20.4007  -10.6663 C   0  0  0  0  0  0  0  0  0  0  0  0
   24.5177  -20.7779   -9.3417 C   0  0  0  0  0  0  0  0  0  0  0  0
   21.8114  -22.2074  -13.0967 O   0  0  0  0  0  0  0  0  0  0  0  0
  2  1  1  1
  3  2  1  0
  4  3  1  0
  5  4  2  0
  6  2  1  0
  7  6  2  0
  8  4  1  0
  9  6  1  0
 10  9  1  0
 10 11  1  6
 11 12  1  0
 13 22  1  0
 13 10  1  0
 14 13  2  0
 16 15  1  0
 17 16  2  0
 18 17  1  0
 19 25  1  0
 19 18  2  0
 20 19  1  0
 21 23  1  0
 21 20  1  1
 21 22  1  0
 23 24  1  0
 25 26  2  0
 26 16  1  0
 27 23  2  0
M  END
$$$$
