DCY.pdb
     RDKit          3D

 27 27  0  0  1  0  0  0  0  0999 V2000
   17.7811  -11.4946  -17.9794 N   0  0  0  0  0  0  0  0  0  0  0  0
   18.5162  -10.7367  -17.0026 C   0  0  1  0  0  0  0  0  0  0  0  0
   19.8175  -11.3679  -16.6322 C   0  0  0  0  0  0  0  0  0  0  0  0
   19.6680  -12.7212  -16.0402 C   0  0  0  0  0  0  0  0  0  0  0  0
   18.6662  -13.0773  -15.3760 O   0  0  0  0  0  0  0  0  0  0  0  0
   18.6952   -9.3274  -17.3955 C   0  0  0  0  0  0  0  0  0  0  0  0
   18.5437   -8.9404  -18.6031 O   0  0  0  0  0  0  0  0  0  0  0  0
   20.6734  -13.6907  -16.2041 O   0  0  0  0  0  0  0  0  0  0  0  0
   19.0483   -8.2913  -16.4820 N   0  0  0  0  0  0  0  0  0  0  0  0
   19.0534   -6.8867  -16.8345 C   0  0  1  0  0  0  0  0  0  0  0  0
   17.7133   -6.5020  -17.3485 C   0  0  0  0  0  0  0  0  0  0  0  0
   17.7207   -4.7375  -17.7574 S   0  0  0  0  0  0  0  0  0  0  0  0
   19.5071   -6.0433  -15.6976 C   0  0  0  0  0  0  0  0  0  0  0  0
   18.8901   -6.1556  -14.6103 O   0  0  0  0  0  0  0  0  0  0  0  0
   23.1554  -10.4646  -14.0011 O   0  0  0  0  0  0  0  0  0  0  0  0
   22.9680   -9.0821  -14.0392 C   0  0  0  0  0  0  0  0  0  0  0  0
   22.2927   -8.4336  -13.0280 C   0  0  0  0  0  0  0  0  0  0  0  0
   22.1040   -7.0470  -13.0649 C   0  0  0  0  0  0  0  0  0  0  0  0
   22.5803   -6.2859  -14.1007 C   0  0  0  0  0  0  0  0  0  0  0  0
   22.3965   -4.8295  -14.1624 C   0  0  0  0  0  0  0  0  0  0  0  0
   21.0177   -4.3967  -14.6028 C   0  0  2  0  0  0  0  0  0  0  0  0
   20.5755   -5.1386  -15.7729 N   0  0  0  0  0  0  0  0  0  0  0  0
   20.9490   -2.9311  -14.8359 C   0  0  0  0  0  0  0  0  0  0  0  0
   21.2123   -2.0033  -13.8386 O   0  0  0  0  0  0  0  0  0  0  0  0
   23.2556   -6.9399  -15.1104 C   0  0  0  0  0  0  0  0  0  0  0  0
   23.4449   -8.3119  -15.0786 C   0  0  0  0  0  0  0  0  0  0  0  0
   20.6419   -2.5275  -15.9751 O   0  0  0  0  0  0  0  0  0  0  0  0
  2  1  1  6
  3  2  1  0
  4  3  1  0
  5  4  2  0
  6  2  1  0
  7  6  2  0
  8  4  1  0
  9  6  1  0
 10  9  1  0
 10 11  1  1
 11 12  1  0
 13 22  1  0
 13 10  1  0
 14 13  2  0
 16 15  1  0
 17 16  2  0
 18 17  1  0
 19 25  1  0
 19 18  2  0
 20 19  1  0
 21 23  1  0
 21 20  1  6
 21 22  1  0
 23 24  1  0
 25 26  2  0
 26 16  1  0
 27 23  2  0
M  END
$$$$
