DCY.pdb
     RDKit          3D

 27 27  0  0  1  0  0  0  0  0999 V2000
   28.4591  -21.4761  -16.0477 N   0  0  0  0  0  0  0  0  0  0  0  0
   27.6557  -20.5666  -15.2755 C   0  0  1  0  0  0  0  0  0  0  0  0
   27.0040  -19.5122  -16.1076 C   0  0  0  0  0  0  0  0  0  0  0  0
   27.9678  -18.7114  -16.9039 C   0  0  0  0  0  0  0  0  0  0  0  0
   27.8186  -18.4651  -18.1240 O   0  0  0  0  0  0  0  0  0  0  0  0
   26.6744  -21.2607  -14.4224 C   0  0  0  0  0  0  0  0  0  0  0  0
   25.9094  -22.1742  -14.8819 O   0  0  0  0  0  0  0  0  0  0  0  0
   29.1239  -18.1787  -16.3060 O   0  0  0  0  0  0  0  0  0  0  0  0
   26.4933  -20.9790  -13.0365 N   0  0  0  0  0  0  0  0  0  0  0  0
   25.3655  -21.4612  -12.2668 C   0  0  1  0  0  0  0  0  0  0  0  0
   25.6197  -21.2302  -10.8210 C   0  0  0  0  0  0  0  0  0  0  0  0
   25.3419  -19.4806  -10.4437 S   0  0  0  0  0  0  0  0  0  0  0  0
   24.0898  -20.8614  -12.7386 C   0  0  0  0  0  0  0  0  0  0  0  0
   24.1467  -19.7310  -13.2813 O   0  0  0  0  0  0  0  0  0  0  0  0
   16.9084  -18.7989  -17.0379 O   0  0  0  0  0  0  0  0  0  0  0  0
   18.0536  -19.3425  -16.4541 C   0  0  0  0  0  0  0  0  0  0  0  0
   19.1095  -18.5361  -16.0882 C   0  0  0  0  0  0  0  0  0  0  0  0
   20.2588  -19.0799  -15.5025 C   0  0  0  0  0  0  0  0  0  0  0  0
   20.3776  -20.4260  -15.2718 C   0  0  0  0  0  0  0  0  0  0  0  0
   21.5723  -21.0212  -14.6578 C   0  0  0  0  0  0  0  0  0  0  0  0
   21.6368  -20.8727  -13.1558 C   0  0  2  0  0  0  0  0  0  0  0  0
   22.8396  -21.4830  -12.6119 N   0  0  0  0  0  0  0  0  0  0  0  0
   20.4165  -21.4058  -12.4970 C   0  0  0  0  0  0  0  0  0  0  0  0
   19.3544  -20.5947  -12.1245 O   0  0  0  0  0  0  0  0  0  0  0  0
   19.3178  -21.2288  -15.6399 C   0  0  0  0  0  0  0  0  0  0  0  0
   18.1782  -20.6955  -16.2199 C   0  0  0  0  0  0  0  0  0  0  0  0
   20.3526  -22.6310  -12.2738 O   0  0  0  0  0  0  0  0  0  0  0  0
  2  1  1  6
  3  2  1  0
  4  3  1  0
  5  4  2  0
  6  2  1  0
  7  6  2  0
  8  4  1  0
  9  6  1  0
 10  9  1  0
 10 11  1  1
 11 12  1  0
 13 22  1  0
 13 10  1  0
 14 13  2  0
 16 15  1  0
 17 16  2  0
 18 17  1  0
 19 25  1  0
 19 18  2  0
 20 19  1  0
 21 23  1  0
 21 20  1  6
 21 22  1  0
 23 24  1  0
 25 26  2  0
 26 16  1  0
 27 23  2  0
M  END
$$$$
