DCY.pdb
     RDKit          3D

 27 27  0  0  1  0  0  0  0  0999 V2000
   18.9584  -12.8448  -16.8237 N   0  0  0  0  0  0  0  0  0  0  0  0
   18.7380  -11.7394  -17.7173 C   0  0  1  0  0  0  0  0  0  0  0  0
   17.6357  -11.9881  -18.6930 C   0  0  0  0  0  0  0  0  0  0  0  0
   17.7906  -13.2589  -19.4450 C   0  0  0  0  0  0  0  0  0  0  0  0
   18.3682  -13.3383  -20.5548 O   0  0  0  0  0  0  0  0  0  0  0  0
   18.5473  -10.4633  -17.0049 C   0  0  0  0  0  0  0  0  0  0  0  0
   18.3928   -9.3600  -17.6293 O   0  0  0  0  0  0  0  0  0  0  0  0
   17.2810  -14.4639  -18.9294 O   0  0  0  0  0  0  0  0  0  0  0  0
   18.5208  -10.3479  -15.5841 N   0  0  0  0  0  0  0  0  0  0  0  0
   18.3656   -9.0862  -14.8906 C   0  0  1  0  0  0  0  0  0  0  0  0
   17.3935   -9.2505  -13.7787 C   0  0  0  0  0  0  0  0  0  0  0  0
   15.7633   -9.6321  -14.4698 S   0  0  0  0  0  0  0  0  0  0  0  0
   19.6770   -8.5466  -14.4448 C   0  0  0  0  0  0  0  0  0  0  0  0
   20.5762   -9.3736  -14.1567 O   0  0  0  0  0  0  0  0  0  0  0  0
   26.5143   -4.1231  -17.3105 O   0  0  0  0  0  0  0  0  0  0  0  0
   25.3886   -4.8603  -16.9399 C   0  0  0  0  0  0  0  0  0  0  0  0
   25.3633   -6.2304  -17.0855 C   0  0  0  0  0  0  0  0  0  0  0  0
   24.2350   -6.9712  -16.7143 C   0  0  0  0  0  0  0  0  0  0  0  0
   23.1195   -6.3667  -16.1952 C   0  0  0  0  0  0  0  0  0  0  0  0
   21.9235   -7.1213  -15.7970 C   0  0  0  0  0  0  0  0  0  0  0  0
   21.3168   -6.6756  -14.4871 C   0  0  2  0  0  0  0  0  0  0  0  0
   19.9614   -7.1786  -14.3300 N   0  0  0  0  0  0  0  0  0  0  0  0
   21.3652   -5.1988  -14.3323 C   0  0  0  0  0  0  0  0  0  0  0  0
   22.4289   -4.5462  -13.7261 O   0  0  0  0  0  0  0  0  0  0  0  0
   23.1500   -4.9950  -16.0515 C   0  0  0  0  0  0  0  0  0  0  0  0
   24.2642   -4.2574  -16.4174 C   0  0  0  0  0  0  0  0  0  0  0  0
   20.4086   -4.5272  -14.7667 O   0  0  0  0  0  0  0  0  0  0  0  0
  2  1  1  1
  3  2  1  0
  4  3  1  0
  5  4  2  0
  6  2  1  0
  7  6  2  0
  8  4  1  0
  9  6  1  0
 10  9  1  0
 10 11  1  1
 11 12  1  0
 13 22  1  0
 13 10  1  0
 14 13  2  0
 16 15  1  0
 17 16  2  0
 18 17  1  0
 19 25  1  0
 19 18  2  0
 20 19  1  0
 21 23  1  0
 21 20  1  6
 21 22  1  0
 23 24  1  0
 25 26  2  0
 26 16  1  0
 27 23  2  0
M  END
$$$$
