DCY.pdb
     RDKit          3D

 27 27  0  0  1  0  0  0  0  0999 V2000
   21.7749  -12.9711  -18.3456 N   0  0  0  0  0  0  0  0  0  0  0  0
   22.0851  -11.5666  -18.3359 C   0  0  1  0  0  0  0  0  0  0  0  0
   21.8433  -10.9060  -19.6527 C   0  0  0  0  0  0  0  0  0  0  0  0
   22.6624  -11.4716  -20.7543 C   0  0  0  0  0  0  0  0  0  0  0  0
   23.8640  -11.1701  -20.9460 O   0  0  0  0  0  0  0  0  0  0  0  0
   21.4125  -10.8447  -17.2410 C   0  0  0  0  0  0  0  0  0  0  0  0
   20.2163  -11.1195  -16.8880 O   0  0  0  0  0  0  0  0  0  0  0  0
   22.1092  -12.3974  -21.6569 O   0  0  0  0  0  0  0  0  0  0  0  0
   22.0233   -9.7948  -16.4944 N   0  0  0  0  0  0  0  0  0  0  0  0
   21.3323   -9.0404  -15.4695 C   0  0  1  0  0  0  0  0  0  0  0  0
   22.1230   -9.0774  -14.2118 C   0  0  0  0  0  0  0  0  0  0  0  0
   21.2791   -8.0852  -12.9532 S   0  0  0  0  0  0  0  0  0  0  0  0
   21.0253   -7.6594  -15.9259 C   0  0  0  0  0  0  0  0  0  0  0  0
   21.9486   -7.0129  -16.4782 O   0  0  0  0  0  0  0  0  0  0  0  0
   18.1833   -0.2338  -19.3642 O   0  0  0  0  0  0  0  0  0  0  0  0
   18.4240   -1.5409  -18.9383 C   0  0  0  0  0  0  0  0  0  0  0  0
   17.4418   -2.5036  -19.0259 C   0  0  0  0  0  0  0  0  0  0  0  0
   17.6818   -3.8150  -18.5991 C   0  0  0  0  0  0  0  0  0  0  0  0
   18.8945   -4.1899  -18.0812 C   0  0  0  0  0  0  0  0  0  0  0  0
   19.1720   -5.5594  -17.6275 C   0  0  0  0  0  0  0  0  0  0  0  0
   19.5600   -5.6633  -16.1711 C   0  0  2  0  0  0  0  0  0  0  0  0
   19.7737   -7.0461  -15.7747 N   0  0  0  0  0  0  0  0  0  0  0  0
   18.5686   -4.9964  -15.2882 C   0  0  0  0  0  0  0  0  0  0  0  0
   18.6980   -3.6754  -14.8845 O   0  0  0  0  0  0  0  0  0  0  0  0
   19.8743   -3.2224  -17.9957 C   0  0  0  0  0  0  0  0  0  0  0  0
   19.6417   -1.9231  -18.4167 C   0  0  0  0  0  0  0  0  0  0  0  0
   17.5848   -5.6567  -14.8995 O   0  0  0  0  0  0  0  0  0  0  0  0
  2  1  1  6
  3  2  1  0
  4  3  1  0
  5  4  2  0
  6  2  1  0
  7  6  2  0
  8  4  1  0
  9  6  1  0
 10  9  1  0
 10 11  1  1
 11 12  1  0
 13 22  1  0
 13 10  1  0
 14 13  2  0
 16 15  1  0
 17 16  2  0
 18 17  1  0
 19 25  1  0
 19 18  2  0
 20 19  1  0
 21 23  1  0
 21 20  1  6
 21 22  1  0
 23 24  1  0
 25 26  2  0
 26 16  1  0
 27 23  2  0
M  END
$$$$
