DCY.pdb
     RDKit          3D

 27 27  0  0  1  0  0  0  0  0999 V2000
   27.0711  -21.3400  -18.9059 N   0  0  0  0  0  0  0  0  0  0  0  0
   28.4093  -20.9386  -18.5636 C   0  0  1  0  0  0  0  0  0  0  0  0
   28.9446  -19.8688  -19.4568 C   0  0  0  0  0  0  0  0  0  0  0  0
   28.7066  -20.1318  -20.8985 C   0  0  0  0  0  0  0  0  0  0  0  0
   27.5651  -20.2905  -21.3921 O   0  0  0  0  0  0  0  0  0  0  0  0
   28.5452  -20.5703  -17.1430 C   0  0  0  0  0  0  0  0  0  0  0  0
   29.6463  -20.1381  -16.6616 O   0  0  0  0  0  0  0  0  0  0  0  0
   29.7832  -20.2167  -21.7993 O   0  0  0  0  0  0  0  0  0  0  0  0
   27.4822  -20.6634  -16.1975 N   0  0  0  0  0  0  0  0  0  0  0  0
   27.5070  -20.0113  -14.9047 C   0  0  1  0  0  0  0  0  0  0  0  0
   27.4760  -18.5378  -15.0945 C   0  0  0  0  0  0  0  0  0  0  0  0
   27.2645  -17.7381  -13.4831 S   0  0  0  0  0  0  0  0  0  0  0  0
   26.4182  -20.5099  -14.0240 C   0  0  0  0  0  0  0  0  0  0  0  0
   25.2595  -20.5556  -14.5044 O   0  0  0  0  0  0  0  0  0  0  0  0
   28.1281  -18.7169   -6.6904 O   0  0  0  0  0  0  0  0  0  0  0  0
   27.6105  -19.5674   -7.6685 C   0  0  0  0  0  0  0  0  0  0  0  0
   26.2502  -19.7416   -7.8037 C   0  0  0  0  0  0  0  0  0  0  0  0
   25.7295  -20.5943   -8.7842 C   0  0  0  0  0  0  0  0  0  0  0  0
   26.5468  -21.2841   -9.6419 C   0  0  0  0  0  0  0  0  0  0  0  0
   26.0256  -22.1839  -10.6797 C   0  0  0  0  0  0  0  0  0  0  0  0
   25.5190  -21.4776  -11.9154 C   0  0  2  0  0  0  0  0  0  0  0  0
   26.6129  -20.9274  -12.6999 N   0  0  0  0  0  0  0  0  0  0  0  0
   24.5170  -20.4331  -11.5806 C   0  0  0  0  0  0  0  0  0  0  0  0
   23.1861  -20.7300  -11.3249 O   0  0  0  0  0  0  0  0  0  0  0  0
   27.9077  -21.1062   -9.5023 C   0  0  0  0  0  0  0  0  0  0  0  0
   28.4279  -20.2635   -8.5335 C   0  0  0  0  0  0  0  0  0  0  0  0
   24.8951  -19.2460  -11.5296 O   0  0  0  0  0  0  0  0  0  0  0  0
  2  1  1  6
  3  2  1  0
  4  3  1  0
  5  4  2  0
  6  2  1  0
  7  6  2  0
  8  4  1  0
  9  6  1  0
 10  9  1  0
 10 11  1  6
 11 12  1  0
 13 22  1  0
 13 10  1  0
 14 13  2  0
 16 15  1  0
 17 16  2  0
 18 17  1  0
 19 25  1  0
 19 18  2  0
 20 19  1  0
 21 23  1  0
 21 20  1  1
 21 22  1  0
 23 24  1  0
 25 26  2  0
 26 16  1  0
 27 23  2  0
M  END
$$$$
