DCY.pdb
     RDKit          3D

 27 27  0  0  1  0  0  0  0  0999 V2000
   16.2880  -13.0499  -18.0168 N   0  0  0  0  0  0  0  0  0  0  0  0
   17.3439  -12.9168  -17.0491 C   0  0  1  0  0  0  0  0  0  0  0  0
   18.3786  -13.9870  -17.1629 C   0  0  0  0  0  0  0  0  0  0  0  0
   17.8379  -15.3535  -16.9517 C   0  0  0  0  0  0  0  0  0  0  0  0
   18.1696  -16.3423  -17.6473 O   0  0  0  0  0  0  0  0  0  0  0  0
   17.9550  -11.5756  -17.0570 C   0  0  0  0  0  0  0  0  0  0  0  0
   18.3560  -11.0246  -18.1371 O   0  0  0  0  0  0  0  0  0  0  0  0
   16.9027  -15.6050  -15.9319 O   0  0  0  0  0  0  0  0  0  0  0  0
   18.1512  -10.7898  -15.8837 N   0  0  0  0  0  0  0  0  0  0  0  0
   18.7361   -9.4651  -15.9012 C   0  0  1  0  0  0  0  0  0  0  0  0
   17.9563   -8.5695  -15.0079 C   0  0  0  0  0  0  0  0  0  0  0  0
   18.7511   -6.9426  -14.9613 S   0  0  0  0  0  0  0  0  0  0  0  0
   20.1840   -9.5065  -15.5674 C   0  0  0  0  0  0  0  0  0  0  0  0
   20.6054  -10.5076  -14.9385 O   0  0  0  0  0  0  0  0  0  0  0  0
   28.6779  -10.5911  -16.0872 O   0  0  0  0  0  0  0  0  0  0  0  0
   27.2961  -10.4163  -16.1766 C   0  0  0  0  0  0  0  0  0  0  0  0
   26.7402   -9.7148  -17.2244 C   0  0  0  0  0  0  0  0  0  0  0  0
   25.3544   -9.5387  -17.3155 C   0  0  0  0  0  0  0  0  0  0  0  0
   24.5027  -10.0536  -16.3728 C   0  0  0  0  0  0  0  0  0  0  0  0
   23.0452   -9.8838  -16.4460 C   0  0  0  0  0  0  0  0  0  0  0  0
   22.5243   -8.6729  -15.7080 C   0  0  2  0  0  0  0  0  0  0  0  0
   21.0952   -8.4987  -15.9133 N   0  0  0  0  0  0  0  0  0  0  0  0
   23.2749   -7.4428  -16.0694 C   0  0  0  0  0  0  0  0  0  0  0  0
   24.4241   -7.0460  -15.4011 O   0  0  0  0  0  0  0  0  0  0  0  0
   25.0643  -10.7550  -15.3260 C   0  0  0  0  0  0  0  0  0  0  0  0
   26.4351  -10.9320  -15.2313 C   0  0  0  0  0  0  0  0  0  0  0  0
   22.8486   -6.7456  -17.0112 O   0  0  0  0  0  0  0  0  0  0  0  0
  2  1  1  6
  3  2  1  0
  4  3  1  0
  5  4  2  0
  6  2  1  0
  7  6  2  0
  8  4  1  0
  9  6  1  0
 10  9  1  0
 10 11  1  1
 11 12  1  0
 13 22  1  0
 13 10  1  0
 14 13  2  0
 16 15  1  0
 17 16  2  0
 18 17  1  0
 19 25  1  0
 19 18  2  0
 20 19  1  0
 21 23  1  0
 21 20  1  6
 21 22  1  0
 23 24  1  0
 25 26  2  0
 26 16  1  0
 27 23  2  0
M  END
$$$$
