DCY.pdb
     RDKit          3D

 27 27  0  0  1  0  0  0  0  0999 V2000
   19.4763  -11.3174  -18.2118 N   0  0  0  0  0  0  0  0  0  0  0  0
   20.1597  -10.4554  -17.2850 C   0  0  1  0  0  0  0  0  0  0  0  0
   21.2684   -9.6805  -17.9168 C   0  0  0  0  0  0  0  0  0  0  0  0
   22.4260  -10.5231  -18.3097 C   0  0  0  0  0  0  0  0  0  0  0  0
   22.5117  -11.7454  -18.0448 O   0  0  0  0  0  0  0  0  0  0  0  0
   19.2389   -9.5717  -16.5475 C   0  0  0  0  0  0  0  0  0  0  0  0
   18.2478   -9.0042  -17.1189 O   0  0  0  0  0  0  0  0  0  0  0  0
   23.5084   -9.9699  -19.0170 O   0  0  0  0  0  0  0  0  0  0  0  0
   19.3705   -9.2755  -15.1591 N   0  0  0  0  0  0  0  0  0  0  0  0
   18.4609   -8.4075  -14.4405 C   0  0  1  0  0  0  0  0  0  0  0  0
   17.0864   -8.9682  -14.5085 C   0  0  0  0  0  0  0  0  0  0  0  0
   17.0444  -10.5419  -13.6128 S   0  0  0  0  0  0  0  0  0  0  0  0
   18.9254   -8.1669  -13.0491 C   0  0  0  0  0  0  0  0  0  0  0  0
   19.7974   -8.9425  -12.5869 O   0  0  0  0  0  0  0  0  0  0  0  0
   22.1115   -2.5213  -14.3676 O   0  0  0  0  0  0  0  0  0  0  0  0
   21.7050   -3.5489  -13.5151 C   0  0  0  0  0  0  0  0  0  0  0  0
   22.1759   -4.8330  -13.6836 C   0  0  0  0  0  0  0  0  0  0  0  0
   21.7690   -5.8648  -12.8294 C   0  0  0  0  0  0  0  0  0  0  0  0
   20.8928   -5.6393  -11.7996 C   0  0  0  0  0  0  0  0  0  0  0  0
   20.4512   -6.7043  -10.8888 C   0  0  0  0  0  0  0  0  0  0  0  0
   18.9587   -6.9381  -10.8857 C   0  0  2  0  0  0  0  0  0  0  0  0
   18.4476   -7.1316  -12.2333 N   0  0  0  0  0  0  0  0  0  0  0  0
   18.2322   -5.8480  -10.1849 C   0  0  0  0  0  0  0  0  0  0  0  0
   18.3573   -5.6237   -8.8215 O   0  0  0  0  0  0  0  0  0  0  0  0
   20.4244   -4.3521  -11.6353 C   0  0  0  0  0  0  0  0  0  0  0  0
   20.8240   -3.3276  -12.4779 C   0  0  0  0  0  0  0  0  0  0  0  0
   17.4828   -5.1107  -10.8555 O   0  0  0  0  0  0  0  0  0  0  0  0
  2  1  1  6
  3  2  1  0
  4  3  1  0
  5  4  2  0
  6  2  1  0
  7  6  2  0
  8  4  1  0
  9  6  1  0
 10  9  1  0
 10 11  1  1
 11 12  1  0
 13 22  1  0
 13 10  1  0
 14 13  2  0
 16 15  1  0
 17 16  2  0
 18 17  1  0
 19 25  1  0
 19 18  2  0
 20 19  1  0
 21 23  1  0
 21 20  1  6
 21 22  1  0
 23 24  1  0
 25 26  2  0
 26 16  1  0
 27 23  2  0
M  END
$$$$
