DCY.pdb
     RDKit          3D

 27 27  0  0  1  0  0  0  0  0999 V2000
   21.3947  -13.4229  -18.0511 N   0  0  0  0  0  0  0  0  0  0  0  0
   20.6008  -12.2355  -18.2207 C   0  0  1  0  0  0  0  0  0  0  0  0
   19.1944  -12.4008  -17.7479 C   0  0  0  0  0  0  0  0  0  0  0  0
   18.4650  -13.4927  -18.4407 C   0  0  0  0  0  0  0  0  0  0  0  0
   18.2181  -14.6021  -17.9116 O   0  0  0  0  0  0  0  0  0  0  0  0
   21.2306  -11.0425  -17.6269 C   0  0  0  0  0  0  0  0  0  0  0  0
   21.7261  -11.0578  -16.4499 O   0  0  0  0  0  0  0  0  0  0  0  0
   18.0059  -13.3246  -19.7593 O   0  0  0  0  0  0  0  0  0  0  0  0
   21.3390   -9.7894  -18.2982 N   0  0  0  0  0  0  0  0  0  0  0  0
   22.0107   -8.6382  -17.7319 C   0  0  1  0  0  0  0  0  0  0  0  0
   22.3896   -7.7022  -18.8221 C   0  0  0  0  0  0  0  0  0  0  0  0
   23.6828   -8.4659  -19.8346 S   0  0  0  0  0  0  0  0  0  0  0  0
   21.1893   -7.9977  -16.6713 C   0  0  0  0  0  0  0  0  0  0  0  0
   19.9413   -8.0469  -16.7959 O   0  0  0  0  0  0  0  0  0  0  0  0
   18.1317   -5.2660   -8.8746 O   0  0  0  0  0  0  0  0  0  0  0  0
   18.9439   -5.7109   -9.9189 C   0  0  0  0  0  0  0  0  0  0  0  0
   19.1134   -7.0578  -10.1560 C   0  0  0  0  0  0  0  0  0  0  0  0
   19.9277   -7.5056  -11.2029 C   0  0  0  0  0  0  0  0  0  0  0  0
   20.5833   -6.6279  -12.0270 C   0  0  0  0  0  0  0  0  0  0  0  0
   21.4425   -7.0720  -13.1329 C   0  0  0  0  0  0  0  0  0  0  0  0
   20.8682   -6.8142  -14.5063 C   0  0  2  0  0  0  0  0  0  0  0  0
   21.7270   -7.3485  -15.5511 N   0  0  0  0  0  0  0  0  0  0  0  0
   20.5880   -5.3715  -14.7239 C   0  0  0  0  0  0  0  0  0  0  0  0
   19.3364   -4.8132  -14.5082 O   0  0  0  0  0  0  0  0  0  0  0  0
   20.4103   -5.2807  -11.7853 C   0  0  0  0  0  0  0  0  0  0  0  0
   19.6055   -4.8325  -10.7505 C   0  0  0  0  0  0  0  0  0  0  0  0
   21.5196   -4.6410  -15.1156 O   0  0  0  0  0  0  0  0  0  0  0  0
  2  1  1  1
  3  2  1  0
  4  3  1  0
  5  4  2  0
  6  2  1  0
  7  6  2  0
  8  4  1  0
  9  6  1  0
 10  9  1  0
 10 11  1  6
 11 12  1  0
 13 22  1  0
 13 10  1  0
 14 13  2  0
 16 15  1  0
 17 16  2  0
 18 17  1  0
 19 25  1  0
 19 18  2  0
 20 19  1  0
 21 23  1  0
 21 20  1  1
 21 22  1  0
 23 24  1  0
 25 26  2  0
 26 16  1  0
 27 23  2  0
M  END
$$$$
