DCY.pdb
     RDKit          3D

 27 27  0  0  1  0  0  0  0  0999 V2000
   27.4620  -33.8476   -7.0853 N   0  0  0  0  0  0  0  0  0  0  0  0
   26.7307  -34.7906   -6.2823 C   0  0  1  0  0  0  0  0  0  0  0  0
   26.2186  -35.9527   -7.0672 C   0  0  0  0  0  0  0  0  0  0  0  0
   25.3369  -36.8518   -6.2807 C   0  0  0  0  0  0  0  0  0  0  0  0
   25.4076  -38.1025   -6.3279 O   0  0  0  0  0  0  0  0  0  0  0  0
   27.4873  -35.2339   -5.0976 C   0  0  0  0  0  0  0  0  0  0  0  0
   27.0978  -36.2143   -4.3778 O   0  0  0  0  0  0  0  0  0  0  0  0
   24.3553  -36.3234   -5.4233 O   0  0  0  0  0  0  0  0  0  0  0  0
   28.6960  -34.6195   -4.6567 N   0  0  0  0  0  0  0  0  0  0  0  0
   29.3968  -35.0147   -3.4527 C   0  0  1  0  0  0  0  0  0  0  0  0
   30.8622  -34.9391   -3.6872 C   0  0  0  0  0  0  0  0  0  0  0  0
   31.3096  -36.0911   -5.0114 S   0  0  0  0  0  0  0  0  0  0  0  0
   28.9513  -34.2186   -2.2790 C   0  0  0  0  0  0  0  0  0  0  0  0
   28.6129  -33.0270   -2.4817 O   0  0  0  0  0  0  0  0  0  0  0  0
   24.1151  -31.0389    4.0791 O   0  0  0  0  0  0  0  0  0  0  0  0
   24.7927  -31.6531    3.0248 C   0  0  0  0  0  0  0  0  0  0  0  0
   25.6230  -30.9250    2.2005 C   0  0  0  0  0  0  0  0  0  0  0  0
   26.3032  -31.5396    1.1426 C   0  0  0  0  0  0  0  0  0  0  0  0
   26.1707  -32.8799    0.8874 C   0  0  0  0  0  0  0  0  0  0  0  0
   26.8742  -33.5489   -0.2154 C   0  0  0  0  0  0  0  0  0  0  0  0
   28.2964  -33.9446    0.1058 C   0  0  2  0  0  0  0  0  0  0  0  0
   28.8890  -34.7210   -0.9716 N   0  0  0  0  0  0  0  0  0  0  0  0
   28.3882  -34.6640    1.4024 C   0  0  0  0  0  0  0  0  0  0  0  0
   28.6417  -34.0130    2.6011 O   0  0  0  0  0  0  0  0  0  0  0  0
   25.3383  -33.6042    1.7155 C   0  0  0  0  0  0  0  0  0  0  0  0
   24.6629  -33.0007    2.7638 C   0  0  0  0  0  0  0  0  0  0  0  0
   28.2299  -35.9008    1.4046 O   0  0  0  0  0  0  0  0  0  0  0  0
  2  1  1  6
  3  2  1  0
  4  3  1  0
  5  4  2  0
  6  2  1  0
  7  6  2  0
  8  4  1  0
  9  6  1  0
 10  9  1  0
 10 11  1  6
 11 12  1  0
 13 22  1  0
 13 10  1  0
 14 13  2  0
 16 15  1  0
 17 16  2  0
 18 17  1  0
 19 25  1  0
 19 18  2  0
 20 19  1  0
 21 23  1  0
 21 20  1  6
 21 22  1  0
 23 24  1  0
 25 26  2  0
 26 16  1  0
 27 23  2  0
M  END
$$$$
