DCY.pdb
     RDKit          3D

 27 27  0  0  1  0  0  0  0  0999 V2000
   18.6440   -9.5964  -16.2796 N   0  0  0  0  0  0  0  0  0  0  0  0
   17.9956  -10.3022  -15.2069 C   0  0  1  0  0  0  0  0  0  0  0  0
   18.2697  -11.7697  -15.2237 C   0  0  0  0  0  0  0  0  0  0  0  0
   17.9849  -12.4068  -16.5343 C   0  0  0  0  0  0  0  0  0  0  0  0
   18.8553  -12.5850  -17.4188 O   0  0  0  0  0  0  0  0  0  0  0  0
   18.2854   -9.7166  -13.8858 C   0  0  0  0  0  0  0  0  0  0  0  0
   17.7892  -10.1982  -12.8121 O   0  0  0  0  0  0  0  0  0  0  0  0
   16.6883  -12.8509  -16.8491 O   0  0  0  0  0  0  0  0  0  0  0  0
   19.1268   -8.5820  -13.6918 N   0  0  0  0  0  0  0  0  0  0  0  0
   19.4088   -8.0132  -12.3902 C   0  0  1  0  0  0  0  0  0  0  0  0
   20.7924   -7.4711  -12.3779 C   0  0  0  0  0  0  0  0  0  0  0  0
   21.0938   -6.6550  -10.7892 S   0  0  0  0  0  0  0  0  0  0  0  0
   18.3842   -7.0081  -12.0034 C   0  0  0  0  0  0  0  0  0  0  0  0
   18.0653   -6.1468  -12.8589 O   0  0  0  0  0  0  0  0  0  0  0  0
   12.1547   -9.5065   -7.8209 O   0  0  0  0  0  0  0  0  0  0  0  0
   12.9677   -8.6817   -8.5998 C   0  0  0  0  0  0  0  0  0  0  0  0
   13.2303   -8.9908   -9.9169 C   0  0  0  0  0  0  0  0  0  0  0  0
   14.0456   -8.1646  -10.6994 C   0  0  0  0  0  0  0  0  0  0  0  0
   14.6103   -7.0242  -10.1896 C   0  0  0  0  0  0  0  0  0  0  0  0
   15.4683   -6.1400  -10.9899 C   0  0  0  0  0  0  0  0  0  0  0  0
   16.8377   -5.9027  -10.3978 C   0  0  2  0  0  0  0  0  0  0  0  0
   17.7612   -6.9702  -10.7480 N   0  0  0  0  0  0  0  0  0  0  0  0
   16.7747   -5.7054   -8.9266 C   0  0  0  0  0  0  0  0  0  0  0  0
   16.0488   -4.6780   -8.3416 O   0  0  0  0  0  0  0  0  0  0  0  0
   14.3443   -6.7194   -8.8707 C   0  0  0  0  0  0  0  0  0  0  0  0
   13.5381   -7.5338   -8.0921 C   0  0  0  0  0  0  0  0  0  0  0  0
   17.4015   -6.4984   -8.1965 O   0  0  0  0  0  0  0  0  0  0  0  0
  2  1  1  6
  3  2  1  0
  4  3  1  0
  5  4  2  0
  6  2  1  0
  7  6  2  0
  8  4  1  0
  9  6  1  0
 10  9  1  0
 10 11  1  6
 11 12  1  0
 13 22  1  0
 13 10  1  0
 14 13  2  0
 16 15  1  0
 17 16  2  0
 18 17  1  0
 19 25  1  0
 19 18  2  0
 20 19  1  0
 21 23  1  0
 21 20  1  1
 21 22  1  0
 23 24  1  0
 25 26  2  0
 26 16  1  0
 27 23  2  0
M  END
$$$$
