DCY.pdb
     RDKit          3D

 27 27  0  0  1  0  0  0  0  0999 V2000
   24.8781  -18.2866  -17.0279 N   0  0  0  0  0  0  0  0  0  0  0  0
   24.8470  -17.6849  -18.3341 C   0  0  1  0  0  0  0  0  0  0  0  0
   23.4684  -17.3208  -18.7767 C   0  0  0  0  0  0  0  0  0  0  0  0
   22.5320  -18.4728  -18.7934 C   0  0  0  0  0  0  0  0  0  0  0  0
   21.4933  -18.5081  -19.4945 O   0  0  0  0  0  0  0  0  0  0  0  0
   25.7694  -16.5415  -18.4540 C   0  0  0  0  0  0  0  0  0  0  0  0
   25.7179  -15.5478  -17.6534 O   0  0  0  0  0  0  0  0  0  0  0  0
   22.7771  -19.6078  -18.0000 O   0  0  0  0  0  0  0  0  0  0  0  0
   26.7797  -16.4432  -19.4551 N   0  0  0  0  0  0  0  0  0  0  0  0
   27.7057  -15.3334  -19.5455 C   0  0  1  0  0  0  0  0  0  0  0  0
   29.0601  -15.8465  -19.8777 C   0  0  0  0  0  0  0  0  0  0  0  0
   29.5933  -16.9923  -18.5801 S   0  0  0  0  0  0  0  0  0  0  0  0
   27.2228  -14.2996  -20.4983 C   0  0  0  0  0  0  0  0  0  0  0  0
   26.4442  -14.6704  -21.4102 O   0  0  0  0  0  0  0  0  0  0  0  0
   23.3764   -8.0900  -24.9754 O   0  0  0  0  0  0  0  0  0  0  0  0
   23.9171   -9.0442  -24.1123 C   0  0  0  0  0  0  0  0  0  0  0  0
   24.3141  -10.2770  -24.5833 C   0  0  0  0  0  0  0  0  0  0  0  0
   24.8566  -11.2351  -23.7188 C   0  0  0  0  0  0  0  0  0  0  0  0
   25.0129  -10.9860  -22.3798 C   0  0  0  0  0  0  0  0  0  0  0  0
   25.5804  -11.9738  -21.4521 C   0  0  0  0  0  0  0  0  0  0  0  0
   27.0904  -11.9876  -21.4086 C   0  0  2  0  0  0  0  0  0  0  0  0
   27.5859  -12.9469  -20.4344 N   0  0  0  0  0  0  0  0  0  0  0  0
   27.6464  -10.6322  -21.1615 C   0  0  0  0  0  0  0  0  0  0  0  0
   28.4359  -10.3387  -20.0590 O   0  0  0  0  0  0  0  0  0  0  0  0
   24.6139   -9.7505  -21.9135 C   0  0  0  0  0  0  0  0  0  0  0  0
   24.0764   -8.7989  -22.7650 C   0  0  0  0  0  0  0  0  0  0  0  0
   27.3887   -9.7291  -21.9818 O   0  0  0  0  0  0  0  0  0  0  0  0
  2  1  1  1
  3  2  1  0
  4  3  1  0
  5  4  2  0
  6  2  1  0
  7  6  2  0
  8  4  1  0
  9  6  1  0
 10  9  1  0
 10 11  1  6
 11 12  1  0
 13 22  1  0
 13 10  1  0
 14 13  2  0
 16 15  1  0
 17 16  2  0
 18 17  1  0
 19 25  1  0
 19 18  2  0
 20 19  1  0
 21 23  1  0
 21 20  1  1
 21 22  1  0
 23 24  1  0
 25 26  2  0
 26 16  1  0
 27 23  2  0
M  END
$$$$
