DCY.pdb
     RDKit          3D

 27 27  0  0  1  0  0  0  0  0999 V2000
   19.3390  -12.7185  -16.3042 N   0  0  0  0  0  0  0  0  0  0  0  0
   19.5035  -11.4747  -17.0077 C   0  0  1  0  0  0  0  0  0  0  0  0
   18.3132  -11.1073  -17.8305 C   0  0  0  0  0  0  0  0  0  0  0  0
   17.9429  -12.1447  -18.8261 C   0  0  0  0  0  0  0  0  0  0  0  0
   18.7209  -12.5517  -19.7209 O   0  0  0  0  0  0  0  0  0  0  0  0
   19.9044  -10.3691  -16.1192 C   0  0  0  0  0  0  0  0  0  0  0  0
   19.1959  -10.0212  -15.1152 O   0  0  0  0  0  0  0  0  0  0  0  0
   16.6656  -12.7328  -18.8077 O   0  0  0  0  0  0  0  0  0  0  0  0
   21.0936   -9.6032  -16.2981 N   0  0  0  0  0  0  0  0  0  0  0  0
   21.4680   -8.5011  -15.4365 C   0  0  1  0  0  0  0  0  0  0  0  0
   22.9040   -8.6235  -15.0746 C   0  0  0  0  0  0  0  0  0  0  0  0
   23.0441   -9.5094  -13.5010 S   0  0  0  0  0  0  0  0  0  0  0  0
   21.1305   -7.1912  -16.0528 C   0  0  0  0  0  0  0  0  0  0  0  0
   21.5011   -6.9947  -17.2358 O   0  0  0  0  0  0  0  0  0  0  0  0
   17.6968   -0.2794  -19.8332 O   0  0  0  0  0  0  0  0  0  0  0  0
   18.0482   -1.4611  -19.1791 C   0  0  0  0  0  0  0  0  0  0  0  0
   17.3041   -1.9277  -18.1172 C   0  0  0  0  0  0  0  0  0  0  0  0
   17.6553   -3.1128  -17.4601 C   0  0  0  0  0  0  0  0  0  0  0  0
   18.7453   -3.8499  -17.8448 C   0  0  0  0  0  0  0  0  0  0  0  0
   19.1343   -5.0971  -17.1727 C   0  0  0  0  0  0  0  0  0  0  0  0
   20.1304   -4.9128  -16.0519 C   0  0  2  0  0  0  0  0  0  0  0  0
   20.4280   -6.1739  -15.3917 N   0  0  0  0  0  0  0  0  0  0  0  0
   19.6782   -3.8872  -15.0767 C   0  0  0  0  0  0  0  0  0  0  0  0
   19.9440   -2.5351  -15.2380 O   0  0  0  0  0  0  0  0  0  0  0  0
   19.4868   -3.3784  -18.9083 C   0  0  0  0  0  0  0  0  0  0  0  0
   19.1433   -2.2061  -19.5618 C   0  0  0  0  0  0  0  0  0  0  0  0
   19.0355   -4.2648  -14.0771 O   0  0  0  0  0  0  0  0  0  0  0  0
  2  1  1  1
  3  2  1  0
  4  3  1  0
  5  4  2  0
  6  2  1  0
  7  6  2  0
  8  4  1  0
  9  6  1  0
 10  9  1  0
 10 11  1  6
 11 12  1  0
 13 22  1  0
 13 10  1  0
 14 13  2  0
 16 15  1  0
 17 16  2  0
 18 17  1  0
 19 25  1  0
 19 18  2  0
 20 19  1  0
 21 23  1  0
 21 20  1  6
 21 22  1  0
 23 24  1  0
 25 26  2  0
 26 16  1  0
 27 23  2  0
M  END
$$$$
