GDQ.pdb
     RDKit          3D

 22 21  0  0  1  0  0  0  0  0999 V2000
   11.1585  -16.6613   19.8719 N   0  0  0  0  0  0  0  0  0  0  0  0
   10.3945  -17.8661   20.0564 C   0  0  0  0  0  0  0  0  0  0  0  0
    9.7592  -17.8159   21.3976 C   0  0  0  0  0  0  0  0  0  0  0  0
    9.4663  -16.7335   21.9738 O   0  0  0  0  0  0  0  0  0  0  0  0
    9.4408  -19.0231   22.1190 N   0  0  0  0  0  0  0  0  0  0  0  0
    8.6917  -19.0194   23.3318 C   0  0  1  0  0  0  0  0  0  0  0  0
    7.9840  -20.2891   23.6514 C   0  0  0  0  0  0  0  0  0  0  0  0
    7.2238  -20.2441   24.9186 C   0  0  0  0  0  0  0  0  0  0  0  0
    7.1333  -19.1504   25.5250 O   0  0  0  0  0  0  0  0  0  0  0  0
    9.6457  -18.7114   24.4463 C   0  0  0  0  0  0  0  0  0  0  0  0
   10.8045  -19.1903   24.5027 O   0  0  0  0  0  0  0  0  0  0  0  0
    6.6097  -21.3531   25.4632 O   0  0  0  0  0  0  0  0  0  0  0  0
    8.9672  -13.3766   27.6409 N   0  0  0  0  0  0  0  0  0  0  0  0
    9.9889  -14.0424   28.3658 C   0  0  0  0  0  0  0  0  0  0  0  0
   10.5526  -13.5234   29.3773 O   0  0  0  0  0  0  0  0  0  0  0  0
   10.4544  -15.3926   27.9868 C   0  0  0  0  0  0  0  0  0  0  0  0
    9.7364  -15.9981   26.8429 C   0  0  0  0  0  0  0  0  0  0  0  0
   10.2236  -17.3382   26.4421 C   0  0  2  0  0  0  0  0  0  0  0  0
    9.2167  -17.8458   25.4722 N   0  0  0  0  0  0  0  0  0  0  0  0
   10.3685  -18.3747   27.4543 C   0  0  0  0  0  0  0  0  0  0  0  0
   11.5621  -18.5470   28.1786 O   0  0  0  0  0  0  0  0  0  0  0  0
    9.4625  -19.2136   27.7868 O   0  0  0  0  0  0  0  0  0  0  0  0
  1  2  1  0
  3  2  1  0
  3  5  1  0
  4  3  2  0
  5  6  1  0
  6  7  1  1
  6 10  1  0
  7  8  1  0
  8 12  1  0
  9  8  2  0
 10 11  2  0
 10 19  1  0
 14 13  1  0
 14 16  1  0
 15 14  2  0
 17 16  1  0
 18 17  1  1
 19 18  1  0
 20 21  1  0
 20 18  1  0
 22 20  2  0
M  END
$$$$
