GDQ.pdb
     RDKit          3D

 22 21  0  0  1  0  0  0  0  0999 V2000
   10.9551  -19.7081   16.6609 N   0  0  0  0  0  0  0  0  0  0  0  0
   11.6319  -18.5059   17.0686 C   0  0  0  0  0  0  0  0  0  0  0  0
   13.0182  -18.8614   17.4647 C   0  0  0  0  0  0  0  0  0  0  0  0
   13.2785  -19.7840   18.2835 O   0  0  0  0  0  0  0  0  0  0  0  0
   14.1537  -18.1570   16.9231 N   0  0  0  0  0  0  0  0  0  0  0  0
   15.4967  -18.4696   17.2847 C   0  0  1  0  0  0  0  0  0  0  0  0
   16.5506  -17.7709   16.4997 C   0  0  0  0  0  0  0  0  0  0  0  0
   16.5054  -18.0623   15.0510 C   0  0  0  0  0  0  0  0  0  0  0  0
   16.0778  -19.1802   14.6774 O   0  0  0  0  0  0  0  0  0  0  0  0
   15.6650  -18.1145   18.7313 C   0  0  0  0  0  0  0  0  0  0  0  0
   15.4177  -16.9708   19.1850 O   0  0  0  0  0  0  0  0  0  0  0  0
   16.9132  -17.1580   14.0922 O   0  0  0  0  0  0  0  0  0  0  0  0
   13.9785  -22.2740   22.6782 N   0  0  0  0  0  0  0  0  0  0  0  0
   13.2510  -21.2382   22.0374 C   0  0  0  0  0  0  0  0  0  0  0  0
   11.9870  -21.2634   21.9279 O   0  0  0  0  0  0  0  0  0  0  0  0
   13.9274  -20.0568   21.4627 C   0  0  0  0  0  0  0  0  0  0  0  0
   15.3929  -20.0206   21.6666 C   0  0  0  0  0  0  0  0  0  0  0  0
   16.0736  -18.8445   21.0771 C   0  0  2  0  0  0  0  0  0  0  0  0
   16.1210  -19.1130   19.6150 N   0  0  0  0  0  0  0  0  0  0  0  0
   17.4399  -18.5390   21.4767 C   0  0  0  0  0  0  0  0  0  0  0  0
   18.5105  -18.5850   20.5653 O   0  0  0  0  0  0  0  0  0  0  0  0
   17.8077  -18.2071   22.6556 O   0  0  0  0  0  0  0  0  0  0  0  0
  1  2  1  0
  3  2  1  0
  3  5  1  0
  4  3  2  0
  5  6  1  0
  6  7  1  6
  6 10  1  0
  7  8  1  0
  8 12  1  0
  9  8  2  0
 10 11  2  0
 10 19  1  0
 14 13  1  0
 14 16  1  0
 15 14  2  0
 17 16  1  0
 18 17  1  1
 19 18  1  0
 20 21  1  0
 20 18  1  0
 22 20  2  0
M  END
$$$$
