GDQ.pdb
     RDKit          3D

 22 21  0  0  1  0  0  0  0  0999 V2000
    4.3816  -19.4952   21.7921 N   0  0  0  0  0  0  0  0  0  0  0  0
    4.2964  -18.1027   22.1428 C   0  0  0  0  0  0  0  0  0  0  0  0
    5.6727  -17.5468   22.1866 C   0  0  0  0  0  0  0  0  0  0  0  0
    6.6029  -18.0795   22.8501 O   0  0  0  0  0  0  0  0  0  0  0  0
    6.0185  -16.3502   21.4602 N   0  0  0  0  0  0  0  0  0  0  0  0
    7.3295  -15.7907   21.4793 C   0  0  1  0  0  0  0  0  0  0  0  0
    7.6317  -14.8295   20.3840 C   0  0  0  0  0  0  0  0  0  0  0  0
    7.9487  -15.4778   19.0937 C   0  0  0  0  0  0  0  0  0  0  0  0
    9.1469  -15.5317   18.7282 O   0  0  0  0  0  0  0  0  0  0  0  0
    7.4963  -15.0862   22.7919 C   0  0  0  0  0  0  0  0  0  0  0  0
    6.7532  -14.1435   23.1582 O   0  0  0  0  0  0  0  0  0  0  0  0
    6.9837  -16.0261   18.2741 O   0  0  0  0  0  0  0  0  0  0  0  0
    6.2701  -12.2547   26.4284 N   0  0  0  0  0  0  0  0  0  0  0  0
    7.1819  -13.0686   27.1487 C   0  0  0  0  0  0  0  0  0  0  0  0
    8.0245  -12.5856   27.9655 O   0  0  0  0  0  0  0  0  0  0  0  0
    7.1985  -14.5380   26.9943 C   0  0  0  0  0  0  0  0  0  0  0  0
    7.3014  -15.0139   25.5966 C   0  0  0  0  0  0  0  0  0  0  0  0
    8.6464  -14.8782   24.9912 C   0  0  2  0  0  0  0  0  0  0  0  0
    8.5348  -15.5054   23.6472 N   0  0  0  0  0  0  0  0  0  0  0  0
    9.7858  -15.5116   25.6397 C   0  0  0  0  0  0  0  0  0  0  0  0
   10.5190  -14.8677   26.6529 O   0  0  0  0  0  0  0  0  0  0  0  0
   10.2321  -16.6797   25.3721 O   0  0  0  0  0  0  0  0  0  0  0  0
  1  2  1  0
  3  2  1  0
  3  5  1  0
  4  3  2  0
  5  6  1  0
  6  7  1  6
  6 10  1  0
  7  8  1  0
  8 12  1  0
  9  8  2  0
 10 11  2  0
 10 19  1  0
 14 13  1  0
 14 16  1  0
 15 14  2  0
 17 16  1  0
 18 17  1  1
 19 18  1  0
 20 21  1  0
 20 18  1  0
 22 20  2  0
M  END
$$$$
