GDQ.pdb
     RDKit          3D

 22 21  0  0  1  0  0  0  0  0999 V2000
    6.5544  -19.6244   19.7654 N   0  0  0  0  0  0  0  0  0  0  0  0
    7.7550  -18.8482   19.9253 C   0  0  0  0  0  0  0  0  0  0  0  0
    8.8731  -19.7751   20.2346 C   0  0  0  0  0  0  0  0  0  0  0  0
    8.7738  -20.7063   21.0785 O   0  0  0  0  0  0  0  0  0  0  0  0
   10.1488  -19.6535   19.5736 N   0  0  0  0  0  0  0  0  0  0  0  0
   11.2490  -20.5133   19.8609 C   0  0  1  0  0  0  0  0  0  0  0  0
   12.2706  -20.6278   18.7847 C   0  0  0  0  0  0  0  0  0  0  0  0
   11.7193  -21.0663   17.4849 C   0  0  0  0  0  0  0  0  0  0  0  0
   11.1034  -22.1572   17.4322 O   0  0  0  0  0  0  0  0  0  0  0  0
   11.9152  -19.9897   21.0974 C   0  0  0  0  0  0  0  0  0  0  0  0
   12.0934  -18.7655   21.3087 O   0  0  0  0  0  0  0  0  0  0  0  0
   11.8529  -20.3276   16.3272 O   0  0  0  0  0  0  0  0  0  0  0  0
   10.8410  -20.4055   27.8699 N   0  0  0  0  0  0  0  0  0  0  0  0
   11.1869  -21.0367   26.6473 C   0  0  0  0  0  0  0  0  0  0  0  0
   10.9190  -22.2546   26.4121 O   0  0  0  0  0  0  0  0  0  0  0  0
   11.8777  -20.3049   25.5654 C   0  0  0  0  0  0  0  0  0  0  0  0
   12.2736  -21.1376   24.4076 C   0  0  0  0  0  0  0  0  0  0  0  0
   12.9605  -20.4035   23.3198 C   0  0  2  0  0  0  0  0  0  0  0  0
   12.3585  -20.9178   22.0608 N   0  0  0  0  0  0  0  0  0  0  0  0
   14.4015  -20.5443   23.1660 C   0  0  0  0  0  0  0  0  0  0  0  0
   14.9701  -21.5474   22.3602 O   0  0  0  0  0  0  0  0  0  0  0  0
   15.2796  -19.8010   23.7242 O   0  0  0  0  0  0  0  0  0  0  0  0
  1  2  1  0
  3  2  1  0
  3  5  1  0
  4  3  2  0
  5  6  1  0
  6  7  1  6
  6 10  1  0
  7  8  1  0
  8 12  1  0
  9  8  2  0
 10 11  2  0
 10 19  1  0
 14 13  1  0
 14 16  1  0
 15 14  2  0
 17 16  1  0
 18 17  1  1
 19 18  1  0
 20 21  1  0
 20 18  1  0
 22 20  2  0
M  END
$$$$
