GDQ.pdb
     RDKit          3D

 22 21  0  0  1  0  0  0  0  0999 V2000
   15.4174  -23.3249   19.5241 N   0  0  0  0  0  0  0  0  0  0  0  0
   14.6172  -22.3267   18.8663 C   0  0  0  0  0  0  0  0  0  0  0  0
   15.2376  -20.9988   19.1043 C   0  0  0  0  0  0  0  0  0  0  0  0
   16.1692  -20.8199   19.9347 O   0  0  0  0  0  0  0  0  0  0  0  0
   14.7977  -19.8290   18.3853 N   0  0  0  0  0  0  0  0  0  0  0  0
   15.3295  -18.5295   18.6316 C   0  0  1  0  0  0  0  0  0  0  0  0
   15.0215  -17.5047   17.5972 C   0  0  0  0  0  0  0  0  0  0  0  0
   15.6574  -17.7696   16.2890 C   0  0  0  0  0  0  0  0  0  0  0  0
   16.7994  -18.2871   16.2714 O   0  0  0  0  0  0  0  0  0  0  0  0
   14.7788  -18.0621   19.9451 C   0  0  0  0  0  0  0  0  0  0  0  0
   13.5563  -18.1069   20.2257 O   0  0  0  0  0  0  0  0  0  0  0  0
   15.0492  -17.4724   15.0869 O   0  0  0  0  0  0  0  0  0  0  0  0
   13.8069  -20.7998   24.1547 N   0  0  0  0  0  0  0  0  0  0  0  0
   13.7013  -19.5616   24.8391 C   0  0  0  0  0  0  0  0  0  0  0  0
   13.2449  -19.4751   26.0200 O   0  0  0  0  0  0  0  0  0  0  0  0
   14.1270  -18.2919   24.2147 C   0  0  0  0  0  0  0  0  0  0  0  0
   14.6359  -18.4210   22.8309 C   0  0  0  0  0  0  0  0  0  0  0  0
   15.1514  -17.1651   22.2384 C   0  0  2  0  0  0  0  0  0  0  0  0
   15.6781  -17.5511   20.9021 N   0  0  0  0  0  0  0  0  0  0  0  0
   16.2304  -16.4529   22.9080 C   0  0  0  0  0  0  0  0  0  0  0  0
   16.0122  -15.6941   24.0723 O   0  0  0  0  0  0  0  0  0  0  0  0
   17.4514  -16.4368   22.5285 O   0  0  0  0  0  0  0  0  0  0  0  0
  1  2  1  0
  3  2  1  0
  3  5  1  0
  4  3  2  0
  5  6  1  0
  6  7  1  6
  6 10  1  0
  7  8  1  0
  8 12  1  0
  9  8  2  0
 10 11  2  0
 10 19  1  0
 14 13  1  0
 14 16  1  0
 15 14  2  0
 17 16  1  0
 18 17  1  1
 19 18  1  0
 20 21  1  0
 20 18  1  0
 22 20  2  0
M  END
$$$$
