GDQ.pdb
     RDKit          3D

 22 21  0  0  1  0  0  0  0  0999 V2000
    2.8312  -24.6379   26.3336 N   0  0  0  0  0  0  0  0  0  0  0  0
    2.8761  -23.4945   25.4618 C   0  0  0  0  0  0  0  0  0  0  0  0
    4.2974  -23.2046   25.1441 C   0  0  0  0  0  0  0  0  0  0  0  0
    5.2575  -23.7570   25.7461 O   0  0  0  0  0  0  0  0  0  0  0  0
    4.6551  -22.2611   24.1141 N   0  0  0  0  0  0  0  0  0  0  0  0
    5.9989  -22.0718   23.6775 C   0  0  1  0  0  0  0  0  0  0  0  0
    6.1546  -21.4357   22.3411 C   0  0  0  0  0  0  0  0  0  0  0  0
    5.5539  -22.2147   21.2374 C   0  0  0  0  0  0  0  0  0  0  0  0
    5.7550  -23.4517   21.1980 O   0  0  0  0  0  0  0  0  0  0  0  0
    6.6841  -21.2131   24.6974 C   0  0  0  0  0  0  0  0  0  0  0  0
    6.1965  -20.1364   25.1195 O   0  0  0  0  0  0  0  0  0  0  0  0
    4.7816  -21.6401   20.2490 O   0  0  0  0  0  0  0  0  0  0  0  0
    8.9141  -23.2246   29.7896 N   0  0  0  0  0  0  0  0  0  0  0  0
    9.4801  -21.9238   29.7723 C   0  0  0  0  0  0  0  0  0  0  0  0
   10.1043  -21.4414   30.7663 O   0  0  0  0  0  0  0  0  0  0  0  0
    9.3815  -21.0512   28.5839 C   0  0  0  0  0  0  0  0  0  0  0  0
    8.6015  -21.6180   27.4609 C   0  0  0  0  0  0  0  0  0  0  0  0
    8.6072  -20.8010   26.2254 C   0  0  2  0  0  0  0  0  0  0  0  0
    7.9298  -21.6389   25.2001 N   0  0  0  0  0  0  0  0  0  0  0  0
    9.8802  -20.4002   25.6433 C   0  0  0  0  0  0  0  0  0  0  0  0
   10.4538  -21.0897   24.5597 O   0  0  0  0  0  0  0  0  0  0  0  0
   10.5936  -19.4142   26.0359 O   0  0  0  0  0  0  0  0  0  0  0  0
  1  2  1  0
  3  2  1  0
  3  5  1  0
  4  3  2  0
  5  6  1  0
  6  7  1  6
  6 10  1  0
  7  8  1  0
  8 12  1  0
  9  8  2  0
 10 11  2  0
 10 19  1  0
 14 13  1  0
 14 16  1  0
 15 14  2  0
 17 16  1  0
 18 17  1  1
 19 18  1  0
 20 21  1  0
 20 18  1  0
 22 20  2  0
M  END
$$$$
