GDQ.pdb
     RDKit          3D

 22 21  0  0  1  0  0  0  0  0999 V2000
    5.9318  -16.3937   20.5349 N   0  0  0  0  0  0  0  0  0  0  0  0
    7.0934  -15.6020   20.2296 C   0  0  0  0  0  0  0  0  0  0  0  0
    8.2892  -16.3007   20.7651 C   0  0  0  0  0  0  0  0  0  0  0  0
    8.2155  -17.3770   21.4173 O   0  0  0  0  0  0  0  0  0  0  0  0
    9.6158  -15.7736   20.5620 N   0  0  0  0  0  0  0  0  0  0  0  0
   10.7919  -16.4810   20.9473 C   0  0  1  0  0  0  0  0  0  0  0  0
   12.0410  -16.0770   20.2462 C   0  0  0  0  0  0  0  0  0  0  0  0
   13.1892  -16.9690   20.5141 C   0  0  0  0  0  0  0  0  0  0  0  0
   12.9685  -18.0942   21.0215 O   0  0  0  0  0  0  0  0  0  0  0  0
   10.9805  -16.2679   22.4190 C   0  0  0  0  0  0  0  0  0  0  0  0
   11.6559  -15.3202   22.8889 O   0  0  0  0  0  0  0  0  0  0  0  0
   14.4928  -16.6175   20.2302 O   0  0  0  0  0  0  0  0  0  0  0  0
    6.6630  -17.7938   26.4226 N   0  0  0  0  0  0  0  0  0  0  0  0
    6.9002  -16.5773   25.7324 C   0  0  0  0  0  0  0  0  0  0  0  0
    6.0004  -15.6951   25.5820 O   0  0  0  0  0  0  0  0  0  0  0  0
    8.2210  -16.2609   25.1505 C   0  0  0  0  0  0  0  0  0  0  0  0
    9.2650  -17.2825   25.3892 C   0  0  0  0  0  0  0  0  0  0  0  0
   10.5773  -16.9868   24.7692 C   0  0  2  0  0  0  0  0  0  0  0  0
   10.3704  -17.1748   23.3084 N   0  0  0  0  0  0  0  0  0  0  0  0
   11.7309  -17.8020   25.1224 C   0  0  0  0  0  0  0  0  0  0  0  0
   12.6787  -17.3797   26.0723 O   0  0  0  0  0  0  0  0  0  0  0  0
   12.0030  -18.9496   24.6282 O   0  0  0  0  0  0  0  0  0  0  0  0
  1  2  1  0
  3  2  1  0
  3  5  1  0
  4  3  2  0
  5  6  1  0
  6  7  1  6
  6 10  1  0
  7  8  1  0
  8 12  1  0
  9  8  2  0
 10 11  2  0
 10 19  1  0
 14 13  1  0
 14 16  1  0
 15 14  2  0
 17 16  1  0
 18 17  1  1
 19 18  1  0
 20 21  1  0
 20 18  1  0
 22 20  2  0
M  END
$$$$
