GDQ.pdb
     RDKit          3D

 22 21  0  0  1  0  0  0  0  0999 V2000
    3.9768  -18.3310   21.6893 N   0  0  0  0  0  0  0  0  0  0  0  0
    4.2269  -16.9327   21.4620 C   0  0  0  0  0  0  0  0  0  0  0  0
    5.6823  -16.7497   21.2315 C   0  0  0  0  0  0  0  0  0  0  0  0
    6.5372  -17.6233   21.5402 O   0  0  0  0  0  0  0  0  0  0  0  0
    6.1980  -15.5434   20.6332 N   0  0  0  0  0  0  0  0  0  0  0  0
    7.5880  -15.2279   20.6138 C   0  0  1  0  0  0  0  0  0  0  0  0
    8.0170  -14.2897   19.5410 C   0  0  0  0  0  0  0  0  0  0  0  0
    8.1760  -14.9307   18.2183 C   0  0  0  0  0  0  0  0  0  0  0  0
    8.6243  -16.1006   18.1690 O   0  0  0  0  0  0  0  0  0  0  0  0
    7.9279  -14.6215   21.9419 C   0  0  0  0  0  0  0  0  0  0  0  0
    7.4675  -13.5185   22.3249 O   0  0  0  0  0  0  0  0  0  0  0  0
    7.8525  -14.2978   17.0357 O   0  0  0  0  0  0  0  0  0  0  0  0
    7.7242  -14.1449   27.4713 N   0  0  0  0  0  0  0  0  0  0  0  0
    6.9971  -13.3755   26.5268 C   0  0  0  0  0  0  0  0  0  0  0  0
    6.4260  -12.2849   26.8347 O   0  0  0  0  0  0  0  0  0  0  0  0
    6.8680  -13.7986   25.1170 C   0  0  0  0  0  0  0  0  0  0  0  0
    7.5637  -15.0613   24.7820 C   0  0  0  0  0  0  0  0  0  0  0  0
    8.9197  -14.8912   24.2105 C   0  0  2  0  0  0  0  0  0  0  0  0
    8.8032  -15.3255   22.7927 N   0  0  0  0  0  0  0  0  0  0  0  0
   10.0294  -15.6461   24.7748 C   0  0  0  0  0  0  0  0  0  0  0  0
   10.8885  -15.0958   25.7434 O   0  0  0  0  0  0  0  0  0  0  0  0
   10.3374  -16.8482   24.4659 O   0  0  0  0  0  0  0  0  0  0  0  0
  1  2  1  0
  3  2  1  0
  3  5  1  0
  4  3  2  0
  5  6  1  0
  6  7  1  6
  6 10  1  0
  7  8  1  0
  8 12  1  0
  9  8  2  0
 10 11  2  0
 10 19  1  0
 14 13  1  0
 14 16  1  0
 15 14  2  0
 17 16  1  0
 18 17  1  1
 19 18  1  0
 20 21  1  0
 20 18  1  0
 22 20  2  0
M  END
$$$$
