GDQ.pdb
     RDKit          3D

 22 21  0  0  1  0  0  0  0  0999 V2000
   16.5919  -19.6213   18.9428 N   0  0  0  0  0  0  0  0  0  0  0  0
   15.2460  -20.0227   18.6319 C   0  0  0  0  0  0  0  0  0  0  0  0
   14.3310  -18.9109   18.9947 C   0  0  0  0  0  0  0  0  0  0  0  0
   14.6569  -17.6976   18.8909 O   0  0  0  0  0  0  0  0  0  0  0  0
   13.0023  -19.1689   19.4918 N   0  0  0  0  0  0  0  0  0  0  0  0
   12.0655  -18.1282   19.7589 C   0  0  1  0  0  0  0  0  0  0  0  0
   10.6475  -18.4445   19.4362 C   0  0  0  0  0  0  0  0  0  0  0  0
    9.7289  -17.2982   19.6036 C   0  0  0  0  0  0  0  0  0  0  0  0
   10.1828  -16.2309   20.0800 O   0  0  0  0  0  0  0  0  0  0  0  0
   12.1615  -17.8034   21.2192 C   0  0  0  0  0  0  0  0  0  0  0  0
   11.5832  -18.4772   22.1061 O   0  0  0  0  0  0  0  0  0  0  0  0
    8.3941  -17.3515   19.2586 O   0  0  0  0  0  0  0  0  0  0  0  0
   13.0918  -19.5481   25.6923 N   0  0  0  0  0  0  0  0  0  0  0  0
   12.3710  -18.3949   26.0962 C   0  0  0  0  0  0  0  0  0  0  0  0
   11.9520  -18.2372   27.2836 O   0  0  0  0  0  0  0  0  0  0  0  0
   12.0705  -17.2984   25.1524 C   0  0  0  0  0  0  0  0  0  0  0  0
   12.4785  -17.5551   23.7530 C   0  0  0  0  0  0  0  0  0  0  0  0
   13.0758  -16.3922   23.0564 C   0  0  2  0  0  0  0  0  0  0  0  0
   12.9363  -16.6919   21.6062 N   0  0  0  0  0  0  0  0  0  0  0  0
   14.4813  -16.0791   23.2713 C   0  0  0  0  0  0  0  0  0  0  0  0
   15.4867  -16.5270   22.3952 O   0  0  0  0  0  0  0  0  0  0  0  0
   14.9436  -15.3882   24.2431 O   0  0  0  0  0  0  0  0  0  0  0  0
  1  2  1  0
  3  2  1  0
  3  5  1  0
  4  3  2  0
  5  6  1  0
  6  7  1  1
  6 10  1  0
  7  8  1  0
  8 12  1  0
  9  8  2  0
 10 11  2  0
 10 19  1  0
 14 13  1  0
 14 16  1  0
 15 14  2  0
 17 16  1  0
 18 17  1  1
 19 18  1  0
 20 21  1  0
 20 18  1  0
 22 20  2  0
M  END
$$$$
