GDQ.pdb
     RDKit          3D

 22 21  0  0  1  0  0  0  0  0999 V2000
    7.6084  -17.7830   17.4858 N   0  0  0  0  0  0  0  0  0  0  0  0
    8.8966  -17.1646   17.6517 C   0  0  0  0  0  0  0  0  0  0  0  0
    9.3988  -17.4883   19.0111 C   0  0  0  0  0  0  0  0  0  0  0  0
    8.6990  -18.0863   19.8725 O   0  0  0  0  0  0  0  0  0  0  0  0
   10.7340  -17.1284   19.4196 N   0  0  0  0  0  0  0  0  0  0  0  0
   11.2540  -17.4404   20.7096 C   0  0  1  0  0  0  0  0  0  0  0  0
   12.7372  -17.5256   20.7989 C   0  0  0  0  0  0  0  0  0  0  0  0
   13.3352  -18.4974   19.8587 C   0  0  0  0  0  0  0  0  0  0  0  0
   13.1922  -19.7213   20.0901 O   0  0  0  0  0  0  0  0  0  0  0  0
   10.7797  -16.3763   21.6529 C   0  0  0  0  0  0  0  0  0  0  0  0
   11.1555  -15.1813   21.5760 O   0  0  0  0  0  0  0  0  0  0  0  0
   14.0437  -18.1162   18.7379 O   0  0  0  0  0  0  0  0  0  0  0  0
    8.0004  -12.8850   20.8316 N   0  0  0  0  0  0  0  0  0  0  0  0
    7.4481  -13.6075   21.9205 C   0  0  0  0  0  0  0  0  0  0  0  0
    6.8284  -13.0370   22.8697 O   0  0  0  0  0  0  0  0  0  0  0  0
    7.5564  -15.0785   22.0095 C   0  0  0  0  0  0  0  0  0  0  0  0
    7.9262  -15.5936   23.3468 C   0  0  0  0  0  0  0  0  0  0  0  0
    9.3833  -15.6859   23.5962 C   0  0  2  0  0  0  0  0  0  0  0  0
    9.8724  -16.7401   22.6678 N   0  0  0  0  0  0  0  0  0  0  0  0
    9.8561  -16.0627   24.9208 C   0  0  0  0  0  0  0  0  0  0  0  0
   10.5409  -17.2695   25.1519 O   0  0  0  0  0  0  0  0  0  0  0  0
    9.7080  -15.3664   25.9831 O   0  0  0  0  0  0  0  0  0  0  0  0
  1  2  1  0
  3  2  1  0
  3  5  1  0
  4  3  2  0
  5  6  1  0
  6  7  1  6
  6 10  1  0
  7  8  1  0
  8 12  1  0
  9  8  2  0
 10 11  2  0
 10 19  1  0
 14 13  1  0
 14 16  1  0
 15 14  2  0
 17 16  1  0
 18 17  1  1
 19 18  1  0
 20 21  1  0
 20 18  1  0
 22 20  2  0
M  END
$$$$
