GDQ.pdb
     RDKit          3D

 22 21  0  0  1  0  0  0  0  0999 V2000
   10.0593  -17.3263   17.5598 N   0  0  0  0  0  0  0  0  0  0  0  0
    9.8753  -18.4686   18.4146 C   0  0  0  0  0  0  0  0  0  0  0  0
    9.0166  -18.0643   19.5566 C   0  0  0  0  0  0  0  0  0  0  0  0
    8.5099  -16.9142   19.6556 O   0  0  0  0  0  0  0  0  0  0  0  0
    8.7151  -18.9828   20.6264 N   0  0  0  0  0  0  0  0  0  0  0  0
    7.9169  -18.6193   21.7502 C   0  0  1  0  0  0  0  0  0  0  0  0
    6.7968  -19.5466   22.0671 C   0  0  0  0  0  0  0  0  0  0  0  0
    5.9531  -19.0975   23.1950 C   0  0  0  0  0  0  0  0  0  0  0  0
    6.2163  -17.9997   23.7405 O   0  0  0  0  0  0  0  0  0  0  0  0
    8.8260  -18.5452   22.9398 C   0  0  0  0  0  0  0  0  0  0  0  0
    9.1274  -19.5490   23.6302 O   0  0  0  0  0  0  0  0  0  0  0  0
    4.8888  -19.8336   23.6736 O   0  0  0  0  0  0  0  0  0  0  0  0
    7.8364  -19.3692   27.5254 N   0  0  0  0  0  0  0  0  0  0  0  0
    9.0670  -18.7651   27.8906 C   0  0  0  0  0  0  0  0  0  0  0  0
    9.5462  -18.8548   29.0622 O   0  0  0  0  0  0  0  0  0  0  0  0
    9.8721  -17.9969   26.9186 C   0  0  0  0  0  0  0  0  0  0  0  0
    9.2526  -17.8439   25.5832 C   0  0  0  0  0  0  0  0  0  0  0  0
   10.1047  -17.1703   24.5761 C   0  0  2  0  0  0  0  0  0  0  0  0
    9.3622  -17.2908   23.2929 N   0  0  0  0  0  0  0  0  0  0  0  0
   11.4427  -17.6833   24.3187 C   0  0  0  0  0  0  0  0  0  0  0  0
   12.5645  -16.8373   24.2504 O   0  0  0  0  0  0  0  0  0  0  0  0
   11.7386  -18.9134   24.1325 O   0  0  0  0  0  0  0  0  0  0  0  0
  1  2  1  0
  3  2  1  0
  3  5  1  0
  4  3  2  0
  5  6  1  0
  6  7  1  1
  6 10  1  0
  7  8  1  0
  8 12  1  0
  9  8  2  0
 10 11  2  0
 10 19  1  0
 14 13  1  0
 14 16  1  0
 15 14  2  0
 17 16  1  0
 18 17  1  1
 19 18  1  0
 20 21  1  0
 20 18  1  0
 22 20  2  0
M  END
$$$$
