GDQ.pdb
     RDKit          3D

 22 21  0  0  1  0  0  0  0  0999 V2000
   18.9643  -25.6780   26.9349 N   0  0  0  0  0  0  0  0  0  0  0  0
   17.5455  -25.5829   27.1523 C   0  0  0  0  0  0  0  0  0  0  0  0
   17.2282  -24.1929   27.5670 C   0  0  0  0  0  0  0  0  0  0  0  0
   18.0971  -23.2809   27.6178 O   0  0  0  0  0  0  0  0  0  0  0  0
   15.8882  -23.8115   27.9382 N   0  0  0  0  0  0  0  0  0  0  0  0
   15.5427  -22.4794   28.3101 C   0  0  1  0  0  0  0  0  0  0  0  0
   14.7936  -21.7021   27.2856 C   0  0  0  0  0  0  0  0  0  0  0  0
   14.5413  -20.2973   27.6711 C   0  0  0  0  0  0  0  0  0  0  0  0
   15.4525  -19.6626   28.2533 O   0  0  0  0  0  0  0  0  0  0  0  0
   14.7059  -22.5638   29.5510 C   0  0  0  0  0  0  0  0  0  0  0  0
   13.7311  -23.3464   29.6631 O   0  0  0  0  0  0  0  0  0  0  0  0
   13.3471  -19.6543   27.4182 O   0  0  0  0  0  0  0  0  0  0  0  0
   16.5320  -23.4125   35.0591 N   0  0  0  0  0  0  0  0  0  0  0  0
   16.7806  -22.1207   34.5282 C   0  0  0  0  0  0  0  0  0  0  0  0
   17.3039  -21.1923   35.2171 O   0  0  0  0  0  0  0  0  0  0  0  0
   16.4491  -21.7806   33.1289 C   0  0  0  0  0  0  0  0  0  0  0  0
   15.1012  -21.2012   32.9338 C   0  0  0  0  0  0  0  0  0  0  0  0
   14.2764  -21.8782   31.9065 C   0  0  2  0  0  0  0  0  0  0  0  0
   15.0333  -21.7253   30.6352 N   0  0  0  0  0  0  0  0  0  0  0  0
   12.9317  -21.3889   31.6378 C   0  0  0  0  0  0  0  0  0  0  0  0
   11.7937  -21.9853   32.2106 O   0  0  0  0  0  0  0  0  0  0  0  0
   12.6437  -20.3999   30.8800 O   0  0  0  0  0  0  0  0  0  0  0  0
  1  2  1  0
  3  2  1  0
  3  5  1  0
  4  3  2  0
  5  6  1  0
  6  7  1  6
  6 10  1  0
  7  8  1  0
  8 12  1  0
  9  8  2  0
 10 11  2  0
 10 19  1  0
 14 13  1  0
 14 16  1  0
 15 14  2  0
 17 16  1  0
 18 17  1  1
 19 18  1  0
 20 21  1  0
 20 18  1  0
 22 20  2  0
M  END
$$$$
