GDQ.pdb
     RDKit          3D

 22 21  0  0  1  0  0  0  0  0999 V2000
   10.3342  -16.5842   16.1865 N   0  0  0  0  0  0  0  0  0  0  0  0
   10.9720  -15.3088   16.3761 C   0  0  0  0  0  0  0  0  0  0  0  0
   12.2586  -15.5301   17.0837 C   0  0  0  0  0  0  0  0  0  0  0  0
   12.5363  -16.6095   17.6729 O   0  0  0  0  0  0  0  0  0  0  0  0
   13.2704  -14.5041   17.1325 N   0  0  0  0  0  0  0  0  0  0  0  0
   14.4859  -14.6565   17.8615 C   0  0  1  0  0  0  0  0  0  0  0  0
   15.6027  -13.7686   17.4378 C   0  0  0  0  0  0  0  0  0  0  0  0
   16.0904  -14.0378   16.0683 C   0  0  0  0  0  0  0  0  0  0  0  0
   16.3602  -15.2201   15.7496 O   0  0  0  0  0  0  0  0  0  0  0  0
   14.1803  -14.3838   19.3034 C   0  0  0  0  0  0  0  0  0  0  0  0
   13.4706  -13.4190   19.6785 O   0  0  0  0  0  0  0  0  0  0  0  0
   16.2617  -13.0450   15.1257 O   0  0  0  0  0  0  0  0  0  0  0  0
   10.2423  -16.2675   24.4032 N   0  0  0  0  0  0  0  0  0  0  0  0
   10.9873  -16.2732   23.1959 C   0  0  0  0  0  0  0  0  0  0  0  0
   10.5221  -16.7433   22.1129 O   0  0  0  0  0  0  0  0  0  0  0  0
   12.3561  -15.7208   23.1269 C   0  0  0  0  0  0  0  0  0  0  0  0
   12.9405  -15.6789   21.7678 C   0  0  0  0  0  0  0  0  0  0  0  0
   14.2941  -15.0824   21.6913 C   0  0  2  0  0  0  0  0  0  0  0  0
   14.7163  -15.2522   20.2752 N   0  0  0  0  0  0  0  0  0  0  0  0
   15.3654  -15.6427   22.5026 C   0  0  0  0  0  0  0  0  0  0  0  0
   16.3721  -16.4548   21.9492 O   0  0  0  0  0  0  0  0  0  0  0  0
   15.5074  -15.4673   23.7613 O   0  0  0  0  0  0  0  0  0  0  0  0
  1  2  1  0
  3  2  1  0
  3  5  1  0
  4  3  2  0
  5  6  1  0
  6  7  1  6
  6 10  1  0
  7  8  1  0
  8 12  1  0
  9  8  2  0
 10 11  2  0
 10 19  1  0
 14 13  1  0
 14 16  1  0
 15 14  2  0
 17 16  1  0
 18 17  1  6
 19 18  1  0
 20 21  1  0
 20 18  1  0
 22 20  2  0
M  END
$$$$
