GDQ.pdb
     RDKit          3D

 22 21  0  0  1  0  0  0  0  0999 V2000
    6.1346  -19.3854   19.7508 N   0  0  0  0  0  0  0  0  0  0  0  0
    6.8028  -18.1484   19.4462 C   0  0  0  0  0  0  0  0  0  0  0  0
    8.2610  -18.3428   19.6485 C   0  0  0  0  0  0  0  0  0  0  0  0
    8.7401  -19.3507   20.2350 O   0  0  0  0  0  0  0  0  0  0  0  0
    9.2167  -17.3720   19.1760 N   0  0  0  0  0  0  0  0  0  0  0  0
   10.6249  -17.5554   19.3002 C   0  0  1  0  0  0  0  0  0  0  0  0
   11.4496  -16.9235   18.2345 C   0  0  0  0  0  0  0  0  0  0  0  0
   12.8675  -17.3418   18.2526 C   0  0  0  0  0  0  0  0  0  0  0  0
   13.1548  -18.4665   18.7265 O   0  0  0  0  0  0  0  0  0  0  0  0
   11.0357  -16.9836   20.6235 C   0  0  0  0  0  0  0  0  0  0  0  0
   10.7510  -15.8137   20.9779 O   0  0  0  0  0  0  0  0  0  0  0  0
   13.8884  -16.5486   17.7707 O   0  0  0  0  0  0  0  0  0  0  0  0
   10.7144  -20.0845   25.7883 N   0  0  0  0  0  0  0  0  0  0  0  0
   11.4772  -18.9609   26.1984 C   0  0  0  0  0  0  0  0  0  0  0  0
   11.7697  -18.7459   27.4144 O   0  0  0  0  0  0  0  0  0  0  0  0
   11.9857  -17.9720   25.2254 C   0  0  0  0  0  0  0  0  0  0  0  0
   11.6519  -18.2630   23.8131 C   0  0  0  0  0  0  0  0  0  0  0  0
   12.1386  -17.2583   22.8396 C   0  0  2  0  0  0  0  0  0  0  0  0
   11.7735  -17.8003   21.5035 N   0  0  0  0  0  0  0  0  0  0  0  0
   13.5619  -16.9577   22.7789 C   0  0  0  0  0  0  0  0  0  0  0  0
   14.1814  -16.0959   23.7022 O   0  0  0  0  0  0  0  0  0  0  0  0
   14.3788  -17.4247   21.9129 O   0  0  0  0  0  0  0  0  0  0  0  0
  1  2  1  0
  3  2  1  0
  3  5  1  0
  4  3  2  0
  5  6  1  0
  6  7  1  6
  6 10  1  0
  7  8  1  0
  8 12  1  0
  9  8  2  0
 10 11  2  0
 10 19  1  0
 14 13  1  0
 14 16  1  0
 15 14  2  0
 17 16  1  0
 18 17  1  1
 19 18  1  0
 20 21  1  0
 20 18  1  0
 22 20  2  0
M  END
$$$$
