GDQ.pdb
     RDKit          3D

 22 21  0  0  1  0  0  0  0  0999 V2000
    7.7918  -17.4704   21.4183 N   0  0  0  0  0  0  0  0  0  0  0  0
    9.0566  -16.7862   21.4575 C   0  0  0  0  0  0  0  0  0  0  0  0
    9.9114  -17.4423   22.4793 C   0  0  0  0  0  0  0  0  0  0  0  0
    9.4493  -18.2163   23.3605 O   0  0  0  0  0  0  0  0  0  0  0  0
   11.3361  -17.2225   22.5141 N   0  0  0  0  0  0  0  0  0  0  0  0
   12.1805  -17.8073   23.5026 C   0  0  1  0  0  0  0  0  0  0  0  0
   13.6203  -17.9052   23.1384 C   0  0  0  0  0  0  0  0  0  0  0  0
   13.8707  -18.6791   21.9039 C   0  0  0  0  0  0  0  0  0  0  0  0
   13.1666  -19.6916   21.6779 O   0  0  0  0  0  0  0  0  0  0  0  0
   12.0579  -16.9766   24.7443 C   0  0  0  0  0  0  0  0  0  0  0  0
   12.3343  -15.7528   24.7751 O   0  0  0  0  0  0  0  0  0  0  0  0
   14.8454  -18.3359   20.9897 O   0  0  0  0  0  0  0  0  0  0  0  0
    9.2540  -13.3089   26.1534 N   0  0  0  0  0  0  0  0  0  0  0  0
    9.3629  -13.6741   27.5200 C   0  0  0  0  0  0  0  0  0  0  0  0
    9.0781  -12.8728   28.4619 O   0  0  0  0  0  0  0  0  0  0  0  0
    9.8105  -15.0216   27.9291 C   0  0  0  0  0  0  0  0  0  0  0  0
   10.2580  -15.8907   26.8178 C   0  0  0  0  0  0  0  0  0  0  0  0
   11.4067  -16.7688   27.1393 C   0  0  2  0  0  0  0  0  0  0  0  0
   11.6122  -17.6032   25.9253 N   0  0  0  0  0  0  0  0  0  0  0  0
   11.3016  -17.6978   28.2554 C   0  0  0  0  0  0  0  0  0  0  0  0
   10.9051  -19.0356   28.0763 O   0  0  0  0  0  0  0  0  0  0  0  0
   11.5481  -17.4142   29.4777 O   0  0  0  0  0  0  0  0  0  0  0  0
  1  2  1  0
  3  2  1  0
  3  5  1  0
  4  3  2  0
  5  6  1  0
  6  7  1  6
  6 10  1  0
  7  8  1  0
  8 12  1  0
  9  8  2  0
 10 11  2  0
 10 19  1  0
 14 13  1  0
 14 16  1  0
 15 14  2  0
 17 16  1  0
 18 17  1  6
 19 18  1  0
 20 21  1  0
 20 18  1  0
 22 20  2  0
M  END
$$$$
