LIA.pdb
     RDKit          3D

 22 21  0  0  1  0  0  0  0  0999 V2000
   20.0842  -21.6832  -16.1898 C   0  0  0  0  0  0  0  0  0  0  0  0
   19.5051  -20.5811  -15.2984 C   0  0  2  0  0  0  0  0  0  0  0  0
   18.5834  -19.7528  -16.1364 C   0  0  0  0  0  0  0  0  0  0  0  0
   20.6475  -19.8207  -14.7045 C   0  0  0  0  0  0  0  0  0  0  0  0
   21.5967  -20.6283  -13.8914 C   0  0  2  0  0  0  0  0  0  0  0  0
   20.8761  -21.1806  -12.7404 N   0  0  0  0  0  0  0  0  0  0  0  0
   22.8333  -19.9428  -13.4836 C   0  0  0  0  0  0  0  0  0  0  0  0
   22.8540  -19.1804  -12.5018 O   0  0  0  0  0  0  0  0  0  0  0  0
   25.5729  -22.3469  -12.1530 C   0  0  0  0  0  0  0  0  0  0  0  0
   26.2024  -20.9671  -11.9057 C   0  0  0  0  0  0  0  0  0  0  0  0
   26.4063  -20.3333  -13.2355 C   0  0  2  0  0  0  0  0  0  0  0  0
   27.7789  -19.7153  -13.3932 C   0  0  0  0  0  0  0  0  0  0  0  0
   25.2993  -19.5061  -13.7525 C   0  0  2  0  0  0  0  0  0  0  0  0
   24.0841  -20.0670  -14.1328 N   0  0  0  0  0  0  0  0  0  0  0  0
   25.8439  -18.7017  -14.9022 C   0  0  0  0  0  0  0  0  0  0  0  0
   26.0371  -19.2355  -16.0261 O   0  0  0  0  0  0  0  0  0  0  0  0
   27.1453  -15.1947  -15.5223 C   0  0  0  0  0  0  0  0  0  0  0  0
   26.5344  -16.5050  -15.9289 C   0  0  2  0  0  0  0  0  0  0  0  0
   26.1623  -17.3281  -14.7844 N   0  0  0  0  0  0  0  0  0  0  0  0
   27.5843  -17.2553  -16.6945 C   0  0  0  0  0  0  0  0  0  0  0  0
   28.5299  -17.8567  -16.1236 O   0  0  0  0  0  0  0  0  0  0  0  0
   27.5369  -17.3049  -18.0792 O   0  0  0  0  0  0  0  0  0  0  0  0
  2  1  1  6
  2  3  1  0
  4  2  1  0
  5  4  1  0
  5  7  1  0
  5  6  1  1
  7 14  1  0
  7  8  2  0
  9 10  1  0
 10 11  1  0
 11 12  1  1
 13 11  1  0
 13 14  1  6
 15 13  1  0
 15 16  2  0
 18 17  1  1
 18 19  1  0
 19 15  1  0
 20 18  1  0
 21 20  2  0
 22 20  1  0
M  END
$$$$
