LIA.pdb
     RDKit          3D

 22 21  0  0  1  0  0  0  0  0999 V2000
   27.4202  -13.7623  -15.0431 C   0  0  0  0  0  0  0  0  0  0  0  0
   27.3939  -13.6314  -16.5684 C   0  0  2  0  0  0  0  0  0  0  0  0
   28.6769  -12.9909  -16.9944 C   0  0  0  0  0  0  0  0  0  0  0  0
   26.1676  -12.8625  -16.9440 C   0  0  0  0  0  0  0  0  0  0  0  0
   24.8769  -13.4869  -16.5459 C   0  0  2  0  0  0  0  0  0  0  0  0
   24.8370  -14.8558  -17.0687 N   0  0  0  0  0  0  0  0  0  0  0  0
   23.6648  -12.7315  -16.9006 C   0  0  0  0  0  0  0  0  0  0  0  0
   23.2240  -12.7287  -18.0631 O   0  0  0  0  0  0  0  0  0  0  0  0
   19.7806  -13.6441  -14.5567 C   0  0  0  0  0  0  0  0  0  0  0  0
   19.9323  -12.9529  -15.9206 C   0  0  0  0  0  0  0  0  0  0  0  0
   20.4444  -11.5808  -15.6626 C   0  0  2  0  0  0  0  0  0  0  0  0
   19.3784  -10.5150  -15.7986 C   0  0  0  0  0  0  0  0  0  0  0  0
   21.7412  -11.2313  -16.2734 C   0  0  2  0  0  0  0  0  0  0  0  0
   22.8966  -11.9567  -16.0001 N   0  0  0  0  0  0  0  0  0  0  0  0
   21.9974   -9.7787  -15.9738 C   0  0  0  0  0  0  0  0  0  0  0  0
   22.5149   -9.4291  -14.8805 O   0  0  0  0  0  0  0  0  0  0  0  0
   21.7678   -6.4860  -17.8581 C   0  0  0  0  0  0  0  0  0  0  0  0
   22.0506   -7.3551  -16.6665 C   0  0  2  0  0  0  0  0  0  0  0  0
   21.6766   -8.7469  -16.8873 N   0  0  0  0  0  0  0  0  0  0  0  0
   21.2027   -6.8392  -15.5411 C   0  0  0  0  0  0  0  0  0  0  0  0
   20.0062   -7.1940  -15.3853 O   0  0  0  0  0  0  0  0  0  0  0  0
   21.7284   -5.9399  -14.6263 O   0  0  0  0  0  0  0  0  0  0  0  0
  2  1  1  1
  2  3  1  0
  4  2  1  0
  5  4  1  0
  5  7  1  0
  5  6  1  6
  7 14  1  0
  7  8  2  0
  9 10  1  0
 10 11  1  0
 11 12  1  6
 13 11  1  0
 13 14  1  1
 15 13  1  0
 15 16  2  0
 18 17  1  6
 18 19  1  0
 19 15  1  0
 20 18  1  0
 21 20  2  0
 22 20  1  0
M  END
$$$$
