LIA.pdb
     RDKit          3D

 22 21  0  0  1  0  0  0  0  0999 V2000
   20.4741  -23.7904  -13.6087 C   0  0  0  0  0  0  0  0  0  0  0  0
   19.8854  -22.4142  -13.9313 C   0  0  2  0  0  0  0  0  0  0  0  0
   19.6177  -22.3651  -15.4023 C   0  0  0  0  0  0  0  0  0  0  0  0
   20.8461  -21.3765  -13.4455 C   0  0  0  0  0  0  0  0  0  0  0  0
   21.1735  -21.4400  -11.9953 C   0  0  2  0  0  0  0  0  0  0  0  0
   19.9636  -21.1314  -11.2273 N   0  0  0  0  0  0  0  0  0  0  0  0
   22.3184  -20.6234  -11.5618 C   0  0  0  0  0  0  0  0  0  0  0  0
   22.2962  -19.3835  -11.6502 O   0  0  0  0  0  0  0  0  0  0  0  0
   26.3446  -19.3845   -7.5565 C   0  0  0  0  0  0  0  0  0  0  0  0
   26.4698  -19.7247   -9.0497 C   0  0  0  0  0  0  0  0  0  0  0  0
   25.3550  -20.6506   -9.3837 C   0  0  2  0  0  0  0  0  0  0  0  0
   25.6827  -22.1003   -9.0973 C   0  0  0  0  0  0  0  0  0  0  0  0
   24.6642  -20.4210  -10.6671 C   0  0  2  0  0  0  0  0  0  0  0  0
   23.5216  -21.1326  -11.0192 N   0  0  0  0  0  0  0  0  0  0  0  0
   25.6890  -20.5767  -11.7584 C   0  0  0  0  0  0  0  0  0  0  0  0
   26.0210  -21.7192  -12.1706 O   0  0  0  0  0  0  0  0  0  0  0  0
   28.1073  -20.8956  -13.2858 C   0  0  0  0  0  0  0  0  0  0  0  0
   27.3340  -19.6142  -13.4088 C   0  0  2  0  0  0  0  0  0  0  0  0
   26.3227  -19.4686  -12.3686 N   0  0  0  0  0  0  0  0  0  0  0  0
   26.6150  -19.6650  -14.7249 C   0  0  0  0  0  0  0  0  0  0  0  0
   25.3636  -19.5729  -14.8099 O   0  0  0  0  0  0  0  0  0  0  0  0
   27.3275  -19.8179  -15.9043 O   0  0  0  0  0  0  0  0  0  0  0  0
  2  1  1  6
  2  3  1  0
  4  2  1  0
  5  4  1  0
  5  7  1  0
  5  6  1  1
  7 14  1  0
  7  8  2  0
  9 10  1  0
 10 11  1  0
 11 12  1  6
 13 11  1  0
 13 14  1  6
 15 13  1  0
 15 16  2  0
 18 17  1  1
 18 19  1  0
 19 15  1  0
 20 18  1  0
 21 20  2  0
 22 20  1  0
M  END
$$$$
