LIA.pdb
     RDKit          3D

 22 21  0  0  1  0  0  0  0  0999 V2000
   28.9159  -17.8424  -15.6898 C   0  0  0  0  0  0  0  0  0  0  0  0
   28.3651  -18.7458  -16.7966 C   0  0  2  0  0  0  0  0  0  0  0  0
   27.9039  -17.8675  -17.9163 C   0  0  0  0  0  0  0  0  0  0  0  0
   27.2915  -19.6005  -16.2025 C   0  0  0  0  0  0  0  0  0  0  0  0
   27.7202  -20.4688  -15.0726 C   0  0  2  0  0  0  0  0  0  0  0  0
   28.6091  -21.5117  -15.5934 N   0  0  0  0  0  0  0  0  0  0  0  0
   26.6363  -21.0342  -14.2537 C   0  0  0  0  0  0  0  0  0  0  0  0
   26.0860  -22.1052  -14.5632 O   0  0  0  0  0  0  0  0  0  0  0  0
   26.2403  -20.4061   -8.6734 C   0  0  0  0  0  0  0  0  0  0  0  0
   26.3123  -21.0920  -10.0465 C   0  0  0  0  0  0  0  0  0  0  0  0
   25.0952  -20.6916  -10.8013 C   0  0  2  0  0  0  0  0  0  0  0  0
   23.8100  -21.0858  -10.1058 C   0  0  0  0  0  0  0  0  0  0  0  0
   25.1053  -20.9398  -12.2558 C   0  0  2  0  0  0  0  0  0  0  0  0
   26.1193  -20.4504  -13.0733 N   0  0  0  0  0  0  0  0  0  0  0  0
   23.7793  -20.4758  -12.7959 C   0  0  0  0  0  0  0  0  0  0  0  0
   23.4944  -19.2499  -12.8354 O   0  0  0  0  0  0  0  0  0  0  0  0
   21.0196  -21.8463  -14.9137 C   0  0  0  0  0  0  0  0  0  0  0  0
   21.5294  -20.9292  -13.8393 C   0  0  2  0  0  0  0  0  0  0  0  0
   22.7997  -21.3749  -13.2793 N   0  0  0  0  0  0  0  0  0  0  0  0
   20.5196  -20.9558  -12.7297 C   0  0  0  0  0  0  0  0  0  0  0  0
   20.7021  -21.6112  -11.6720 O   0  0  0  0  0  0  0  0  0  0  0  0
   19.3359  -20.2436  -12.8458 O   0  0  0  0  0  0  0  0  0  0  0  0
  2  1  1  1
  2  3  1  0
  4  2  1  0
  5  4  1  0
  5  7  1  0
  5  6  1  6
  7 14  1  0
  7  8  2  0
  9 10  1  0
 10 11  1  0
 11 12  1  1
 13 11  1  0
 13 14  1  6
 15 13  1  0
 15 16  2  0
 18 17  1  6
 18 19  1  0
 19 15  1  0
 20 18  1  0
 21 20  2  0
 22 20  1  0
M  END
$$$$
