LIA.pdb
     RDKit          3D

 22 21  0  0  1  0  0  0  0  0999 V2000
   20.3419  -12.6390  -18.3461 C   0  0  0  0  0  0  0  0  0  0  0  0
   19.0583  -13.3884  -17.9781 C   0  0  2  0  0  0  0  0  0  0  0  0
   18.6250  -14.1692  -19.1782 C   0  0  0  0  0  0  0  0  0  0  0  0
   18.0579  -12.3835  -17.5033 C   0  0  0  0  0  0  0  0  0  0  0  0
   18.4498  -11.6186  -16.2885 C   0  0  2  0  0  0  0  0  0  0  0  0
   18.7375  -12.5678  -15.2091 N   0  0  0  0  0  0  0  0  0  0  0  0
   17.5075  -10.5731  -15.8595 C   0  0  0  0  0  0  0  0  0  0  0  0
   16.3678  -10.4918  -16.3496 O   0  0  0  0  0  0  0  0  0  0  0  0
   16.9169   -9.5768  -10.5520 C   0  0  0  0  0  0  0  0  0  0  0  0
   16.5885   -9.8763  -12.0229 C   0  0  0  0  0  0  0  0  0  0  0  0
   16.8096   -8.6195  -12.7865 C   0  0  2  0  0  0  0  0  0  0  0  0
   15.9701   -7.4649  -12.2835 C   0  0  0  0  0  0  0  0  0  0  0  0
   16.8696   -8.7383  -14.2560 C   0  0  2  0  0  0  0  0  0  0  0  0
   17.7779   -9.5849  -14.8839 N   0  0  0  0  0  0  0  0  0  0  0  0
   17.0388   -7.3486  -14.8085 C   0  0  0  0  0  0  0  0  0  0  0  0
   16.1766   -6.4584  -14.5854 O   0  0  0  0  0  0  0  0  0  0  0  0
   17.1988   -5.3678  -17.1960 C   0  0  0  0  0  0  0  0  0  0  0  0
   18.2846   -5.6541  -16.1989 C   0  0  2  0  0  0  0  0  0  0  0  0
   18.1548   -6.9742  -15.5935 N   0  0  0  0  0  0  0  0  0  0  0  0
   18.1421   -4.6437  -15.0988 C   0  0  0  0  0  0  0  0  0  0  0  0
   17.8937   -4.9751  -13.9113 O   0  0  0  0  0  0  0  0  0  0  0  0
   18.2838   -3.2915  -15.3701 O   0  0  0  0  0  0  0  0  0  0  0  0
  2  1  1  6
  2  3  1  0
  4  2  1  0
  5  4  1  0
  5  7  1  0
  5  6  1  1
  7 14  1  0
  7  8  2  0
  9 10  1  0
 10 11  1  0
 11 12  1  6
 13 11  1  0
 13 14  1  1
 15 13  1  0
 15 16  2  0
 18 17  1  6
 18 19  1  0
 19 15  1  0
 20 18  1  0
 21 20  2  0
 22 20  1  0
M  END
$$$$
