LIA.pdb
     RDKit          3D

 22 21  0  0  1  0  0  0  0  0999 V2000
   25.4961  -18.1559  -16.9165 C   0  0  0  0  0  0  0  0  0  0  0  0
   26.4427  -19.2342  -16.3818 C   0  0  2  0  0  0  0  0  0  0  0  0
   26.9967  -19.9786  -17.5552 C   0  0  0  0  0  0  0  0  0  0  0  0
   25.6763  -20.0843  -15.4196 C   0  0  0  0  0  0  0  0  0  0  0  0
   26.4488  -20.5725  -14.2451 C   0  0  2  0  0  0  0  0  0  0  0  0
   27.4962  -21.4825  -14.7179 N   0  0  0  0  0  0  0  0  0  0  0  0
   25.6540  -21.1711  -13.1609 C   0  0  0  0  0  0  0  0  0  0  0  0
   25.2390  -22.3406  -13.2359 O   0  0  0  0  0  0  0  0  0  0  0  0
   26.2125  -19.5681   -7.8929 C   0  0  0  0  0  0  0  0  0  0  0  0
   26.1471  -20.5668   -9.0588 C   0  0  0  0  0  0  0  0  0  0  0  0
   24.7347  -20.6077   -9.5227 C   0  0  2  0  0  0  0  0  0  0  0  0
   23.8010  -21.2554   -8.5229 C   0  0  0  0  0  0  0  0  0  0  0  0
   24.5083  -21.0126  -10.9234 C   0  0  2  0  0  0  0  0  0  0  0  0
   25.2874  -20.5141  -11.9629 N   0  0  0  0  0  0  0  0  0  0  0  0
   23.0590  -20.7508  -11.2338 C   0  0  0  0  0  0  0  0  0  0  0  0
   22.6062  -19.5759  -11.2470 O   0  0  0  0  0  0  0  0  0  0  0  0
   20.2062  -22.6384  -12.7822 C   0  0  0  0  0  0  0  0  0  0  0  0
   20.7666  -21.5385  -11.9269 C   0  0  2  0  0  0  0  0  0  0  0  0
   22.1443  -21.7909  -11.5221 N   0  0  0  0  0  0  0  0  0  0  0  0
   19.9365  -21.4934  -10.6777 C   0  0  0  0  0  0  0  0  0  0  0  0
   20.2991  -22.0514   -9.6106 O   0  0  0  0  0  0  0  0  0  0  0  0
   18.7239  -20.8213  -10.6691 O   0  0  0  0  0  0  0  0  0  0  0  0
  2  1  1  6
  2  3  1  0
  4  2  1  0
  5  4  1  0
  5  7  1  0
  5  6  1  6
  7 14  1  0
  7  8  2  0
  9 10  1  0
 10 11  1  0
 11 12  1  1
 13 11  1  0
 13 14  1  6
 15 13  1  0
 15 16  2  0
 18 17  1  6
 18 19  1  0
 19 15  1  0
 20 18  1  0
 21 20  2  0
 22 20  1  0
M  END
$$$$
