LIA.pdb
     RDKit          3D

 22 21  0  0  1  0  0  0  0  0999 V2000
   20.5384  -12.1073  -21.3569 C   0  0  0  0  0  0  0  0  0  0  0  0
   19.4392  -12.4511  -20.3478 C   0  0  2  0  0  0  0  0  0  0  0  0
   18.1585  -11.8623  -20.8488 C   0  0  0  0  0  0  0  0  0  0  0  0
   19.8678  -11.9429  -19.0084 C   0  0  0  0  0  0  0  0  0  0  0  0
   21.1881  -12.4370  -18.5318 C   0  0  2  0  0  0  0  0  0  0  0  0
   21.1089  -13.8899  -18.3539 N   0  0  0  0  0  0  0  0  0  0  0  0
   21.7273  -11.7692  -17.3365 C   0  0  0  0  0  0  0  0  0  0  0  0
   21.3094  -12.0471  -16.1991 O   0  0  0  0  0  0  0  0  0  0  0  0
   26.8027  -11.4126  -15.6607 C   0  0  0  0  0  0  0  0  0  0  0  0
   25.2879  -11.5713  -15.8638 C   0  0  0  0  0  0  0  0  0  0  0  0
   24.7053  -10.2037  -15.9068 C   0  0  2  0  0  0  0  0  0  0  0  0
   25.1311   -9.3411  -14.7383 C   0  0  0  0  0  0  0  0  0  0  0  0
   23.2745  -10.1030  -16.2529 C   0  0  2  0  0  0  0  0  0  0  0  0
   22.7376  -10.7789  -17.3441 N   0  0  0  0  0  0  0  0  0  0  0  0
   22.9493   -8.6390  -16.3803 C   0  0  0  0  0  0  0  0  0  0  0  0
   23.4354   -7.9513  -17.3164 O   0  0  0  0  0  0  0  0  0  0  0  0
   20.2631   -6.3512  -15.7664 C   0  0  0  0  0  0  0  0  0  0  0  0
   21.7424   -6.5617  -15.6157 C   0  0  2  0  0  0  0  0  0  0  0  0
   22.0958   -7.9690  -15.4723 N   0  0  0  0  0  0  0  0  0  0  0  0
   22.1535   -5.8681  -14.3501 C   0  0  0  0  0  0  0  0  0  0  0  0
   22.3844   -6.4962  -13.2853 O   0  0  0  0  0  0  0  0  0  0  0  0
   22.2917   -4.4889  -14.3231 O   0  0  0  0  0  0  0  0  0  0  0  0
  2  1  1  6
  2  3  1  0
  4  2  1  0
  5  4  1  0
  5  7  1  0
  5  6  1  1
  7 14  1  0
  7  8  2  0
  9 10  1  0
 10 11  1  0
 11 12  1  1
 13 11  1  0
 13 14  1  6
 15 13  1  0
 15 16  2  0
 18 17  1  1
 18 19  1  0
 19 15  1  0
 20 18  1  0
 21 20  2  0
 22 20  1  0
M  END
$$$$
