LIA.pdb
     RDKit          3D

 22 21  0  0  1  0  0  0  0  0999 V2000
   25.0563  -16.7824  -17.1122 C   0  0  0  0  0  0  0  0  0  0  0  0
   25.4743  -17.8517  -18.1253 C   0  0  2  0  0  0  0  0  0  0  0  0
   24.4793  -17.8369  -19.2422 C   0  0  0  0  0  0  0  0  0  0  0  0
   25.5704  -19.1579  -17.4037 C   0  0  0  0  0  0  0  0  0  0  0  0
   26.4266  -19.1523  -16.1867 C   0  0  2  0  0  0  0  0  0  0  0  0
   27.8315  -19.2118  -16.6013 N   0  0  0  0  0  0  0  0  0  0  0  0
   26.1112  -20.1765  -15.1782 C   0  0  0  0  0  0  0  0  0  0  0  0
   26.5364  -21.3398  -15.2859 O   0  0  0  0  0  0  0  0  0  0  0  0
   25.5629  -21.2768   -9.2747 C   0  0  0  0  0  0  0  0  0  0  0  0
   25.0887  -21.7479  -10.6583 C   0  0  0  0  0  0  0  0  0  0  0  0
   25.3283  -20.6293  -11.6085 C   0  0  2  0  0  0  0  0  0  0  0  0
   24.8444  -19.2938  -11.0859 C   0  0  0  0  0  0  0  0  0  0  0  0
   25.0094  -20.8839  -13.0265 C   0  0  2  0  0  0  0  0  0  0  0  0
   25.3235  -19.9644  -14.0224 N   0  0  0  0  0  0  0  0  0  0  0  0
   23.5397  -21.1993  -13.1026 C   0  0  0  0  0  0  0  0  0  0  0  0
   22.6876  -20.2765  -13.1909 O   0  0  0  0  0  0  0  0  0  0  0  0
   21.4317  -24.3040  -13.6207 C   0  0  0  0  0  0  0  0  0  0  0  0
   21.6446  -22.8474  -13.3236 C   0  0  2  0  0  0  0  0  0  0  0  0
   23.0454  -22.5248  -13.0794 N   0  0  0  0  0  0  0  0  0  0  0  0
   20.8917  -22.5468  -12.0609 C   0  0  0  0  0  0  0  0  0  0  0  0
   19.6350  -22.5283  -12.0172 O   0  0  0  0  0  0  0  0  0  0  0  0
   21.5775  -22.2763  -10.8867 O   0  0  0  0  0  0  0  0  0  0  0  0
  2  1  1  1
  2  3  1  0
  4  2  1  0
  5  4  1  0
  5  7  1  0
  5  6  1  6
  7 14  1  0
  7  8  2  0
  9 10  1  0
 10 11  1  0
 11 12  1  1
 13 11  1  0
 13 14  1  6
 15 13  1  0
 15 16  2  0
 18 17  1  1
 18 19  1  0
 19 15  1  0
 20 18  1  0
 21 20  2  0
 22 20  1  0
M  END
$$$$
