LIA.pdb
     RDKit          3D

 22 21  0  0  1  0  0  0  0  0999 V2000
   28.6189  -21.0157   -4.6609 C   0  0  0  0  0  0  0  0  0  0  0  0
   27.7497  -19.7684   -4.8436 C   0  0  2  0  0  0  0  0  0  0  0  0
   27.0174  -19.5297   -3.5612 C   0  0  0  0  0  0  0  0  0  0  0  0
   26.8628  -19.9937   -6.0262 C   0  0  0  0  0  0  0  0  0  0  0  0
   27.5668  -20.2777   -7.3061 C   0  0  2  0  0  0  0  0  0  0  0  0
   28.8820  -19.6312   -7.2715 N   0  0  0  0  0  0  0  0  0  0  0  0
   26.8254  -19.9417   -8.5320 C   0  0  0  0  0  0  0  0  0  0  0  0
   26.4554  -18.7775   -8.7630 O   0  0  0  0  0  0  0  0  0  0  0  0
   29.2761  -22.0131  -11.2283 C   0  0  0  0  0  0  0  0  0  0  0  0
   28.5864  -20.7537  -11.7754 C   0  0  0  0  0  0  0  0  0  0  0  0
   27.1453  -21.0803  -11.9426 C   0  0  2  0  0  0  0  0  0  0  0  0
   26.6475  -20.8598  -13.3548 C   0  0  0  0  0  0  0  0  0  0  0  0
   26.2302  -20.6010  -10.8890 C   0  0  2  0  0  0  0  0  0  0  0  0
   26.4648  -20.8634   -9.5428 N   0  0  0  0  0  0  0  0  0  0  0  0
   24.8498  -21.0840  -11.2447 C   0  0  0  0  0  0  0  0  0  0  0  0
   24.3321  -22.0570  -10.6357 O   0  0  0  0  0  0  0  0  0  0  0  0
   22.8834  -22.5152  -12.9795 C   0  0  0  0  0  0  0  0  0  0  0  0
   22.8054  -21.0382  -12.7194 C   0  0  2  0  0  0  0  0  0  0  0  0
   24.0738  -20.4823  -12.2633 N   0  0  0  0  0  0  0  0  0  0  0  0
   21.8104  -20.8436  -11.6131 C   0  0  0  0  0  0  0  0  0  0  0  0
   20.6196  -21.2376  -11.7045 O   0  0  0  0  0  0  0  0  0  0  0  0
   22.1875  -20.2113  -10.4383 O   0  0  0  0  0  0  0  0  0  0  0  0
  2  1  1  1
  2  3  1  0
  4  2  1  0
  5  4  1  0
  5  7  1  0
  5  6  1  1
  7 14  1  0
  7  8  2  0
  9 10  1  0
 10 11  1  0
 11 12  1  6
 13 11  1  0
 13 14  1  1
 15 13  1  0
 15 16  2  0
 18 17  1  1
 18 19  1  0
 19 15  1  0
 20 18  1  0
 21 20  2  0
 22 20  1  0
M  END
$$$$
