LIA.pdb
     RDKit          3D

 22 21  0  0  1  0  0  0  0  0999 V2000
   22.7779  -10.1355  -13.5355 C   0  0  0  0  0  0  0  0  0  0  0  0
   23.0226  -10.6298  -14.9640 C   0  0  2  0  0  0  0  0  0  0  0  0
   24.4780  -10.4581  -15.2640 C   0  0  0  0  0  0  0  0  0  0  0  0
   22.1124   -9.8714  -15.8763 C   0  0  0  0  0  0  0  0  0  0  0  0
   20.6582  -10.0338  -15.6054 C   0  0  2  0  0  0  0  0  0  0  0  0
   20.2780  -11.4186  -15.8999 N   0  0  0  0  0  0  0  0  0  0  0  0
   19.7713   -9.0698  -16.2757 C   0  0  0  0  0  0  0  0  0  0  0  0
   19.6119   -9.0896  -17.5085 O   0  0  0  0  0  0  0  0  0  0  0  0
   15.3465   -8.6895  -14.8656 C   0  0  0  0  0  0  0  0  0  0  0  0
   15.9302   -8.1742  -16.1904 C   0  0  0  0  0  0  0  0  0  0  0  0
   16.7766   -6.9948  -15.8675 C   0  0  2  0  0  0  0  0  0  0  0  0
   16.1317   -5.6800  -16.2498 C   0  0  0  0  0  0  0  0  0  0  0  0
   18.2096   -7.0948  -16.2048 C   0  0  2  0  0  0  0  0  0  0  0  0
   19.0315   -8.0554  -15.6237 N   0  0  0  0  0  0  0  0  0  0  0  0
   18.8160   -5.7359  -15.9790 C   0  0  0  0  0  0  0  0  0  0  0  0
   19.1191   -5.3515  -14.8189 O   0  0  0  0  0  0  0  0  0  0  0  0
   20.0016   -2.8284  -18.1241 C   0  0  0  0  0  0  0  0  0  0  0  0
   19.7181   -3.5422  -16.8336 C   0  0  2  0  0  0  0  0  0  0  0  0
   19.0733   -4.8337  -17.0382 N   0  0  0  0  0  0  0  0  0  0  0  0
   18.7594   -2.6828  -16.0629 C   0  0  0  0  0  0  0  0  0  0  0  0
   17.5139   -2.7605  -16.2192 O   0  0  0  0  0  0  0  0  0  0  0  0
   19.2330   -1.7627  -15.1403 O   0  0  0  0  0  0  0  0  0  0  0  0
  2  1  1  1
  2  3  1  0
  4  2  1  0
  5  4  1  0
  5  7  1  0
  5  6  1  6
  7 14  1  0
  7  8  2  0
  9 10  1  0
 10 11  1  0
 11 12  1  6
 13 11  1  0
 13 14  1  1
 15 13  1  0
 15 16  2  0
 18 17  1  6
 18 19  1  0
 19 15  1  0
 20 18  1  0
 21 20  2  0
 22 20  1  0
M  END
$$$$
