LIA.pdb
     RDKit          3D

 22 21  0  0  1  0  0  0  0  0999 V2000
   27.5797  -17.9706  -15.8965 C   0  0  0  0  0  0  0  0  0  0  0  0
   26.9813  -19.1190  -16.7137 C   0  0  2  0  0  0  0  0  0  0  0  0
   26.2361  -18.5210  -17.8647 C   0  0  0  0  0  0  0  0  0  0  0  0
   26.1377  -19.9462  -15.7972 C   0  0  0  0  0  0  0  0  0  0  0  0
   26.8649  -20.5926  -14.6712 C   0  0  2  0  0  0  0  0  0  0  0  0
   27.8276  -21.5506  -15.2229 N   0  0  0  0  0  0  0  0  0  0  0  0
   26.0211  -21.2036  -13.6319 C   0  0  0  0  0  0  0  0  0  0  0  0
   25.6279  -22.3789  -13.7294 O   0  0  0  0  0  0  0  0  0  0  0  0
   26.2931  -19.9111   -8.2107 C   0  0  0  0  0  0  0  0  0  0  0  0
   26.2760  -20.7621   -9.4901 C   0  0  0  0  0  0  0  0  0  0  0  0
   24.9003  -20.6855  -10.0496 C   0  0  2  0  0  0  0  0  0  0  0  0
   23.8515  -21.2659   -9.1254 C   0  0  0  0  0  0  0  0  0  0  0  0
   24.7397  -21.0576  -11.4683 C   0  0  2  0  0  0  0  0  0  0  0  0
   25.5804  -20.5530  -12.4555 N   0  0  0  0  0  0  0  0  0  0  0  0
   23.3134  -20.7624  -11.8474 C   0  0  0  0  0  0  0  0  0  0  0  0
   22.8587  -19.5903  -11.7772 O   0  0  0  0  0  0  0  0  0  0  0  0
   20.4521  -22.5433  -13.5497 C   0  0  0  0  0  0  0  0  0  0  0  0
   21.0384  -21.4880  -12.6564 C   0  0  2  0  0  0  0  0  0  0  0  0
   22.4230  -21.7670  -12.2946 N   0  0  0  0  0  0  0  0  0  0  0  0
   20.2363  -21.4972  -11.3883 C   0  0  0  0  0  0  0  0  0  0  0  0
   20.6750  -21.9959  -10.3204 O   0  0  0  0  0  0  0  0  0  0  0  0
   18.9651  -20.9445  -11.3623 O   0  0  0  0  0  0  0  0  0  0  0  0
  2  1  1  1
  2  3  1  0
  4  2  1  0
  5  4  1  0
  5  7  1  0
  5  6  1  6
  7 14  1  0
  7  8  2  0
  9 10  1  0
 10 11  1  0
 11 12  1  1
 13 11  1  0
 13 14  1  6
 15 13  1  0
 15 16  2  0
 18 17  1  6
 18 19  1  0
 19 15  1  0
 20 18  1  0
 21 20  2  0
 22 20  1  0
M  END
$$$$
