LIA.pdb
     RDKit          3D

 22 21  0  0  1  0  0  0  0  0999 V2000
   29.3049  -20.4460   -5.3216 C   0  0  0  0  0  0  0  0  0  0  0  0
   27.8907  -19.9717   -4.9758 C   0  0  2  0  0  0  0  0  0  0  0  0
   27.4249  -20.7517   -3.7873 C   0  0  0  0  0  0  0  0  0  0  0  0
   27.0384  -20.1373   -6.1932 C   0  0  0  0  0  0  0  0  0  0  0  0
   27.5137  -19.4191   -7.4067 C   0  0  2  0  0  0  0  0  0  0  0  0
   27.6804  -18.0004   -7.0769 N   0  0  0  0  0  0  0  0  0  0  0  0
   26.7018  -19.6059   -8.6195 C   0  0  0  0  0  0  0  0  0  0  0  0
   25.6773  -18.9306   -8.8199 O   0  0  0  0  0  0  0  0  0  0  0  0
   29.4757  -21.5919  -13.0762 C   0  0  0  0  0  0  0  0  0  0  0  0
   28.7525  -20.6243  -12.1265 C   0  0  0  0  0  0  0  0  0  0  0  0
   27.3260  -21.0417  -12.0777 C   0  0  2  0  0  0  0  0  0  0  0  0
   26.6455  -20.9853  -13.4284 C   0  0  0  0  0  0  0  0  0  0  0  0
   26.5180  -20.5123  -10.9624 C   0  0  2  0  0  0  0  0  0  0  0  0
   26.9811  -20.5335   -9.6505 N   0  0  0  0  0  0  0  0  0  0  0  0
   25.1801  -21.1996  -11.0164 C   0  0  0  0  0  0  0  0  0  0  0  0
   25.0468  -22.3812  -10.6021 O   0  0  0  0  0  0  0  0  0  0  0  0
   21.5855  -20.2412  -11.3800 C   0  0  0  0  0  0  0  0  0  0  0  0
   22.7158  -21.2154  -11.5488 C   0  0  2  0  0  0  0  0  0  0  0  0
   24.0216  -20.5672  -11.5262 N   0  0  0  0  0  0  0  0  0  0  0  0
   22.5523  -21.8406  -12.9031 C   0  0  0  0  0  0  0  0  0  0  0  0
   23.2654  -21.5105  -13.8850 O   0  0  0  0  0  0  0  0  0  0  0  0
   21.5910  -22.8179  -13.1095 O   0  0  0  0  0  0  0  0  0  0  0  0
  2  1  1  6
  2  3  1  0
  4  2  1  0
  5  4  1  0
  5  7  1  0
  5  6  1  1
  7 14  1  0
  7  8  2  0
  9 10  1  0
 10 11  1  0
 11 12  1  6
 13 11  1  0
 13 14  1  1
 15 13  1  0
 15 16  2  0
 18 17  1  6
 18 19  1  0
 19 15  1  0
 20 18  1  0
 21 20  2  0
 22 20  1  0
M  END
$$$$
