QIR.pdb
     RDKit          3D

 29 28  0  0  1  0  0  0  0  0999 V2000
   15.5214  -17.0030   16.4978 N   0  0  0  0  0  0  0  0  0  0  0  0
   14.7019  -18.1485   16.4983 C   0  0  0  0  0  0  0  0  0  0  0  0
   15.2513  -19.2637   16.2301 O   0  0  0  0  0  0  0  0  0  0  0  0
   13.2290  -18.0831   16.8013 C   0  0  0  0  0  0  0  0  0  0  0  0
   12.8312  -16.6567   17.0306 C   0  0  0  0  0  0  0  0  0  0  0  0
   11.3702  -16.4212   17.2014 C   0  0  2  0  0  0  0  0  0  0  0  0
   10.9663  -15.5296   16.1024 N   0  0  0  0  0  0  0  0  0  0  0  0
   11.0804  -15.7021   18.4578 C   0  0  0  0  0  0  0  0  0  0  0  0
   12.0098  -15.0867   19.0278 O   0  0  0  0  0  0  0  0  0  0  0  0
    6.8405  -12.5530   19.3304 C   0  0  0  0  0  0  0  0  0  0  0  0
    8.2564  -13.0902   19.3760 C   0  0  0  0  0  0  0  0  0  0  0  0
    8.2653  -14.2427   20.3495 C   0  0  2  0  0  0  0  0  0  0  0  0
    8.0509  -13.7175   21.7549 C   0  0  0  0  0  0  0  0  0  0  0  0
    9.5569  -15.0074   20.3363 C   0  0  2  0  0  0  0  0  0  0  0  0
    9.7989  -15.6641   19.0677 N   0  0  0  0  0  0  0  0  0  0  0  0
    9.6718  -15.9625   21.4576 C   0  0  0  0  0  0  0  0  0  0  0  0
    9.0268  -17.0404   21.3931 O   0  0  0  0  0  0  0  0  0  0  0  0
   15.5958  -20.5889   23.7324 N   0  0  0  0  0  0  0  0  0  0  0  0
   15.0963  -20.9333   22.4412 C   0  0  0  0  0  0  0  0  0  0  0  0
   15.2610  -22.1184   22.0193 N   0  0  0  0  0  0  0  0  0  0  0  0
   14.4223  -19.9862   21.6198 N   0  0  0  0  0  0  0  0  0  0  0  0
   14.1855  -18.6664   22.1287 C   0  0  0  0  0  0  0  0  0  0  0  0
   12.7810  -18.4148   22.5463 C   0  0  0  0  0  0  0  0  0  0  0  0
   12.4385  -17.0512   23.0075 C   0  0  0  0  0  0  0  0  0  0  0  0
   11.0327  -16.7978   23.4094 C   0  0  2  0  0  0  0  0  0  0  0  0
   10.4640  -15.7229   22.5857 N   0  0  0  0  0  0  0  0  0  0  0  0
   10.7560  -16.6513   24.8318 C   0  0  0  0  0  0  0  0  0  0  0  0
   11.1370  -17.5231   25.6824 O   0  0  0  0  0  0  0  0  0  0  0  0
   10.0684  -15.5599   25.3368 O   0  0  0  0  0  0  0  0  0  0  0  0
  2  1  1  0
  2  3  2  0
  4  2  1  0
  5  4  1  0
  5  6  1  0
  6  7  1  6
  8  6  1  0
  8  9  2  0
 11 10  1  0
 12 11  1  0
 12 14  1  0
 12 13  1  1
 14 15  1  6
 15  8  1  0
 16 26  1  0
 16 14  1  0
 17 16  2  0
 18 19  1  0
 19 21  1  0
 20 19  2  0
 21 22  1  0
 22 23  1  0
 23 24  1  0
 25 24  1  1
 25 26  1  0
 25 27  1  0
 27 29  1  0
 28 27  2  0
M  END
$$$$
