QIR.pdb
     RDKit          3D

 29 28  0  0  1  0  0  0  0  0999 V2000
    7.0040  -12.9510   18.1929 N   0  0  0  0  0  0  0  0  0  0  0  0
    8.3631  -13.1232   18.5204 C   0  0  0  0  0  0  0  0  0  0  0  0
    9.2132  -12.4198   17.8880 O   0  0  0  0  0  0  0  0  0  0  0  0
    8.8190  -14.0960   19.5746 C   0  0  0  0  0  0  0  0  0  0  0  0
    7.6225  -14.7012   20.2437 C   0  0  0  0  0  0  0  0  0  0  0  0
    7.9233  -15.6695   21.3350 C   0  0  2  0  0  0  0  0  0  0  0  0
    6.6261  -16.2043   21.7791 N   0  0  0  0  0  0  0  0  0  0  0  0
    8.5269  -14.9989   22.5036 C   0  0  0  0  0  0  0  0  0  0  0  0
    9.6570  -14.4745   22.3799 O   0  0  0  0  0  0  0  0  0  0  0  0
    5.9239  -12.7362   27.0766 C   0  0  0  0  0  0  0  0  0  0  0  0
    6.3845  -13.6838   25.9880 C   0  0  0  0  0  0  0  0  0  0  0  0
    7.7666  -13.2462   25.5707 C   0  0  2  0  0  0  0  0  0  0  0  0
    7.6563  -12.1156   24.5675 C   0  0  0  0  0  0  0  0  0  0  0  0
    8.5607  -14.3498   24.9345 C   0  0  2  0  0  0  0  0  0  0  0  0
    7.8991  -14.9103   23.7738 N   0  0  0  0  0  0  0  0  0  0  0  0
    8.9415  -15.4099   25.8906 C   0  0  0  0  0  0  0  0  0  0  0  0
    8.1676  -16.3910   26.0345 O   0  0  0  0  0  0  0  0  0  0  0  0
   13.9894  -19.1981   23.3729 N   0  0  0  0  0  0  0  0  0  0  0  0
   14.4619  -20.0005   24.4537 C   0  0  0  0  0  0  0  0  0  0  0  0
   15.2606  -20.9537   24.2024 N   0  0  0  0  0  0  0  0  0  0  0  0
   14.0622  -19.7596   25.7983 N   0  0  0  0  0  0  0  0  0  0  0  0
   14.0140  -18.4094   26.2795 C   0  0  0  0  0  0  0  0  0  0  0  0
   12.7644  -18.0636   27.0068 C   0  0  0  0  0  0  0  0  0  0  0  0
   11.9954  -16.8937   26.5276 C   0  0  0  0  0  0  0  0  0  0  0  0
   10.7327  -16.5682   27.2356 C   0  0  2  0  0  0  0  0  0  0  0  0
   10.1213  -15.3720   26.6417 N   0  0  0  0  0  0  0  0  0  0  0  0
   10.7649  -16.5451   28.6916 C   0  0  0  0  0  0  0  0  0  0  0  0
   10.4967  -15.4864   29.3516 O   0  0  0  0  0  0  0  0  0  0  0  0
   11.0853  -17.6685   29.4361 O   0  0  0  0  0  0  0  0  0  0  0  0
  2  1  1  0
  2  3  2  0
  4  2  1  0
  5  4  1  0
  5  6  1  0
  6  7  1  1
  8  6  1  0
  8  9  2  0
 11 10  1  0
 12 11  1  0
 12 14  1  0
 12 13  1  6
 14 15  1  6
 15  8  1  0
 16 26  1  0
 16 14  1  0
 17 16  2  0
 18 19  1  0
 19 21  1  0
 20 19  2  0
 21 22  1  0
 22 23  1  0
 23 24  1  0
 25 24  1  6
 25 26  1  0
 25 27  1  0
 27 29  1  0
 28 27  2  0
M  END
$$$$
