QIR.pdb
     RDKit          3D

 29 28  0  0  1  0  0  0  0  0999 V2000
    4.7120  -20.9958   21.3535 N   0  0  0  0  0  0  0  0  0  0  0  0
    6.0864  -21.0982   21.6445 C   0  0  0  0  0  0  0  0  0  0  0  0
    6.4392  -21.9501   22.5204 O   0  0  0  0  0  0  0  0  0  0  0  0
    7.1190  -20.2439   20.9595 C   0  0  0  0  0  0  0  0  0  0  0  0
    6.4399  -19.3214   19.9935 C   0  0  0  0  0  0  0  0  0  0  0  0
    7.3430  -18.4006   19.2480 C   0  0  2  0  0  0  0  0  0  0  0  0
    8.4527  -19.2284   18.7487 N   0  0  0  0  0  0  0  0  0  0  0  0
    7.9396  -17.3867   20.1400 C   0  0  0  0  0  0  0  0  0  0  0  0
    9.0335  -17.6403   20.6937 O   0  0  0  0  0  0  0  0  0  0  0  0
    7.0075  -11.9375   19.6484 C   0  0  0  0  0  0  0  0  0  0  0  0
    7.7566  -13.2439   19.8136 C   0  0  0  0  0  0  0  0  0  0  0  0
    7.3978  -13.7954   21.1712 C   0  0  2  0  0  0  0  0  0  0  0  0
    8.0102  -12.9225   22.2482 C   0  0  0  0  0  0  0  0  0  0  0  0
    7.8910  -15.1977   21.3801 C   0  0  2  0  0  0  0  0  0  0  0  0
    7.3439  -16.1272   20.4127 N   0  0  0  0  0  0  0  0  0  0  0  0
    7.6791  -15.6829   22.7594 C   0  0  0  0  0  0  0  0  0  0  0  0
    6.5194  -16.0324   23.0986 O   0  0  0  0  0  0  0  0  0  0  0  0
    5.8685  -22.2269   25.7323 N   0  0  0  0  0  0  0  0  0  0  0  0
    6.2282  -21.7507   27.0282 C   0  0  0  0  0  0  0  0  0  0  0  0
    6.1456  -22.5444   28.0145 N   0  0  0  0  0  0  0  0  0  0  0  0
    6.6745  -20.4160   27.2404 N   0  0  0  0  0  0  0  0  0  0  0  0
    6.6351  -19.4864   26.1490 C   0  0  0  0  0  0  0  0  0  0  0  0
    7.8523  -18.6426   26.0200 C   0  0  0  0  0  0  0  0  0  0  0  0
    7.9619  -17.7783   24.8241 C   0  0  0  0  0  0  0  0  0  0  0  0
    8.5453  -16.4264   25.0080 C   0  0  2  0  0  0  0  0  0  0  0  0
    8.7079  -15.7710   23.7036 N   0  0  0  0  0  0  0  0  0  0  0  0
    9.7143  -16.3100   25.8690 C   0  0  0  0  0  0  0  0  0  0  0  0
   10.8736  -16.0635   25.3962 O   0  0  0  0  0  0  0  0  0  0  0  0
    9.6304  -16.4581   27.2438 O   0  0  0  0  0  0  0  0  0  0  0  0
  2  1  1  0
  2  3  2  0
  4  2  1  0
  5  4  1  0
  5  6  1  0
  6  7  1  1
  8  6  1  0
  8  9  2  0
 11 10  1  0
 12 11  1  0
 12 14  1  0
 12 13  1  1
 14 15  1  6
 15  8  1  0
 16 26  1  0
 16 14  1  0
 17 16  2  0
 18 19  1  0
 19 21  1  0
 20 19  2  0
 21 22  1  0
 22 23  1  0
 23 24  1  0
 25 24  1  6
 25 26  1  0
 25 27  1  0
 27 29  1  0
 28 27  2  0
M  END
$$$$
