QIR.pdb
     RDKit          3D

 29 28  0  0  1  0  0  0  0  0999 V2000
    9.5362  -13.6177   17.6941 N   0  0  0  0  0  0  0  0  0  0  0  0
    8.1637  -13.3016   17.6782 C   0  0  0  0  0  0  0  0  0  0  0  0
    7.5989  -13.1948   16.5438 O   0  0  0  0  0  0  0  0  0  0  0  0
    7.3721  -13.0927   18.9412 C   0  0  0  0  0  0  0  0  0  0  0  0
    8.2512  -13.3491   20.1273 C   0  0  0  0  0  0  0  0  0  0  0  0
    7.9107  -14.5610   20.9240 C   0  0  2  0  0  0  0  0  0  0  0  0
    6.4416  -14.6040   20.9993 N   0  0  0  0  0  0  0  0  0  0  0  0
    8.4025  -14.4530   22.3118 C   0  0  0  0  0  0  0  0  0  0  0  0
    9.6363  -14.3742   22.5093 O   0  0  0  0  0  0  0  0  0  0  0  0
    6.3123  -11.2517   25.9319 C   0  0  0  0  0  0  0  0  0  0  0  0
    7.2865  -12.0552   25.0950 C   0  0  0  0  0  0  0  0  0  0  0  0
    7.3421  -13.4430   25.6840 C   0  0  2  0  0  0  0  0  0  0  0  0
    8.0604  -13.3964   27.0177 C   0  0  0  0  0  0  0  0  0  0  0  0
    8.0664  -14.4210   24.8055 C   0  0  2  0  0  0  0  0  0  0  0  0
    7.5543  -14.4330   23.4502 N   0  0  0  0  0  0  0  0  0  0  0  0
    8.1017  -15.7857   25.3704 C   0  0  0  0  0  0  0  0  0  0  0  0
    7.2934  -16.6391   24.9225 O   0  0  0  0  0  0  0  0  0  0  0  0
   13.4726  -22.4177   23.4869 N   0  0  0  0  0  0  0  0  0  0  0  0
   12.8438  -21.1746   23.1794 C   0  0  0  0  0  0  0  0  0  0  0  0
   12.1332  -21.0930   22.1315 N   0  0  0  0  0  0  0  0  0  0  0  0
   12.9931  -20.0311   24.0136 N   0  0  0  0  0  0  0  0  0  0  0  0
   12.1995  -18.8664   23.7478 C   0  0  0  0  0  0  0  0  0  0  0  0
   10.9363  -18.7957   24.5284 C   0  0  0  0  0  0  0  0  0  0  0  0
   10.4951  -17.4631   24.9964 C   0  0  0  0  0  0  0  0  0  0  0  0
    9.8042  -17.3927   26.3077 C   0  0  2  0  0  0  0  0  0  0  0  0
    8.9916  -16.1712   26.3789 N   0  0  0  0  0  0  0  0  0  0  0  0
   10.6024  -17.6327   27.5021 C   0  0  0  0  0  0  0  0  0  0  0  0
   10.6597  -18.7837   28.0503 O   0  0  0  0  0  0  0  0  0  0  0  0
   11.3419  -16.6280   28.1043 O   0  0  0  0  0  0  0  0  0  0  0  0
  2  1  1  0
  2  3  2  0
  4  2  1  0
  5  4  1  0
  5  6  1  0
  6  7  1  1
  8  6  1  0
  8  9  2  0
 11 10  1  0
 12 11  1  0
 12 14  1  0
 12 13  1  1
 14 15  1  6
 15  8  1  0
 16 26  1  0
 16 14  1  0
 17 16  2  0
 18 19  1  0
 19 21  1  0
 20 19  2  0
 21 22  1  0
 22 23  1  0
 23 24  1  0
 25 24  1  6
 25 26  1  0
 25 27  1  0
 27 29  1  0
 28 27  2  0
M  END
$$$$
