QIR.pdb
     RDKit          3D

 29 28  0  0  1  0  0  0  0  0999 V2000
    9.0911  -16.8946   17.7594 N   0  0  0  0  0  0  0  0  0  0  0  0
    7.9793  -16.2249   17.2124 C   0  0  0  0  0  0  0  0  0  0  0  0
    7.5228  -16.6523   16.1049 O   0  0  0  0  0  0  0  0  0  0  0  0
    7.3368  -15.0456   17.8920 C   0  0  0  0  0  0  0  0  0  0  0  0
    8.0140  -14.7990   19.2058 C   0  0  0  0  0  0  0  0  0  0  0  0
    7.4299  -13.7035   20.0291 C   0  0  2  0  0  0  0  0  0  0  0  0
    7.7654  -12.4474   19.3394 N   0  0  0  0  0  0  0  0  0  0  0  0
    8.0581  -13.6343   21.3634 C   0  0  0  0  0  0  0  0  0  0  0  0
    9.2017  -13.1351   21.4656 O   0  0  0  0  0  0  0  0  0  0  0  0
    5.5055  -12.3978   26.0439 C   0  0  0  0  0  0  0  0  0  0  0  0
    6.5254  -12.4639   24.9256 C   0  0  0  0  0  0  0  0  0  0  0  0
    7.1513  -13.8357   24.9728 C   0  0  2  0  0  0  0  0  0  0  0  0
    7.9205  -13.9948   26.2689 C   0  0  0  0  0  0  0  0  0  0  0  0
    8.1041  -14.0815   23.8393 C   0  0  2  0  0  0  0  0  0  0  0  0
    7.4396  -14.1038   22.5520 N   0  0  0  0  0  0  0  0  0  0  0  0
    8.9271  -15.2933   24.0316 C   0  0  0  0  0  0  0  0  0  0  0  0
    8.3480  -16.4093   24.0693 O   0  0  0  0  0  0  0  0  0  0  0  0
   16.8532  -16.8285   21.1124 N   0  0  0  0  0  0  0  0  0  0  0  0
   15.9337  -15.7485   21.2646 C   0  0  0  0  0  0  0  0  0  0  0  0
   15.9447  -14.8124   20.4083 N   0  0  0  0  0  0  0  0  0  0  0  0
   15.0102  -15.6955   22.3463 N   0  0  0  0  0  0  0  0  0  0  0  0
   14.9017  -16.8233   23.2256 C   0  0  0  0  0  0  0  0  0  0  0  0
   13.5045  -17.2099   23.5549 C   0  0  0  0  0  0  0  0  0  0  0  0
   12.4814  -16.1409   23.5570 C   0  0  0  0  0  0  0  0  0  0  0  0
   11.1596  -16.4600   24.1510 C   0  0  2  0  0  0  0  0  0  0  0  0
   10.3185  -15.2560   24.1734 N   0  0  0  0  0  0  0  0  0  0  0  0
   11.1470  -17.2037   25.4032 C   0  0  0  0  0  0  0  0  0  0  0  0
   10.8078  -16.6564   26.5050 O   0  0  0  0  0  0  0  0  0  0  0  0
   11.4996  -18.5420   25.4651 O   0  0  0  0  0  0  0  0  0  0  0  0
  2  1  1  0
  2  3  2  0
  4  2  1  0
  5  4  1  0
  5  6  1  0
  6  7  1  6
  8  6  1  0
  8  9  2  0
 11 10  1  0
 12 11  1  0
 12 14  1  0
 12 13  1  1
 14 15  1  6
 15  8  1  0
 16 26  1  0
 16 14  1  0
 17 16  2  0
 18 19  1  0
 19 21  1  0
 20 19  2  0
 21 22  1  0
 22 23  1  0
 23 24  1  0
 25 24  1  1
 25 26  1  0
 25 27  1  0
 27 29  1  0
 28 27  2  0
M  END
$$$$
