QIR.pdb
     RDKit          3D

 29 28  0  0  1  0  0  0  0  0999 V2000
   11.9367  -20.6976   18.9240 N   0  0  0  0  0  0  0  0  0  0  0  0
   11.3297  -21.1326   17.7298 C   0  0  0  0  0  0  0  0  0  0  0  0
   11.8457  -22.1339   17.1395 O   0  0  0  0  0  0  0  0  0  0  0  0
   10.1157  -20.4557   17.1522 C   0  0  0  0  0  0  0  0  0  0  0  0
    9.5603  -19.4903   18.1548 C   0  0  0  0  0  0  0  0  0  0  0  0
    9.3504  -18.1024   17.6559 C   0  0  2  0  0  0  0  0  0  0  0  0
   10.3083  -17.9121   16.5549 N   0  0  0  0  0  0  0  0  0  0  0  0
    9.6856  -17.0996   18.6863 C   0  0  0  0  0  0  0  0  0  0  0  0
   10.8563  -16.6590   18.7399 O   0  0  0  0  0  0  0  0  0  0  0  0
    6.4452  -12.9377   20.2319 C   0  0  0  0  0  0  0  0  0  0  0  0
    7.6743  -13.7264   19.8292 C   0  0  0  0  0  0  0  0  0  0  0  0
    7.9796  -14.6829   20.9552 C   0  0  2  0  0  0  0  0  0  0  0  0
    8.3605  -13.8980   22.1944 C   0  0  0  0  0  0  0  0  0  0  0  0
    9.1105  -15.6171   20.6366 C   0  0  2  0  0  0  0  0  0  0  0  0
    8.7529  -16.5975   19.6317 N   0  0  0  0  0  0  0  0  0  0  0  0
    9.6735  -16.2696   21.8366 C   0  0  0  0  0  0  0  0  0  0  0  0
    9.0195  -17.2005   22.3731 O   0  0  0  0  0  0  0  0  0  0  0  0
   18.1347  -16.5935   24.4690 N   0  0  0  0  0  0  0  0  0  0  0  0
   17.3547  -16.8013   23.2927 C   0  0  0  0  0  0  0  0  0  0  0  0
   17.9352  -16.7840   22.1647 N   0  0  0  0  0  0  0  0  0  0  0  0
   15.9506  -17.0260   23.3529 N   0  0  0  0  0  0  0  0  0  0  0  0
   15.2559  -16.7689   24.5810 C   0  0  0  0  0  0  0  0  0  0  0  0
   13.8016  -17.0744   24.5366 C   0  0  0  0  0  0  0  0  0  0  0  0
   12.9990  -16.4279   23.4749 C   0  0  0  0  0  0  0  0  0  0  0  0
   11.5308  -16.6410   23.5016 C   0  0  2  0  0  0  0  0  0  0  0  0
   10.8987  -15.8999   22.4022 N   0  0  0  0  0  0  0  0  0  0  0  0
   10.8512  -16.4806   24.7798 C   0  0  0  0  0  0  0  0  0  0  0  0
   11.0362  -17.2952   25.7445 O   0  0  0  0  0  0  0  0  0  0  0  0
    9.9717  -15.4370   25.0171 O   0  0  0  0  0  0  0  0  0  0  0  0
  2  1  1  0
  2  3  2  0
  4  2  1  0
  5  4  1  0
  5  6  1  0
  6  7  1  6
  8  6  1  0
  8  9  2  0
 11 10  1  0
 12 11  1  0
 12 14  1  0
 12 13  1  1
 14 15  1  6
 15  8  1  0
 16 26  1  0
 16 14  1  0
 17 16  2  0
 18 19  1  0
 19 21  1  0
 20 19  2  0
 21 22  1  0
 22 23  1  0
 23 24  1  0
 25 24  1  1
 25 26  1  0
 25 27  1  0
 27 29  1  0
 28 27  2  0
M  END
$$$$
