QIR.pdb
     RDKit          3D

 29 28  0  0  1  0  0  0  0  0999 V2000
    7.8804  -17.2659   18.5478 N   0  0  0  0  0  0  0  0  0  0  0  0
    6.6189  -17.6091   19.0723 C   0  0  0  0  0  0  0  0  0  0  0  0
    5.7871  -18.1632   18.2859 O   0  0  0  0  0  0  0  0  0  0  0  0
    6.2440  -17.3410   20.5051 C   0  0  0  0  0  0  0  0  0  0  0  0
    7.4350  -16.8032   21.2386 C   0  0  0  0  0  0  0  0  0  0  0  0
    7.4149  -15.3367   21.4998 C   0  0  2  0  0  0  0  0  0  0  0  0
    8.2115  -14.7174   20.4285 N   0  0  0  0  0  0  0  0  0  0  0  0
    8.0854  -15.0036   22.7722 C   0  0  0  0  0  0  0  0  0  0  0  0
    9.3272  -15.1413   22.8527 O   0  0  0  0  0  0  0  0  0  0  0  0
    5.9905  -11.2901   26.1933 C   0  0  0  0  0  0  0  0  0  0  0  0
    7.0437  -12.0065   25.3731 C   0  0  0  0  0  0  0  0  0  0  0  0
    7.3226  -13.3223   26.0563 C   0  0  2  0  0  0  0  0  0  0  0  0
    8.1521  -13.0785   27.3010 C   0  0  0  0  0  0  0  0  0  0  0  0
    8.0745  -14.2848   25.1837 C   0  0  2  0  0  0  0  0  0  0  0  0
    7.4027  -14.5315   23.9240 N   0  0  0  0  0  0  0  0  0  0  0  0
    8.3962  -15.5531   25.8697 C   0  0  0  0  0  0  0  0  0  0  0  0
    7.4749  -16.3931   26.0361 O   0  0  0  0  0  0  0  0  0  0  0  0
   14.7890  -19.2905   25.5922 N   0  0  0  0  0  0  0  0  0  0  0  0
   14.3876  -20.5714   26.0753 C   0  0  0  0  0  0  0  0  0  0  0  0
   15.2790  -21.3759   26.4849 N   0  0  0  0  0  0  0  0  0  0  0  0
   13.0206  -20.9665   26.1090 N   0  0  0  0  0  0  0  0  0  0  0  0
   12.0374  -20.1274   25.4876 C   0  0  0  0  0  0  0  0  0  0  0  0
   11.2375  -19.3137   26.4405 C   0  0  0  0  0  0  0  0  0  0  0  0
   10.7673  -17.9881   25.9808 C   0  0  0  0  0  0  0  0  0  0  0  0
   10.0168  -17.1539   26.9517 C   0  0  2  0  0  0  0  0  0  0  0  0
    9.6767  -15.8617   26.3417 N   0  0  0  0  0  0  0  0  0  0  0  0
   10.5583  -17.0384   28.2988 C   0  0  0  0  0  0  0  0  0  0  0  0
   11.0749  -15.9514   28.7231 O   0  0  0  0  0  0  0  0  0  0  0  0
   10.5399  -18.0987   29.1902 O   0  0  0  0  0  0  0  0  0  0  0  0
  2  1  1  0
  2  3  2  0
  4  2  1  0
  5  4  1  0
  5  6  1  0
  6  7  1  6
  8  6  1  0
  8  9  2  0
 11 10  1  0
 12 11  1  0
 12 14  1  0
 12 13  1  1
 14 15  1  6
 15  8  1  0
 16 26  1  0
 16 14  1  0
 17 16  2  0
 18 19  1  0
 19 21  1  0
 20 19  2  0
 21 22  1  0
 22 23  1  0
 23 24  1  0
 25 24  1  6
 25 26  1  0
 25 27  1  0
 27 29  1  0
 28 27  2  0
M  END
$$$$
