QIR.pdb
     RDKit          3D

 29 28  0  0  1  0  0  0  0  0999 V2000
    7.2956  -17.0298   19.3128 N   0  0  0  0  0  0  0  0  0  0  0  0
    7.3438  -15.9340   18.4290 C   0  0  0  0  0  0  0  0  0  0  0  0
    7.2613  -16.1797   17.1840 O   0  0  0  0  0  0  0  0  0  0  0  0
    7.4873  -14.5162   18.9135 C   0  0  0  0  0  0  0  0  0  0  0  0
    7.4681  -14.4982   20.4118 C   0  0  0  0  0  0  0  0  0  0  0  0
    7.3286  -13.1510   21.0321 C   0  0  2  0  0  0  0  0  0  0  0  0
    8.2871  -12.2771   20.3368 N   0  0  0  0  0  0  0  0  0  0  0  0
    7.7242  -13.1656   22.4544 C   0  0  0  0  0  0  0  0  0  0  0  0
    8.8570  -12.7352   22.7691 O   0  0  0  0  0  0  0  0  0  0  0  0
    6.3392  -11.0163   26.1682 C   0  0  0  0  0  0  0  0  0  0  0  0
    5.4505  -12.1027   25.5980 C   0  0  0  0  0  0  0  0  0  0  0  0
    6.1511  -13.4189   25.8279 C   0  0  2  0  0  0  0  0  0  0  0  0
    6.6911  -13.4624   27.2433 C   0  0  0  0  0  0  0  0  0  0  0  0
    7.3020  -13.6387   24.8896 C   0  0  2  0  0  0  0  0  0  0  0  0
    6.8911  -13.6428   23.5003 N   0  0  0  0  0  0  0  0  0  0  0  0
    8.0860  -14.8483   25.2137 C   0  0  0  0  0  0  0  0  0  0  0  0
    8.4569  -15.0192   26.4033 O   0  0  0  0  0  0  0  0  0  0  0  0
   12.9898  -20.2180   20.3503 N   0  0  0  0  0  0  0  0  0  0  0  0
   12.7539  -21.0181   21.5077 C   0  0  0  0  0  0  0  0  0  0  0  0
   13.3817  -22.1138   21.6303 N   0  0  0  0  0  0  0  0  0  0  0  0
   11.8377  -20.6202   22.5215 N   0  0  0  0  0  0  0  0  0  0  0  0
   11.0955  -19.4047   22.3518 C   0  0  0  0  0  0  0  0  0  0  0  0
   10.1902  -19.0776   23.4847 C   0  0  0  0  0  0  0  0  0  0  0  0
    9.3636  -17.8558   23.3690 C   0  0  0  0  0  0  0  0  0  0  0  0
    9.2294  -17.0037   24.5763 C   0  0  2  0  0  0  0  0  0  0  0  0
    8.4339  -15.8103   24.2592 N   0  0  0  0  0  0  0  0  0  0  0  0
   10.4399  -16.7137   25.3327 C   0  0  0  0  0  0  0  0  0  0  0  0
   11.1551  -15.6862   25.0856 O   0  0  0  0  0  0  0  0  0  0  0  0
   10.8774  -17.5342   26.3595 O   0  0  0  0  0  0  0  0  0  0  0  0
  2  1  1  0
  2  3  2  0
  4  2  1  0
  5  4  1  0
  5  6  1  0
  6  7  1  6
  8  6  1  0
  8  9  2  0
 11 10  1  0
 12 11  1  0
 12 14  1  0
 12 13  1  1
 14 15  1  6
 15  8  1  0
 16 26  1  0
 16 14  1  0
 17 16  2  0
 18 19  1  0
 19 21  1  0
 20 19  2  0
 21 22  1  0
 22 23  1  0
 23 24  1  0
 25 24  1  6
 25 26  1  0
 25 27  1  0
 27 29  1  0
 28 27  2  0
M  END
$$$$
