QIR.pdb
     RDKit          3D

 29 28  0  0  1  0  0  0  0  0999 V2000
    7.2312  -20.7167   18.8638 N   0  0  0  0  0  0  0  0  0  0  0  0
    6.1087  -21.5015   19.1925 C   0  0  0  0  0  0  0  0  0  0  0  0
    5.6816  -22.3133   18.3116 O   0  0  0  0  0  0  0  0  0  0  0  0
    5.4219  -21.4027   20.5281 C   0  0  0  0  0  0  0  0  0  0  0  0
    6.1915  -20.4722   21.4155 C   0  0  0  0  0  0  0  0  0  0  0  0
    5.6414  -20.2994   22.7891 C   0  0  2  0  0  0  0  0  0  0  0  0
    4.2381  -19.8888   22.6211 N   0  0  0  0  0  0  0  0  0  0  0  0
    6.3192  -19.2041   23.5106 C   0  0  0  0  0  0  0  0  0  0  0  0
    5.9045  -18.0331   23.3550 O   0  0  0  0  0  0  0  0  0  0  0  0
    8.0208  -18.9450   28.5543 C   0  0  0  0  0  0  0  0  0  0  0  0
    7.4762  -18.6863   27.1644 C   0  0  0  0  0  0  0  0  0  0  0  0
    8.6578  -18.4245   26.2637 C   0  0  2  0  0  0  0  0  0  0  0  0
    9.3262  -17.1273   26.6728 C   0  0  0  0  0  0  0  0  0  0  0  0
    8.2742  -18.3081   24.8172 C   0  0  2  0  0  0  0  0  0  0  0  0
    7.4248  -19.3974   24.3799 N   0  0  0  0  0  0  0  0  0  0  0  0
    9.4401  -18.1538   23.9230 C   0  0  0  0  0  0  0  0  0  0  0  0
    9.5008  -18.8702   22.8909 O   0  0  0  0  0  0  0  0  0  0  0  0
    6.6888  -14.6374   19.2087 N   0  0  0  0  0  0  0  0  0  0  0  0
    7.9120  -14.1337   18.6746 C   0  0  0  0  0  0  0  0  0  0  0  0
    8.0567  -14.0926   17.4149 N   0  0  0  0  0  0  0  0  0  0  0  0
    8.9671  -13.6788   19.5146 N   0  0  0  0  0  0  0  0  0  0  0  0
    8.8629  -13.8742   20.9316 C   0  0  0  0  0  0  0  0  0  0  0  0
   10.0340  -14.5563   21.5428 C   0  0  0  0  0  0  0  0  0  0  0  0
    9.7687  -15.5463   22.6099 C   0  0  0  0  0  0  0  0  0  0  0  0
   10.9348  -16.2616   23.1849 C   0  0  2  0  0  0  0  0  0  0  0  0
   10.4779  -17.2489   24.1717 N   0  0  0  0  0  0  0  0  0  0  0  0
   12.0586  -15.4562   23.6428 C   0  0  0  0  0  0  0  0  0  0  0  0
   11.9970  -14.7670   24.7152 O   0  0  0  0  0  0  0  0  0  0  0  0
   13.2522  -15.3968   22.9422 O   0  0  0  0  0  0  0  0  0  0  0  0
  2  1  1  0
  2  3  2  0
  4  2  1  0
  5  4  1  0
  5  6  1  0
  6  7  1  6
  8  6  1  0
  8  9  2  0
 11 10  1  0
 12 11  1  0
 12 14  1  0
 12 13  1  1
 14 15  1  6
 15  8  1  0
 16 26  1  0
 16 14  1  0
 17 16  2  0
 18 19  1  0
 19 21  1  0
 20 19  2  0
 21 22  1  0
 22 23  1  0
 23 24  1  0
 25 24  1  1
 25 26  1  0
 25 27  1  0
 27 29  1  0
 28 27  2  0
M  END
$$$$
