QIR.pdb
     RDKit          3D

 29 28  0  0  1  0  0  0  0  0999 V2000
    5.6295  -17.9494   19.2154 N   0  0  0  0  0  0  0  0  0  0  0  0
    6.9399  -17.4486   19.0887 C   0  0  0  0  0  0  0  0  0  0  0  0
    7.8973  -18.2814   19.1724 O   0  0  0  0  0  0  0  0  0  0  0  0
    7.2240  -15.9880   18.8624 C   0  0  0  0  0  0  0  0  0  0  0  0
    7.9616  -15.4359   20.0442 C   0  0  0  0  0  0  0  0  0  0  0  0
    7.3174  -14.2697   20.7107 C   0  0  2  0  0  0  0  0  0  0  0  0
    7.5993  -13.1025   19.8597 N   0  0  0  0  0  0  0  0  0  0  0  0
    7.9279  -13.9916   22.0258 C   0  0  0  0  0  0  0  0  0  0  0  0
    9.0887  -13.5240   22.0644 O   0  0  0  0  0  0  0  0  0  0  0  0
    5.7374  -11.5359   26.2342 C   0  0  0  0  0  0  0  0  0  0  0  0
    6.7223  -12.0294   25.1943 C   0  0  0  0  0  0  0  0  0  0  0  0
    7.1128  -13.4344   25.5807 C   0  0  2  0  0  0  0  0  0  0  0  0
    7.9087  -13.4001   26.8700 C   0  0  0  0  0  0  0  0  0  0  0  0
    7.9536  -14.1136   24.5391 C   0  0  2  0  0  0  0  0  0  0  0  0
    7.2740  -14.2241   23.2643 N   0  0  0  0  0  0  0  0  0  0  0  0
    8.4680  -15.4263   24.9807 C   0  0  0  0  0  0  0  0  0  0  0  0
    7.6421  -16.3501   25.1965 O   0  0  0  0  0  0  0  0  0  0  0  0
   14.3675  -19.1673   21.3975 N   0  0  0  0  0  0  0  0  0  0  0  0
   14.0918  -20.1868   22.3566 C   0  0  0  0  0  0  0  0  0  0  0  0
   13.8807  -21.3689   21.9470 N   0  0  0  0  0  0  0  0  0  0  0  0
   14.0482  -19.9125   23.7525 N   0  0  0  0  0  0  0  0  0  0  0  0
   13.7156  -18.5885   24.1922 C   0  0  0  0  0  0  0  0  0  0  0  0
   12.3756  -18.4729   24.8255 C   0  0  0  0  0  0  0  0  0  0  0  0
   11.6475  -17.1957   24.6574 C   0  0  0  0  0  0  0  0  0  0  0  0
   10.3641  -17.0389   25.3855 C   0  0  2  0  0  0  0  0  0  0  0  0
    9.8294  -15.6880   25.1695 N   0  0  0  0  0  0  0  0  0  0  0  0
   10.3239  -17.4665   26.7772 C   0  0  0  0  0  0  0  0  0  0  0  0
   10.1039  -16.6420   27.7261 O   0  0  0  0  0  0  0  0  0  0  0  0
   10.5196  -18.7877   27.1446 O   0  0  0  0  0  0  0  0  0  0  0  0
  2  1  1  0
  2  3  2  0
  4  2  1  0
  5  4  1  0
  5  6  1  0
  6  7  1  6
  8  6  1  0
  8  9  2  0
 11 10  1  0
 12 11  1  0
 12 14  1  0
 12 13  1  1
 14 15  1  6
 15  8  1  0
 16 26  1  0
 16 14  1  0
 17 16  2  0
 18 19  1  0
 19 21  1  0
 20 19  2  0
 21 22  1  0
 22 23  1  0
 23 24  1  0
 25 24  1  1
 25 26  1  0
 25 27  1  0
 27 29  1  0
 28 27  2  0
M  END
$$$$
