QIR.pdb
     RDKit          3D

 29 28  0  0  1  0  0  0  0  0999 V2000
    5.9077  -13.2314   18.5091 N   0  0  0  0  0  0  0  0  0  0  0  0
    7.2971  -13.4612   18.4813 C   0  0  0  0  0  0  0  0  0  0  0  0
    8.0336  -12.5476   17.9913 O   0  0  0  0  0  0  0  0  0  0  0  0
    7.9125  -14.7310   19.0050 C   0  0  0  0  0  0  0  0  0  0  0  0
    8.4719  -14.4851   20.3733 C   0  0  0  0  0  0  0  0  0  0  0  0
    7.9166  -15.3469   21.4541 C   0  0  2  0  0  0  0  0  0  0  0  0
    6.4804  -15.0352   21.5312 N   0  0  0  0  0  0  0  0  0  0  0  0
    8.4946  -15.0067   22.7694 C   0  0  0  0  0  0  0  0  0  0  0  0
    9.7297  -15.1286   22.9343 O   0  0  0  0  0  0  0  0  0  0  0  0
    6.5033  -11.1854   26.0378 C   0  0  0  0  0  0  0  0  0  0  0  0
    7.5268  -12.0327   25.3102 C   0  0  0  0  0  0  0  0  0  0  0  0
    7.5879  -13.3640   26.0171 C   0  0  2  0  0  0  0  0  0  0  0  0
    8.3456  -13.2088   27.3204 C   0  0  0  0  0  0  0  0  0  0  0  0
    8.2774  -14.4234   25.2075 C   0  0  2  0  0  0  0  0  0  0  0  0
    7.7289  -14.5448   23.8720 N   0  0  0  0  0  0  0  0  0  0  0  0
    8.3131  -15.7349   25.8867 C   0  0  0  0  0  0  0  0  0  0  0  0
    7.2367  -16.3740   26.0094 O   0  0  0  0  0  0  0  0  0  0  0  0
   12.0253  -19.8214   21.5896 N   0  0  0  0  0  0  0  0  0  0  0  0
   13.0786  -19.7616   22.5499 C   0  0  0  0  0  0  0  0  0  0  0  0
   14.2761  -19.6846   22.1381 N   0  0  0  0  0  0  0  0  0  0  0  0
   12.8209  -19.7860   23.9495 N   0  0  0  0  0  0  0  0  0  0  0  0
   11.4623  -19.7610   24.4082 C   0  0  0  0  0  0  0  0  0  0  0  0
   11.1829  -18.7241   25.4363 C   0  0  0  0  0  0  0  0  0  0  0  0
    9.8099  -18.6562   25.9837 C   0  0  0  0  0  0  0  0  0  0  0  0
    9.5358  -17.6282   27.0181 C   0  0  2  0  0  0  0  0  0  0  0  0
    9.4876  -16.2972   26.3988 N   0  0  0  0  0  0  0  0  0  0  0  0
   10.3283  -17.6750   28.2392 C   0  0  0  0  0  0  0  0  0  0  0  0
   10.4207  -18.7385   28.9384 O   0  0  0  0  0  0  0  0  0  0  0  0
   11.0242  -16.5714   28.7048 O   0  0  0  0  0  0  0  0  0  0  0  0
  2  1  1  0
  2  3  2  0
  4  2  1  0
  5  4  1  0
  5  6  1  0
  6  7  1  1
  8  6  1  0
  8  9  2  0
 11 10  1  0
 12 11  1  0
 12 14  1  0
 12 13  1  1
 14 15  1  6
 15  8  1  0
 16 26  1  0
 16 14  1  0
 17 16  2  0
 18 19  1  0
 19 21  1  0
 20 19  2  0
 21 22  1  0
 22 23  1  0
 23 24  1  0
 25 24  1  6
 25 26  1  0
 25 27  1  0
 27 29  1  0
 28 27  2  0
M  END
$$$$
