QIR.pdb
     RDKit          3D

 29 28  0  0  1  0  0  0  0  0999 V2000
    7.7346  -17.1932   18.4117 N   0  0  0  0  0  0  0  0  0  0  0  0
    6.8819  -17.1499   19.5319 C   0  0  0  0  0  0  0  0  0  0  0  0
    6.1817  -18.1828   19.7772 O   0  0  0  0  0  0  0  0  0  0  0  0
    6.7839  -15.9396   20.4213 C   0  0  0  0  0  0  0  0  0  0  0  0
    7.6170  -14.8331   19.8492 C   0  0  0  0  0  0  0  0  0  0  0  0
    7.5657  -13.5446   20.5950 C   0  0  2  0  0  0  0  0  0  0  0  0
    8.5151  -12.6428   19.9233 N   0  0  0  0  0  0  0  0  0  0  0  0
    8.0423  -13.7026   21.9834 C   0  0  0  0  0  0  0  0  0  0  0  0
    9.2738  -13.7904   22.1912 O   0  0  0  0  0  0  0  0  0  0  0  0
    6.1302  -10.7285   25.9098 C   0  0  0  0  0  0  0  0  0  0  0  0
    7.0095  -11.5175   24.9613 C   0  0  0  0  0  0  0  0  0  0  0  0
    6.9817  -12.9550   25.4185 C   0  0  2  0  0  0  0  0  0  0  0  0
    7.6679  -13.0694   26.7649 C   0  0  0  0  0  0  0  0  0  0  0  0
    7.6784  -13.8834   24.4667 C   0  0  2  0  0  0  0  0  0  0  0  0
    7.1818  -13.7620   23.1111 N   0  0  0  0  0  0  0  0  0  0  0  0
    7.6555  -15.2909   24.9151 C   0  0  0  0  0  0  0  0  0  0  0  0
    6.8583  -16.0846   24.3525 O   0  0  0  0  0  0  0  0  0  0  0  0
   10.6429  -18.9618   20.2981 N   0  0  0  0  0  0  0  0  0  0  0  0
   11.6265  -19.6211   21.0939 C   0  0  0  0  0  0  0  0  0  0  0  0
   11.9780  -20.7985   20.7780 N   0  0  0  0  0  0  0  0  0  0  0  0
   12.2193  -18.9946   22.2262 N   0  0  0  0  0  0  0  0  0  0  0  0
   11.6449  -17.7816   22.7315 C   0  0  0  0  0  0  0  0  0  0  0  0
   10.8570  -17.9520   23.9807 C   0  0  0  0  0  0  0  0  0  0  0  0
   10.1988  -16.7521   24.5433 C   0  0  0  0  0  0  0  0  0  0  0  0
    9.3715  -16.9335   25.7617 C   0  0  2  0  0  0  0  0  0  0  0  0
    8.4787  -15.7801   25.9353 N   0  0  0  0  0  0  0  0  0  0  0  0
   10.0545  -17.3317   26.9850 C   0  0  0  0  0  0  0  0  0  0  0  0
   10.3616  -18.5487   27.2158 O   0  0  0  0  0  0  0  0  0  0  0  0
   10.4084  -16.4133   27.9598 O   0  0  0  0  0  0  0  0  0  0  0  0
  2  1  1  0
  2  3  2  0
  4  2  1  0
  5  4  1  0
  5  6  1  0
  6  7  1  6
  8  6  1  0
  8  9  2  0
 11 10  1  0
 12 11  1  0
 12 14  1  0
 12 13  1  1
 14 15  1  6
 15  8  1  0
 16 26  1  0
 16 14  1  0
 17 16  2  0
 18 19  1  0
 19 21  1  0
 20 19  2  0
 21 22  1  0
 22 23  1  0
 23 24  1  0
 25 24  1  6
 25 26  1  0
 25 27  1  0
 27 29  1  0
 28 27  2  0
M  END
$$$$
