QIR.pdb
     RDKit          3D

 29 28  0  0  1  0  0  0  0  0999 V2000
    4.9440  -17.0567   20.6004 N   0  0  0  0  0  0  0  0  0  0  0  0
    6.0565  -17.5273   19.8759 C   0  0  0  0  0  0  0  0  0  0  0  0
    6.0912  -18.7666   19.5926 O   0  0  0  0  0  0  0  0  0  0  0  0
    7.1755  -16.6192   19.4416 C   0  0  0  0  0  0  0  0  0  0  0  0
    7.8545  -16.0528   20.6514 C   0  0  0  0  0  0  0  0  0  0  0  0
    7.2942  -14.7674   21.1544 C   0  0  2  0  0  0  0  0  0  0  0  0
    7.7647  -13.7239   20.2293 N   0  0  0  0  0  0  0  0  0  0  0  0
    7.8322  -14.4259   22.4862 C   0  0  0  0  0  0  0  0  0  0  0  0
    8.9966  -13.9729   22.5674 O   0  0  0  0  0  0  0  0  0  0  0  0
    7.3175  -11.2801   25.5835 C   0  0  0  0  0  0  0  0  0  0  0  0
    6.2254  -12.3067   25.3632 C   0  0  0  0  0  0  0  0  0  0  0  0
    6.7261  -13.6171   25.9184 C   0  0  2  0  0  0  0  0  0  0  0  0
    7.4434  -13.3680   27.2300 C   0  0  0  0  0  0  0  0  0  0  0  0
    7.6834  -14.3138   24.9956 C   0  0  2  0  0  0  0  0  0  0  0  0
    7.1039  -14.5810   23.6949 N   0  0  0  0  0  0  0  0  0  0  0  0
    8.2573  -15.5424   25.5822 C   0  0  0  0  0  0  0  0  0  0  0  0
    7.4720  -16.3944   26.0716 O   0  0  0  0  0  0  0  0  0  0  0  0
   10.1089  -20.0190   22.1452 N   0  0  0  0  0  0  0  0  0  0  0  0
   11.1316  -19.2156   21.5587 C   0  0  0  0  0  0  0  0  0  0  0  0
   10.9597  -18.7718   20.3826 N   0  0  0  0  0  0  0  0  0  0  0  0
   12.3321  -18.9017   22.2558 N   0  0  0  0  0  0  0  0  0  0  0  0
   12.2944  -18.7684   23.6832 C   0  0  0  0  0  0  0  0  0  0  0  0
   11.4720  -17.6295   24.1696 C   0  0  0  0  0  0  0  0  0  0  0  0
   11.4959  -17.3390   25.6203 C   0  0  0  0  0  0  0  0  0  0  0  0
   10.2089  -16.9845   26.2684 C   0  0  2  0  0  0  0  0  0  0  0  0
    9.6319  -15.8006   25.6181 N   0  0  0  0  0  0  0  0  0  0  0  0
   10.1837  -16.9214   27.7233 C   0  0  0  0  0  0  0  0  0  0  0  0
   10.2868  -15.8137   28.3484 O   0  0  0  0  0  0  0  0  0  0  0  0
   10.0445  -18.0570   28.5044 O   0  0  0  0  0  0  0  0  0  0  0  0
  2  1  1  0
  2  3  2  0
  4  2  1  0
  5  4  1  0
  5  6  1  0
  6  7  1  6
  8  6  1  0
  8  9  2  0
 11 10  1  0
 12 11  1  0
 12 14  1  0
 12 13  1  1
 14 15  1  6
 15  8  1  0
 16 26  1  0
 16 14  1  0
 17 16  2  0
 18 19  1  0
 19 21  1  0
 20 19  2  0
 21 22  1  0
 22 23  1  0
 23 24  1  0
 25 24  1  6
 25 26  1  0
 25 27  1  0
 27 29  1  0
 28 27  2  0
M  END
$$$$
