MAC.pdb
     RDKit          3D

 20 19  0  0  1  0  0  0  0  0999 V2000
    6.8328  -20.2498   28.4265 C   0  0  0  0  0  0  0  0  0  0  0  0
    6.5480  -21.4617   27.0897 S   0  0  0  0  0  0  0  0  0  0  0  0
    6.2425  -20.5527   25.5828 C   0  0  0  0  0  0  0  0  0  0  0  0
    7.1122  -19.3432   25.4080 C   0  0  0  0  0  0  0  0  0  0  0  0
    6.7023  -18.4654   24.2576 C   0  0  2  0  0  0  0  0  0  0  0  0
    7.0093  -19.0367   22.9889 N   0  0  0  0  0  0  0  0  0  0  0  0
    7.2931  -17.1274   24.4801 C   0  0  0  0  0  0  0  0  0  0  0  0
    8.4871  -16.9771   24.0867 O   0  0  0  0  0  0  0  0  0  0  0  0
    6.3676  -13.7847   25.7657 C   0  0  0  0  0  0  0  0  0  0  0  0
    7.4032  -14.8695   25.4429 C   0  0  2  0  0  0  0  0  0  0  0  0
    6.6486  -16.0464   25.0762 N   0  0  0  0  0  0  0  0  0  0  0  0
    8.2591  -15.1462   26.6127 C   0  0  0  0  0  0  0  0  0  0  0  0
    7.9086  -15.9283   27.5495 O   0  0  0  0  0  0  0  0  0  0  0  0
    9.5310  -14.5239   26.7170 N   0  0  0  0  0  0  0  0  0  0  0  0
   10.4390  -14.8153   27.7862 C   0  0  1  0  0  0  0  0  0  0  0  0
   11.8520  -14.3684   27.4906 C   0  0  0  0  0  0  0  0  0  0  0  0
   12.3360  -14.9389   25.8440 S   0  0  0  0  0  0  0  0  0  0  0  0
    9.9517  -14.1763   29.0376 C   0  0  0  0  0  0  0  0  0  0  0  0
   10.4773  -14.5121   30.2869 O   0  0  0  0  0  0  0  0  0  0  0  0
    9.0427  -13.3080   28.9908 O   0  0  0  0  0  0  0  0  0  0  0  0
  2  1  1  0
  3  2  1  0
  4  5  1  0
  4  3  1  0
  5  6  1  6
  7 11  1  0
  7  5  1  0
  8  7  2  0
 10  9  1  1
 10 11  1  0
 12 10  1  0
 12 14  1  0
 13 12  2  0
 15 14  1  0
 15 16  1  6
 16 17  1  0
 18 15  1  0
 19 18  1  0
 20 18  2  0
M  END
$$$$
