MAC.pdb
     RDKit          3D

 20 19  0  0  1  0  0  0  0  0999 V2000
    7.4757  -12.2840   27.1824 C   0  0  0  0  0  0  0  0  0  0  0  0
    5.8312  -12.3173   26.3877 S   0  0  0  0  0  0  0  0  0  0  0  0
    5.6732  -13.8714   25.5216 C   0  0  0  0  0  0  0  0  0  0  0  0
    6.9784  -14.5590   25.2503 C   0  0  0  0  0  0  0  0  0  0  0  0
    6.8509  -15.7724   24.3712 C   0  0  2  0  0  0  0  0  0  0  0  0
    5.8854  -16.7042   24.8508 N   0  0  0  0  0  0  0  0  0  0  0  0
    8.2048  -16.3404   24.1892 C   0  0  0  0  0  0  0  0  0  0  0  0
    8.4589  -17.3888   24.8519 O   0  0  0  0  0  0  0  0  0  0  0  0
   11.2463  -15.7815   22.1504 C   0  0  0  0  0  0  0  0  0  0  0  0
   10.4962  -16.4511   23.3090 C   0  0  2  0  0  0  0  0  0  0  0  0
    9.1971  -15.8196   23.3627 N   0  0  0  0  0  0  0  0  0  0  0  0
   11.2171  -16.2630   24.5827 C   0  0  0  0  0  0  0  0  0  0  0  0
   12.4004  -16.6836   24.7698 O   0  0  0  0  0  0  0  0  0  0  0  0
   10.5820  -15.5868   25.6576 N   0  0  0  0  0  0  0  0  0  0  0  0
   11.2546  -15.3139   26.8928 C   0  0  1  0  0  0  0  0  0  0  0  0
   10.7240  -14.0807   27.5867 C   0  0  0  0  0  0  0  0  0  0  0  0
   11.4026  -13.9882   29.2607 S   0  0  0  0  0  0  0  0  0  0  0  0
   11.1407  -16.4945   27.7899 C   0  0  0  0  0  0  0  0  0  0  0  0
   10.0033  -17.3044   27.7975 O   0  0  0  0  0  0  0  0  0  0  0  0
   12.0828  -16.7882   28.5700 O   0  0  0  0  0  0  0  0  0  0  0  0
  2  1  1  0
  3  2  1  0
  4  5  1  0
  4  3  1  0
  5  6  1  1
  7 11  1  0
  7  5  1  0
  8  7  2  0
 10  9  1  6
 10 11  1  0
 12 10  1  0
 12 14  1  0
 13 12  2  0
 15 14  1  0
 15 16  1  1
 16 17  1  0
 18 15  1  0
 19 18  1  0
 20 18  2  0
M  END
$$$$
