MAC.pdb
     RDKit          3D

 20 19  0  0  1  0  0  0  0  0999 V2000
    7.3827  -11.5200   26.2206 C   0  0  0  0  0  0  0  0  0  0  0  0
    5.6721  -12.1299   26.0244 S   0  0  0  0  0  0  0  0  0  0  0  0
    5.6552  -13.8620   26.4602 C   0  0  0  0  0  0  0  0  0  0  0  0
    6.0385  -14.7814   25.3388 C   0  0  0  0  0  0  0  0  0  0  0  0
    7.2186  -15.6589   25.6534 C   0  0  2  0  0  0  0  0  0  0  0  0
    8.0719  -15.1025   26.6497 N   0  0  0  0  0  0  0  0  0  0  0  0
    7.8988  -15.9724   24.3774 C   0  0  0  0  0  0  0  0  0  0  0  0
    7.3039  -16.7945   23.6205 O   0  0  0  0  0  0  0  0  0  0  0  0
   10.8944  -15.6189   22.3834 C   0  0  0  0  0  0  0  0  0  0  0  0
   10.1831  -16.3260   23.5443 C   0  0  2  0  0  0  0  0  0  0  0  0
    9.1161  -15.4426   23.9572 N   0  0  0  0  0  0  0  0  0  0  0  0
   11.1146  -16.5717   24.6621 C   0  0  0  0  0  0  0  0  0  0  0  0
   12.2277  -17.1633   24.5101 O   0  0  0  0  0  0  0  0  0  0  0  0
   10.7738  -16.1380   25.9704 N   0  0  0  0  0  0  0  0  0  0  0  0
   11.6222  -16.3766   27.0999 C   0  0  1  0  0  0  0  0  0  0  0  0
   11.8262  -15.1428   27.9483 C   0  0  0  0  0  0  0  0  0  0  0  0
   10.2433  -14.2996   28.1819 S   0  0  0  0  0  0  0  0  0  0  0  0
   11.0520  -17.4754   27.9241 C   0  0  0  0  0  0  0  0  0  0  0  0
   11.7287  -17.9903   29.0316 O   0  0  0  0  0  0  0  0  0  0  0  0
    9.9317  -17.9676   27.6323 O   0  0  0  0  0  0  0  0  0  0  0  0
  2  1  1  0
  3  2  1  0
  4  5  1  0
  4  3  1  0
  5  6  1  1
  7 11  1  0
  7  5  1  0
  8  7  2  0
 10  9  1  6
 10 11  1  0
 12 10  1  0
 12 14  1  0
 13 12  2  0
 15 14  1  0
 15 16  1  1
 16 17  1  0
 18 15  1  0
 19 18  1  0
 20 18  2  0
M  END
$$$$
