MAC.pdb
     RDKit          3D

 20 19  0  0  1  0  0  0  0  0999 V2000
    7.9493  -11.2061   19.7565 C   0  0  0  0  0  0  0  0  0  0  0  0
    8.9219  -12.6861   19.3087 S   0  0  0  0  0  0  0  0  0  0  0  0
    8.0161  -14.1235   19.8597 C   0  0  0  0  0  0  0  0  0  0  0  0
    8.7753  -15.4115   19.7389 C   0  0  0  0  0  0  0  0  0  0  0  0
    8.0255  -16.6061   20.2607 C   0  0  2  0  0  0  0  0  0  0  0  0
    6.8221  -16.8614   19.5417 N   0  0  0  0  0  0  0  0  0  0  0  0
    7.8350  -16.4173   21.7157 C   0  0  0  0  0  0  0  0  0  0  0  0
    6.7584  -15.8493   22.0639 O   0  0  0  0  0  0  0  0  0  0  0  0
    9.2259  -17.7386   24.8428 C   0  0  0  0  0  0  0  0  0  0  0  0
    8.3496  -16.7226   24.0988 C   0  0  2  0  0  0  0  0  0  0  0  0
    8.7309  -16.8088   22.7073 N   0  0  0  0  0  0  0  0  0  0  0  0
    8.5719  -15.3576   24.6136 C   0  0  0  0  0  0  0  0  0  0  0  0
    9.5003  -14.6053   24.1842 O   0  0  0  0  0  0  0  0  0  0  0  0
    7.7258  -14.8427   25.6308 N   0  0  0  0  0  0  0  0  0  0  0  0
    7.9091  -13.5357   26.1883 C   0  0  1  0  0  0  0  0  0  0  0  0
    6.6106  -12.7773   26.3383 C   0  0  0  0  0  0  0  0  0  0  0  0
    5.4536  -13.7478   27.3337 S   0  0  0  0  0  0  0  0  0  0  0  0
    8.5895  -13.6504   27.5057 C   0  0  0  0  0  0  0  0  0  0  0  0
    9.0494  -12.5268   28.1954 O   0  0  0  0  0  0  0  0  0  0  0  0
    8.7650  -14.7805   28.0296 O   0  0  0  0  0  0  0  0  0  0  0  0
  2  1  1  0
  3  2  1  0
  4  5  1  0
  4  3  1  0
  5  6  1  6
  7 11  1  0
  7  5  1  0
  8  7  2  0
 10  9  1  1
 10 11  1  0
 12 10  1  0
 12 14  1  0
 13 12  2  0
 15 14  1  0
 15 16  1  1
 16 17  1  0
 18 15  1  0
 19 18  1  0
 20 18  2  0
M  END
$$$$
