MAC.pdb
     RDKit          3D

 20 19  0  0  1  0  0  0  0  0999 V2000
    7.0199  -10.9934   25.6149 C   0  0  0  0  0  0  0  0  0  0  0  0
    6.9933  -12.3331   26.8564 S   0  0  0  0  0  0  0  0  0  0  0  0
    6.0255  -13.6781   26.1896 C   0  0  0  0  0  0  0  0  0  0  0  0
    6.8419  -14.7804   25.5828 C   0  0  0  0  0  0  0  0  0  0  0  0
    7.4506  -14.4211   24.2553 C   0  0  2  0  0  0  0  0  0  0  0  0
    6.4762  -14.0717   23.2762 N   0  0  0  0  0  0  0  0  0  0  0  0
    8.3432  -15.5309   23.8546 C   0  0  0  0  0  0  0  0  0  0  0  0
    8.5709  -16.4057   24.7411 O   0  0  0  0  0  0  0  0  0  0  0  0
   10.1771  -16.7372   20.8671 C   0  0  0  0  0  0  0  0  0  0  0  0
    9.8445  -16.7806   22.3641 C   0  0  2  0  0  0  0  0  0  0  0  0
    8.9373  -15.6812   22.6042 N   0  0  0  0  0  0  0  0  0  0  0  0
   11.0651  -16.6332   23.1801 C   0  0  0  0  0  0  0  0  0  0  0  0
   11.6536  -15.5193   23.3390 O   0  0  0  0  0  0  0  0  0  0  0  0
   11.6229  -17.7692   23.8235 N   0  0  0  0  0  0  0  0  0  0  0  0
   12.8767  -17.7171   24.5150 C   0  0  1  0  0  0  0  0  0  0  0  0
   12.7170  -17.7521   26.0173 C   0  0  0  0  0  0  0  0  0  0  0  0
   11.2594  -18.7320   26.4490 S   0  0  0  0  0  0  0  0  0  0  0  0
   13.7370  -18.8439   24.0657 C   0  0  0  0  0  0  0  0  0  0  0  0
   15.0729  -18.9500   24.4581 O   0  0  0  0  0  0  0  0  0  0  0  0
   13.2679  -19.7351   23.3121 O   0  0  0  0  0  0  0  0  0  0  0  0
  2  1  1  0
  3  2  1  0
  4  5  1  0
  4  3  1  0
  5  6  1  6
  7 11  1  0
  7  5  1  0
  8  7  2  0
 10  9  1  6
 10 11  1  0
 12 10  1  0
 12 14  1  0
 13 12  2  0
 15 14  1  0
 15 16  1  1
 16 17  1  0
 18 15  1  0
 19 18  1  0
 20 18  2  0
M  END
$$$$
