MAC.pdb
     RDKit          3D

 20 19  0  0  1  0  0  0  0  0999 V2000
    6.6426  -11.9167   24.4291 C   0  0  0  0  0  0  0  0  0  0  0  0
    6.4916  -12.5997   26.1165 S   0  0  0  0  0  0  0  0  0  0  0  0
    5.9584  -14.2984   25.9737 C   0  0  0  0  0  0  0  0  0  0  0  0
    6.4038  -14.9782   24.7130 C   0  0  0  0  0  0  0  0  0  0  0  0
    6.9771  -16.3504   24.9365 C   0  0  2  0  0  0  0  0  0  0  0  0
    7.2384  -16.6239   26.3103 N   0  0  0  0  0  0  0  0  0  0  0  0
    8.1556  -16.4947   24.0539 C   0  0  0  0  0  0  0  0  0  0  0  0
    8.0746  -17.3923   23.1646 O   0  0  0  0  0  0  0  0  0  0  0  0
   11.2657  -15.4102   22.7930 C   0  0  0  0  0  0  0  0  0  0  0  0
   10.5961  -16.3376   23.8152 C   0  0  2  0  0  0  0  0  0  0  0  0
    9.3200  -15.7344   24.1268 N   0  0  0  0  0  0  0  0  0  0  0  0
   11.4208  -16.4639   25.0323 C   0  0  0  0  0  0  0  0  0  0  0  0
   12.6247  -16.8666   25.0064 O   0  0  0  0  0  0  0  0  0  0  0  0
   10.8672  -16.1271   26.2956 N   0  0  0  0  0  0  0  0  0  0  0  0
   11.6110  -16.2515   27.5137 C   0  0  1  0  0  0  0  0  0  0  0  0
   11.6943  -14.9531   28.2825 C   0  0  0  0  0  0  0  0  0  0  0  0
   10.0351  -14.2632   28.4879 S   0  0  0  0  0  0  0  0  0  0  0  0
   10.9995  -17.3095   28.3613 C   0  0  0  0  0  0  0  0  0  0  0  0
   11.5757  -17.7074   29.5694 O   0  0  0  0  0  0  0  0  0  0  0  0
    9.9352  -17.8731   27.9981 O   0  0  0  0  0  0  0  0  0  0  0  0
  2  1  1  0
  3  2  1  0
  4  5  1  0
  4  3  1  0
  5  6  1  1
  7 11  1  0
  7  5  1  0
  8  7  2  0
 10  9  1  6
 10 11  1  0
 12 10  1  0
 12 14  1  0
 13 12  2  0
 15 14  1  0
 15 16  1  1
 16 17  1  0
 18 15  1  0
 19 18  1  0
 20 18  2  0
M  END
$$$$
