MAC.pdb
     RDKit          3D

 20 19  0  0  1  0  0  0  0  0999 V2000
    6.8513  -12.0711   19.1514 C   0  0  0  0  0  0  0  0  0  0  0  0
    7.4375  -13.3495   17.9858 S   0  0  0  0  0  0  0  0  0  0  0  0
    8.0512  -14.7252   18.9456 C   0  0  0  0  0  0  0  0  0  0  0  0
    8.5606  -14.3473   20.3048 C   0  0  0  0  0  0  0  0  0  0  0  0
    9.2062  -15.4855   21.0461 C   0  0  2  0  0  0  0  0  0  0  0  0
    9.1024  -16.7265   20.3536 N   0  0  0  0  0  0  0  0  0  0  0  0
    8.6463  -15.5056   22.4154 C   0  0  0  0  0  0  0  0  0  0  0  0
    8.5082  -14.3775   22.9734 O   0  0  0  0  0  0  0  0  0  0  0  0
    7.4259  -17.9519   24.9233 C   0  0  0  0  0  0  0  0  0  0  0  0
    7.7912  -16.5299   24.4786 C   0  0  2  0  0  0  0  0  0  0  0  0
    8.2689  -16.6462   23.1194 N   0  0  0  0  0  0  0  0  0  0  0  0
    8.8368  -15.9575   25.3484 C   0  0  0  0  0  0  0  0  0  0  0  0
   10.0765  -16.0845   25.1053 O   0  0  0  0  0  0  0  0  0  0  0  0
    8.4656  -15.2310   26.5103 N   0  0  0  0  0  0  0  0  0  0  0  0
    9.4312  -14.5844   27.3484 C   0  0  1  0  0  0  0  0  0  0  0  0
    8.8423  -13.4434   28.1452 C   0  0  0  0  0  0  0  0  0  0  0  0
    7.5546  -12.6265   27.1728 S   0  0  0  0  0  0  0  0  0  0  0  0
   10.0421  -15.5853   28.2631 C   0  0  0  0  0  0  0  0  0  0  0  0
   11.1234  -15.2646   29.0863 O   0  0  0  0  0  0  0  0  0  0  0  0
    9.5874  -16.7572   28.3113 O   0  0  0  0  0  0  0  0  0  0  0  0
  2  1  1  0
  3  2  1  0
  4  5  1  0
  4  3  1  0
  5  6  1  6
  7 11  1  0
  7  5  1  0
  8  7  2  0
 10  9  1  1
 10 11  1  0
 12 10  1  0
 12 14  1  0
 13 12  2  0
 15 14  1  0
 15 16  1  1
 16 17  1  0
 18 15  1  0
 19 18  1  0
 20 18  2  0
M  END
$$$$
