MAC.pdb
     RDKit          3D

 20 19  0  0  1  0  0  0  0  0999 V2000
    9.6420  -12.4965   19.5181 C   0  0  0  0  0  0  0  0  0  0  0  0
    7.8454  -12.6173   19.2111 S   0  0  0  0  0  0  0  0  0  0  0  0
    7.3176  -14.2557   19.6878 C   0  0  0  0  0  0  0  0  0  0  0  0
    8.4284  -15.1456   20.1610 C   0  0  0  0  0  0  0  0  0  0  0  0
    7.9612  -16.4921   20.6409 C   0  0  2  0  0  0  0  0  0  0  0  0
    7.0010  -17.0866   19.7720 N   0  0  0  0  0  0  0  0  0  0  0  0
    7.5015  -16.3369   22.0385 C   0  0  0  0  0  0  0  0  0  0  0  0
    6.3454  -15.8431   22.1893 O   0  0  0  0  0  0  0  0  0  0  0  0
    7.8170  -17.7911   25.2420 C   0  0  0  0  0  0  0  0  0  0  0  0
    7.6663  -16.4643   24.4868 C   0  0  2  0  0  0  0  0  0  0  0  0
    8.2287  -16.6853   23.1738 N   0  0  0  0  0  0  0  0  0  0  0  0
    8.3831  -15.3776   25.1816 C   0  0  0  0  0  0  0  0  0  0  0  0
    9.5992  -15.0981   24.9466 O   0  0  0  0  0  0  0  0  0  0  0  0
    7.7061  -14.5990   26.1569 N   0  0  0  0  0  0  0  0  0  0  0  0
    8.3565  -13.5487   26.8824 C   0  0  1  0  0  0  0  0  0  0  0  0
    7.3914  -12.4968   27.3782 C   0  0  0  0  0  0  0  0  0  0  0  0
    6.2224  -12.0790   26.0629 S   0  0  0  0  0  0  0  0  0  0  0  0
    9.1110  -14.1296   28.0248 C   0  0  0  0  0  0  0  0  0  0  0  0
    9.9628  -13.3535   28.8133 O   0  0  0  0  0  0  0  0  0  0  0  0
    8.9924  -15.3503   28.3044 O   0  0  0  0  0  0  0  0  0  0  0  0
  2  1  1  0
  3  2  1  0
  4  5  1  0
  4  3  1  0
  5  6  1  6
  7 11  1  0
  7  5  1  0
  8  7  2  0
 10  9  1  1
 10 11  1  0
 12 10  1  0
 12 14  1  0
 13 12  2  0
 15 14  1  0
 15 16  1  1
 16 17  1  0
 18 15  1  0
 19 18  1  0
 20 18  2  0
M  END
$$$$
