MAC.pdb
     RDKit          3D

 20 19  0  0  1  0  0  0  0  0999 V2000
    6.3891  -12.4095   19.1640 C   0  0  0  0  0  0  0  0  0  0  0  0
    7.7143  -13.6667   19.1605 S   0  0  0  0  0  0  0  0  0  0  0  0
    7.7573  -14.4211   20.7789 C   0  0  0  0  0  0  0  0  0  0  0  0
    8.8220  -15.4650   20.9419 C   0  0  0  0  0  0  0  0  0  0  0  0
    8.7956  -16.1513   22.2798 C   0  0  2  0  0  0  0  0  0  0  0  0
    7.6738  -17.0158   22.4360 N   0  0  0  0  0  0  0  0  0  0  0  0
    8.9081  -15.1081   23.3228 C   0  0  0  0  0  0  0  0  0  0  0  0
    9.9276  -14.3608   23.2505 O   0  0  0  0  0  0  0  0  0  0  0  0
    6.8220  -13.5192   25.9042 C   0  0  0  0  0  0  0  0  0  0  0  0
    8.1919  -13.7904   25.2691 C   0  0  2  0  0  0  0  0  0  0  0  0
    7.9974  -14.8921   24.3538 N   0  0  0  0  0  0  0  0  0  0  0  0
    9.1900  -14.1412   26.2979 C   0  0  0  0  0  0  0  0  0  0  0  0
    9.6704  -13.2883   27.1065 O   0  0  0  0  0  0  0  0  0  0  0  0
    9.6468  -15.4810   26.4072 N   0  0  0  0  0  0  0  0  0  0  0  0
   10.4942  -15.9146   27.4781 C   0  0  1  0  0  0  0  0  0  0  0  0
    9.8359  -15.7864   28.8323 C   0  0  0  0  0  0  0  0  0  0  0  0
    9.6204  -14.0372   29.2382 S   0  0  0  0  0  0  0  0  0  0  0  0
   10.9088  -17.3231   27.2421 C   0  0  0  0  0  0  0  0  0  0  0  0
   11.8014  -17.9786   28.0926 O   0  0  0  0  0  0  0  0  0  0  0  0
   10.4546  -17.9584   26.2559 O   0  0  0  0  0  0  0  0  0  0  0  0
  2  1  1  0
  3  2  1  0
  4  5  1  0
  4  3  1  0
  5  6  1  1
  7 11  1  0
  7  5  1  0
  8  7  2  0
 10  9  1  1
 10 11  1  0
 12 10  1  0
 12 14  1  0
 13 12  2  0
 15 14  1  0
 15 16  1  1
 16 17  1  0
 18 15  1  0
 19 18  1  0
 20 18  2  0
M  END
$$$$
