MAC.pdb
     RDKit          3D

 20 19  0  0  1  0  0  0  0  0999 V2000
    7.5825  -11.8621   26.6952 C   0  0  0  0  0  0  0  0  0  0  0  0
    6.0059  -12.2143   25.8426 S   0  0  0  0  0  0  0  0  0  0  0  0
    5.6287  -13.9437   26.0817 C   0  0  0  0  0  0  0  0  0  0  0  0
    6.0731  -14.8306   24.9567 C   0  0  0  0  0  0  0  0  0  0  0  0
    6.9801  -15.9489   25.3909 C   0  0  2  0  0  0  0  0  0  0  0  0
    7.5902  -15.7071   26.6556 N   0  0  0  0  0  0  0  0  0  0  0  0
    7.9387  -16.2027   24.2929 C   0  0  0  0  0  0  0  0  0  0  0  0
    7.5997  -17.0906   23.4564 O   0  0  0  0  0  0  0  0  0  0  0  0
   11.0687  -15.5180   22.6958 C   0  0  0  0  0  0  0  0  0  0  0  0
   10.3401  -16.3152   23.7853 C   0  0  2  0  0  0  0  0  0  0  0  0
    9.1573  -15.5528   24.1154 N   0  0  0  0  0  0  0  0  0  0  0  0
   11.1958  -16.4857   24.9754 C   0  0  0  0  0  0  0  0  0  0  0  0
   12.4014  -16.8772   24.9029 O   0  0  0  0  0  0  0  0  0  0  0  0
   10.6715  -16.2066   26.2649 N   0  0  0  0  0  0  0  0  0  0  0  0
   11.4411  -16.3913   27.4592 C   0  0  1  0  0  0  0  0  0  0  0  0
   11.1120  -15.3760   28.5290 C   0  0  0  0  0  0  0  0  0  0  0  0
   10.5740  -13.8326   27.7546 S   0  0  0  0  0  0  0  0  0  0  0  0
   11.2270  -17.7685   27.9780 C   0  0  0  0  0  0  0  0  0  0  0  0
   11.8853  -18.2349   29.1177 O   0  0  0  0  0  0  0  0  0  0  0  0
   10.4360  -18.5494   27.3890 O   0  0  0  0  0  0  0  0  0  0  0  0
  2  1  1  0
  3  2  1  0
  4  5  1  0
  4  3  1  0
  5  6  1  1
  7 11  1  0
  7  5  1  0
  8  7  2  0
 10  9  1  6
 10 11  1  0
 12 10  1  0
 12 14  1  0
 13 12  2  0
 15 14  1  0
 15 16  1  1
 16 17  1  0
 18 15  1  0
 19 18  1  0
 20 18  2  0
M  END
$$$$
