MAC.pdb
     RDKit          3D

 20 19  0  0  1  0  0  0  0  0999 V2000
    6.8265  -11.2481   25.4449 C   0  0  0  0  0  0  0  0  0  0  0  0
    5.6110  -12.1956   26.4254 S   0  0  0  0  0  0  0  0  0  0  0  0
    5.5036  -13.8359   25.7267 C   0  0  0  0  0  0  0  0  0  0  0  0
    6.8322  -14.4861   25.4784 C   0  0  0  0  0  0  0  0  0  0  0  0
    6.7432  -15.7568   24.6789 C   0  0  2  0  0  0  0  0  0  0  0  0
    5.9225  -16.7435   25.2978 N   0  0  0  0  0  0  0  0  0  0  0  0
    8.1235  -16.2065   24.3939 C   0  0  0  0  0  0  0  0  0  0  0  0
    8.5343  -17.1949   25.0702 O   0  0  0  0  0  0  0  0  0  0  0  0
   10.9249  -15.4057   22.0988 C   0  0  0  0  0  0  0  0  0  0  0  0
   10.3008  -16.1974   23.2553 C   0  0  2  0  0  0  0  0  0  0  0  0
    8.9842  -15.6369   23.4591 N   0  0  0  0  0  0  0  0  0  0  0  0
   11.1136  -16.0706   24.4803 C   0  0  0  0  0  0  0  0  0  0  0  0
   12.3449  -16.3779   24.5215 O   0  0  0  0  0  0  0  0  0  0  0  0
   10.5163  -15.5872   25.6742 N   0  0  0  0  0  0  0  0  0  0  0  0
   11.2411  -15.4900   26.9063 C   0  0  1  0  0  0  0  0  0  0  0  0
   10.6152  -14.5152   27.8767 C   0  0  0  0  0  0  0  0  0  0  0  0
   11.5444  -14.5239   29.4283 S   0  0  0  0  0  0  0  0  0  0  0  0
   11.3428  -16.8369   27.5285 C   0  0  0  0  0  0  0  0  0  0  0  0
   12.4528  -17.2140   28.2870 O   0  0  0  0  0  0  0  0  0  0  0  0
   10.4149  -17.6732   27.3793 O   0  0  0  0  0  0  0  0  0  0  0  0
  2  1  1  0
  3  2  1  0
  4  5  1  0
  4  3  1  0
  5  6  1  1
  7 11  1  0
  7  5  1  0
  8  7  2  0
 10  9  1  6
 10 11  1  0
 12 10  1  0
 12 14  1  0
 13 12  2  0
 15 14  1  0
 15 16  1  1
 16 17  1  0
 18 15  1  0
 19 18  1  0
 20 18  2  0
M  END
$$$$
