MAC.pdb
     RDKit          3D

 20 19  0  0  1  0  0  0  0  0999 V2000
    6.6359  -11.8174   27.4633 C   0  0  0  0  0  0  0  0  0  0  0  0
    5.8843  -12.6734   26.0353 S   0  0  0  0  0  0  0  0  0  0  0  0
    7.1974  -13.4632   25.1175 C   0  0  0  0  0  0  0  0  0  0  0  0
    6.7286  -14.2566   23.9341 C   0  0  0  0  0  0  0  0  0  0  0  0
    6.9858  -15.7333   24.0565 C   0  0  2  0  0  0  0  0  0  0  0  0
    6.5795  -16.2633   25.3151 N   0  0  0  0  0  0  0  0  0  0  0  0
    8.4089  -15.9707   23.7285 C   0  0  0  0  0  0  0  0  0  0  0  0
    8.8872  -15.2625   22.7944 O   0  0  0  0  0  0  0  0  0  0  0  0
   10.8732  -15.8828   22.9469 C   0  0  0  0  0  0  0  0  0  0  0  0
   10.6640  -16.8728   24.1000 C   0  0  2  0  0  0  0  0  0  0  0  0
    9.2416  -16.8934   24.3564 N   0  0  0  0  0  0  0  0  0  0  0  0
   11.4015  -16.4436   25.3039 C   0  0  0  0  0  0  0  0  0  0  0  0
   12.6679  -16.4871   25.3843 O   0  0  0  0  0  0  0  0  0  0  0  0
   10.6874  -15.9585   26.4310 N   0  0  0  0  0  0  0  0  0  0  0  0
   11.3187  -15.7355   27.6977 C   0  0  1  0  0  0  0  0  0  0  0  0
   10.7690  -14.5269   28.4194 C   0  0  0  0  0  0  0  0  0  0  0  0
    9.7883  -13.5302   27.2723 S   0  0  0  0  0  0  0  0  0  0  0  0
   11.1704  -16.9485   28.5452 C   0  0  0  0  0  0  0  0  0  0  0  0
   11.8483  -17.0845   29.7584 O   0  0  0  0  0  0  0  0  0  0  0  0
   10.4194  -17.8881   28.1772 O   0  0  0  0  0  0  0  0  0  0  0  0
  2  1  1  0
  3  2  1  0
  4  5  1  0
  4  3  1  0
  5  6  1  1
  7 11  1  0
  7  5  1  0
  8  7  2  0
 10  9  1  6
 10 11  1  0
 12 10  1  0
 12 14  1  0
 13 12  2  0
 15 14  1  0
 15 16  1  1
 16 17  1  0
 18 15  1  0
 19 18  1  0
 20 18  2  0
M  END
$$$$
