MAC.pdb
     RDKit          3D

 20 19  0  0  1  0  0  0  0  0999 V2000
    8.7728  -11.8416   19.3849 C   0  0  0  0  0  0  0  0  0  0  0  0
    7.7280  -12.7643   18.2043 S   0  0  0  0  0  0  0  0  0  0  0  0
    7.8459  -14.4999   18.6095 C   0  0  0  0  0  0  0  0  0  0  0  0
    7.6715  -14.8035   20.0679 C   0  0  0  0  0  0  0  0  0  0  0  0
    7.8237  -16.2614   20.4041 C   0  0  2  0  0  0  0  0  0  0  0  0
    6.8075  -17.0726   19.8214 N   0  0  0  0  0  0  0  0  0  0  0  0
    7.9226  -16.3757   21.8758 C   0  0  0  0  0  0  0  0  0  0  0  0
    6.8234  -16.4160   22.5029 O   0  0  0  0  0  0  0  0  0  0  0  0
   10.4641  -16.8655   24.5152 C   0  0  0  0  0  0  0  0  0  0  0  0
    9.0650  -16.4413   24.0502 C   0  0  2  0  0  0  0  0  0  0  0  0
    9.1069  -16.4408   22.6053 N   0  0  0  0  0  0  0  0  0  0  0  0
    8.7245  -15.0988   24.5594 C   0  0  0  0  0  0  0  0  0  0  0  0
    8.9301  -14.0391   23.8909 O   0  0  0  0  0  0  0  0  0  0  0  0
    8.1421  -14.9614   25.8469 N   0  0  0  0  0  0  0  0  0  0  0  0
    7.7886  -13.6852   26.3935 C   0  0  1  0  0  0  0  0  0  0  0  0
    6.3097  -13.3933   26.2862 C   0  0  0  0  0  0  0  0  0  0  0  0
    5.9255  -11.8719   27.1856 S   0  0  0  0  0  0  0  0  0  0  0  0
    8.2212  -13.6183   27.8148 C   0  0  0  0  0  0  0  0  0  0  0  0
    8.6089  -14.7598   28.5193 O   0  0  0  0  0  0  0  0  0  0  0  0
    8.2456  -12.5137   28.4162 O   0  0  0  0  0  0  0  0  0  0  0  0
  2  1  1  0
  3  2  1  0
  4  5  1  0
  4  3  1  0
  5  6  1  1
  7 11  1  0
  7  5  1  0
  8  7  2  0
 10  9  1  1
 10 11  1  0
 12 10  1  0
 12 14  1  0
 13 12  2  0
 15 14  1  0
 15 16  1  1
 16 17  1  0
 18 15  1  0
 19 18  1  0
 20 18  2  0
M  END
$$$$
