MAC.pdb
     RDKit          3D

 20 19  0  0  1  0  0  0  0  0999 V2000
    7.4290  -11.8013   19.4888 C   0  0  0  0  0  0  0  0  0  0  0  0
    7.1337  -13.2478   18.4131 S   0  0  0  0  0  0  0  0  0  0  0  0
    7.8915  -14.6685   19.1860 C   0  0  0  0  0  0  0  0  0  0  0  0
    8.2064  -14.4815   20.6405 C   0  0  0  0  0  0  0  0  0  0  0  0
    8.7985  -15.7008   21.2922 C   0  0  2  0  0  0  0  0  0  0  0  0
    8.5065  -16.9029   20.5852 N   0  0  0  0  0  0  0  0  0  0  0  0
    8.3673  -15.7085   22.7074 C   0  0  0  0  0  0  0  0  0  0  0  0
    8.2850  -14.5759   23.2672 O   0  0  0  0  0  0  0  0  0  0  0  0
    7.3588  -18.1295   25.3314 C   0  0  0  0  0  0  0  0  0  0  0  0
    7.6972  -16.7137   24.8470 C   0  0  2  0  0  0  0  0  0  0  0  0
    8.0526  -16.8425   23.4519 N   0  0  0  0  0  0  0  0  0  0  0  0
    8.8205  -16.1470   25.6180 C   0  0  0  0  0  0  0  0  0  0  0  0
   10.0350  -16.3985   25.3461 O   0  0  0  0  0  0  0  0  0  0  0  0
    8.5573  -15.2826   26.7131 N   0  0  0  0  0  0  0  0  0  0  0  0
    9.6065  -14.6838   27.4834 C   0  0  1  0  0  0  0  0  0  0  0  0
    9.2033  -13.3594   28.0893 C   0  0  0  0  0  0  0  0  0  0  0  0
    7.8933  -12.6106   27.0921 S   0  0  0  0  0  0  0  0  0  0  0  0
   10.0357  -15.6253   28.5515 C   0  0  0  0  0  0  0  0  0  0  0  0
   11.1152  -15.3419   29.3906 O   0  0  0  0  0  0  0  0  0  0  0  0
    9.4232  -16.7111   28.7199 O   0  0  0  0  0  0  0  0  0  0  0  0
  2  1  1  0
  3  2  1  0
  4  5  1  0
  4  3  1  0
  5  6  1  6
  7 11  1  0
  7  5  1  0
  8  7  2  0
 10  9  1  1
 10 11  1  0
 12 10  1  0
 12 14  1  0
 13 12  2  0
 15 14  1  0
 15 16  1  1
 16 17  1  0
 18 15  1  0
 19 18  1  0
 20 18  2  0
M  END
$$$$
