MAC.pdb
     RDKit          3D

 20 19  0  0  1  0  0  0  0  0999 V2000
    7.2417  -11.4963   25.8242 C   0  0  0  0  0  0  0  0  0  0  0  0
    5.6852  -12.3281   26.2952 S   0  0  0  0  0  0  0  0  0  0  0  0
    5.6133  -13.8872   25.4266 C   0  0  0  0  0  0  0  0  0  0  0  0
    6.9204  -14.6208   25.3719 C   0  0  0  0  0  0  0  0  0  0  0  0
    6.8632  -15.8993   24.5819 C   0  0  2  0  0  0  0  0  0  0  0  0
    5.9229  -16.8323   25.1067 N   0  0  0  0  0  0  0  0  0  0  0  0
    8.2426  -16.4231   24.4736 C   0  0  0  0  0  0  0  0  0  0  0  0
    8.5010  -17.4496   25.1682 O   0  0  0  0  0  0  0  0  0  0  0  0
   11.2521  -15.9252   22.3883 C   0  0  0  0  0  0  0  0  0  0  0  0
   10.5300  -16.5557   23.5861 C   0  0  2  0  0  0  0  0  0  0  0  0
    9.2540  -15.8836   23.6830 N   0  0  0  0  0  0  0  0  0  0  0  0
   11.3078  -16.3728   24.8267 C   0  0  0  0  0  0  0  0  0  0  0  0
   12.5454  -16.6449   24.9068 O   0  0  0  0  0  0  0  0  0  0  0  0
   10.6676  -15.8736   25.9915 N   0  0  0  0  0  0  0  0  0  0  0  0
   11.3850  -15.6054   27.2023 C   0  0  1  0  0  0  0  0  0  0  0  0
   10.7462  -14.5144   28.0302 C   0  0  0  0  0  0  0  0  0  0  0  0
    8.9947  -14.8900   28.2799 S   0  0  0  0  0  0  0  0  0  0  0  0
   11.4939  -16.8556   28.0004 C   0  0  0  0  0  0  0  0  0  0  0  0
   12.3286  -16.9445   29.1163 O   0  0  0  0  0  0  0  0  0  0  0  0
   10.8247  -17.8708   27.6782 O   0  0  0  0  0  0  0  0  0  0  0  0
  2  1  1  0
  3  2  1  0
  4  5  1  0
  4  3  1  0
  5  6  1  1
  7 11  1  0
  7  5  1  0
  8  7  2  0
 10  9  1  6
 10 11  1  0
 12 10  1  0
 12 14  1  0
 13 12  2  0
 15 14  1  0
 15 16  1  1
 16 17  1  0
 18 15  1  0
 19 18  1  0
 20 18  2  0
M  END
$$$$
