CQS.pdb
     RDKit          3D

 22 21  0  0  1  0  0  0  0  0999 V2000
   19.6754  -13.2640  -16.0752 N   0  0  0  0  0  0  0  0  0  0  0  0
   19.0218  -11.9861  -16.3402 C   0  0  1  0  0  0  0  0  0  0  0  0
   17.9495  -11.7574  -15.2839 C   0  0  0  0  0  0  0  0  0  0  0  0
   16.5847  -12.8969  -15.6275 S   0  0  0  0  0  0  0  0  0  0  0  0
   20.0085  -10.8951  -16.2736 C   0  0  0  0  0  0  0  0  0  0  0  0
   20.9066  -10.9586  -15.3906 O   0  0  0  0  0  0  0  0  0  0  0  0
   21.4242   -7.4948  -21.2164 N   0  0  0  0  0  0  0  0  0  0  0  0
   22.3843   -7.0132  -20.2907 C   0  0  0  0  0  0  0  0  0  0  0  0
   23.3088   -6.2552  -20.6934 O   0  0  0  0  0  0  0  0  0  0  0  0
   22.2818   -7.4092  -18.8739 C   0  0  0  0  0  0  0  0  0  0  0  0
   21.0811   -8.3305  -18.7076 C   0  0  0  0  0  0  0  0  0  0  0  0
   21.0124   -8.8509  -17.2782 C   0  0  2  0  0  0  0  0  0  0  0  0
   19.9554   -9.8046  -17.1718 N   0  0  0  0  0  0  0  0  0  0  0  0
   20.8675   -7.6914  -16.3955 C   0  0  0  0  0  0  0  0  0  0  0  0
   19.7331   -7.1627  -16.2955 O   0  0  0  0  0  0  0  0  0  0  0  0
   22.1112   -5.0295  -12.6357 O   0  0  0  0  0  0  0  0  0  0  0  0
   22.5011   -6.0538  -13.4966 C   0  0  0  0  0  0  0  0  0  0  0  0
   21.6690   -6.0006  -14.7635 C   0  0  2  0  0  0  0  0  0  0  0  0
   21.9163   -7.1071  -15.6332 N   0  0  0  0  0  0  0  0  0  0  0  0
   21.8831   -4.6869  -15.4230 C   0  0  0  0  0  0  0  0  0  0  0  0
   20.9286   -3.6994  -15.1705 O   0  0  0  0  0  0  0  0  0  0  0  0
   22.8586   -4.4470  -16.1717 O   0  0  0  0  0  0  0  0  0  0  0  0
  2  1  1  1
  2  3  1  0
  3  4  1  0
  5  2  1  0
  5 13  1  0
  6  5  2  0
  7  8  1  0
  8 10  1  0
  8  9  2  0
 10 11  1  0
 12 11  1  6
 12 13  1  0
 12 14  1  0
 14 15  2  0
 14 19  1  0
 16 17  1  0
 18 17  1  1
 18 20  1  0
 19 18  1  0
 20 21  1  0
 22 20  2  0
M  END
$$$$
