CQS.pdb
     RDKit          3D

 22 21  0  0  1  0  0  0  0  0999 V2000
   15.0633  -11.1506   -9.9730 N   0  0  0  0  0  0  0  0  0  0  0  0
   14.5829  -10.2713  -11.0342 C   0  0  1  0  0  0  0  0  0  0  0  0
   13.3716   -9.5040  -10.5222 C   0  0  0  0  0  0  0  0  0  0  0  0
   12.1140  -10.7153  -10.0422 S   0  0  0  0  0  0  0  0  0  0  0  0
   15.6386   -9.3159  -11.4099 C   0  0  0  0  0  0  0  0  0  0  0  0
   16.3334   -8.8052  -10.4896 O   0  0  0  0  0  0  0  0  0  0  0  0
   19.9333   -9.0359  -13.0458 N   0  0  0  0  0  0  0  0  0  0  0  0
   19.9596   -7.9947  -14.0082 C   0  0  0  0  0  0  0  0  0  0  0  0
   21.0136   -7.3189  -14.1624 O   0  0  0  0  0  0  0  0  0  0  0  0
   18.7521   -7.7233  -14.8100 C   0  0  0  0  0  0  0  0  0  0  0  0
   17.6438   -8.6666  -14.3627 C   0  0  0  0  0  0  0  0  0  0  0  0
   16.9150   -8.0868  -13.1580 C   0  0  2  0  0  0  0  0  0  0  0  0
   15.8713   -8.9770  -12.7625 N   0  0  0  0  0  0  0  0  0  0  0  0
   16.4549   -6.7464  -13.5268 C   0  0  0  0  0  0  0  0  0  0  0  0
   15.8030   -6.6174  -14.5921 O   0  0  0  0  0  0  0  0  0  0  0  0
   15.2586   -2.2103  -12.5147 O   0  0  0  0  0  0  0  0  0  0  0  0
   15.7029   -3.4415  -12.0357 C   0  0  0  0  0  0  0  0  0  0  0  0
   16.1676   -4.3027  -13.1944 C   0  0  2  0  0  0  0  0  0  0  0  0
   16.6872   -5.5645  -12.7707 N   0  0  0  0  0  0  0  0  0  0  0  0
   17.1325   -3.5249  -14.0132 C   0  0  0  0  0  0  0  0  0  0  0  0
   16.6299   -2.3973  -14.6659 O   0  0  0  0  0  0  0  0  0  0  0  0
   18.3398   -3.8386  -14.1315 O   0  0  0  0  0  0  0  0  0  0  0  0
  2  1  1  1
  2  3  1  0
  3  4  1  0
  5  2  1  0
  5 13  1  0
  6  5  2  0
  7  8  1  0
  8 10  1  0
  8  9  2  0
 10 11  1  0
 12 11  1  6
 12 13  1  0
 12 14  1  0
 14 15  2  0
 14 19  1  0
 16 17  1  0
 18 17  1  1
 18 20  1  0
 19 18  1  0
 20 21  1  0
 22 20  2  0
M  END
$$$$
