CQS.pdb
     RDKit          3D

 22 21  0  0  1  0  0  0  0  0999 V2000
   25.9641  -12.2214  -18.0281 N   0  0  0  0  0  0  0  0  0  0  0  0
   25.6713  -11.5185  -16.7829 C   0  0  1  0  0  0  0  0  0  0  0  0
   26.9303  -10.7975  -16.3212 C   0  0  0  0  0  0  0  0  0  0  0  0
   28.0774  -12.0447  -15.6825 S   0  0  0  0  0  0  0  0  0  0  0  0
   24.6010  -10.5316  -17.0041 C   0  0  0  0  0  0  0  0  0  0  0  0
   24.6298   -9.8510  -18.0653 O   0  0  0  0  0  0  0  0  0  0  0  0
   18.8428  -10.9285  -14.9350 N   0  0  0  0  0  0  0  0  0  0  0  0
   18.8121   -9.6209  -15.4827 C   0  0  0  0  0  0  0  0  0  0  0  0
   17.7134   -9.0056  -15.5584 O   0  0  0  0  0  0  0  0  0  0  0  0
   20.0673   -9.0065  -15.9533 C   0  0  0  0  0  0  0  0  0  0  0  0
   21.2034  -10.0016  -15.7593 C   0  0  0  0  0  0  0  0  0  0  0  0
   22.5152   -9.4028  -16.2485 C   0  0  2  0  0  0  0  0  0  0  0  0
   23.5677  -10.3481  -16.0568 N   0  0  0  0  0  0  0  0  0  0  0  0
   22.7093   -8.1348  -15.5420 C   0  0  0  0  0  0  0  0  0  0  0  0
   23.0981   -8.1764  -14.3488 O   0  0  0  0  0  0  0  0  0  0  0  0
   22.8502   -3.2867  -15.3608 O   0  0  0  0  0  0  0  0  0  0  0  0
   22.5013   -4.3926  -16.1339 C   0  0  0  0  0  0  0  0  0  0  0  0
   22.6912   -5.6615  -15.3252 C   0  0  2  0  0  0  0  0  0  0  0  0
   22.4919   -6.8452  -16.1005 N   0  0  0  0  0  0  0  0  0  0  0  0
   21.8169   -5.6011  -14.1259 C   0  0  0  0  0  0  0  0  0  0  0  0
   22.3473   -4.9707  -12.9984 O   0  0  0  0  0  0  0  0  0  0  0  0
   20.6600   -6.0813  -14.0964 O   0  0  0  0  0  0  0  0  0  0  0  0
  2  1  1  6
  2  3  1  0
  3  4  1  0
  5  2  1  0
  5 13  1  0
  6  5  2  0
  7  8  1  0
  8 10  1  0
  8  9  2  0
 10 11  1  0
 12 11  1  1
 12 13  1  0
 12 14  1  0
 14 15  2  0
 14 19  1  0
 16 17  1  0
 18 17  1  6
 18 20  1  0
 19 18  1  0
 20 21  1  0
 22 20  2  0
M  END
$$$$
