CQS.pdb
     RDKit          3D

 22 21  0  0  1  0  0  0  0  0999 V2000
   26.2709  -11.6356  -18.2872 N   0  0  0  0  0  0  0  0  0  0  0  0
   25.6683  -11.4796  -16.9670 C   0  0  1  0  0  0  0  0  0  0  0  0
   26.7564  -11.0890  -15.9763 C   0  0  0  0  0  0  0  0  0  0  0  0
   27.8348  -12.5254  -15.7465 S   0  0  0  0  0  0  0  0  0  0  0  0
   24.6448  -10.4217  -17.0052 C   0  0  0  0  0  0  0  0  0  0  0  0
   24.8801   -9.3911  -17.6927 O   0  0  0  0  0  0  0  0  0  0  0  0
   19.2465  -11.8104  -14.8345 N   0  0  0  0  0  0  0  0  0  0  0  0
   19.6095  -12.1089  -16.1724 C   0  0  0  0  0  0  0  0  0  0  0  0
   19.0456  -13.0664  -16.7694 O   0  0  0  0  0  0  0  0  0  0  0  0
   20.6406  -11.2921  -16.8391 C   0  0  0  0  0  0  0  0  0  0  0  0
   21.0847  -10.1900  -15.8871 C   0  0  0  0  0  0  0  0  0  0  0  0
   22.3921   -9.5754  -16.3686 C   0  0  2  0  0  0  0  0  0  0  0  0
   23.4305  -10.5523  -16.2930 N   0  0  0  0  0  0  0  0  0  0  0  0
   22.6353   -8.3756  -15.5649 C   0  0  0  0  0  0  0  0  0  0  0  0
   23.2529   -8.5062  -14.4795 O   0  0  0  0  0  0  0  0  0  0  0  0
   23.5752   -3.7611  -15.1269 O   0  0  0  0  0  0  0  0  0  0  0  0
   23.0415   -4.7467  -15.9554 C   0  0  0  0  0  0  0  0  0  0  0  0
   22.6015   -5.9332  -15.1197 C   0  0  2  0  0  0  0  0  0  0  0  0
   22.2257   -7.0594  -15.9148 N   0  0  0  0  0  0  0  0  0  0  0  0
   21.5268   -5.4947  -14.1927 C   0  0  0  0  0  0  0  0  0  0  0  0
   21.9381   -4.9345  -12.9815 O   0  0  0  0  0  0  0  0  0  0  0  0
   20.3070   -5.6083  -14.4552 O   0  0  0  0  0  0  0  0  0  0  0  0
  2  1  1  6
  2  3  1  0
  3  4  1  0
  5  2  1  0
  5 13  1  0
  6  5  2  0
  7  8  1  0
  8 10  1  0
  8  9  2  0
 10 11  1  0
 12 11  1  1
 12 13  1  0
 12 14  1  0
 14 15  2  0
 14 19  1  0
 16 17  1  0
 18 17  1  6
 18 20  1  0
 19 18  1  0
 20 21  1  0
 22 20  2  0
M  END
$$$$
