CQS.pdb
     RDKit          3D

 22 21  0  0  1  0  0  0  0  0999 V2000
   20.6218  -20.6341  -14.8006 N   0  0  0  0  0  0  0  0  0  0  0  0
   21.5319  -21.6177  -14.2221 C   0  0  1  0  0  0  0  0  0  0  0  0
   21.9585  -22.5899  -15.3134 C   0  0  0  0  0  0  0  0  0  0  0  0
   20.6372  -23.8123  -15.5107 S   0  0  0  0  0  0  0  0  0  0  0  0
   22.7233  -20.9415  -13.6823 C   0  0  0  0  0  0  0  0  0  0  0  0
   22.7962  -19.6873  -13.7920 O   0  0  0  0  0  0  0  0  0  0  0  0
   24.6682  -20.8086   -8.7269 N   0  0  0  0  0  0  0  0  0  0  0  0
   25.9203  -20.3702   -9.2276 C   0  0  0  0  0  0  0  0  0  0  0  0
   26.6006  -19.5438   -8.5600 O   0  0  0  0  0  0  0  0  0  0  0  0
   26.4020  -20.8904  -10.5207 C   0  0  0  0  0  0  0  0  0  0  0  0
   25.2756  -21.6690  -11.1865 C   0  0  0  0  0  0  0  0  0  0  0  0
   24.9276  -21.0432  -12.5304 C   0  0  2  0  0  0  0  0  0  0  0  0
   23.7596  -21.6726  -13.0574 N   0  0  0  0  0  0  0  0  0  0  0  0
   26.1102  -21.1563  -13.3866 C   0  0  0  0  0  0  0  0  0  0  0  0
   26.3803  -22.2806  -13.8761 O   0  0  0  0  0  0  0  0  0  0  0  0
   29.0218  -21.5545  -16.3734 O   0  0  0  0  0  0  0  0  0  0  0  0
   28.1768  -21.5700  -15.2651 C   0  0  0  0  0  0  0  0  0  0  0  0
   27.8281  -20.1482  -14.8688 C   0  0  2  0  0  0  0  0  0  0  0  0
   26.9888  -20.0870  -13.7140 N   0  0  0  0  0  0  0  0  0  0  0  0
   27.2464  -19.4516  -16.0448 C   0  0  0  0  0  0  0  0  0  0  0  0
   28.1496  -18.9746  -16.9969 O   0  0  0  0  0  0  0  0  0  0  0  0
   26.0146  -19.2852  -16.2023 O   0  0  0  0  0  0  0  0  0  0  0  0
  2  1  1  6
  2  3  1  0
  3  4  1  0
  5  2  1  0
  5 13  1  0
  6  5  2  0
  7  8  1  0
  8 10  1  0
  8  9  2  0
 10 11  1  0
 12 11  1  1
 12 13  1  0
 12 14  1  0
 14 15  2  0
 14 19  1  0
 16 17  1  0
 18 17  1  6
 18 20  1  0
 19 18  1  0
 20 21  1  0
 22 20  2  0
M  END
$$$$
