CQS.pdb
     RDKit          3D

 22 21  0  0  1  0  0  0  0  0999 V2000
   22.9344  -16.9250    8.8354 N   0  0  0  0  0  0  0  0  0  0  0  0
   21.5926  -17.4926    8.9231 C   0  0  1  0  0  0  0  0  0  0  0  0
   20.9644  -17.0605   10.2409 C   0  0  0  0  0  0  0  0  0  0  0  0
   21.6711  -18.0896   11.5526 S   0  0  0  0  0  0  0  0  0  0  0  0
   20.7664  -17.0006    7.8079 C   0  0  0  0  0  0  0  0  0  0  0  0
   20.9898  -15.8396    7.3693 O   0  0  0  0  0  0  0  0  0  0  0  0
   16.2245  -19.0792    2.3611 N   0  0  0  0  0  0  0  0  0  0  0  0
   16.9591  -19.2542    3.5612 C   0  0  0  0  0  0  0  0  0  0  0  0
   17.1225  -20.4160    4.0249 O   0  0  0  0  0  0  0  0  0  0  0  0
   17.5178  -18.0723    4.2436 C   0  0  0  0  0  0  0  0  0  0  0  0
   18.2820  -18.5335    5.4771 C   0  0  0  0  0  0  0  0  0  0  0  0
   18.9140  -17.3398    6.1802 C   0  0  2  0  0  0  0  0  0  0  0  0
   19.7499  -17.8030    7.2407 N   0  0  0  0  0  0  0  0  0  0  0  0
   17.8269  -16.4588    6.6120 C   0  0  0  0  0  0  0  0  0  0  0  0
   17.2121  -16.7518    7.6669 O   0  0  0  0  0  0  0  0  0  0  0  0
   15.7539  -12.1559    6.8290 O   0  0  0  0  0  0  0  0  0  0  0  0
   16.6294  -12.9649    6.1067 C   0  0  0  0  0  0  0  0  0  0  0  0
   16.4200  -14.4164    6.4932 C   0  0  2  0  0  0  0  0  0  0  0  0
   17.4040  -15.2853    5.9289 N   0  0  0  0  0  0  0  0  0  0  0  0
   15.0311  -14.8102    6.1433 C   0  0  0  0  0  0  0  0  0  0  0  0
   14.0154  -14.3029    6.9563 O   0  0  0  0  0  0  0  0  0  0  0  0
   14.7536  -15.5567    5.1760 O   0  0  0  0  0  0  0  0  0  0  0  0
  2  1  1  6
  2  3  1  0
  3  4  1  0
  5  2  1  0
  5 13  1  0
  6  5  2  0
  7  8  1  0
  8 10  1  0
  8  9  2  0
 10 11  1  0
 12 11  1  1
 12 13  1  0
 12 14  1  0
 14 15  2  0
 14 19  1  0
 16 17  1  0
 18 17  1  6
 18 20  1  0
 19 18  1  0
 20 21  1  0
 22 20  2  0
M  END
$$$$
