CQS.pdb
     RDKit          3D

 22 21  0  0  1  0  0  0  0  0999 V2000
   27.1354  -12.7086  -17.8186 N   0  0  0  0  0  0  0  0  0  0  0  0
   26.3790  -12.0699  -16.7461 C   0  0  1  0  0  0  0  0  0  0  0  0
   27.3505  -11.6217  -15.6629 C   0  0  0  0  0  0  0  0  0  0  0  0
   28.0193  -13.1073  -14.8725 S   0  0  0  0  0  0  0  0  0  0  0  0
   25.6611  -10.8956  -17.2697 C   0  0  0  0  0  0  0  0  0  0  0  0
   26.1312  -10.3158  -18.2861 O   0  0  0  0  0  0  0  0  0  0  0  0
   20.9581  -10.6183  -19.7550 N   0  0  0  0  0  0  0  0  0  0  0  0
   20.7059   -9.3015  -19.2934 C   0  0  0  0  0  0  0  0  0  0  0  0
   19.8702   -8.5797  -19.9033 O   0  0  0  0  0  0  0  0  0  0  0  0
   21.4270   -8.8024  -18.1079 C   0  0  0  0  0  0  0  0  0  0  0  0
   22.3058   -9.9195  -17.5619 C   0  0  0  0  0  0  0  0  0  0  0  0
   23.6874   -9.3799  -17.2173 C   0  0  2  0  0  0  0  0  0  0  0  0
   24.4778  -10.4270  -16.6542 N   0  0  0  0  0  0  0  0  0  0  0  0
   23.5004   -8.2264  -16.3347 C   0  0  0  0  0  0  0  0  0  0  0  0
   23.1912   -8.4423  -15.1371 O   0  0  0  0  0  0  0  0  0  0  0  0
   23.6948   -3.4728  -15.3745 O   0  0  0  0  0  0  0  0  0  0  0  0
   23.7610   -4.4414  -16.3746 C   0  0  0  0  0  0  0  0  0  0  0  0
   23.4571   -5.8054  -15.7853 C   0  0  2  0  0  0  0  0  0  0  0  0
   23.6413   -6.8661  -16.7249 N   0  0  0  0  0  0  0  0  0  0  0  0
   22.0923   -5.7815  -15.1996 C   0  0  0  0  0  0  0  0  0  0  0  0
   21.9979   -5.4273  -13.8521 O   0  0  0  0  0  0  0  0  0  0  0  0
   21.0607   -6.0595  -15.8543 O   0  0  0  0  0  0  0  0  0  0  0  0
  2  1  1  6
  2  3  1  0
  3  4  1  0
  5  2  1  0
  5 13  1  0
  6  5  2  0
  7  8  1  0
  8 10  1  0
  8  9  2  0
 10 11  1  0
 12 11  1  1
 12 13  1  0
 12 14  1  0
 14 15  2  0
 14 19  1  0
 16 17  1  0
 18 17  1  6
 18 20  1  0
 19 18  1  0
 20 21  1  0
 22 20  2  0
M  END
$$$$
