CQS.pdb
     RDKit          3D

 22 21  0  0  1  0  0  0  0  0999 V2000
   25.6908  -12.4521  -17.9915 N   0  0  0  0  0  0  0  0  0  0  0  0
   25.4680  -11.7935  -16.7082 C   0  0  1  0  0  0  0  0  0  0  0  0
   26.7924  -11.2298  -16.2119 C   0  0  0  0  0  0  0  0  0  0  0  0
   27.8577  -12.6274  -15.7750 S   0  0  0  0  0  0  0  0  0  0  0  0
   24.5031  -10.6930  -16.8704 C   0  0  0  0  0  0  0  0  0  0  0  0
   24.5911   -9.9721  -17.9013 O   0  0  0  0  0  0  0  0  0  0  0  0
   20.0460  -13.1884  -16.7124 N   0  0  0  0  0  0  0  0  0  0  0  0
   19.7852  -11.9022  -16.1753 C   0  0  0  0  0  0  0  0  0  0  0  0
   18.9632  -11.7811  -15.2260 O   0  0  0  0  0  0  0  0  0  0  0  0
   20.4817  -10.7308  -16.7386 C   0  0  0  0  0  0  0  0  0  0  0  0
   21.1614   -9.9728  -15.6065 C   0  0  0  0  0  0  0  0  0  0  0  0
   22.5096   -9.4365  -16.0687 C   0  0  2  0  0  0  0  0  0  0  0  0
   23.5039  -10.4470  -15.9009 N   0  0  0  0  0  0  0  0  0  0  0  0
   22.7716   -8.2048  -15.3211 C   0  0  0  0  0  0  0  0  0  0  0  0
   23.2032   -8.3067  -14.1464 O   0  0  0  0  0  0  0  0  0  0  0  0
   22.4321   -4.3075  -16.8708 O   0  0  0  0  0  0  0  0  0  0  0  0
   23.3709   -4.5677  -15.8740 C   0  0  0  0  0  0  0  0  0  0  0  0
   22.9103   -5.7426  -15.0328 C   0  0  2  0  0  0  0  0  0  0  0  0
   22.5758   -6.8874  -15.8198 N   0  0  0  0  0  0  0  0  0  0  0  0
   21.7969   -5.2975  -14.1561 C   0  0  0  0  0  0  0  0  0  0  0  0
   22.1099   -4.3422  -13.1868 O   0  0  0  0  0  0  0  0  0  0  0  0
   20.6280   -5.7373  -14.2565 O   0  0  0  0  0  0  0  0  0  0  0  0
  2  1  1  6
  2  3  1  0
  3  4  1  0
  5  2  1  0
  5 13  1  0
  6  5  2  0
  7  8  1  0
  8 10  1  0
  8  9  2  0
 10 11  1  0
 12 11  1  1
 12 13  1  0
 12 14  1  0
 14 15  2  0
 14 19  1  0
 16 17  1  0
 18 17  1  6
 18 20  1  0
 19 18  1  0
 20 21  1  0
 22 20  2  0
M  END
$$$$
