CQS.pdb
     RDKit          3D

 22 21  0  0  1  0  0  0  0  0999 V2000
   24.4288  -11.9268  -16.8074 N   0  0  0  0  0  0  0  0  0  0  0  0
   24.5064  -10.8183  -15.8611 C   0  0  1  0  0  0  0  0  0  0  0  0
   25.8233  -10.0847  -16.0747 C   0  0  0  0  0  0  0  0  0  0  0  0
   27.1423  -11.0995  -15.3610 S   0  0  0  0  0  0  0  0  0  0  0  0
   23.3895   -9.8860  -16.0885 C   0  0  0  0  0  0  0  0  0  0  0  0
   23.1480   -9.5250  -17.2724 O   0  0  0  0  0  0  0  0  0  0  0  0
   18.5058   -9.3833  -12.3559 N   0  0  0  0  0  0  0  0  0  0  0  0
   18.1971   -8.3711  -13.2998 C   0  0  0  0  0  0  0  0  0  0  0  0
   17.0683   -7.8092  -13.2601 O   0  0  0  0  0  0  0  0  0  0  0  0
   19.2038   -7.9958  -14.3099 C   0  0  0  0  0  0  0  0  0  0  0  0
   20.4470   -8.8505  -14.1046 C   0  0  0  0  0  0  0  0  0  0  0  0
   21.4557   -8.5855  -15.2142 C   0  0  2  0  0  0  0  0  0  0  0  0
   22.6067   -9.4058  -15.0136 N   0  0  0  0  0  0  0  0  0  0  0  0
   21.7350   -7.1479  -15.2191 C   0  0  0  0  0  0  0  0  0  0  0  0
   22.4460   -6.6807  -14.2957 O   0  0  0  0  0  0  0  0  0  0  0  0
   22.7372   -3.0584  -17.2576 O   0  0  0  0  0  0  0  0  0  0  0  0
   22.2762   -4.3630  -17.4260 C   0  0  0  0  0  0  0  0  0  0  0  0
   21.6287   -4.8455  -16.1423 C   0  0  2  0  0  0  0  0  0  0  0  0
   21.2630   -6.2259  -16.1935 N   0  0  0  0  0  0  0  0  0  0  0  0
   20.4846   -3.9552  -15.8182 C   0  0  0  0  0  0  0  0  0  0  0  0
   20.7243   -2.9474  -14.8818 O   0  0  0  0  0  0  0  0  0  0  0  0
   19.3524   -4.0769  -16.3407 O   0  0  0  0  0  0  0  0  0  0  0  0
  2  1  1  6
  2  3  1  0
  3  4  1  0
  5  2  1  0
  5 13  1  0
  6  5  2  0
  7  8  1  0
  8 10  1  0
  8  9  2  0
 10 11  1  0
 12 11  1  1
 12 13  1  0
 12 14  1  0
 14 15  2  0
 14 19  1  0
 16 17  1  0
 18 17  1  6
 18 20  1  0
 19 18  1  0
 20 21  1  0
 22 20  2  0
M  END
$$$$
