CQS.pdb
     RDKit          3D

 22 21  0  0  1  0  0  0  0  0999 V2000
   14.4065  -12.7725  -10.5136 N   0  0  0  0  0  0  0  0  0  0  0  0
   14.2634  -11.5038  -11.2208 C   0  0  1  0  0  0  0  0  0  0  0  0
   12.8549  -10.9728  -10.9918 C   0  0  0  0  0  0  0  0  0  0  0  0
   11.7101  -12.0299  -11.9144 S   0  0  0  0  0  0  0  0  0  0  0  0
   15.2388  -10.5292  -10.7041 C   0  0  0  0  0  0  0  0  0  0  0  0
   15.3977  -10.4516   -9.4555 O   0  0  0  0  0  0  0  0  0  0  0  0
   20.0310   -8.2074  -13.8813 N   0  0  0  0  0  0  0  0  0  0  0  0
   20.1863   -7.5440  -12.6377 C   0  0  0  0  0  0  0  0  0  0  0  0
   21.2293   -6.8684  -12.4209 O   0  0  0  0  0  0  0  0  0  0  0  0
   19.1233   -7.6580  -11.6219 C   0  0  0  0  0  0  0  0  0  0  0  0
   18.0598   -8.6214  -12.1308 C   0  0  0  0  0  0  0  0  0  0  0  0
   16.9422   -8.7591  -11.1056 C   0  0  2  0  0  0  0  0  0  0  0  0
   15.9793   -9.7010  -11.5786 N   0  0  0  0  0  0  0  0  0  0  0  0
   16.4035   -7.4195  -10.8612 C   0  0  0  0  0  0  0  0  0  0  0  0
   15.7550   -6.8658  -11.7829 O   0  0  0  0  0  0  0  0  0  0  0  0
   14.9406   -3.9337   -7.8682 O   0  0  0  0  0  0  0  0  0  0  0  0
   15.6311   -5.1384   -7.9881 C   0  0  0  0  0  0  0  0  0  0  0  0
   15.8747   -5.4437   -9.4535 C   0  0  2  0  0  0  0  0  0  0  0  0
   16.5549   -6.6844   -9.6532 N   0  0  0  0  0  0  0  0  0  0  0  0
   16.5785   -4.2915  -10.0729 C   0  0  0  0  0  0  0  0  0  0  0  0
   15.8037   -3.1635  -10.3509 O   0  0  0  0  0  0  0  0  0  0  0  0
   17.8019   -4.3009  -10.3434 O   0  0  0  0  0  0  0  0  0  0  0  0
  2  1  1  1
  2  3  1  0
  3  4  1  0
  5  2  1  0
  5 13  1  0
  6  5  2  0
  7  8  1  0
  8 10  1  0
  8  9  2  0
 10 11  1  0
 12 11  1  6
 12 13  1  0
 12 14  1  0
 14 15  2  0
 14 19  1  0
 16 17  1  0
 18 17  1  1
 18 20  1  0
 19 18  1  0
 20 21  1  0
 22 20  2  0
M  END
$$$$
