CQS.pdb
     RDKit          3D

 22 21  0  0  1  0  0  0  0  0999 V2000
   17.0031  -12.0891  -17.1024 N   0  0  0  0  0  0  0  0  0  0  0  0
   17.6449  -11.4221  -15.9739 C   0  0  1  0  0  0  0  0  0  0  0  0
   18.8495  -12.2460  -15.5401 C   0  0  0  0  0  0  0  0  0  0  0  0
   18.2332  -13.7005  -14.6549 S   0  0  0  0  0  0  0  0  0  0  0  0
   18.0954  -10.0790  -16.3757 C   0  0  0  0  0  0  0  0  0  0  0  0
   18.5678   -9.9325  -17.5356 O   0  0  0  0  0  0  0  0  0  0  0  0
   16.3294   -6.1026  -18.0960 N   0  0  0  0  0  0  0  0  0  0  0  0
   17.0843   -5.0704  -17.4834 C   0  0  0  0  0  0  0  0  0  0  0  0
   17.2301   -3.9695  -18.0818 O   0  0  0  0  0  0  0  0  0  0  0  0
   17.6843   -5.3059  -16.1570 C   0  0  0  0  0  0  0  0  0  0  0  0
   17.2788   -6.6918  -15.6742 C   0  0  0  0  0  0  0  0  0  0  0  0
   18.4329   -7.6689  -15.8532 C   0  0  2  0  0  0  0  0  0  0  0  0
   18.0031   -8.9809  -15.4900 N   0  0  0  0  0  0  0  0  0  0  0  0
   19.5602   -7.1655  -15.0656 C   0  0  0  0  0  0  0  0  0  0  0  0
   19.4672   -7.1959  -13.8138 O   0  0  0  0  0  0  0  0  0  0  0  0
   23.4311   -7.4860  -15.9359 O   0  0  0  0  0  0  0  0  0  0  0  0
   23.1748   -6.2089  -15.4399 C   0  0  0  0  0  0  0  0  0  0  0  0
   21.8218   -6.1891  -14.7550 C   0  0  2  0  0  0  0  0  0  0  0  0
   20.7657   -6.6390  -15.6060 N   0  0  0  0  0  0  0  0  0  0  0  0
   21.5827   -4.8302  -14.2048 C   0  0  0  0  0  0  0  0  0  0  0  0
   20.4435   -4.1640  -14.6612 O   0  0  0  0  0  0  0  0  0  0  0  0
   22.3447   -4.2837  -13.3737 O   0  0  0  0  0  0  0  0  0  0  0  0
  2  1  1  6
  2  3  1  0
  3  4  1  0
  5  2  1  0
  5 13  1  0
  6  5  2  0
  7  8  1  0
  8 10  1  0
  8  9  2  0
 10 11  1  0
 12 11  1  1
 12 13  1  0
 12 14  1  0
 14 15  2  0
 14 19  1  0
 16 17  1  0
 18 17  1  6
 18 20  1  0
 19 18  1  0
 20 21  1  0
 22 20  2  0
M  END
$$$$
