CQS.pdb
     RDKit          3D

 22 21  0  0  1  0  0  0  0  0999 V2000
   15.0478  -11.6367   -9.9966 N   0  0  0  0  0  0  0  0  0  0  0  0
   14.4832  -10.3345  -10.3371 C   0  0  1  0  0  0  0  0  0  0  0  0
   13.1410  -10.1850   -9.6341 C   0  0  0  0  0  0  0  0  0  0  0  0
   12.0149  -11.4228  -10.3261 S   0  0  0  0  0  0  0  0  0  0  0  0
   15.3879   -9.2631   -9.8878 C   0  0  0  0  0  0  0  0  0  0  0  0
   15.9092   -9.3655   -8.7441 O   0  0  0  0  0  0  0  0  0  0  0  0
   19.4278   -6.4679  -13.2803 N   0  0  0  0  0  0  0  0  0  0  0  0
   19.8809   -6.3449  -11.9423 C   0  0  0  0  0  0  0  0  0  0  0  0
   21.0896   -6.0598  -11.7203 O   0  0  0  0  0  0  0  0  0  0  0  0
   18.9281   -6.5531  -10.8362 C   0  0  0  0  0  0  0  0  0  0  0  0
   17.5485   -6.8227  -11.4214 C   0  0  0  0  0  0  0  0  0  0  0  0
   16.5504   -7.1021  -10.3058 C   0  0  2  0  0  0  0  0  0  0  0  0
   15.6678   -8.1485  -10.7113 N   0  0  0  0  0  0  0  0  0  0  0  0
   15.8804   -5.8388   -9.9898 C   0  0  0  0  0  0  0  0  0  0  0  0
   15.1743   -5.3052  -10.8803 O   0  0  0  0  0  0  0  0  0  0  0  0
   13.7229   -2.6343   -7.3421 O   0  0  0  0  0  0  0  0  0  0  0  0
   14.2322   -3.9185   -7.5266 C   0  0  0  0  0  0  0  0  0  0  0  0
   15.3449   -3.8834   -8.5565 C   0  0  2  0  0  0  0  0  0  0  0  0
   15.9637   -5.1577   -8.7442 N   0  0  0  0  0  0  0  0  0  0  0  0
   16.3119   -2.8200   -8.1818 C   0  0  0  0  0  0  0  0  0  0  0  0
   15.8201   -1.5134   -8.1482 O   0  0  0  0  0  0  0  0  0  0  0  0
   17.5117   -3.0515   -7.9050 O   0  0  0  0  0  0  0  0  0  0  0  0
  2  1  1  1
  2  3  1  0
  3  4  1  0
  5  2  1  0
  5 13  1  0
  6  5  2  0
  7  8  1  0
  8 10  1  0
  8  9  2  0
 10 11  1  0
 12 11  1  6
 12 13  1  0
 12 14  1  0
 14 15  2  0
 14 19  1  0
 16 17  1  0
 18 17  1  1
 18 20  1  0
 19 18  1  0
 20 21  1  0
 22 20  2  0
M  END
$$$$
