CQS.pdb
     RDKit          3D

 22 21  0  0  1  0  0  0  0  0999 V2000
   19.1060  -27.3262   -3.0921 N   0  0  0  0  0  0  0  0  0  0  0  0
   18.8382  -27.9725   -1.8112 C   0  0  1  0  0  0  0  0  0  0  0  0
   20.0662  -28.7745   -1.4024 C   0  0  0  0  0  0  0  0  0  0  0  0
   20.2879  -30.1006   -2.6153 S   0  0  0  0  0  0  0  0  0  0  0  0
   18.5602  -26.9543   -0.7844 C   0  0  0  0  0  0  0  0  0  0  0  0
   19.2223  -25.8815   -0.8162 O   0  0  0  0  0  0  0  0  0  0  0  0
   13.1086  -26.3698    2.0262 N   0  0  0  0  0  0  0  0  0  0  0  0
   13.8090  -25.2731    2.5896 C   0  0  0  0  0  0  0  0  0  0  0  0
   13.1907  -24.4511    3.3200 O   0  0  0  0  0  0  0  0  0  0  0  0
   15.2483  -25.1161    2.3095 C   0  0  0  0  0  0  0  0  0  0  0  0
   15.7048  -26.2690    1.4260 C   0  0  0  0  0  0  0  0  0  0  0  0
   17.1947  -26.1495    1.1348 C   0  0  2  0  0  0  0  0  0  0  0  0
   17.5798  -27.1680    0.2115 N   0  0  0  0  0  0  0  0  0  0  0  0
   17.8983  -26.2035    2.4180 C   0  0  0  0  0  0  0  0  0  0  0  0
   18.1202  -27.3312    2.9236 O   0  0  0  0  0  0  0  0  0  0  0  0
   20.7723  -24.3146    5.7747 O   0  0  0  0  0  0  0  0  0  0  0  0
   19.9308  -24.0160    4.7046 C   0  0  0  0  0  0  0  0  0  0  0  0
   19.0801  -25.2264    4.3707 C   0  0  2  0  0  0  0  0  0  0  0  0
   18.3568  -25.0724    3.1480 N   0  0  0  0  0  0  0  0  0  0  0  0
   18.2009  -25.5288    5.5292 C   0  0  0  0  0  0  0  0  0  0  0  0
   18.5428  -26.6436    6.2974 O   0  0  0  0  0  0  0  0  0  0  0  0
   17.1982  -24.8389    5.8269 O   0  0  0  0  0  0  0  0  0  0  0  0
  2  1  1  6
  2  3  1  0
  3  4  1  0
  5  2  1  0
  5 13  1  0
  6  5  2  0
  7  8  1  0
  8 10  1  0
  8  9  2  0
 10 11  1  0
 12 11  1  1
 12 13  1  0
 12 14  1  0
 14 15  2  0
 14 19  1  0
 16 17  1  0
 18 17  1  1
 18 20  1  0
 19 18  1  0
 20 21  1  0
 22 20  2  0
M  END
$$$$
