CQS.pdb
     RDKit          3D

 22 21  0  0  1  0  0  0  0  0999 V2000
   19.9907  -15.3844  -16.1529 N   0  0  0  0  0  0  0  0  0  0  0  0
   19.1588  -14.3318  -16.7277 C   0  0  1  0  0  0  0  0  0  0  0  0
   17.9051  -14.1807  -15.8772 C   0  0  0  0  0  0  0  0  0  0  0  0
   16.9631  -15.7220  -16.0042 S   0  0  0  0  0  0  0  0  0  0  0  0
   19.8965  -13.0575  -16.7346 C   0  0  0  0  0  0  0  0  0  0  0  0
   20.5628  -12.7505  -15.7088 O   0  0  0  0  0  0  0  0  0  0  0  0
   23.5491  -10.9079  -20.2675 N   0  0  0  0  0  0  0  0  0  0  0  0
   23.1639   -9.5888  -19.9180 C   0  0  0  0  0  0  0  0  0  0  0  0
   23.9573   -8.6325  -20.1356 O   0  0  0  0  0  0  0  0  0  0  0  0
   21.8414   -9.3619  -19.3063 C   0  0  0  0  0  0  0  0  0  0  0  0
   21.0826  -10.6816  -19.2745 C   0  0  0  0  0  0  0  0  0  0  0  0
   20.5379  -10.9407  -17.8763 C   0  0  2  0  0  0  0  0  0  0  0  0
   19.8625  -12.1983  -17.8568 N   0  0  0  0  0  0  0  0  0  0  0  0
   19.6944   -9.7992  -17.5155 C   0  0  0  0  0  0  0  0  0  0  0  0
   18.5048   -9.7928  -17.9173 O   0  0  0  0  0  0  0  0  0  0  0  0
   17.3818   -7.0075  -14.9850 O   0  0  0  0  0  0  0  0  0  0  0  0
   18.2779   -8.0426  -15.2454 C   0  0  0  0  0  0  0  0  0  0  0  0
   19.1999   -7.6460  -16.3824 C   0  0  2  0  0  0  0  0  0  0  0  0
   20.1146   -8.6842  -16.7391 N   0  0  0  0  0  0  0  0  0  0  0  0
   19.8786   -6.3732  -16.0278 C   0  0  0  0  0  0  0  0  0  0  0  0
   19.0575   -5.2589  -15.8428 O   0  0  0  0  0  0  0  0  0  0  0  0
   21.1204   -6.2730  -15.8944 O   0  0  0  0  0  0  0  0  0  0  0  0
  2  1  1  1
  2  3  1  0
  3  4  1  0
  5  2  1  0
  5 13  1  0
  6  5  2  0
  7  8  1  0
  8 10  1  0
  8  9  2  0
 10 11  1  0
 12 11  1  6
 12 13  1  0
 12 14  1  0
 14 15  2  0
 14 19  1  0
 16 17  1  0
 18 17  1  1
 18 20  1  0
 19 18  1  0
 20 21  1  0
 22 20  2  0
M  END
$$$$
