CQS.pdb
     RDKit          3D

 22 21  0  0  1  0  0  0  0  0999 V2000
   26.2142  -12.3465  -17.2775 N   0  0  0  0  0  0  0  0  0  0  0  0
   26.0608  -11.1999  -16.3875 C   0  0  1  0  0  0  0  0  0  0  0  0
   27.3881  -10.4577  -16.3135 C   0  0  0  0  0  0  0  0  0  0  0  0
   28.5156  -11.4438  -15.2960 S   0  0  0  0  0  0  0  0  0  0  0  0
   25.0266  -10.2927  -16.9126 C   0  0  0  0  0  0  0  0  0  0  0  0
   24.9320  -10.1590  -18.1630 O   0  0  0  0  0  0  0  0  0  0  0  0
   19.3701  -10.4270  -15.8201 N   0  0  0  0  0  0  0  0  0  0  0  0
   20.0401  -10.8656  -16.9903 C   0  0  0  0  0  0  0  0  0  0  0  0
   19.4793  -11.7024  -17.7497 O   0  0  0  0  0  0  0  0  0  0  0  0
   21.3811  -10.3334  -17.2958 C   0  0  0  0  0  0  0  0  0  0  0  0
   21.7722   -9.3377  -16.2123 C   0  0  0  0  0  0  0  0  0  0  0  0
   23.1310   -8.7263  -16.5267 C   0  0  2  0  0  0  0  0  0  0  0  0
   24.1612   -9.5887  -16.0441 N   0  0  0  0  0  0  0  0  0  0  0  0
   23.1517   -7.3815  -15.9474 C   0  0  0  0  0  0  0  0  0  0  0  0
   23.4749   -7.2628  -14.7400 O   0  0  0  0  0  0  0  0  0  0  0  0
   22.7399   -2.5607  -16.2307 O   0  0  0  0  0  0  0  0  0  0  0  0
   22.5680   -3.7613  -16.9174 C   0  0  0  0  0  0  0  0  0  0  0  0
   22.7820   -4.9264  -15.9705 C   0  0  2  0  0  0  0  0  0  0  0  0
   22.8326   -6.1846  -16.6460 N   0  0  0  0  0  0  0  0  0  0  0  0
   21.7425   -4.8800  -14.9104 C   0  0  0  0  0  0  0  0  0  0  0  0
   22.0895   -4.2289  -13.7247 O   0  0  0  0  0  0  0  0  0  0  0  0
   20.6053   -5.3889  -15.0431 O   0  0  0  0  0  0  0  0  0  0  0  0
  2  1  1  6
  2  3  1  0
  3  4  1  0
  5  2  1  0
  5 13  1  0
  6  5  2  0
  7  8  1  0
  8 10  1  0
  8  9  2  0
 10 11  1  0
 12 11  1  1
 12 13  1  0
 12 14  1  0
 14 15  2  0
 14 19  1  0
 16 17  1  0
 18 17  1  6
 18 20  1  0
 19 18  1  0
 20 21  1  0
 22 20  2  0
M  END
$$$$
