CQS.pdb
     RDKit          3D

 22 21  0  0  1  0  0  0  0  0999 V2000
   25.7145  -17.6567  -16.9409 N   0  0  0  0  0  0  0  0  0  0  0  0
   25.0615  -16.8538  -15.9118 C   0  0  1  0  0  0  0  0  0  0  0  0
   26.0203  -15.7589  -15.4647 C   0  0  0  0  0  0  0  0  0  0  0  0
   27.3552  -16.5439  -14.5262 S   0  0  0  0  0  0  0  0  0  0  0  0
   23.8409  -16.2365  -16.4571 C   0  0  0  0  0  0  0  0  0  0  0  0
   23.9136  -15.6653  -17.5790 O   0  0  0  0  0  0  0  0  0  0  0  0
   18.0796  -17.6966  -14.6505 N   0  0  0  0  0  0  0  0  0  0  0  0
   17.8112  -16.7913  -15.7085 C   0  0  0  0  0  0  0  0  0  0  0  0
   16.6249  -16.6406  -16.1102 O   0  0  0  0  0  0  0  0  0  0  0  0
   18.9266  -16.0436  -16.3180 C   0  0  0  0  0  0  0  0  0  0  0  0
   20.2194  -16.4289  -15.6120 C   0  0  0  0  0  0  0  0  0  0  0  0
   21.4062  -15.7494  -16.2818 C   0  0  2  0  0  0  0  0  0  0  0  0
   22.6190  -16.2798  -15.7472 N   0  0  0  0  0  0  0  0  0  0  0  0
   21.2475  -14.3055  -16.0959 C   0  0  0  0  0  0  0  0  0  0  0  0
   21.5787  -13.8120  -14.9899 O   0  0  0  0  0  0  0  0  0  0  0  0
   22.3358  -11.4129  -18.3699 O   0  0  0  0  0  0  0  0  0  0  0  0
   21.0174  -11.1507  -18.0018 C   0  0  0  0  0  0  0  0  0  0  0  0
   20.6413  -12.0051  -16.8065 C   0  0  2  0  0  0  0  0  0  0  0  0
   20.7438  -13.4049  -17.0744 N   0  0  0  0  0  0  0  0  0  0  0  0
   19.2910  -11.6032  -16.3356 C   0  0  0  0  0  0  0  0  0  0  0  0
   19.1326  -10.2670  -15.9623 O   0  0  0  0  0  0  0  0  0  0  0  0
   18.3251  -12.3982  -16.2658 O   0  0  0  0  0  0  0  0  0  0  0  0
  2  1  1  6
  2  3  1  0
  3  4  1  0
  5  2  1  0
  5 13  1  0
  6  5  2  0
  7  8  1  0
  8 10  1  0
  8  9  2  0
 10 11  1  0
 12 11  1  1
 12 13  1  0
 12 14  1  0
 14 15  2  0
 14 19  1  0
 16 17  1  0
 18 17  1  6
 18 20  1  0
 19 18  1  0
 20 21  1  0
 22 20  2  0
M  END
$$$$
