CQS.pdb
     RDKit          3D

 22 21  0  0  1  0  0  0  0  0999 V2000
   25.9933  -12.6767  -17.4578 N   0  0  0  0  0  0  0  0  0  0  0  0
   25.9809  -11.6102  -16.4615 C   0  0  1  0  0  0  0  0  0  0  0  0
   27.4019  -11.0945  -16.2800 C   0  0  0  0  0  0  0  0  0  0  0  0
   28.2636  -12.2323  -15.1655 S   0  0  0  0  0  0  0  0  0  0  0  0
   25.1195  -10.5070  -16.9189 C   0  0  0  0  0  0  0  0  0  0  0  0
   25.3803   -9.9702  -18.0298 O   0  0  0  0  0  0  0  0  0  0  0  0
   19.4323  -10.6604  -17.5720 N   0  0  0  0  0  0  0  0  0  0  0  0
   20.5511  -11.1968  -18.2585 C   0  0  0  0  0  0  0  0  0  0  0  0
   20.3751  -12.1013  -19.1201 O   0  0  0  0  0  0  0  0  0  0  0  0
   21.8994  -10.6852  -17.9503 C   0  0  0  0  0  0  0  0  0  0  0  0
   21.7828   -9.6085  -16.8800 C   0  0  0  0  0  0  0  0  0  0  0  0
   23.1536   -9.0190  -16.5766 C   0  0  2  0  0  0  0  0  0  0  0  0
   24.0294  -10.0579  -16.1387 N   0  0  0  0  0  0  0  0  0  0  0  0
   22.9626   -7.9427  -15.6022 C   0  0  0  0  0  0  0  0  0  0  0  0
   22.8635   -8.2536  -14.3897 O   0  0  0  0  0  0  0  0  0  0  0  0
   22.8591   -3.8354  -16.5039 O   0  0  0  0  0  0  0  0  0  0  0  0
   23.2603   -4.2351  -15.2304 C   0  0  0  0  0  0  0  0  0  0  0  0
   22.6461   -5.5820  -14.9008 C   0  0  2  0  0  0  0  0  0  0  0  0
   22.8788   -6.5585  -15.9177 N   0  0  0  0  0  0  0  0  0  0  0  0
   21.2039   -5.3910  -14.6008 C   0  0  0  0  0  0  0  0  0  0  0  0
   20.8972   -4.6169  -13.4797 O   0  0  0  0  0  0  0  0  0  0  0  0
   20.2877   -5.8854  -15.2980 O   0  0  0  0  0  0  0  0  0  0  0  0
  2  1  1  6
  2  3  1  0
  3  4  1  0
  5  2  1  0
  5 13  1  0
  6  5  2  0
  7  8  1  0
  8 10  1  0
  8  9  2  0
 10 11  1  0
 12 11  1  1
 12 13  1  0
 12 14  1  0
 14 15  2  0
 14 19  1  0
 16 17  1  0
 18 17  1  6
 18 20  1  0
 19 18  1  0
 20 21  1  0
 22 20  2  0
M  END
$$$$
