CQS.pdb
     RDKit          3D

 22 21  0  0  1  0  0  0  0  0999 V2000
   16.5328  -12.6098  -10.1449 N   0  0  0  0  0  0  0  0  0  0  0  0
   15.8723  -11.3937  -10.6088 C   0  0  1  0  0  0  0  0  0  0  0  0
   14.4751  -11.3364  -10.0067 C   0  0  0  0  0  0  0  0  0  0  0  0
   13.5615  -12.7854  -10.5939 S   0  0  0  0  0  0  0  0  0  0  0  0
   16.6360  -10.2118  -10.1750 C   0  0  0  0  0  0  0  0  0  0  0  0
   17.0513  -10.1761   -8.9849 O   0  0  0  0  0  0  0  0  0  0  0  0
   20.8767   -7.3329  -13.2567 N   0  0  0  0  0  0  0  0  0  0  0  0
   20.7144   -6.3898  -12.2103 C   0  0  0  0  0  0  0  0  0  0  0  0
   21.5631   -5.4671  -12.0694 O   0  0  0  0  0  0  0  0  0  0  0  0
   19.5548   -6.5076  -11.3069 C   0  0  0  0  0  0  0  0  0  0  0  0
   18.7596   -7.7486  -11.6886 C   0  0  0  0  0  0  0  0  0  0  0  0
   17.6508   -7.9945  -10.6742 C   0  0  2  0  0  0  0  0  0  0  0  0
   16.8993   -9.1441  -11.0636 N   0  0  0  0  0  0  0  0  0  0  0  0
   16.8622   -6.7642  -10.5792 C   0  0  0  0  0  0  0  0  0  0  0  0
   16.2056   -6.4035  -11.5869 O   0  0  0  0  0  0  0  0  0  0  0  0
   14.6628   -3.2939   -8.0490 O   0  0  0  0  0  0  0  0  0  0  0  0
   15.6042   -4.3206   -7.9999 C   0  0  0  0  0  0  0  0  0  0  0  0
   15.9266   -4.7854   -9.4071 C   0  0  2  0  0  0  0  0  0  0  0  0
   16.7767   -5.9338   -9.4279 N   0  0  0  0  0  0  0  0  0  0  0  0
   16.4808   -3.6410  -10.1750 C   0  0  0  0  0  0  0  0  0  0  0  0
   15.5554   -2.8039  -10.8018 O   0  0  0  0  0  0  0  0  0  0  0  0
   17.7088   -3.4126  -10.2737 O   0  0  0  0  0  0  0  0  0  0  0  0
  2  1  1  1
  2  3  1  0
  3  4  1  0
  5  2  1  0
  5 13  1  0
  6  5  2  0
  7  8  1  0
  8 10  1  0
  8  9  2  0
 10 11  1  0
 12 11  1  6
 12 13  1  0
 12 14  1  0
 14 15  2  0
 14 19  1  0
 16 17  1  0
 18 17  1  1
 18 20  1  0
 19 18  1  0
 20 21  1  0
 22 20  2  0
M  END
$$$$
