FTW.pdb
     RDKit          3D

 33 35  0  0  1  0  0  0  0  0999 V2000
   20.6312  -20.2580  -15.3879 N   0  0  0  0  0  0  0  0  0  0  0  0
   21.5520  -19.4625  -14.6064 C   0  0  1  0  0  0  0  0  0  0  0  0
   20.6982  -18.3591  -13.9637 C   0  0  0  0  0  0  0  0  0  0  0  0
   20.5203  -17.2651  -14.9452 C   0  0  0  0  0  0  0  0  0  0  0  0
   21.5593  -16.3739  -15.1799 C   0  0  0  0  0  0  0  0  0  0  0  0
   21.4380  -15.3458  -16.0829 C   0  0  0  0  0  0  0  0  0  0  0  0
   20.2360  -15.2221  -16.7601 C   0  0  0  0  0  0  0  0  0  0  0  0
   19.1979  -16.1053  -16.5316 C   0  0  0  0  0  0  0  0  0  0  0  0
   19.3301  -17.1341  -15.6230 C   0  0  0  0  0  0  0  0  0  0  0  0
   22.1861  -20.3195  -13.5932 C   0  0  0  0  0  0  0  0  0  0  0  0
   21.4670  -21.0008  -12.7822 O   0  0  0  0  0  0  0  0  0  0  0  0
   24.0204  -23.3811  -13.9171 C   0  0  0  0  0  0  0  0  0  0  0  0
   24.8954  -22.4986  -13.0541 C   0  0  1  0  0  0  0  0  0  0  0  0
   25.8933  -21.9941  -13.8711 O   0  0  0  0  0  0  0  0  0  0  0  0
   24.1443  -21.3581  -12.4404 C   0  0  2  0  0  0  0  0  0  0  0  0
   23.5698  -20.4682  -13.4238 N   0  0  0  0  0  0  0  0  0  0  0  0
   25.0564  -20.6252  -11.5257 C   0  0  0  0  0  0  0  0  0  0  0  0
   25.5562  -19.4968  -11.8836 O   0  0  0  0  0  0  0  0  0  0  0  0
   25.4479  -21.0606  -10.2386 N   0  0  0  0  0  0  0  0  0  0  0  0
   26.4359  -20.3237   -9.4692 C   0  0  1  0  0  0  0  0  0  0  0  0
   26.4797  -20.7098   -8.0397 C   0  0  0  0  0  0  0  0  0  0  0  0
   27.5037  -19.9126   -7.3321 C   0  0  0  0  0  0  0  0  0  0  0  0
   28.0296  -18.6949   -7.7494 C   0  0  0  0  0  0  0  0  0  0  0  0
   28.9469  -18.2823   -6.8630 N   0  0  0  0  0  0  0  0  0  0  0  0
   29.0583  -19.1759   -5.8652 C   0  0  0  0  0  0  0  0  0  0  0  0
   29.8431  -19.2059   -4.7407 C   0  0  0  0  0  0  0  0  0  0  0  0
   29.7536  -20.2684   -3.8584 C   0  0  0  0  0  0  0  0  0  0  0  0
   28.8662  -21.2790   -4.1392 C   0  0  0  0  0  0  0  0  0  0  0  0
   28.0806  -21.2475   -5.2665 C   0  0  0  0  0  0  0  0  0  0  0  0
   28.1560  -20.2015   -6.1528 C   0  0  0  0  0  0  0  0  0  0  0  0
   27.7658  -20.5262  -10.0827 C   0  0  0  0  0  0  0  0  0  0  0  0
   28.6324  -19.4603  -10.2488 O   0  0  0  0  0  0  0  0  0  0  0  0
   28.1609  -21.6622  -10.4761 O   0  0  0  0  0  0  0  0  0  0  0  0
  2  1  1  6
  2 10  1  0
  2  3  1  0
  4  3  1  0
  4  5  2  0
  6  5  1  0
  7  6  2  0
  8  9  2  0
  8  7  1  0
  9  4  1  0
 10 11  2  0
 13 12  1  6
 13 14  1  0
 15 13  1  0
 15 16  1  6
 16 10  1  0
 17 15  1  0
 18 17  2  0
 19 17  1  0
 20 21  1  1
 20 19  1  0
 21 22  1  0
 22 30  1  0
 23 24  1  0
 23 22  2  0
 24 25  1  0
 25 30  2  0
 25 26  1  0
 26 27  2  0
 27 28  1  0
 29 28  2  0
 30 29  1  0
 31 20  1  0
 31 32  1  0
 33 31  2  0
M  END
$$$$
