FTW.pdb
     RDKit          3D

 33 35  0  0  1  0  0  0  0  0999 V2000
   26.1024  -17.4619  -16.6006 N   0  0  0  0  0  0  0  0  0  0  0  0
   26.9529  -17.8830  -15.5095 C   0  0  1  0  0  0  0  0  0  0  0  0
   27.8281  -16.6650  -15.1774 C   0  0  0  0  0  0  0  0  0  0  0  0
   28.8819  -16.5427  -16.2101 C   0  0  0  0  0  0  0  0  0  0  0  0
   29.8744  -17.5100  -16.3001 C   0  0  0  0  0  0  0  0  0  0  0  0
   30.8699  -17.4368  -17.2439 C   0  0  0  0  0  0  0  0  0  0  0  0
   30.8550  -16.3583  -18.1130 C   0  0  0  0  0  0  0  0  0  0  0  0
   29.8704  -15.3921  -18.0293 C   0  0  0  0  0  0  0  0  0  0  0  0
   28.8756  -15.4751  -17.0781 C   0  0  0  0  0  0  0  0  0  0  0  0
   26.1114  -18.2754  -14.3689 C   0  0  0  0  0  0  0  0  0  0  0  0
   24.8967  -17.8780  -14.2959 O   0  0  0  0  0  0  0  0  0  0  0  0
   23.6041  -19.4240  -13.7221 C   0  0  0  0  0  0  0  0  0  0  0  0
   24.4475  -20.2655  -12.7895 C   0  0  1  0  0  0  0  0  0  0  0  0
   24.8808  -21.3632  -13.5142 O   0  0  0  0  0  0  0  0  0  0  0  0
   25.6388  -19.5294  -12.2602 C   0  0  2  0  0  0  0  0  0  0  0  0
   26.5339  -19.0827  -13.3034 N   0  0  0  0  0  0  0  0  0  0  0  0
   26.3451  -20.4033  -11.2890 C   0  0  0  0  0  0  0  0  0  0  0  0
   27.1089  -21.3471  -11.7099 O   0  0  0  0  0  0  0  0  0  0  0  0
   26.2621  -20.2969   -9.8815 N   0  0  0  0  0  0  0  0  0  0  0  0
   26.4310  -21.4641   -9.0328 C   0  0  1  0  0  0  0  0  0  0  0  0
   27.7150  -21.4769   -8.2942 C   0  0  0  0  0  0  0  0  0  0  0  0
   27.7759  -20.3278   -7.3665 C   0  0  0  0  0  0  0  0  0  0  0  0
   27.1997  -19.0784   -7.5678 C   0  0  0  0  0  0  0  0  0  0  0  0
   27.4811  -18.2880   -6.5221 N   0  0  0  0  0  0  0  0  0  0  0  0
   28.2246  -18.9579   -5.6248 C   0  0  0  0  0  0  0  0  0  0  0  0
   28.7532  -18.5935   -4.4128 C   0  0  0  0  0  0  0  0  0  0  0  0
   29.4940  -19.5010   -3.6761 C   0  0  0  0  0  0  0  0  0  0  0  0
   29.6814  -20.7619   -4.1887 C   0  0  0  0  0  0  0  0  0  0  0  0
   29.1512  -21.1254   -5.4035 C   0  0  0  0  0  0  0  0  0  0  0  0
   28.4137  -20.2383   -6.1480 C   0  0  0  0  0  0  0  0  0  0  0  0
   25.3042  -21.5259   -8.0775 C   0  0  0  0  0  0  0  0  0  0  0  0
   24.2063  -20.6980   -8.2317 O   0  0  0  0  0  0  0  0  0  0  0  0
   25.2964  -22.3235   -7.0950 O   0  0  0  0  0  0  0  0  0  0  0  0
  2  1  1  6
  2 10  1  0
  2  3  1  0
  4  3  1  0
  4  5  2  0
  6  5  1  0
  7  6  2  0
  8  9  2  0
  8  7  1  0
  9  4  1  0
 10 11  2  0
 13 12  1  6
 13 14  1  0
 15 13  1  0
 15 16  1  6
 16 10  1  0
 17 15  1  0
 18 17  2  0
 19 17  1  0
 20 21  1  1
 20 19  1  0
 21 22  1  0
 22 30  1  0
 23 24  1  0
 23 22  2  0
 24 25  1  0
 25 30  2  0
 25 26  1  0
 26 27  2  0
 27 28  1  0
 29 28  2  0
 30 29  1  0
 31 20  1  0
 31 32  1  0
 33 31  2  0
M  END
$$$$
