FTW.pdb
     RDKit          3D

 33 35  0  0  1  0  0  0  0  0999 V2000
   26.6817  -18.2256  -16.6998 N   0  0  0  0  0  0  0  0  0  0  0  0
   27.2818  -18.3882  -15.3941 C   0  0  1  0  0  0  0  0  0  0  0  0
   27.7428  -16.9837  -14.9763 C   0  0  0  0  0  0  0  0  0  0  0  0
   28.8352  -16.5552  -15.8790 C   0  0  0  0  0  0  0  0  0  0  0  0
   29.9654  -17.3501  -16.0191 C   0  0  0  0  0  0  0  0  0  0  0  0
   31.0015  -16.9918  -16.8468 C   0  0  0  0  0  0  0  0  0  0  0  0
   30.8853  -15.8013  -17.5455 C   0  0  0  0  0  0  0  0  0  0  0  0
   29.7635  -15.0054  -17.4110 C   0  0  0  0  0  0  0  0  0  0  0  0
   28.7290  -15.3745  -16.5773 C   0  0  0  0  0  0  0  0  0  0  0  0
   26.2756  -18.9287  -14.4675 C   0  0  0  0  0  0  0  0  0  0  0  0
   25.1049  -18.4137  -14.4136 O   0  0  0  0  0  0  0  0  0  0  0  0
   24.3558  -21.8073  -14.6201 C   0  0  0  0  0  0  0  0  0  0  0  0
   24.9328  -21.8664  -13.2227 C   0  0  1  0  0  0  0  0  0  0  0  0
   25.9809  -22.7709  -13.2548 O   0  0  0  0  0  0  0  0  0  0  0  0
   25.4459  -20.5419  -12.7495 C   0  0  2  0  0  0  0  0  0  0  0  0
   26.4876  -20.0065  -13.5963 N   0  0  0  0  0  0  0  0  0  0  0  0
   25.9187  -20.6876  -11.3492 C   0  0  0  0  0  0  0  0  0  0  0  0
   27.1774  -20.7529  -11.0986 O   0  0  0  0  0  0  0  0  0  0  0  0
   25.0868  -20.7627  -10.2082 N   0  0  0  0  0  0  0  0  0  0  0  0
   25.6465  -21.0117   -8.8907 C   0  0  1  0  0  0  0  0  0  0  0  0
   26.6583  -20.0108   -8.4796 C   0  0  0  0  0  0  0  0  0  0  0  0
   26.9940  -20.1889   -7.0512 C   0  0  0  0  0  0  0  0  0  0  0  0
   26.3385  -21.0218   -6.1512 C   0  0  0  0  0  0  0  0  0  0  0  0
   26.9108  -20.9064   -4.9443 N   0  0  0  0  0  0  0  0  0  0  0  0
   27.9266  -20.0277   -4.9979 C   0  0  0  0  0  0  0  0  0  0  0  0
   28.8049  -19.5778   -4.0454 C   0  0  0  0  0  0  0  0  0  0  0  0
   29.7783  -18.6523   -4.3789 C   0  0  0  0  0  0  0  0  0  0  0  0
   29.8376  -18.2036   -5.6761 C   0  0  0  0  0  0  0  0  0  0  0  0
   28.9566  -18.6553   -6.6294 C   0  0  0  0  0  0  0  0  0  0  0  0
   27.9846  -19.5733   -6.3167 C   0  0  0  0  0  0  0  0  0  0  0  0
   24.5461  -21.0444   -7.9037 C   0  0  0  0  0  0  0  0  0  0  0  0
   24.7722  -21.4926   -6.6143 O   0  0  0  0  0  0  0  0  0  0  0  0
   23.3714  -20.6719   -8.1911 O   0  0  0  0  0  0  0  0  0  0  0  0
  2  1  1  6
  2 10  1  0
  2  3  1  0
  4  3  1  0
  4  5  2  0
  6  5  1  0
  7  6  2  0
  8  9  2  0
  8  7  1  0
  9  4  1  0
 10 11  2  0
 13 12  1  6
 13 14  1  0
 15 13  1  0
 15 16  1  6
 16 10  1  0
 17 15  1  0
 18 17  2  0
 19 17  1  0
 20 21  1  1
 20 19  1  0
 21 22  1  0
 22 30  1  0
 23 24  1  0
 23 22  2  0
 24 25  1  0
 25 30  2  0
 25 26  1  0
 26 27  2  0
 27 28  1  0
 29 28  2  0
 30 29  1  0
 31 20  1  0
 31 32  1  0
 33 31  2  0
M  END
$$$$
