FTW.pdb
     RDKit          3D

 33 35  0  0  1  0  0  0  0  0999 V2000
   22.2718   -8.1645  -23.6101 N   0  0  0  0  0  0  0  0  0  0  0  0
   23.3860   -8.4600  -22.7369 C   0  0  1  0  0  0  0  0  0  0  0  0
   24.6448   -8.1073  -23.5435 C   0  0  0  0  0  0  0  0  0  0  0  0
   24.8184   -9.1136  -24.6155 C   0  0  0  0  0  0  0  0  0  0  0  0
   24.8296  -10.4653  -24.2966 C   0  0  0  0  0  0  0  0  0  0  0  0
   24.9862  -11.4326  -25.2595 C   0  0  0  0  0  0  0  0  0  0  0  0
   25.1343  -11.0161  -26.5723 C   0  0  0  0  0  0  0  0  0  0  0  0
   25.1240   -9.6728  -26.8968 C   0  0  0  0  0  0  0  0  0  0  0  0
   24.9661   -8.7099  -25.9224 C   0  0  0  0  0  0  0  0  0  0  0  0
   23.2724   -7.6416  -21.5202 C   0  0  0  0  0  0  0  0  0  0  0  0
   24.1854   -7.6868  -20.6240 O   0  0  0  0  0  0  0  0  0  0  0  0
   23.4971   -4.0506  -20.9517 C   0  0  0  0  0  0  0  0  0  0  0  0
   22.1931   -4.4964  -20.3273 C   0  0  1  0  0  0  0  0  0  0  0  0
   21.1867   -4.1898  -21.2280 O   0  0  0  0  0  0  0  0  0  0  0  0
   22.1591   -5.9652  -20.0394 C   0  0  2  0  0  0  0  0  0  0  0  0
   22.2078   -6.7748  -21.2357 N   0  0  0  0  0  0  0  0  0  0  0  0
   20.9433   -6.2655  -19.2410 C   0  0  0  0  0  0  0  0  0  0  0  0
   19.8267   -6.4993  -19.8325 O   0  0  0  0  0  0  0  0  0  0  0  0
   20.8856   -6.3263  -17.8295 N   0  0  0  0  0  0  0  0  0  0  0  0
   19.6501   -6.6701  -17.1465 C   0  0  1  0  0  0  0  0  0  0  0  0
   19.5689   -8.0964  -16.7543 C   0  0  0  0  0  0  0  0  0  0  0  0
   20.7035   -8.4435  -15.8728 C   0  0  0  0  0  0  0  0  0  0  0  0
   20.9695   -7.8961  -14.6226 C   0  0  0  0  0  0  0  0  0  0  0  0
   22.0915   -8.4412  -14.1309 N   0  0  0  0  0  0  0  0  0  0  0  0
   22.5904   -9.3345  -15.0026 C   0  0  0  0  0  0  0  0  0  0  0  0
   23.6989  -10.1410  -14.9599 C   0  0  0  0  0  0  0  0  0  0  0  0
   23.9837  -10.9880  -16.0167 C   0  0  0  0  0  0  0  0  0  0  0  0
   23.1334  -10.9965  -17.0959 C   0  0  0  0  0  0  0  0  0  0  0  0
   22.0231  -10.1876  -17.1371 C   0  0  0  0  0  0  0  0  0  0  0  0
   21.7249   -9.3411  -16.0980 C   0  0  0  0  0  0  0  0  0  0  0  0
   19.5133   -5.8139  -15.9489 C   0  0  0  0  0  0  0  0  0  0  0  0
   18.3304   -5.7937  -15.2314 O   0  0  0  0  0  0  0  0  0  0  0  0
   20.4547   -5.0753  -15.5370 O   0  0  0  0  0  0  0  0  0  0  0  0
  2  1  1  6
  2 10  1  0
  2  3  1  0
  4  3  1  0
  4  5  2  0
  6  5  1  0
  7  6  2  0
  8  9  2  0
  8  7  1  0
  9  4  1  0
 10 11  2  0
 13 12  1  6
 13 14  1  0
 15 13  1  0
 15 16  1  6
 16 10  1  0
 17 15  1  0
 18 17  2  0
 19 17  1  0
 20 21  1  1
 20 19  1  0
 21 22  1  0
 22 30  1  0
 23 24  1  0
 23 22  2  0
 24 25  1  0
 25 30  2  0
 25 26  1  0
 26 27  2  0
 27 28  1  0
 29 28  2  0
 30 29  1  0
 31 20  1  0
 31 32  1  0
 33 31  2  0
M  END
$$$$
