FTW.pdb
     RDKit          3D

 33 35  0  0  1  0  0  0  0  0999 V2000
   28.6669  -20.9323   -9.2138 N   0  0  0  0  0  0  0  0  0  0  0  0
   27.2237  -20.8397   -9.2086 C   0  0  1  0  0  0  0  0  0  0  0  0
   26.8956  -19.5858   -8.3842 C   0  0  0  0  0  0  0  0  0  0  0  0
   27.4409  -19.7600   -7.0189 C   0  0  0  0  0  0  0  0  0  0  0  0
   26.9093  -20.7337   -6.1834 C   0  0  0  0  0  0  0  0  0  0  0  0
   27.3860  -20.9307   -4.9102 C   0  0  0  0  0  0  0  0  0  0  0  0
   28.4239  -20.1209   -4.4788 C   0  0  0  0  0  0  0  0  0  0  0  0
   28.9577  -19.1500   -5.3049 C   0  0  0  0  0  0  0  0  0  0  0  0
   28.4718  -18.9606   -6.5814 C   0  0  0  0  0  0  0  0  0  0  0  0
   26.7455  -20.7204  -10.5944 C   0  0  0  0  0  0  0  0  0  0  0  0
   27.5796  -20.5796  -11.5553 O   0  0  0  0  0  0  0  0  0  0  0  0
   24.8443  -23.3097  -12.5017 C   0  0  0  0  0  0  0  0  0  0  0  0
   25.4607  -22.0462  -13.0609 C   0  0  1  0  0  0  0  0  0  0  0  0
   25.1028  -21.9776  -14.3970 O   0  0  0  0  0  0  0  0  0  0  0  0
   24.9843  -20.8097  -12.3643 C   0  0  2  0  0  0  0  0  0  0  0  0
   25.3982  -20.7480  -10.9808 N   0  0  0  0  0  0  0  0  0  0  0  0
   23.5057  -20.7366  -12.4827 C   0  0  0  0  0  0  0  0  0  0  0  0
   22.7651  -20.9953  -11.4649 O   0  0  0  0  0  0  0  0  0  0  0  0
   22.7947  -20.3925  -13.6555 N   0  0  0  0  0  0  0  0  0  0  0  0
   21.3564  -20.1888  -13.6244 C   0  0  1  0  0  0  0  0  0  0  0  0
   20.8534  -19.3551  -14.7409 C   0  0  0  0  0  0  0  0  0  0  0  0
   21.2014  -17.9372  -14.5095 C   0  0  0  0  0  0  0  0  0  0  0  0
   22.4778  -17.4295  -14.2944 C   0  0  0  0  0  0  0  0  0  0  0  0
   22.4005  -16.1045  -14.1046 N   0  0  0  0  0  0  0  0  0  0  0  0
   21.1207  -15.7014  -14.1839 C   0  0  0  0  0  0  0  0  0  0  0  0
   20.5363  -14.4663  -14.0653 C   0  0  0  0  0  0  0  0  0  0  0  0
   19.1654  -14.3301  -14.1968 C   0  0  0  0  0  0  0  0  0  0  0  0
   18.4171  -15.4549  -14.4465 C   0  0  0  0  0  0  0  0  0  0  0  0
   19.0042  -16.6920  -14.5649 C   0  0  0  0  0  0  0  0  0  0  0  0
   20.3626  -16.8460  -14.4375 C   0  0  0  0  0  0  0  0  0  0  0  0
   20.6876  -21.5073  -13.6445 C   0  0  0  0  0  0  0  0  0  0  0  0
   21.3181  -22.6062  -14.2009 O   0  0  0  0  0  0  0  0  0  0  0  0
   19.5305  -21.6838  -13.1635 O   0  0  0  0  0  0  0  0  0  0  0  0
  2  1  1  6
  2 10  1  0
  2  3  1  0
  4  3  1  0
  4  5  2  0
  6  5  1  0
  7  6  2  0
  8  9  2  0
  8  7  1  0
  9  4  1  0
 10 11  2  0
 13 12  1  1
 13 14  1  0
 15 13  1  0
 15 16  1  1
 16 10  1  0
 17 15  1  0
 18 17  2  0
 19 17  1  0
 20 21  1  6
 20 19  1  0
 21 22  1  0
 22 30  1  0
 23 24  1  0
 23 22  2  0
 24 25  1  0
 25 30  2  0
 25 26  1  0
 26 27  2  0
 27 28  1  0
 29 28  2  0
 30 29  1  0
 31 20  1  0
 31 32  1  0
 33 31  2  0
M  END
$$$$
