FTW.pdb
     RDKit          3D

 33 35  0  0  1  0  0  0  0  0999 V2000
   20.6046   -6.0282  -26.1056 N   0  0  0  0  0  0  0  0  0  0  0  0
   19.5196   -5.8880  -25.1599 C   0  0  1  0  0  0  0  0  0  0  0  0
   18.5644   -7.0543  -25.4549 C   0  0  0  0  0  0  0  0  0  0  0  0
   17.9049   -6.8090  -26.7575 C   0  0  0  0  0  0  0  0  0  0  0  0
   16.7657   -6.0166  -26.8148 C   0  0  0  0  0  0  0  0  0  0  0  0
   16.1231   -5.7617  -28.0019 C   0  0  0  0  0  0  0  0  0  0  0  0
   16.6500   -6.3241  -29.1530 C   0  0  0  0  0  0  0  0  0  0  0  0
   17.7833   -7.1134  -29.1033 C   0  0  0  0  0  0  0  0  0  0  0  0
   18.4207   -7.3631  -27.9063 C   0  0  0  0  0  0  0  0  0  0  0  0
   20.0610   -5.9601  -23.7943 C   0  0  0  0  0  0  0  0  0  0  0  0
   21.0867   -6.6839  -23.5438 O   0  0  0  0  0  0  0  0  0  0  0  0
   21.6929   -3.5373  -21.6279 C   0  0  0  0  0  0  0  0  0  0  0  0
   20.5913   -4.1443  -20.7870 C   0  0  1  0  0  0  0  0  0  0  0  0
   19.5615   -3.2195  -20.7391 O   0  0  0  0  0  0  0  0  0  0  0  0
   20.0683   -5.4277  -21.3532 C   0  0  2  0  0  0  0  0  0  0  0  0
   19.5348   -5.2782  -22.6881 N   0  0  0  0  0  0  0  0  0  0  0  0
   19.0436   -5.9737  -20.4271 C   0  0  0  0  0  0  0  0  0  0  0  0
   17.8552   -6.2149  -20.8524 O   0  0  0  0  0  0  0  0  0  0  0  0
   19.2516   -6.2725  -19.0608 N   0  0  0  0  0  0  0  0  0  0  0  0
   18.2106   -6.9029  -18.2671 C   0  0  1  0  0  0  0  0  0  0  0  0
   17.7898   -8.2247  -18.7869 C   0  0  0  0  0  0  0  0  0  0  0  0
   17.1329   -9.0032  -17.7158 C   0  0  0  0  0  0  0  0  0  0  0  0
   17.2781   -8.8024  -16.3475 C   0  0  0  0  0  0  0  0  0  0  0  0
   16.5456   -9.7106  -15.6871 N   0  0  0  0  0  0  0  0  0  0  0  0
   15.9130  -10.5147  -16.5588 C   0  0  0  0  0  0  0  0  0  0  0  0
   15.0612  -11.5749  -16.3811 C   0  0  0  0  0  0  0  0  0  0  0  0
   14.5396  -12.2393  -17.4773 C   0  0  0  0  0  0  0  0  0  0  0  0
   14.8961  -11.8103  -18.7329 C   0  0  0  0  0  0  0  0  0  0  0  0
   15.7499  -10.7479  -18.9094 C   0  0  0  0  0  0  0  0  0  0  0  0
   16.2769  -10.0769  -17.8336 C   0  0  0  0  0  0  0  0  0  0  0  0
   18.6908   -7.0428  -16.8757 C   0  0  0  0  0  0  0  0  0  0  0  0
   17.7926   -7.0935  -15.8244 O   0  0  0  0  0  0  0  0  0  0  0  0
   19.9217   -7.1196  -16.5918 O   0  0  0  0  0  0  0  0  0  0  0  0
  2  1  1  6
  2 10  1  0
  2  3  1  0
  4  3  1  0
  4  5  2  0
  6  5  1  0
  7  6  2  0
  8  9  2  0
  8  7  1  0
  9  4  1  0
 10 11  2  0
 13 12  1  6
 13 14  1  0
 15 13  1  0
 15 16  1  6
 16 10  1  0
 17 15  1  0
 18 17  2  0
 19 17  1  0
 20 21  1  6
 20 19  1  0
 21 22  1  0
 22 30  1  0
 23 24  1  0
 23 22  2  0
 24 25  1  0
 25 30  2  0
 25 26  1  0
 26 27  2  0
 27 28  1  0
 29 28  2  0
 30 29  1  0
 31 20  1  0
 31 32  1  0
 33 31  2  0
M  END
$$$$
