FTW.pdb
     RDKit          3D

 33 35  0  0  1  0  0  0  0  0999 V2000
   25.9228  -20.0498  -19.4471 N   0  0  0  0  0  0  0  0  0  0  0  0
   25.5772  -19.4420  -18.1813 C   0  0  1  0  0  0  0  0  0  0  0  0
   24.0477  -19.3009  -18.1976 C   0  0  0  0  0  0  0  0  0  0  0  0
   23.6843  -18.1826  -19.0971 C   0  0  0  0  0  0  0  0  0  0  0  0
   23.9806  -16.8769  -18.7281 C   0  0  0  0  0  0  0  0  0  0  0  0
   23.6631  -15.8098  -19.5328 C   0  0  0  0  0  0  0  0  0  0  0  0
   23.0316  -16.0767  -20.7365 C   0  0  0  0  0  0  0  0  0  0  0  0
   22.7337  -17.3734  -21.1101 C   0  0  0  0  0  0  0  0  0  0  0  0
   23.0569  -18.4375  -20.2949 C   0  0  0  0  0  0  0  0  0  0  0  0
   26.0314  -20.3162  -17.0893 C   0  0  0  0  0  0  0  0  0  0  0  0
   26.1216  -21.5804  -17.2694 O   0  0  0  0  0  0  0  0  0  0  0  0
   29.2398  -20.5384  -15.3794 C   0  0  0  0  0  0  0  0  0  0  0  0
   28.2061  -20.4888  -14.2757 C   0  0  1  0  0  0  0  0  0  0  0  0
   28.2406  -19.2100  -13.7452 O   0  0  0  0  0  0  0  0  0  0  0  0
   26.8206  -20.7771  -14.7639 C   0  0  2  0  0  0  0  0  0  0  0  0
   26.3925  -19.8746  -15.8086 N   0  0  0  0  0  0  0  0  0  0  0  0
   25.8900  -20.7342  -13.6072 C   0  0  0  0  0  0  0  0  0  0  0  0
   25.2270  -19.6628  -13.3542 O   0  0  0  0  0  0  0  0  0  0  0  0
   25.6443  -21.8029  -12.7145 N   0  0  0  0  0  0  0  0  0  0  0  0
   25.6131  -21.5845  -11.2784 C   0  0  1  0  0  0  0  0  0  0  0  0
   26.9540  -21.6010  -10.6488 C   0  0  0  0  0  0  0  0  0  0  0  0
   26.9412  -20.7927   -9.4114 C   0  0  0  0  0  0  0  0  0  0  0  0
   25.8499  -20.1072   -8.8894 C   0  0  0  0  0  0  0  0  0  0  0  0
   26.2212  -19.4725   -7.7684 N   0  0  0  0  0  0  0  0  0  0  0  0
   27.5208  -19.7049   -7.5161 C   0  0  0  0  0  0  0  0  0  0  0  0
   28.3505  -19.2890   -6.5062 C   0  0  0  0  0  0  0  0  0  0  0  0
   29.6756  -19.6874   -6.4863 C   0  0  0  0  0  0  0  0  0  0  0  0
   30.1292  -20.5018   -7.4956 C   0  0  0  0  0  0  0  0  0  0  0  0
   29.2966  -20.9176   -8.5070 C   0  0  0  0  0  0  0  0  0  0  0  0
   27.9792  -20.5323   -8.5429 C   0  0  0  0  0  0  0  0  0  0  0  0
   24.9495  -20.2913  -11.0072 C   0  0  0  0  0  0  0  0  0  0  0  0
   25.5028  -19.1084  -11.4646 O   0  0  0  0  0  0  0  0  0  0  0  0
   23.8674  -20.2124  -10.3559 O   0  0  0  0  0  0  0  0  0  0  0  0
  2  1  1  6
  2 10  1  0
  2  3  1  0
  4  3  1  0
  4  5  2  0
  6  5  1  0
  7  6  2  0
  8  9  2  0
  8  7  1  0
  9  4  1  0
 10 11  2  0
 13 12  1  6
 13 14  1  0
 15 13  1  0
 15 16  1  6
 16 10  1  0
 17 15  1  0
 18 17  2  0
 19 17  1  0
 20 21  1  6
 20 19  1  0
 21 22  1  0
 22 30  1  0
 23 24  1  0
 23 22  2  0
 24 25  1  0
 25 30  2  0
 25 26  1  0
 26 27  2  0
 27 28  1  0
 29 28  2  0
 30 29  1  0
 31 20  1  0
 31 32  1  0
 33 31  2  0
M  END
$$$$
