FTW.pdb
     RDKit          3D

 33 35  0  0  1  0  0  0  0  0999 V2000
   23.4915  -21.9747  -16.6724 N   0  0  0  0  0  0  0  0  0  0  0  0
   23.5513  -21.1404  -15.4928 C   0  0  1  0  0  0  0  0  0  0  0  0
   22.2253  -21.3773  -14.7545 C   0  0  0  0  0  0  0  0  0  0  0  0
   21.1435  -20.6816  -15.4878 C   0  0  0  0  0  0  0  0  0  0  0  0
   21.0641  -19.2956  -15.4472 C   0  0  0  0  0  0  0  0  0  0  0  0
   20.0783  -18.6095  -16.1140 C   0  0  0  0  0  0  0  0  0  0  0  0
   19.1553  -19.3483  -16.8360 C   0  0  0  0  0  0  0  0  0  0  0  0
   19.2284  -20.7276  -16.8808 C   0  0  0  0  0  0  0  0  0  0  0  0
   20.2221  -21.4066  -16.2078 C   0  0  0  0  0  0  0  0  0  0  0  0
   24.7074  -21.5437  -14.6779 C   0  0  0  0  0  0  0  0  0  0  0  0
   25.1644  -22.7372  -14.7517 O   0  0  0  0  0  0  0  0  0  0  0  0
   28.3426  -20.5669  -14.3511 C   0  0  0  0  0  0  0  0  0  0  0  0
   27.6933  -20.4294  -12.9914 C   0  0  1  0  0  0  0  0  0  0  0  0
   27.4392  -19.0818  -12.7981 O   0  0  0  0  0  0  0  0  0  0  0  0
   26.4078  -21.1887  -12.8820 C   0  0  2  0  0  0  0  0  0  0  0  0
   25.3890  -20.7043  -13.7855 N   0  0  0  0  0  0  0  0  0  0  0  0
   25.9413  -21.1340  -11.4731 C   0  0  0  0  0  0  0  0  0  0  0  0
   24.8219  -20.5714  -11.1873 O   0  0  0  0  0  0  0  0  0  0  0  0
   26.6339  -21.6651  -10.3606 N   0  0  0  0  0  0  0  0  0  0  0  0
   26.1809  -21.4047   -9.0048 C   0  0  1  0  0  0  0  0  0  0  0  0
   27.0623  -21.9856   -7.9654 C   0  0  0  0  0  0  0  0  0  0  0  0
   27.3561  -20.9738   -6.9287 C   0  0  0  0  0  0  0  0  0  0  0  0
   26.4796  -20.0029   -6.4571 C   0  0  0  0  0  0  0  0  0  0  0  0
   27.1026  -19.2550   -5.5351 N   0  0  0  0  0  0  0  0  0  0  0  0
   28.3648  -19.6858   -5.3683 C   0  0  0  0  0  0  0  0  0  0  0  0
   29.3824  -19.2590   -4.5537 C   0  0  0  0  0  0  0  0  0  0  0  0
   30.6096  -19.8981   -4.5809 C   0  0  0  0  0  0  0  0  0  0  0  0
   30.7757  -20.9594   -5.4375 C   0  0  0  0  0  0  0  0  0  0  0  0
   29.7551  -21.3858   -6.2533 C   0  0  0  0  0  0  0  0  0  0  0  0
   28.5311  -20.7639   -6.2396 C   0  0  0  0  0  0  0  0  0  0  0  0
   26.0749  -19.9429   -8.8102 C   0  0  0  0  0  0  0  0  0  0  0  0
   25.0283  -19.4054   -8.0818 O   0  0  0  0  0  0  0  0  0  0  0  0
   26.9207  -19.1352   -9.2936 O   0  0  0  0  0  0  0  0  0  0  0  0
  2  1  1  6
  2 10  1  0
  2  3  1  0
  4  3  1  0
  4  5  2  0
  6  5  1  0
  7  6  2  0
  8  9  2  0
  8  7  1  0
  9  4  1  0
 10 11  2  0
 13 12  1  6
 13 14  1  0
 15 13  1  0
 15 16  1  6
 16 10  1  0
 17 15  1  0
 18 17  2  0
 19 17  1  0
 20 21  1  1
 20 19  1  0
 21 22  1  0
 22 30  1  0
 23 24  1  0
 23 22  2  0
 24 25  1  0
 25 30  2  0
 25 26  1  0
 26 27  2  0
 27 28  1  0
 29 28  2  0
 30 29  1  0
 31 20  1  0
 31 32  1  0
 33 31  2  0
M  END
$$$$
