FTW.pdb
     RDKit          3D

 33 35  0  0  1  0  0  0  0  0999 V2000
   28.1036  -17.0058  -18.5385 N   0  0  0  0  0  0  0  0  0  0  0  0
   28.0127  -18.3135  -17.9278 C   0  0  1  0  0  0  0  0  0  0  0  0
   29.4445  -18.8698  -17.9337 C   0  0  0  0  0  0  0  0  0  0  0  0
   29.7842  -19.2900  -19.3121 C   0  0  0  0  0  0  0  0  0  0  0  0
   30.7911  -18.6307  -20.0052 C   0  0  0  0  0  0  0  0  0  0  0  0
   31.1399  -18.9887  -21.2848 C   0  0  0  0  0  0  0  0  0  0  0  0
   30.4506  -20.0380  -21.8704 C   0  0  0  0  0  0  0  0  0  0  0  0
   29.4477  -20.6985  -21.1864 C   0  0  0  0  0  0  0  0  0  0  0  0
   29.1054  -20.3312  -19.9022 C   0  0  0  0  0  0  0  0  0  0  0  0
   27.4905  -18.1693  -16.5605 C   0  0  0  0  0  0  0  0  0  0  0  0
   27.6406  -17.0683  -15.9248 O   0  0  0  0  0  0  0  0  0  0  0  0
   25.3304  -16.6185  -15.5195 C   0  0  0  0  0  0  0  0  0  0  0  0
   24.8626  -17.9569  -14.9914 C   0  0  1  0  0  0  0  0  0  0  0  0
   24.0566  -18.5186  -15.9675 O   0  0  0  0  0  0  0  0  0  0  0  0
   25.9936  -18.8920  -14.6952 C   0  0  2  0  0  0  0  0  0  0  0  0
   26.8112  -19.1716  -15.8538 N   0  0  0  0  0  0  0  0  0  0  0  0
   25.4381  -20.1433  -14.1196 C   0  0  0  0  0  0  0  0  0  0  0  0
   25.1726  -21.1411  -14.8847 O   0  0  0  0  0  0  0  0  0  0  0  0
   25.1604  -20.3615  -12.7504 N   0  0  0  0  0  0  0  0  0  0  0  0
   24.5307  -21.5920  -12.3026 C   0  0  1  0  0  0  0  0  0  0  0  0
   25.2348  -22.2383  -11.1708 C   0  0  0  0  0  0  0  0  0  0  0  0
   25.8311  -21.2095  -10.2928 C   0  0  0  0  0  0  0  0  0  0  0  0
   25.1442  -20.3901   -9.4039 C   0  0  0  0  0  0  0  0  0  0  0  0
   26.0136  -19.5705   -8.7958 N   0  0  0  0  0  0  0  0  0  0  0  0
   27.2594  -19.8073   -9.2416 C   0  0  0  0  0  0  0  0  0  0  0  0
   28.4704  -19.2435   -8.9304 C   0  0  0  0  0  0  0  0  0  0  0  0
   29.6246  -19.6885   -9.5509 C   0  0  0  0  0  0  0  0  0  0  0  0
   29.5221  -20.6991  -10.4760 C   0  0  0  0  0  0  0  0  0  0  0  0
   28.3078  -21.2629  -10.7868 C   0  0  0  0  0  0  0  0  0  0  0  0
   27.1525  -20.8342  -10.1812 C   0  0  0  0  0  0  0  0  0  0  0  0
   23.1325  -21.3002  -11.9204 C   0  0  0  0  0  0  0  0  0  0  0  0
   22.2415  -22.3303  -11.6762 O   0  0  0  0  0  0  0  0  0  0  0  0
   22.6983  -20.1173  -11.8036 O   0  0  0  0  0  0  0  0  0  0  0  0
  2  1  1  1
  2 10  1  0
  2  3  1  0
  4  3  1  0
  4  5  2  0
  6  5  1  0
  7  6  2  0
  8  9  2  0
  8  7  1  0
  9  4  1  0
 10 11  2  0
 13 12  1  6
 13 14  1  0
 15 13  1  0
 15 16  1  6
 16 10  1  0
 17 15  1  0
 18 17  2  0
 19 17  1  0
 20 21  1  1
 20 19  1  0
 21 22  1  0
 22 30  1  0
 23 24  1  0
 23 22  2  0
 24 25  1  0
 25 30  2  0
 25 26  1  0
 26 27  2  0
 27 28  1  0
 29 28  2  0
 30 29  1  0
 31 20  1  0
 31 32  1  0
 33 31  2  0
M  END
$$$$
