FTW.pdb
     RDKit          3D

 33 35  0  0  1  0  0  0  0  0999 V2000
   28.6093  -19.1837   -8.6923 N   0  0  0  0  0  0  0  0  0  0  0  0
   27.7247  -20.3168   -8.8500 C   0  0  1  0  0  0  0  0  0  0  0  0
   26.8699  -20.3512   -7.5742 C   0  0  0  0  0  0  0  0  0  0  0  0
   27.7667  -20.2568   -6.4000 C   0  0  0  0  0  0  0  0  0  0  0  0
   29.1151  -19.9791   -6.5831 C   0  0  0  0  0  0  0  0  0  0  0  0
   29.9821  -19.8809   -5.5221 C   0  0  0  0  0  0  0  0  0  0  0  0
   29.4669  -20.0690   -4.2501 C   0  0  0  0  0  0  0  0  0  0  0  0
   28.1262  -20.3456   -4.0605 C   0  0  0  0  0  0  0  0  0  0  0  0
   27.2643  -20.4420   -5.1326 C   0  0  0  0  0  0  0  0  0  0  0  0
   26.9006  -20.1186  -10.0520 C   0  0  0  0  0  0  0  0  0  0  0  0
   26.2634  -19.0218  -10.2242 O   0  0  0  0  0  0  0  0  0  0  0  0
   26.4506  -20.2856  -14.7766 C   0  0  0  0  0  0  0  0  0  0  0  0
   27.0416  -20.8432  -13.5004 C   0  0  1  0  0  0  0  0  0  0  0  0
   28.1814  -20.1062  -13.2256 O   0  0  0  0  0  0  0  0  0  0  0  0
   26.1057  -20.7464  -12.3359 C   0  0  2  0  0  0  0  0  0  0  0  0
   26.7397  -21.0624  -11.0761 N   0  0  0  0  0  0  0  0  0  0  0  0
   24.9422  -21.6350  -12.5855 C   0  0  0  0  0  0  0  0  0  0  0  0
   24.7969  -22.7125  -11.9005 O   0  0  0  0  0  0  0  0  0  0  0  0
   23.9276  -21.4053  -13.5433 N   0  0  0  0  0  0  0  0  0  0  0  0
   22.7776  -22.2880  -13.6396 C   0  0  1  0  0  0  0  0  0  0  0  0
   21.9051  -22.2547  -12.4428 C   0  0  0  0  0  0  0  0  0  0  0  0
   21.2091  -20.9532  -12.3609 C   0  0  0  0  0  0  0  0  0  0  0  0
   21.5976  -19.7734  -12.9860 C   0  0  0  0  0  0  0  0  0  0  0  0
   20.7346  -18.7986  -12.6659 N   0  0  0  0  0  0  0  0  0  0  0  0
   19.7802  -19.2774  -11.8495 C   0  0  0  0  0  0  0  0  0  0  0  0
   18.6923  -18.6859  -11.2599 C   0  0  0  0  0  0  0  0  0  0  0  0
   17.8519  -19.4280  -10.4486 C   0  0  0  0  0  0  0  0  0  0  0  0
   18.1364  -20.7580  -10.2542 C   0  0  0  0  0  0  0  0  0  0  0  0
   19.2271  -21.3492  -10.8457 C   0  0  0  0  0  0  0  0  0  0  0  0
   20.0717  -20.6286  -11.6536 C   0  0  0  0  0  0  0  0  0  0  0  0
   21.9947  -21.9217  -14.8392 C   0  0  0  0  0  0  0  0  0  0  0  0
   22.3319  -20.8055  -15.5842 O   0  0  0  0  0  0  0  0  0  0  0  0
   21.0000  -22.6004  -15.2282 O   0  0  0  0  0  0  0  0  0  0  0  0
  2  1  1  1
  2 10  1  0
  2  3  1  0
  4  3  1  0
  4  5  2  0
  6  5  1  0
  7  6  2  0
  8  9  2  0
  8  7  1  0
  9  4  1  0
 10 11  2  0
 13 12  1  6
 13 14  1  0
 15 13  1  0
 15 16  1  1
 16 10  1  0
 17 15  1  0
 18 17  2  0
 19 17  1  0
 20 21  1  1
 20 19  1  0
 21 22  1  0
 22 30  1  0
 23 24  1  0
 23 22  2  0
 24 25  1  0
 25 30  2  0
 25 26  1  0
 26 27  2  0
 27 28  1  0
 29 28  2  0
 30 29  1  0
 31 20  1  0
 31 32  1  0
 33 31  2  0
M  END
$$$$
