FTW.pdb
     RDKit          3D

 33 35  0  0  1  0  0  0  0  0999 V2000
   25.7443  -17.6405  -16.2019 N   0  0  0  0  0  0  0  0  0  0  0  0
   26.6252  -18.1125  -15.1567 C   0  0  1  0  0  0  0  0  0  0  0  0
   27.4944  -16.9045  -14.7757 C   0  0  0  0  0  0  0  0  0  0  0  0
   28.5127  -16.7015  -15.8310 C   0  0  0  0  0  0  0  0  0  0  0  0
   28.4967  -15.5383  -16.5897 C   0  0  0  0  0  0  0  0  0  0  0  0
   29.4233  -15.3082  -17.5774 C   0  0  0  0  0  0  0  0  0  0  0  0
   30.3849  -16.2808  -17.7974 C   0  0  0  0  0  0  0  0  0  0  0  0
   30.4068  -17.4406  -17.0462 C   0  0  0  0  0  0  0  0  0  0  0  0
   29.4720  -17.6617  -16.0569 C   0  0  0  0  0  0  0  0  0  0  0  0
   25.8155  -18.5799  -14.0214 C   0  0  0  0  0  0  0  0  0  0  0  0
   24.5565  -18.3507  -13.9886 O   0  0  0  0  0  0  0  0  0  0  0  0
   23.6675  -20.3949  -13.6657 C   0  0  0  0  0  0  0  0  0  0  0  0
   24.5701  -20.9801  -12.6018 C   0  0  1  0  0  0  0  0  0  0  0  0
   25.3552  -21.9394  -13.2192 O   0  0  0  0  0  0  0  0  0  0  0  0
   25.4595  -19.9567  -11.9671 C   0  0  2  0  0  0  0  0  0  0  0  0
   26.3162  -19.2870  -12.9192 N   0  0  0  0  0  0  0  0  0  0  0  0
   26.2577  -20.6151  -10.9018 C   0  0  0  0  0  0  0  0  0  0  0  0
   27.2310  -21.3935  -11.2152 O   0  0  0  0  0  0  0  0  0  0  0  0
   26.0490  -20.4644   -9.5114 N   0  0  0  0  0  0  0  0  0  0  0  0
   26.5468  -21.4527   -8.5698 C   0  0  1  0  0  0  0  0  0  0  0  0
   27.8989  -21.1443   -8.0490 C   0  0  0  0  0  0  0  0  0  0  0  0
   27.8192  -20.0614   -7.0460 C   0  0  0  0  0  0  0  0  0  0  0  0
   27.1417  -18.8558   -7.1911 C   0  0  0  0  0  0  0  0  0  0  0  0
   27.3090  -18.1185   -6.0839 N   0  0  0  0  0  0  0  0  0  0  0  0
   28.0731  -18.7820   -5.1993 C   0  0  0  0  0  0  0  0  0  0  0  0
   28.5179  -18.4581   -3.9430 C   0  0  0  0  0  0  0  0  0  0  0  0
   29.3071  -19.3469   -3.2341 C   0  0  0  0  0  0  0  0  0  0  0  0
   29.6273  -20.5481   -3.8193 C   0  0  0  0  0  0  0  0  0  0  0  0
   29.1809  -20.8711   -5.0784 C   0  0  0  0  0  0  0  0  0  0  0  0
   28.3971  -20.0018   -5.7962 C   0  0  0  0  0  0  0  0  0  0  0  0
   25.5919  -21.5643   -7.4465 C   0  0  0  0  0  0  0  0  0  0  0  0
   24.3927  -20.8744   -7.4729 O   0  0  0  0  0  0  0  0  0  0  0  0
   25.8268  -22.2815   -6.4307 O   0  0  0  0  0  0  0  0  0  0  0  0
  2  1  1  6
  2 10  1  0
  2  3  1  0
  4  3  1  0
  4  5  2  0
  6  5  1  0
  7  6  2  0
  8  9  2  0
  8  7  1  0
  9  4  1  0
 10 11  2  0
 13 12  1  6
 13 14  1  0
 15 13  1  0
 15 16  1  6
 16 10  1  0
 17 15  1  0
 18 17  2  0
 19 17  1  0
 20 21  1  1
 20 19  1  0
 21 22  1  0
 22 30  1  0
 23 24  1  0
 23 22  2  0
 24 25  1  0
 25 30  2  0
 25 26  1  0
 26 27  2  0
 27 28  1  0
 29 28  2  0
 30 29  1  0
 31 20  1  0
 31 32  1  0
 33 31  2  0
M  END
$$$$
