FTW.pdb
     RDKit          3D

 33 35  0  0  1  0  0  0  0  0999 V2000
   26.1964   -5.4011  -22.8263 N   0  0  0  0  0  0  0  0  0  0  0  0
   25.4271   -4.4578  -22.0455 C   0  0  1  0  0  0  0  0  0  0  0  0
   23.9753   -4.6184  -22.5212 C   0  0  0  0  0  0  0  0  0  0  0  0
   23.8430   -3.9967  -23.8582 C   0  0  0  0  0  0  0  0  0  0  0  0
   23.7252   -4.8014  -24.9840 C   0  0  0  0  0  0  0  0  0  0  0  0
   23.5985   -4.2668  -26.2431 C   0  0  0  0  0  0  0  0  0  0  0  0
   23.5917   -2.8865  -26.3588 C   0  0  0  0  0  0  0  0  0  0  0  0
   23.7085   -2.0796  -25.2428 C   0  0  0  0  0  0  0  0  0  0  0  0
   23.8350   -2.6265  -23.9834 C   0  0  0  0  0  0  0  0  0  0  0  0
   25.5716   -4.7851  -20.6189 C   0  0  0  0  0  0  0  0  0  0  0  0
   26.5888   -5.4447  -20.2077 O   0  0  0  0  0  0  0  0  0  0  0  0
   27.3988   -4.2912  -18.5013 C   0  0  0  0  0  0  0  0  0  0  0  0
   26.1511   -3.8765  -17.7527 C   0  0  1  0  0  0  0  0  0  0  0  0
   25.9760   -2.5210  -17.9761 O   0  0  0  0  0  0  0  0  0  0  0  0
   24.9282   -4.6084  -18.2111 C   0  0  2  0  0  0  0  0  0  0  0  0
   24.6572   -4.4253  -19.6190 N   0  0  0  0  0  0  0  0  0  0  0  0
   23.7744   -4.1717  -17.3843 C   0  0  0  0  0  0  0  0  0  0  0  0
   23.0590   -3.1709  -17.7557 O   0  0  0  0  0  0  0  0  0  0  0  0
   23.3603   -4.7742  -16.1740 N   0  0  0  0  0  0  0  0  0  0  0  0
   22.1170   -4.3832  -15.5320 C   0  0  1  0  0  0  0  0  0  0  0  0
   20.9327   -5.1104  -16.0450 C   0  0  0  0  0  0  0  0  0  0  0  0
   21.1633   -6.5685  -15.9698 C   0  0  0  0  0  0  0  0  0  0  0  0
   21.2813   -7.3224  -14.8074 C   0  0  0  0  0  0  0  0  0  0  0  0
   21.5041   -8.6039  -15.1322 N   0  0  0  0  0  0  0  0  0  0  0  0
   21.5404   -8.7411  -16.4688 C   0  0  0  0  0  0  0  0  0  0  0  0
   21.7327   -9.8327  -17.2765 C   0  0  0  0  0  0  0  0  0  0  0  0
   21.7191   -9.6903  -18.6530 C   0  0  0  0  0  0  0  0  0  0  0  0
   21.5098   -8.4385  -19.1793 C   0  0  0  0  0  0  0  0  0  0  0  0
   21.3173   -7.3456  -18.3685 C   0  0  0  0  0  0  0  0  0  0  0  0
   21.3276   -7.4681  -17.0009 C   0  0  0  0  0  0  0  0  0  0  0  0
   22.2441   -4.6000  -14.0749 C   0  0  0  0  0  0  0  0  0  0  0  0
   23.3250   -5.2934  -13.5597 O   0  0  0  0  0  0  0  0  0  0  0  0
   21.3848   -4.1695  -13.2517 O   0  0  0  0  0  0  0  0  0  0  0  0
  2  1  1  6
  2 10  1  0
  2  3  1  0
  4  3  1  0
  4  5  2  0
  6  5  1  0
  7  6  2  0
  8  9  2  0
  8  7  1  0
  9  4  1  0
 10 11  2  0
 13 12  1  6
 13 14  1  0
 15 13  1  0
 15 16  1  6
 16 10  1  0
 17 15  1  0
 18 17  2  0
 19 17  1  0
 20 21  1  6
 20 19  1  0
 21 22  1  0
 22 30  1  0
 23 24  1  0
 23 22  2  0
 24 25  1  0
 25 30  2  0
 25 26  1  0
 26 27  2  0
 27 28  1  0
 29 28  2  0
 30 29  1  0
 31 20  1  0
 31 32  1  0
 33 31  2  0
M  END
$$$$
