RCL.pdb
     RDKit          3D

 26 25  0  0  1  0  0  0  0  0999 V2000
   27.7706  -21.3418  -11.5329 N   0  0  0  0  0  0  0  0  0  0  0  0
   26.3822  -21.4225  -11.7796 C   0  0  0  0  0  0  0  0  0  0  0  0
   25.5521  -21.3367  -10.7973 N   0  0  0  0  0  0  0  0  0  0  0  0
   25.8400  -21.5989  -13.0968 N   0  0  0  0  0  0  0  0  0  0  0  0
   26.6540  -21.8038  -14.2531 C   0  0  0  0  0  0  0  0  0  0  0  0
   25.8139  -21.8549  -15.5340 C   0  0  0  0  0  0  0  0  0  0  0  0
   26.0636  -20.6196  -16.3723 C   0  0  0  0  0  0  0  0  0  0  0  0
   25.4386  -19.4294  -15.6764 C   0  0  2  0  0  0  0  0  0  0  0  0
   25.6301  -19.5691  -14.2449 N   0  0  0  0  0  0  0  0  0  0  0  0
   23.9966  -19.3165  -15.9502 C   0  0  0  0  0  0  0  0  0  0  0  0
   23.6215  -19.0599  -17.1220 O   0  0  0  0  0  0  0  0  0  0  0  0
   24.5332  -21.3915  -10.9421 N   0  0  0  0  0  0  0  0  0  0  0  0
   22.9884  -19.4805  -14.9655 C   0  0  1  0  0  0  0  0  0  0  0  0
   21.5899  -19.3548  -15.2825 C   0  0  0  0  0  0  0  0  0  0  0  0
   20.8479  -20.3717  -14.4026 S   0  0  0  0  0  0  0  0  0  0  0  0
   21.2014  -19.9183  -12.6822 C   0  0  0  0  0  0  0  0  0  0  0  0
   21.0432  -18.0290  -14.9084 O   0  0  0  0  0  0  0  0  0  0  0  0
   21.8482  -17.1642  -14.4385 C   0  0  0  0  0  0  0  0  0  0  0  0
   19.3423  -13.6955  -16.9891 C   0  0  1  0  0  0  0  0  0  0  0  0
   20.0475  -14.8787  -17.5728 C   0  0  0  0  0  0  0  0  0  0  0  0
   19.3487  -15.2206  -18.8988 C   0  0  0  0  0  0  0  0  0  0  0  0
   20.2668  -16.0690  -16.7484 C   0  0  1  0  0  0  0  0  0  0  0  0
   19.2574  -16.4289  -15.7505 N   0  0  0  0  0  0  0  0  0  0  0  0
   19.6975  -17.6651  -15.0379 C   0  0  0  0  0  0  0  0  0  0  0  0
   17.9305  -16.7206  -16.2399 O   0  0  0  0  0  0  0  0  0  0  0  0
   16.9169  -16.0119  -16.1034 O   0  0  0  0  0  0  0  0  0  0  0  0
  2  1  1  0
  2  3  2  0
  4  2  1  0
  5  4  1  0
  6  5  1  0
  7  6  1  0
  8  7  1  0
  8  9  1  1
 10  8  1  0
 10 12  1  0
 11 10  2  0
 13 12  1  0
 13 16  1  0
 13 14  1  6
 15 14  1  0
 16 23  1  0
 16 17  2  0
 19 18  1  6
 19 21  1  0
 20 19  1  0
 22 21  1  1
 22 24  1  0
 23 22  1  0
 24 26  1  0
 25 24  2  0
M  END
$$$$
