RCL.pdb
     RDKit          3D

 26 25  0  0  1  0  0  0  0  0999 V2000
   29.7052  -22.4262  -16.7014 N   0  0  0  0  0  0  0  0  0  0  0  0
   28.4345  -22.2120  -17.2797 C   0  0  0  0  0  0  0  0  0  0  0  0
   27.8383  -23.1783  -17.8896 N   0  0  0  0  0  0  0  0  0  0  0  0
   27.7615  -20.9456  -17.2200 N   0  0  0  0  0  0  0  0  0  0  0  0
   28.2946  -19.8120  -16.5327 C   0  0  0  0  0  0  0  0  0  0  0  0
   28.6544  -20.1485  -15.0814 C   0  0  0  0  0  0  0  0  0  0  0  0
   27.7076  -19.4460  -14.1320 C   0  0  0  0  0  0  0  0  0  0  0  0
   26.6812  -20.4466  -13.6453 C   0  0  2  0  0  0  0  0  0  0  0  0
   25.6320  -20.5643  -14.6406 N   0  0  0  0  0  0  0  0  0  0  0  0
   26.0739  -20.0458  -12.3656 C   0  0  0  0  0  0  0  0  0  0  0  0
   25.6280  -18.8766  -12.2475 O   0  0  0  0  0  0  0  0  0  0  0  0
   26.9082  -23.0579  -18.3169 N   0  0  0  0  0  0  0  0  0  0  0  0
   25.9566  -20.9035  -11.2416 C   0  0  1  0  0  0  0  0  0  0  0  0
   25.3883  -20.4525   -9.9983 C   0  0  0  0  0  0  0  0  0  0  0  0
   24.0509  -21.1897   -9.8347 S   0  0  0  0  0  0  0  0  0  0  0  0
   23.3862  -20.6975   -8.2203 C   0  0  0  0  0  0  0  0  0  0  0  0
   26.2073  -20.8464   -8.8274 O   0  0  0  0  0  0  0  0  0  0  0  0
   26.4869  -22.0784   -8.6839 C   0  0  0  0  0  0  0  0  0  0  0  0
   29.3006  -18.2040   -4.0605 C   0  0  1  0  0  0  0  0  0  0  0  0
   28.8475  -19.4182   -4.8077 C   0  0  0  0  0  0  0  0  0  0  0  0
   30.0454  -20.3781   -4.8922 C   0  0  0  0  0  0  0  0  0  0  0  0
   28.1794  -19.2635   -6.1016 C   0  0  2  0  0  0  0  0  0  0  0  0
   27.4206  -20.3940   -6.6408 N   0  0  0  0  0  0  0  0  0  0  0  0
   26.6939  -19.9508   -7.8676 C   0  0  0  0  0  0  0  0  0  0  0  0
   26.4107  -20.9701   -5.7844 O   0  0  0  0  0  0  0  0  0  0  0  0
   26.4991  -22.0334   -5.1442 O   0  0  0  0  0  0  0  0  0  0  0  0
  2  1  1  0
  2  3  2  0
  4  2  1  0
  5  4  1  0
  6  5  1  0
  7  6  1  0
  8  7  1  0
  8  9  1  6
 10  8  1  0
 10 12  1  0
 11 10  2  0
 13 12  1  0
 13 16  1  0
 13 14  1  6
 15 14  1  0
 16 23  1  0
 16 17  2  0
 19 18  1  1
 19 21  1  0
 20 19  1  0
 22 21  1  6
 22 24  1  0
 23 22  1  0
 24 26  1  0
 25 24  2  0
M  END
$$$$
