RCL.pdb
     RDKit          3D

 26 25  0  0  1  0  0  0  0  0999 V2000
   21.3395  -18.3032  -15.1601 N   0  0  0  0  0  0  0  0  0  0  0  0
   20.0426  -18.6393  -14.7129 C   0  0  0  0  0  0  0  0  0  0  0  0
   19.0121  -18.1740  -15.3319 N   0  0  0  0  0  0  0  0  0  0  0  0
   19.8117  -19.4907  -13.5807 N   0  0  0  0  0  0  0  0  0  0  0  0
   20.8678  -20.0327  -12.7856 C   0  0  0  0  0  0  0  0  0  0  0  0
   21.3458  -21.3849  -13.3263 C   0  0  0  0  0  0  0  0  0  0  0  0
   22.4362  -21.9464  -12.4393 C   0  0  0  0  0  0  0  0  0  0  0  0
   23.6613  -21.0661  -12.5641 C   0  0  2  0  0  0  0  0  0  0  0  0
   24.1316  -21.1082  -13.9361 N   0  0  0  0  0  0  0  0  0  0  0  0
   24.7537  -21.5006  -11.6780 C   0  0  0  0  0  0  0  0  0  0  0  0
   24.7726  -22.6929  -11.2809 O   0  0  0  0  0  0  0  0  0  0  0  0
   18.0522  -18.3927  -15.0271 N   0  0  0  0  0  0  0  0  0  0  0  0
   25.8009  -20.6512  -11.2368 C   0  0  1  0  0  0  0  0  0  0  0  0
   26.8991  -21.1462  -10.4487 C   0  0  0  0  0  0  0  0  0  0  0  0
   28.1770  -20.5417  -11.0491 S   0  0  0  0  0  0  0  0  0  0  0  0
   28.2385  -21.0828  -12.7793 C   0  0  0  0  0  0  0  0  0  0  0  0
   26.8501  -20.6657   -9.0475 O   0  0  0  0  0  0  0  0  0  0  0  0
   26.1261  -19.6525   -8.7906 C   0  0  0  0  0  0  0  0  0  0  0  0
   27.4392  -20.4701   -3.6150 C   0  0  1  0  0  0  0  0  0  0  0  0
   28.5557  -21.1510   -4.3417 C   0  0  0  0  0  0  0  0  0  0  0  0
   29.8212  -20.3027   -4.1359 C   0  0  0  0  0  0  0  0  0  0  0  0
   28.3779  -21.5354   -5.7435 C   0  0  1  0  0  0  0  0  0  0  0  0
   27.5344  -20.6994   -6.6003 N   0  0  0  0  0  0  0  0  0  0  0  0
   27.5491  -21.2539   -7.9866 C   0  0  0  0  0  0  0  0  0  0  0  0
   27.9150  -19.3132   -6.7381 O   0  0  0  0  0  0  0  0  0  0  0  0
   28.8292  -18.8622   -7.4516 O   0  0  0  0  0  0  0  0  0  0  0  0
  2  1  1  0
  2  3  2  0
  4  2  1  0
  5  4  1  0
  6  5  1  0
  7  6  1  0
  8  7  1  0
  8  9  1  6
 10  8  1  0
 10 12  1  0
 11 10  2  0
 13 12  1  0
 13 16  1  0
 13 14  1  6
 15 14  1  0
 16 23  1  0
 16 17  2  0
 19 18  1  1
 19 21  1  0
 20 19  1  0
 22 21  1  1
 22 24  1  0
 23 22  1  0
 24 26  1  0
 25 24  2  0
M  END
$$$$
