RCL.pdb
     RDKit          3D

 26 25  0  0  1  0  0  0  0  0999 V2000
   19.8165  -20.4672  -17.8485 N   0  0  0  0  0  0  0  0  0  0  0  0
   18.9417  -19.4442  -17.4208 C   0  0  0  0  0  0  0  0  0  0  0  0
   17.8052  -19.2873  -18.0085 N   0  0  0  0  0  0  0  0  0  0  0  0
   19.2627  -18.5532  -16.3422 N   0  0  0  0  0  0  0  0  0  0  0  0
   20.1051  -18.9247  -15.2496 C   0  0  0  0  0  0  0  0  0  0  0  0
   19.8662  -20.3764  -14.8197 C   0  0  0  0  0  0  0  0  0  0  0  0
   20.2720  -20.5666  -13.3739 C   0  0  0  0  0  0  0  0  0  0  0  0
   21.5950  -19.8667  -13.1476 C   0  0  2  0  0  0  0  0  0  0  0  0
   22.2114  -19.6012  -14.4340 N   0  0  0  0  0  0  0  0  0  0  0  0
   22.5225  -20.6741  -12.3383 C   0  0  0  0  0  0  0  0  0  0  0  0
   22.1125  -21.1625  -11.2552 O   0  0  0  0  0  0  0  0  0  0  0  0
   17.1740  -18.5086  -17.7691 N   0  0  0  0  0  0  0  0  0  0  0  0
   23.8668  -20.9412  -12.7049 C   0  0  1  0  0  0  0  0  0  0  0  0
   24.7423  -21.7183  -11.8672 C   0  0  0  0  0  0  0  0  0  0  0  0
   25.4181  -22.7525  -12.7795 S   0  0  0  0  0  0  0  0  0  0  0  0
   26.5439  -21.8278  -13.8601 C   0  0  0  0  0  0  0  0  0  0  0  0
   25.8445  -20.9077  -11.2972 O   0  0  0  0  0  0  0  0  0  0  0  0
   26.1732  -19.8397  -11.9038 C   0  0  0  0  0  0  0  0  0  0  0  0
   26.9360  -18.6128   -7.3366 C   0  0  2  0  0  0  0  0  0  0  0  0
   27.0812  -20.1017   -7.3262 C   0  0  0  0  0  0  0  0  0  0  0  0
   27.3671  -20.5242   -5.8759 C   0  0  0  0  0  0  0  0  0  0  0  0
   27.9941  -20.7460   -8.2727 C   0  0  2  0  0  0  0  0  0  0  0  0
   27.7895  -20.5282   -9.7062 N   0  0  0  0  0  0  0  0  0  0  0  0
   26.5488  -21.2405  -10.1339 C   0  0  0  0  0  0  0  0  0  0  0  0
   28.8270  -21.0001  -10.5928 O   0  0  0  0  0  0  0  0  0  0  0  0
   28.8851  -22.1165  -11.1391 O   0  0  0  0  0  0  0  0  0  0  0  0
  2  1  1  0
  2  3  2  0
  4  2  1  0
  5  4  1  0
  6  5  1  0
  7  6  1  0
  8  7  1  0
  8  9  1  6
 10  8  1  0
 10 12  1  0
 11 10  2  0
 13 12  1  0
 13 16  1  0
 13 14  1  6
 15 14  1  0
 16 23  1  0
 16 17  2  0
 19 18  1  1
 19 21  1  0
 20 19  1  0
 22 21  1  1
 22 24  1  0
 23 22  1  0
 24 26  1  0
 25 24  2  0
M  END
$$$$
