RCL.pdb
     RDKit          3D

 26 25  0  0  1  0  0  0  0  0999 V2000
   24.0818  -19.4872  -18.2521 N   0  0  0  0  0  0  0  0  0  0  0  0
   23.0625  -19.9437  -17.3875 C   0  0  0  0  0  0  0  0  0  0  0  0
   22.2511  -20.8631  -17.7848 N   0  0  0  0  0  0  0  0  0  0  0  0
   22.8826  -19.4235  -16.0619 N   0  0  0  0  0  0  0  0  0  0  0  0
   23.7398  -18.4331  -15.4910 C   0  0  0  0  0  0  0  0  0  0  0  0
   25.0541  -19.0430  -14.9913 C   0  0  0  0  0  0  0  0  0  0  0  0
   24.8792  -19.5831  -13.5881 C   0  0  0  0  0  0  0  0  0  0  0  0
   26.2009  -20.1562  -13.1231 C   0  0  2  0  0  0  0  0  0  0  0  0
   26.6386  -21.1591  -14.0759 N   0  0  0  0  0  0  0  0  0  0  0  0
   26.1018  -20.7808  -11.7937 C   0  0  0  0  0  0  0  0  0  0  0  0
   27.0126  -21.5642  -11.4240 O   0  0  0  0  0  0  0  0  0  0  0  0
   21.5028  -21.2258  -17.1760 N   0  0  0  0  0  0  0  0  0  0  0  0
   25.0320  -20.5539  -10.8899 C   0  0  2  0  0  0  0  0  0  0  0  0
   24.9194  -21.2764   -9.6499 C   0  0  0  0  0  0  0  0  0  0  0  0
   26.1184  -20.8561   -8.7871 S   0  0  0  0  0  0  0  0  0  0  0  0
   26.0665  -19.0460   -8.6810 C   0  0  0  0  0  0  0  0  0  0  0  0
   23.7156  -20.8878   -8.8775 O   0  0  0  0  0  0  0  0  0  0  0  0
   23.6075  -19.6741   -8.5145 C   0  0  0  0  0  0  0  0  0  0  0  0
   20.5407  -19.2645  -10.2403 C   0  0  2  0  0  0  0  0  0  0  0  0
   20.4890  -20.7590  -10.1967 C   0  0  0  0  0  0  0  0  0  0  0  0
   19.4291  -21.2109  -11.2145 C   0  0  0  0  0  0  0  0  0  0  0  0
   20.3353  -21.4399   -8.9094 C   0  0  2  0  0  0  0  0  0  0  0  0
   21.4024  -21.3126   -7.9147 N   0  0  0  0  0  0  0  0  0  0  0  0
   22.6885  -21.7696   -8.5203 C   0  0  0  0  0  0  0  0  0  0  0  0
   21.2572  -22.0795   -6.6998 O   0  0  0  0  0  0  0  0  0  0  0  0
   20.4714  -21.8452   -5.7639 O   0  0  0  0  0  0  0  0  0  0  0  0
  2  1  1  0
  2  3  2  0
  4  2  1  0
  5  4  1  0
  6  5  1  0
  7  6  1  0
  8  7  1  0
  8  9  1  6
 10  8  1  0
 10 12  1  0
 11 10  2  0
 13 12  1  0
 13 16  1  0
 13 14  1  6
 15 14  1  0
 16 23  1  0
 16 17  2  0
 19 18  1  6
 19 21  1  0
 20 19  1  0
 22 21  1  6
 22 24  1  0
 23 22  1  0
 24 26  1  0
 25 24  2  0
M  END
$$$$
