RCL.pdb
     RDKit          3D

 26 25  0  0  1  0  0  0  0  0999 V2000
   25.8614  -23.6950  -15.1010 N   0  0  0  0  0  0  0  0  0  0  0  0
   26.6419  -24.1514  -16.1861 C   0  0  0  0  0  0  0  0  0  0  0  0
   26.3452  -25.2650  -16.7636 N   0  0  0  0  0  0  0  0  0  0  0  0
   27.7714  -23.4211  -16.6872 N   0  0  0  0  0  0  0  0  0  0  0  0
   28.1393  -22.1279  -16.2038 C   0  0  0  0  0  0  0  0  0  0  0  0
   28.5055  -22.1636  -14.7159 C   0  0  0  0  0  0  0  0  0  0  0  0
   28.2136  -20.8243  -14.0738 C   0  0  0  0  0  0  0  0  0  0  0  0
   26.7266  -20.5574  -14.1681 C   0  0  2  0  0  0  0  0  0  0  0  0
   26.4908  -19.5800  -15.2142 N   0  0  0  0  0  0  0  0  0  0  0  0
   26.1710  -20.0406  -12.9066 C   0  0  0  0  0  0  0  0  0  0  0  0
   26.2120  -18.8033  -12.6894 O   0  0  0  0  0  0  0  0  0  0  0  0
   26.8891  -25.6232  -17.5624 N   0  0  0  0  0  0  0  0  0  0  0  0
   25.5841  -20.8577  -11.9063 C   0  0  2  0  0  0  0  0  0  0  0  0
   24.9934  -20.2981  -10.7187 C   0  0  0  0  0  0  0  0  0  0  0  0
   23.5415  -20.7969  -10.6745 S   0  0  0  0  0  0  0  0  0  0  0  0
   22.8037  -20.0999   -9.1711 C   0  0  0  0  0  0  0  0  0  0  0  0
   25.6282  -20.8060   -9.4794 O   0  0  0  0  0  0  0  0  0  0  0  0
   25.8226  -22.0586   -9.3804 C   0  0  0  0  0  0  0  0  0  0  0  0
   29.4484  -20.3175   -6.0204 C   0  0  1  0  0  0  0  0  0  0  0  0
   28.4922  -19.2174   -6.3574 C   0  0  0  0  0  0  0  0  0  0  0  0
   28.8974  -17.9878   -5.5282 C   0  0  0  0  0  0  0  0  0  0  0  0
   27.0507  -19.4676   -6.2944 C   0  0  2  0  0  0  0  0  0  0  0  0
   26.4894  -20.5525   -7.1019 N   0  0  0  0  0  0  0  0  0  0  0  0
   26.0281  -19.9971   -8.4090 C   0  0  0  0  0  0  0  0  0  0  0  0
   25.3474  -21.2483   -6.5570 O   0  0  0  0  0  0  0  0  0  0  0  0
   24.1493  -20.9740   -6.7512 O   0  0  0  0  0  0  0  0  0  0  0  0
  2  1  1  0
  2  3  2  0
  4  2  1  0
  5  4  1  0
  6  5  1  0
  7  6  1  0
  8  7  1  0
  8  9  1  6
 10  8  1  0
 10 12  1  0
 11 10  2  0
 13 12  1  0
 13 16  1  0
 13 14  1  6
 15 14  1  0
 16 23  1  0
 16 17  2  0
 19 18  1  6
 19 21  1  0
 20 19  1  0
 22 21  1  6
 22 24  1  0
 23 22  1  0
 24 26  1  0
 25 24  2  0
M  END
$$$$
