RCL.pdb
     RDKit          3D

 26 25  0  0  1  0  0  0  0  0999 V2000
   26.2730  -20.0468   -9.4441 N   0  0  0  0  0  0  0  0  0  0  0  0
   25.6070  -20.8801  -10.3698 C   0  0  0  0  0  0  0  0  0  0  0  0
   24.5526  -21.5259  -10.0057 N   0  0  0  0  0  0  0  0  0  0  0  0
   26.0560  -21.0461  -11.7230 N   0  0  0  0  0  0  0  0  0  0  0  0
   26.9487  -20.1336  -12.3648 C   0  0  0  0  0  0  0  0  0  0  0  0
   27.2208  -20.5369  -13.8183 C   0  0  0  0  0  0  0  0  0  0  0  0
   26.0546  -21.3304  -14.3674 C   0  0  0  0  0  0  0  0  0  0  0  0
   25.1194  -20.3806  -15.0849 C   0  0  2  0  0  0  0  0  0  0  0  0
   25.4521  -19.0198  -14.7070 N   0  0  0  0  0  0  0  0  0  0  0  0
   23.7072  -20.6300  -14.7524 C   0  0  0  0  0  0  0  0  0  0  0  0
   23.2300  -21.7743  -14.9590 O   0  0  0  0  0  0  0  0  0  0  0  0
   24.0525  -22.1551  -10.6507 N   0  0  0  0  0  0  0  0  0  0  0  0
   22.8373  -19.6512  -14.2066 C   0  0  1  0  0  0  0  0  0  0  0  0
   21.4688  -19.9511  -13.8758 C   0  0  0  0  0  0  0  0  0  0  0  0
   21.1781  -19.2541  -12.5385 S   0  0  0  0  0  0  0  0  0  0  0  0
   21.8915  -20.3060  -11.2443 C   0  0  0  0  0  0  0  0  0  0  0  0
   20.5125  -19.3679  -14.8465 O   0  0  0  0  0  0  0  0  0  0  0  0
   20.7674  -18.2125  -15.3122 C   0  0  0  0  0  0  0  0  0  0  0  0
   16.9165  -20.9287  -19.4341 C   0  0  1  0  0  0  0  0  0  0  0  0
   17.5521  -19.8528  -18.6115 C   0  0  0  0  0  0  0  0  0  0  0  0
   18.2212  -18.8675  -19.5836 C   0  0  0  0  0  0  0  0  0  0  0  0
   18.4405  -20.2174  -17.5060 C   0  0  2  0  0  0  0  0  0  0  0  0
   18.4214  -19.4013  -16.2902 N   0  0  0  0  0  0  0  0  0  0  0  0
   19.3456  -20.0052  -15.2848 C   0  0  0  0  0  0  0  0  0  0  0  0
   17.1529  -19.2683  -15.6131 O   0  0  0  0  0  0  0  0  0  0  0  0
   16.7503  -19.9476  -14.6514 O   0  0  0  0  0  0  0  0  0  0  0  0
  2  1  1  0
  2  3  2  0
  4  2  1  0
  5  4  1  0
  6  5  1  0
  7  6  1  0
  8  7  1  0
  8  9  1  1
 10  8  1  0
 10 12  1  0
 11 10  2  0
 13 12  1  0
 13 16  1  0
 13 14  1  6
 15 14  1  0
 16 23  1  0
 16 17  2  0
 19 18  1  6
 19 21  1  0
 20 19  1  0
 22 21  1  6
 22 24  1  0
 23 22  1  0
 24 26  1  0
 25 24  2  0
M  END
$$$$
