RCL.pdb
     RDKit          3D

 26 25  0  0  1  0  0  0  0  0999 V2000
   29.6014  -21.6064  -17.6825 N   0  0  0  0  0  0  0  0  0  0  0  0
   28.6195  -22.5922  -17.4394 C   0  0  0  0  0  0  0  0  0  0  0  0
   28.9140  -23.8383  -17.5873 N   0  0  0  0  0  0  0  0  0  0  0  0
   27.2834  -22.2675  -17.0275 N   0  0  0  0  0  0  0  0  0  0  0  0
   26.9631  -21.8120  -15.7117 C   0  0  0  0  0  0  0  0  0  0  0  0
   27.5175  -20.4074  -15.4491 C   0  0  0  0  0  0  0  0  0  0  0  0
   26.7409  -19.7390  -14.3350 C   0  0  0  0  0  0  0  0  0  0  0  0
   26.5253  -20.7457  -13.2253 C   0  0  2  0  0  0  0  0  0  0  0  0
   25.5187  -21.7015  -13.6479 N   0  0  0  0  0  0  0  0  0  0  0  0
   26.0768  -20.1109  -11.9750 C   0  0  0  0  0  0  0  0  0  0  0  0
   25.2370  -19.1779  -12.0376 O   0  0  0  0  0  0  0  0  0  0  0  0
   28.2112  -24.5807  -17.4566 N   0  0  0  0  0  0  0  0  0  0  0  0
   26.5358  -20.4879  -10.6866 C   0  0  2  0  0  0  0  0  0  0  0  0
   25.7786  -20.2003   -9.4966 C   0  0  0  0  0  0  0  0  0  0  0  0
   24.4531  -20.9655   -9.6248 S   0  0  0  0  0  0  0  0  0  0  0  0
   23.4637  -20.5283   -8.1687 C   0  0  0  0  0  0  0  0  0  0  0  0
   26.4277  -20.7280   -8.2731 O   0  0  0  0  0  0  0  0  0  0  0  0
   26.6218  -21.9822   -8.1960 C   0  0  0  0  0  0  0  0  0  0  0  0
   30.5575  -20.2450   -5.8990 C   0  0  2  0  0  0  0  0  0  0  0  0
   29.5348  -19.1603   -5.7744 C   0  0  0  0  0  0  0  0  0  0  0  0
   30.1858  -18.0033   -4.9991 C   0  0  0  0  0  0  0  0  0  0  0  0
   28.2010  -19.4795   -5.2610 C   0  0  2  0  0  0  0  0  0  0  0  0
   27.4138  -20.5101   -5.9411 N   0  0  0  0  0  0  0  0  0  0  0  0
   26.8416  -19.9362   -7.1952 C   0  0  0  0  0  0  0  0  0  0  0  0
   26.2871  -21.0532   -5.2194 O   0  0  0  0  0  0  0  0  0  0  0  0
   25.0840  -20.8284   -5.4439 O   0  0  0  0  0  0  0  0  0  0  0  0
  2  1  1  0
  2  3  2  0
  4  2  1  0
  5  4  1  0
  6  5  1  0
  7  6  1  0
  8  7  1  0
  8  9  1  6
 10  8  1  0
 10 12  1  0
 11 10  2  0
 13 12  1  0
 13 16  1  0
 13 14  1  6
 15 14  1  0
 16 23  1  0
 16 17  2  0
 19 18  1  6
 19 21  1  0
 20 19  1  0
 22 21  1  6
 22 24  1  0
 23 22  1  0
 24 26  1  0
 25 24  2  0
M  END
$$$$
