KVV.pdb
     RDKit          3D

 24 23  0  0  1  0  0  0  0  0999 V2000
   10.2671  -17.3393   18.7500 N   0  0  0  0  0  0  0  0  0  0  0  0
   10.5720  -17.3978   20.1471 C   0  0  1  0  0  0  0  0  0  0  0  0
   11.9305  -16.8396   20.4218 C   0  0  0  0  0  0  0  0  0  0  0  0
   13.0348  -17.7799   20.1213 C   0  0  0  0  0  0  0  0  0  0  0  0
   14.4253  -17.2915   20.3894 C   0  0  0  0  0  0  0  0  0  0  0  0
   15.4410  -18.4033   19.9996 C   0  0  0  0  0  0  0  0  0  0  0  0
   16.7457  -17.8102   20.2422 N   0  0  0  0  0  0  0  0  0  0  0  0
    9.5109  -16.6168   20.8807 C   0  0  0  0  0  0  0  0  0  0  0  0
    9.1527  -15.4923   20.4613 O   0  0  0  0  0  0  0  0  0  0  0  0
    5.9531  -17.7365   21.6883 C   0  0  0  0  0  0  0  0  0  0  0  0
    6.6264  -17.3103   22.9647 C   0  0  1  0  0  0  0  0  0  0  0  0
    7.0387  -18.4587   23.8349 C   0  0  0  0  0  0  0  0  0  0  0  0
    7.8151  -16.4147   22.7254 C   0  0  2  0  0  0  0  0  0  0  0  0
    8.8885  -17.1173   22.0537 N   0  0  0  0  0  0  0  0  0  0  0  0
    8.2778  -15.7434   23.9620 C   0  0  0  0  0  0  0  0  0  0  0  0
    9.3519  -16.1439   24.4810 O   0  0  0  0  0  0  0  0  0  0  0  0
    6.8797  -12.0650   25.1448 C   0  0  0  0  0  0  0  0  0  0  0  0
    7.0766  -13.0099   26.2827 C   0  0  2  0  0  0  0  0  0  0  0  0
    7.6098  -12.2550   27.4721 C   0  0  0  0  0  0  0  0  0  0  0  0
    7.9660  -14.1669   25.8916 C   0  0  2  0  0  0  0  0  0  0  0  0
    7.5964  -14.6851   24.5984 N   0  0  0  0  0  0  0  0  0  0  0  0
    8.0595  -15.2064   26.9249 C   0  0  0  0  0  0  0  0  0  0  0  0
    9.0650  -15.1863   27.8793 O   0  0  0  0  0  0  0  0  0  0  0  0
    7.2336  -16.1526   26.9842 O   0  0  0  0  0  0  0  0  0  0  0  0
  2  1  1  6
  2  8  1  0
  2  3  1  0
  4  5  1  0
  4  3  1  0
  6  5  1  0
  7  6  1  0
  8 14  1  0
  9  8  2  0
 11 12  1  6
 11 10  1  0
 13 11  1  0
 13 15  1  0
 13 14  1  1
 15 16  2  0
 15 21  1  0
 18 17  1  6
 18 20  1  0
 18 19  1  0
 20 22  1  0
 20 21  1  6
 22 24  2  0
 22 23  1  0
M  END
$$$$
