KVV.pdb
     RDKit          3D

 24 23  0  0  1  0  0  0  0  0999 V2000
    6.7439  -17.1831   21.6567 N   0  0  0  0  0  0  0  0  0  0  0  0
    6.4521  -17.1830   23.0579 C   0  0  1  0  0  0  0  0  0  0  0  0
    6.5664  -18.5593   23.6280 C   0  0  0  0  0  0  0  0  0  0  0  0
    5.3290  -19.3635   23.5006 C   0  0  0  0  0  0  0  0  0  0  0  0
    5.3744  -20.5212   22.5511 C   0  0  0  0  0  0  0  0  0  0  0  0
    3.9894  -21.2291   22.5426 C   0  0  0  0  0  0  0  0  0  0  0  0
    4.0890  -22.2182   21.4822 N   0  0  0  0  0  0  0  0  0  0  0  0
    7.4209  -16.2410   23.7274 C   0  0  0  0  0  0  0  0  0  0  0  0
    8.6476  -16.3243   23.4893 O   0  0  0  0  0  0  0  0  0  0  0  0
    6.8607  -12.2848   24.5649 C   0  0  0  0  0  0  0  0  0  0  0  0
    7.2932  -13.0902   25.7601 C   0  0  1  0  0  0  0  0  0  0  0  0
    6.1941  -13.3255   26.7514 C   0  0  0  0  0  0  0  0  0  0  0  0
    7.9121  -14.4110   25.3795 C   0  0  2  0  0  0  0  0  0  0  0  0
    6.9872  -15.2417   24.6368 N   0  0  0  0  0  0  0  0  0  0  0  0
    8.4887  -15.1236   26.5429 C   0  0  0  0  0  0  0  0  0  0  0  0
    7.7246  -15.8610   27.2179 O   0  0  0  0  0  0  0  0  0  0  0  0
   12.7666  -15.2710   27.4507 C   0  0  0  0  0  0  0  0  0  0  0  0
   11.7692  -16.3754   27.5597 C   0  0  2  0  0  0  0  0  0  0  0  0
   11.7145  -17.1294   26.2570 C   0  0  0  0  0  0  0  0  0  0  0  0
   10.4141  -15.8556   27.9793 C   0  0  2  0  0  0  0  0  0  0  0  0
    9.8371  -15.0322   26.9465 N   0  0  0  0  0  0  0  0  0  0  0  0
   10.4198  -15.2086   29.2977 C   0  0  0  0  0  0  0  0  0  0  0  0
   10.6852  -15.9279   30.4530 O   0  0  0  0  0  0  0  0  0  0  0  0
   10.1850  -13.9805   29.4300 O   0  0  0  0  0  0  0  0  0  0  0  0
  2  1  1  6
  2  8  1  0
  2  3  1  0
  4  5  1  0
  4  3  1  0
  6  5  1  0
  7  6  1  0
  8 14  1  0
  9  8  2  0
 11 12  1  1
 11 10  1  0
 13 11  1  0
 13 15  1  0
 13 14  1  1
 15 16  2  0
 15 21  1  0
 18 17  1  6
 18 20  1  0
 18 19  1  0
 20 22  1  0
 20 21  1  6
 22 24  2  0
 22 23  1  0
M  END
$$$$
