KVV.pdb
     RDKit          3D

 24 23  0  0  1  0  0  0  0  0999 V2000
    9.0863  -15.2104   20.1377 N   0  0  0  0  0  0  0  0  0  0  0  0
    8.3455  -15.8175   21.2012 C   0  0  1  0  0  0  0  0  0  0  0  0
    8.7064  -17.2598   21.3489 C   0  0  0  0  0  0  0  0  0  0  0  0
    7.8198  -18.1777   20.5970 C   0  0  0  0  0  0  0  0  0  0  0  0
    6.9022  -19.0405   21.4079 C   0  0  0  0  0  0  0  0  0  0  0  0
    6.0046  -19.8736   20.4489 C   0  0  0  0  0  0  0  0  0  0  0  0
    5.2450  -20.7497   21.3253 N   0  0  0  0  0  0  0  0  0  0  0  0
    8.6501  -15.0542   22.4656 C   0  0  0  0  0  0  0  0  0  0  0  0
    9.8105  -14.6379   22.6864 O   0  0  0  0  0  0  0  0  0  0  0  0
    6.8950  -13.1579   26.7513 C   0  0  0  0  0  0  0  0  0  0  0  0
    6.7412  -13.4670   25.2867 C   0  0  1  0  0  0  0  0  0  0  0  0
    6.4077  -12.2660   24.4546 C   0  0  0  0  0  0  0  0  0  0  0  0
    7.9504  -14.1550   24.7064 C   0  0  2  0  0  0  0  0  0  0  0  0
    7.6512  -14.7833   23.4365 N   0  0  0  0  0  0  0  0  0  0  0  0
    8.5781  -15.0989   25.6598 C   0  0  0  0  0  0  0  0  0  0  0  0
    8.2800  -16.3174   25.5623 O   0  0  0  0  0  0  0  0  0  0  0  0
   11.8151  -15.9376   29.3529 C   0  0  0  0  0  0  0  0  0  0  0  0
   11.0503  -14.9653   28.5185 C   0  0  2  0  0  0  0  0  0  0  0  0
   10.2800  -14.0337   29.4171 C   0  0  0  0  0  0  0  0  0  0  0  0
   10.1584  -15.6726   27.5252 C   0  0  2  0  0  0  0  0  0  0  0  0
    9.4881  -14.7251   26.6705 N   0  0  0  0  0  0  0  0  0  0  0  0
    9.2425  -16.6377   28.1471 C   0  0  0  0  0  0  0  0  0  0  0  0
    9.6522  -17.9262   28.4541 O   0  0  0  0  0  0  0  0  0  0  0  0
    8.0544  -16.3339   28.4248 O   0  0  0  0  0  0  0  0  0  0  0  0
  2  1  1  6
  2  8  1  0
  2  3  1  0
  4  5  1  0
  4  3  1  0
  6  5  1  0
  7  6  1  0
  8 14  1  0
  9  8  2  0
 11 12  1  6
 11 10  1  0
 13 11  1  0
 13 15  1  0
 13 14  1  6
 15 16  2  0
 15 21  1  0
 18 17  1  1
 18 20  1  0
 18 19  1  0
 20 22  1  0
 20 21  1  1
 22 24  2  0
 22 23  1  0
M  END
$$$$
