KVV.pdb
     RDKit          3D

 24 23  0  0  1  0  0  0  0  0999 V2000
    9.5711  -16.0764   20.1675 N   0  0  0  0  0  0  0  0  0  0  0  0
    8.8980  -16.6145   21.3102 C   0  0  1  0  0  0  0  0  0  0  0  0
    9.3136  -18.0279   21.5593 C   0  0  0  0  0  0  0  0  0  0  0  0
    8.5916  -19.0183   20.7276 C   0  0  0  0  0  0  0  0  0  0  0  0
    9.3111  -19.5332   19.5188 C   0  0  0  0  0  0  0  0  0  0  0  0
    8.4457  -20.6326   18.8393 C   0  0  0  0  0  0  0  0  0  0  0  0
    8.4224  -21.7258   19.7971 N   0  0  0  0  0  0  0  0  0  0  0  0
    9.2312  -15.7393   22.4923 C   0  0  0  0  0  0  0  0  0  0  0  0
   10.3422  -15.1648   22.5580 O   0  0  0  0  0  0  0  0  0  0  0  0
    6.9566  -12.9346   24.1607 C   0  0  0  0  0  0  0  0  0  0  0  0
    7.4330  -13.9334   25.1804 C   0  0  1  0  0  0  0  0  0  0  0  0
    6.3641  -14.8813   25.6329 C   0  0  0  0  0  0  0  0  0  0  0  0
    8.6300  -14.7200   24.7101 C   0  0  2  0  0  0  0  0  0  0  0  0
    8.3147  -15.5367   23.5566 N   0  0  0  0  0  0  0  0  0  0  0  0
    9.2526  -15.5099   25.7975 C   0  0  0  0  0  0  0  0  0  0  0  0
    9.2811  -16.7616   25.6721 O   0  0  0  0  0  0  0  0  0  0  0  0
    9.8473  -14.4308   29.9482 C   0  0  0  0  0  0  0  0  0  0  0  0
   10.9920  -14.8574   29.0915 C   0  0  2  0  0  0  0  0  0  0  0  0
   11.7406  -13.6401   28.6157 C   0  0  0  0  0  0  0  0  0  0  0  0
   10.5302  -15.7303   27.9482 C   0  0  2  0  0  0  0  0  0  0  0  0
    9.8163  -14.9547   26.9651 N   0  0  0  0  0  0  0  0  0  0  0  0
    9.7959  -16.9247   28.3854 C   0  0  0  0  0  0  0  0  0  0  0  0
   10.4512  -18.0062   28.9540 O   0  0  0  0  0  0  0  0  0  0  0  0
    8.5478  -17.0129   28.2616 O   0  0  0  0  0  0  0  0  0  0  0  0
  2  1  1  6
  2  8  1  0
  2  3  1  0
  4  5  1  0
  4  3  1  0
  6  5  1  0
  7  6  1  0
  8 14  1  0
  9  8  2  0
 11 12  1  6
 11 10  1  0
 13 11  1  0
 13 15  1  0
 13 14  1  6
 15 16  2  0
 15 21  1  0
 18 17  1  6
 18 20  1  0
 18 19  1  0
 20 22  1  0
 20 21  1  6
 22 24  2  0
 22 23  1  0
M  END
$$$$
