KVV.pdb
     RDKit          3D

 24 23  0  0  1  0  0  0  0  0999 V2000
    8.3022  -15.0765   20.3882 N   0  0  0  0  0  0  0  0  0  0  0  0
    7.6329  -15.6716   21.5047 C   0  0  1  0  0  0  0  0  0  0  0  0
    7.7947  -17.1569   21.4955 C   0  0  0  0  0  0  0  0  0  0  0  0
    7.1142  -17.8252   20.3623 C   0  0  0  0  0  0  0  0  0  0  0  0
    5.8004  -18.4808   20.6591 C   0  0  0  0  0  0  0  0  0  0  0  0
    5.2475  -19.1287   19.3576 C   0  0  0  0  0  0  0  0  0  0  0  0
    3.9408  -19.6446   19.7307 N   0  0  0  0  0  0  0  0  0  0  0  0
    8.2167  -15.0743   22.7602 C   0  0  0  0  0  0  0  0  0  0  0  0
    9.4542  -15.0960   22.9522 O   0  0  0  0  0  0  0  0  0  0  0  0
    5.6960  -13.8427   26.1033 C   0  0  0  0  0  0  0  0  0  0  0  0
    6.9372  -13.0860   25.7142 C   0  0  1  0  0  0  0  0  0  0  0  0
    7.6090  -12.4064   26.8687 C   0  0  0  0  0  0  0  0  0  0  0  0
    7.9409  -13.9465   24.9899 C   0  0  2  0  0  0  0  0  0  0  0  0
    7.4007  -14.4753   23.7548 N   0  0  0  0  0  0  0  0  0  0  0  0
    8.5023  -15.0117   25.8525 C   0  0  0  0  0  0  0  0  0  0  0  0
    7.8472  -16.0797   25.9687 O   0  0  0  0  0  0  0  0  0  0  0  0
   12.1079  -14.6256   28.3337 C   0  0  0  0  0  0  0  0  0  0  0  0
   11.7529  -15.8291   27.5261 C   0  0  2  0  0  0  0  0  0  0  0  0
   12.4604  -15.7655   26.1979 C   0  0  0  0  0  0  0  0  0  0  0  0
   10.2564  -15.9692   27.3732 C   0  0  2  0  0  0  0  0  0  0  0  0
    9.7222  -14.9109   26.5533 N   0  0  0  0  0  0  0  0  0  0  0  0
    9.5507  -16.1209   28.6522 C   0  0  0  0  0  0  0  0  0  0  0  0
    9.6271  -17.2967   29.3830 O   0  0  0  0  0  0  0  0  0  0  0  0
    8.8517  -15.1930   29.1331 O   0  0  0  0  0  0  0  0  0  0  0  0
  2  1  1  6
  2  8  1  0
  2  3  1  0
  4  5  1  0
  4  3  1  0
  6  5  1  0
  7  6  1  0
  8 14  1  0
  9  8  2  0
 11 12  1  1
 11 10  1  0
 13 11  1  0
 13 15  1  0
 13 14  1  6
 15 16  2  0
 15 21  1  0
 18 17  1  6
 18 20  1  0
 18 19  1  0
 20 22  1  0
 20 21  1  1
 22 24  2  0
 22 23  1  0
M  END
$$$$
