KVV.pdb
     RDKit          3D

 24 23  0  0  1  0  0  0  0  0999 V2000
   10.3653  -17.4643   19.2235 N   0  0  0  0  0  0  0  0  0  0  0  0
   10.6056  -17.4599   20.6344 C   0  0  1  0  0  0  0  0  0  0  0  0
   11.9864  -16.9777   20.9401 C   0  0  0  0  0  0  0  0  0  0  0  0
   13.0066  -18.0516   20.9461 C   0  0  0  0  0  0  0  0  0  0  0  0
   14.3865  -17.6655   21.3828 C   0  0  0  0  0  0  0  0  0  0  0  0
   15.3085  -18.9170   21.3271 C   0  0  0  0  0  0  0  0  0  0  0  0
   16.5223  -18.4504   20.6776 N   0  0  0  0  0  0  0  0  0  0  0  0
    9.5706  -16.5680   21.2726 C   0  0  0  0  0  0  0  0  0  0  0  0
    9.1974  -15.5215   20.6945 O   0  0  0  0  0  0  0  0  0  0  0  0
    6.0827  -17.2610   21.9501 C   0  0  0  0  0  0  0  0  0  0  0  0
    6.6593  -16.8334   23.2726 C   0  0  1  0  0  0  0  0  0  0  0  0
    6.8666  -17.9685   24.2289 C   0  0  0  0  0  0  0  0  0  0  0  0
    7.9475  -16.0645   23.1251 C   0  0  2  0  0  0  0  0  0  0  0  0
    8.9899  -16.8750   22.5306 N   0  0  0  0  0  0  0  0  0  0  0  0
    8.3844  -15.4405   24.3953 C   0  0  0  0  0  0  0  0  0  0  0  0
    9.4018  -15.9152   24.9635 O   0  0  0  0  0  0  0  0  0  0  0  0
    5.8758  -12.8805   26.8617 C   0  0  0  0  0  0  0  0  0  0  0  0
    7.3229  -12.5914   26.6404 C   0  0  2  0  0  0  0  0  0  0  0  0
    7.4644  -11.5422   25.5691 C   0  0  0  0  0  0  0  0  0  0  0  0
    8.0936  -13.8499   26.3167 C   0  0  2  0  0  0  0  0  0  0  0  0
    7.7375  -14.3495   25.0124 N   0  0  0  0  0  0  0  0  0  0  0  0
    8.0114  -14.8715   27.3685 C   0  0  0  0  0  0  0  0  0  0  0  0
    8.7556  -14.7684   28.5338 O   0  0  0  0  0  0  0  0  0  0  0  0
    7.2650  -15.8768   27.2537 O   0  0  0  0  0  0  0  0  0  0  0  0
  2  1  1  6
  2  8  1  0
  2  3  1  0
  4  5  1  0
  4  3  1  0
  6  5  1  0
  7  6  1  0
  8 14  1  0
  9  8  2  0
 11 12  1  1
 11 10  1  0
 13 11  1  0
 13 15  1  0
 13 14  1  1
 15 16  2  0
 15 21  1  0
 18 17  1  6
 18 20  1  0
 18 19  1  0
 20 22  1  0
 20 21  1  6
 22 24  2  0
 22 23  1  0
M  END
$$$$
