KVV.pdb
     RDKit          3D

 24 23  0  0  1  0  0  0  0  0999 V2000
   11.3929  -16.9239   19.5524 N   0  0  0  0  0  0  0  0  0  0  0  0
   11.0983  -17.5895   20.7848 C   0  0  1  0  0  0  0  0  0  0  0  0
   12.2832  -18.3566   21.2748 C   0  0  0  0  0  0  0  0  0  0  0  0
   12.5976  -19.5541   20.4617 C   0  0  0  0  0  0  0  0  0  0  0  0
   13.6649  -20.4634   20.9890 C   0  0  0  0  0  0  0  0  0  0  0  0
   13.8391  -21.6643   20.0158 C   0  0  0  0  0  0  0  0  0  0  0  0
   14.8670  -22.4885   20.6299 N   0  0  0  0  0  0  0  0  0  0  0  0
   10.6858  -16.5393   21.7853 C   0  0  0  0  0  0  0  0  0  0  0  0
   11.3833  -15.5113   21.9440 O   0  0  0  0  0  0  0  0  0  0  0  0
    7.1532  -14.9125   22.1871 C   0  0  0  0  0  0  0  0  0  0  0  0
    7.6265  -15.4342   23.5168 C   0  0  1  0  0  0  0  0  0  0  0  0
    6.9076  -16.6710   23.9634 C   0  0  0  0  0  0  0  0  0  0  0  0
    9.1130  -15.6827   23.5494 C   0  0  2  0  0  0  0  0  0  0  0  0
    9.5120  -16.6734   22.5715 N   0  0  0  0  0  0  0  0  0  0  0  0
    9.6034  -16.0127   24.9075 C   0  0  0  0  0  0  0  0  0  0  0  0
   10.0042  -17.1868   25.1182 O   0  0  0  0  0  0  0  0  0  0  0  0
   10.3063  -13.0152   27.6524 C   0  0  0  0  0  0  0  0  0  0  0  0
    9.8876  -14.3079   28.2689 C   0  0  2  0  0  0  0  0  0  0  0  0
   10.6343  -14.5098   29.5614 C   0  0  0  0  0  0  0  0  0  0  0  0
   10.0745  -15.4618   27.3118 C   0  0  2  0  0  0  0  0  0  0  0  0
    9.6521  -15.1003   25.9820 N   0  0  0  0  0  0  0  0  0  0  0  0
    9.4766  -16.7165   27.7864 C   0  0  0  0  0  0  0  0  0  0  0  0
   10.2161  -17.6395   28.5100 O   0  0  0  0  0  0  0  0  0  0  0  0
    8.2739  -17.0018   27.5558 O   0  0  0  0  0  0  0  0  0  0  0  0
  2  1  1  6
  2  8  1  0
  2  3  1  0
  4  5  1  0
  4  3  1  0
  6  5  1  0
  7  6  1  0
  8 14  1  0
  9  8  2  0
 11 12  1  6
 11 10  1  0
 13 11  1  0
 13 15  1  0
 13 14  1  6
 15 16  2  0
 15 21  1  0
 18 17  1  6
 18 20  1  0
 18 19  1  0
 20 22  1  0
 20 21  1  6
 22 24  2  0
 22 23  1  0
M  END
$$$$
