KVV.pdb
     RDKit          3D

 24 23  0  0  1  0  0  0  0  0999 V2000
    6.0063  -16.9386   19.5510 N   0  0  0  0  0  0  0  0  0  0  0  0
    6.8696  -16.1320   20.3589 C   0  0  1  0  0  0  0  0  0  0  0  0
    6.7099  -14.6832   20.0305 C   0  0  0  0  0  0  0  0  0  0  0  0
    7.1369  -14.3314   18.6565 C   0  0  0  0  0  0  0  0  0  0  0  0
    8.6065  -14.1406   18.4374 C   0  0  0  0  0  0  0  0  0  0  0  0
    8.8522  -13.7215   16.9597 C   0  0  0  0  0  0  0  0  0  0  0  0
   10.2948  -13.5792   16.8534 N   0  0  0  0  0  0  0  0  0  0  0  0
    6.5256  -16.3975   21.8030 C   0  0  0  0  0  0  0  0  0  0  0  0
    5.3343  -16.3497   22.1863 O   0  0  0  0  0  0  0  0  0  0  0  0
    6.8464  -19.1712   24.2952 C   0  0  0  0  0  0  0  0  0  0  0  0
    7.6349  -18.0083   24.8338 C   0  0  1  0  0  0  0  0  0  0  0  0
    9.1185  -18.1966   24.7375 C   0  0  0  0  0  0  0  0  0  0  0  0
    7.2559  -16.6992   24.1894 C   0  0  2  0  0  0  0  0  0  0  0  0
    7.5213  -16.7063   22.7659 N   0  0  0  0  0  0  0  0  0  0  0  0
    7.8738  -15.5347   24.8646 C   0  0  0  0  0  0  0  0  0  0  0  0
    9.0997  -15.3262   24.6718 O   0  0  0  0  0  0  0  0  0  0  0  0
    7.4989  -11.2286   27.2342 C   0  0  0  0  0  0  0  0  0  0  0  0
    6.8340  -12.4131   26.6168 C   0  0  2  0  0  0  0  0  0  0  0  0
    5.6684  -12.8341   27.4728 C   0  0  0  0  0  0  0  0  0  0  0  0
    7.8146  -13.5395   26.3885 C   0  0  2  0  0  0  0  0  0  0  0  0
    7.1817  -14.6424   25.7097 N   0  0  0  0  0  0  0  0  0  0  0  0
    8.5315  -13.9448   27.6045 C   0  0  0  0  0  0  0  0  0  0  0  0
    9.5847  -13.1945   28.1047 O   0  0  0  0  0  0  0  0  0  0  0  0
    8.2190  -14.9851   28.2378 O   0  0  0  0  0  0  0  0  0  0  0  0
  2  1  1  6
  2  8  1  0
  2  3  1  0
  4  5  1  0
  4  3  1  0
  6  5  1  0
  7  6  1  0
  8 14  1  0
  9  8  2  0
 11 12  1  6
 11 10  1  0
 13 11  1  0
 13 15  1  0
 13 14  1  6
 15 16  2  0
 15 21  1  0
 18 17  1  1
 18 20  1  0
 18 19  1  0
 20 22  1  0
 20 21  1  1
 22 24  2  0
 22 23  1  0
M  END
$$$$
