KVV.pdb
     RDKit          3D

 24 23  0  0  1  0  0  0  0  0999 V2000
    7.2246  -17.0430   21.6683 N   0  0  0  0  0  0  0  0  0  0  0  0
    6.6418  -16.8908   22.9666 C   0  0  1  0  0  0  0  0  0  0  0  0
    6.4983  -18.2134   23.6467 C   0  0  0  0  0  0  0  0  0  0  0  0
    5.6276  -19.1670   22.9212 C   0  0  0  0  0  0  0  0  0  0  0  0
    5.2323  -20.4103   23.6574 C   0  0  0  0  0  0  0  0  0  0  0  0
    4.2992  -21.2646   22.7524 C   0  0  0  0  0  0  0  0  0  0  0  0
    5.1974  -21.9299   21.8231 N   0  0  0  0  0  0  0  0  0  0  0  0
    7.5314  -15.9698   23.7630 C   0  0  0  0  0  0  0  0  0  0  0  0
    8.7759  -16.0289   23.6349 O   0  0  0  0  0  0  0  0  0  0  0  0
    6.6865  -12.0780   24.7620 C   0  0  0  0  0  0  0  0  0  0  0  0
    7.1300  -12.9213   25.9267 C   0  0  1  0  0  0  0  0  0  0  0  0
    6.0160  -13.2801   26.8629 C   0  0  0  0  0  0  0  0  0  0  0  0
    7.8444  -14.1775   25.4977 C   0  0  2  0  0  0  0  0  0  0  0  0
    7.0019  -15.0175   24.6722 N   0  0  0  0  0  0  0  0  0  0  0  0
    8.4210  -14.9211   26.6416 C   0  0  0  0  0  0  0  0  0  0  0  0
    7.7020  -15.7899   27.1998 O   0  0  0  0  0  0  0  0  0  0  0  0
   12.6585  -14.9225   27.5649 C   0  0  0  0  0  0  0  0  0  0  0  0
   11.6916  -16.0557   27.6533 C   0  0  2  0  0  0  0  0  0  0  0  0
   11.6240  -16.7592   26.3232 C   0  0  0  0  0  0  0  0  0  0  0  0
   10.3347  -15.5877   28.1247 C   0  0  2  0  0  0  0  0  0  0  0  0
    9.7219  -14.7218   27.1487 N   0  0  0  0  0  0  0  0  0  0  0  0
   10.3526  -15.0129   29.4760 C   0  0  0  0  0  0  0  0  0  0  0  0
    9.9843  -13.6959   29.7046 O   0  0  0  0  0  0  0  0  0  0  0  0
   10.7017  -15.6908   30.4758 O   0  0  0  0  0  0  0  0  0  0  0  0
  2  1  1  6
  2  8  1  0
  2  3  1  0
  4  5  1  0
  4  3  1  0
  6  5  1  0
  7  6  1  0
  8 14  1  0
  9  8  2  0
 11 12  1  6
 11 10  1  0
 13 11  1  0
 13 15  1  0
 13 14  1  1
 15 16  2  0
 15 21  1  0
 18 17  1  6
 18 20  1  0
 18 19  1  0
 20 22  1  0
 20 21  1  6
 22 24  2  0
 22 23  1  0
M  END
$$$$
