KVV.pdb
     RDKit          3D

 24 23  0  0  1  0  0  0  0  0999 V2000
    7.5498  -14.6197   20.6328 N   0  0  0  0  0  0  0  0  0  0  0  0
    6.9990  -15.1266   21.8527 C   0  0  1  0  0  0  0  0  0  0  0  0
    6.9705  -16.6205   21.8465 C   0  0  0  0  0  0  0  0  0  0  0  0
    6.1316  -17.1975   20.7708 C   0  0  0  0  0  0  0  0  0  0  0  0
    6.0323  -18.6915   20.7239 C   0  0  0  0  0  0  0  0  0  0  0  0
    5.0767  -19.1037   19.5680 C   0  0  0  0  0  0  0  0  0  0  0  0
    4.9836  -20.5509   19.6669 N   0  0  0  0  0  0  0  0  0  0  0  0
    7.8464  -14.6092   22.9878 C   0  0  0  0  0  0  0  0  0  0  0  0
    9.0842  -14.4838   22.8440 O   0  0  0  0  0  0  0  0  0  0  0  0
    7.2059  -11.4566   25.3061 C   0  0  0  0  0  0  0  0  0  0  0  0
    7.4111  -12.7003   26.1279 C   0  0  1  0  0  0  0  0  0  0  0  0
    6.1482  -13.2281   26.7382 C   0  0  0  0  0  0  0  0  0  0  0  0
    8.0903  -13.8029   25.3563 C   0  0  2  0  0  0  0  0  0  0  0  0
    7.2836  -14.2510   24.2403 N   0  0  0  0  0  0  0  0  0  0  0  0
    8.5119  -14.9264   26.2244 C   0  0  0  0  0  0  0  0  0  0  0  0
    7.6572  -15.8072   26.5019 O   0  0  0  0  0  0  0  0  0  0  0  0
   12.6687  -15.8040   27.1644 C   0  0  0  0  0  0  0  0  0  0  0  0
   11.5577  -16.7603   26.8858 C   0  0  2  0  0  0  0  0  0  0  0  0
   11.4803  -17.0178   25.4038 C   0  0  0  0  0  0  0  0  0  0  0  0
   10.2476  -16.2639   27.4512 C   0  0  2  0  0  0  0  0  0  0  0  0
    9.8072  -15.0769   26.7621 N   0  0  0  0  0  0  0  0  0  0  0  0
   10.2627  -16.1113   28.9118 C   0  0  0  0  0  0  0  0  0  0  0  0
   10.4239  -17.2044   29.7494 O   0  0  0  0  0  0  0  0  0  0  0  0
   10.1303  -14.9867   29.4582 O   0  0  0  0  0  0  0  0  0  0  0  0
  2  1  1  6
  2  8  1  0
  2  3  1  0
  4  5  1  0
  4  3  1  0
  6  5  1  0
  7  6  1  0
  8 14  1  0
  9  8  2  0
 11 12  1  6
 11 10  1  0
 13 11  1  0
 13 15  1  0
 13 14  1  6
 15 16  2  0
 15 21  1  0
 18 17  1  6
 18 20  1  0
 18 19  1  0
 20 22  1  0
 20 21  1  6
 22 24  2  0
 22 23  1  0
M  END
$$$$
