KVV.pdb
     RDKit          3D

 24 23  0  0  1  0  0  0  0  0999 V2000
   10.1132  -16.2226   20.1540 N   0  0  0  0  0  0  0  0  0  0  0  0
    9.5242  -16.8969   21.2708 C   0  0  1  0  0  0  0  0  0  0  0  0
   10.2425  -18.1738   21.5640 C   0  0  0  0  0  0  0  0  0  0  0  0
    9.4036  -19.3831   21.3970 C   0  0  0  0  0  0  0  0  0  0  0  0
    9.1914  -19.8658   19.9949 C   0  0  0  0  0  0  0  0  0  0  0  0
    8.2910  -21.1338   20.0223 C   0  0  0  0  0  0  0  0  0  0  0  0
    8.0613  -21.4515   18.6226 N   0  0  0  0  0  0  0  0  0  0  0  0
    9.5832  -15.9625   22.4530 C   0  0  0  0  0  0  0  0  0  0  0  0
   10.6309  -15.3218   22.6985 O   0  0  0  0  0  0  0  0  0  0  0  0
    6.2368  -15.4577   25.3344 C   0  0  0  0  0  0  0  0  0  0  0  0
    7.1423  -14.3737   24.8155 C   0  0  1  0  0  0  0  0  0  0  0  0
    7.2753  -13.2087   25.7490 C   0  0  0  0  0  0  0  0  0  0  0  0
    8.5148  -14.8835   24.4564 C   0  0  2  0  0  0  0  0  0  0  0  0
    8.4732  -15.7768   23.3174 N   0  0  0  0  0  0  0  0  0  0  0  0
    9.2157  -15.4885   25.6125 C   0  0  0  0  0  0  0  0  0  0  0  0
    9.3803  -16.7360   25.6125 O   0  0  0  0  0  0  0  0  0  0  0  0
    9.3665  -14.0625   29.6375 C   0  0  0  0  0  0  0  0  0  0  0  0
   10.6415  -14.3753   28.9282 C   0  0  2  0  0  0  0  0  0  0  0  0
   11.2683  -13.0956   28.4401 C   0  0  0  0  0  0  0  0  0  0  0  0
   10.4221  -15.3692   27.8117 C   0  0  2  0  0  0  0  0  0  0  0  0
    9.7119  -14.7614   26.7145 N   0  0  0  0  0  0  0  0  0  0  0  0
    9.8183  -16.6297   28.2627 C   0  0  0  0  0  0  0  0  0  0  0  0
   10.5595  -17.5794   28.9492 O   0  0  0  0  0  0  0  0  0  0  0  0
    8.6091  -16.8962   28.0445 O   0  0  0  0  0  0  0  0  0  0  0  0
  2  1  1  6
  2  8  1  0
  2  3  1  0
  4  5  1  0
  4  3  1  0
  6  5  1  0
  7  6  1  0
  8 14  1  0
  9  8  2  0
 11 12  1  1
 11 10  1  0
 13 11  1  0
 13 15  1  0
 13 14  1  6
 15 16  2  0
 15 21  1  0
 18 17  1  6
 18 20  1  0
 18 19  1  0
 20 22  1  0
 20 21  1  6
 22 24  2  0
 22 23  1  0
M  END
$$$$
