KVV.pdb
     RDKit          3D

 24 23  0  0  1  0  0  0  0  0999 V2000
   11.8568  -17.5239   19.9723 N   0  0  0  0  0  0  0  0  0  0  0  0
   10.8594  -17.9576   20.9028 C   0  0  1  0  0  0  0  0  0  0  0  0
   11.3243  -19.1555   21.6652 C   0  0  0  0  0  0  0  0  0  0  0  0
   12.3287  -19.9704   20.9434 C   0  0  0  0  0  0  0  0  0  0  0  0
   12.7998  -21.2173   21.6270 C   0  0  0  0  0  0  0  0  0  0  0  0
   13.9136  -21.8810   20.7677 C   0  0  0  0  0  0  0  0  0  0  0  0
   14.3600  -23.0161   21.5583 N   0  0  0  0  0  0  0  0  0  0  0  0
   10.5695  -16.8067   21.8331 C   0  0  0  0  0  0  0  0  0  0  0  0
   11.4597  -15.9638   22.0895 O   0  0  0  0  0  0  0  0  0  0  0  0
    7.1759  -14.0896   24.2545 C   0  0  0  0  0  0  0  0  0  0  0  0
    7.5980  -15.0333   23.1611 C   0  0  1  0  0  0  0  0  0  0  0  0
    7.4493  -14.4581   21.7852 C   0  0  0  0  0  0  0  0  0  0  0  0
    9.0068  -15.5392   23.3400 C   0  0  2  0  0  0  0  0  0  0  0  0
    9.2993  -16.6377   22.4430 N   0  0  0  0  0  0  0  0  0  0  0  0
    9.3143  -15.8750   24.7494 C   0  0  0  0  0  0  0  0  0  0  0  0
    9.1148  -17.0582   25.1283 O   0  0  0  0  0  0  0  0  0  0  0  0
    8.8125  -13.4696   28.2078 C   0  0  0  0  0  0  0  0  0  0  0  0
   10.1581  -14.0499   27.9265 C   0  0  2  0  0  0  0  0  0  0  0  0
   11.0334  -12.9987   27.2960 C   0  0  0  0  0  0  0  0  0  0  0  0
   10.0553  -15.2956   27.0778 C   0  0  2  0  0  0  0  0  0  0  0  0
    9.8159  -14.9585   25.6970 N   0  0  0  0  0  0  0  0  0  0  0  0
    9.1046  -16.2836   27.6041 C   0  0  0  0  0  0  0  0  0  0  0  0
    9.4610  -17.1576   28.6198 O   0  0  0  0  0  0  0  0  0  0  0  0
    7.9336  -16.3752   27.1555 O   0  0  0  0  0  0  0  0  0  0  0  0
  2  1  1  6
  2  8  1  0
  2  3  1  0
  4  5  1  0
  4  3  1  0
  6  5  1  0
  7  6  1  0
  8 14  1  0
  9  8  2  0
 11 12  1  6
 11 10  1  0
 13 11  1  0
 13 15  1  0
 13 14  1  6
 15 16  2  0
 15 21  1  0
 18 17  1  6
 18 20  1  0
 18 19  1  0
 20 22  1  0
 20 21  1  6
 22 24  2  0
 22 23  1  0
M  END
$$$$
