KVV.pdb
     RDKit          3D

 24 23  0  0  1  0  0  0  0  0999 V2000
    9.7847  -17.0571   19.8372 N   0  0  0  0  0  0  0  0  0  0  0  0
   10.1895  -17.7176   21.0407 C   0  0  1  0  0  0  0  0  0  0  0  0
   11.6689  -17.6261   21.2291 C   0  0  0  0  0  0  0  0  0  0  0  0
   12.3984  -18.8538   20.8361 C   0  0  0  0  0  0  0  0  0  0  0  0
   13.8901  -18.8212   20.9693 C   0  0  0  0  0  0  0  0  0  0  0  0
   14.4824  -20.1424   20.4009 C   0  0  0  0  0  0  0  0  0  0  0  0
   15.9220  -19.9810   20.5211 N   0  0  0  0  0  0  0  0  0  0  0  0
    9.4594  -17.0665   22.1883 C   0  0  0  0  0  0  0  0  0  0  0  0
    9.2701  -15.8285   22.1938 O   0  0  0  0  0  0  0  0  0  0  0  0
    7.4831  -19.4554   25.1553 C   0  0  0  0  0  0  0  0  0  0  0  0
    7.1222  -18.0208   24.8798 C   0  0  1  0  0  0  0  0  0  0  0  0
    6.4709  -17.3348   26.0422 C   0  0  0  0  0  0  0  0  0  0  0  0
    8.3000  -17.2028   24.4146 C   0  0  2  0  0  0  0  0  0  0  0  0
    8.9676  -17.8185   23.2867 N   0  0  0  0  0  0  0  0  0  0  0  0
    9.2413  -16.8875   25.5139 C   0  0  0  0  0  0  0  0  0  0  0  0
   10.2392  -17.6386   25.6663 O   0  0  0  0  0  0  0  0  0  0  0  0
    9.1697  -13.2082   27.4813 C   0  0  0  0  0  0  0  0  0  0  0  0
    9.5130  -14.3840   28.3335 C   0  0  2  0  0  0  0  0  0  0  0  0
   10.5201  -13.9695   29.3740 C   0  0  0  0  0  0  0  0  0  0  0  0
    9.9953  -15.5479   27.4996 C   0  0  2  0  0  0  0  0  0  0  0  0
    9.0956  -15.8018   26.4025 N   0  0  0  0  0  0  0  0  0  0  0  0
   10.2943  -16.7485   28.2908 C   0  0  0  0  0  0  0  0  0  0  0  0
    9.3312  -17.7189   28.5210 O   0  0  0  0  0  0  0  0  0  0  0  0
   11.4323  -16.9426   28.7890 O   0  0  0  0  0  0  0  0  0  0  0  0
  2  1  1  6
  2  8  1  0
  2  3  1  0
  4  5  1  0
  4  3  1  0
  6  5  1  0
  7  6  1  0
  8 14  1  0
  9  8  2  0
 11 12  1  1
 11 10  1  0
 13 11  1  0
 13 15  1  0
 13 14  1  6
 15 16  2  0
 15 21  1  0
 18 17  1  6
 18 20  1  0
 18 19  1  0
 20 22  1  0
 20 21  1  6
 22 24  2  0
 22 23  1  0
M  END
$$$$
