KVV.pdb
     RDKit          3D

 24 23  0  0  1  0  0  0  0  0999 V2000
    9.8905  -16.1116   20.5326 N   0  0  0  0  0  0  0  0  0  0  0  0
    8.8920  -16.4831   21.4884 C   0  0  1  0  0  0  0  0  0  0  0  0
    8.9972  -17.9324   21.8359 C   0  0  0  0  0  0  0  0  0  0  0  0
    8.6457  -18.8413   20.7205 C   0  0  0  0  0  0  0  0  0  0  0  0
    8.5887  -20.3043   21.0378 C   0  0  0  0  0  0  0  0  0  0  0  0
    8.1437  -21.0851   19.7682 C   0  0  0  0  0  0  0  0  0  0  0  0
    8.1875  -22.4833   20.1629 N   0  0  0  0  0  0  0  0  0  0  0  0
    9.0848  -15.6212   22.7107 C   0  0  0  0  0  0  0  0  0  0  0  0
   10.2062  -15.1223   22.9597 O   0  0  0  0  0  0  0  0  0  0  0  0
    6.8852  -13.2870   26.5447 C   0  0  0  0  0  0  0  0  0  0  0  0
    6.8898  -13.8008   25.1303 C   0  0  1  0  0  0  0  0  0  0  0  0
    6.5840  -12.7460   24.1106 C   0  0  0  0  0  0  0  0  0  0  0  0
    8.1807  -14.4881   24.7645 C   0  0  2  0  0  0  0  0  0  0  0  0
    8.0215  -15.3473   23.6098 N   0  0  0  0  0  0  0  0  0  0  0  0
    8.7870  -15.2037   25.9109 C   0  0  0  0  0  0  0  0  0  0  0  0
    8.3867  -16.3719   26.1524 O   0  0  0  0  0  0  0  0  0  0  0  0
   10.4550  -13.1367   28.9715 C   0  0  0  0  0  0  0  0  0  0  0  0
   10.1123  -14.5768   29.1590 C   0  0  2  0  0  0  0  0  0  0  0  0
   10.9013  -15.1312   30.3161 C   0  0  0  0  0  0  0  0  0  0  0  0
   10.3268  -15.3650   27.8881 C   0  0  2  0  0  0  0  0  0  0  0  0
    9.7835  -14.6650   26.7512 N   0  0  0  0  0  0  0  0  0  0  0  0
    9.8699  -16.7577   27.9809 C   0  0  0  0  0  0  0  0  0  0  0  0
    8.5474  -17.1001   27.7441 O   0  0  0  0  0  0  0  0  0  0  0  0
   10.6580  -17.6912   28.2779 O   0  0  0  0  0  0  0  0  0  0  0  0
  2  1  1  6
  2  8  1  0
  2  3  1  0
  4  5  1  0
  4  3  1  0
  6  5  1  0
  7  6  1  0
  8 14  1  0
  9  8  2  0
 11 12  1  6
 11 10  1  0
 13 11  1  0
 13 15  1  0
 13 14  1  6
 15 16  2  0
 15 21  1  0
 18 17  1  6
 18 20  1  0
 18 19  1  0
 20 22  1  0
 20 21  1  6
 22 24  2  0
 22 23  1  0
M  END
$$$$
