SRI.pdb
     RDKit          3D

 26 25  0  0  1  0  0  0  0  0999 V2000
    6.7558  -17.9248   25.4382 O   0  0  0  0  0  0  0  0  0  0  0  0
    7.1300  -19.1336   24.8752 C   0  0  0  0  0  0  0  0  0  0  0  0
    6.9694  -19.0253   23.3836 C   0  0  2  0  0  0  0  0  0  0  0  0
    7.3142  -20.2428   22.6864 N   0  0  0  0  0  0  0  0  0  0  0  0
    7.7947  -17.9235   22.8632 C   0  0  0  0  0  0  0  0  0  0  0  0
    9.0442  -18.0078   22.7044 O   0  0  0  0  0  0  0  0  0  0  0  0
    7.5915  -14.6562   17.1685 N   0  0  0  0  0  0  0  0  0  0  0  0
    8.6438  -13.7068   17.4256 C   0  0  0  0  0  0  0  0  0  0  0  0
    9.6803  -13.7183   16.6707 N   0  0  0  0  0  0  0  0  0  0  0  0
    8.5326  -12.7843   18.4862 N   0  0  0  0  0  0  0  0  0  0  0  0
    7.4813  -12.8893   19.4498 C   0  0  0  0  0  0  0  0  0  0  0  0
    7.9829  -13.4205   20.7741 C   0  0  0  0  0  0  0  0  0  0  0  0
    7.1523  -14.5876   21.2374 C   0  0  0  0  0  0  0  0  0  0  0  0
    7.8886  -15.5299   22.0816 C   0  0  2  0  0  0  0  0  0  0  0  0
    7.2065  -16.6996   22.5140 N   0  0  0  0  0  0  0  0  0  0  0  0
    8.3433  -14.7892   23.2998 C   0  0  0  0  0  0  0  0  0  0  0  0
    8.7186  -13.6069   23.1693 O   0  0  0  0  0  0  0  0  0  0  0  0
   10.4081  -13.0001   16.7553 C   0  0  0  0  0  0  0  0  0  0  0  0
    6.5721  -11.3207   26.2437 C   0  0  0  0  0  0  0  0  0  0  0  0
    7.7247  -12.2153   26.0243 C   0  0  2  0  0  0  0  0  0  0  0  0
    7.5043  -13.6756   25.9533 C   0  0  0  0  0  0  0  0  0  0  0  0
    6.5642  -14.1179   27.0786 C   0  0  2  0  0  0  0  0  0  0  0  0
    8.6469  -14.5868   25.7754 N   0  0  0  0  0  0  0  0  0  0  0  0
    8.3564  -15.3885   24.5727 C   0  0  0  0  0  0  0  0  0  0  0  0
    9.0696  -15.4691   26.8303 O   0  0  0  0  0  0  0  0  0  0  0  0
    9.7037  -14.8956   27.9683 O   0  0  0  0  0  0  0  0  0  0  0  0
  2  1  1  0
  3  2  1  0
  3  4  1  6
  5  3  1  0
  5  6  2  0
  7  8  1  0
  8 10  1  0
  9  8  2  0
 10 11  1  0
 11 12  1  0
 12 13  1  0
 14 13  1  1
 14 15  1  0
 15  5  1  0
 16 14  1  0
 17 16  2  0
 19 18  1  0
 20 19  1  0
 20 22  1  0
 20 21  1  6
 22 24  1  0
 22 23  1  1
 23 16  1  0
 24 25  1  0
 26 24  2  0
M  END
$$$$
