SRI.pdb
     RDKit          3D

 26 25  0  0  1  0  0  0  0  0999 V2000
    9.5472  -14.8462   19.1802 O   0  0  0  0  0  0  0  0  0  0  0  0
    9.2556  -16.0521   19.7959 C   0  0  0  0  0  0  0  0  0  0  0  0
    7.7599  -16.1826   19.8855 C   0  0  2  0  0  0  0  0  0  0  0  0
    7.0567  -15.2096   19.0818 N   0  0  0  0  0  0  0  0  0  0  0  0
    7.3226  -16.0560   21.2850 C   0  0  0  0  0  0  0  0  0  0  0  0
    6.6136  -15.1004   21.7066 O   0  0  0  0  0  0  0  0  0  0  0  0
    6.5152  -23.3181   25.7775 N   0  0  0  0  0  0  0  0  0  0  0  0
    5.5998  -22.9847   24.7166 C   0  0  0  0  0  0  0  0  0  0  0  0
    4.7642  -23.8742   24.3232 N   0  0  0  0  0  0  0  0  0  0  0  0
    5.6244  -21.7047   24.1253 N   0  0  0  0  0  0  0  0  0  0  0  0
    6.5605  -20.7115   24.5519 C   0  0  0  0  0  0  0  0  0  0  0  0
    6.3640  -19.4022   23.8208 C   0  0  0  0  0  0  0  0  0  0  0  0
    7.3679  -18.3753   24.2724 C   0  0  0  0  0  0  0  0  0  0  0  0
    7.2417  -17.0914   23.5808 C   0  0  2  0  0  0  0  0  0  0  0  0
    7.6888  -17.0216   22.2333 N   0  0  0  0  0  0  0  0  0  0  0  0
    8.0047  -16.0737   24.3690 C   0  0  0  0  0  0  0  0  0  0  0  0
    9.1918  -15.8508   24.0578 O   0  0  0  0  0  0  0  0  0  0  0  0
    4.1355  -23.7004   23.5313 C   0  0  0  0  0  0  0  0  0  0  0  0
    5.3645  -11.7186   26.1003 C   0  0  0  0  0  0  0  0  0  0  0  0
    6.3918  -12.6715   25.6385 C   0  0  2  0  0  0  0  0  0  0  0  0
    7.2555  -13.3431   26.6330 C   0  0  0  0  0  0  0  0  0  0  0  0
    7.8960  -12.3029   27.5567 C   0  0  2  0  0  0  0  0  0  0  0  0
    8.2042  -14.3838   26.2037 N   0  0  0  0  0  0  0  0  0  0  0  0
    7.4207  -15.3714   25.4393 C   0  0  0  0  0  0  0  0  0  0  0  0
    9.0283  -15.0811   27.1549 O   0  0  0  0  0  0  0  0  0  0  0  0
   10.3272  -14.5633   27.4210 O   0  0  0  0  0  0  0  0  0  0  0  0
  2  1  1  0
  3  2  1  0
  3  4  1  6
  5  3  1  0
  5  6  2  0
  7  8  1  0
  8 10  1  0
  9  8  2  0
 10 11  1  0
 11 12  1  0
 12 13  1  0
 14 13  1  1
 14 15  1  0
 15  5  1  0
 16 14  1  0
 17 16  2  0
 19 18  1  0
 20 19  1  0
 20 22  1  0
 20 21  1  1
 22 24  1  0
 22 23  1  6
 23 16  1  0
 24 25  1  0
 26 24  2  0
M  END
$$$$
