SRI.pdb
     RDKit          3D

 26 25  0  0  1  0  0  0  0  0999 V2000
    5.9836  -19.6945   26.2941 O   0  0  0  0  0  0  0  0  0  0  0  0
    6.3077  -18.6289   25.4709 C   0  0  0  0  0  0  0  0  0  0  0  0
    6.6416  -19.1735   24.1092 C   0  0  2  0  0  0  0  0  0  0  0  0
    7.0326  -20.5640   24.1350 N   0  0  0  0  0  0  0  0  0  0  0  0
    7.7211  -18.3822   23.4972 C   0  0  0  0  0  0  0  0  0  0  0  0
    8.9367  -18.7209   23.5350 O   0  0  0  0  0  0  0  0  0  0  0  0
    8.2684  -12.1522   18.7611 N   0  0  0  0  0  0  0  0  0  0  0  0
    7.7596  -13.3701   18.1845 C   0  0  0  0  0  0  0  0  0  0  0  0
    6.7438  -13.3038   17.4048 N   0  0  0  0  0  0  0  0  0  0  0  0
    8.3692  -14.6085   18.4732 N   0  0  0  0  0  0  0  0  0  0  0  0
    9.4898  -14.6922   19.3576 C   0  0  0  0  0  0  0  0  0  0  0  0
    9.0912  -14.4460   20.7956 C   0  0  0  0  0  0  0  0  0  0  0  0
    8.0063  -15.3969   21.2258 C   0  0  0  0  0  0  0  0  0  0  0  0
    8.3757  -16.2221   22.3772 C   0  0  2  0  0  0  0  0  0  0  0  0
    7.4318  -17.1843   22.8286 N   0  0  0  0  0  0  0  0  0  0  0  0
    8.6723  -15.3018   23.5193 C   0  0  0  0  0  0  0  0  0  0  0  0
    9.0022  -14.1265   23.2635 O   0  0  0  0  0  0  0  0  0  0  0  0
    6.3783  -14.1394   16.9348 C   0  0  0  0  0  0  0  0  0  0  0  0
    6.9336  -11.5459   26.8064 C   0  0  0  0  0  0  0  0  0  0  0  0
    8.0484  -12.5088   26.7258 C   0  0  2  0  0  0  0  0  0  0  0  0
    7.9112  -13.7047   25.8672 C   0  0  0  0  0  0  0  0  0  0  0  0
    6.4645  -14.2065   25.8967 C   0  0  2  0  0  0  0  0  0  0  0  0
    8.8942  -14.7968   25.9601 N   0  0  0  0  0  0  0  0  0  0  0  0
    8.5882  -15.7270   24.8579 C   0  0  0  0  0  0  0  0  0  0  0  0
    9.0580  -15.5527   27.1732 O   0  0  0  0  0  0  0  0  0  0  0  0
    8.4953  -16.8590   27.2286 O   0  0  0  0  0  0  0  0  0  0  0  0
  2  1  1  0
  3  2  1  0
  3  4  1  1
  5  3  1  0
  5  6  2  0
  7  8  1  0
  8 10  1  0
  9  8  2  0
 10 11  1  0
 11 12  1  0
 12 13  1  0
 14 13  1  6
 14 15  1  0
 15  5  1  0
 16 14  1  0
 17 16  2  0
 19 18  1  0
 20 19  1  0
 20 22  1  0
 20 21  1  6
 22 24  1  0
 22 23  1  1
 23 16  1  0
 24 25  1  0
 26 24  2  0
M  END
$$$$
