SRI.pdb
     RDKit          3D

 26 25  0  0  1  0  0  0  0  0999 V2000
   13.9490  -18.7503   23.6585 O   0  0  0  0  0  0  0  0  0  0  0  0
   13.6899  -18.8347   22.3006 C   0  0  0  0  0  0  0  0  0  0  0  0
   13.7885  -17.4515   21.7180 C   0  0  2  0  0  0  0  0  0  0  0  0
   15.1094  -16.8788   21.8373 N   0  0  0  0  0  0  0  0  0  0  0  0
   12.8167  -16.5571   22.3676 C   0  0  0  0  0  0  0  0  0  0  0  0
   13.1489  -15.6160   23.1407 O   0  0  0  0  0  0  0  0  0  0  0  0
    7.6270  -12.6010   20.2104 N   0  0  0  0  0  0  0  0  0  0  0  0
    7.4812  -13.8644   19.5343 C   0  0  0  0  0  0  0  0  0  0  0  0
    7.6822  -13.9114   18.2687 N   0  0  0  0  0  0  0  0  0  0  0  0
    7.1254  -15.0244   20.2529 N   0  0  0  0  0  0  0  0  0  0  0  0
    6.8381  -14.9676   21.6525 C   0  0  0  0  0  0  0  0  0  0  0  0
    8.1000  -14.9615   22.4862 C   0  0  0  0  0  0  0  0  0  0  0  0
    9.1108  -15.9360   21.9431 C   0  0  0  0  0  0  0  0  0  0  0  0
   10.4042  -15.8773   22.6261 C   0  0  2  0  0  0  0  0  0  0  0  0
   11.4420  -16.7219   22.1464 N   0  0  0  0  0  0  0  0  0  0  0  0
   10.1729  -16.2103   24.0666 C   0  0  0  0  0  0  0  0  0  0  0  0
   10.3688  -17.3832   24.4429 O   0  0  0  0  0  0  0  0  0  0  0  0
    7.5632  -14.7844   17.7431 C   0  0  0  0  0  0  0  0  0  0  0  0
    9.3296  -11.8312   27.4324 C   0  0  0  0  0  0  0  0  0  0  0  0
    9.8257  -13.0662   26.7958 C   0  0  2  0  0  0  0  0  0  0  0  0
    9.1658  -14.3535   27.1013 C   0  0  0  0  0  0  0  0  0  0  0  0
    9.0381  -14.5289   28.6174 C   0  0  2  0  0  0  0  0  0  0  0  0
    9.5991  -15.5849   26.4206 N   0  0  0  0  0  0  0  0  0  0  0  0
    9.7454  -15.2425   24.9941 C   0  0  0  0  0  0  0  0  0  0  0  0
    8.8429  -16.8041   26.5299 O   0  0  0  0  0  0  0  0  0  0  0  0
    9.3083  -17.8013   27.4327 O   0  0  0  0  0  0  0  0  0  0  0  0
  2  1  1  0
  3  2  1  0
  3  4  1  1
  5  3  1  0
  5  6  2  0
  7  8  1  0
  8 10  1  0
  9  8  2  0
 10 11  1  0
 11 12  1  0
 12 13  1  0
 14 13  1  6
 14 15  1  0
 15  5  1  0
 16 14  1  0
 17 16  2  0
 19 18  1  0
 20 19  1  0
 20 22  1  0
 20 21  1  6
 22 24  1  0
 22 23  1  1
 23 16  1  0
 24 25  1  0
 26 24  2  0
M  END
$$$$
