SRI.pdb
     RDKit          3D

 26 25  0  0  1  0  0  0  0  0999 V2000
   10.4803  -12.9454   20.0794 O   0  0  0  0  0  0  0  0  0  0  0  0
   10.0149  -13.8902   19.1799 C   0  0  0  0  0  0  0  0  0  0  0  0
    8.5372  -13.6761   18.9985 C   0  0  2  0  0  0  0  0  0  0  0  0
    8.2056  -12.3327   18.5834 N   0  0  0  0  0  0  0  0  0  0  0  0
    7.8230  -13.9829   20.2483 C   0  0  0  0  0  0  0  0  0  0  0  0
    7.3397  -13.0968   21.0066 O   0  0  0  0  0  0  0  0  0  0  0  0
   10.1521  -19.7295   21.0268 N   0  0  0  0  0  0  0  0  0  0  0  0
    9.5374  -20.4426   22.1169 C   0  0  0  0  0  0  0  0  0  0  0  0
   10.2872  -21.1057   22.9184 N   0  0  0  0  0  0  0  0  0  0  0  0
    8.1391  -20.4092   22.2966 N   0  0  0  0  0  0  0  0  0  0  0  0
    7.3163  -19.5271   21.5288 C   0  0  0  0  0  0  0  0  0  0  0  0
    7.7826  -18.0919   21.6299 C   0  0  0  0  0  0  0  0  0  0  0  0
    6.6308  -17.1693   21.9271 C   0  0  0  0  0  0  0  0  0  0  0  0
    6.9795  -15.7507   21.8333 C   0  0  2  0  0  0  0  0  0  0  0  0
    7.6476  -15.3123   20.6578 N   0  0  0  0  0  0  0  0  0  0  0  0
    7.8494  -15.4182   23.0046 C   0  0  0  0  0  0  0  0  0  0  0  0
    9.0847  -15.3851   22.8353 O   0  0  0  0  0  0  0  0  0  0  0  0
    9.8886  -21.6557   23.6874 C   0  0  0  0  0  0  0  0  0  0  0  0
    5.8636  -11.5221   25.8728 C   0  0  0  0  0  0  0  0  0  0  0  0
    6.8175  -12.4473   25.2318 C   0  0  2  0  0  0  0  0  0  0  0  0
    7.3890  -13.5593   26.0211 C   0  0  0  0  0  0  0  0  0  0  0  0
    8.0852  -13.0103   27.2699 C   0  0  2  0  0  0  0  0  0  0  0  0
    8.1681  -14.6147   25.3529 N   0  0  0  0  0  0  0  0  0  0  0  0
    7.3122  -15.1453   24.2761 C   0  0  0  0  0  0  0  0  0  0  0  0
    8.7195  -15.7181   26.0935 O   0  0  0  0  0  0  0  0  0  0  0  0
   10.0222  -15.5678   26.6472 O   0  0  0  0  0  0  0  0  0  0  0  0
  2  1  1  0
  3  2  1  0
  3  4  1  1
  5  3  1  0
  5  6  2  0
  7  8  1  0
  8 10  1  0
  9  8  2  0
 10 11  1  0
 11 12  1  0
 12 13  1  0
 14 13  1  6
 14 15  1  0
 15  5  1  0
 16 14  1  0
 17 16  2  0
 19 18  1  0
 20 19  1  0
 20 22  1  0
 20 21  1  1
 22 24  1  0
 22 23  1  6
 23 16  1  0
 24 25  1  0
 26 24  2  0
M  END
$$$$
