SRI.pdb
     RDKit          3D

 26 25  0  0  1  0  0  0  0  0999 V2000
    8.7738  -12.2017   20.2560 O   0  0  0  0  0  0  0  0  0  0  0  0
    9.1633  -13.3729   19.6275 C   0  0  0  0  0  0  0  0  0  0  0  0
    8.0065  -14.3334   19.6682 C   0  0  2  0  0  0  0  0  0  0  0  0
    6.7786  -13.7638   19.1634 N   0  0  0  0  0  0  0  0  0  0  0  0
    7.7870  -14.8049   21.0450 C   0  0  0  0  0  0  0  0  0  0  0  0
    6.8685  -14.3649   21.7909 O   0  0  0  0  0  0  0  0  0  0  0  0
   12.2701  -21.3181   21.4935 N   0  0  0  0  0  0  0  0  0  0  0  0
   11.6746  -21.0705   22.7815 C   0  0  0  0  0  0  0  0  0  0  0  0
   12.1506  -21.6772   23.8060 N   0  0  0  0  0  0  0  0  0  0  0  0
   10.5908  -20.1775   22.9096 N   0  0  0  0  0  0  0  0  0  0  0  0
    9.9543  -19.6178   21.7579 C   0  0  0  0  0  0  0  0  0  0  0  0
    8.7614  -18.7667   22.1321 C   0  0  0  0  0  0  0  0  0  0  0  0
    9.1551  -17.6785   23.0951 C   0  0  0  0  0  0  0  0  0  0  0  0
    8.4543  -16.4139   22.8657 C   0  0  2  0  0  0  0  0  0  0  0  0
    8.6161  -15.7909   21.5983 N   0  0  0  0  0  0  0  0  0  0  0  0
    8.9091  -15.4460   23.9124 C   0  0  0  0  0  0  0  0  0  0  0  0
    9.9807  -14.8346   23.7292 O   0  0  0  0  0  0  0  0  0  0  0  0
   11.7347  -21.5574   24.7361 C   0  0  0  0  0  0  0  0  0  0  0  0
    5.6942  -11.7873   25.5912 C   0  0  0  0  0  0  0  0  0  0  0  0
    6.8575  -12.6437   25.2909 C   0  0  2  0  0  0  0  0  0  0  0  0
    7.5370  -13.3548   26.3949 C   0  0  0  0  0  0  0  0  0  0  0  0
    7.8518  -12.3774   27.5312 C   0  0  2  0  0  0  0  0  0  0  0  0
    8.6530  -14.2706   26.1066 N   0  0  0  0  0  0  0  0  0  0  0  0
    8.1645  -15.2129   25.0833 C   0  0  0  0  0  0  0  0  0  0  0  0
    9.2964  -15.0169   27.1551 O   0  0  0  0  0  0  0  0  0  0  0  0
   10.2818  -14.3544   27.9400 O   0  0  0  0  0  0  0  0  0  0  0  0
  2  1  1  0
  3  2  1  0
  3  4  1  1
  5  3  1  0
  5  6  2  0
  7  8  1  0
  8 10  1  0
  9  8  2  0
 10 11  1  0
 11 12  1  0
 12 13  1  0
 14 13  1  6
 14 15  1  0
 15  5  1  0
 16 14  1  0
 17 16  2  0
 19 18  1  0
 20 19  1  0
 20 22  1  0
 20 21  1  1
 22 24  1  0
 22 23  1  6
 23 16  1  0
 24 25  1  0
 26 24  2  0
M  END
$$$$
