SRI.pdb
     RDKit          3D

 26 25  0  0  1  0  0  0  0  0999 V2000
   12.1590  -15.4424   21.1469 O   0  0  0  0  0  0  0  0  0  0  0  0
   11.4786  -14.9718   20.0361 C   0  0  0  0  0  0  0  0  0  0  0  0
   10.3958  -15.9592   19.6970 C   0  0  2  0  0  0  0  0  0  0  0  0
    9.7909  -15.7167   18.4077 N   0  0  0  0  0  0  0  0  0  0  0  0
    9.3483  -15.9383   20.7307 C   0  0  0  0  0  0  0  0  0  0  0  0
    8.3072  -15.2291   20.6491 O   0  0  0  0  0  0  0  0  0  0  0  0
    5.0334  -22.0182   23.0077 N   0  0  0  0  0  0  0  0  0  0  0  0
    5.6157  -21.3222   24.1263 C   0  0  0  0  0  0  0  0  0  0  0  0
    5.0190  -21.3727   25.2602 N   0  0  0  0  0  0  0  0  0  0  0  0
    6.8182  -20.6016   23.9742 N   0  0  0  0  0  0  0  0  0  0  0  0
    7.5023  -20.5619   22.7190 C   0  0  0  0  0  0  0  0  0  0  0  0
    7.6984  -19.1444   22.2297 C   0  0  0  0  0  0  0  0  0  0  0  0
    8.1875  -18.2526   23.3396 C   0  0  0  0  0  0  0  0  0  0  0  0
    8.4942  -16.8898   22.9018 C   0  0  2  0  0  0  0  0  0  0  0  0
    9.4711  -16.7292   21.8818 N   0  0  0  0  0  0  0  0  0  0  0  0
    8.9536  -16.1202   24.1001 C   0  0  0  0  0  0  0  0  0  0  0  0
   10.1782  -16.0504   24.3264 O   0  0  0  0  0  0  0  0  0  0  0  0
    5.4231  -20.9325   26.0941 C   0  0  0  0  0  0  0  0  0  0  0  0
    5.9176  -11.9143   25.6003 C   0  0  0  0  0  0  0  0  0  0  0  0
    7.0494  -12.8255   25.3447 C   0  0  2  0  0  0  0  0  0  0  0  0
    7.5294  -13.7061   26.4311 C   0  0  0  0  0  0  0  0  0  0  0  0
    7.8758  -12.8705   27.6670 C   0  0  2  0  0  0  0  0  0  0  0  0
    8.5312  -14.7473   26.1492 N   0  0  0  0  0  0  0  0  0  0  0  0
    8.0469  -15.4814   24.9659 C   0  0  0  0  0  0  0  0  0  0  0  0
    8.9244  -15.6973   27.1557 O   0  0  0  0  0  0  0  0  0  0  0  0
   10.0368  -15.3739   27.9827 O   0  0  0  0  0  0  0  0  0  0  0  0
  2  1  1  0
  3  2  1  0
  3  4  1  6
  5  3  1  0
  5  6  2  0
  7  8  1  0
  8 10  1  0
  9  8  2  0
 10 11  1  0
 11 12  1  0
 12 13  1  0
 14 13  1  1
 14 15  1  0
 15  5  1  0
 16 14  1  0
 17 16  2  0
 19 18  1  0
 20 19  1  0
 20 22  1  0
 20 21  1  1
 22 24  1  0
 22 23  1  6
 23 16  1  0
 24 25  1  0
 26 24  2  0
M  END
$$$$
