SRI.pdb
     RDKit          3D

 26 25  0  0  1  0  0  0  0  0999 V2000
    9.9624  -13.9062   20.2788 O   0  0  0  0  0  0  0  0  0  0  0  0
    8.9257  -13.4939   19.4580 C   0  0  0  0  0  0  0  0  0  0  0  0
    7.9356  -14.6213   19.3518 C   0  0  2  0  0  0  0  0  0  0  0  0
    6.9081  -14.3823   18.3649 N   0  0  0  0  0  0  0  0  0  0  0  0
    7.3008  -14.8635   20.6574 C   0  0  0  0  0  0  0  0  0  0  0  0
    6.4238  -14.1034   21.1541 O   0  0  0  0  0  0  0  0  0  0  0  0
    9.5162  -19.8207   26.4443 N   0  0  0  0  0  0  0  0  0  0  0  0
    8.1313  -20.1026   26.1664 C   0  0  0  0  0  0  0  0  0  0  0  0
    7.3546  -20.3933   27.1444 N   0  0  0  0  0  0  0  0  0  0  0  0
    7.6427  -20.0581   24.8444 N   0  0  0  0  0  0  0  0  0  0  0  0
    6.3252  -19.5809   24.5592 C   0  0  0  0  0  0  0  0  0  0  0  0
    6.3147  -18.0962   24.2712 C   0  0  0  0  0  0  0  0  0  0  0  0
    6.9957  -17.7949   22.9629 C   0  0  0  0  0  0  0  0  0  0  0  0
    7.0934  -16.3637   22.6712 C   0  0  2  0  0  0  0  0  0  0  0  0
    7.6577  -15.9822   21.4236 N   0  0  0  0  0  0  0  0  0  0  0  0
    7.9112  -15.7340   23.7546 C   0  0  0  0  0  0  0  0  0  0  0  0
    9.1377  -15.6013   23.5707 O   0  0  0  0  0  0  0  0  0  0  0  0
    6.3582  -20.5854   26.9936 C   0  0  0  0  0  0  0  0  0  0  0  0
    5.5383  -11.6768   26.2693 C   0  0  0  0  0  0  0  0  0  0  0  0
    6.5645  -12.5600   25.6832 C   0  0  2  0  0  0  0  0  0  0  0  0
    7.2472  -13.5482   26.5455 C   0  0  0  0  0  0  0  0  0  0  0  0
    7.8705  -12.8448   27.7547 C   0  0  2  0  0  0  0  0  0  0  0  0
    8.1410  -14.5550   25.9499 N   0  0  0  0  0  0  0  0  0  0  0  0
    7.3352  -15.2935   24.9603 C   0  0  0  0  0  0  0  0  0  0  0  0
    8.8510  -15.5011   26.7689 O   0  0  0  0  0  0  0  0  0  0  0  0
   10.1023  -15.1035   27.3186 O   0  0  0  0  0  0  0  0  0  0  0  0
  2  1  1  0
  3  2  1  0
  3  4  1  6
  5  3  1  0
  5  6  2  0
  7  8  1  0
  8 10  1  0
  9  8  2  0
 10 11  1  0
 11 12  1  0
 12 13  1  0
 14 13  1  1
 14 15  1  0
 15  5  1  0
 16 14  1  0
 17 16  2  0
 19 18  1  0
 20 19  1  0
 20 22  1  0
 20 21  1  1
 22 24  1  0
 22 23  1  6
 23 16  1  0
 24 25  1  0
 26 24  2  0
M  END
$$$$
