SRI.pdb
     RDKit          3D

 26 25  0  0  1  0  0  0  0  0999 V2000
    7.6239  -14.3584   17.3837 O   0  0  0  0  0  0  0  0  0  0  0  0
    6.8506  -13.3647   17.9607 C   0  0  0  0  0  0  0  0  0  0  0  0
    7.6047  -12.8079   19.1369 C   0  0  2  0  0  0  0  0  0  0  0  0
    8.9466  -12.3894   18.8035 N   0  0  0  0  0  0  0  0  0  0  0  0
    7.6670  -13.8050   20.2177 C   0  0  0  0  0  0  0  0  0  0  0  0
    6.6449  -14.3557   20.7133 O   0  0  0  0  0  0  0  0  0  0  0  0
   15.0798  -15.9681   21.9650 N   0  0  0  0  0  0  0  0  0  0  0  0
   14.8720  -15.5023   20.6180 C   0  0  0  0  0  0  0  0  0  0  0  0
   15.8069  -14.8362   20.0465 N   0  0  0  0  0  0  0  0  0  0  0  0
   13.6641  -15.7760   19.9439 N   0  0  0  0  0  0  0  0  0  0  0  0
   12.5639  -16.3910   20.6193 C   0  0  0  0  0  0  0  0  0  0  0  0
   11.4446  -15.4084   20.8821 C   0  0  0  0  0  0  0  0  0  0  0  0
   10.2753  -16.0862   21.5452 C   0  0  0  0  0  0  0  0  0  0  0  0
    9.1173  -15.2091   21.7257 C   0  0  2  0  0  0  0  0  0  0  0  0
    8.9024  -14.1928   20.7554 N   0  0  0  0  0  0  0  0  0  0  0  0
    9.2531  -14.5459   23.0602 C   0  0  0  0  0  0  0  0  0  0  0  0
   10.1510  -13.6932   23.2099 O   0  0  0  0  0  0  0  0  0  0  0  0
   15.6894  -14.4593   19.0996 C   0  0  0  0  0  0  0  0  0  0  0  0
    5.1054  -12.8697   26.4188 C   0  0  0  0  0  0  0  0  0  0  0  0
    6.0947  -13.7199   25.7297 C   0  0  2  0  0  0  0  0  0  0  0  0
    7.4890  -13.2460   25.5968 C   0  0  0  0  0  0  0  0  0  0  0  0
    7.5599  -12.1108   24.5712 C   0  0  1  0  0  0  0  0  0  0  0  0
    8.5872  -14.2153   25.4496 N   0  0  0  0  0  0  0  0  0  0  0  0
    8.4015  -14.8582   24.1358 C   0  0  0  0  0  0  0  0  0  0  0  0
    8.8199  -15.2357   26.4367 O   0  0  0  0  0  0  0  0  0  0  0  0
    8.7329  -16.5959   26.0263 O   0  0  0  0  0  0  0  0  0  0  0  0
  2  1  1  0
  3  2  1  0
  3  4  1  6
  5  3  1  0
  5  6  2  0
  7  8  1  0
  8 10  1  0
  9  8  2  0
 10 11  1  0
 11 12  1  0
 12 13  1  0
 14 13  1  6
 14 15  1  0
 15  5  1  0
 16 14  1  0
 17 16  2  0
 19 18  1  0
 20 19  1  0
 20 22  1  0
 20 21  1  1
 22 24  1  0
 22 23  1  6
 23 16  1  0
 24 25  1  0
 26 24  2  0
M  END
$$$$
