SRI.pdb
     RDKit          3D

 26 25  0  0  1  0  0  0  0  0999 V2000
    7.3255  -18.8803   26.0308 O   0  0  0  0  0  0  0  0  0  0  0  0
    6.1196  -18.4707   25.4865 C   0  0  0  0  0  0  0  0  0  0  0  0
    6.1539  -18.7496   24.0089 C   0  0  2  0  0  0  0  0  0  0  0  0
    6.4431  -20.1307   23.6992 N   0  0  0  0  0  0  0  0  0  0  0  0
    7.1535  -17.8908   23.3537 C   0  0  0  0  0  0  0  0  0  0  0  0
    8.3432  -18.2526   23.1361 O   0  0  0  0  0  0  0  0  0  0  0  0
    7.1852  -13.0318   17.6489 N   0  0  0  0  0  0  0  0  0  0  0  0
    8.1937  -13.9999   17.3022 C   0  0  0  0  0  0  0  0  0  0  0  0
    8.8479  -13.8423   16.2106 N   0  0  0  0  0  0  0  0  0  0  0  0
    8.4544  -15.0971   18.1487 N   0  0  0  0  0  0  0  0  0  0  0  0
    7.6744  -15.3242   19.3255 C   0  0  0  0  0  0  0  0  0  0  0  0
    7.8673  -14.2272   20.3487 C   0  0  0  0  0  0  0  0  0  0  0  0
    7.1138  -14.5320   21.6159 C   0  0  0  0  0  0  0  0  0  0  0  0
    7.6981  -15.6254   22.3943 C   0  0  2  0  0  0  0  0  0  0  0  0
    6.8122  -16.5973   22.9338 N   0  0  0  0  0  0  0  0  0  0  0  0
    8.4581  -15.0182   23.5314 C   0  0  0  0  0  0  0  0  0  0  0  0
    9.3729  -14.2117   23.2697 O   0  0  0  0  0  0  0  0  0  0  0  0
    9.5623  -14.5173   15.9162 C   0  0  0  0  0  0  0  0  0  0  0  0
    5.9726  -11.8611   25.9983 C   0  0  0  0  0  0  0  0  0  0  0  0
    7.1097  -12.6763   25.5303 C   0  0  2  0  0  0  0  0  0  0  0  0
    7.7407  -13.6389   26.4584 C   0  0  0  0  0  0  0  0  0  0  0  0
    8.1419  -12.9291   27.7549 C   0  0  2  0  0  0  0  0  0  0  0  0
    8.7783  -14.5626   25.9710 N   0  0  0  0  0  0  0  0  0  0  0  0
    8.1673  -15.3321   24.8718 C   0  0  0  0  0  0  0  0  0  0  0  0
    9.4440  -15.4751   26.8621 O   0  0  0  0  0  0  0  0  0  0  0  0
    9.2059  -16.8683   26.6934 O   0  0  0  0  0  0  0  0  0  0  0  0
  2  1  1  0
  3  2  1  0
  3  4  1  1
  5  3  1  0
  5  6  2  0
  7  8  1  0
  8 10  1  0
  9  8  2  0
 10 11  1  0
 11 12  1  0
 12 13  1  0
 14 13  1  1
 14 15  1  0
 15  5  1  0
 16 14  1  0
 17 16  2  0
 19 18  1  0
 20 19  1  0
 20 22  1  0
 20 21  1  1
 22 24  1  0
 22 23  1  6
 23 16  1  0
 24 25  1  0
 26 24  2  0
M  END
$$$$
