SRI.pdb
     RDKit          3D

 26 25  0  0  1  0  0  0  0  0999 V2000
    5.3432  -17.9420   24.6434 O   0  0  0  0  0  0  0  0  0  0  0  0
    4.6112  -18.2699   23.5142 C   0  0  0  0  0  0  0  0  0  0  0  0
    5.5764  -18.5428   22.3933 C   0  0  2  0  0  0  0  0  0  0  0  0
    5.7857  -19.9523   22.1559 N   0  0  0  0  0  0  0  0  0  0  0  0
    6.8728  -17.9050   22.6736 C   0  0  0  0  0  0  0  0  0  0  0  0
    7.7733  -18.4432   23.3759 O   0  0  0  0  0  0  0  0  0  0  0  0
    8.8084  -14.9922   16.6393 N   0  0  0  0  0  0  0  0  0  0  0  0
    8.5942  -13.7780   17.3840 C   0  0  0  0  0  0  0  0  0  0  0  0
    7.9501  -12.8199   16.8260 N   0  0  0  0  0  0  0  0  0  0  0  0
    9.0835  -13.6494   18.7003 N   0  0  0  0  0  0  0  0  0  0  0  0
    9.9888  -14.6105   19.2493 C   0  0  0  0  0  0  0  0  0  0  0  0
    9.2822  -15.5980   20.1511 C   0  0  0  0  0  0  0  0  0  0  0  0
    8.7751  -14.9238   21.3979 C   0  0  0  0  0  0  0  0  0  0  0  0
    8.3272  -15.8621   22.4284 C   0  0  2  0  0  0  0  0  0  0  0  0
    7.1660  -16.6354   22.1560 N   0  0  0  0  0  0  0  0  0  0  0  0
    8.0717  -15.0778   23.6769 C   0  0  0  0  0  0  0  0  0  0  0  0
    7.6746  -13.9006   23.5670 O   0  0  0  0  0  0  0  0  0  0  0  0
    7.7053  -11.9698   17.3456 C   0  0  0  0  0  0  0  0  0  0  0  0
    5.9329  -12.1917   26.0318 C   0  0  0  0  0  0  0  0  0  0  0  0
    7.0810  -12.9972   25.5738 C   0  0  2  0  0  0  0  0  0  0  0  0
    7.7209  -13.9441   26.5118 C   0  0  0  0  0  0  0  0  0  0  0  0
    8.0413  -13.2367   27.8318 C   0  0  2  0  0  0  0  0  0  0  0  0
    8.8169  -14.8124   26.0510 N   0  0  0  0  0  0  0  0  0  0  0  0
    8.2665  -15.6316   24.9557 C   0  0  0  0  0  0  0  0  0  0  0  0
    9.5227  -15.6719   26.9637 O   0  0  0  0  0  0  0  0  0  0  0  0
   10.4716  -15.0786   27.8432 O   0  0  0  0  0  0  0  0  0  0  0  0
  2  1  1  0
  3  2  1  0
  3  4  1  1
  5  3  1  0
  5  6  2  0
  7  8  1  0
  8 10  1  0
  9  8  2  0
 10 11  1  0
 11 12  1  0
 12 13  1  0
 14 13  1  6
 14 15  1  0
 15  5  1  0
 16 14  1  0
 17 16  2  0
 19 18  1  0
 20 19  1  0
 20 22  1  0
 20 21  1  1
 22 24  1  0
 22 23  1  6
 23 16  1  0
 24 25  1  0
 26 24  2  0
M  END
$$$$
