DVK.pdb
     RDKit          3D

 25 24  0  0  1  0  0  0  0  0999 V2000
   10.0763  -17.4854   16.6386 N   0  0  0  0  0  0  0  0  0  0  0  0
    9.0023  -17.5713   17.6094 C   0  0  1  0  0  0  0  0  0  0  0  0
    8.9466  -19.0114   18.0704 C   0  0  0  0  0  0  0  0  0  0  0  0
    8.4010  -19.7925   16.9399 C   0  0  0  0  0  0  0  0  0  0  0  0
    7.6183  -19.2545   16.1408 O   0  0  0  0  0  0  0  0  0  0  0  0
    9.3770  -16.6454   18.7379 C   0  0  0  0  0  0  0  0  0  0  0  0
   10.5746  -16.4262   19.0484 O   0  0  0  0  0  0  0  0  0  0  0  0
    8.7636  -21.1135   16.7778 O   0  0  0  0  0  0  0  0  0  0  0  0
    7.5293  -13.2898   19.1898 C   0  0  0  0  0  0  0  0  0  0  0  0
    7.5976  -13.9972   20.4933 C   0  0  2  0  0  0  0  0  0  0  0  0
    7.5923  -13.0636   21.6781 C   0  0  0  0  0  0  0  0  0  0  0  0
    8.7175  -15.0110   20.5724 C   0  0  2  0  0  0  0  0  0  0  0  0
    8.3899  -15.9770   19.5035 N   0  0  0  0  0  0  0  0  0  0  0  0
    8.7580  -15.7359   21.8759 C   0  0  0  0  0  0  0  0  0  0  0  0
    8.0054  -16.7548   22.0721 O   0  0  0  0  0  0  0  0  0  0  0  0
    9.5882  -15.3939   22.9696 N   0  0  0  0  0  0  0  0  0  0  0  0
   10.1918  -16.4213   23.8317 C   0  0  1  0  0  0  0  0  0  0  0  0
   11.0154  -17.3920   23.0553 C   0  0  0  0  0  0  0  0  0  0  0  0
   11.6089  -18.5045   23.8458 C   0  0  0  0  0  0  0  0  0  0  0  0
   12.4156  -19.4860   23.0674 C   0  0  0  0  0  0  0  0  0  0  0  0
   12.9190  -20.6360   23.9139 C   0  0  0  0  0  0  0  0  0  0  0  0
   13.7910  -21.4853   23.1112 N   0  0  0  0  0  0  0  0  0  0  0  0
   10.9706  -15.7849   24.9252 C   0  0  0  0  0  0  0  0  0  0  0  0
   11.0759  -16.3288   26.2004 O   0  0  0  0  0  0  0  0  0  0  0  0
   11.5585  -14.7034   24.6735 O   0  0  0  0  0  0  0  0  0  0  0  0
  2  1  1  6
  3  4  1  0
  3  2  1  0
  4  8  1  0
  5  4  2  0
  6  2  1  0
  6  7  2  0
 10  9  1  6
 10 12  1  0
 11 10  1  0
 12 13  1  6
 13  6  1  0
 14 12  1  0
 15 14  2  0
 16 14  1  0
 17 16  1  0
 17 23  1  0
 17 18  1  6
 19 18  1  0
 20 19  1  0
 20 21  1  0
 22 21  1  0
 23 24  1  0
 25 23  2  0
M  END
$$$$
