DVK.pdb
     RDKit          3D

 25 24  0  0  1  0  0  0  0  0999 V2000
    9.6899  -17.9188   19.4411 N   0  0  0  0  0  0  0  0  0  0  0  0
   10.9383  -17.3781   19.9432 C   0  0  1  0  0  0  0  0  0  0  0  0
   11.7453  -16.9530   18.7359 C   0  0  0  0  0  0  0  0  0  0  0  0
   12.2531  -18.1939   18.1130 C   0  0  0  0  0  0  0  0  0  0  0  0
   11.4663  -19.1171   17.8497 O   0  0  0  0  0  0  0  0  0  0  0  0
   10.5719  -16.1972   20.8048 C   0  0  0  0  0  0  0  0  0  0  0  0
   11.4260  -15.5882   21.4965 O   0  0  0  0  0  0  0  0  0  0  0  0
   13.5966  -18.3205   17.8270 O   0  0  0  0  0  0  0  0  0  0  0  0
    7.8013  -13.5377   19.6708 C   0  0  0  0  0  0  0  0  0  0  0  0
    7.5797  -14.0627   21.0418 C   0  0  2  0  0  0  0  0  0  0  0  0
    6.8113  -13.1123   21.9260 C   0  0  0  0  0  0  0  0  0  0  0  0
    8.8416  -14.5653   21.7074 C   0  0  2  0  0  0  0  0  0  0  0  0
    9.2402  -15.7184   20.8739 N   0  0  0  0  0  0  0  0  0  0  0  0
    8.6159  -15.0402   23.1038 C   0  0  0  0  0  0  0  0  0  0  0  0
    8.3325  -14.2037   24.0327 O   0  0  0  0  0  0  0  0  0  0  0  0
    8.6850  -16.3898   23.5235 N   0  0  0  0  0  0  0  0  0  0  0  0
    8.4439  -16.7768   24.9217 C   0  0  1  0  0  0  0  0  0  0  0  0
    7.7647  -18.0999   25.0285 C   0  0  0  0  0  0  0  0  0  0  0  0
    7.5137  -18.5809   26.4144 C   0  0  0  0  0  0  0  0  0  0  0  0
    7.0249  -19.9839   26.5283 C   0  0  0  0  0  0  0  0  0  0  0  0
    6.6637  -20.3671   27.9478 C   0  0  0  0  0  0  0  0  0  0  0  0
    6.0337  -21.6820   27.9511 N   0  0  0  0  0  0  0  0  0  0  0  0
    9.7135  -16.7426   25.6928 C   0  0  0  0  0  0  0  0  0  0  0  0
    9.7799  -16.3795   27.0333 O   0  0  0  0  0  0  0  0  0  0  0  0
   10.7717  -17.0594   25.0941 O   0  0  0  0  0  0  0  0  0  0  0  0
  2  1  1  6
  3  4  1  0
  3  2  1  0
  4  8  1  0
  5  4  2  0
  6  2  1  0
  6  7  2  0
 10  9  1  6
 10 12  1  0
 11 10  1  0
 12 13  1  6
 13  6  1  0
 14 12  1  0
 15 14  2  0
 16 14  1  0
 17 16  1  0
 17 23  1  0
 17 18  1  6
 19 18  1  0
 20 19  1  0
 20 21  1  0
 22 21  1  0
 23 24  1  0
 25 23  2  0
M  END
$$$$
