DVK.pdb
     RDKit          3D

 25 24  0  0  1  0  0  0  0  0999 V2000
    8.9343  -15.7084   20.8023 N   0  0  0  0  0  0  0  0  0  0  0  0
    8.1170  -16.1263   21.9250 C   0  0  1  0  0  0  0  0  0  0  0  0
    8.3411  -17.6128   22.0969 C   0  0  0  0  0  0  0  0  0  0  0  0
    7.6757  -18.2721   20.9531 C   0  0  0  0  0  0  0  0  0  0  0  0
    6.7837  -17.6734   20.3313 O   0  0  0  0  0  0  0  0  0  0  0  0
    8.6118  -15.3525   23.1198 C   0  0  0  0  0  0  0  0  0  0  0  0
    9.8369  -15.1798   23.3393 O   0  0  0  0  0  0  0  0  0  0  0  0
    8.0485  -19.5472   20.5817 O   0  0  0  0  0  0  0  0  0  0  0  0
    6.8062  -12.1609   24.5137 C   0  0  0  0  0  0  0  0  0  0  0  0
    7.0437  -13.1431   25.6014 C   0  0  2  0  0  0  0  0  0  0  0  0
    7.2038  -12.5022   26.9574 C   0  0  0  0  0  0  0  0  0  0  0  0
    8.1568  -14.1216   25.2991 C   0  0  2  0  0  0  0  0  0  0  0  0
    7.7126  -14.7819   24.0542 N   0  0  0  0  0  0  0  0  0  0  0  0
    8.3248  -15.1601   26.3573 C   0  0  0  0  0  0  0  0  0  0  0  0
    7.7604  -16.3044   26.2348 O   0  0  0  0  0  0  0  0  0  0  0  0
    9.0854  -14.9988   27.5397 N   0  0  0  0  0  0  0  0  0  0  0  0
    9.8839  -16.0994   28.1001 C   0  0  1  0  0  0  0  0  0  0  0  0
   10.8917  -16.6125   27.1285 C   0  0  0  0  0  0  0  0  0  0  0  0
   11.8073  -17.6635   27.6505 C   0  0  0  0  0  0  0  0  0  0  0  0
   11.8902  -18.9064   26.8329 C   0  0  0  0  0  0  0  0  0  0  0  0
   12.8523  -19.9247   27.4072 C   0  0  0  0  0  0  0  0  0  0  0  0
   12.9085  -21.0888   26.5310 N   0  0  0  0  0  0  0  0  0  0  0  0
   10.5118  -15.6813   29.3801 C   0  0  0  0  0  0  0  0  0  0  0  0
   10.8739  -16.5787   30.3786 O   0  0  0  0  0  0  0  0  0  0  0  0
   10.7212  -14.4553   29.5575 O   0  0  0  0  0  0  0  0  0  0  0  0
  2  1  1  6
  3  4  1  0
  3  2  1  0
  4  8  1  0
  5  4  2  0
  6  2  1  0
  6  7  2  0
 10  9  1  6
 10 12  1  0
 11 10  1  0
 12 13  1  6
 13  6  1  0
 14 12  1  0
 15 14  2  0
 16 14  1  0
 17 16  1  0
 17 23  1  0
 17 18  1  6
 19 18  1  0
 20 19  1  0
 20 21  1  0
 22 21  1  0
 23 24  1  0
 25 23  2  0
M  END
$$$$
