DVK.pdb
     RDKit          3D

 25 24  0  0  1  0  0  0  0  0999 V2000
    9.0481  -15.3892   20.7659 N   0  0  0  0  0  0  0  0  0  0  0  0
    8.3128  -15.9592   21.8783 C   0  0  1  0  0  0  0  0  0  0  0  0
    8.6735  -17.4277   21.9318 C   0  0  0  0  0  0  0  0  0  0  0  0
    8.1695  -18.0289   20.6787 C   0  0  0  0  0  0  0  0  0  0  0  0
    7.0218  -17.7644   20.2871 O   0  0  0  0  0  0  0  0  0  0  0  0
    8.7809  -15.2314   23.1122 C   0  0  0  0  0  0  0  0  0  0  0  0
    9.9966  -14.9948   23.3237 O   0  0  0  0  0  0  0  0  0  0  0  0
    8.9754  -18.8795   19.9508 O   0  0  0  0  0  0  0  0  0  0  0  0
    6.7125  -12.2517   24.6288 C   0  0  0  0  0  0  0  0  0  0  0  0
    7.0839  -13.2305   25.6815 C   0  0  2  0  0  0  0  0  0  0  0  0
    7.2121  -12.6115   27.0511 C   0  0  0  0  0  0  0  0  0  0  0  0
    8.2866  -14.0753   25.3237 C   0  0  2  0  0  0  0  0  0  0  0  0
    7.8656  -14.7788   24.0945 N   0  0  0  0  0  0  0  0  0  0  0  0
    8.6181  -15.0904   26.3658 C   0  0  0  0  0  0  0  0  0  0  0  0
    7.8509  -16.1003   26.5510 O   0  0  0  0  0  0  0  0  0  0  0  0
    9.7534  -15.0469   27.2094 N   0  0  0  0  0  0  0  0  0  0  0  0
   10.1547  -16.2039   28.0238 C   0  0  1  0  0  0  0  0  0  0  0  0
   11.3285  -16.9177   27.4443 C   0  0  0  0  0  0  0  0  0  0  0  0
   11.0085  -18.1282   26.6395 C   0  0  0  0  0  0  0  0  0  0  0  0
   12.1773  -18.8172   26.0238 C   0  0  0  0  0  0  0  0  0  0  0  0
   11.7918  -20.0791   25.2813 C   0  0  0  0  0  0  0  0  0  0  0  0
   12.9508  -20.5931   24.5614 N   0  0  0  0  0  0  0  0  0  0  0  0
   10.3994  -15.7860   29.4285 C   0  0  0  0  0  0  0  0  0  0  0  0
   10.4585  -16.6826   30.4896 O   0  0  0  0  0  0  0  0  0  0  0  0
   10.5594  -14.5609   29.6562 O   0  0  0  0  0  0  0  0  0  0  0  0
  2  1  1  6
  3  4  1  0
  3  2  1  0
  4  8  1  0
  5  4  2  0
  6  2  1  0
  6  7  2  0
 10  9  1  6
 10 12  1  0
 11 10  1  0
 12 13  1  6
 13  6  1  0
 14 12  1  0
 15 14  2  0
 16 14  1  0
 17 16  1  0
 17 23  1  0
 17 18  1  6
 19 18  1  0
 20 19  1  0
 20 21  1  0
 22 21  1  0
 23 24  1  0
 25 23  2  0
M  END
$$$$
