DVK.pdb
     RDKit          3D

 25 24  0  0  1  0  0  0  0  0999 V2000
    8.0571  -18.6287   19.3581 N   0  0  0  0  0  0  0  0  0  0  0  0
    9.3327  -18.1097   18.9038 C   0  0  1  0  0  0  0  0  0  0  0  0
    9.1821  -17.8160   17.4271 C   0  0  0  0  0  0  0  0  0  0  0  0
   10.5413  -17.8710   16.8481 C   0  0  0  0  0  0  0  0  0  0  0  0
   11.4761  -18.3416   17.5153 O   0  0  0  0  0  0  0  0  0  0  0  0
    9.5827  -16.8507   19.6935 C   0  0  0  0  0  0  0  0  0  0  0  0
   10.7165  -16.3117   19.7443 O   0  0  0  0  0  0  0  0  0  0  0  0
   10.7647  -17.4003   15.5708 O   0  0  0  0  0  0  0  0  0  0  0  0
    7.2231  -13.6898   19.8161 C   0  0  0  0  0  0  0  0  0  0  0  0
    7.4657  -14.2636   21.1637 C   0  0  2  0  0  0  0  0  0  0  0  0
    7.3063  -13.2576   22.2763 C   0  0  0  0  0  0  0  0  0  0  0  0
    8.7667  -15.0280   21.2695 C   0  0  2  0  0  0  0  0  0  0  0  0
    8.5443  -16.2149   20.4179 N   0  0  0  0  0  0  0  0  0  0  0  0
    9.0641  -15.4852   22.6584 C   0  0  0  0  0  0  0  0  0  0  0  0
    8.2337  -16.2354   23.2833 O   0  0  0  0  0  0  0  0  0  0  0  0
   10.2314  -15.1578   23.3883 N   0  0  0  0  0  0  0  0  0  0  0  0
   10.2964  -15.3109   24.8496 C   0  0  1  0  0  0  0  0  0  0  0  0
    9.2976  -14.4524   25.5486 C   0  0  0  0  0  0  0  0  0  0  0  0
    9.1601  -14.6909   27.0112 C   0  0  0  0  0  0  0  0  0  0  0  0
   10.2655  -14.1567   27.8555 C   0  0  0  0  0  0  0  0  0  0  0  0
   10.0697  -14.4415   29.3296 C   0  0  0  0  0  0  0  0  0  0  0  0
   11.1648  -13.8497   30.0888 N   0  0  0  0  0  0  0  0  0  0  0  0
   10.1558  -16.7415   25.2252 C   0  0  0  0  0  0  0  0  0  0  0  0
   11.2228  -17.6330   25.2382 O   0  0  0  0  0  0  0  0  0  0  0  0
    9.0130  -17.1541   25.5450 O   0  0  0  0  0  0  0  0  0  0  0  0
  2  1  1  1
  3  4  1  0
  3  2  1  0
  4  8  1  0
  5  4  2  0
  6  2  1  0
  6  7  2  0
 10  9  1  6
 10 12  1  0
 11 10  1  0
 12 13  1  6
 13  6  1  0
 14 12  1  0
 15 14  2  0
 16 14  1  0
 17 16  1  0
 17 23  1  0
 17 18  1  1
 19 18  1  0
 20 19  1  0
 20 21  1  0
 22 21  1  0
 23 24  1  0
 25 23  2  0
M  END
$$$$
