DVK.pdb
     RDKit          3D

 25 24  0  0  1  0  0  0  0  0999 V2000
    8.2404  -17.1140   16.8503 N   0  0  0  0  0  0  0  0  0  0  0  0
    9.5765  -17.4353   17.3136 C   0  0  1  0  0  0  0  0  0  0  0  0
   10.5182  -17.1358   16.1678 C   0  0  0  0  0  0  0  0  0  0  0  0
   10.1445  -18.0504   15.0680 C   0  0  0  0  0  0  0  0  0  0  0  0
    9.7183  -19.1863   15.3300 O   0  0  0  0  0  0  0  0  0  0  0  0
    9.8421  -16.5376   18.4945 C   0  0  0  0  0  0  0  0  0  0  0  0
   10.9953  -16.3891   18.9708 O   0  0  0  0  0  0  0  0  0  0  0  0
   10.2703  -17.6384   13.7576 O   0  0  0  0  0  0  0  0  0  0  0  0
    7.5635  -13.2652   19.1929 C   0  0  0  0  0  0  0  0  0  0  0  0
    7.7562  -14.1282   20.3856 C   0  0  2  0  0  0  0  0  0  0  0  0
    7.6468  -13.3759   21.6884 C   0  0  0  0  0  0  0  0  0  0  0  0
    9.0067  -14.9768   20.3214 C   0  0  2  0  0  0  0  0  0  0  0  0
    8.7974  -15.8168   19.1240 N   0  0  0  0  0  0  0  0  0  0  0  0
    9.1697  -15.8673   21.5075 C   0  0  0  0  0  0  0  0  0  0  0  0
    8.2678  -16.7313   21.7954 O   0  0  0  0  0  0  0  0  0  0  0  0
   10.2777  -15.8526   22.3876 N   0  0  0  0  0  0  0  0  0  0  0  0
   10.3939  -16.8092   23.4985 C   0  0  1  0  0  0  0  0  0  0  0  0
   11.3756  -17.8927   23.2055 C   0  0  0  0  0  0  0  0  0  0  0  0
   11.6050  -18.8646   24.3091 C   0  0  0  0  0  0  0  0  0  0  0  0
   12.6123  -19.9265   24.0301 C   0  0  0  0  0  0  0  0  0  0  0  0
   12.7937  -20.8838   25.1891 C   0  0  0  0  0  0  0  0  0  0  0  0
   13.7867  -21.8915   24.8366 N   0  0  0  0  0  0  0  0  0  0  0  0
   10.7169  -16.0965   24.7615 C   0  0  0  0  0  0  0  0  0  0  0  0
   10.4108  -16.6021   26.0201 O   0  0  0  0  0  0  0  0  0  0  0  0
   11.2948  -14.9842   24.6756 O   0  0  0  0  0  0  0  0  0  0  0  0
  2  1  1  6
  3  4  1  0
  3  2  1  0
  4  8  1  0
  5  4  2  0
  6  2  1  0
  6  7  2  0
 10  9  1  6
 10 12  1  0
 11 10  1  0
 12 13  1  6
 13  6  1  0
 14 12  1  0
 15 14  2  0
 16 14  1  0
 17 16  1  0
 17 23  1  0
 17 18  1  6
 19 18  1  0
 20 19  1  0
 20 21  1  0
 22 21  1  0
 23 24  1  0
 25 23  2  0
M  END
$$$$
