DVK.pdb
     RDKit          3D

 25 24  0  0  1  0  0  0  0  0999 V2000
    7.4231  -15.5764   21.0156 N   0  0  0  0  0  0  0  0  0  0  0  0
    6.8245  -15.8383   22.3102 C   0  0  1  0  0  0  0  0  0  0  0  0
    6.8923  -17.3343   22.5265 C   0  0  0  0  0  0  0  0  0  0  0  0
    5.9283  -17.9385   21.5825 C   0  0  0  0  0  0  0  0  0  0  0  0
    6.1789  -17.9452   20.3668 O   0  0  0  0  0  0  0  0  0  0  0  0
    7.6609  -15.0967   23.3209 C   0  0  0  0  0  0  0  0  0  0  0  0
    8.9124  -15.0321   23.2293 O   0  0  0  0  0  0  0  0  0  0  0  0
    4.7566  -18.4919   22.0555 O   0  0  0  0  0  0  0  0  0  0  0  0
    6.2824  -11.8727   25.2018 C   0  0  0  0  0  0  0  0  0  0  0  0
    6.8793  -12.8477   26.1491 C   0  0  2  0  0  0  0  0  0  0  0  0
    7.4498  -12.2017   27.3871 C   0  0  0  0  0  0  0  0  0  0  0  0
    7.8604  -13.7981   25.4993 C   0  0  2  0  0  0  0  0  0  0  0  0
    7.0700  -14.4355   24.4259 N   0  0  0  0  0  0  0  0  0  0  0  0
    8.3481  -14.8591   26.4282 C   0  0  0  0  0  0  0  0  0  0  0  0
    7.5622  -15.7989   26.8051 O   0  0  0  0  0  0  0  0  0  0  0  0
    9.6581  -14.9349   26.9579 N   0  0  0  0  0  0  0  0  0  0  0  0
   10.0673  -16.0287   27.8519 C   0  0  1  0  0  0  0  0  0  0  0  0
   11.1290  -16.8818   27.2450 C   0  0  0  0  0  0  0  0  0  0  0  0
   11.6536  -17.9682   28.1165 C   0  0  0  0  0  0  0  0  0  0  0  0
   12.7272  -18.8099   27.5172 C   0  0  0  0  0  0  0  0  0  0  0  0
   13.1002  -19.9929   28.3854 C   0  0  0  0  0  0  0  0  0  0  0  0
   14.1484  -20.7658   27.7298 N   0  0  0  0  0  0  0  0  0  0  0  0
   10.4793  -15.4885   29.1732 C   0  0  0  0  0  0  0  0  0  0  0  0
   10.5408  -16.2631   30.3261 O   0  0  0  0  0  0  0  0  0  0  0  0
   10.7849  -14.2716   29.2395 O   0  0  0  0  0  0  0  0  0  0  0  0
  2  1  1  6
  3  4  1  0
  3  2  1  0
  4  8  1  0
  5  4  2  0
  6  2  1  0
  6  7  2  0
 10  9  1  6
 10 12  1  0
 11 10  1  0
 12 13  1  6
 13  6  1  0
 14 12  1  0
 15 14  2  0
 16 14  1  0
 17 16  1  0
 17 23  1  0
 17 18  1  6
 19 18  1  0
 20 19  1  0
 20 21  1  0
 22 21  1  0
 23 24  1  0
 25 23  2  0
M  END
$$$$
