DVK.pdb
     RDKit          3D

 25 24  0  0  1  0  0  0  0  0999 V2000
    9.0747  -17.5607   16.3959 N   0  0  0  0  0  0  0  0  0  0  0  0
    8.1977  -17.4887   17.5486 C   0  0  1  0  0  0  0  0  0  0  0  0
    8.1286  -18.8837   18.1307 C   0  0  0  0  0  0  0  0  0  0  0  0
    7.3088  -19.6867   17.1985 C   0  0  0  0  0  0  0  0  0  0  0  0
    7.8613  -20.4787   16.4188 O   0  0  0  0  0  0  0  0  0  0  0  0
    8.8404  -16.5218   18.5094 C   0  0  0  0  0  0  0  0  0  0  0  0
   10.0814  -16.5043   18.7047 O   0  0  0  0  0  0  0  0  0  0  0  0
    5.9359  -19.5532   17.1994 O   0  0  0  0  0  0  0  0  0  0  0  0
    7.3344  -12.8321   19.3161 C   0  0  0  0  0  0  0  0  0  0  0  0
    7.5781  -13.6716   20.5160 C   0  0  2  0  0  0  0  0  0  0  0  0
    7.8234  -12.8650   21.7668 C   0  0  0  0  0  0  0  0  0  0  0  0
    8.6357  -14.7326   20.3063 C   0  0  2  0  0  0  0  0  0  0  0  0
    8.0693  -15.5839   19.2396 N   0  0  0  0  0  0  0  0  0  0  0  0
    8.8673  -15.5737   21.5167 C   0  0  0  0  0  0  0  0  0  0  0  0
    7.9674  -16.3953   21.9142 O   0  0  0  0  0  0  0  0  0  0  0  0
   10.0415  -15.5543   22.3063 N   0  0  0  0  0  0  0  0  0  0  0  0
   10.3216  -16.6025   23.2991 C   0  0  1  0  0  0  0  0  0  0  0  0
   10.5581  -17.9297   22.6621 C   0  0  0  0  0  0  0  0  0  0  0  0
   10.8008  -19.0574   23.6026 C   0  0  0  0  0  0  0  0  0  0  0  0
   11.1826  -20.3509   22.9692 C   0  0  0  0  0  0  0  0  0  0  0  0
   11.2819  -21.4867   23.9654 C   0  0  0  0  0  0  0  0  0  0  0  0
   11.5691  -22.7294   23.2589 N   0  0  0  0  0  0  0  0  0  0  0  0
   11.4541  -16.1976   24.1714 C   0  0  0  0  0  0  0  0  0  0  0  0
   11.6052  -16.6456   25.4790 O   0  0  0  0  0  0  0  0  0  0  0  0
   12.3106  -15.4124   23.6934 O   0  0  0  0  0  0  0  0  0  0  0  0
  2  1  1  6
  3  4  1  0
  3  2  1  0
  4  8  1  0
  5  4  2  0
  6  2  1  0
  6  7  2  0
 10  9  1  6
 10 12  1  0
 11 10  1  0
 12 13  1  6
 13  6  1  0
 14 12  1  0
 15 14  2  0
 16 14  1  0
 17 16  1  0
 17 23  1  0
 17 18  1  6
 19 18  1  0
 20 19  1  0
 20 21  1  0
 22 21  1  0
 23 24  1  0
 25 23  2  0
M  END
$$$$
