DVK.pdb
     RDKit          3D

 25 24  0  0  1  0  0  0  0  0999 V2000
    8.9209  -15.4878   20.7598 N   0  0  0  0  0  0  0  0  0  0  0  0
    8.1133  -15.9517   21.8714 C   0  0  1  0  0  0  0  0  0  0  0  0
    8.2745  -17.4551   21.9289 C   0  0  0  0  0  0  0  0  0  0  0  0
    7.6015  -17.9951   20.7284 C   0  0  0  0  0  0  0  0  0  0  0  0
    8.2090  -18.0324   19.6467 O   0  0  0  0  0  0  0  0  0  0  0  0
    8.6713  -15.2899   23.1050 C   0  0  0  0  0  0  0  0  0  0  0  0
    9.9078  -15.1959   23.3075 O   0  0  0  0  0  0  0  0  0  0  0  0
    6.3039  -18.4549   20.8151 O   0  0  0  0  0  0  0  0  0  0  0  0
    6.8479  -12.1665   24.8437 C   0  0  0  0  0  0  0  0  0  0  0  0
    7.1845  -13.2509   25.8002 C   0  0  2  0  0  0  0  0  0  0  0  0
    7.3766  -12.7596   27.2133 C   0  0  0  0  0  0  0  0  0  0  0  0
    8.3292  -14.1270   25.3416 C   0  0  2  0  0  0  0  0  0  0  0  0
    7.8218  -14.7410   24.0971 N   0  0  0  0  0  0  0  0  0  0  0  0
    8.6581  -15.2129   26.3106 C   0  0  0  0  0  0  0  0  0  0  0  0
    7.8060  -16.1378   26.5581 O   0  0  0  0  0  0  0  0  0  0  0  0
    9.8793  -15.3289   27.0161 N   0  0  0  0  0  0  0  0  0  0  0  0
   10.1536  -16.4703   27.9021 C   0  0  1  0  0  0  0  0  0  0  0  0
   11.2136  -17.3640   27.3536 C   0  0  0  0  0  0  0  0  0  0  0  0
   11.5759  -18.5274   28.2084 C   0  0  0  0  0  0  0  0  0  0  0  0
   12.7013  -19.3659   27.7079 C   0  0  0  0  0  0  0  0  0  0  0  0
   12.9277  -20.6066   28.5457 C   0  0  0  0  0  0  0  0  0  0  0  0
   14.0333  -21.3756   27.9869 N   0  0  0  0  0  0  0  0  0  0  0  0
   10.4845  -15.9939   29.2699 C   0  0  0  0  0  0  0  0  0  0  0  0
   10.4767  -16.8222   30.3866 O   0  0  0  0  0  0  0  0  0  0  0  0
   10.7847  -14.7821   29.4120 O   0  0  0  0  0  0  0  0  0  0  0  0
  2  1  1  6
  3  4  1  0
  3  2  1  0
  4  8  1  0
  5  4  2  0
  6  2  1  0
  6  7  2  0
 10  9  1  6
 10 12  1  0
 11 10  1  0
 12 13  1  6
 13  6  1  0
 14 12  1  0
 15 14  2  0
 16 14  1  0
 17 16  1  0
 17 23  1  0
 17 18  1  6
 19 18  1  0
 20 19  1  0
 20 21  1  0
 22 21  1  0
 23 24  1  0
 25 23  2  0
M  END
$$$$
