DVK.pdb
     RDKit          3D

 25 24  0  0  1  0  0  0  0  0999 V2000
    9.1834  -16.8525   16.9603 N   0  0  0  0  0  0  0  0  0  0  0  0
   10.4206  -17.0949   17.6770 C   0  0  1  0  0  0  0  0  0  0  0  0
   11.5479  -16.7591   16.7252 C   0  0  0  0  0  0  0  0  0  0  0  0
   11.4752  -17.7442   15.6252 C   0  0  0  0  0  0  0  0  0  0  0  0
   11.8115  -18.9213   15.8299 O   0  0  0  0  0  0  0  0  0  0  0  0
   10.4090  -16.1691   18.8661 C   0  0  0  0  0  0  0  0  0  0  0  0
   11.4439  -15.9408   19.5411 O   0  0  0  0  0  0  0  0  0  0  0  0
   11.0344  -17.3522   14.3783 O   0  0  0  0  0  0  0  0  0  0  0  0
    8.0040  -12.9068   19.1362 C   0  0  0  0  0  0  0  0  0  0  0  0
    7.9020  -13.8459   20.2815 C   0  0  2  0  0  0  0  0  0  0  0  0
    7.4360  -13.1839   21.5543 C   0  0  0  0  0  0  0  0  0  0  0  0
    9.1484  -14.6760   20.4949 C   0  0  2  0  0  0  0  0  0  0  0  0
    9.2239  -15.5113   19.2784 N   0  0  0  0  0  0  0  0  0  0  0  0
    9.0569  -15.5717   21.6848 C   0  0  0  0  0  0  0  0  0  0  0  0
    8.1965  -16.5213   21.7139 O   0  0  0  0  0  0  0  0  0  0  0  0
    9.8682  -15.4724   22.8400 N   0  0  0  0  0  0  0  0  0  0  0  0
    9.7703  -16.4458   23.9380 C   0  0  1  0  0  0  0  0  0  0  0  0
   11.0596  -17.1568   24.1740 C   0  0  0  0  0  0  0  0  0  0  0  0
   11.0777  -18.0795   25.3417 C   0  0  0  0  0  0  0  0  0  0  0  0
   12.3733  -18.7711   25.5933 C   0  0  0  0  0  0  0  0  0  0  0  0
   12.3370  -19.6599   26.8184 C   0  0  0  0  0  0  0  0  0  0  0  0
   13.6327  -20.3064   26.9888 N   0  0  0  0  0  0  0  0  0  0  0  0
    9.2693  -15.7846   25.1706 C   0  0  0  0  0  0  0  0  0  0  0  0
    8.6994  -16.4818   26.2300 O   0  0  0  0  0  0  0  0  0  0  0  0
    9.3710  -14.5347   25.2481 O   0  0  0  0  0  0  0  0  0  0  0  0
  2  1  1  6
  3  4  1  0
  3  2  1  0
  4  8  1  0
  5  4  2  0
  6  2  1  0
  6  7  2  0
 10  9  1  6
 10 12  1  0
 11 10  1  0
 12 13  1  6
 13  6  1  0
 14 12  1  0
 15 14  2  0
 16 14  1  0
 17 16  1  0
 17 23  1  0
 17 18  1  1
 19 18  1  0
 20 19  1  0
 20 21  1  0
 22 21  1  0
 23 24  1  0
 25 23  2  0
M  END
$$$$
