DVK.pdb
     RDKit          3D

 25 24  0  0  1  0  0  0  0  0999 V2000
    8.8618  -17.5175   16.3163 N   0  0  0  0  0  0  0  0  0  0  0  0
    7.9633  -17.4372   17.4518 C   0  0  1  0  0  0  0  0  0  0  0  0
    7.7388  -18.8550   17.9303 C   0  0  0  0  0  0  0  0  0  0  0  0
    6.7394  -19.4517   17.0187 C   0  0  0  0  0  0  0  0  0  0  0  0
    5.9637  -20.3235   17.4416 O   0  0  0  0  0  0  0  0  0  0  0  0
    8.6709  -16.6094   18.4936 C   0  0  0  0  0  0  0  0  0  0  0  0
    9.9177  -16.6526   18.6429 O   0  0  0  0  0  0  0  0  0  0  0  0
    6.6728  -19.0377   15.7046 O   0  0  0  0  0  0  0  0  0  0  0  0
    7.2526  -13.0281   19.4181 C   0  0  0  0  0  0  0  0  0  0  0  0
    7.6133  -13.7983   20.6351 C   0  0  2  0  0  0  0  0  0  0  0  0
    8.0169  -12.9231   21.7954 C   0  0  0  0  0  0  0  0  0  0  0  0
    8.6168  -14.9003   20.3771 C   0  0  2  0  0  0  0  0  0  0  0  0
    7.9577  -15.7406   19.3560 N   0  0  0  0  0  0  0  0  0  0  0  0
    8.8880  -15.7371   21.5823 C   0  0  0  0  0  0  0  0  0  0  0  0
    8.1195  -16.7213   21.8717 O   0  0  0  0  0  0  0  0  0  0  0  0
    9.9646  -15.5430   22.4800 N   0  0  0  0  0  0  0  0  0  0  0  0
   10.6242  -16.6736   23.1504 C   0  0  1  0  0  0  0  0  0  0  0  0
   11.1887  -17.6515   22.1766 C   0  0  0  0  0  0  0  0  0  0  0  0
   11.8404  -18.8481   22.7753 C   0  0  0  0  0  0  0  0  0  0  0  0
   12.3615  -19.8494   21.8027 C   0  0  0  0  0  0  0  0  0  0  0  0
   12.9130  -21.0893   22.4741 C   0  0  0  0  0  0  0  0  0  0  0  0
   13.1911  -22.1053   21.4659 N   0  0  0  0  0  0  0  0  0  0  0  0
   11.6550  -16.1803   24.1000 C   0  0  0  0  0  0  0  0  0  0  0  0
   12.5416  -15.1537   23.7945 O   0  0  0  0  0  0  0  0  0  0  0  0
   11.7189  -16.7244   25.2306 O   0  0  0  0  0  0  0  0  0  0  0  0
  2  1  1  6
  3  4  1  0
  3  2  1  0
  4  8  1  0
  5  4  2  0
  6  2  1  0
  6  7  2  0
 10  9  1  6
 10 12  1  0
 11 10  1  0
 12 13  1  6
 13  6  1  0
 14 12  1  0
 15 14  2  0
 16 14  1  0
 17 16  1  0
 17 23  1  0
 17 18  1  6
 19 18  1  0
 20 19  1  0
 20 21  1  0
 22 21  1  0
 23 24  1  0
 25 23  2  0
M  END
$$$$
