DVK.pdb
     RDKit          3D

 25 24  0  0  1  0  0  0  0  0999 V2000
    8.1853  -15.4609   20.8980 N   0  0  0  0  0  0  0  0  0  0  0  0
    7.5102  -15.8629   22.1169 C   0  0  1  0  0  0  0  0  0  0  0  0
    7.6757  -17.3625   22.2318 C   0  0  0  0  0  0  0  0  0  0  0  0
    6.7965  -17.9612   21.2049 C   0  0  0  0  0  0  0  0  0  0  0  0
    5.7379  -17.3928   20.8936 O   0  0  0  0  0  0  0  0  0  0  0  0
    8.2066  -15.1436   23.2433 C   0  0  0  0  0  0  0  0  0  0  0  0
    9.4550  -15.0046   23.2723 O   0  0  0  0  0  0  0  0  0  0  0  0
    7.1557  -19.1464   20.5976 O   0  0  0  0  0  0  0  0  0  0  0  0
    6.6713  -11.9867   24.8898 C   0  0  0  0  0  0  0  0  0  0  0  0
    7.1025  -12.9318   25.9504 C   0  0  2  0  0  0  0  0  0  0  0  0
    7.5211  -12.2442   27.2260 C   0  0  0  0  0  0  0  0  0  0  0  0
    8.1309  -13.9374   25.4818 C   0  0  2  0  0  0  0  0  0  0  0  0
    7.4805  -14.5889   24.3260 N   0  0  0  0  0  0  0  0  0  0  0  0
    8.4392  -14.9778   26.5059 C   0  0  0  0  0  0  0  0  0  0  0  0
    7.5012  -15.7032   26.9926 O   0  0  0  0  0  0  0  0  0  0  0  0
    9.7292  -15.2578   27.0158 N   0  0  0  0  0  0  0  0  0  0  0  0
    9.9397  -16.2504   28.0805 C   0  0  1  0  0  0  0  0  0  0  0  0
   10.9148  -17.3048   27.6796 C   0  0  0  0  0  0  0  0  0  0  0  0
   10.6178  -17.9969   26.3958 C   0  0  0  0  0  0  0  0  0  0  0  0
   11.6556  -18.9595   25.9305 C   0  0  0  0  0  0  0  0  0  0  0  0
   11.3577  -19.5276   24.5590 C   0  0  0  0  0  0  0  0  0  0  0  0
   12.4560  -20.3907   24.1412 N   0  0  0  0  0  0  0  0  0  0  0  0
   10.3412  -15.5763   29.3422 C   0  0  0  0  0  0  0  0  0  0  0  0
   10.5586  -14.2062   29.4369 O   0  0  0  0  0  0  0  0  0  0  0  0
   10.4878  -16.2888   30.3665 O   0  0  0  0  0  0  0  0  0  0  0  0
  2  1  1  6
  3  4  1  0
  3  2  1  0
  4  8  1  0
  5  4  2  0
  6  2  1  0
  6  7  2  0
 10  9  1  6
 10 12  1  0
 11 10  1  0
 12 13  1  6
 13  6  1  0
 14 12  1  0
 15 14  2  0
 16 14  1  0
 17 16  1  0
 17 23  1  0
 17 18  1  6
 19 18  1  0
 20 19  1  0
 20 21  1  0
 22 21  1  0
 23 24  1  0
 25 23  2  0
M  END
$$$$
