LMY.pdb
     RDKit          3D

 29 29  0  0  1  0  0  0  0  0999 V2000
    8.4683  -14.4148   16.9342 C   0  0  0  0  0  0  0  0  0  0  0  0
    7.4354  -13.8392   17.8563 C   0  0  2  0  0  0  0  0  0  0  0  0
    7.0067  -12.4861   17.2713 C   0  0  0  0  0  0  0  0  0  0  0  0
    7.9662  -13.5460   19.2432 C   0  0  0  0  0  0  0  0  0  0  0  0
    8.4466  -14.8097   19.9013 C   0  0  2  0  0  0  0  0  0  0  0  0
    7.4387  -15.8228   19.8220 N   0  0  0  0  0  0  0  0  0  0  0  0
    8.9027  -14.6057   21.2861 C   0  0  0  0  0  0  0  0  0  0  0  0
    9.9263  -13.8801   21.4710 O   0  0  0  0  0  0  0  0  0  0  0  0
    5.8558  -12.0449   26.4682 C   0  0  0  0  0  0  0  0  0  0  0  0
    7.1125  -13.3648   26.3693 S   0  0  0  0  0  0  0  0  0  0  0  0
    6.8729  -14.3557   24.8919 C   0  0  0  0  0  0  0  0  0  0  0  0
    7.9377  -15.4212   24.8321 C   0  0  0  0  0  0  0  0  0  0  0  0
    8.8948  -15.0800   23.7011 C   0  0  2  0  0  0  0  0  0  0  0  0
    8.2696  -15.1687   22.4153 N   0  0  0  0  0  0  0  0  0  0  0  0
    9.9880  -16.0971   23.7844 C   0  0  0  0  0  0  0  0  0  0  0  0
   10.1014  -16.9250   22.8765 O   0  0  0  0  0  0  0  0  0  0  0  0
   11.3450  -13.9008   31.0831 O   0  0  0  0  0  0  0  0  0  0  0  0
   11.0536  -14.7821   30.0389 C   0  0  0  0  0  0  0  0  0  0  0  0
   11.5061  -16.0814   30.0274 C   0  0  0  0  0  0  0  0  0  0  0  0
   11.2159  -16.9469   28.9952 C   0  0  0  0  0  0  0  0  0  0  0  0
   10.4412  -16.5460   27.8984 C   0  0  0  0  0  0  0  0  0  0  0  0
   10.1591  -17.4701   26.7809 C   0  0  0  0  0  0  0  0  0  0  0  0
   11.1459  -17.3049   25.6936 C   0  0  2  0  0  0  0  0  0  0  0  0
   10.8906  -16.1414   24.8608 N   0  0  0  0  0  0  0  0  0  0  0  0
   11.3464  -18.5185   24.8706 C   0  0  0  0  0  0  0  0  0  0  0  0
   12.5356  -18.9672   24.6679 O   0  0  0  0  0  0  0  0  0  0  0  0
   10.0021  -15.2376   27.9385 C   0  0  0  0  0  0  0  0  0  0  0  0
   10.2889  -14.3668   28.9684 C   0  0  0  0  0  0  0  0  0  0  0  0
   10.2960  -19.2139   24.2952 O   0  0  0  0  0  0  0  0  0  0  0  0
  2  1  1  6
  3  2  1  0
  4  2  1  0
  4  5  1  0
  5  6  1  1
  7  5  1  0
  7  8  2  0
  9 10  1  0
 10 11  1  0
 11 12  1  0
 13 12  1  1
 13 14  1  0
 14  7  1  0
 15 13  1  0
 16 15  2  0
 18 17  1  0
 19 18  2  0
 20 19  1  0
 21 27  1  0
 21 20  2  0
 22 21  1  0
 23 22  1  1
 23 24  1  0
 24 15  1  0
 25 23  1  0
 26 25  2  0
 27 28  2  0
 28 18  1  0
 29 25  1  0
M  END
$$$$
