LMY.pdb
     RDKit          3D

 29 29  0  0  1  0  0  0  0  0999 V2000
    8.8067  -14.4061   17.9641 C   0  0  0  0  0  0  0  0  0  0  0  0
    7.7993  -13.8719   18.9379 C   0  0  2  0  0  0  0  0  0  0  0  0
    7.3529  -12.4966   18.4223 C   0  0  0  0  0  0  0  0  0  0  0  0
    8.3683  -13.6358   20.3205 C   0  0  0  0  0  0  0  0  0  0  0  0
    8.7487  -14.9407   20.9635 C   0  0  2  0  0  0  0  0  0  0  0  0
    7.7022  -15.9015   20.7897 N   0  0  0  0  0  0  0  0  0  0  0  0
    9.1275  -14.8014   22.3793 C   0  0  0  0  0  0  0  0  0  0  0  0
   10.2064  -14.1903   22.6456 O   0  0  0  0  0  0  0  0  0  0  0  0
    5.8227  -12.2561   26.7402 C   0  0  0  0  0  0  0  0  0  0  0  0
    7.4655  -12.5275   27.4876 S   0  0  0  0  0  0  0  0  0  0  0  0
    8.1257  -14.1238   26.9996 C   0  0  0  0  0  0  0  0  0  0  0  0
    7.6002  -14.4800   25.6323 C   0  0  0  0  0  0  0  0  0  0  0  0
    8.7526  -15.0220   24.8017 C   0  0  2  0  0  0  0  0  0  0  0  0
    8.3628  -15.3068   23.4530 N   0  0  0  0  0  0  0  0  0  0  0  0
    9.1618  -16.2949   25.4715 C   0  0  0  0  0  0  0  0  0  0  0  0
    8.3937  -17.2600   25.4360 O   0  0  0  0  0  0  0  0  0  0  0  0
   13.1613  -19.1054   21.0051 O   0  0  0  0  0  0  0  0  0  0  0  0
   12.9374  -18.8122   22.3526 C   0  0  0  0  0  0  0  0  0  0  0  0
   12.8356  -17.5206   22.8155 C   0  0  0  0  0  0  0  0  0  0  0  0
   12.6147  -17.2365   24.1456 C   0  0  0  0  0  0  0  0  0  0  0  0
   12.4818  -18.2539   25.1002 C   0  0  0  0  0  0  0  0  0  0  0  0
   12.2749  -17.9417   26.5292 C   0  0  0  0  0  0  0  0  0  0  0  0
   10.8562  -17.6345   26.8053 C   0  0  2  0  0  0  0  0  0  0  0  0
   10.3913  -16.4294   26.1390 N   0  0  0  0  0  0  0  0  0  0  0  0
   10.5112  -17.6173   28.2444 C   0  0  0  0  0  0  0  0  0  0  0  0
   10.8046  -18.6269   28.9869 O   0  0  0  0  0  0  0  0  0  0  0  0
   12.5886  -19.5386   24.6056 C   0  0  0  0  0  0  0  0  0  0  0  0
   12.8095  -19.8293   23.2759 C   0  0  0  0  0  0  0  0  0  0  0  0
    9.8757  -16.5452   28.8483 O   0  0  0  0  0  0  0  0  0  0  0  0
  2  1  1  6
  3  2  1  0
  4  2  1  0
  4  5  1  0
  5  6  1  1
  7  5  1  0
  7  8  2  0
  9 10  1  0
 10 11  1  0
 11 12  1  0
 13 12  1  1
 13 14  1  0
 14  7  1  0
 15 13  1  0
 16 15  2  0
 18 17  1  0
 19 18  2  0
 20 19  1  0
 21 27  1  0
 21 20  2  0
 22 21  1  0
 23 22  1  1
 23 24  1  0
 24 15  1  0
 25 23  1  0
 26 25  2  0
 27 28  2  0
 28 18  1  0
 29 25  1  0
M  END
$$$$
