LMY.pdb
     RDKit          3D

 29 29  0  0  1  0  0  0  0  0999 V2000
    6.6268  -20.8366   20.4976 C   0  0  0  0  0  0  0  0  0  0  0  0
    8.1079  -20.6029   20.5141 C   0  0  2  0  0  0  0  0  0  0  0  0
    8.7405  -21.7495   21.3151 C   0  0  0  0  0  0  0  0  0  0  0  0
    8.5059  -19.3270   21.2245 C   0  0  0  0  0  0  0  0  0  0  0  0
    7.8932  -18.1332   20.5460 C   0  0  2  0  0  0  0  0  0  0  0  0
    8.1077  -18.2033   19.1325 N   0  0  0  0  0  0  0  0  0  0  0  0
    8.3537  -16.8500   21.1015 C   0  0  0  0  0  0  0  0  0  0  0  0
    9.3021  -16.2542   20.5066 O   0  0  0  0  0  0  0  0  0  0  0  0
    7.2547  -12.0258   27.1256 C   0  0  0  0  0  0  0  0  0  0  0  0
    6.5507  -12.6830   25.5753 S   0  0  0  0  0  0  0  0  0  0  0  0
    7.7921  -13.5962   24.6550 C   0  0  0  0  0  0  0  0  0  0  0  0
    7.1580  -14.1905   23.4233 C   0  0  0  0  0  0  0  0  0  0  0  0
    8.2296  -14.9365   22.6443 C   0  0  2  0  0  0  0  0  0  0  0  0
    7.8034  -16.2470   22.2532 N   0  0  0  0  0  0  0  0  0  0  0  0
    9.3896  -15.0587   23.5802 C   0  0  0  0  0  0  0  0  0  0  0  0
    9.7186  -14.0773   24.2520 O   0  0  0  0  0  0  0  0  0  0  0  0
   11.1088  -14.0687   30.7528 O   0  0  0  0  0  0  0  0  0  0  0  0
   10.7210  -14.7370   29.5889 C   0  0  0  0  0  0  0  0  0  0  0  0
   10.0461  -14.1050   28.5701 C   0  0  0  0  0  0  0  0  0  0  0  0
    9.6658  -14.7685   27.4239 C   0  0  0  0  0  0  0  0  0  0  0  0
    9.9483  -16.1282   27.2361 C   0  0  0  0  0  0  0  0  0  0  0  0
    9.5114  -16.8405   26.0178 C   0  0  0  0  0  0  0  0  0  0  0  0
   10.5657  -16.8177   24.9828 C   0  0  2  0  0  0  0  0  0  0  0  0
   10.1169  -16.2530   23.7210 N   0  0  0  0  0  0  0  0  0  0  0  0
   11.2383  -18.1199   24.7772 C   0  0  0  0  0  0  0  0  0  0  0  0
   10.9720  -18.8218   23.7317 O   0  0  0  0  0  0  0  0  0  0  0  0
   10.6261  -16.7345   28.2750 C   0  0  0  0  0  0  0  0  0  0  0  0
   11.0094  -16.0761   29.4244 C   0  0  0  0  0  0  0  0  0  0  0  0
   12.1627  -18.6336   25.6714 O   0  0  0  0  0  0  0  0  0  0  0  0
  2  1  1  1
  3  2  1  0
  4  2  1  0
  4  5  1  0
  5  6  1  6
  7  5  1  0
  7  8  2  0
  9 10  1  0
 10 11  1  0
 11 12  1  0
 13 12  1  1
 13 14  1  0
 14  7  1  0
 15 13  1  0
 16 15  2  0
 18 17  1  0
 19 18  2  0
 20 19  1  0
 21 27  1  0
 21 20  2  0
 22 21  1  0
 23 22  1  1
 23 24  1  0
 24 15  1  0
 25 23  1  0
 26 25  2  0
 27 28  2  0
 28 18  1  0
 29 25  1  0
M  END
$$$$
