LMY.pdb
     RDKit          3D

 29 29  0  0  1  0  0  0  0  0999 V2000
    9.1654  -13.4738   18.6928 C   0  0  0  0  0  0  0  0  0  0  0  0
    7.7116  -13.3604   19.0422 C   0  0  2  0  0  0  0  0  0  0  0  0
    7.4597  -11.9095   19.4763 C   0  0  0  0  0  0  0  0  0  0  0  0
    7.3080  -14.2247   20.2174 C   0  0  0  0  0  0  0  0  0  0  0  0
    8.2562  -15.3815   20.3706 C   0  0  2  0  0  0  0  0  0  0  0  0
    8.1126  -16.2878   19.2721 N   0  0  0  0  0  0  0  0  0  0  0  0
    8.1251  -16.0721   21.6641 C   0  0  0  0  0  0  0  0  0  0  0  0
    8.2762  -15.3852   22.7195 O   0  0  0  0  0  0  0  0  0  0  0  0
    6.1163  -22.0692   21.5323 C   0  0  0  0  0  0  0  0  0  0  0  0
    5.0053  -20.9223   22.4162 S   0  0  0  0  0  0  0  0  0  0  0  0
    5.7459  -19.2915   22.5355 C   0  0  0  0  0  0  0  0  0  0  0  0
    7.1468  -19.4222   23.0767 C   0  0  0  0  0  0  0  0  0  0  0  0
    7.7828  -18.0414   23.1001 C   0  0  2  0  0  0  0  0  0  0  0  0
    7.8423  -17.4488   21.7973 N   0  0  0  0  0  0  0  0  0  0  0  0
    9.1745  -18.2527   23.6050 C   0  0  0  0  0  0  0  0  0  0  0  0
   10.1231  -18.0239   22.8497 O   0  0  0  0  0  0  0  0  0  0  0  0
   11.2308  -13.6317   30.5909 O   0  0  0  0  0  0  0  0  0  0  0  0
   10.7598  -14.3569   29.4936 C   0  0  0  0  0  0  0  0  0  0  0  0
   11.3333  -15.5429   29.0970 C   0  0  0  0  0  0  0  0  0  0  0  0
   10.8651  -16.2546   28.0139 C   0  0  0  0  0  0  0  0  0  0  0  0
    9.7751  -15.8045   27.2568 C   0  0  0  0  0  0  0  0  0  0  0  0
    9.2973  -16.5572   26.0789 C   0  0  0  0  0  0  0  0  0  0  0  0
    9.9514  -17.8793   25.9928 C   0  0  2  0  0  0  0  0  0  0  0  0
    9.4386  -18.7023   24.9102 N   0  0  0  0  0  0  0  0  0  0  0  0
    9.9721  -18.6271   27.2698 C   0  0  0  0  0  0  0  0  0  0  0  0
    8.8689  -19.0346   27.7929 O   0  0  0  0  0  0  0  0  0  0  0  0
    9.2213  -14.6123   27.6790 C   0  0  0  0  0  0  0  0  0  0  0  0
    9.6851  -13.8955   28.7619 C   0  0  0  0  0  0  0  0  0  0  0  0
   11.1446  -18.9198   27.9462 O   0  0  0  0  0  0  0  0  0  0  0  0
  2  1  1  1
  3  2  1  0
  4  2  1  0
  4  5  1  0
  5  6  1  6
  7  5  1  0
  7  8  2  0
  9 10  1  0
 10 11  1  0
 11 12  1  0
 13 12  1  6
 13 14  1  0
 14  7  1  0
 15 13  1  0
 16 15  2  0
 18 17  1  0
 19 18  2  0
 20 19  1  0
 21 27  1  0
 21 20  2  0
 22 21  1  0
 23 22  1  1
 23 24  1  0
 24 15  1  0
 25 23  1  0
 26 25  2  0
 27 28  2  0
 28 18  1  0
 29 25  1  0
M  END
$$$$
