LMY.pdb
     RDKit          3D

 29 29  0  0  1  0  0  0  0  0999 V2000
    8.7734  -22.0290   18.3186 C   0  0  0  0  0  0  0  0  0  0  0  0
    8.1685  -21.1776   19.3946 C   0  0  2  0  0  0  0  0  0  0  0  0
    6.7687  -20.7667   18.9166 C   0  0  0  0  0  0  0  0  0  0  0  0
    8.9238  -19.8880   19.6347 C   0  0  0  0  0  0  0  0  0  0  0  0
    8.8514  -19.4974   21.0849 C   0  0  2  0  0  0  0  0  0  0  0  0
    7.4862  -19.4034   21.5044 N   0  0  0  0  0  0  0  0  0  0  0  0
    9.5992  -18.2672   21.3926 C   0  0  0  0  0  0  0  0  0  0  0  0
   10.8505  -18.2681   21.1856 O   0  0  0  0  0  0  0  0  0  0  0  0
    7.7819  -12.3805   20.4173 C   0  0  0  0  0  0  0  0  0  0  0  0
    6.9050  -13.1387   21.8271 S   0  0  0  0  0  0  0  0  0  0  0  0
    7.7784  -14.5970   22.4039 C   0  0  0  0  0  0  0  0  0  0  0  0
    9.1394  -14.6471   21.7576 C   0  0  0  0  0  0  0  0  0  0  0  0
    9.8194  -15.9427   22.1709 C   0  0  2  0  0  0  0  0  0  0  0  0
    9.0069  -17.0917   21.9029 N   0  0  0  0  0  0  0  0  0  0  0  0
   10.0317  -15.8276   23.6467 C   0  0  0  0  0  0  0  0  0  0  0  0
   10.7804  -14.9446   24.0735 O   0  0  0  0  0  0  0  0  0  0  0  0
    5.9526  -11.3891   25.7676 O   0  0  0  0  0  0  0  0  0  0  0  0
    6.5267  -12.6389   26.0125 C   0  0  0  0  0  0  0  0  0  0  0  0
    7.8009  -12.7758   26.5132 C   0  0  0  0  0  0  0  0  0  0  0  0
    8.3628  -14.0109   26.7532 C   0  0  0  0  0  0  0  0  0  0  0  0
    7.6617  -15.1972   26.4980 C   0  0  0  0  0  0  0  0  0  0  0  0
    8.2811  -16.5182   26.7294 C   0  0  0  0  0  0  0  0  0  0  0  0
    9.5649  -16.6361   26.0075 C   0  0  2  0  0  0  0  0  0  0  0  0
    9.4070  -16.6903   24.5638 N   0  0  0  0  0  0  0  0  0  0  0  0
   10.4319  -17.7332   26.4925 C   0  0  0  0  0  0  0  0  0  0  0  0
   10.7889  -18.6724   25.6882 O   0  0  0  0  0  0  0  0  0  0  0  0
    6.3866  -15.0275   25.9964 C   0  0  0  0  0  0  0  0  0  0  0  0
    5.8187  -13.7945   25.7542 C   0  0  0  0  0  0  0  0  0  0  0  0
   10.8913  -17.8023   27.7972 O   0  0  0  0  0  0  0  0  0  0  0  0
  2  1  1  6
  3  2  1  0
  4  2  1  0
  4  5  1  0
  5  6  1  6
  7  5  1  0
  7  8  2  0
  9 10  1  0
 10 11  1  0
 11 12  1  0
 13 12  1  1
 13 14  1  0
 14  7  1  0
 15 13  1  0
 16 15  2  0
 18 17  1  0
 19 18  2  0
 20 19  1  0
 21 27  1  0
 21 20  2  0
 22 21  1  0
 23 22  1  1
 23 24  1  0
 24 15  1  0
 25 23  1  0
 26 25  2  0
 27 28  2  0
 28 18  1  0
 29 25  1  0
M  END
$$$$
