LMY.pdb
     RDKit          3D

 29 29  0  0  1  0  0  0  0  0999 V2000
    8.1668  -15.8194   17.4150 C   0  0  0  0  0  0  0  0  0  0  0  0
    7.2548  -14.8913   18.1602 C   0  0  2  0  0  0  0  0  0  0  0  0
    6.8654  -13.7633   17.1944 C   0  0  0  0  0  0  0  0  0  0  0  0
    7.9189  -14.2190   19.3426 C   0  0  0  0  0  0  0  0  0  0  0  0
    8.3357  -15.2409   20.3638 C   0  0  2  0  0  0  0  0  0  0  0  0
    7.2745  -16.1740   20.5917 N   0  0  0  0  0  0  0  0  0  0  0  0
    8.8119  -14.6433   21.6221 C   0  0  0  0  0  0  0  0  0  0  0  0
    9.8395  -13.9017   21.5731 O   0  0  0  0  0  0  0  0  0  0  0  0
    7.4543  -12.0741   27.2390 C   0  0  0  0  0  0  0  0  0  0  0  0
    6.0487  -12.3027   26.0975 S   0  0  0  0  0  0  0  0  0  0  0  0
    6.4709  -13.4704   24.8013 C   0  0  0  0  0  0  0  0  0  0  0  0
    7.7166  -14.2211   25.1975 C   0  0  0  0  0  0  0  0  0  0  0  0
    8.6956  -14.1736   24.0352 C   0  0  2  0  0  0  0  0  0  0  0  0
    8.1938  -14.8473   22.8748 N   0  0  0  0  0  0  0  0  0  0  0  0
    9.9218  -14.8801   24.5185 C   0  0  0  0  0  0  0  0  0  0  0  0
   10.6506  -14.3148   25.3382 O   0  0  0  0  0  0  0  0  0  0  0  0
   11.3114  -14.6763   30.7254 O   0  0  0  0  0  0  0  0  0  0  0  0
   10.9354  -15.3884   29.5838 C   0  0  0  0  0  0  0  0  0  0  0  0
   11.2412  -16.7191   29.4151 C   0  0  0  0  0  0  0  0  0  0  0  0
   10.8681  -17.4172   28.2871 C   0  0  0  0  0  0  0  0  0  0  0  0
   10.1543  -16.8043   27.2485 C   0  0  0  0  0  0  0  0  0  0  0  0
    9.7836  -17.5508   26.0288 C   0  0  0  0  0  0  0  0  0  0  0  0
   10.7175  -17.2568   24.9222 C   0  0  2  0  0  0  0  0  0  0  0  0
   10.2718  -16.1658   24.0716 N   0  0  0  0  0  0  0  0  0  0  0  0
   11.0945  -18.4416   24.1193 C   0  0  0  0  0  0  0  0  0  0  0  0
   10.3120  -18.8606   23.1872 O   0  0  0  0  0  0  0  0  0  0  0  0
    9.8625  -15.4694   27.4467 C   0  0  0  0  0  0  0  0  0  0  0  0
   10.2329  -14.7654   28.5730 C   0  0  0  0  0  0  0  0  0  0  0  0
   12.2742  -19.1380   24.3223 O   0  0  0  0  0  0  0  0  0  0  0  0
  2  1  1  6
  3  2  1  0
  4  2  1  0
  4  5  1  0
  5  6  1  1
  7  5  1  0
  7  8  2  0
  9 10  1  0
 10 11  1  0
 11 12  1  0
 13 12  1  1
 13 14  1  0
 14  7  1  0
 15 13  1  0
 16 15  2  0
 18 17  1  0
 19 18  2  0
 20 19  1  0
 21 27  1  0
 21 20  2  0
 22 21  1  0
 23 22  1  1
 23 24  1  0
 24 15  1  0
 25 23  1  0
 26 25  2  0
 27 28  2  0
 28 18  1  0
 29 25  1  0
M  END
$$$$
