LMY.pdb
     RDKit          3D

 29 29  0  0  1  0  0  0  0  0999 V2000
    8.3771  -14.1676   18.1348 C   0  0  0  0  0  0  0  0  0  0  0  0
    7.4803  -13.5573   19.1701 C   0  0  2  0  0  0  0  0  0  0  0  0
    7.1937  -12.1146   18.7305 C   0  0  0  0  0  0  0  0  0  0  0  0
    8.1229  -13.4582   20.5370 C   0  0  0  0  0  0  0  0  0  0  0  0
    8.3792  -14.8291   21.0991 C   0  0  2  0  0  0  0  0  0  0  0  0
    7.2545  -15.6809   20.8579 N   0  0  0  0  0  0  0  0  0  0  0  0
    8.7511  -14.8122   22.5234 C   0  0  0  0  0  0  0  0  0  0  0  0
    9.8522  -14.2688   22.8409 O   0  0  0  0  0  0  0  0  0  0  0  0
    7.0634  -11.4103   27.1339 C   0  0  0  0  0  0  0  0  0  0  0  0
    6.5240  -13.1426   27.3324 S   0  0  0  0  0  0  0  0  0  0  0  0
    6.5476  -13.9965   25.7536 C   0  0  0  0  0  0  0  0  0  0  0  0
    7.2813  -15.3042   25.9088 C   0  0  0  0  0  0  0  0  0  0  0  0
    8.4236  -15.3354   24.9059 C   0  0  2  0  0  0  0  0  0  0  0  0
    7.9567  -15.3636   23.5519 N   0  0  0  0  0  0  0  0  0  0  0  0
    9.1701  -16.5992   25.1920 C   0  0  0  0  0  0  0  0  0  0  0  0
    9.3406  -17.4101   24.2777 O   0  0  0  0  0  0  0  0  0  0  0  0
   12.0504  -18.5288   20.4833 O   0  0  0  0  0  0  0  0  0  0  0  0
   12.0463  -18.2282   21.8477 C   0  0  0  0  0  0  0  0  0  0  0  0
   12.2196  -16.9467   22.3173 C   0  0  0  0  0  0  0  0  0  0  0  0
   12.2147  -16.6552   23.6641 C   0  0  0  0  0  0  0  0  0  0  0  0
   12.0322  -17.6544   24.6296 C   0  0  0  0  0  0  0  0  0  0  0  0
   12.0580  -17.3395   26.0727 C   0  0  0  0  0  0  0  0  0  0  0  0
   10.8098  -17.7744   26.7331 C   0  0  2  0  0  0  0  0  0  0  0  0
    9.6844  -16.8943   26.4663 N   0  0  0  0  0  0  0  0  0  0  0  0
   10.9531  -18.0353   28.1829 C   0  0  0  0  0  0  0  0  0  0  0  0
   10.4607  -17.2066   29.0359 O   0  0  0  0  0  0  0  0  0  0  0  0
   11.8611  -18.9293   24.1278 C   0  0  0  0  0  0  0  0  0  0  0  0
   11.8649  -19.2274   22.7815 C   0  0  0  0  0  0  0  0  0  0  0  0
   11.6030  -19.1521   28.6812 O   0  0  0  0  0  0  0  0  0  0  0  0
  2  1  1  6
  3  2  1  0
  4  2  1  0
  4  5  1  0
  5  6  1  1
  7  5  1  0
  7  8  2  0
  9 10  1  0
 10 11  1  0
 11 12  1  0
 13 12  1  1
 13 14  1  0
 14  7  1  0
 15 13  1  0
 16 15  2  0
 18 17  1  0
 19 18  2  0
 20 19  1  0
 21 27  1  0
 21 20  2  0
 22 21  1  0
 23 22  1  1
 23 24  1  0
 24 15  1  0
 25 23  1  0
 26 25  2  0
 27 28  2  0
 28 18  1  0
 29 25  1  0
M  END
$$$$
