LMY.pdb
     RDKit          3D

 29 29  0  0  1  0  0  0  0  0999 V2000
    8.0532  -15.0197   17.5111 C   0  0  0  0  0  0  0  0  0  0  0  0
    7.2063  -14.2468   18.4775 C   0  0  2  0  0  0  0  0  0  0  0  0
    6.8482  -12.9144   17.8042 C   0  0  0  0  0  0  0  0  0  0  0  0
    7.9316  -13.8875   19.7565 C   0  0  0  0  0  0  0  0  0  0  0  0
    8.2550  -15.1266   20.5445 C   0  0  2  0  0  0  0  0  0  0  0  0
    7.1253  -16.0052   20.5707 N   0  0  0  0  0  0  0  0  0  0  0  0
    8.7501  -14.8392   21.9008 C   0  0  0  0  0  0  0  0  0  0  0  0
    9.8606  -14.2365   22.0098 O   0  0  0  0  0  0  0  0  0  0  0  0
    6.1613  -10.9796   26.0211 C   0  0  0  0  0  0  0  0  0  0  0  0
    7.2700  -12.4132   26.2375 S   0  0  0  0  0  0  0  0  0  0  0  0
    6.6452  -13.8363   25.3394 C   0  0  0  0  0  0  0  0  0  0  0  0
    7.6176  -14.9791   25.4840 C   0  0  0  0  0  0  0  0  0  0  0  0
    8.6360  -14.8878   24.3588 C   0  0  2  0  0  0  0  0  0  0  0  0
    8.0633  -15.1944   23.0821 N   0  0  0  0  0  0  0  0  0  0  0  0
    9.6804  -15.9076   24.6837 C   0  0  0  0  0  0  0  0  0  0  0  0
    9.4165  -17.1023   24.5232 O   0  0  0  0  0  0  0  0  0  0  0  0
    9.8969  -14.8506   31.2010 O   0  0  0  0  0  0  0  0  0  0  0  0
   10.3510  -15.4885   30.0441 C   0  0  0  0  0  0  0  0  0  0  0  0
   10.0301  -16.7942   29.7520 C   0  0  0  0  0  0  0  0  0  0  0  0
   10.4805  -17.4191   28.6094 C   0  0  0  0  0  0  0  0  0  0  0  0
   11.2927  -16.7534   27.6815 C   0  0  0  0  0  0  0  0  0  0  0  0
   11.7965  -17.4386   26.4737 C   0  0  0  0  0  0  0  0  0  0  0  0
   12.0538  -16.4738   25.3846 C   0  0  2  0  0  0  0  0  0  0  0  0
   10.9522  -15.5516   25.1646 N   0  0  0  0  0  0  0  0  0  0  0  0
   12.4907  -17.0978   24.1157 C   0  0  0  0  0  0  0  0  0  0  0  0
   12.0008  -18.2326   23.7565 O   0  0  0  0  0  0  0  0  0  0  0  0
   11.5973  -15.4454   28.0021 C   0  0  0  0  0  0  0  0  0  0  0  0
   11.1498  -14.8145   29.1436 C   0  0  0  0  0  0  0  0  0  0  0  0
   13.4197  -16.5094   23.2738 O   0  0  0  0  0  0  0  0  0  0  0  0
  2  1  1  6
  3  2  1  0
  4  2  1  0
  4  5  1  0
  5  6  1  1
  7  5  1  0
  7  8  2  0
  9 10  1  0
 10 11  1  0
 11 12  1  0
 13 12  1  1
 13 14  1  0
 14  7  1  0
 15 13  1  0
 16 15  2  0
 18 17  1  0
 19 18  2  0
 20 19  1  0
 21 27  1  0
 21 20  2  0
 22 21  1  0
 23 22  1  1
 23 24  1  0
 24 15  1  0
 25 23  1  0
 26 25  2  0
 27 28  2  0
 28 18  1  0
 29 25  1  0
M  END
$$$$
