LMY.pdb
     RDKit          3D

 29 29  0  0  1  0  0  0  0  0999 V2000
    3.2366  -20.0235   22.5216 C   0  0  0  0  0  0  0  0  0  0  0  0
    3.5706  -18.6783   21.9493 C   0  0  2  0  0  0  0  0  0  0  0  0
    2.3158  -18.1664   21.2280 C   0  0  0  0  0  0  0  0  0  0  0  0
    4.6640  -18.7260   20.9038 C   0  0  0  0  0  0  0  0  0  0  0  0
    6.0054  -18.9260   21.5531 C   0  0  2  0  0  0  0  0  0  0  0  0
    5.9260  -18.6346   22.9523 N   0  0  0  0  0  0  0  0  0  0  0  0
    7.0848  -18.1663   20.9013 C   0  0  0  0  0  0  0  0  0  0  0  0
    7.0799  -18.0996   19.6348 O   0  0  0  0  0  0  0  0  0  0  0  0
    6.9638  -12.0761   21.6404 C   0  0  0  0  0  0  0  0  0  0  0  0
    7.4986  -12.6583   19.9953 S   0  0  0  0  0  0  0  0  0  0  0  0
    8.5749  -14.0864   20.1497 C   0  0  0  0  0  0  0  0  0  0  0  0
    7.8199  -15.2054   20.8208 C   0  0  0  0  0  0  0  0  0  0  0  0
    8.7701  -16.3763   21.0152 C   0  0  2  0  0  0  0  0  0  0  0  0
    8.1209  -17.5108   21.6013 N   0  0  0  0  0  0  0  0  0  0  0  0
    9.8265  -15.8805   21.9504 C   0  0  0  0  0  0  0  0  0  0  0  0
   10.1893  -14.7039   21.8690 O   0  0  0  0  0  0  0  0  0  0  0  0
   10.6276  -14.3890   30.3760 O   0  0  0  0  0  0  0  0  0  0  0  0
   10.3287  -14.7439   29.0582 C   0  0  0  0  0  0  0  0  0  0  0  0
   10.1346  -16.0513   28.6763 C   0  0  0  0  0  0  0  0  0  0  0  0
    9.8398  -16.3963   27.3752 C   0  0  0  0  0  0  0  0  0  0  0  0
    9.7223  -15.4281   26.3689 C   0  0  0  0  0  0  0  0  0  0  0  0
    9.4357  -15.8076   24.9702 C   0  0  0  0  0  0  0  0  0  0  0  0
   10.6420  -16.3468   24.3089 C   0  0  2  0  0  0  0  0  0  0  0  0
   10.4193  -16.7087   22.9190 N   0  0  0  0  0  0  0  0  0  0  0  0
   11.2958  -17.4482   25.0504 C   0  0  0  0  0  0  0  0  0  0  0  0
   12.3062  -17.2006   25.8083 O   0  0  0  0  0  0  0  0  0  0  0  0
    9.9225  -14.1262   26.7826 C   0  0  0  0  0  0  0  0  0  0  0  0
   10.2175  -13.7746   28.0829 C   0  0  0  0  0  0  0  0  0  0  0  0
   10.8655  -18.7622   24.9708 O   0  0  0  0  0  0  0  0  0  0  0  0
  2  1  1  6
  3  2  1  0
  4  2  1  0
  4  5  1  0
  5  6  1  1
  7  5  1  0
  7  8  2  0
  9 10  1  0
 10 11  1  0
 11 12  1  0
 13 12  1  1
 13 14  1  0
 14  7  1  0
 15 13  1  0
 16 15  2  0
 18 17  1  0
 19 18  2  0
 20 19  1  0
 21 27  1  0
 21 20  2  0
 22 21  1  0
 23 22  1  1
 23 24  1  0
 24 15  1  0
 25 23  1  0
 26 25  2  0
 27 28  2  0
 28 18  1  0
 29 25  1  0
M  END
$$$$
