LMY.pdb
     RDKit          3D

 29 29  0  0  1  0  0  0  0  0999 V2000
    7.7099  -18.9192   18.5730 C   0  0  0  0  0  0  0  0  0  0  0  0
    8.8500  -18.2933   17.8266 C   0  0  2  0  0  0  0  0  0  0  0  0
    9.8870  -19.3962   17.5716 C   0  0  0  0  0  0  0  0  0  0  0  0
    9.5669  -17.2198   18.6170 C   0  0  0  0  0  0  0  0  0  0  0  0
    8.5843  -16.2163   19.1541 C   0  0  2  0  0  0  0  0  0  0  0  0
    8.3769  -15.1683   18.2016 N   0  0  0  0  0  0  0  0  0  0  0  0
    8.9617  -15.6832   20.4734 C   0  0  0  0  0  0  0  0  0  0  0  0
   10.1189  -15.1796   20.5990 O   0  0  0  0  0  0  0  0  0  0  0  0
    6.4320  -12.0211   26.2678 C   0  0  0  0  0  0  0  0  0  0  0  0
    6.6169  -13.8336   26.1601 S   0  0  0  0  0  0  0  0  0  0  0  0
    7.9673  -14.2666   25.0596 C   0  0  0  0  0  0  0  0  0  0  0  0
    7.4020  -14.7560   23.7506 C   0  0  0  0  0  0  0  0  0  0  0  0
    8.5593  -15.1262   22.8367 C   0  0  2  0  0  0  0  0  0  0  0  0
    8.1139  -15.7003   21.6021 N   0  0  0  0  0  0  0  0  0  0  0  0
    9.3524  -16.1448   23.5915 C   0  0  0  0  0  0  0  0  0  0  0  0
    9.1397  -17.3417   23.3796 O   0  0  0  0  0  0  0  0  0  0  0  0
    9.8447  -14.7467   30.9399 O   0  0  0  0  0  0  0  0  0  0  0  0
   10.4546  -15.0391   29.7175 C   0  0  0  0  0  0  0  0  0  0  0  0
   10.4925  -14.1347   28.6814 C   0  0  0  0  0  0  0  0  0  0  0  0
   11.0955  -14.4277   27.4775 C   0  0  0  0  0  0  0  0  0  0  0  0
   11.7040  -15.6686   27.2454 C   0  0  0  0  0  0  0  0  0  0  0  0
   12.3223  -15.9870   25.9421 C   0  0  0  0  0  0  0  0  0  0  0  0
   11.3614  -16.6706   25.0518 C   0  0  2  0  0  0  0  0  0  0  0  0
   10.3320  -15.7853   24.5331 N   0  0  0  0  0  0  0  0  0  0  0  0
   10.7700  -17.8978   25.6302 C   0  0  0  0  0  0  0  0  0  0  0  0
    9.5052  -17.9529   25.8624 O   0  0  0  0  0  0  0  0  0  0  0  0
   11.6497  -16.5544   28.3031 C   0  0  0  0  0  0  0  0  0  0  0  0
   11.0481  -16.2672   29.5101 C   0  0  0  0  0  0  0  0  0  0  0  0
   11.5243  -19.0172   25.9399 O   0  0  0  0  0  0  0  0  0  0  0  0
  2  1  1  1
  3  2  1  0
  4  2  1  0
  4  5  1  0
  5  6  1  6
  7  5  1  0
  7  8  2  0
  9 10  1  0
 10 11  1  0
 11 12  1  0
 13 12  1  1
 13 14  1  0
 14  7  1  0
 15 13  1  0
 16 15  2  0
 18 17  1  0
 19 18  2  0
 20 19  1  0
 21 27  1  0
 21 20  2  0
 22 21  1  0
 23 22  1  1
 23 24  1  0
 24 15  1  0
 25 23  1  0
 26 25  2  0
 27 28  2  0
 28 18  1  0
 29 25  1  0
M  END
$$$$
