LMY.pdb
     RDKit          3D

 29 29  0  0  1  0  0  0  0  0999 V2000
    4.6119  -20.7260   22.8819 C   0  0  0  0  0  0  0  0  0  0  0  0
    6.0127  -20.8492   22.3610 C   0  0  2  0  0  0  0  0  0  0  0  0
    6.6109  -22.1287   22.9624 C   0  0  0  0  0  0  0  0  0  0  0  0
    6.9174  -19.7180   22.7999 C   0  0  0  0  0  0  0  0  0  0  0  0
    6.4520  -18.4137   22.2141 C   0  0  2  0  0  0  0  0  0  0  0  0
    6.4572  -18.4836   20.7845 N   0  0  0  0  0  0  0  0  0  0  0  0
    7.2142  -17.2530   22.7031 C   0  0  0  0  0  0  0  0  0  0  0  0
    8.3249  -16.9976   22.1466 O   0  0  0  0  0  0  0  0  0  0  0  0
    5.5425  -11.7277   26.2350 C   0  0  0  0  0  0  0  0  0  0  0  0
    7.1298  -12.3460   26.8903 S   0  0  0  0  0  0  0  0  0  0  0  0
    7.9301  -13.4214   25.6966 C   0  0  0  0  0  0  0  0  0  0  0  0
    6.9680  -14.5063   25.2842 C   0  0  0  0  0  0  0  0  0  0  0  0
    7.6377  -15.3630   24.2216 C   0  0  2  0  0  0  0  0  0  0  0  0
    6.7824  -16.4115   23.7512 N   0  0  0  0  0  0  0  0  0  0  0  0
    8.8299  -15.9682   24.8915 C   0  0  0  0  0  0  0  0  0  0  0  0
    8.6623  -16.6375   25.9145 O   0  0  0  0  0  0  0  0  0  0  0  0
    9.8313  -19.5029   30.2928 O   0  0  0  0  0  0  0  0  0  0  0  0
   10.1469  -19.1376   28.9818 C   0  0  0  0  0  0  0  0  0  0  0  0
   11.3175  -18.4891   28.6624 C   0  0  0  0  0  0  0  0  0  0  0  0
   11.6244  -18.1309   27.3677 C   0  0  0  0  0  0  0  0  0  0  0  0
   10.7554  -18.4101   26.3043 C   0  0  0  0  0  0  0  0  0  0  0  0
   11.0769  -17.9967   24.9231 C   0  0  0  0  0  0  0  0  0  0  0  0
   11.3032  -16.5386   24.8446 C   0  0  2  0  0  0  0  0  0  0  0  0
   10.1342  -15.8013   24.3951 N   0  0  0  0  0  0  0  0  0  0  0  0
   12.5069  -16.1550   24.0736 C   0  0  0  0  0  0  0  0  0  0  0  0
   12.3836  -15.6967   22.8772 O   0  0  0  0  0  0  0  0  0  0  0  0
    9.5897  -19.0612   26.6562 C   0  0  0  0  0  0  0  0  0  0  0  0
    9.2769  -19.4223   27.9497 C   0  0  0  0  0  0  0  0  0  0  0  0
   13.7891  -16.2640   24.5855 O   0  0  0  0  0  0  0  0  0  0  0  0
  2  1  1  1
  3  2  1  0
  4  2  1  0
  4  5  1  0
  5  6  1  6
  7  5  1  0
  7  8  2  0
  9 10  1  0
 10 11  1  0
 11 12  1  0
 13 12  1  1
 13 14  1  0
 14  7  1  0
 15 13  1  0
 16 15  2  0
 18 17  1  0
 19 18  2  0
 20 19  1  0
 21 27  1  0
 21 20  2  0
 22 21  1  0
 23 22  1  6
 23 24  1  0
 24 15  1  0
 25 23  1  0
 26 25  2  0
 27 28  2  0
 28 18  1  0
 29 25  1  0
M  END
$$$$
