LMY.pdb
     RDKit          3D

 29 29  0  0  1  0  0  0  0  0999 V2000
    8.5433  -14.2908   16.6397 C   0  0  0  0  0  0  0  0  0  0  0  0
    7.3553  -13.9699   17.4966 C   0  0  2  0  0  0  0  0  0  0  0  0
    6.7466  -12.6664   16.9608 C   0  0  0  0  0  0  0  0  0  0  0  0
    7.7138  -13.7008   18.9424 C   0  0  0  0  0  0  0  0  0  0  0  0
    8.2871  -14.9352   19.5814 C   0  0  2  0  0  0  0  0  0  0  0  0
    7.4064  -16.0468   19.3884 N   0  0  0  0  0  0  0  0  0  0  0  0
    8.6235  -14.7502   21.0027 C   0  0  0  0  0  0  0  0  0  0  0  0
    9.5061  -13.8874   21.2942 O   0  0  0  0  0  0  0  0  0  0  0  0
    6.9940  -11.5883   26.3002 C   0  0  0  0  0  0  0  0  0  0  0  0
    6.6082  -13.3589   26.5177 S   0  0  0  0  0  0  0  0  0  0  0  0
    7.7911  -14.3767   25.6306 C   0  0  0  0  0  0  0  0  0  0  0  0
    7.2840  -14.6205   24.2320 C   0  0  0  0  0  0  0  0  0  0  0  0
    8.4139  -15.2193   23.4096 C   0  0  2  0  0  0  0  0  0  0  0  0
    8.0233  -15.4747   22.0553 N   0  0  0  0  0  0  0  0  0  0  0  0
    8.7467  -16.5164   24.0753 C   0  0  0  0  0  0  0  0  0  0  0  0
    7.8274  -17.2168   24.5077 O   0  0  0  0  0  0  0  0  0  0  0  0
   10.6339  -15.0291   31.5643 O   0  0  0  0  0  0  0  0  0  0  0  0
   10.7330  -15.1451   30.1756 C   0  0  0  0  0  0  0  0  0  0  0  0
   11.1338  -16.3102   29.5633 C   0  0  0  0  0  0  0  0  0  0  0  0
   11.2300  -16.4197   28.1931 C   0  0  0  0  0  0  0  0  0  0  0  0
   10.9230  -15.3443   27.3484 C   0  0  0  0  0  0  0  0  0  0  0  0
   11.0571  -15.4594   25.8818 C   0  0  0  0  0  0  0  0  0  0  0  0
   10.8611  -16.8554   25.4389 C   0  0  2  0  0  0  0  0  0  0  0  0
   10.0703  -16.9649   24.2243 N   0  0  0  0  0  0  0  0  0  0  0  0
   10.3483  -17.7574   26.4943 C   0  0  0  0  0  0  0  0  0  0  0  0
    9.1276  -17.6544   26.8893 O   0  0  0  0  0  0  0  0  0  0  0  0
   10.5243  -14.1896   27.9919 C   0  0  0  0  0  0  0  0  0  0  0  0
   10.4260  -14.0738   29.3624 C   0  0  0  0  0  0  0  0  0  0  0  0
   11.1316  -18.7308   27.0917 O   0  0  0  0  0  0  0  0  0  0  0  0
  2  1  1  6
  3  2  1  0
  4  2  1  0
  4  5  1  0
  5  6  1  1
  7  5  1  0
  7  8  2  0
  9 10  1  0
 10 11  1  0
 11 12  1  0
 13 12  1  1
 13 14  1  0
 14  7  1  0
 15 13  1  0
 16 15  2  0
 18 17  1  0
 19 18  2  0
 20 19  1  0
 21 27  1  0
 21 20  2  0
 22 21  1  0
 23 22  1  1
 23 24  1  0
 24 15  1  0
 25 23  1  0
 26 25  2  0
 27 28  2  0
 28 18  1  0
 29 25  1  0
M  END
$$$$
