VTE.pdb
     RDKit          3D

 24 23  0  0  1  0  0  0  0  0999 V2000
    9.9962  -20.1782   18.1590 C   0  0  0  0  0  0  0  0  0  0  0  0
   10.1718  -19.2071   19.3077 C   0  0  2  0  0  0  0  0  0  0  0  0
    9.2897  -19.6912   20.4383 C   0  0  0  0  0  0  0  0  0  0  0  0
    9.7164  -17.8217   18.8323 C   0  0  2  0  0  0  0  0  0  0  0  0
   10.4749  -17.4244   17.6875 N   0  0  0  0  0  0  0  0  0  0  0  0
    9.7897  -16.8395   19.9435 C   0  0  0  0  0  0  0  0  0  0  0  0
   10.8988  -16.3371   20.2597 O   0  0  0  0  0  0  0  0  0  0  0  0
    7.6801  -13.5972   20.3054 C   0  0  0  0  0  0  0  0  0  0  0  0
    7.5925  -14.4053   21.5795 C   0  0  1  0  0  0  0  0  0  0  0  0
    6.3888  -15.0962   21.5453 O   0  0  0  0  0  0  0  0  0  0  0  0
    8.6968  -15.4013   21.7149 C   0  0  2  0  0  0  0  0  0  0  0  0
    8.6765  -16.4183   20.6893 N   0  0  0  0  0  0  0  0  0  0  0  0
    8.6379  -16.0726   23.0221 C   0  0  0  0  0  0  0  0  0  0  0  0
    8.1006  -17.2390   23.1117 O   0  0  0  0  0  0  0  0  0  0  0  0
    9.1252  -15.5635   24.2429 N   0  0  0  0  0  0  0  0  0  0  0  0
    9.6175  -16.4087   25.3423 C   0  0  1  0  0  0  0  0  0  0  0  0
   10.8083  -17.1759   24.8246 C   0  0  0  0  0  0  0  0  0  0  0  0
   11.4843  -18.0180   25.8775 C   0  0  0  0  0  0  0  0  0  0  0  0
   12.6722  -18.7090   25.2820 C   0  0  0  0  0  0  0  0  0  0  0  0
   13.7392  -18.0995   25.0223 O   0  0  0  0  0  0  0  0  0  0  0  0
    9.8857  -15.6212   26.5401 C   0  0  0  0  0  0  0  0  0  0  0  0
    9.9530  -16.1426   27.6713 O   0  0  0  0  0  0  0  0  0  0  0  0
   12.6197  -20.0598   24.9994 O   0  0  0  0  0  0  0  0  0  0  0  0
   10.0737  -14.2532   26.4386 O   0  0  0  0  0  0  0  0  0  0  0  0
  2  1  1  6
  2  3  1  0
  4  2  1  0
  4  6  1  0
  4  5  1  6
  6 12  1  0
  7  6  2  0
  9 11  1  0
  9  8  1  6
 10  9  1  0
 11 12  1  6
 13 14  2  0
 13 11  1  0
 15 13  1  0
 16 15  1  0
 16 21  1  0
 16 17  1  6
 18 17  1  0
 19 18  1  0
 20 19  2  0
 21 24  1  0
 22 21  2  0
 23 19  1  0
M  END
$$$$
