VTE.pdb
     RDKit          3D

 24 23  0  0  1  0  0  0  0  0999 V2000
    6.9984  -11.6371   24.6855 C   0  0  0  0  0  0  0  0  0  0  0  0
    6.1150  -12.3685   25.6745 C   0  0  2  0  0  0  0  0  0  0  0  0
    5.7942  -11.3955   26.7885 C   0  0  0  0  0  0  0  0  0  0  0  0
    6.9039  -13.5644   26.2223 C   0  0  2  0  0  0  0  0  0  0  0  0
    8.1263  -13.1146   26.8116 N   0  0  0  0  0  0  0  0  0  0  0  0
    7.1140  -14.5805   25.1602 C   0  0  0  0  0  0  0  0  0  0  0  0
    6.1446  -15.2768   24.7626 O   0  0  0  0  0  0  0  0  0  0  0  0
    6.8188  -14.9685   22.0181 C   0  0  0  0  0  0  0  0  0  0  0  0
    8.2624  -15.3914   22.1629 C   0  0  1  0  0  0  0  0  0  0  0  0
    9.0462  -14.2864   21.8598 O   0  0  0  0  0  0  0  0  0  0  0  0
    8.6030  -15.8377   23.5467 C   0  0  2  0  0  0  0  0  0  0  0  0
    8.3543  -14.8277   24.5491 N   0  0  0  0  0  0  0  0  0  0  0  0
   10.0179  -16.2288   23.6365 C   0  0  0  0  0  0  0  0  0  0  0  0
   10.8707  -15.4090   24.1446 O   0  0  0  0  0  0  0  0  0  0  0  0
   10.5724  -17.4534   23.2126 N   0  0  0  0  0  0  0  0  0  0  0  0
   11.7985  -18.0355   23.7810 C   0  0  1  0  0  0  0  0  0  0  0  0
   11.5736  -18.2059   25.2625 C   0  0  0  0  0  0  0  0  0  0  0  0
   11.8377  -19.6074   25.7530 C   0  0  0  0  0  0  0  0  0  0  0  0
   11.6507  -19.6638   27.2380 C   0  0  0  0  0  0  0  0  0  0  0  0
   10.5136  -19.7386   27.7660 O   0  0  0  0  0  0  0  0  0  0  0  0
   12.1776  -19.2607   23.0868 C   0  0  0  0  0  0  0  0  0  0  0  0
   11.3456  -20.1489   22.8135 O   0  0  0  0  0  0  0  0  0  0  0  0
   12.7472  -19.6342   28.0770 O   0  0  0  0  0  0  0  0  0  0  0  0
   13.4953  -19.4617   22.7121 O   0  0  0  0  0  0  0  0  0  0  0  0
  2  1  1  6
  2  3  1  0
  4  2  1  0
  4  6  1  0
  4  5  1  6
  6 12  1  0
  7  6  2  0
  9 11  1  0
  9  8  1  1
 10  9  1  0
 11 12  1  1
 13 14  2  0
 13 11  1  0
 15 13  1  0
 16 15  1  0
 16 21  1  0
 16 17  1  1
 18 17  1  0
 19 18  1  0
 20 19  2  0
 21 24  1  0
 22 21  2  0
 23 19  1  0
M  END
$$$$
