VTE.pdb
     RDKit          3D

 24 23  0  0  1  0  0  0  0  0999 V2000
    7.9939  -12.6237   27.1226 C   0  0  0  0  0  0  0  0  0  0  0  0
    7.4006  -11.9723   25.8909 C   0  0  2  0  0  0  0  0  0  0  0  0
    6.8059  -10.6514   26.3290 C   0  0  0  0  0  0  0  0  0  0  0  0
    6.3037  -12.8961   25.3467 C   0  0  2  0  0  0  0  0  0  0  0  0
    5.2968  -13.0975   26.3413 N   0  0  0  0  0  0  0  0  0  0  0  0
    6.8908  -14.1674   24.8529 C   0  0  0  0  0  0  0  0  0  0  0  0
    6.9047  -15.1796   25.5998 O   0  0  0  0  0  0  0  0  0  0  0  0
    7.1711  -14.9474   20.7844 C   0  0  0  0  0  0  0  0  0  0  0  0
    8.3220  -15.4913   21.5990 C   0  0  1  0  0  0  0  0  0  0  0  0
    9.3995  -14.6369   21.4086 O   0  0  0  0  0  0  0  0  0  0  0  0
    8.0256  -15.5473   23.0615 C   0  0  2  0  0  0  0  0  0  0  0  0
    7.4487  -14.3260   23.5736 N   0  0  0  0  0  0  0  0  0  0  0  0
    9.2459  -15.8316   23.8317 C   0  0  0  0  0  0  0  0  0  0  0  0
    9.9119  -14.8572   24.3459 O   0  0  0  0  0  0  0  0  0  0  0  0
    9.7940  -17.1055   24.0841 N   0  0  0  0  0  0  0  0  0  0  0  0
   11.0018  -17.3294   24.8943 C   0  0  1  0  0  0  0  0  0  0  0  0
   10.6509  -18.3363   25.9607 C   0  0  0  0  0  0  0  0  0  0  0  0
   11.7938  -18.6447   26.8952 C   0  0  0  0  0  0  0  0  0  0  0  0
   11.3204  -19.5574   27.9843 C   0  0  0  0  0  0  0  0  0  0  0  0
   11.3657  -19.2314   29.1963 O   0  0  0  0  0  0  0  0  0  0  0  0
   12.1383  -17.7077   24.0624 C   0  0  0  0  0  0  0  0  0  0  0  0
   11.9894  -18.2128   22.9316 O   0  0  0  0  0  0  0  0  0  0  0  0
   10.8129  -20.8036   27.6735 O   0  0  0  0  0  0  0  0  0  0  0  0
   13.4282  -17.5080   24.5245 O   0  0  0  0  0  0  0  0  0  0  0  0
  2  1  1  1
  2  3  1  0
  4  2  1  0
  4  6  1  0
  4  5  1  1
  6 12  1  0
  7  6  2  0
  9 11  1  0
  9  8  1  6
 10  9  1  0
 11 12  1  1
 13 14  2  0
 13 11  1  0
 15 13  1  0
 16 15  1  0
 16 21  1  0
 16 17  1  1
 18 17  1  0
 19 18  1  0
 20 19  2  0
 21 24  1  0
 22 21  2  0
 23 19  1  0
M  END
$$$$
