VTE.pdb
     RDKit          3D

 24 23  0  0  1  0  0  0  0  0999 V2000
    7.3241  -13.4858   21.4843 C   0  0  0  0  0  0  0  0  0  0  0  0
    8.1096  -13.3339   20.1985 C   0  0  2  0  0  0  0  0  0  0  0  0
    7.4614  -12.2160   19.4106 C   0  0  0  0  0  0  0  0  0  0  0  0
    8.0148  -14.6552   19.4251 C   0  0  2  0  0  0  0  0  0  0  0  0
    6.6579  -14.9062   19.0514 N   0  0  0  0  0  0  0  0  0  0  0  0
    8.6120  -15.7635   20.2123 C   0  0  0  0  0  0  0  0  0  0  0  0
    7.8810  -16.4601   20.9627 O   0  0  0  0  0  0  0  0  0  0  0  0
   12.1452  -17.8170   19.0570 C   0  0  0  0  0  0  0  0  0  0  0  0
   11.0881  -18.2821   20.0319 C   0  0  1  0  0  0  0  0  0  0  0  0
   11.6710  -19.2503   20.8382 O   0  0  0  0  0  0  0  0  0  0  0  0
   10.5839  -17.1859   20.9117 C   0  0  2  0  0  0  0  0  0  0  0  0
    9.9752  -16.1004   20.1784 N   0  0  0  0  0  0  0  0  0  0  0  0
   11.6727  -16.6286   21.7285 C   0  0  0  0  0  0  0  0  0  0  0  0
   12.3361  -15.6149   21.2932 O   0  0  0  0  0  0  0  0  0  0  0  0
   12.0913  -17.0969   22.9904 N   0  0  0  0  0  0  0  0  0  0  0  0
   13.1676  -16.4743   23.7771 C   0  0  1  0  0  0  0  0  0  0  0  0
   12.8449  -16.6889   25.2346 C   0  0  0  0  0  0  0  0  0  0  0  0
   12.4029  -18.0957   25.5512 C   0  0  0  0  0  0  0  0  0  0  0  0
   12.2248  -18.2456   27.0307 C   0  0  0  0  0  0  0  0  0  0  0  0
   12.7845  -17.4781   27.8523 O   0  0  0  0  0  0  0  0  0  0  0  0
   14.4779  -16.9709   23.3732 C   0  0  0  0  0  0  0  0  0  0  0  0
   15.5342  -16.4087   23.7256 O   0  0  0  0  0  0  0  0  0  0  0  0
   11.4246  -19.2519   27.5349 O   0  0  0  0  0  0  0  0  0  0  0  0
   14.5724  -18.0984   22.5750 O   0  0  0  0  0  0  0  0  0  0  0  0
  2  1  1  1
  2  3  1  0
  4  2  1  0
  4  6  1  0
  4  5  1  1
  6 12  1  0
  7  6  2  0
  9 11  1  0
  9  8  1  6
 10  9  1  0
 11 12  1  6
 13 14  2  0
 13 11  1  0
 15 13  1  0
 16 15  1  0
 16 21  1  0
 16 17  1  1
 18 17  1  0
 19 18  1  0
 20 19  2  0
 21 24  1  0
 22 21  2  0
 23 19  1  0
M  END
$$$$
