VTE.pdb
     RDKit          3D

 24 23  0  0  1  0  0  0  0  0999 V2000
    8.1012  -12.2347   20.4144 C   0  0  0  0  0  0  0  0  0  0  0  0
    8.6923  -12.9782   19.2349 C   0  0  2  0  0  0  0  0  0  0  0  0
    7.6727  -14.0099   18.8030 C   0  0  0  0  0  0  0  0  0  0  0  0
    9.9805  -13.6660   19.7041 C   0  0  2  0  0  0  0  0  0  0  0  0
   10.6730  -14.2224   18.5840 N   0  0  0  0  0  0  0  0  0  0  0  0
    9.6813  -14.6706   20.7557 C   0  0  0  0  0  0  0  0  0  0  0  0
    8.9950  -14.3402   21.7569 O   0  0  0  0  0  0  0  0  0  0  0  0
    9.7716  -19.4609   22.2459 C   0  0  0  0  0  0  0  0  0  0  0  0
   10.1314  -18.4017   21.2298 C   0  0  1  0  0  0  0  0  0  0  0  0
    9.3897  -18.6618   20.0855 O   0  0  0  0  0  0  0  0  0  0  0  0
    9.8069  -17.0185   21.6899 C   0  0  2  0  0  0  0  0  0  0  0  0
   10.1227  -16.0034   20.7119 N   0  0  0  0  0  0  0  0  0  0  0  0
   10.5304  -16.6967   22.9292 C   0  0  0  0  0  0  0  0  0  0  0  0
   11.7150  -16.1974   22.8598 O   0  0  0  0  0  0  0  0  0  0  0  0
   10.0541  -16.8788   24.2433 N   0  0  0  0  0  0  0  0  0  0  0  0
   10.8430  -16.5751   25.4478 C   0  0  1  0  0  0  0  0  0  0  0  0
   10.0703  -15.5583   26.2501 C   0  0  0  0  0  0  0  0  0  0  0  0
   10.6640  -15.2893   27.6102 C   0  0  0  0  0  0  0  0  0  0  0  0
    9.7415  -14.4091   28.3960 C   0  0  0  0  0  0  0  0  0  0  0  0
    8.6038  -14.0866   27.9729 O   0  0  0  0  0  0  0  0  0  0  0  0
   11.1809  -17.7884   26.1829 C   0  0  0  0  0  0  0  0  0  0  0  0
   10.4314  -18.7855   26.1910 O   0  0  0  0  0  0  0  0  0  0  0  0
   10.1295  -13.9224   29.6288 O   0  0  0  0  0  0  0  0  0  0  0  0
   12.3643  -17.8543   26.8988 O   0  0  0  0  0  0  0  0  0  0  0  0
  2  1  1  1
  2  3  1  0
  4  2  1  0
  4  6  1  0
  4  5  1  6
  6 12  1  0
  7  6  2  0
  9 11  1  0
  9  8  1  1
 10  9  1  0
 11 12  1  6
 13 14  2  0
 13 11  1  0
 15 13  1  0
 16 15  1  0
 16 21  1  0
 16 17  1  1
 18 17  1  0
 19 18  1  0
 20 19  2  0
 21 24  1  0
 22 21  2  0
 23 19  1  0
M  END
$$$$
