VTE.pdb
     RDKit          3D

 24 23  0  0  1  0  0  0  0  0999 V2000
    8.7932  -14.4601   17.3696 C   0  0  0  0  0  0  0  0  0  0  0  0
    9.2673  -14.4363   18.8077 C   0  0  2  0  0  0  0  0  0  0  0  0
    9.6675  -15.8508   19.1677 C   0  0  0  0  0  0  0  0  0  0  0  0
    8.0979  -13.9736   19.6858 C   0  0  2  0  0  0  0  0  0  0  0  0
    7.5828  -12.7321   19.1989 N   0  0  0  0  0  0  0  0  0  0  0  0
    8.5101  -13.9091   21.1108 C   0  0  0  0  0  0  0  0  0  0  0  0
    8.6386  -12.7911   21.6730 O   0  0  0  0  0  0  0  0  0  0  0  0
    7.2348  -13.2154   23.6565 C   0  0  0  0  0  0  0  0  0  0  0  0
    7.6898  -14.6001   24.0560 C   0  0  1  0  0  0  0  0  0  0  0  0
    6.6649  -15.4784   23.7316 O   0  0  0  0  0  0  0  0  0  0  0  0
    8.9230  -15.0384   23.3369 C   0  0  2  0  0  0  0  0  0  0  0  0
    8.7748  -15.0405   21.8999 N   0  0  0  0  0  0  0  0  0  0  0  0
    9.3190  -16.3915   23.7552 C   0  0  0  0  0  0  0  0  0  0  0  0
    8.7266  -17.4123   23.2412 O   0  0  0  0  0  0  0  0  0  0  0  0
   10.3185  -16.7140   24.6954 N   0  0  0  0  0  0  0  0  0  0  0  0
   10.6742  -18.0918   25.0698 C   0  0  1  0  0  0  0  0  0  0  0  0
   12.1062  -18.0767   25.5428 C   0  0  0  0  0  0  0  0  0  0  0  0
   12.5641  -19.3952   26.1143 C   0  0  0  0  0  0  0  0  0  0  0  0
   13.9692  -19.2646   26.6162 C   0  0  0  0  0  0  0  0  0  0  0  0
   14.2751  -18.4835   27.5508 O   0  0  0  0  0  0  0  0  0  0  0  0
    9.7293  -18.6421   26.0347 C   0  0  0  0  0  0  0  0  0  0  0  0
    9.0040  -17.9113   26.7388 O   0  0  0  0  0  0  0  0  0  0  0  0
   14.9806  -20.0159   26.0506 O   0  0  0  0  0  0  0  0  0  0  0  0
    9.6200  -20.0140   26.1879 O   0  0  0  0  0  0  0  0  0  0  0  0
  2  1  1  6
  2  3  1  0
  4  2  1  0
  4  6  1  0
  4  5  1  6
  6 12  1  0
  7  6  2  0
  9 11  1  0
  9  8  1  6
 10  9  1  0
 11 12  1  6
 13 14  2  0
 13 11  1  0
 15 13  1  0
 16 15  1  0
 16 21  1  0
 16 17  1  1
 18 17  1  0
 19 18  1  0
 20 19  2  0
 21 24  1  0
 22 21  2  0
 23 19  1  0
M  END
$$$$
