VTE.pdb
     RDKit          3D

 24 23  0  0  1  0  0  0  0  0999 V2000
    7.4048  -19.2716   19.3670 C   0  0  0  0  0  0  0  0  0  0  0  0
    8.3117  -19.4252   18.1639 C   0  0  2  0  0  0  0  0  0  0  0  0
    9.6888  -19.7735   18.6865 C   0  0  0  0  0  0  0  0  0  0  0  0
    8.3473  -18.0835   17.4214 C   0  0  2  0  0  0  0  0  0  0  0  0
    9.1444  -18.1998   16.2404 N   0  0  0  0  0  0  0  0  0  0  0  0
    8.8085  -16.9998   18.3256 C   0  0  0  0  0  0  0  0  0  0  0  0
   10.0376  -16.8583   18.5533 O   0  0  0  0  0  0  0  0  0  0  0  0
    7.8001  -12.7783   20.8111 C   0  0  0  0  0  0  0  0  0  0  0  0
    7.3918  -13.8768   19.8568 C   0  0  1  0  0  0  0  0  0  0  0  0
    7.3381  -13.3182   18.5870 O   0  0  0  0  0  0  0  0  0  0  0  0
    8.3619  -15.0116   19.8251 C   0  0  2  0  0  0  0  0  0  0  0  0
    7.9454  -16.0941   18.9640 N   0  0  0  0  0  0  0  0  0  0  0  0
    8.5710  -15.5584   21.1743 C   0  0  0  0  0  0  0  0  0  0  0  0
    7.7790  -16.4715   21.6174 O   0  0  0  0  0  0  0  0  0  0  0  0
    9.5851  -15.1820   22.0780 N   0  0  0  0  0  0  0  0  0  0  0  0
    9.9616  -15.9738   23.2598 C   0  0  1  0  0  0  0  0  0  0  0  0
   10.3006  -17.3640   22.7835 C   0  0  0  0  0  0  0  0  0  0  0  0
   10.7667  -18.2801   23.8872 C   0  0  0  0  0  0  0  0  0  0  0  0
   11.0851  -19.6292   23.3197 C   0  0  0  0  0  0  0  0  0  0  0  0
   10.2657  -20.2675   22.6137 O   0  0  0  0  0  0  0  0  0  0  0  0
   11.0234  -15.3242   24.0196 C   0  0  0  0  0  0  0  0  0  0  0  0
   11.2793  -15.6400   25.1989 O   0  0  0  0  0  0  0  0  0  0  0  0
   12.3122  -20.2132   23.5653 O   0  0  0  0  0  0  0  0  0  0  0  0
   11.7806  -14.3252   23.4314 O   0  0  0  0  0  0  0  0  0  0  0  0
  2  1  1  1
  2  3  1  0
  4  2  1  0
  4  6  1  0
  4  5  1  6
  6 12  1  0
  7  6  2  0
  9 11  1  0
  9  8  1  1
 10  9  1  0
 11 12  1  6
 13 14  2  0
 13 11  1  0
 15 13  1  0
 16 15  1  0
 16 21  1  0
 16 17  1  6
 18 17  1  0
 19 18  1  0
 20 19  2  0
 21 24  1  0
 22 21  2  0
 23 19  1  0
M  END
$$$$
