VTE.pdb
     RDKit          3D

 24 23  0  0  1  0  0  0  0  0999 V2000
   10.1089  -18.4706   16.8033 C   0  0  0  0  0  0  0  0  0  0  0  0
    8.6201  -18.4260   17.0769 C   0  0  2  0  0  0  0  0  0  0  0  0
    7.9537  -19.3270   16.0597 C   0  0  0  0  0  0  0  0  0  0  0  0
    8.1472  -16.9780   16.8968 C   0  0  2  0  0  0  0  0  0  0  0  0
    8.3996  -16.5446   15.5581 N   0  0  0  0  0  0  0  0  0  0  0  0
    8.7691  -16.0962   17.9167 C   0  0  0  0  0  0  0  0  0  0  0  0
    9.8041  -15.4419   17.6280 O   0  0  0  0  0  0  0  0  0  0  0  0
    7.3226  -13.1132   19.8226 C   0  0  0  0  0  0  0  0  0  0  0  0
    7.8408  -14.1245   20.8190 C   0  0  1  0  0  0  0  0  0  0  0  0
    6.7509  -14.8640   21.2577 O   0  0  0  0  0  0  0  0  0  0  0  0
    8.8356  -15.0682   20.2276 C   0  0  2  0  0  0  0  0  0  0  0  0
    8.2702  -15.9351   19.2198 N   0  0  0  0  0  0  0  0  0  0  0  0
    9.4372  -15.9141   21.2694 C   0  0  0  0  0  0  0  0  0  0  0  0
    9.0047  -17.1149   21.4384 O   0  0  0  0  0  0  0  0  0  0  0  0
   10.4805  -15.5454   22.1426 N   0  0  0  0  0  0  0  0  0  0  0  0
   10.9703  -16.3987   23.2368 C   0  0  1  0  0  0  0  0  0  0  0  0
   12.4503  -16.1462   23.3795 C   0  0  0  0  0  0  0  0  0  0  0  0
   13.2448  -16.5218   22.1539 C   0  0  0  0  0  0  0  0  0  0  0  0
   14.6849  -16.1654   22.3597 C   0  0  0  0  0  0  0  0  0  0  0  0
   15.1131  -14.9955   22.2005 O   0  0  0  0  0  0  0  0  0  0  0  0
   10.2048  -16.1876   24.4600 C   0  0  0  0  0  0  0  0  0  0  0  0
   10.3045  -16.9514   25.4411 O   0  0  0  0  0  0  0  0  0  0  0  0
   15.5927  -17.1353   22.7370 O   0  0  0  0  0  0  0  0  0  0  0  0
    9.3366  -15.1130   24.5537 O   0  0  0  0  0  0  0  0  0  0  0  0
  2  1  1  6
  2  3  1  0
  4  2  1  0
  4  6  1  0
  4  5  1  6
  6 12  1  0
  7  6  2  0
  9 11  1  0
  9  8  1  6
 10  9  1  0
 11 12  1  6
 13 14  2  0
 13 11  1  0
 15 13  1  0
 16 15  1  0
 16 21  1  0
 16 17  1  1
 18 17  1  0
 19 18  1  0
 20 19  2  0
 21 24  1  0
 22 21  2  0
 23 19  1  0
M  END
$$$$
