VTE.pdb
     RDKit          3D

 24 23  0  0  1  0  0  0  0  0999 V2000
    7.8645  -13.5172   20.6203 C   0  0  0  0  0  0  0  0  0  0  0  0
    8.8009  -12.8083   19.6643 C   0  0  2  0  0  0  0  0  0  0  0  0
    8.0592  -11.6036   19.1265 C   0  0  0  0  0  0  0  0  0  0  0  0
    9.1398  -13.7776   18.5249 C   0  0  2  0  0  0  0  0  0  0  0  0
    7.9402  -14.2108   17.8790 N   0  0  0  0  0  0  0  0  0  0  0  0
    9.9648  -14.9049   19.0280 C   0  0  0  0  0  0  0  0  0  0  0  0
    9.4149  -15.9973   19.3229 O   0  0  0  0  0  0  0  0  0  0  0  0
   12.1554  -17.0811   17.4101 C   0  0  0  0  0  0  0  0  0  0  0  0
   13.0052  -16.5251   18.5293 C   0  0  1  0  0  0  0  0  0  0  0  0
   13.7958  -15.5221   17.9850 O   0  0  0  0  0  0  0  0  0  0  0  0
   12.1963  -15.9310   19.6352 C   0  0  2  0  0  0  0  0  0  0  0  0
   11.3567  -14.8375   19.2037 N   0  0  0  0  0  0  0  0  0  0  0  0
   13.0669  -15.4380   20.7131 C   0  0  0  0  0  0  0  0  0  0  0  0
   13.5930  -14.2670   20.6169 O   0  0  0  0  0  0  0  0  0  0  0  0
   13.4057  -16.1306   21.8931 N   0  0  0  0  0  0  0  0  0  0  0  0
   14.2010  -15.5456   22.9841 C   0  0  1  0  0  0  0  0  0  0  0  0
   13.7571  -16.1997   24.2685 C   0  0  0  0  0  0  0  0  0  0  0  0
   14.1132  -17.6629   24.3519 C   0  0  0  0  0  0  0  0  0  0  0  0
   13.7024  -18.2049   25.6863 C   0  0  0  0  0  0  0  0  0  0  0  0
   13.2024  -17.4759   26.5785 O   0  0  0  0  0  0  0  0  0  0  0  0
   15.6308  -15.6545   22.7183 C   0  0  0  0  0  0  0  0  0  0  0  0
   16.0845  -16.4346   21.8572 O   0  0  0  0  0  0  0  0  0  0  0  0
   13.8678  -19.5460   25.9714 O   0  0  0  0  0  0  0  0  0  0  0  0
   16.5265  -14.8769   23.4328 O   0  0  0  0  0  0  0  0  0  0  0  0
  2  1  1  1
  2  3  1  0
  4  2  1  0
  4  6  1  0
  4  5  1  1
  6 12  1  0
  7  6  2  0
  9 11  1  0
  9  8  1  6
 10  9  1  0
 11 12  1  6
 13 14  2  0
 13 11  1  0
 15 13  1  0
 16 15  1  0
 16 21  1  0
 16 17  1  1
 18 17  1  0
 19 18  1  0
 20 19  2  0
 21 24  1  0
 22 21  2  0
 23 19  1  0
M  END
$$$$
