VTE.pdb
     RDKit          3D

 24 23  0  0  1  0  0  0  0  0999 V2000
   10.0841  -19.0352   17.9578 C   0  0  0  0  0  0  0  0  0  0  0  0
    8.5786  -18.8714   17.9496 C   0  0  2  0  0  0  0  0  0  0  0  0
    8.0427  -19.7400   16.8320 C   0  0  0  0  0  0  0  0  0  0  0  0
    8.2628  -17.3956   17.6756 C   0  0  2  0  0  0  0  0  0  0  0  0
    8.5721  -17.0739   16.3175 N   0  0  0  0  0  0  0  0  0  0  0  0
    8.9647  -16.5230   18.6506 C   0  0  0  0  0  0  0  0  0  0  0  0
    9.9972  -15.8973   18.2972 O   0  0  0  0  0  0  0  0  0  0  0  0
    7.4325  -13.5758   20.5468 C   0  0  0  0  0  0  0  0  0  0  0  0
    8.0997  -14.5001   21.5391 C   0  0  1  0  0  0  0  0  0  0  0  0
    7.1054  -15.2968   22.0906 O   0  0  0  0  0  0  0  0  0  0  0  0
    9.1166  -15.3945   20.9099 C   0  0  2  0  0  0  0  0  0  0  0  0
    8.5462  -16.3403   19.9789 N   0  0  0  0  0  0  0  0  0  0  0  0
    9.8521  -16.1516   21.9340 C   0  0  0  0  0  0  0  0  0  0  0  0
    9.4925  -17.3561   22.2115 O   0  0  0  0  0  0  0  0  0  0  0  0
   10.9559  -15.6899   22.6792 N   0  0  0  0  0  0  0  0  0  0  0  0
   11.6347  -16.4870   23.7131 C   0  0  1  0  0  0  0  0  0  0  0  0
   13.0737  -16.0378   23.7585 C   0  0  0  0  0  0  0  0  0  0  0  0
   13.8018  -16.2211   22.4505 C   0  0  0  0  0  0  0  0  0  0  0  0
   15.2096  -15.7278   22.5855 C   0  0  0  0  0  0  0  0  0  0  0  0
   15.6200  -15.1545   23.6248 O   0  0  0  0  0  0  0  0  0  0  0  0
   10.9392  -16.4029   24.9922 C   0  0  0  0  0  0  0  0  0  0  0  0
   10.0823  -15.5259   25.2212 O   0  0  0  0  0  0  0  0  0  0  0  0
   16.1062  -15.8960   21.5487 O   0  0  0  0  0  0  0  0  0  0  0  0
   11.2252  -17.3148   25.9942 O   0  0  0  0  0  0  0  0  0  0  0  0
  2  1  1  6
  2  3  1  0
  4  2  1  0
  4  6  1  0
  4  5  1  6
  6 12  1  0
  7  6  2  0
  9 11  1  0
  9  8  1  6
 10  9  1  0
 11 12  1  6
 13 14  2  0
 13 11  1  0
 15 13  1  0
 16 15  1  0
 16 21  1  0
 16 17  1  1
 18 17  1  0
 19 18  1  0
 20 19  2  0
 21 24  1  0
 22 21  2  0
 23 19  1  0
M  END
$$$$
