VTE.pdb
     RDKit          3D

 24 23  0  0  1  0  0  0  0  0999 V2000
    8.0530  -12.3416   26.7142 C   0  0  0  0  0  0  0  0  0  0  0  0
    6.9980  -12.0745   25.6611 C   0  0  2  0  0  0  0  0  0  0  0  0
    6.0994  -10.9817   26.1988 C   0  0  0  0  0  0  0  0  0  0  0  0
    6.1984  -13.3666   25.4513 C   0  0  2  0  0  0  0  0  0  0  0  0
    5.6223  -13.7909   26.6890 N   0  0  0  0  0  0  0  0  0  0  0  0
    7.0484  -14.4089   24.8221 C   0  0  0  0  0  0  0  0  0  0  0  0
    7.5466  -15.3199   25.5322 O   0  0  0  0  0  0  0  0  0  0  0  0
    8.8731  -16.4765   20.6230 C   0  0  0  0  0  0  0  0  0  0  0  0
    8.1488  -15.3412   21.3090 C   0  0  1  0  0  0  0  0  0  0  0  0
    6.8428  -15.3436   20.8381 O   0  0  0  0  0  0  0  0  0  0  0  0
    8.1080  -15.4890   22.7944 C   0  0  2  0  0  0  0  0  0  0  0  0
    7.3451  -14.4521   23.4499 N   0  0  0  0  0  0  0  0  0  0  0  0
    9.4663  -15.4796   23.3582 C   0  0  0  0  0  0  0  0  0  0  0  0
    9.7796  -14.5966   24.2412 O   0  0  0  0  0  0  0  0  0  0  0  0
   10.5111  -16.3667   23.0293 N   0  0  0  0  0  0  0  0  0  0  0  0
   11.5504  -16.7933   23.9797 C   0  0  1  0  0  0  0  0  0  0  0  0
   10.8565  -17.4695   25.1354 C   0  0  0  0  0  0  0  0  0  0  0  0
   11.8082  -18.0785   26.1344 C   0  0  0  0  0  0  0  0  0  0  0  0
   11.0308  -18.7423   27.2291 C   0  0  0  0  0  0  0  0  0  0  0  0
   10.1522  -19.6084   26.9943 O   0  0  0  0  0  0  0  0  0  0  0  0
   12.5651  -17.6122   23.3267 C   0  0  0  0  0  0  0  0  0  0  0  0
   12.2735  -18.4490   22.4487 O   0  0  0  0  0  0  0  0  0  0  0  0
   11.2678  -18.4097   28.5484 O   0  0  0  0  0  0  0  0  0  0  0  0
   13.8969  -17.4710   23.6784 O   0  0  0  0  0  0  0  0  0  0  0  0
  2  1  1  1
  2  3  1  0
  4  2  1  0
  4  6  1  0
  4  5  1  1
  6 12  1  0
  7  6  2  0
  9 11  1  0
  9  8  1  6
 10  9  1  0
 11 12  1  1
 13 14  2  0
 13 11  1  0
 15 13  1  0
 16 15  1  0
 16 21  1  0
 16 17  1  1
 18 17  1  0
 19 18  1  0
 20 19  2  0
 21 24  1  0
 22 21  2  0
 23 19  1  0
M  END
$$$$
