VTE.pdb
     RDKit          3D

 24 23  0  0  1  0  0  0  0  0999 V2000
    9.9489  -18.8899   17.5586 C   0  0  0  0  0  0  0  0  0  0  0  0
    8.5112  -18.4616   17.3509 C   0  0  2  0  0  0  0  0  0  0  0  0
    7.9373  -19.3430   16.2626 C   0  0  0  0  0  0  0  0  0  0  0  0
    8.5125  -16.9946   16.9032 C   0  0  2  0  0  0  0  0  0  0  0  0
    9.1721  -16.8696   15.6411 N   0  0  0  0  0  0  0  0  0  0  0  0
    9.1064  -16.1297   17.9539 C   0  0  0  0  0  0  0  0  0  0  0  0
   10.2754  -15.6876   17.8106 O   0  0  0  0  0  0  0  0  0  0  0  0
    7.4444  -12.9407   19.8325 C   0  0  0  0  0  0  0  0  0  0  0  0
    7.9475  -14.0068   20.7783 C   0  0  1  0  0  0  0  0  0  0  0  0
    6.8561  -14.7874   21.1346 O   0  0  0  0  0  0  0  0  0  0  0  0
    8.9741  -14.8974   20.1595 C   0  0  2  0  0  0  0  0  0  0  0  0
    8.4370  -15.7586   19.1316 N   0  0  0  0  0  0  0  0  0  0  0  0
    9.6111  -15.7467   21.1772 C   0  0  0  0  0  0  0  0  0  0  0  0
    9.2462  -16.9756   21.2956 O   0  0  0  0  0  0  0  0  0  0  0  0
   10.6216  -15.3528   22.0776 N   0  0  0  0  0  0  0  0  0  0  0  0
   11.2296  -16.2543   23.0689 C   0  0  1  0  0  0  0  0  0  0  0  0
   12.6803  -15.8651   23.2045 C   0  0  0  0  0  0  0  0  0  0  0  0
   13.5203  -16.2532   22.0135 C   0  0  0  0  0  0  0  0  0  0  0  0
   14.9369  -15.8202   22.2351 C   0  0  0  0  0  0  0  0  0  0  0  0
   15.3079  -15.2673   23.3000 O   0  0  0  0  0  0  0  0  0  0  0  0
   10.4861  -16.2453   24.3235 C   0  0  0  0  0  0  0  0  0  0  0  0
    9.6229  -15.3801   24.5729 O   0  0  0  0  0  0  0  0  0  0  0  0
   15.8863  -16.0235   21.2530 O   0  0  0  0  0  0  0  0  0  0  0  0
   10.7319  -17.2177   25.2781 O   0  0  0  0  0  0  0  0  0  0  0  0
  2  1  1  6
  2  3  1  0
  4  2  1  0
  4  6  1  0
  4  5  1  6
  6 12  1  0
  7  6  2  0
  9 11  1  0
  9  8  1  6
 10  9  1  0
 11 12  1  6
 13 14  2  0
 13 11  1  0
 15 13  1  0
 16 15  1  0
 16 21  1  0
 16 17  1  1
 18 17  1  0
 19 18  1  0
 20 19  2  0
 21 24  1  0
 22 21  2  0
 23 19  1  0
M  END
$$$$
