VTE.pdb
     RDKit          3D

 24 23  0  0  1  0  0  0  0  0999 V2000
   -1.5677  -27.4700   30.0291 C   0  0  0  0  0  0  0  0  0  0  0  0
   -1.0674  -26.4787   31.0589 C   0  0  2  0  0  0  0  0  0  0  0  0
    0.4436  -26.5659   31.0630 C   0  0  0  0  0  0  0  0  0  0  0  0
   -1.6285  -26.8898   32.4259 C   0  0  2  0  0  0  0  0  0  0  0  0
   -0.9864  -28.0843   32.8783 N   0  0  0  0  0  0  0  0  0  0  0  0
   -3.1068  -27.0155   32.3659 C   0  0  0  0  0  0  0  0  0  0  0  0
   -3.6255  -28.0146   31.8043 O   0  0  0  0  0  0  0  0  0  0  0  0
   -5.7943  -28.0537   34.3449 C   0  0  0  0  0  0  0  0  0  0  0  0
   -6.1060  -26.6077   34.0353 C   0  0  1  0  0  0  0  0  0  0  0  0
   -5.6447  -25.8506   35.1036 O   0  0  0  0  0  0  0  0  0  0  0  0
   -5.4336  -26.1194   32.7945 C   0  0  2  0  0  0  0  0  0  0  0  0
   -3.9943  -26.0710   32.9072 N   0  0  0  0  0  0  0  0  0  0  0  0
   -5.9074  -24.7734   32.4383 C   0  0  0  0  0  0  0  0  0  0  0  0
   -5.2879  -23.7420   32.8961 O   0  0  0  0  0  0  0  0  0  0  0  0
   -7.0105  -24.4691   31.6152 N   0  0  0  0  0  0  0  0  0  0  0  0
   -7.3988  -23.0995   31.2426 C   0  0  1  0  0  0  0  0  0  0  0  0
   -6.8386  -22.8284   29.8689 C   0  0  0  0  0  0  0  0  0  0  0  0
   -7.2613  -21.4973   29.2997 C   0  0  0  0  0  0  0  0  0  0  0  0
   -6.6268  -21.3004   27.9573 C   0  0  0  0  0  0  0  0  0  0  0  0
   -6.8727  -22.0559   26.9846 O   0  0  0  0  0  0  0  0  0  0  0  0
   -8.8401  -22.9065   31.3517 C   0  0  0  0  0  0  0  0  0  0  0  0
   -9.6330  -23.8682   31.4010 O   0  0  0  0  0  0  0  0  0  0  0  0
   -5.7389  -20.2621   27.7551 O   0  0  0  0  0  0  0  0  0  0  0  0
   -9.3626  -21.6252   31.4034 O   0  0  0  0  0  0  0  0  0  0  0  0
  2  1  1  6
  2  3  1  0
  4  2  1  0
  4  6  1  0
  4  5  1  6
  6 12  1  0
  7  6  2  0
  9 11  1  0
  9  8  1  1
 10  9  1  0
 11 12  1  1
 13 14  2  0
 13 11  1  0
 15 13  1  0
 16 15  1  0
 16 21  1  0
 16 17  1  6
 18 17  1  0
 19 18  1  0
 20 19  2  0
 21 24  1  0
 22 21  2  0
 23 19  1  0
M  END
$$$$
