KDA.pdb
     RDKit          3D

 23 22  0  0  1  0  0  0  0  0999 V2000
   21.9651  -10.8680  -15.5991 N   0  0  0  0  0  0  0  0  0  0  0  0
   20.9019   -9.8952  -15.8456 C   0  0  1  0  0  0  0  0  0  0  0  0
   19.6272  -10.5774  -15.4113 C   0  0  0  0  0  0  0  0  0  0  0  0
   19.2590  -11.7479  -16.2719 C   0  0  0  0  0  0  0  0  0  0  0  0
   17.8453  -12.2141  -15.9997 C   0  0  0  0  0  0  0  0  0  0  0  0
   17.5190  -13.3030  -17.0046 C   0  0  0  0  0  0  0  0  0  0  0  0
   16.1564  -13.7174  -16.7842 N   0  0  0  0  0  0  0  0  0  0  0  0
   21.0961   -8.6878  -15.0092 C   0  0  0  0  0  0  0  0  0  0  0  0
   21.6519   -8.6978  -13.8840 O   0  0  0  0  0  0  0  0  0  0  0  0
   20.6526   -7.3914  -15.4352 N   0  0  0  0  0  0  0  0  0  0  0  0
   20.8619   -6.1811  -14.7270 C   0  0  1  0  0  0  0  0  0  0  0  0
   22.2220   -5.5759  -14.8725 C   0  0  0  0  0  0  0  0  0  0  0  0
   22.3939   -4.3220  -14.1059 C   0  0  0  0  0  0  0  0  0  0  0  0
   22.8235   -3.2585  -14.5765 O   0  0  0  0  0  0  0  0  0  0  0  0
   19.7674   -5.2441  -15.0031 C   0  0  0  0  0  0  0  0  0  0  0  0
   19.7536   -4.6321  -16.0982 O   0  0  0  0  0  0  0  0  0  0  0  0
   22.0460   -4.3479  -12.7619 O   0  0  0  0  0  0  0  0  0  0  0  0
   18.1772   -2.7201  -14.7123 C   0  0  0  0  0  0  0  0  0  0  0  0
   17.5861   -4.0999  -14.4360 C   0  0  2  0  0  0  0  0  0  0  0  0
   18.6969   -4.9708  -14.1032 N   0  0  0  0  0  0  0  0  0  0  0  0
   16.8303   -4.5893  -15.6137 C   0  0  0  0  0  0  0  0  0  0  0  0
   17.2250   -5.6641  -16.1353 O   0  0  0  0  0  0  0  0  0  0  0  0
   15.7446   -3.9584  -16.1655 O   0  0  0  0  0  0  0  0  0  0  0  0
  2  1  1  1
  3  2  1  0
  4  3  1  0
  5  6  1  0
  5  4  1  0
  7  6  1  0
  8  2  1  0
  8 10  1  0
  9  8  2  0
 11 10  1  0
 12 13  1  0
 11 12  1  6
 13 17  1  0
 14 13  2  0
 15 11  1  0
 15 20  1  0
 16 15  2  0
 19 18  1  6
 19 20  1  0
 19 21  1  0
 21 22  2  0
 21 23  1  0
M  END
$$$$
