KDA.pdb
     RDKit          3D

 23 22  0  0  1  0  0  0  0  0999 V2000
   21.9914  -12.8053  -15.8359 N   0  0  0  0  0  0  0  0  0  0  0  0
   22.8744  -11.6710  -15.5685 C   0  0  1  0  0  0  0  0  0  0  0  0
   24.0173  -11.8154  -16.5441 C   0  0  0  0  0  0  0  0  0  0  0  0
   24.8478  -13.0401  -16.3063 C   0  0  0  0  0  0  0  0  0  0  0  0
   25.8045  -13.2930  -17.4513 C   0  0  0  0  0  0  0  0  0  0  0  0
   26.6809  -14.4702  -17.0663 C   0  0  0  0  0  0  0  0  0  0  0  0
   27.4977  -14.8072  -18.2049 N   0  0  0  0  0  0  0  0  0  0  0  0
   22.1791  -10.3926  -15.8466 C   0  0  0  0  0  0  0  0  0  0  0  0
   22.2141   -9.8032  -16.9541 O   0  0  0  0  0  0  0  0  0  0  0  0
   21.3984   -9.7215  -14.8471 N   0  0  0  0  0  0  0  0  0  0  0  0
   20.6138   -8.5606  -15.0642 C   0  0  1  0  0  0  0  0  0  0  0  0
   19.2073   -8.6295  -14.5600 C   0  0  0  0  0  0  0  0  0  0  0  0
   18.4180   -7.4115  -14.8479 C   0  0  0  0  0  0  0  0  0  0  0  0
   17.8755   -6.7008  -13.9890 O   0  0  0  0  0  0  0  0  0  0  0  0
   21.3443   -7.3713  -14.6122 C   0  0  0  0  0  0  0  0  0  0  0  0
   21.8948   -7.3888  -13.4850 O   0  0  0  0  0  0  0  0  0  0  0  0
   18.2803   -7.0456  -16.1803 O   0  0  0  0  0  0  0  0  0  0  0  0
   22.3770   -4.0991  -16.1443 C   0  0  0  0  0  0  0  0  0  0  0  0
   22.3321   -5.0724  -14.9694 C   0  0  2  0  0  0  0  0  0  0  0  0
   21.4785   -6.1735  -15.3721 N   0  0  0  0  0  0  0  0  0  0  0  0
   21.8279   -4.3960  -13.7503 C   0  0  0  0  0  0  0  0  0  0  0  0
   20.6086   -4.5475  -13.4799 O   0  0  0  0  0  0  0  0  0  0  0  0
   22.5905   -3.6267  -12.9089 O   0  0  0  0  0  0  0  0  0  0  0  0
  2  1  1  6
  3  2  1  0
  4  3  1  0
  5  6  1  0
  5  4  1  0
  7  6  1  0
  8  2  1  0
  8 10  1  0
  9  8  2  0
 11 10  1  0
 12 13  1  0
 11 12  1  1
 13 17  1  0
 14 13  2  0
 15 11  1  0
 15 20  1  0
 16 15  2  0
 19 18  1  6
 19 20  1  0
 19 21  1  0
 21 22  2  0
 21 23  1  0
M  END
$$$$
