KDA.pdb
     RDKit          3D

 23 22  0  0  1  0  0  0  0  0999 V2000
   19.1903  -13.9933  -16.1094 N   0  0  0  0  0  0  0  0  0  0  0  0
   18.4355  -12.7813  -16.4238 C   0  0  1  0  0  0  0  0  0  0  0  0
   17.0868  -12.9700  -15.7725 C   0  0  0  0  0  0  0  0  0  0  0  0
   16.3068  -14.1138  -16.3464 C   0  0  0  0  0  0  0  0  0  0  0  0
   14.9288  -14.2116  -15.7285 C   0  0  0  0  0  0  0  0  0  0  0  0
   14.2130  -15.3778  -16.3840 C   0  0  0  0  0  0  0  0  0  0  0  0
   12.9187  -15.5100  -15.7640 N   0  0  0  0  0  0  0  0  0  0  0  0
   19.0843  -11.5926  -15.8227 C   0  0  0  0  0  0  0  0  0  0  0  0
   19.2216  -11.4199  -14.5872 O   0  0  0  0  0  0  0  0  0  0  0  0
   19.6141  -10.5299  -16.6281 N   0  0  0  0  0  0  0  0  0  0  0  0
   20.1829   -9.3306  -16.1298 C   0  0  1  0  0  0  0  0  0  0  0  0
   21.6218   -9.1085  -16.4726 C   0  0  0  0  0  0  0  0  0  0  0  0
   22.1807   -7.8671  -15.8929 C   0  0  0  0  0  0  0  0  0  0  0  0
   22.7696   -6.9876  -16.5385 O   0  0  0  0  0  0  0  0  0  0  0  0
   19.3169   -8.1924  -16.4567 C   0  0  0  0  0  0  0  0  0  0  0  0
   18.7773   -8.1453  -17.5883 O   0  0  0  0  0  0  0  0  0  0  0  0
   22.0298   -7.6824  -14.5249 O   0  0  0  0  0  0  0  0  0  0  0  0
   16.7945   -6.5579  -16.1769 C   0  0  0  0  0  0  0  0  0  0  0  0
   18.1902   -5.9928  -15.9268 C   0  0  2  0  0  0  0  0  0  0  0  0
   19.0365   -7.1145  -15.5680 N   0  0  0  0  0  0  0  0  0  0  0  0
   18.1529   -4.9623  -14.8617 C   0  0  0  0  0  0  0  0  0  0  0  0
   18.7199   -5.2475  -13.7754 O   0  0  0  0  0  0  0  0  0  0  0  0
   17.5503   -3.7357  -14.9790 O   0  0  0  0  0  0  0  0  0  0  0  0
  2  1  1  1
  3  2  1  0
  4  3  1  0
  5  6  1  0
  5  4  1  0
  7  6  1  0
  8  2  1  0
  8 10  1  0
  9  8  2  0
 11 10  1  0
 12 13  1  0
 11 12  1  6
 13 17  1  0
 14 13  2  0
 15 11  1  0
 15 20  1  0
 16 15  2  0
 19 18  1  1
 19 20  1  0
 19 21  1  0
 21 22  2  0
 21 23  1  0
M  END
$$$$
