KDA.pdb
     RDKit          3D

 23 22  0  0  1  0  0  0  0  0999 V2000
   18.2752  -12.0626  -17.5763 N   0  0  0  0  0  0  0  0  0  0  0  0
   17.8799  -10.6598  -17.6925 C   0  0  1  0  0  0  0  0  0  0  0  0
   16.8258  -10.4523  -16.6320 C   0  0  0  0  0  0  0  0  0  0  0  0
   16.2222  -11.7323  -16.1385 C   0  0  0  0  0  0  0  0  0  0  0  0
   15.2541  -11.4874  -15.0014 C   0  0  0  0  0  0  0  0  0  0  0  0
   14.7930  -12.8397  -14.4910 C   0  0  0  0  0  0  0  0  0  0  0  0
   13.9202  -12.6163  -13.3662 N   0  0  0  0  0  0  0  0  0  0  0  0
   19.0259   -9.7691  -17.3952 C   0  0  0  0  0  0  0  0  0  0  0  0
   20.0349  -10.1225  -16.7378 O   0  0  0  0  0  0  0  0  0  0  0  0
   19.0653   -8.4081  -17.8478 N   0  0  0  0  0  0  0  0  0  0  0  0
   20.1384   -7.5058  -17.6364 C   0  0  1  0  0  0  0  0  0  0  0  0
   20.2278   -6.3717  -18.6075 C   0  0  0  0  0  0  0  0  0  0  0  0
   21.3898   -5.4860  -18.3734 C   0  0  0  0  0  0  0  0  0  0  0  0
   22.5710   -5.8616  -18.3446 O   0  0  0  0  0  0  0  0  0  0  0  0
   20.1672   -7.0828  -16.2320 C   0  0  0  0  0  0  0  0  0  0  0  0
   19.1148   -6.6448  -15.7080 O   0  0  0  0  0  0  0  0  0  0  0  0
   21.1284   -4.1372  -18.1723 O   0  0  0  0  0  0  0  0  0  0  0  0
   22.0947   -7.8593  -13.2600 C   0  0  0  0  0  0  0  0  0  0  0  0
   21.3031   -6.7806  -13.9944 C   0  0  2  0  0  0  0  0  0  0  0  0
   21.3236   -7.1328  -15.4011 N   0  0  0  0  0  0  0  0  0  0  0  0
   21.8920   -5.4425  -13.7483 C   0  0  0  0  0  0  0  0  0  0  0  0
   22.4678   -4.8880  -14.7199 O   0  0  0  0  0  0  0  0  0  0  0  0
   21.8520   -4.7772  -12.5496 O   0  0  0  0  0  0  0  0  0  0  0  0
  2  1  1  1
  3  2  1  0
  4  3  1  0
  5  6  1  0
  5  4  1  0
  7  6  1  0
  8  2  1  0
  8 10  1  0
  9  8  2  0
 11 10  1  0
 12 13  1  0
 11 12  1  6
 13 17  1  0
 14 13  2  0
 15 11  1  0
 15 20  1  0
 16 15  2  0
 19 18  1  1
 19 20  1  0
 19 21  1  0
 21 22  2  0
 21 23  1  0
M  END
$$$$
