KDA.pdb
     RDKit          3D

 23 22  0  0  1  0  0  0  0  0999 V2000
   19.5689  -11.1650  -17.6257 N   0  0  0  0  0  0  0  0  0  0  0  0
   20.8629  -10.4911  -17.5301 C   0  0  1  0  0  0  0  0  0  0  0  0
   21.5954  -10.8499  -18.8004 C   0  0  0  0  0  0  0  0  0  0  0  0
   21.6301  -12.3241  -19.0678 C   0  0  0  0  0  0  0  0  0  0  0  0
   22.5322  -12.6552  -20.2368 C   0  0  0  0  0  0  0  0  0  0  0  0
   22.4524  -14.1523  -20.4694 C   0  0  0  0  0  0  0  0  0  0  0  0
   23.3293  -14.4793  -21.5654 N   0  0  0  0  0  0  0  0  0  0  0  0
   20.6831   -9.0210  -17.4916 C   0  0  0  0  0  0  0  0  0  0  0  0
   19.7004   -8.4226  -17.9928 O   0  0  0  0  0  0  0  0  0  0  0  0
   21.6413   -8.1565  -16.8644 N   0  0  0  0  0  0  0  0  0  0  0  0
   21.5186   -6.7491  -16.7440 C   0  0  1  0  0  0  0  0  0  0  0  0
   21.9101   -6.1790  -15.4178 C   0  0  0  0  0  0  0  0  0  0  0  0
   20.9985   -6.5657  -14.3182 C   0  0  0  0  0  0  0  0  0  0  0  0
   21.3641   -6.9993  -13.2157 O   0  0  0  0  0  0  0  0  0  0  0  0
   22.1679   -6.0910  -17.8831 C   0  0  0  0  0  0  0  0  0  0  0  0
   23.3866   -6.3025  -18.0928 O   0  0  0  0  0  0  0  0  0  0  0  0
   19.6357   -6.4295  -14.5470 O   0  0  0  0  0  0  0  0  0  0  0  0
   21.0882   -3.8900  -20.7336 C   0  0  0  0  0  0  0  0  0  0  0  0
   22.1713   -4.5875  -19.9149 C   0  0  2  0  0  0  0  0  0  0  0  0
   21.5055   -5.2118  -18.7879 N   0  0  0  0  0  0  0  0  0  0  0  0
   23.2044   -3.6167  -19.4814 C   0  0  0  0  0  0  0  0  0  0  0  0
   23.9245   -3.1136  -20.3821 O   0  0  0  0  0  0  0  0  0  0  0  0
   23.4251   -3.2350  -18.1827 O   0  0  0  0  0  0  0  0  0  0  0  0
  2  1  1  6
  3  2  1  0
  4  3  1  0
  5  6  1  0
  5  4  1  0
  7  6  1  0
  8  2  1  0
  8 10  1  0
  9  8  2  0
 11 10  1  0
 12 13  1  0
 11 12  1  1
 13 17  1  0
 14 13  2  0
 15 11  1  0
 15 20  1  0
 16 15  2  0
 19 18  1  6
 19 20  1  0
 19 21  1  0
 21 22  2  0
 21 23  1  0
M  END
$$$$
