KDA.pdb
     RDKit          3D

 23 22  0  0  1  0  0  0  0  0999 V2000
   15.7593  -11.5447  -16.3505 N   0  0  0  0  0  0  0  0  0  0  0  0
   17.0416  -12.0023  -15.8177 C   0  0  1  0  0  0  0  0  0  0  0  0
   17.3268  -13.3048  -16.5257 C   0  0  0  0  0  0  0  0  0  0  0  0
   16.2015  -14.2899  -16.4295 C   0  0  0  0  0  0  0  0  0  0  0  0
   16.2379  -15.0482  -15.1204 C   0  0  0  0  0  0  0  0  0  0  0  0
   15.0977  -16.0491  -15.1372 C   0  0  0  0  0  0  0  0  0  0  0  0
   15.1595  -16.8137  -13.9171 N   0  0  0  0  0  0  0  0  0  0  0  0
   18.1180  -11.0409  -16.1528 C   0  0  0  0  0  0  0  0  0  0  0  0
   19.3422  -11.3081  -16.0818 O   0  0  0  0  0  0  0  0  0  0  0  0
   17.8315   -9.7055  -16.5925 N   0  0  0  0  0  0  0  0  0  0  0  0
   18.8019   -8.7130  -16.8815 C   0  0  1  0  0  0  0  0  0  0  0  0
   18.3768   -7.6599  -17.8549 C   0  0  0  0  0  0  0  0  0  0  0  0
   19.4345   -6.6678  -18.1487 C   0  0  0  0  0  0  0  0  0  0  0  0
   19.5574   -5.5745  -17.5770 O   0  0  0  0  0  0  0  0  0  0  0  0
   19.3534   -8.1738  -15.6336 C   0  0  0  0  0  0  0  0  0  0  0  0
   18.5751   -7.6426  -14.8053 O   0  0  0  0  0  0  0  0  0  0  0  0
   20.3520   -6.9937  -19.1387 O   0  0  0  0  0  0  0  0  0  0  0  0
   22.4208   -8.4324  -13.6069 C   0  0  0  0  0  0  0  0  0  0  0  0
   21.2671   -7.5630  -14.0995 C   0  0  2  0  0  0  0  0  0  0  0  0
   20.7342   -8.2086  -15.2838 N   0  0  0  0  0  0  0  0  0  0  0  0
   21.7354   -6.1849  -14.3814 C   0  0  0  0  0  0  0  0  0  0  0  0
   21.8185   -5.8497  -15.5912 O   0  0  0  0  0  0  0  0  0  0  0  0
   22.0794   -5.2634  -13.4256 O   0  0  0  0  0  0  0  0  0  0  0  0
  2  1  1  6
  3  2  1  0
  4  3  1  0
  5  6  1  0
  5  4  1  0
  7  6  1  0
  8  2  1  0
  8 10  1  0
  9  8  2  0
 11 10  1  0
 12 13  1  0
 11 12  1  1
 13 17  1  0
 14 13  2  0
 15 11  1  0
 15 20  1  0
 16 15  2  0
 19 18  1  6
 19 20  1  0
 19 21  1  0
 21 22  2  0
 21 23  1  0
M  END
$$$$
