KDA.pdb
     RDKit          3D

 23 22  0  0  1  0  0  0  0  0999 V2000
   20.5031  -20.9122  -13.0661 N   0  0  0  0  0  0  0  0  0  0  0  0
   19.6587  -20.1623  -13.9946 C   0  0  1  0  0  0  0  0  0  0  0  0
   18.2770  -20.1863  -13.3869 C   0  0  0  0  0  0  0  0  0  0  0  0
   17.3168  -21.0618  -14.1335 C   0  0  0  0  0  0  0  0  0  0  0  0
   18.0335  -22.1813  -14.8568 C   0  0  0  0  0  0  0  0  0  0  0  0
   17.0005  -22.9380  -15.6707 C   0  0  0  0  0  0  0  0  0  0  0  0
   17.6869  -23.9597  -16.4204 N   0  0  0  0  0  0  0  0  0  0  0  0
   20.1070  -18.7530  -14.0847 C   0  0  0  0  0  0  0  0  0  0  0  0
   20.4521  -18.0636  -13.0943 O   0  0  0  0  0  0  0  0  0  0  0  0
   20.1806  -18.0599  -15.3388 N   0  0  0  0  0  0  0  0  0  0  0  0
   20.6924  -16.7503  -15.5215 C   0  0  1  0  0  0  0  0  0  0  0  0
   21.8539  -16.6369  -16.4570 C   0  0  0  0  0  0  0  0  0  0  0  0
   22.7900  -15.5466  -16.1043 C   0  0  0  0  0  0  0  0  0  0  0  0
   24.0093  -15.6896  -15.9308 O   0  0  0  0  0  0  0  0  0  0  0  0
   19.5972  -15.8231  -15.8267 C   0  0  0  0  0  0  0  0  0  0  0  0
   18.6701  -16.2054  -16.5805 O   0  0  0  0  0  0  0  0  0  0  0  0
   22.2547  -14.2736  -15.9591 O   0  0  0  0  0  0  0  0  0  0  0  0
   17.5157  -13.4841  -14.4670 C   0  0  0  0  0  0  0  0  0  0  0  0
   18.4354  -13.5831  -15.6811 C   0  0  2  0  0  0  0  0  0  0  0  0
   19.5050  -14.4940  -15.3214 N   0  0  0  0  0  0  0  0  0  0  0  0
   18.9491  -12.2443  -16.0572 C   0  0  0  0  0  0  0  0  0  0  0  0
   20.1705  -12.0256  -15.8490 O   0  0  0  0  0  0  0  0  0  0  0  0
   18.1933  -11.2417  -16.6092 O   0  0  0  0  0  0  0  0  0  0  0  0
  2  1  1  1
  3  2  1  0
  4  3  1  0
  5  6  1  0
  5  4  1  0
  7  6  1  0
  8  2  1  0
  8 10  1  0
  9  8  2  0
 11 10  1  0
 12 13  1  0
 11 12  1  6
 13 17  1  0
 14 13  2  0
 15 11  1  0
 15 20  1  0
 16 15  2  0
 19 18  1  1
 19 20  1  0
 19 21  1  0
 21 22  2  0
 21 23  1  0
M  END
$$$$
