KDA.pdb
     RDKit          3D

 23 22  0  0  1  0  0  0  0  0999 V2000
   19.0353  -12.0892  -17.4624 N   0  0  0  0  0  0  0  0  0  0  0  0
   20.0506  -11.3943  -16.6726 C   0  0  1  0  0  0  0  0  0  0  0  0
   21.2741  -11.3375  -17.5551 C   0  0  0  0  0  0  0  0  0  0  0  0
   21.6098  -12.6542  -18.1873 C   0  0  0  0  0  0  0  0  0  0  0  0
   22.8238  -12.5459  -19.0844 C   0  0  0  0  0  0  0  0  0  0  0  0
   23.0561  -13.9085  -19.7099 C   0  0  0  0  0  0  0  0  0  0  0  0
   23.9182  -14.6592  -18.8323 N   0  0  0  0  0  0  0  0  0  0  0  0
   19.6214  -10.0075  -16.3763 C   0  0  0  0  0  0  0  0  0  0  0  0
   19.3031   -9.1704  -17.2555 O   0  0  0  0  0  0  0  0  0  0  0  0
   19.5369   -9.5110  -15.0328 N   0  0  0  0  0  0  0  0  0  0  0  0
   19.0436   -8.2347  -14.6611 C   0  0  1  0  0  0  0  0  0  0  0  0
   18.2871   -8.1864  -13.3718 C   0  0  0  0  0  0  0  0  0  0  0  0
   17.1178   -9.0927  -13.3405 C   0  0  0  0  0  0  0  0  0  0  0  0
   16.3695   -9.3152  -14.3037 O   0  0  0  0  0  0  0  0  0  0  0  0
   20.1158   -7.2377  -14.7531 C   0  0  0  0  0  0  0  0  0  0  0  0
   21.2164   -7.4768  -14.2004 O   0  0  0  0  0  0  0  0  0  0  0  0
   16.8466   -9.7365  -12.1405 O   0  0  0  0  0  0  0  0  0  0  0  0
   20.6644   -3.9823  -16.5421 C   0  0  0  0  0  0  0  0  0  0  0  0
   21.0767   -5.0244  -15.5058 C   0  0  2  0  0  0  0  0  0  0  0  0
   19.9994   -5.9928  -15.4364 N   0  0  0  0  0  0  0  0  0  0  0  0
   21.3323   -4.3831  -14.1939 C   0  0  0  0  0  0  0  0  0  0  0  0
   20.3992   -4.4230  -13.3508 O   0  0  0  0  0  0  0  0  0  0  0  0
   22.5011   -3.7576  -13.8419 O   0  0  0  0  0  0  0  0  0  0  0  0
  2  1  1  6
  3  2  1  0
  4  3  1  0
  5  6  1  0
  5  4  1  0
  7  6  1  0
  8  2  1  0
  8 10  1  0
  9  8  2  0
 11 10  1  0
 12 13  1  0
 11 12  1  1
 13 17  1  0
 14 13  2  0
 15 11  1  0
 15 20  1  0
 16 15  2  0
 19 18  1  6
 19 20  1  0
 19 21  1  0
 21 22  2  0
 21 23  1  0
M  END
$$$$
