KDA.pdb
     RDKit          3D

 23 22  0  0  1  0  0  0  0  0999 V2000
   16.8926  -10.8309  -16.7242 N   0  0  0  0  0  0  0  0  0  0  0  0
   17.6312  -10.9103  -15.4649 C   0  0  1  0  0  0  0  0  0  0  0  0
   17.8962  -12.3806  -15.2488 C   0  0  0  0  0  0  0  0  0  0  0  0
   16.6469  -13.2072  -15.2038 C   0  0  0  0  0  0  0  0  0  0  0  0
   16.9588  -14.6875  -15.2433 C   0  0  0  0  0  0  0  0  0  0  0  0
   15.6396  -15.4335  -15.3143 C   0  0  0  0  0  0  0  0  0  0  0  0
   15.9285  -16.8266  -15.5440 N   0  0  0  0  0  0  0  0  0  0  0  0
   18.9325  -10.2111  -15.5791 C   0  0  0  0  0  0  0  0  0  0  0  0
   19.9142  -10.4326  -14.8293 O   0  0  0  0  0  0  0  0  0  0  0  0
   19.1688   -9.2080  -16.5775 N   0  0  0  0  0  0  0  0  0  0  0  0
   20.3363   -8.4095  -16.6753 C   0  0  1  0  0  0  0  0  0  0  0  0
   20.8192   -8.1412  -18.0653 C   0  0  0  0  0  0  0  0  0  0  0  0
   22.0494   -7.3203  -18.1134 C   0  0  0  0  0  0  0  0  0  0  0  0
   22.1220   -6.1826  -18.6007 O   0  0  0  0  0  0  0  0  0  0  0  0
   20.1845   -7.1992  -15.8603 C   0  0  0  0  0  0  0  0  0  0  0  0
   19.1478   -6.5049  -15.9914 O   0  0  0  0  0  0  0  0  0  0  0  0
   23.2018   -7.8730  -17.5706 O   0  0  0  0  0  0  0  0  0  0  0  0
   22.1159   -5.5145  -13.1076 C   0  0  0  0  0  0  0  0  0  0  0  0
   20.9454   -5.5679  -14.0858 C   0  0  2  0  0  0  0  0  0  0  0  0
   21.1450   -6.7432  -14.9116 N   0  0  0  0  0  0  0  0  0  0  0  0
   20.8828   -4.3261  -14.8931 C   0  0  0  0  0  0  0  0  0  0  0  0
   20.2914   -3.3427  -14.3773 O   0  0  0  0  0  0  0  0  0  0  0  0
   21.4187   -4.1788  -16.1470 O   0  0  0  0  0  0  0  0  0  0  0  0
  2  1  1  6
  3  2  1  0
  4  3  1  0
  5  6  1  0
  5  4  1  0
  7  6  1  0
  8  2  1  0
  8 10  1  0
  9  8  2  0
 11 10  1  0
 12 13  1  0
 11 12  1  6
 13 17  1  0
 14 13  2  0
 15 11  1  0
 15 20  1  0
 16 15  2  0
 19 18  1  1
 19 20  1  0
 19 21  1  0
 21 22  2  0
 21 23  1  0
M  END
$$$$
