KDA.pdb
     RDKit          3D

 23 22  0  0  1  0  0  0  0  0999 V2000
   26.1533  -19.6762  -16.5134 N   0  0  0  0  0  0  0  0  0  0  0  0
   25.1443  -19.0191  -17.3426 C   0  0  1  0  0  0  0  0  0  0  0  0
   25.3944  -19.5163  -18.7459 C   0  0  0  0  0  0  0  0  0  0  0  0
   26.7384  -19.1259  -19.2818 C   0  0  0  0  0  0  0  0  0  0  0  0
   26.8528  -17.6269  -19.4555 C   0  0  0  0  0  0  0  0  0  0  0  0
   28.1806  -17.3427  -20.1323 C   0  0  0  0  0  0  0  0  0  0  0  0
   28.3320  -15.9129  -20.2312 N   0  0  0  0  0  0  0  0  0  0  0  0
   23.7823  -19.4348  -16.9336 C   0  0  0  0  0  0  0  0  0  0  0  0
   22.9635  -19.9998  -17.6987 O   0  0  0  0  0  0  0  0  0  0  0  0
   23.2908  -19.2162  -15.6034 N   0  0  0  0  0  0  0  0  0  0  0  0
   22.0017  -19.5788  -15.1371 C   0  0  1  0  0  0  0  0  0  0  0  0
   21.8823  -19.7743  -13.6591 C   0  0  0  0  0  0  0  0  0  0  0  0
   20.5663  -20.3048  -13.2395 C   0  0  0  0  0  0  0  0  0  0  0  0
   20.2090  -20.4608  -12.0625 O   0  0  0  0  0  0  0  0  0  0  0  0
   20.9940  -18.6701  -15.6948 C   0  0  0  0  0  0  0  0  0  0  0  0
   21.0943  -17.4401  -15.4692 O   0  0  0  0  0  0  0  0  0  0  0  0
   19.6725  -20.6507  -14.2444 O   0  0  0  0  0  0  0  0  0  0  0  0
   18.4880  -18.7103  -18.3885 C   0  0  0  0  0  0  0  0  0  0  0  0
   18.9055  -18.1645  -17.0256 C   0  0  2  0  0  0  0  0  0  0  0  0
   19.8874  -19.0873  -16.4895 N   0  0  0  0  0  0  0  0  0  0  0  0
   17.7281  -18.0273  -16.1353 C   0  0  0  0  0  0  0  0  0  0  0  0
   17.5021  -18.9774  -15.3422 O   0  0  0  0  0  0  0  0  0  0  0  0
   16.8802  -16.9493  -16.1181 O   0  0  0  0  0  0  0  0  0  0  0  0
  2  1  1  1
  3  2  1  0
  4  3  1  0
  5  6  1  0
  5  4  1  0
  7  6  1  0
  8  2  1  0
  8 10  1  0
  9  8  2  0
 11 10  1  0
 12 13  1  0
 11 12  1  1
 13 17  1  0
 14 13  2  0
 15 11  1  0
 15 20  1  0
 16 15  2  0
 19 18  1  6
 19 20  1  0
 19 21  1  0
 21 22  2  0
 21 23  1  0
M  END
$$$$
