KDA.pdb
     RDKit          3D

 23 22  0  0  1  0  0  0  0  0999 V2000
   15.3683  -10.7603  -13.2191 N   0  0  0  0  0  0  0  0  0  0  0  0
   15.4788   -9.4824  -13.9206 C   0  0  1  0  0  0  0  0  0  0  0  0
   14.8198   -8.4706  -13.0146 C   0  0  0  0  0  0  0  0  0  0  0  0
   13.3407   -8.6711  -12.8797 C   0  0  0  0  0  0  0  0  0  0  0  0
   12.7250   -7.6511  -11.9466 C   0  0  0  0  0  0  0  0  0  0  0  0
   11.2307   -7.9103  -11.9039 C   0  0  0  0  0  0  0  0  0  0  0  0
   10.6594   -7.0521  -10.8969 N   0  0  0  0  0  0  0  0  0  0  0  0
   16.9008   -9.1029  -14.0915 C   0  0  0  0  0  0  0  0  0  0  0  0
   17.8353   -9.5544  -13.3858 O   0  0  0  0  0  0  0  0  0  0  0  0
   17.3208   -8.1712  -15.0986 N   0  0  0  0  0  0  0  0  0  0  0  0
   18.6671   -7.8495  -15.4058 C   0  0  1  0  0  0  0  0  0  0  0  0
   18.9898   -7.7504  -16.8629 C   0  0  0  0  0  0  0  0  0  0  0  0
   20.4017   -7.3980  -17.1309 C   0  0  0  0  0  0  0  0  0  0  0  0
   20.7719   -6.4541  -17.8445 O   0  0  0  0  0  0  0  0  0  0  0  0
   19.0926   -6.6812  -14.6272 C   0  0  0  0  0  0  0  0  0  0  0  0
   18.3269   -5.6902  -14.5516 O   0  0  0  0  0  0  0  0  0  0  0  0
   21.3763   -8.1877  -16.5354 O   0  0  0  0  0  0  0  0  0  0  0  0
   21.7234   -5.9224  -12.1085 C   0  0  0  0  0  0  0  0  0  0  0  0
   20.7101   -5.4325  -13.1396 C   0  0  2  0  0  0  0  0  0  0  0  0
   20.3350   -6.5848  -13.9362 N   0  0  0  0  0  0  0  0  0  0  0  0
   21.2912   -4.3496  -13.9687 C   0  0  0  0  0  0  0  0  0  0  0  0
   21.7038   -4.6698  -15.1133 O   0  0  0  0  0  0  0  0  0  0  0  0
   21.4077   -3.0401  -13.5777 O   0  0  0  0  0  0  0  0  0  0  0  0
  2  1  1  1
  3  2  1  0
  4  3  1  0
  5  6  1  0
  5  4  1  0
  7  6  1  0
  8  2  1  0
  8 10  1  0
  9  8  2  0
 11 10  1  0
 12 13  1  0
 11 12  1  6
 13 17  1  0
 14 13  2  0
 15 11  1  0
 15 20  1  0
 16 15  2  0
 19 18  1  1
 19 20  1  0
 19 21  1  0
 21 22  2  0
 21 23  1  0
M  END
$$$$
