KDA.pdb
     RDKit          3D

 23 22  0  0  1  0  0  0  0  0999 V2000
   19.9844  -11.5016  -15.7733 N   0  0  0  0  0  0  0  0  0  0  0  0
   20.1329  -10.2575  -16.5268 C   0  0  1  0  0  0  0  0  0  0  0  0
   18.9201  -10.1855  -17.4227 C   0  0  0  0  0  0  0  0  0  0  0  0
   18.3049  -11.5247  -17.6954 C   0  0  0  0  0  0  0  0  0  0  0  0
   16.8081  -11.4185  -17.8913 C   0  0  0  0  0  0  0  0  0  0  0  0
   16.2913  -12.8011  -18.2425 C   0  0  0  0  0  0  0  0  0  0  0  0
   16.2976  -13.5964  -17.0406 N   0  0  0  0  0  0  0  0  0  0  0  0
   20.1121   -9.0901  -15.6147 C   0  0  0  0  0  0  0  0  0  0  0  0
   19.4426   -9.0423  -14.5542 O   0  0  0  0  0  0  0  0  0  0  0  0
   20.8730   -7.9040  -15.8844 N   0  0  0  0  0  0  0  0  0  0  0  0
   20.9346   -6.7625  -15.0456 C   0  0  1  0  0  0  0  0  0  0  0  0
   22.2898   -6.4316  -14.5059 C   0  0  0  0  0  0  0  0  0  0  0  0
   22.2979   -5.2459  -13.6207 C   0  0  0  0  0  0  0  0  0  0  0  0
   21.8199   -5.2137  -12.4771 O   0  0  0  0  0  0  0  0  0  0  0  0
   20.2652   -5.6290  -15.6930 C   0  0  0  0  0  0  0  0  0  0  0  0
   20.8040   -5.0958  -16.6927 O   0  0  0  0  0  0  0  0  0  0  0  0
   22.8860   -4.0894  -14.1154 O   0  0  0  0  0  0  0  0  0  0  0  0
   16.8677   -4.1405  -15.6894 C   0  0  0  0  0  0  0  0  0  0  0  0
   18.3631   -3.9848  -15.9526 C   0  0  2  0  0  0  0  0  0  0  0  0
   19.0240   -5.0765  -15.2636 N   0  0  0  0  0  0  0  0  0  0  0  0
   18.8407   -2.6620  -15.4836 C   0  0  0  0  0  0  0  0  0  0  0  0
   18.3877   -1.6507  -16.0795 O   0  0  0  0  0  0  0  0  0  0  0  0
   19.7307   -2.4688  -14.4581 O   0  0  0  0  0  0  0  0  0  0  0  0
  2  1  1  1
  3  2  1  0
  4  3  1  0
  5  6  1  0
  5  4  1  0
  7  6  1  0
  8  2  1  0
  8 10  1  0
  9  8  2  0
 11 10  1  0
 12 13  1  0
 11 12  1  6
 13 17  1  0
 14 13  2  0
 15 11  1  0
 15 20  1  0
 16 15  2  0
 19 18  1  1
 19 20  1  0
 19 21  1  0
 21 22  2  0
 21 23  1  0
M  END
$$$$
