TFK.pdb
     RDKit          3D

 28 28  0  0  1  0  0  0  0  0999 V2000
   28.1505  -19.3086  -14.7670 C   0  0  0  0  0  0  0  0  0  0  0  0
   27.6588  -19.7372  -13.4109 C   0  0  1  0  0  0  0  0  0  0  0  0
   26.2934  -19.6035  -13.2633 O   0  0  0  0  0  0  0  0  0  0  0  0
   28.0543  -21.1323  -13.0409 C   0  0  2  0  0  0  0  0  0  0  0  0
   27.4646  -22.1369  -13.8787 N   0  0  0  0  0  0  0  0  0  0  0  0
   27.5910  -21.3784  -11.6466 C   0  0  0  0  0  0  0  0  0  0  0  0
   26.5736  -22.0942  -11.5068 O   0  0  0  0  0  0  0  0  0  0  0  0
   28.2230  -20.8602  -10.5108 N   0  0  0  0  0  0  0  0  0  0  0  0
   27.6431  -20.8590   -9.1688 C   0  0  1  0  0  0  0  0  0  0  0  0
   28.6078  -20.2704   -8.1701 C   0  0  0  0  0  0  0  0  0  0  0  0
   28.0546  -20.1622   -6.8034 C   0  0  0  0  0  0  0  0  0  0  0  0
   27.8539  -21.2293   -5.9526 C   0  0  0  0  0  0  0  0  0  0  0  0
   27.3345  -21.0336   -4.6930 C   0  0  0  0  0  0  0  0  0  0  0  0
   26.9944  -19.7753   -4.2289 C   0  0  0  0  0  0  0  0  0  0  0  0
   27.1952  -18.7076   -5.0803 C   0  0  0  0  0  0  0  0  0  0  0  0
   27.7158  -18.9013   -6.3435 C   0  0  0  0  0  0  0  0  0  0  0  0
   26.3121  -20.2053   -9.1692 C   0  0  0  0  0  0  0  0  0  0  0  0
   26.2179  -19.0359   -9.6140 O   0  0  0  0  0  0  0  0  0  0  0  0
   25.1469  -20.8390   -8.6920 N   0  0  0  0  0  0  0  0  0  0  0  0
   23.8424  -20.3896   -9.2119 C   0  0  1  0  0  0  0  0  0  0  0  0
   23.7464  -20.6946  -10.6693 C   0  0  0  0  0  0  0  0  0  0  0  0
   22.4547  -20.1953  -11.2424 C   0  0  0  0  0  0  0  0  0  0  0  0
   22.3673  -20.5335  -12.7428 C   0  0  0  0  0  0  0  0  0  0  0  0
   21.0691  -19.8804  -13.2179 C   0  0  0  0  0  0  0  0  0  0  0  0
   20.8722  -20.0306  -14.6278 N   0  0  0  0  0  0  0  0  0  0  0  0
   22.7578  -21.0365   -8.4594 C   0  0  0  0  0  0  0  0  0  0  0  0
   23.0269  -22.0762   -7.7650 O   0  0  0  0  0  0  0  0  0  0  0  0
   21.4529  -20.6114   -8.4333 O   0  0  0  0  0  0  0  0  0  0  0  0
  2  1  1  6
  2  4  1  0
  3  2  1  0
  4  5  1  6
  4  6  1  0
  6  7  2  0
  8  6  1  0
  8  9  1  0
  9 10  1  1
 10 11  1  0
 11 12  2  0
 12 13  1  0
 14 13  2  0
 15 14  1  0
 16 11  1  0
 16 15  2  0
 17 19  1  0
 17  9  1  0
 18 17  2  0
 20 21  1  6
 20 19  1  0
 22 23  1  0
 22 21  1  0
 24 25  1  0
 24 23  1  0
 26 20  1  0
 26 28  1  0
 27 26  2  0
M  END
$$$$
