TFK.pdb
     RDKit          3D

 28 28  0  0  1  0  0  0  0  0999 V2000
   17.1056   -8.0111  -17.3353 C   0  0  0  0  0  0  0  0  0  0  0  0
   17.1650   -7.8651  -15.8387 C   0  0  1  0  0  0  0  0  0  0  0  0
   15.9648   -8.1480  -15.2193 O   0  0  0  0  0  0  0  0  0  0  0  0
   18.2469   -8.6765  -15.1977 C   0  0  2  0  0  0  0  0  0  0  0  0
   18.0235  -10.0919  -15.2733 N   0  0  0  0  0  0  0  0  0  0  0  0
   18.2972   -8.3038  -13.7562 C   0  0  0  0  0  0  0  0  0  0  0  0
   17.9494   -9.1804  -12.9330 O   0  0  0  0  0  0  0  0  0  0  0  0
   18.7048   -7.0499  -13.2876 N   0  0  0  0  0  0  0  0  0  0  0  0
   18.8669   -6.7064  -11.8759 C   0  0  1  0  0  0  0  0  0  0  0  0
   20.2771   -6.2516  -11.5949 C   0  0  0  0  0  0  0  0  0  0  0  0
   21.2745   -7.3413  -11.6526 C   0  0  0  0  0  0  0  0  0  0  0  0
   21.9928   -7.6872  -12.7784 C   0  0  0  0  0  0  0  0  0  0  0  0
   22.9049   -8.7173  -12.7390 C   0  0  0  0  0  0  0  0  0  0  0  0
   23.1400   -9.4431  -11.5846 C   0  0  0  0  0  0  0  0  0  0  0  0
   22.4212   -9.0969  -10.4582 C   0  0  0  0  0  0  0  0  0  0  0  0
   21.5063   -8.0646  -10.4953 C   0  0  0  0  0  0  0  0  0  0  0  0
   17.8305   -5.7367  -11.4461 C   0  0  0  0  0  0  0  0  0  0  0  0
   17.5600   -4.7728  -12.2024 O   0  0  0  0  0  0  0  0  0  0  0  0
   17.1351   -5.8491  -10.2251 N   0  0  0  0  0  0  0  0  0  0  0  0
   16.0471   -4.8933   -9.9483 C   0  0  1  0  0  0  0  0  0  0  0  0
   15.2004   -5.4009   -8.8296 C   0  0  0  0  0  0  0  0  0  0  0  0
   14.0568   -4.4726   -8.5526 C   0  0  0  0  0  0  0  0  0  0  0  0
   13.2174   -4.9934   -7.3705 C   0  0  0  0  0  0  0  0  0  0  0  0
   12.1286   -3.9395   -7.1672 C   0  0  0  0  0  0  0  0  0  0  0  0
   11.1742   -4.3317   -6.1750 N   0  0  0  0  0  0  0  0  0  0  0  0
   16.6130   -3.5739   -9.6321 C   0  0  0  0  0  0  0  0  0  0  0  0
   17.7247   -3.5170   -9.0024 O   0  0  0  0  0  0  0  0  0  0  0  0
   16.0421   -2.3704   -9.9635 O   0  0  0  0  0  0  0  0  0  0  0  0
  2  1  1  6
  2  4  1  0
  3  2  1  0
  4  5  1  1
  4  6  1  0
  6  7  2  0
  8  6  1  0
  8  9  1  0
  9 10  1  6
 10 11  1  0
 11 12  2  0
 12 13  1  0
 14 13  2  0
 15 14  1  0
 16 11  1  0
 16 15  2  0
 17 19  1  0
 17  9  1  0
 18 17  2  0
 20 21  1  1
 20 19  1  0
 22 23  1  0
 22 21  1  0
 24 25  1  0
 24 23  1  0
 26 20  1  0
 26 28  1  0
 27 26  2  0
M  END
$$$$
