TFK.pdb
     RDKit          3D

 28 28  0  0  1  0  0  0  0  0999 V2000
   17.6616  -10.2297  -19.6770 C   0  0  0  0  0  0  0  0  0  0  0  0
   17.5773  -11.6079  -19.0789 C   0  0  1  0  0  0  0  0  0  0  0  0
   17.3214  -12.5892  -20.0147 O   0  0  0  0  0  0  0  0  0  0  0  0
   18.7863  -11.9946  -18.2861 C   0  0  2  0  0  0  0  0  0  0  0  0
   18.6890  -13.2962  -17.6902 N   0  0  0  0  0  0  0  0  0  0  0  0
   18.9396  -11.0039  -17.1841 C   0  0  0  0  0  0  0  0  0  0  0  0
   18.2052  -11.1551  -16.1816 O   0  0  0  0  0  0  0  0  0  0  0  0
   19.8438   -9.9365  -17.2138 N   0  0  0  0  0  0  0  0  0  0  0  0
   19.9842   -8.9407  -16.1528 C   0  0  1  0  0  0  0  0  0  0  0  0
   21.4317   -8.7751  -15.7632 C   0  0  0  0  0  0  0  0  0  0  0  0
   21.6608   -7.7003  -14.7743 C   0  0  0  0  0  0  0  0  0  0  0  0
   21.4648   -7.8312  -13.4151 C   0  0  0  0  0  0  0  0  0  0  0  0
   21.7066   -6.7744  -12.5670 C   0  0  0  0  0  0  0  0  0  0  0  0
   22.1511   -5.5495  -13.0321 C   0  0  0  0  0  0  0  0  0  0  0  0
   22.3473   -5.4185  -14.3921 C   0  0  0  0  0  0  0  0  0  0  0  0
   22.1055   -6.4765  -15.2443 C   0  0  0  0  0  0  0  0  0  0  0  0
   19.3187   -7.6702  -16.5295 C   0  0  0  0  0  0  0  0  0  0  0  0
   19.5753   -7.1676  -17.6501 O   0  0  0  0  0  0  0  0  0  0  0  0
   18.4101   -7.0012  -15.6846 N   0  0  0  0  0  0  0  0  0  0  0  0
   17.8882   -5.6911  -16.1150 C   0  0  1  0  0  0  0  0  0  0  0  0
   16.4832   -5.5257  -15.6407 C   0  0  0  0  0  0  0  0  0  0  0  0
   15.5474   -6.4153  -16.4017 C   0  0  0  0  0  0  0  0  0  0  0  0
   14.1183   -6.2975  -15.8383 C   0  0  0  0  0  0  0  0  0  0  0  0
   13.2714   -7.2155  -16.7201 C   0  0  0  0  0  0  0  0  0  0  0  0
   11.9252   -7.3293  -16.2469 N   0  0  0  0  0  0  0  0  0  0  0  0
   18.7534   -4.6187  -15.6025 C   0  0  0  0  0  0  0  0  0  0  0  0
   19.2137   -4.7161  -14.4133 O   0  0  0  0  0  0  0  0  0  0  0  0
   19.1216   -3.4984  -16.3049 O   0  0  0  0  0  0  0  0  0  0  0  0
  2  1  1  6
  2  4  1  0
  3  2  1  0
  4  5  1  1
  4  6  1  0
  6  7  2  0
  8  6  1  0
  8  9  1  0
  9 10  1  6
 10 11  1  0
 11 12  2  0
 12 13  1  0
 14 13  2  0
 15 14  1  0
 16 11  1  0
 16 15  2  0
 17 19  1  0
 17  9  1  0
 18 17  2  0
 20 21  1  1
 20 19  1  0
 22 23  1  0
 22 21  1  0
 24 25  1  0
 24 23  1  0
 26 20  1  0
 26 28  1  0
 27 26  2  0
M  END
$$$$
