TFK.pdb
     RDKit          3D

 28 28  0  0  1  0  0  0  0  0999 V2000
   26.2608  -19.7397  -17.1353 C   0  0  0  0  0  0  0  0  0  0  0  0
   27.1255  -20.9446  -17.3900 C   0  0  1  0  0  0  0  0  0  0  0  0
   27.9775  -20.7822  -18.4632 O   0  0  0  0  0  0  0  0  0  0  0  0
   27.9205  -21.3772  -16.1981 C   0  0  2  0  0  0  0  0  0  0  0  0
   28.5731  -22.6431  -16.3728 N   0  0  0  0  0  0  0  0  0  0  0  0
   26.9792  -21.5091  -15.0510 C   0  0  0  0  0  0  0  0  0  0  0  0
   26.3089  -22.5644  -14.9881 O   0  0  0  0  0  0  0  0  0  0  0  0
   26.8113  -20.5332  -14.0624 N   0  0  0  0  0  0  0  0  0  0  0  0
   25.9010  -20.6550  -12.9251 C   0  0  1  0  0  0  0  0  0  0  0  0
   26.4316  -19.8997  -11.7324 C   0  0  0  0  0  0  0  0  0  0  0  0
   27.6100  -20.5342  -11.1044 C   0  0  0  0  0  0  0  0  0  0  0  0
   27.5914  -21.1978   -9.8951 C   0  0  0  0  0  0  0  0  0  0  0  0
   28.7397  -21.7615   -9.3870 C   0  0  0  0  0  0  0  0  0  0  0  0
   29.9485  -21.6896  -10.0564 C   0  0  0  0  0  0  0  0  0  0  0  0
   29.9671  -21.0257  -11.2664 C   0  0  0  0  0  0  0  0  0  0  0  0
   28.8172  -20.4597  -11.7778 C   0  0  0  0  0  0  0  0  0  0  0  0
   24.5214  -20.2701  -13.3093 C   0  0  0  0  0  0  0  0  0  0  0  0
   24.3430  -19.1672  -13.8803 O   0  0  0  0  0  0  0  0  0  0  0  0
   23.4006  -21.0883  -13.0617 N   0  0  0  0  0  0  0  0  0  0  0  0
   22.0876  -20.6496  -13.5694 C   0  0  1  0  0  0  0  0  0  0  0  0
   21.6569  -21.5355  -14.6901 C   0  0  0  0  0  0  0  0  0  0  0  0
   20.6321  -22.5283  -14.2314 C   0  0  0  0  0  0  0  0  0  0  0  0
   20.2063  -23.4381  -15.3995 C   0  0  0  0  0  0  0  0  0  0  0  0
   19.1298  -24.3521  -14.8135 C   0  0  0  0  0  0  0  0  0  0  0  0
   18.5936  -25.2515  -15.7895 N   0  0  0  0  0  0  0  0  0  0  0  0
   21.1044  -20.6566  -12.4765 C   0  0  0  0  0  0  0  0  0  0  0  0
   21.4267  -21.1983  -11.3637 O   0  0  0  0  0  0  0  0  0  0  0  0
   19.8439  -20.1178  -12.5457 O   0  0  0  0  0  0  0  0  0  0  0  0
  2  1  1  1
  2  4  1  0
  3  2  1  0
  4  5  1  6
  4  6  1  0
  6  7  2  0
  8  6  1  0
  8  9  1  0
  9 10  1  1
 10 11  1  0
 11 12  2  0
 12 13  1  0
 14 13  2  0
 15 14  1  0
 16 11  1  0
 16 15  2  0
 17 19  1  0
 17  9  1  0
 18 17  2  0
 20 21  1  6
 20 19  1  0
 22 23  1  0
 22 21  1  0
 24 25  1  0
 24 23  1  0
 26 20  1  0
 26 28  1  0
 27 26  2  0
M  END
$$$$
