TFK.pdb
     RDKit          3D

 28 28  0  0  1  0  0  0  0  0999 V2000
   15.4729  -23.9575  -11.0271 C   0  0  0  0  0  0  0  0  0  0  0  0
   16.1693  -24.2076  -12.3374 C   0  0  1  0  0  0  0  0  0  0  0  0
   15.4550  -23.7503  -13.4258 O   0  0  0  0  0  0  0  0  0  0  0  0
   17.5572  -23.6508  -12.3969 C   0  0  2  0  0  0  0  0  0  0  0  0
   18.2996  -24.0829  -13.5461 N   0  0  0  0  0  0  0  0  0  0  0  0
   18.2853  -24.1222  -11.1857 C   0  0  0  0  0  0  0  0  0  0  0  0
   18.6547  -25.3182  -11.1777 O   0  0  0  0  0  0  0  0  0  0  0  0
   18.5701  -23.3118  -10.0811 N   0  0  0  0  0  0  0  0  0  0  0  0
   19.2743  -23.7638   -8.8824 C   0  0  1  0  0  0  0  0  0  0  0  0
   20.5048  -22.9268   -8.6377 C   0  0  0  0  0  0  0  0  0  0  0  0
   20.5677  -21.7067   -9.4702 C   0  0  0  0  0  0  0  0  0  0  0  0
   21.1603  -21.6364  -10.7139 C   0  0  0  0  0  0  0  0  0  0  0  0
   21.1695  -20.4551  -11.4204 C   0  0  0  0  0  0  0  0  0  0  0  0
   20.5927  -19.3001  -10.9226 C   0  0  0  0  0  0  0  0  0  0  0  0
   19.9998  -19.3705   -9.6781 C   0  0  0  0  0  0  0  0  0  0  0  0
   19.9894  -20.5536   -8.9681 C   0  0  0  0  0  0  0  0  0  0  0  0
   18.3543  -23.8256   -7.7211 C   0  0  0  0  0  0  0  0  0  0  0  0
   17.3109  -23.1292   -7.7443 O   0  0  0  0  0  0  0  0  0  0  0  0
   18.5993  -24.6322   -6.5913 N   0  0  0  0  0  0  0  0  0  0  0  0
   17.5286  -24.7757   -5.5878 C   0  0  1  0  0  0  0  0  0  0  0  0
   16.3188  -25.3766   -6.2214 C   0  0  0  0  0  0  0  0  0  0  0  0
   15.1908  -25.4827   -5.2404 C   0  0  0  0  0  0  0  0  0  0  0  0
   14.1162  -26.4559   -5.7617 C   0  0  0  0  0  0  0  0  0  0  0  0
   12.8845  -26.1801   -4.8990 C   0  0  0  0  0  0  0  0  0  0  0  0
   11.7654  -26.9873   -5.2798 N   0  0  0  0  0  0  0  0  0  0  0  0
   18.0059  -25.5966   -4.4656 C   0  0  0  0  0  0  0  0  0  0  0  0
   17.2734  -25.6959   -3.4219 O   0  0  0  0  0  0  0  0  0  0  0  0
   19.1936  -26.2841   -4.4399 O   0  0  0  0  0  0  0  0  0  0  0  0
  2  1  1  1
  2  4  1  0
  3  2  1  0
  4  5  1  6
  4  6  1  0
  6  7  2  0
  8  6  1  0
  8  9  1  0
  9 10  1  1
 10 11  1  0
 11 12  2  0
 12 13  1  0
 14 13  2  0
 15 14  1  0
 16 11  1  0
 16 15  2  0
 17 19  1  0
 17  9  1  0
 18 17  2  0
 20 21  1  6
 20 19  1  0
 22 23  1  0
 22 21  1  0
 24 25  1  0
 24 23  1  0
 26 20  1  0
 26 28  1  0
 27 26  2  0
M  END
$$$$
