TFK.pdb
     RDKit          3D

 28 28  0  0  1  0  0  0  0  0999 V2000
   28.2807  -19.4750  -18.7301 C   0  0  0  0  0  0  0  0  0  0  0  0
   27.4643  -19.9517  -17.5594 C   0  0  1  0  0  0  0  0  0  0  0  0
   26.1344  -20.1478  -17.8711 O   0  0  0  0  0  0  0  0  0  0  0  0
   28.0016  -21.1917  -16.9163 C   0  0  2  0  0  0  0  0  0  0  0  0
   27.9279  -22.3519  -17.7573 N   0  0  0  0  0  0  0  0  0  0  0  0
   27.1826  -21.4618  -15.7016 C   0  0  0  0  0  0  0  0  0  0  0  0
   26.4306  -22.4620  -15.7376 O   0  0  0  0  0  0  0  0  0  0  0  0
   27.2118  -20.6703  -14.5482 N   0  0  0  0  0  0  0  0  0  0  0  0
   26.4089  -20.9199  -13.3523 C   0  0  1  0  0  0  0  0  0  0  0  0
   26.9901  -20.2037  -12.1591 C   0  0  0  0  0  0  0  0  0  0  0  0
   26.1854  -20.3523  -10.9279 C   0  0  0  0  0  0  0  0  0  0  0  0
   25.2675  -19.4274  -10.4753 C   0  0  0  0  0  0  0  0  0  0  0  0
   24.5598  -19.6512   -9.3161 C   0  0  0  0  0  0  0  0  0  0  0  0
   24.7341  -20.7982   -8.5621 C   0  0  0  0  0  0  0  0  0  0  0  0
   25.6526  -21.7236   -9.0150 C   0  0  0  0  0  0  0  0  0  0  0  0
   26.3632  -21.5014  -10.1768 C   0  0  0  0  0  0  0  0  0  0  0  0
   24.9811  -20.6050  -13.5997 C   0  0  0  0  0  0  0  0  0  0  0  0
   24.6859  -19.4729  -14.0530 O   0  0  0  0  0  0  0  0  0  0  0  0
   23.9396  -21.5211  -13.3484 N   0  0  0  0  0  0  0  0  0  0  0  0
   22.5499  -21.0772  -13.5616 C   0  0  1  0  0  0  0  0  0  0  0  0
   21.8164  -22.0863  -14.3801 C   0  0  0  0  0  0  0  0  0  0  0  0
   21.8178  -21.7100  -15.8309 C   0  0  0  0  0  0  0  0  0  0  0  0
   21.0919  -22.7835  -16.6641 C   0  0  0  0  0  0  0  0  0  0  0  0
   21.1339  -22.2611  -18.1003 C   0  0  0  0  0  0  0  0  0  0  0  0
   20.5437  -23.1784  -19.0273 N   0  0  0  0  0  0  0  0  0  0  0  0
   21.8919  -20.8630  -12.2645 C   0  0  0  0  0  0  0  0  0  0  0  0
   20.9749  -19.9754  -12.1799 O   0  0  0  0  0  0  0  0  0  0  0  0
   22.1791  -21.5495  -11.1111 O   0  0  0  0  0  0  0  0  0  0  0  0
  2  1  1  6
  2  4  1  0
  3  2  1  0
  4  5  1  6
  4  6  1  0
  6  7  2  0
  8  6  1  0
  8  9  1  0
  9 10  1  1
 10 11  1  0
 11 12  2  0
 12 13  1  0
 14 13  2  0
 15 14  1  0
 16 11  1  0
 16 15  2  0
 17 19  1  0
 17  9  1  0
 18 17  2  0
 20 21  1  1
 20 19  1  0
 22 23  1  0
 22 21  1  0
 24 25  1  0
 24 23  1  0
 26 20  1  0
 26 28  1  0
 27 26  2  0
M  END
$$$$
