TFK.pdb
     RDKit          3D

 28 28  0  0  1  0  0  0  0  0999 V2000
   21.8877  -36.9232   -9.7399 C   0  0  0  0  0  0  0  0  0  0  0  0
   23.2080  -37.0670   -9.0323 C   0  0  1  0  0  0  0  0  0  0  0  0
   23.7616  -38.3235   -9.1699 O   0  0  0  0  0  0  0  0  0  0  0  0
   24.2212  -36.0418   -9.4350 C   0  0  2  0  0  0  0  0  0  0  0  0
   24.7620  -36.2544  -10.7470 N   0  0  0  0  0  0  0  0  0  0  0  0
   25.3489  -36.1157   -8.4644 C   0  0  0  0  0  0  0  0  0  0  0  0
   26.4039  -36.6583   -8.8637 O   0  0  0  0  0  0  0  0  0  0  0  0
   25.2881  -35.6194   -7.1575 N   0  0  0  0  0  0  0  0  0  0  0  0
   26.4219  -35.5736   -6.2359 C   0  0  1  0  0  0  0  0  0  0  0  0
   27.0288  -34.1933   -6.2030 C   0  0  0  0  0  0  0  0  0  0  0  0
   26.3433  -33.2227   -7.0825 C   0  0  0  0  0  0  0  0  0  0  0  0
   25.1429  -32.6100   -6.7880 C   0  0  0  0  0  0  0  0  0  0  0  0
   24.5781  -31.7150   -7.6680 C   0  0  0  0  0  0  0  0  0  0  0  0
   25.1798  -31.3932   -8.8718 C   0  0  0  0  0  0  0  0  0  0  0  0
   26.3808  -32.0064   -9.1664 C   0  0  0  0  0  0  0  0  0  0  0  0
   26.9490  -32.9039   -8.2857 C   0  0  0  0  0  0  0  0  0  0  0  0
   26.0371  -36.0881   -4.8993 C   0  0  0  0  0  0  0  0  0  0  0  0
   24.9161  -35.7704   -4.4339 O   0  0  0  0  0  0  0  0  0  0  0  0
   26.8748  -36.9186   -4.1276 N   0  0  0  0  0  0  0  0  0  0  0  0
   26.3801  -37.3929   -2.8221 C   0  0  1  0  0  0  0  0  0  0  0  0
   26.5983  -38.8640   -2.7025 C   0  0  0  0  0  0  0  0  0  0  0  0
   26.3533  -39.3349   -1.3010 C   0  0  0  0  0  0  0  0  0  0  0  0
   25.8457  -40.7895   -1.3048 C   0  0  0  0  0  0  0  0  0  0  0  0
   25.5934  -41.1216    0.1661 C   0  0  0  0  0  0  0  0  0  0  0  0
   25.0609  -42.4389    0.3398 N   0  0  0  0  0  0  0  0  0  0  0  0
   27.0569  -36.6640   -1.7395 C   0  0  0  0  0  0  0  0  0  0  0  0
   27.6899  -37.3319   -0.8513 O   0  0  0  0  0  0  0  0  0  0  0  0
   27.0723  -35.2990   -1.5965 O   0  0  0  0  0  0  0  0  0  0  0  0
  2  1  1  6
  2  4  1  0
  3  2  1  0
  4  5  1  6
  4  6  1  0
  6  7  2  0
  8  6  1  0
  8  9  1  0
  9 10  1  1
 10 11  1  0
 11 12  2  0
 12 13  1  0
 14 13  2  0
 15 14  1  0
 16 11  1  0
 16 15  2  0
 17 19  1  0
 17  9  1  0
 18 17  2  0
 20 21  1  1
 20 19  1  0
 22 23  1  0
 22 21  1  0
 24 25  1  0
 24 23  1  0
 26 20  1  0
 26 28  1  0
 27 26  2  0
M  END
$$$$
