TFK.pdb
     RDKit          3D

 28 28  0  0  1  0  0  0  0  0999 V2000
   28.0012   -8.3683  -23.0791 C   0  0  0  0  0  0  0  0  0  0  0  0
   27.1092   -8.8093  -21.9502 C   0  0  1  0  0  0  0  0  0  0  0  0
   25.9169   -9.3524  -22.3832 O   0  0  0  0  0  0  0  0  0  0  0  0
   27.7648   -9.7655  -21.0039 C   0  0  2  0  0  0  0  0  0  0  0  0
   28.0513  -11.0445  -21.5878 N   0  0  0  0  0  0  0  0  0  0  0  0
   26.8290   -9.9881  -19.8663 C   0  0  0  0  0  0  0  0  0  0  0  0
   26.1857  -11.0620  -19.8651 O   0  0  0  0  0  0  0  0  0  0  0  0
   26.6379   -9.0762  -18.8224 N   0  0  0  0  0  0  0  0  0  0  0  0
   25.9009   -9.3668  -17.5938 C   0  0  1  0  0  0  0  0  0  0  0  0
   26.8288   -9.3828  -16.4049 C   0  0  0  0  0  0  0  0  0  0  0  0
   27.5276  -10.6716  -16.2150 C   0  0  0  0  0  0  0  0  0  0  0  0
   28.7900  -10.9564  -16.6929 C   0  0  0  0  0  0  0  0  0  0  0  0
   29.3647  -12.1863  -16.4656 C   0  0  0  0  0  0  0  0  0  0  0  0
   28.7119  -13.1797  -15.7574 C   0  0  0  0  0  0  0  0  0  0  0  0
   27.4488  -12.8947  -15.2793 C   0  0  0  0  0  0  0  0  0  0  0  0
   26.8706  -11.6624  -15.5059 C   0  0  0  0  0  0  0  0  0  0  0  0
   24.7487   -8.4462  -17.4389 C   0  0  0  0  0  0  0  0  0  0  0  0
   24.9455   -7.2129  -17.5589 O   0  0  0  0  0  0  0  0  0  0  0  0
   23.4413   -8.8948  -17.1626 N   0  0  0  0  0  0  0  0  0  0  0  0
   22.3678   -7.8914  -17.0409 C   0  0  1  0  0  0  0  0  0  0  0  0
   21.0373   -8.5596  -17.1391 C   0  0  0  0  0  0  0  0  0  0  0  0
   19.9258   -7.5543  -17.1370 C   0  0  0  0  0  0  0  0  0  0  0  0
   18.5646   -8.2594  -17.2894 C   0  0  0  0  0  0  0  0  0  0  0  0
   17.5459   -7.1256  -17.4088 C   0  0  0  0  0  0  0  0  0  0  0  0
   17.0893   -6.6714  -16.1305 N   0  0  0  0  0  0  0  0  0  0  0  0
   22.5073   -7.1657  -15.7700 C   0  0  0  0  0  0  0  0  0  0  0  0
   22.2364   -5.9161  -15.7431 O   0  0  0  0  0  0  0  0  0  0  0  0
   22.9086   -7.7245  -14.5823 O   0  0  0  0  0  0  0  0  0  0  0  0
  2  1  1  6
  2  4  1  0
  3  2  1  0
  4  5  1  6
  4  6  1  0
  6  7  2  0
  8  6  1  0
  8  9  1  0
  9 10  1  1
 10 11  1  0
 11 12  2  0
 12 13  1  0
 14 13  2  0
 15 14  1  0
 16 11  1  0
 16 15  2  0
 17 19  1  0
 17  9  1  0
 18 17  2  0
 20 21  1  1
 20 19  1  0
 22 23  1  0
 22 21  1  0
 24 25  1  0
 24 23  1  0
 26 20  1  0
 26 28  1  0
 27 26  2  0
M  END
$$$$
