TFK.pdb
     RDKit          3D

 28 28  0  0  1  0  0  0  0  0999 V2000
   27.9890  -19.8115  -16.4127 C   0  0  0  0  0  0  0  0  0  0  0  0
   27.0732  -20.0874  -15.2509 C   0  0  1  0  0  0  0  0  0  0  0  0
   25.7575  -20.2619  -15.6286 O   0  0  0  0  0  0  0  0  0  0  0  0
   27.4981  -21.2527  -14.4135 C   0  0  2  0  0  0  0  0  0  0  0  0
   27.5074  -22.4980  -15.1262 N   0  0  0  0  0  0  0  0  0  0  0  0
   26.5258  -21.3815  -13.2922 C   0  0  0  0  0  0  0  0  0  0  0  0
   25.8263  -22.4193  -13.2667 O   0  0  0  0  0  0  0  0  0  0  0  0
   26.3596  -20.4208  -12.2885 N   0  0  0  0  0  0  0  0  0  0  0  0
   25.4236  -20.5432  -11.1722 C   0  0  1  0  0  0  0  0  0  0  0  0
   25.8051  -19.6108  -10.0500 C   0  0  0  0  0  0  0  0  0  0  0  0
   26.9697  -20.0723   -9.2650 C   0  0  0  0  0  0  0  0  0  0  0  0
   27.1650  -19.8103   -7.9248 C   0  0  0  0  0  0  0  0  0  0  0  0
   28.2812  -20.2837   -7.2732 C   0  0  0  0  0  0  0  0  0  0  0  0
   29.2453  -21.0335   -7.9235 C   0  0  0  0  0  0  0  0  0  0  0  0
   29.0499  -21.2956   -9.2645 C   0  0  0  0  0  0  0  0  0  0  0  0
   27.9317  -20.8221   -9.9198 C   0  0  0  0  0  0  0  0  0  0  0  0
   24.0246  -20.3780  -11.6356 C   0  0  0  0  0  0  0  0  0  0  0  0
   23.1006  -20.4408  -10.7891 O   0  0  0  0  0  0  0  0  0  0  0  0
   23.6859  -20.1534  -12.9853 N   0  0  0  0  0  0  0  0  0  0  0  0
   22.2581  -20.0811  -13.3463 C   0  0  1  0  0  0  0  0  0  0  0  0
   22.1171  -19.6573  -14.7699 C   0  0  0  0  0  0  0  0  0  0  0  0
   22.4268  -20.7877  -15.7039 C   0  0  0  0  0  0  0  0  0  0  0  0
   22.2878  -20.3275  -17.1676 C   0  0  0  0  0  0  0  0  0  0  0  0
   22.6432  -21.5585  -18.0020 C   0  0  0  0  0  0  0  0  0  0  0  0
   22.6021  -21.2899  -19.4074 N   0  0  0  0  0  0  0  0  0  0  0  0
   21.6196  -21.3845  -13.1125 C   0  0  0  0  0  0  0  0  0  0  0  0
   20.3424  -21.4479  -13.0912 O   0  0  0  0  0  0  0  0  0  0  0  0
   22.2885  -22.5665  -12.9139 O   0  0  0  0  0  0  0  0  0  0  0  0
  2  1  1  6
  2  4  1  0
  3  2  1  0
  4  5  1  6
  4  6  1  0
  6  7  2  0
  8  6  1  0
  8  9  1  0
  9 10  1  1
 10 11  1  0
 11 12  2  0
 12 13  1  0
 14 13  2  0
 15 14  1  0
 16 11  1  0
 16 15  2  0
 17 19  1  0
 17  9  1  0
 18 17  2  0
 20 21  1  6
 20 19  1  0
 22 23  1  0
 22 21  1  0
 24 25  1  0
 24 23  1  0
 26 20  1  0
 26 28  1  0
 27 26  2  0
M  END
$$$$
