TFK.pdb
     RDKit          3D

 28 28  0  0  1  0  0  0  0  0999 V2000
   26.5925  -23.3734  -18.6576 C   0  0  0  0  0  0  0  0  0  0  0  0
   27.2405  -22.0223  -18.5187 C   0  0  1  0  0  0  0  0  0  0  0  0
   26.3279  -20.9918  -18.4223 O   0  0  0  0  0  0  0  0  0  0  0  0
   28.2013  -21.9306  -17.3749 C   0  0  2  0  0  0  0  0  0  0  0  0
   29.2385  -22.9211  -17.4165 N   0  0  0  0  0  0  0  0  0  0  0  0
   27.4286  -22.1384  -16.1183 C   0  0  0  0  0  0  0  0  0  0  0  0
   27.1774  -23.3223  -15.7982 O   0  0  0  0  0  0  0  0  0  0  0  0
   26.9799  -21.0986  -15.2965 N   0  0  0  0  0  0  0  0  0  0  0  0
   26.1825  -21.2858  -14.0856 C   0  0  1  0  0  0  0  0  0  0  0  0
   26.4969  -20.2179  -13.0681 C   0  0  0  0  0  0  0  0  0  0  0  0
   25.7636  -20.3775  -11.7944 C   0  0  0  0  0  0  0  0  0  0  0  0
   24.4946  -19.8924  -11.5547 C   0  0  0  0  0  0  0  0  0  0  0  0
   23.8869  -20.0908  -10.3357 C   0  0  0  0  0  0  0  0  0  0  0  0
   24.5121  -20.7763   -9.3091 C   0  0  0  0  0  0  0  0  0  0  0  0
   25.7818  -21.2616   -9.5491 C   0  0  0  0  0  0  0  0  0  0  0  0
   26.3930  -21.0640  -10.7703 C   0  0  0  0  0  0  0  0  0  0  0  0
   24.7402  -21.3907  -14.4140 C   0  0  0  0  0  0  0  0  0  0  0  0
   24.2480  -20.5695  -15.2249 O   0  0  0  0  0  0  0  0  0  0  0  0
   23.8966  -22.3723  -13.8557 N   0  0  0  0  0  0  0  0  0  0  0  0
   22.4814  -22.3965  -14.2687 C   0  0  1  0  0  0  0  0  0  0  0  0
   21.9985  -23.8066  -14.3373 C   0  0  0  0  0  0  0  0  0  0  0  0
   22.8217  -24.6141  -15.2947 C   0  0  0  0  0  0  0  0  0  0  0  0
   22.4071  -26.0969  -15.2402 C   0  0  0  0  0  0  0  0  0  0  0  0
   23.3192  -26.7972  -16.2477 C   0  0  0  0  0  0  0  0  0  0  0  0
   23.0550  -28.2015  -16.3319 N   0  0  0  0  0  0  0  0  0  0  0  0
   21.6758  -21.6025  -13.3297 C   0  0  0  0  0  0  0  0  0  0  0  0
   20.4474  -21.3815  -13.6086 O   0  0  0  0  0  0  0  0  0  0  0  0
   22.1354  -21.0680  -12.1519 O   0  0  0  0  0  0  0  0  0  0  0  0
  2  1  1  1
  2  4  1  0
  3  2  1  0
  4  5  1  6
  4  6  1  0
  6  7  2  0
  8  6  1  0
  8  9  1  0
  9 10  1  1
 10 11  1  0
 11 12  2  0
 12 13  1  0
 14 13  2  0
 15 14  1  0
 16 11  1  0
 16 15  2  0
 17 19  1  0
 17  9  1  0
 18 17  2  0
 20 21  1  1
 20 19  1  0
 22 23  1  0
 22 21  1  0
 24 25  1  0
 24 23  1  0
 26 20  1  0
 26 28  1  0
 27 26  2  0
M  END
$$$$
