TFK.pdb
     RDKit          3D

 28 28  0  0  1  0  0  0  0  0999 V2000
   29.0128  -18.0976  -16.0781 C   0  0  0  0  0  0  0  0  0  0  0  0
   28.1051  -18.9152  -15.1993 C   0  0  1  0  0  0  0  0  0  0  0  0
   26.7790  -18.8411  -15.5736 O   0  0  0  0  0  0  0  0  0  0  0  0
   28.5027  -20.3544  -15.0975 C   0  0  2  0  0  0  0  0  0  0  0  0
   28.4513  -21.0535  -16.3494 N   0  0  0  0  0  0  0  0  0  0  0  0
   27.5487  -21.0218  -14.1681 C   0  0  0  0  0  0  0  0  0  0  0  0
   26.6073  -21.6624  -14.6882 O   0  0  0  0  0  0  0  0  0  0  0  0
   27.6508  -20.9690  -12.7736 N   0  0  0  0  0  0  0  0  0  0  0  0
   26.6909  -21.5711  -11.8499 C   0  0  1  0  0  0  0  0  0  0  0  0
   27.3641  -21.9599  -10.5576 C   0  0  0  0  0  0  0  0  0  0  0  0
   26.8692  -21.2121   -9.3823 C   0  0  0  0  0  0  0  0  0  0  0  0
   25.5462  -21.1432   -8.9976 C   0  0  0  0  0  0  0  0  0  0  0  0
   25.1763  -20.4229   -7.8846 C   0  0  0  0  0  0  0  0  0  0  0  0
   26.1014  -19.7443   -7.1111 C   0  0  0  0  0  0  0  0  0  0  0  0
   27.4251  -19.8133   -7.4961 C   0  0  0  0  0  0  0  0  0  0  0  0
   27.7983  -20.5347   -8.6116 C   0  0  0  0  0  0  0  0  0  0  0  0
   25.5112  -20.6914  -11.6668 C   0  0  0  0  0  0  0  0  0  0  0  0
   25.6913  -19.4513  -11.6034 O   0  0  0  0  0  0  0  0  0  0  0  0
   24.1955  -21.1861  -11.5608 N   0  0  0  0  0  0  0  0  0  0  0  0
   23.0876  -20.3365  -12.0349 C   0  0  1  0  0  0  0  0  0  0  0  0
   23.2167  -20.1101  -13.5040 C   0  0  0  0  0  0  0  0  0  0  0  0
   22.1379  -19.2000  -14.0078 C   0  0  0  0  0  0  0  0  0  0  0  0
   22.2716  -19.0006  -15.5296 C   0  0  0  0  0  0  0  0  0  0  0  0
   21.1560  -18.0218  -15.8972 C   0  0  0  0  0  0  0  0  0  0  0  0
   21.1467  -17.7120  -17.2946 N   0  0  0  0  0  0  0  0  0  0  0  0
   21.8013  -20.9664  -11.7037 C   0  0  0  0  0  0  0  0  0  0  0  0
   21.6863  -22.2336  -11.8331 O   0  0  0  0  0  0  0  0  0  0  0  0
   20.6886  -20.2997  -11.2546 O   0  0  0  0  0  0  0  0  0  0  0  0
  2  1  1  6
  2  4  1  0
  3  2  1  0
  4  5  1  6
  4  6  1  0
  6  7  2  0
  8  6  1  0
  8  9  1  0
  9 10  1  1
 10 11  1  0
 11 12  2  0
 12 13  1  0
 14 13  2  0
 15 14  1  0
 16 11  1  0
 16 15  2  0
 17 19  1  0
 17  9  1  0
 18 17  2  0
 20 21  1  6
 20 19  1  0
 22 23  1  0
 22 21  1  0
 24 25  1  0
 24 23  1  0
 26 20  1  0
 26 28  1  0
 27 26  2  0
M  END
$$$$
