TFK.pdb
     RDKit          3D

 28 28  0  0  1  0  0  0  0  0999 V2000
   23.9619  -21.9115  -13.0925 C   0  0  0  0  0  0  0  0  0  0  0  0
   24.7133  -20.6153  -13.2325 C   0  0  1  0  0  0  0  0  0  0  0  0
   24.1032  -19.5630  -12.5811 O   0  0  0  0  0  0  0  0  0  0  0  0
   26.1417  -20.6976  -12.7934 C   0  0  2  0  0  0  0  0  0  0  0  0
   26.8904  -21.7202  -13.4661 N   0  0  0  0  0  0  0  0  0  0  0  0
   26.1492  -21.0160  -11.3381 C   0  0  0  0  0  0  0  0  0  0  0  0
   26.0562  -22.2239  -11.0231 O   0  0  0  0  0  0  0  0  0  0  0  0
   26.2527  -20.0527  -10.3286 N   0  0  0  0  0  0  0  0  0  0  0  0
   26.3308  -20.3553   -8.9005 C   0  0  1  0  0  0  0  0  0  0  0  0
   27.2440  -19.3827   -8.1971 C   0  0  0  0  0  0  0  0  0  0  0  0
   27.4608  -19.6988   -6.7693 C   0  0  0  0  0  0  0  0  0  0  0  0
   26.9412  -18.9722   -5.7181 C   0  0  0  0  0  0  0  0  0  0  0  0
   27.1943  -19.3426   -4.4168 C   0  0  0  0  0  0  0  0  0  0  0  0
   27.9706  -20.4454   -4.1076 C   0  0  0  0  0  0  0  0  0  0  0  0
   28.4906  -21.1724   -5.1593 C   0  0  0  0  0  0  0  0  0  0  0  0
   28.2382  -20.8029   -6.4647 C   0  0  0  0  0  0  0  0  0  0  0  0
   24.9759  -20.4398   -8.3037 C   0  0  0  0  0  0  0  0  0  0  0  0
   24.1495  -19.5311   -8.5599 O   0  0  0  0  0  0  0  0  0  0  0  0
   24.5743  -21.4958   -7.4608 N   0  0  0  0  0  0  0  0  0  0  0  0
   23.1999  -21.4818   -6.9270 C   0  0  1  0  0  0  0  0  0  0  0  0
   22.6245  -22.8576   -6.9751 C   0  0  0  0  0  0  0  0  0  0  0  0
   21.1961  -22.8625   -6.5215 C   0  0  0  0  0  0  0  0  0  0  0  0
   20.6320  -24.2960   -6.5413 C   0  0  0  0  0  0  0  0  0  0  0  0
   19.1778  -24.1523   -6.0917 C   0  0  0  0  0  0  0  0  0  0  0  0
   18.4732  -25.3976   -6.1323 N   0  0  0  0  0  0  0  0  0  0  0  0
   23.2048  -20.9538   -5.5550 C   0  0  0  0  0  0  0  0  0  0  0  0
   24.2944  -20.9911   -4.8863 O   0  0  0  0  0  0  0  0  0  0  0  0
   22.1195  -20.4091   -4.9153 O   0  0  0  0  0  0  0  0  0  0  0  0
  2  1  1  1
  2  4  1  0
  3  2  1  0
  4  5  1  6
  4  6  1  0
  6  7  2  0
  8  6  1  0
  8  9  1  0
  9 10  1  1
 10 11  1  0
 11 12  2  0
 12 13  1  0
 14 13  2  0
 15 14  1  0
 16 11  1  0
 16 15  2  0
 17 19  1  0
 17  9  1  0
 18 17  2  0
 20 21  1  1
 20 19  1  0
 22 23  1  0
 22 21  1  0
 24 25  1  0
 24 23  1  0
 26 20  1  0
 26 28  1  0
 27 26  2  0
M  END
$$$$
