TFK.pdb
     RDKit          3D

 28 28  0  0  1  0  0  0  0  0999 V2000
   20.5244   -9.6151  -20.8038 C   0  0  0  0  0  0  0  0  0  0  0  0
   20.0036   -9.0603  -19.5056 C   0  0  1  0  0  0  0  0  0  0  0  0
   18.6346   -9.1767  -19.3778 O   0  0  0  0  0  0  0  0  0  0  0  0
   20.6574   -9.6484  -18.2946 C   0  0  2  0  0  0  0  0  0  0  0  0
   20.3813  -11.0450  -18.1151 N   0  0  0  0  0  0  0  0  0  0  0  0
   20.1312   -8.9273  -17.1020 C   0  0  0  0  0  0  0  0  0  0  0  0
   19.3701   -9.5692  -16.3433 O   0  0  0  0  0  0  0  0  0  0  0  0
   20.4390   -7.5972  -16.7951 N   0  0  0  0  0  0  0  0  0  0  0  0
   19.9852   -6.8985  -15.5938 C   0  0  1  0  0  0  0  0  0  0  0  0
   21.1394   -6.6381  -14.6587 C   0  0  0  0  0  0  0  0  0  0  0  0
   21.5694   -7.8318  -13.9000 C   0  0  0  0  0  0  0  0  0  0  0  0
   20.9768   -8.2760  -12.7362 C   0  0  0  0  0  0  0  0  0  0  0  0
   21.4440   -9.4020  -12.0971 C   0  0  0  0  0  0  0  0  0  0  0  0
   22.5146  -10.1299  -12.5856 C   0  0  0  0  0  0  0  0  0  0  0  0
   23.1075   -9.6853  -13.7501 C   0  0  0  0  0  0  0  0  0  0  0  0
   22.6409   -8.5568  -14.3926 C   0  0  0  0  0  0  0  0  0  0  0  0
   19.2189   -5.6798  -15.9495 C   0  0  0  0  0  0  0  0  0  0  0  0
   19.7922   -4.7829  -16.6138 O   0  0  0  0  0  0  0  0  0  0  0  0
   17.8743   -5.4834  -15.5746 N   0  0  0  0  0  0  0  0  0  0  0  0
   17.1869   -4.2666  -16.0447 C   0  0  1  0  0  0  0  0  0  0  0  0
   15.8431   -4.6224  -16.5869 C   0  0  0  0  0  0  0  0  0  0  0  0
   14.9955   -5.2821  -15.5417 C   0  0  0  0  0  0  0  0  0  0  0  0
   13.6614   -5.7528  -16.1516 C   0  0  0  0  0  0  0  0  0  0  0  0
   12.9262   -6.4437  -15.0028 C   0  0  0  0  0  0  0  0  0  0  0  0
   11.6038   -6.8482  -15.3722 N   0  0  0  0  0  0  0  0  0  0  0  0
   17.0780   -3.2999  -14.9426 C   0  0  0  0  0  0  0  0  0  0  0  0
   16.6412   -2.1251  -15.1968 O   0  0  0  0  0  0  0  0  0  0  0  0
   17.4083   -3.5538  -13.6347 O   0  0  0  0  0  0  0  0  0  0  0  0
  2  1  1  6
  2  4  1  0
  3  2  1  0
  4  5  1  1
  4  6  1  0
  6  7  2  0
  8  6  1  0
  8  9  1  0
  9 10  1  1
 10 11  1  0
 11 12  2  0
 12 13  1  0
 14 13  2  0
 15 14  1  0
 16 11  1  0
 16 15  2  0
 17 19  1  0
 17  9  1  0
 18 17  2  0
 20 21  1  1
 20 19  1  0
 22 23  1  0
 22 21  1  0
 24 25  1  0
 24 23  1  0
 26 20  1  0
 26 28  1  0
 27 26  2  0
M  END
$$$$
