TFK.pdb
     RDKit          3D

 28 28  0  0  1  0  0  0  0  0999 V2000
   21.1182  -17.2170  -15.7370 C   0  0  0  0  0  0  0  0  0  0  0  0
   22.0900  -17.0877  -16.8786 C   0  0  1  0  0  0  0  0  0  0  0  0
   21.9998  -15.8753  -17.5314 O   0  0  0  0  0  0  0  0  0  0  0  0
   23.5146  -17.3243  -16.4856 C   0  0  2  0  0  0  0  0  0  0  0  0
   24.4200  -17.3486  -17.5984 N   0  0  0  0  0  0  0  0  0  0  0  0
   23.5840  -18.6542  -15.8179 C   0  0  0  0  0  0  0  0  0  0  0  0
   23.6175  -19.6598  -16.5628 O   0  0  0  0  0  0  0  0  0  0  0  0
   23.6130  -18.8307  -14.4302 N   0  0  0  0  0  0  0  0  0  0  0  0
   23.6612  -20.1299  -13.7617 C   0  0  1  0  0  0  0  0  0  0  0  0
   24.7762  -20.1681  -12.7470 C   0  0  0  0  0  0  0  0  0  0  0  0
   26.1250  -20.0642  -13.3434 C   0  0  0  0  0  0  0  0  0  0  0  0
   26.8351  -18.8889  -13.4753 C   0  0  0  0  0  0  0  0  0  0  0  0
   28.0892  -18.8874  -14.0427 C   0  0  0  0  0  0  0  0  0  0  0  0
   28.6869  -20.0483  -14.5004 C   0  0  0  0  0  0  0  0  0  0  0  0
   27.9763  -21.2243  -14.3684 C   0  0  0  0  0  0  0  0  0  0  0  0
   26.7189  -21.2283  -13.7999 C   0  0  0  0  0  0  0  0  0  0  0  0
   22.3343  -20.4862  -13.2036 C   0  0  0  0  0  0  0  0  0  0  0  0
   21.8035  -19.7084  -12.3743 O   0  0  0  0  0  0  0  0  0  0  0  0
   21.6418  -21.6602  -13.5630 N   0  0  0  0  0  0  0  0  0  0  0  0
   20.2511  -21.8222  -13.1007 C   0  0  1  0  0  0  0  0  0  0  0  0
   19.3327  -21.0354  -13.9746 C   0  0  0  0  0  0  0  0  0  0  0  0
   17.9050  -21.2073  -13.5523 C   0  0  0  0  0  0  0  0  0  0  0  0
   16.9701  -20.4174  -14.4879 C   0  0  0  0  0  0  0  0  0  0  0  0
   15.7594  -21.3281  -14.6940 C   0  0  0  0  0  0  0  0  0  0  0  0
   14.7686  -20.7289  -15.5356 N   0  0  0  0  0  0  0  0  0  0  0  0
   19.8916  -23.2476  -13.0963 C   0  0  0  0  0  0  0  0  0  0  0  0
   20.4920  -24.0352  -13.9057 O   0  0  0  0  0  0  0  0  0  0  0  0
   18.9494  -23.8213  -12.2796 O   0  0  0  0  0  0  0  0  0  0  0  0
  2  1  1  1
  2  4  1  0
  3  2  1  0
  4  5  1  6
  4  6  1  0
  6  7  2  0
  8  6  1  0
  8  9  1  0
  9 10  1  1
 10 11  1  0
 11 12  2  0
 12 13  1  0
 14 13  2  0
 15 14  1  0
 16 11  1  0
 16 15  2  0
 17 19  1  0
 17  9  1  0
 18 17  2  0
 20 21  1  6
 20 19  1  0
 22 23  1  0
 22 21  1  0
 24 25  1  0
 24 23  1  0
 26 20  1  0
 26 28  1  0
 27 26  2  0
M  END
$$$$
