WIE.pdb
     RDKit          3D

 32 33  0  0  1  0  0  0  0  0999 V2000
   28.0846  -22.2165  -14.4565 N   0  0  0  0  0  0  0  0  0  0  0  0
   26.9769  -22.1573  -13.5434 C   0  0  1  0  0  0  0  0  0  0  0  0
   26.9026  -20.8260  -12.8255 C   0  0  0  0  0  0  0  0  0  0  0  0
   27.9376  -20.6952  -11.7756 C   0  0  0  0  0  0  0  0  0  0  0  0
   29.3034  -20.4961  -11.9299 C   0  0  0  0  0  0  0  0  0  0  0  0
   29.8965  -20.4370  -10.7227 N   0  0  0  0  0  0  0  0  0  0  0  0
   28.9640  -20.5911   -9.7614 C   0  0  0  0  0  0  0  0  0  0  0  0
   29.0525  -20.6066   -8.3814 C   0  0  0  0  0  0  0  0  0  0  0  0
   27.8793  -20.7881   -7.6779 C   0  0  0  0  0  0  0  0  0  0  0  0
   26.6469  -20.9508   -8.3080 C   0  0  0  0  0  0  0  0  0  0  0  0
   26.5846  -20.9319   -9.6772 C   0  0  0  0  0  0  0  0  0  0  0  0
   27.7504  -20.7512  -10.4023 C   0  0  0  0  0  0  0  0  0  0  0  0
   25.7081  -22.2974  -14.2928 C   0  0  0  0  0  0  0  0  0  0  0  0
   25.5529  -21.6237  -15.3382 O   0  0  0  0  0  0  0  0  0  0  0  0
   24.5954  -26.7595  -16.1480 C   0  0  0  0  0  0  0  0  0  0  0  0
   24.6616  -25.2516  -15.9774 C   0  0  0  0  0  0  0  0  0  0  0  0
   23.5090  -24.8367  -15.1162 C   0  0  2  0  0  0  0  0  0  0  0  0
   22.1779  -25.3069  -15.6487 C   0  0  0  0  0  0  0  0  0  0  0  0
   23.4911  -23.3734  -14.7614 C   0  0  2  0  0  0  0  0  0  0  0  0
   24.6546  -23.1580  -13.8881 N   0  0  0  0  0  0  0  0  0  0  0  0
   22.2778  -22.9177  -14.0802 C   0  0  0  0  0  0  0  0  0  0  0  0
   22.0470  -23.3000  -12.9089 O   0  0  0  0  0  0  0  0  0  0  0  0
   21.3585  -22.0462  -14.7336 N   0  0  0  0  0  0  0  0  0  0  0  0
   20.0928  -21.7455  -14.0227 C   0  0  1  0  0  0  0  0  0  0  0  0
   19.8517  -20.2937  -14.0905 C   0  0  0  0  0  0  0  0  0  0  0  0
   18.5723  -19.7436  -13.5799 C   0  0  0  0  0  0  0  0  0  0  0  0
   17.4075  -19.8482  -14.4796 C   0  0  0  0  0  0  0  0  0  0  0  0
   17.4897  -19.5956  -15.7119 O   0  0  0  0  0  0  0  0  0  0  0  0
   19.0510  -22.6804  -14.3868 C   0  0  0  0  0  0  0  0  0  0  0  0
   18.3390  -23.1703  -13.4315 O   0  0  0  0  0  0  0  0  0  0  0  0
   16.1752  -20.2375  -13.9832 O   0  0  0  0  0  0  0  0  0  0  0  0
   18.7011  -23.1262  -15.6385 O   0  0  0  0  0  0  0  0  0  0  0  0
  2  1  1  6
  2  3  1  0
  3  4  1  0
  4  5  2  0
  6  5  1  0
  7  6  1  0
  8  7  2  0
  9  8  1  0
 10  9  2  0
 10 11  1  0
 11 12  2  0
 12  7  1  0
 12  4  1  0
 13 14  2  0
 13  2  1  0
 15 16  1  0
 16 17  1  0
 17 19  1  0
 17 18  1  6
 19 20  1  1
 19 21  1  0
 20 13  1  0
 21 23  1  0
 22 21  2  0
 23 24  1  0
 24 25  1  6
 24 29  1  0
 26 25  1  0
 27 26  1  0
 28 27  2  0
 29 30  2  0
 29 32  1  0
 31 27  1  0
M  END
$$$$
