WIE.pdb
     RDKit          3D

 32 33  0  0  1  0  0  0  0  0999 V2000
   26.2316  -21.7011  -13.5452 N   0  0  0  0  0  0  0  0  0  0  0  0
   25.5287  -21.5036  -12.3077 C   0  0  1  0  0  0  0  0  0  0  0  0
   26.1415  -20.3958  -11.4765 C   0  0  0  0  0  0  0  0  0  0  0  0
   27.3923  -20.8203  -10.8090 C   0  0  0  0  0  0  0  0  0  0  0  0
   28.5171  -21.4062  -11.3753 C   0  0  0  0  0  0  0  0  0  0  0  0
   29.4379  -21.6439  -10.4224 N   0  0  0  0  0  0  0  0  0  0  0  0
   28.9607  -21.2326   -9.2306 C   0  0  0  0  0  0  0  0  0  0  0  0
   29.5062  -21.2512   -7.9598 C   0  0  0  0  0  0  0  0  0  0  0  0
   28.7347  -20.7390   -6.9367 C   0  0  0  0  0  0  0  0  0  0  0  0
   27.4589  -20.2200   -7.1497 C   0  0  0  0  0  0  0  0  0  0  0  0
   26.9397  -20.2126   -8.4182 C   0  0  0  0  0  0  0  0  0  0  0  0
   27.6973  -20.7220   -9.4594 C   0  0  0  0  0  0  0  0  0  0  0  0
   24.1353  -21.0908  -12.5889 C   0  0  0  0  0  0  0  0  0  0  0  0
   23.9246  -19.9159  -12.9710 O   0  0  0  0  0  0  0  0  0  0  0  0
   20.6465  -20.0657  -16.1581 C   0  0  0  0  0  0  0  0  0  0  0  0
   20.3817  -20.7448  -14.8254 C   0  0  0  0  0  0  0  0  0  0  0  0
   21.7009  -21.1642  -14.2545 C   0  0  2  0  0  0  0  0  0  0  0  0
   22.3750  -22.2446  -15.0636 C   0  0  0  0  0  0  0  0  0  0  0  0
   21.6675  -21.4951  -12.7858 C   0  0  2  0  0  0  0  0  0  0  0  0
   23.0216  -21.9591  -12.4481 N   0  0  0  0  0  0  0  0  0  0  0  0
   20.6914  -22.5179  -12.4051 C   0  0  0  0  0  0  0  0  0  0  0  0
   20.6200  -23.5798  -13.0673 O   0  0  0  0  0  0  0  0  0  0  0  0
   19.8235  -22.3190  -11.2921 N   0  0  0  0  0  0  0  0  0  0  0  0
   19.0587  -23.4958  -10.8146 C   0  0  1  0  0  0  0  0  0  0  0  0
   19.2402  -23.6115   -9.3571 C   0  0  0  0  0  0  0  0  0  0  0  0
   18.5056  -24.6640   -8.6134 C   0  0  0  0  0  0  0  0  0  0  0  0
   18.6211  -24.6301   -7.1427 C   0  0  0  0  0  0  0  0  0  0  0  0
   19.2274  -23.7031   -6.5409 O   0  0  0  0  0  0  0  0  0  0  0  0
   17.7343  -23.5320  -11.3945 C   0  0  0  0  0  0  0  0  0  0  0  0
   17.1339  -22.4046  -11.5627 O   0  0  0  0  0  0  0  0  0  0  0  0
   18.0522  -25.6318   -6.3750 O   0  0  0  0  0  0  0  0  0  0  0  0
   17.0106  -24.6248  -11.8067 O   0  0  0  0  0  0  0  0  0  0  0  0
  2  1  1  6
  2  3  1  0
  3  4  1  0
  4  5  2  0
  6  5  1  0
  7  6  1  0
  8  7  2  0
  9  8  1  0
 10  9  2  0
 10 11  1  0
 11 12  2  0
 12  7  1  0
 12  4  1  0
 13 14  2  0
 13  2  1  0
 15 16  1  0
 16 17  1  0
 17 19  1  0
 17 18  1  6
 19 20  1  6
 19 21  1  0
 20 13  1  0
 21 23  1  0
 22 21  2  0
 23 24  1  0
 24 25  1  1
 24 29  1  0
 26 25  1  0
 27 26  1  0
 28 27  2  0
 29 30  2  0
 29 32  1  0
 31 27  1  0
M  END
$$$$
