WIE.pdb
     RDKit          3D

 32 33  0  0  1  0  0  0  0  0999 V2000
   24.1554  -20.4534  -13.5078 N   0  0  0  0  0  0  0  0  0  0  0  0
   23.0121  -20.1304  -12.6998 C   0  0  1  0  0  0  0  0  0  0  0  0
   21.7097  -20.3956  -13.4257 C   0  0  0  0  0  0  0  0  0  0  0  0
   21.5106  -19.4833  -14.5740 C   0  0  0  0  0  0  0  0  0  0  0  0
   22.2128  -19.4367  -15.7714 C   0  0  0  0  0  0  0  0  0  0  0  0
   21.7222  -18.4553  -16.5515 N   0  0  0  0  0  0  0  0  0  0  0  0
   20.7083  -17.8416  -15.9091 C   0  0  0  0  0  0  0  0  0  0  0  0
   19.8852  -16.7910  -16.2713 C   0  0  0  0  0  0  0  0  0  0  0  0
   18.9246  -16.4015  -15.3604 C   0  0  0  0  0  0  0  0  0  0  0  0
   18.7710  -17.0243  -14.1231 C   0  0  0  0  0  0  0  0  0  0  0  0
   19.5991  -18.0635  -13.7865 C   0  0  0  0  0  0  0  0  0  0  0  0
   20.5700  -18.4700  -14.6863 C   0  0  0  0  0  0  0  0  0  0  0  0
   22.9985  -20.9885  -11.4937 C   0  0  0  0  0  0  0  0  0  0  0  0
   23.0972  -22.2292  -11.6408 O   0  0  0  0  0  0  0  0  0  0  0  0
   26.0020  -19.8208   -7.4869 C   0  0  0  0  0  0  0  0  0  0  0  0
   25.2166  -20.5726   -8.5477 C   0  0  0  0  0  0  0  0  0  0  0  0
   23.8318  -20.7931   -8.0226 C   0  0  2  0  0  0  0  0  0  0  0  0
   23.8122  -21.5323   -6.7075 C   0  0  0  0  0  0  0  0  0  0  0  0
   22.8744  -21.3889   -9.0205 C   0  0  2  0  0  0  0  0  0  0  0  0
   22.8793  -20.4778  -10.1749 N   0  0  0  0  0  0  0  0  0  0  0  0
   21.5027  -21.5569   -8.5365 C   0  0  0  0  0  0  0  0  0  0  0  0
   20.7735  -20.5485   -8.3860 O   0  0  0  0  0  0  0  0  0  0  0  0
   20.9894  -22.8519   -8.2352 N   0  0  0  0  0  0  0  0  0  0  0  0
   19.6021  -22.9238   -7.7174 C   0  0  1  0  0  0  0  0  0  0  0  0
   18.7715  -23.6380   -8.7025 C   0  0  0  0  0  0  0  0  0  0  0  0
   18.3933  -22.9579   -9.9654 C   0  0  0  0  0  0  0  0  0  0  0  0
   17.5405  -23.7248  -10.8937 C   0  0  0  0  0  0  0  0  0  0  0  0
   17.1140  -23.2312  -11.9724 O   0  0  0  0  0  0  0  0  0  0  0  0
   19.5811  -23.3081   -6.3233 C   0  0  0  0  0  0  0  0  0  0  0  0
   20.6585  -23.8207   -5.8373 O   0  0  0  0  0  0  0  0  0  0  0  0
   17.1858  -25.0299  -10.5985 O   0  0  0  0  0  0  0  0  0  0  0  0
   18.5514  -23.1960   -5.4205 O   0  0  0  0  0  0  0  0  0  0  0  0
  2  1  1  6
  2  3  1  0
  3  4  1  0
  4  5  2  0
  6  5  1  0
  7  6  1  0
  8  7  2  0
  9  8  1  0
 10  9  2  0
 10 11  1  0
 11 12  2  0
 12  7  1  0
 12  4  1  0
 13 14  2  0
 13  2  1  0
 15 16  1  0
 16 17  1  0
 17 19  1  0
 17 18  1  1
 19 20  1  6
 19 21  1  0
 20 13  1  0
 21 23  1  0
 22 21  2  0
 23 24  1  0
 24 25  1  6
 24 29  1  0
 26 25  1  0
 27 26  1  0
 28 27  2  0
 29 30  2  0
 29 32  1  0
 31 27  1  0
M  END
$$$$
