WIE.pdb
     RDKit          3D

 32 33  0  0  1  0  0  0  0  0999 V2000
   24.9522  -19.8517  -16.6576 N   0  0  0  0  0  0  0  0  0  0  0  0
   23.8857  -19.3871  -15.8143 C   0  0  1  0  0  0  0  0  0  0  0  0
   22.5892  -19.2185  -16.5784 C   0  0  0  0  0  0  0  0  0  0  0  0
   22.6320  -18.0705  -17.5115 C   0  0  0  0  0  0  0  0  0  0  0  0
   23.2282  -17.9977  -18.7639 C   0  0  0  0  0  0  0  0  0  0  0  0
   23.0447  -16.7710  -19.2873 N   0  0  0  0  0  0  0  0  0  0  0  0
   22.3404  -16.0180  -18.4189 C   0  0  0  0  0  0  0  0  0  0  0  0
   21.8954  -14.7099  -18.4787 C   0  0  0  0  0  0  0  0  0  0  0  0
   21.1837  -14.2375  -17.3949 C   0  0  0  0  0  0  0  0  0  0  0  0
   20.9125  -15.0249  -16.2775 C   0  0  0  0  0  0  0  0  0  0  0  0
   21.3643  -16.3185  -16.2413 C   0  0  0  0  0  0  0  0  0  0  0  0
   22.0806  -16.8124  -17.3186 C   0  0  0  0  0  0  0  0  0  0  0  0
   23.6182  -20.3871  -14.7563 C   0  0  0  0  0  0  0  0  0  0  0  0
   23.6793  -21.6033  -15.0529 O   0  0  0  0  0  0  0  0  0  0  0  0
   25.8544  -20.2207   -9.9827 C   0  0  0  0  0  0  0  0  0  0  0  0
   25.2644  -20.6140  -11.3260 C   0  0  0  0  0  0  0  0  0  0  0  0
   23.7751  -20.6590  -11.1770 C   0  0  2  0  0  0  0  0  0  0  0  0
   23.3290  -21.4300   -9.9592 C   0  0  0  0  0  0  0  0  0  0  0  0
   23.0372  -21.0860  -12.4182 C   0  0  2  0  0  0  0  0  0  0  0  0
   23.2954  -20.0394  -13.4187 N   0  0  0  0  0  0  0  0  0  0  0  0
   21.5926  -21.2557  -12.2505 C   0  0  0  0  0  0  0  0  0  0  0  0
   20.8756  -20.2530  -12.0233 O   0  0  0  0  0  0  0  0  0  0  0  0
   20.9946  -22.5463  -12.3424 N   0  0  0  0  0  0  0  0  0  0  0  0
   19.5294  -22.6271  -12.1316 C   0  0  1  0  0  0  0  0  0  0  0  0
   18.9936  -23.7059  -12.9800 C   0  0  0  0  0  0  0  0  0  0  0  0
   17.5554  -24.0575  -12.8889 C   0  0  0  0  0  0  0  0  0  0  0  0
   17.0871  -25.1397  -13.7759 C   0  0  0  0  0  0  0  0  0  0  0  0
   17.8686  -25.7543  -14.5508 O   0  0  0  0  0  0  0  0  0  0  0  0
   19.1968  -22.5655  -10.7254 C   0  0  0  0  0  0  0  0  0  0  0  0
   18.0777  -22.0117  -10.4086 O   0  0  0  0  0  0  0  0  0  0  0  0
   15.7547  -25.5152  -13.7747 O   0  0  0  0  0  0  0  0  0  0  0  0
   19.9207  -23.0305   -9.6542 O   0  0  0  0  0  0  0  0  0  0  0  0
  2  1  1  6
  2  3  1  0
  3  4  1  0
  4  5  2  0
  6  5  1  0
  7  6  1  0
  8  7  2  0
  9  8  1  0
 10  9  2  0
 10 11  1  0
 11 12  2  0
 12  7  1  0
 12  4  1  0
 13 14  2  0
 13  2  1  0
 15 16  1  0
 16 17  1  0
 17 19  1  0
 17 18  1  1
 19 20  1  6
 19 21  1  0
 20 13  1  0
 21 23  1  0
 22 21  2  0
 23 24  1  0
 24 25  1  1
 24 29  1  0
 26 25  1  0
 27 26  1  0
 28 27  2  0
 29 30  2  0
 29 32  1  0
 31 27  1  0
M  END
$$$$
