WIE.pdb
     RDKit          3D

 32 33  0  0  1  0  0  0  0  0999 V2000
   27.3971  -18.6520   -8.9926 N   0  0  0  0  0  0  0  0  0  0  0  0
   27.0981  -20.0061   -9.3686 C   0  0  1  0  0  0  0  0  0  0  0  0
   26.3591  -20.7495   -8.2756 C   0  0  0  0  0  0  0  0  0  0  0  0
   26.9097  -20.4654   -6.9315 C   0  0  0  0  0  0  0  0  0  0  0  0
   26.2655  -19.9064   -5.8353 C   0  0  0  0  0  0  0  0  0  0  0  0
   27.1220  -19.8114   -4.8009 N   0  0  0  0  0  0  0  0  0  0  0  0
   28.3247  -20.2923   -5.1741 C   0  0  0  0  0  0  0  0  0  0  0  0
   29.5219  -20.4184   -4.4932 C   0  0  0  0  0  0  0  0  0  0  0  0
   30.5836  -20.9662   -5.1839 C   0  0  0  0  0  0  0  0  0  0  0  0
   30.4787  -21.3817   -6.5100 C   0  0  0  0  0  0  0  0  0  0  0  0
   29.2816  -21.2464   -7.1638 C   0  0  0  0  0  0  0  0  0  0  0  0
   28.2034  -20.6990   -6.4891 C   0  0  0  0  0  0  0  0  0  0  0  0
   26.2057  -20.0076  -10.5496 C   0  0  0  0  0  0  0  0  0  0  0  0
   25.1539  -19.3275  -10.5059 O   0  0  0  0  0  0  0  0  0  0  0  0
   29.0579  -19.7799  -14.9689 C   0  0  0  0  0  0  0  0  0  0  0  0
   28.0428  -19.5144  -13.8706 C   0  0  0  0  0  0  0  0  0  0  0  0
   26.9079  -20.4740  -14.0536 C   0  0  2  0  0  0  0  0  0  0  0  0
   26.3378  -20.4510  -15.4503 C   0  0  0  0  0  0  0  0  0  0  0  0
   25.8337  -20.3765  -13.0028 C   0  0  2  0  0  0  0  0  0  0  0  0
   26.4801  -20.7412  -11.7331 N   0  0  0  0  0  0  0  0  0  0  0  0
   24.6719  -21.2394  -13.2251 C   0  0  0  0  0  0  0  0  0  0  0  0
   24.8040  -22.4837  -13.1506 O   0  0  0  0  0  0  0  0  0  0  0  0
   23.3955  -20.6807  -13.5248 N   0  0  0  0  0  0  0  0  0  0  0  0
   22.2644  -21.6267  -13.6783 C   0  0  1  0  0  0  0  0  0  0  0  0
   21.1759  -21.2039  -12.7800 C   0  0  0  0  0  0  0  0  0  0  0  0
   19.8915  -21.9460  -12.7933 C   0  0  0  0  0  0  0  0  0  0  0  0
   19.1440  -21.9410  -14.0655 C   0  0  0  0  0  0  0  0  0  0  0  0
   18.6140  -20.8938  -14.5254 O   0  0  0  0  0  0  0  0  0  0  0  0
   21.9989  -21.9062  -15.0722 C   0  0  0  0  0  0  0  0  0  0  0  0
   21.8394  -23.1403  -15.4055 O   0  0  0  0  0  0  0  0  0  0  0  0
   19.0086  -23.1068  -14.7996 O   0  0  0  0  0  0  0  0  0  0  0  0
   21.8844  -21.0196  -16.1156 O   0  0  0  0  0  0  0  0  0  0  0  0
  2  1  1  1
  2  3  1  0
  3  4  1  0
  4  5  2  0
  6  5  1  0
  7  6  1  0
  8  7  2  0
  9  8  1  0
 10  9  2  0
 10 11  1  0
 11 12  2  0
 12  7  1  0
 12  4  1  0
 13 14  2  0
 13  2  1  0
 15 16  1  0
 16 17  1  0
 17 19  1  0
 17 18  1  6
 19 20  1  1
 19 21  1  0
 20 13  1  0
 21 23  1  0
 22 21  2  0
 23 24  1  0
 24 25  1  6
 24 29  1  0
 26 25  1  0
 27 26  1  0
 28 27  2  0
 29 30  2  0
 29 32  1  0
 31 27  1  0
M  END
$$$$
