WIE.pdb
     RDKit          3D

 32 33  0  0  1  0  0  0  0  0999 V2000
   25.2126  -19.9592  -15.8601 N   0  0  0  0  0  0  0  0  0  0  0  0
   24.0639  -19.5169  -15.1191 C   0  0  1  0  0  0  0  0  0  0  0  0
   22.8204  -19.4556  -15.9813 C   0  0  0  0  0  0  0  0  0  0  0  0
   22.9629  -18.5042  -17.1061 C   0  0  0  0  0  0  0  0  0  0  0  0
   23.4656  -18.7415  -18.3790 C   0  0  0  0  0  0  0  0  0  0  0  0
   23.4281  -17.6079  -19.1042 N   0  0  0  0  0  0  0  0  0  0  0  0
   22.9130  -16.6154  -18.3514 C   0  0  0  0  0  0  0  0  0  0  0  0
   22.6655  -15.2821  -18.6229 C   0  0  0  0  0  0  0  0  0  0  0  0
   22.1176  -14.5247  -17.6077 C   0  0  0  0  0  0  0  0  0  0  0  0
   21.8181  -15.0574  -16.3552 C   0  0  0  0  0  0  0  0  0  0  0  0
   22.0726  -16.3817  -16.1100 C   0  0  0  0  0  0  0  0  0  0  0  0
   22.6224  -17.1596  -17.1150 C   0  0  0  0  0  0  0  0  0  0  0  0
   23.7713  -20.4812  -14.0348 C   0  0  0  0  0  0  0  0  0  0  0  0
   23.6620  -21.6951  -14.3268 O   0  0  0  0  0  0  0  0  0  0  0  0
   25.9599  -19.9818   -9.2119 C   0  0  0  0  0  0  0  0  0  0  0  0
   25.4321  -20.5502  -10.5179 C   0  0  0  0  0  0  0  0  0  0  0  0
   23.9446  -20.6723  -10.3968 C   0  0  2  0  0  0  0  0  0  0  0  0
   23.5171  -21.4955   -9.2068 C   0  0  0  0  0  0  0  0  0  0  0  0
   23.2496  -21.1029  -11.6613 C   0  0  2  0  0  0  0  0  0  0  0  0
   23.6078  -20.1016  -12.6771 N   0  0  0  0  0  0  0  0  0  0  0  0
   21.7919  -21.1993  -11.5630 C   0  0  0  0  0  0  0  0  0  0  0  0
   21.1120  -20.1548  -11.4286 O   0  0  0  0  0  0  0  0  0  0  0  0
   21.1395  -22.4653  -11.6181 N   0  0  0  0  0  0  0  0  0  0  0  0
   19.6635  -22.4700  -11.4796 C   0  0  1  0  0  0  0  0  0  0  0  0
   19.0984  -23.3408  -12.5250 C   0  0  0  0  0  0  0  0  0  0  0  0
   17.6386  -23.6037  -12.5428 C   0  0  0  0  0  0  0  0  0  0  0  0
   17.1423  -24.4772  -13.6236 C   0  0  0  0  0  0  0  0  0  0  0  0
   17.9010  -24.9170  -14.5292 O   0  0  0  0  0  0  0  0  0  0  0  0
   19.2661  -22.6287  -10.0981 C   0  0  0  0  0  0  0  0  0  0  0  0
   18.0258  -22.4261   -9.8150 O   0  0  0  0  0  0  0  0  0  0  0  0
   15.8083  -24.8443  -13.6667 O   0  0  0  0  0  0  0  0  0  0  0  0
   20.0421  -22.9792   -9.0197 O   0  0  0  0  0  0  0  0  0  0  0  0
  2  1  1  6
  2  3  1  0
  3  4  1  0
  4  5  2  0
  6  5  1  0
  7  6  1  0
  8  7  2  0
  9  8  1  0
 10  9  2  0
 10 11  1  0
 11 12  2  0
 12  7  1  0
 12  4  1  0
 13 14  2  0
 13  2  1  0
 15 16  1  0
 16 17  1  0
 17 19  1  0
 17 18  1  1
 19 20  1  6
 19 21  1  0
 20 13  1  0
 21 23  1  0
 22 21  2  0
 23 24  1  0
 24 25  1  6
 24 29  1  0
 26 25  1  0
 27 26  1  0
 28 27  2  0
 29 30  2  0
 29 32  1  0
 31 27  1  0
M  END
$$$$
