WIE.pdb
     RDKit          3D

 32 33  0  0  1  0  0  0  0  0999 V2000
   28.4013  -20.2203  -14.7340 N   0  0  0  0  0  0  0  0  0  0  0  0
   27.4760  -19.5062  -13.8984 C   0  0  1  0  0  0  0  0  0  0  0  0
   26.3872  -18.8297  -14.7048 C   0  0  0  0  0  0  0  0  0  0  0  0
   26.7980  -17.4951  -15.1952 C   0  0  0  0  0  0  0  0  0  0  0  0
   26.9077  -16.3091  -14.4808 C   0  0  0  0  0  0  0  0  0  0  0  0
   27.3082  -15.3177  -15.2989 N   0  0  0  0  0  0  0  0  0  0  0  0
   27.4704  -15.8073  -16.5443 C   0  0  0  0  0  0  0  0  0  0  0  0
   27.8638  -15.2107  -17.7284 C   0  0  0  0  0  0  0  0  0  0  0  0
   27.9293  -16.0161  -18.8470 C   0  0  0  0  0  0  0  0  0  0  0  0
   27.6178  -17.3740  -18.8103 C   0  0  0  0  0  0  0  0  0  0  0  0
   27.2303  -17.9426  -17.6248 C   0  0  0  0  0  0  0  0  0  0  0  0
   27.1577  -17.1521  -16.4902 C   0  0  0  0  0  0  0  0  0  0  0  0
   26.7929  -20.4552  -12.9907 C   0  0  0  0  0  0  0  0  0  0  0  0
   26.5376  -21.6078  -13.4117 O   0  0  0  0  0  0  0  0  0  0  0  0
   27.0152  -20.1091   -7.5847 C   0  0  0  0  0  0  0  0  0  0  0  0
   26.9509  -20.7971   -8.9374 C   0  0  0  0  0  0  0  0  0  0  0  0
   25.5746  -20.5929   -9.4906 C   0  0  2  0  0  0  0  0  0  0  0  0
   24.4994  -21.2231   -8.6403 C   0  0  0  0  0  0  0  0  0  0  0  0
   25.4280  -20.9523  -10.9456 C   0  0  2  0  0  0  0  0  0  0  0  0
   26.4109  -20.1270  -11.6638 N   0  0  0  0  0  0  0  0  0  0  0  0
   24.0952  -20.7243  -11.5071 C   0  0  0  0  0  0  0  0  0  0  0  0
   23.6992  -19.5508  -11.6999 O   0  0  0  0  0  0  0  0  0  0  0  0
   23.2452  -21.8203  -11.8356 N   0  0  0  0  0  0  0  0  0  0  0  0
   21.9292  -21.4965  -12.4366 C   0  0  1  0  0  0  0  0  0  0  0  0
   21.8219  -22.1929  -13.7304 C   0  0  0  0  0  0  0  0  0  0  0  0
   20.5532  -22.1163  -14.4953 C   0  0  0  0  0  0  0  0  0  0  0  0
   20.5066  -22.8659  -15.7654 C   0  0  0  0  0  0  0  0  0  0  0  0
   21.4945  -23.5237  -16.1903 O   0  0  0  0  0  0  0  0  0  0  0  0
   20.8672  -21.5949  -11.4598 C   0  0  0  0  0  0  0  0  0  0  0  0
   21.1058  -22.2840  -10.3977 O   0  0  0  0  0  0  0  0  0  0  0  0
   19.3541  -22.8681  -16.5323 O   0  0  0  0  0  0  0  0  0  0  0  0
   19.6114  -21.0391  -11.5027 O   0  0  0  0  0  0  0  0  0  0  0  0
  2  1  1  6
  2  3  1  0
  3  4  1  0
  4  5  2  0
  6  5  1  0
  7  6  1  0
  8  7  2  0
  9  8  1  0
 10  9  2  0
 10 11  1  0
 11 12  2  0
 12  7  1  0
 12  4  1  0
 13 14  2  0
 13  2  1  0
 15 16  1  0
 16 17  1  0
 17 19  1  0
 17 18  1  1
 19 20  1  6
 19 21  1  0
 20 13  1  0
 21 23  1  0
 22 21  2  0
 23 24  1  0
 24 25  1  6
 24 29  1  0
 26 25  1  0
 27 26  1  0
 28 27  2  0
 29 30  2  0
 29 32  1  0
 31 27  1  0
M  END
$$$$
