WIE.pdb
     RDKit          3D

 32 33  0  0  1  0  0  0  0  0999 V2000
   27.7164  -19.9303  -11.5936 N   0  0  0  0  0  0  0  0  0  0  0  0
   26.6892  -20.9345  -11.6232 C   0  0  1  0  0  0  0  0  0  0  0  0
   26.2355  -21.3246  -10.2320 C   0  0  0  0  0  0  0  0  0  0  0  0
   27.1464  -20.8180   -9.1812 C   0  0  0  0  0  0  0  0  0  0  0  0
   26.9117  -19.8221   -8.2421 C   0  0  0  0  0  0  0  0  0  0  0  0
   28.0008  -19.6575   -7.4679 N   0  0  0  0  0  0  0  0  0  0  0  0
   28.9609  -20.5175   -7.8627 C   0  0  0  0  0  0  0  0  0  0  0  0
   30.2444  -20.7459   -7.4011 C   0  0  0  0  0  0  0  0  0  0  0  0
   30.9789  -21.7225   -8.0423 C   0  0  0  0  0  0  0  0  0  0  0  0
   30.4714  -22.4597   -9.1106 C   0  0  0  0  0  0  0  0  0  0  0  0
   29.1964  -22.2149   -9.5504 C   0  0  0  0  0  0  0  0  0  0  0  0
   28.4422  -21.2390   -8.9208 C   0  0  0  0  0  0  0  0  0  0  0  0
   25.4946  -20.4021  -12.3164 C   0  0  0  0  0  0  0  0  0  0  0  0
   25.1838  -19.2013  -12.1367 O   0  0  0  0  0  0  0  0  0  0  0  0
   25.2739  -18.1734  -16.8678 C   0  0  0  0  0  0  0  0  0  0  0  0
   24.1945  -19.0069  -16.1988 C   0  0  0  0  0  0  0  0  0  0  0  0
   24.8329  -19.7715  -15.0808 C   0  0  2  0  0  0  0  0  0  0  0  0
   25.9877  -20.6279  -15.5382 C   0  0  0  0  0  0  0  0  0  0  0  0
   23.8658  -20.5396  -14.2192 C   0  0  2  0  0  0  0  0  0  0  0  0
   24.6801  -21.1830  -13.1772 N   0  0  0  0  0  0  0  0  0  0  0  0
   23.0828  -21.5560  -14.9245 C   0  0  0  0  0  0  0  0  0  0  0  0
   23.5624  -22.7029  -15.0855 O   0  0  0  0  0  0  0  0  0  0  0  0
   21.7841  -21.2557  -15.4292 N   0  0  0  0  0  0  0  0  0  0  0  0
   20.6759  -22.1485  -15.0137 C   0  0  1  0  0  0  0  0  0  0  0  0
   20.7215  -22.3000  -13.5489 C   0  0  0  0  0  0  0  0  0  0  0  0
   19.7478  -23.1965  -12.8792 C   0  0  0  0  0  0  0  0  0  0  0  0
   19.7971  -23.2344  -11.4049 C   0  0  0  0  0  0  0  0  0  0  0  0
   19.9688  -24.3093  -10.7691 O   0  0  0  0  0  0  0  0  0  0  0  0
   19.4402  -21.7956  -15.6770 C   0  0  0  0  0  0  0  0  0  0  0  0
   19.2342  -20.5459  -15.9125 O   0  0  0  0  0  0  0  0  0  0  0  0
   19.6577  -22.0683  -10.6721 O   0  0  0  0  0  0  0  0  0  0  0  0
   18.4330  -22.6254  -16.1070 O   0  0  0  0  0  0  0  0  0  0  0  0
  2  1  1  1
  2  3  1  0
  3  4  1  0
  4  5  2  0
  6  5  1  0
  7  6  1  0
  8  7  2  0
  9  8  1  0
 10  9  2  0
 10 11  1  0
 11 12  2  0
 12  7  1  0
 12  4  1  0
 13 14  2  0
 13  2  1  0
 15 16  1  0
 16 17  1  0
 17 19  1  0
 17 18  1  6
 19 20  1  1
 19 21  1  0
 20 13  1  0
 21 23  1  0
 22 21  2  0
 23 24  1  0
 24 25  1  1
 24 29  1  0
 26 25  1  0
 27 26  1  0
 28 27  2  0
 29 30  2  0
 29 32  1  0
 31 27  1  0
M  END
$$$$
