WIE.pdb
     RDKit          3D

 32 33  0  0  1  0  0  0  0  0999 V2000
   28.0904  -19.7312   -9.8836 N   0  0  0  0  0  0  0  0  0  0  0  0
   27.0769  -20.7496   -9.8677 C   0  0  1  0  0  0  0  0  0  0  0  0
   26.1955  -20.6551   -8.6399 C   0  0  0  0  0  0  0  0  0  0  0  0
   26.9168  -20.1027   -7.4715 C   0  0  0  0  0  0  0  0  0  0  0  0
   26.6889  -18.9069   -6.8027 C   0  0  0  0  0  0  0  0  0  0  0  0
   27.5697  -18.7722   -5.7935 N   0  0  0  0  0  0  0  0  0  0  0  0
   28.3832  -19.8467   -5.7671 C   0  0  0  0  0  0  0  0  0  0  0  0
   29.4364  -20.1890   -4.9386 C   0  0  0  0  0  0  0  0  0  0  0  0
   30.0699  -21.3889   -5.1898 C   0  0  0  0  0  0  0  0  0  0  0  0
   29.6837  -22.2359   -6.2270 C   0  0  0  0  0  0  0  0  0  0  0  0
   28.6369  -21.8748   -7.0349 C   0  0  0  0  0  0  0  0  0  0  0  0
   27.9874  -20.6746   -6.8002 C   0  0  0  0  0  0  0  0  0  0  0  0
   26.1835  -20.5788  -11.0355 C   0  0  0  0  0  0  0  0  0  0  0  0
   25.9908  -19.4220  -11.4776 O   0  0  0  0  0  0  0  0  0  0  0  0
   27.3973  -23.0176  -15.2163 C   0  0  0  0  0  0  0  0  0  0  0  0
   26.8768  -22.0139  -14.2020 C   0  0  0  0  0  0  0  0  0  0  0  0
   25.4285  -22.3111  -13.9646 C   0  0  2  0  0  0  0  0  0  0  0  0
   24.6239  -22.3718  -15.2395 C   0  0  0  0  0  0  0  0  0  0  0  0
   24.7755  -21.4392  -12.9249 C   0  0  2  0  0  0  0  0  0  0  0  0
   25.5317  -21.6605  -11.6831 N   0  0  0  0  0  0  0  0  0  0  0  0
   23.3572  -21.7156  -12.6891 C   0  0  0  0  0  0  0  0  0  0  0  0
   23.0200  -22.7975  -12.1534 O   0  0  0  0  0  0  0  0  0  0  0  0
   22.3583  -20.7696  -13.0617 N   0  0  0  0  0  0  0  0  0  0  0  0
   20.9549  -21.0990  -12.7154 C   0  0  1  0  0  0  0  0  0  0  0  0
   20.1854  -19.8450  -12.6388 C   0  0  0  0  0  0  0  0  0  0  0  0
   18.7563  -19.8909  -12.2439 C   0  0  0  0  0  0  0  0  0  0  0  0
   17.7985  -19.2596  -13.1720 C   0  0  0  0  0  0  0  0  0  0  0  0
   18.1772  -18.5590  -14.1491 O   0  0  0  0  0  0  0  0  0  0  0  0
   20.4679  -22.2123  -13.4996 C   0  0  0  0  0  0  0  0  0  0  0  0
   20.9351  -22.3410  -14.6933 O   0  0  0  0  0  0  0  0  0  0  0  0
   16.4366  -19.4287  -12.9906 O   0  0  0  0  0  0  0  0  0  0  0  0
   19.5597  -23.1789  -13.1408 O   0  0  0  0  0  0  0  0  0  0  0  0
  2  1  1  1
  2  3  1  0
  3  4  1  0
  4  5  2  0
  6  5  1  0
  7  6  1  0
  8  7  2  0
  9  8  1  0
 10  9  2  0
 10 11  1  0
 11 12  2  0
 12  7  1  0
 12  4  1  0
 13 14  2  0
 13  2  1  0
 15 16  1  0
 16 17  1  0
 17 19  1  0
 17 18  1  6
 19 20  1  1
 19 21  1  0
 20 13  1  0
 21 23  1  0
 22 21  2  0
 23 24  1  0
 24 25  1  6
 24 29  1  0
 26 25  1  0
 27 26  1  0
 28 27  2  0
 29 30  2  0
 29 32  1  0
 31 27  1  0
M  END
$$$$
