WIE.pdb
     RDKit          3D

 32 33  0  0  1  0  0  0  0  0999 V2000
   28.4762  -20.1807  -15.5283 N   0  0  0  0  0  0  0  0  0  0  0  0
   27.4273  -19.4258  -14.9004 C   0  0  1  0  0  0  0  0  0  0  0  0
   26.5338  -18.7422  -15.9141 C   0  0  0  0  0  0  0  0  0  0  0  0
   27.2070  -17.6044  -16.5796 C   0  0  0  0  0  0  0  0  0  0  0  0
   27.7432  -17.5475  -17.8595 C   0  0  0  0  0  0  0  0  0  0  0  0
   28.2718  -16.3291  -18.0803 N   0  0  0  0  0  0  0  0  0  0  0  0
   28.1043  -15.5662  -16.9816 C   0  0  0  0  0  0  0  0  0  0  0  0
   28.4605  -14.2599  -16.6999 C   0  0  0  0  0  0  0  0  0  0  0  0
   28.1309  -13.7735  -15.4513 C   0  0  0  0  0  0  0  0  0  0  0  0
   27.4681  -14.5454  -14.4989 C   0  0  0  0  0  0  0  0  0  0  0  0
   27.1254  -15.8377  -14.8014 C   0  0  0  0  0  0  0  0  0  0  0  0
   27.4470  -16.3455  -16.0489 C   0  0  0  0  0  0  0  0  0  0  0  0
   26.5558  -20.3372  -14.1251 C   0  0  0  0  0  0  0  0  0  0  0  0
   26.4301  -21.5214  -14.5157 O   0  0  0  0  0  0  0  0  0  0  0  0
   26.7904  -20.8812   -8.9476 C   0  0  0  0  0  0  0  0  0  0  0  0
   26.6209  -21.1555  -10.4320 C   0  0  0  0  0  0  0  0  0  0  0  0
   25.2306  -20.7538  -10.8165 C   0  0  2  0  0  0  0  0  0  0  0  0
   24.1718  -21.4164   -9.9703 C   0  0  0  0  0  0  0  0  0  0  0  0
   24.9328  -20.8697  -12.2881 C   0  0  2  0  0  0  0  0  0  0  0  0
   25.8530  -19.9386  -12.9583 N   0  0  0  0  0  0  0  0  0  0  0  0
   23.5546  -20.5518  -12.6664 C   0  0  0  0  0  0  0  0  0  0  0  0
   23.1514  -19.3674  -12.5909 O   0  0  0  0  0  0  0  0  0  0  0  0
   22.6687  -21.5728  -13.1184 N   0  0  0  0  0  0  0  0  0  0  0  0
   21.2740  -21.1705  -13.4201 C   0  0  1  0  0  0  0  0  0  0  0  0
   20.9528  -21.5917  -14.7949 C   0  0  0  0  0  0  0  0  0  0  0  0
   19.5959  -21.3351  -15.3365 C   0  0  0  0  0  0  0  0  0  0  0  0
   19.3564  -21.7527  -16.7314 C   0  0  0  0  0  0  0  0  0  0  0  0
   20.2371  -22.3432  -17.4130 O   0  0  0  0  0  0  0  0  0  0  0  0
   20.3854  -21.4953  -12.3263 C   0  0  0  0  0  0  0  0  0  0  0  0
   19.5480  -20.5881  -11.9584 O   0  0  0  0  0  0  0  0  0  0  0  0
   18.1349  -21.5049  -17.3338 O   0  0  0  0  0  0  0  0  0  0  0  0
   20.3021  -22.6652  -11.6104 O   0  0  0  0  0  0  0  0  0  0  0  0
  2  1  1  6
  2  3  1  0
  3  4  1  0
  4  5  2  0
  6  5  1  0
  7  6  1  0
  8  7  2  0
  9  8  1  0
 10  9  2  0
 10 11  1  0
 11 12  2  0
 12  7  1  0
 12  4  1  0
 13 14  2  0
 13  2  1  0
 15 16  1  0
 16 17  1  0
 17 19  1  0
 17 18  1  1
 19 20  1  6
 19 21  1  0
 20 13  1  0
 21 23  1  0
 22 21  2  0
 23 24  1  0
 24 25  1  6
 24 29  1  0
 26 25  1  0
 27 26  1  0
 28 27  2  0
 29 30  2  0
 29 32  1  0
 31 27  1  0
M  END
$$$$
