WIE.pdb
     RDKit          3D

 32 33  0  0  1  0  0  0  0  0999 V2000
   24.9711  -21.1219   -7.7769 N   0  0  0  0  0  0  0  0  0  0  0  0
   25.7563  -20.4241   -8.7572 C   0  0  1  0  0  0  0  0  0  0  0  0
   27.2373  -20.4841   -8.4468 C   0  0  0  0  0  0  0  0  0  0  0  0
   27.6033  -19.6392   -7.2880 C   0  0  0  0  0  0  0  0  0  0  0  0
   27.2395  -18.3239   -7.0296 C   0  0  0  0  0  0  0  0  0  0  0  0
   27.7867  -17.9176   -5.8686 N   0  0  0  0  0  0  0  0  0  0  0  0
   28.5085  -18.9262   -5.3403 C   0  0  0  0  0  0  0  0  0  0  0  0
   29.2529  -19.0210   -4.1786 C   0  0  0  0  0  0  0  0  0  0  0  0
   29.8797  -20.2249   -3.9298 C   0  0  0  0  0  0  0  0  0  0  0  0
   29.7817  -21.3123   -4.7959 C   0  0  0  0  0  0  0  0  0  0  0  0
   29.0381  -21.1941   -5.9413 C   0  0  0  0  0  0  0  0  0  0  0  0
   28.4010  -19.9944   -6.2103 C   0  0  0  0  0  0  0  0  0  0  0  0
   25.5821  -21.0649  -10.0801 C   0  0  0  0  0  0  0  0  0  0  0  0
   25.8044  -22.2939  -10.1838 O   0  0  0  0  0  0  0  0  0  0  0  0
   21.5645  -19.4421  -13.3707 C   0  0  0  0  0  0  0  0  0  0  0  0
   23.0197  -19.4548  -12.9351 C   0  0  0  0  0  0  0  0  0  0  0  0
   23.4367  -20.8836  -12.7715 C   0  0  2  0  0  0  0  0  0  0  0  0
   22.5718  -21.6403  -11.7939 C   0  0  0  0  0  0  0  0  0  0  0  0
   24.9043  -21.0768  -12.4953 C   0  0  2  0  0  0  0  0  0  0  0  0
   25.1748  -20.3577  -11.2412 N   0  0  0  0  0  0  0  0  0  0  0  0
   25.8002  -20.5848  -13.5436 C   0  0  0  0  0  0  0  0  0  0  0  0
   26.2224  -19.4057  -13.4915 O   0  0  0  0  0  0  0  0  0  0  0  0
   26.1961  -21.4305  -14.6205 N   0  0  0  0  0  0  0  0  0  0  0  0
   27.1164  -20.8524  -15.6288 C   0  0  1  0  0  0  0  0  0  0  0  0
   28.3048  -21.7175  -15.7278 C   0  0  0  0  0  0  0  0  0  0  0  0
   29.3471  -21.4098  -16.7374 C   0  0  0  0  0  0  0  0  0  0  0  0
   29.3454  -22.2411  -17.9565 C   0  0  0  0  0  0  0  0  0  0  0  0
   29.1730  -23.4891  -17.9145 O   0  0  0  0  0  0  0  0  0  0  0  0
   26.4028  -20.4464  -16.8194 C   0  0  0  0  0  0  0  0  0  0  0  0
   25.2433  -20.9712  -17.0190 O   0  0  0  0  0  0  0  0  0  0  0  0
   29.5324  -21.6586  -19.1983 O   0  0  0  0  0  0  0  0  0  0  0  0
   26.7937  -19.5541  -17.7884 O   0  0  0  0  0  0  0  0  0  0  0  0
  2  1  1  1
  2  3  1  0
  3  4  1  0
  4  5  2  0
  6  5  1  0
  7  6  1  0
  8  7  2  0
  9  8  1  0
 10  9  2  0
 10 11  1  0
 11 12  2  0
 12  7  1  0
 12  4  1  0
 13 14  2  0
 13  2  1  0
 15 16  1  0
 16 17  1  0
 17 19  1  0
 17 18  1  1
 19 20  1  1
 19 21  1  0
 20 13  1  0
 21 23  1  0
 22 21  2  0
 23 24  1  0
 24 25  1  6
 24 29  1  0
 26 25  1  0
 27 26  1  0
 28 27  2  0
 29 30  2  0
 29 32  1  0
 31 27  1  0
M  END
$$$$
