WIE.pdb
     RDKit          3D

 32 33  0  0  1  0  0  0  0  0999 V2000
   28.2885  -20.0879  -16.2967 N   0  0  0  0  0  0  0  0  0  0  0  0
   27.3367  -19.3501  -15.5131 C   0  0  1  0  0  0  0  0  0  0  0  0
   26.3511  -18.5944  -16.3795 C   0  0  0  0  0  0  0  0  0  0  0  0
   26.9430  -17.3729  -16.9695 C   0  0  0  0  0  0  0  0  0  0  0  0
   27.4459  -17.1897  -18.2512 C   0  0  0  0  0  0  0  0  0  0  0  0
   27.8990  -15.9295  -18.3890 N   0  0  0  0  0  0  0  0  0  0  0  0
   27.7132  -15.2614  -17.2330 C   0  0  0  0  0  0  0  0  0  0  0  0
   28.0007  -13.9610  -16.8600 C   0  0  0  0  0  0  0  0  0  0  0  0
   27.6724  -13.5889  -15.5724 C   0  0  0  0  0  0  0  0  0  0  0  0
   27.0765  -14.4669  -14.6690 C   0  0  0  0  0  0  0  0  0  0  0  0
   26.8013  -15.7510  -15.0619 C   0  0  0  0  0  0  0  0  0  0  0  0
   27.1229  -16.1450  -16.3498 C   0  0  0  0  0  0  0  0  0  0  0  0
   26.5366  -20.2873  -14.6929 C   0  0  0  0  0  0  0  0  0  0  0  0
   26.3022  -21.4311  -15.1483 O   0  0  0  0  0  0  0  0  0  0  0  0
   27.6120  -21.4144   -9.7827 C   0  0  0  0  0  0  0  0  0  0  0  0
   27.1621  -21.4723  -11.2324 C   0  0  0  0  0  0  0  0  0  0  0  0
   25.7459  -20.9898  -11.2924 C   0  0  2  0  0  0  0  0  0  0  0  0
   24.8330  -21.7263  -10.3434 C   0  0  0  0  0  0  0  0  0  0  0  0
   25.1724  -20.9119  -12.6826 C   0  0  2  0  0  0  0  0  0  0  0  0
   26.0194  -19.9570  -13.4132 N   0  0  0  0  0  0  0  0  0  0  0  0
   23.7757  -20.4780  -12.7513 C   0  0  0  0  0  0  0  0  0  0  0  0
   23.4782  -19.3026  -12.4332 O   0  0  0  0  0  0  0  0  0  0  0  0
   22.7533  -21.3761  -13.1749 N   0  0  0  0  0  0  0  0  0  0  0  0
   21.3737  -20.8390  -13.2529 C   0  0  1  0  0  0  0  0  0  0  0  0
   20.8212  -21.1599  -14.5804 C   0  0  0  0  0  0  0  0  0  0  0  0
   19.4233  -20.7789  -14.8985 C   0  0  0  0  0  0  0  0  0  0  0  0
   18.9325  -21.1460  -16.2408 C   0  0  0  0  0  0  0  0  0  0  0  0
   19.6614  -21.7416  -17.0794 O   0  0  0  0  0  0  0  0  0  0  0  0
   20.6241  -21.1407  -12.0534 C   0  0  0  0  0  0  0  0  0  0  0  0
   20.8988  -22.2448  -11.4492 O   0  0  0  0  0  0  0  0  0  0  0  0
   17.6349  -20.8432  -16.6161 O   0  0  0  0  0  0  0  0  0  0  0  0
   19.6405  -20.3953  -11.4493 O   0  0  0  0  0  0  0  0  0  0  0  0
  2  1  1  6
  2  3  1  0
  3  4  1  0
  4  5  2  0
  6  5  1  0
  7  6  1  0
  8  7  2  0
  9  8  1  0
 10  9  2  0
 10 11  1  0
 11 12  2  0
 12  7  1  0
 12  4  1  0
 13 14  2  0
 13  2  1  0
 15 16  1  0
 16 17  1  0
 17 19  1  0
 17 18  1  1
 19 20  1  6
 19 21  1  0
 20 13  1  0
 21 23  1  0
 22 21  2  0
 23 24  1  0
 24 25  1  6
 24 29  1  0
 26 25  1  0
 27 26  1  0
 28 27  2  0
 29 30  2  0
 29 32  1  0
 31 27  1  0
M  END
$$$$
