WIE.pdb
     RDKit          3D

 32 33  0  0  1  0  0  0  0  0999 V2000
   27.3124  -19.9151  -16.8300 N   0  0  0  0  0  0  0  0  0  0  0  0
   26.6635  -19.2648  -15.7252 C   0  0  1  0  0  0  0  0  0  0  0  0
   25.4416  -18.4845  -16.1629 C   0  0  0  0  0  0  0  0  0  0  0  0
   25.7942  -17.2917  -16.9649 C   0  0  0  0  0  0  0  0  0  0  0  0
   25.6128  -17.0821  -18.3259 C   0  0  0  0  0  0  0  0  0  0  0  0
   26.0741  -15.8640  -18.6666 N   0  0  0  0  0  0  0  0  0  0  0  0
   26.5606  -15.2501  -17.5696 C   0  0  0  0  0  0  0  0  0  0  0  0
   27.1368  -14.0065  -17.3849 C   0  0  0  0  0  0  0  0  0  0  0  0
   27.5331  -13.6809  -16.1038 C   0  0  0  0  0  0  0  0  0  0  0  0
   27.3702  -14.5503  -15.0268 C   0  0  0  0  0  0  0  0  0  0  0  0
   26.7966  -15.7777  -15.2349 C   0  0  0  0  0  0  0  0  0  0  0  0
   26.3919  -16.1244  -16.5130 C   0  0  0  0  0  0  0  0  0  0  0  0
   26.1848  -20.2820  -14.7623 C   0  0  0  0  0  0  0  0  0  0  0  0
   25.7488  -21.3694  -15.2077 O   0  0  0  0  0  0  0  0  0  0  0  0
   28.4726  -21.2603  -10.0251 C   0  0  0  0  0  0  0  0  0  0  0  0
   27.7813  -21.4352  -11.3663 C   0  0  0  0  0  0  0  0  0  0  0  0
   26.3426  -21.0580  -11.1929 C   0  0  2  0  0  0  0  0  0  0  0  0
   25.6605  -21.8311  -10.0914 C   0  0  0  0  0  0  0  0  0  0  0  0
   25.5396  -21.0611  -12.4669 C   0  0  2  0  0  0  0  0  0  0  0  0
   26.1941  -20.0897  -13.3562 N   0  0  0  0  0  0  0  0  0  0  0  0
   24.1283  -20.7048  -12.3084 C   0  0  0  0  0  0  0  0  0  0  0  0
   23.8216  -19.5454  -11.9436 O   0  0  0  0  0  0  0  0  0  0  0  0
   23.1020  -21.6603  -12.5637 N   0  0  0  0  0  0  0  0  0  0  0  0
   21.7013  -21.1792  -12.4985 C   0  0  1  0  0  0  0  0  0  0  0  0
   21.0509  -21.4565  -13.7911 C   0  0  0  0  0  0  0  0  0  0  0  0
   20.0688  -20.4867  -14.3347 C   0  0  0  0  0  0  0  0  0  0  0  0
   18.7906  -21.0464  -14.8146 C   0  0  0  0  0  0  0  0  0  0  0  0
   18.5773  -22.2882  -14.8537 O   0  0  0  0  0  0  0  0  0  0  0  0
   21.0681  -21.5722  -11.2590 C   0  0  0  0  0  0  0  0  0  0  0  0
   21.6441  -22.4962  -10.5705 O   0  0  0  0  0  0  0  0  0  0  0  0
   17.7755  -20.2053  -15.2369 O   0  0  0  0  0  0  0  0  0  0  0  0
   19.9143  -21.0834  -10.6955 O   0  0  0  0  0  0  0  0  0  0  0  0
  2  1  1  6
  2  3  1  0
  3  4  1  0
  4  5  2  0
  6  5  1  0
  7  6  1  0
  8  7  2  0
  9  8  1  0
 10  9  2  0
 10 11  1  0
 11 12  2  0
 12  7  1  0
 12  4  1  0
 13 14  2  0
 13  2  1  0
 15 16  1  0
 16 17  1  0
 17 19  1  0
 17 18  1  1
 19 20  1  6
 19 21  1  0
 20 13  1  0
 21 23  1  0
 22 21  2  0
 23 24  1  0
 24 25  1  6
 24 29  1  0
 26 25  1  0
 27 26  1  0
 28 27  2  0
 29 30  2  0
 29 32  1  0
 31 27  1  0
M  END
$$$$
