WIE.pdb
     RDKit          3D

 32 33  0  0  1  0  0  0  0  0999 V2000
   26.7374  -21.3023  -13.6371 N   0  0  0  0  0  0  0  0  0  0  0  0
   25.9202  -20.3717  -12.9089 C   0  0  1  0  0  0  0  0  0  0  0  0
   24.6991  -19.9485  -13.6984 C   0  0  0  0  0  0  0  0  0  0  0  0
   25.0558  -19.2982  -14.9792 C   0  0  0  0  0  0  0  0  0  0  0  0
   24.8800  -19.7796  -16.2701 C   0  0  0  0  0  0  0  0  0  0  0  0
   25.3436  -18.8821  -17.1602 N   0  0  0  0  0  0  0  0  0  0  0  0
   25.8260  -17.8102  -16.5003 C   0  0  0  0  0  0  0  0  0  0  0  0
   26.4023  -16.6337  -16.9437 C   0  0  0  0  0  0  0  0  0  0  0  0
   26.7935  -15.7238  -15.9829 C   0  0  0  0  0  0  0  0  0  0  0  0
   26.6257  -15.9573  -14.6192 C   0  0  0  0  0  0  0  0  0  0  0  0
   26.0521  -17.1310  -14.2041 C   0  0  0  0  0  0  0  0  0  0  0  0
   25.6524  -18.0579  -15.1521 C   0  0  0  0  0  0  0  0  0  0  0  0
   25.4155  -21.0145  -11.6747 C   0  0  0  0  0  0  0  0  0  0  0  0
   25.1542  -22.2400  -11.7021 O   0  0  0  0  0  0  0  0  0  0  0  0
   27.4997  -19.2843   -7.2116 C   0  0  0  0  0  0  0  0  0  0  0  0
   26.9838  -20.2890   -8.2274 C   0  0  0  0  0  0  0  0  0  0  0  0
   25.4929  -20.3453   -8.1001 C   0  0  2  0  0  0  0  0  0  0  0  0
   25.0365  -20.8699   -6.7611 C   0  0  0  0  0  0  0  0  0  0  0  0
   24.7952  -21.0321   -9.2442 C   0  0  2  0  0  0  0  0  0  0  0  0
   25.2116  -20.3132  -10.4578 N   0  0  0  0  0  0  0  0  0  0  0  0
   23.3335  -21.0423   -9.1598 C   0  0  0  0  0  0  0  0  0  0  0  0
   22.6983  -19.9740   -9.3226 O   0  0  0  0  0  0  0  0  0  0  0  0
   22.6270  -22.2515   -8.8945 N   0  0  0  0  0  0  0  0  0  0  0  0
   21.1521  -22.1588   -8.7766 C   0  0  1  0  0  0  0  0  0  0  0  0
   20.5460  -22.8835   -9.9071 C   0  0  0  0  0  0  0  0  0  0  0  0
   19.0741  -23.0620   -9.9522 C   0  0  0  0  0  0  0  0  0  0  0  0
   18.5424  -23.8441  -11.0849 C   0  0  0  0  0  0  0  0  0  0  0  0
   19.2689  -24.1983  -12.0523 O   0  0  0  0  0  0  0  0  0  0  0  0
   20.7164  -22.4158   -7.4217 C   0  0  0  0  0  0  0  0  0  0  0  0
   19.5257  -22.0398   -7.1045 O   0  0  0  0  0  0  0  0  0  0  0  0
   17.2098  -24.2177  -11.1101 O   0  0  0  0  0  0  0  0  0  0  0  0
   21.4075  -23.0242   -6.4018 O   0  0  0  0  0  0  0  0  0  0  0  0
  2  1  1  6
  2  3  1  0
  3  4  1  0
  4  5  2  0
  6  5  1  0
  7  6  1  0
  8  7  2  0
  9  8  1  0
 10  9  2  0
 10 11  1  0
 11 12  2  0
 12  7  1  0
 12  4  1  0
 13 14  2  0
 13  2  1  0
 15 16  1  0
 16 17  1  0
 17 19  1  0
 17 18  1  1
 19 20  1  6
 19 21  1  0
 20 13  1  0
 21 23  1  0
 22 21  2  0
 23 24  1  0
 24 25  1  6
 24 29  1  0
 26 25  1  0
 27 26  1  0
 28 27  2  0
 29 30  2  0
 29 32  1  0
 31 27  1  0
M  END
$$$$
