FEH.pdb
     RDKit          3D

 31 32  0  0  1  0  0  0  0  0999 V2000
   28.4851  -21.2719   -9.2690 N   0  0  0  0  0  0  0  0  0  0  0  0
   27.0649  -21.1199   -9.0164 C   0  0  1  0  0  0  0  0  0  0  0  0
   26.8173  -19.8901   -8.1258 C   0  0  0  0  0  0  0  0  0  0  0  0
   27.4550  -20.0095   -6.8117 C   0  0  0  0  0  0  0  0  0  0  0  0
   28.5358  -19.2327   -6.4936 C   0  0  0  0  0  0  0  0  0  0  0  0
   29.1366  -19.3500   -5.2511 C   0  0  0  0  0  0  0  0  0  0  0  0
   28.6275  -20.2543   -4.3555 C   0  0  0  0  0  0  0  0  0  0  0  0
   27.5416  -21.0376   -4.6692 C   0  0  0  0  0  0  0  0  0  0  0  0
   26.9585  -20.9065   -5.9090 C   0  0  0  0  0  0  0  0  0  0  0  0
   26.3646  -20.7997  -10.2933 C   0  0  0  0  0  0  0  0  0  0  0  0
   26.8692  -19.9134  -11.0278 O   0  0  0  0  0  0  0  0  0  0  0  0
   25.1653  -21.4470  -10.7078 N   0  0  0  0  0  0  0  0  0  0  0  0
   24.6026  -21.2406  -12.0092 C   0  0  1  0  0  0  0  0  0  0  0  0
   24.6041  -22.4472  -12.9026 C   0  0  0  0  0  0  0  0  0  0  0  0
   25.9166  -22.9141  -13.4047 C   0  0  0  0  0  0  0  0  0  0  0  0
   26.4654  -21.9940  -14.4029 C   0  0  0  0  0  0  0  0  0  0  0  0
   25.6641  -21.3091  -15.0886 O   0  0  0  0  0  0  0  0  0  0  0  0
   23.2730  -20.5907  -12.0139 C   0  0  0  0  0  0  0  0  0  0  0  0
   22.4472  -20.8561  -11.0914 O   0  0  0  0  0  0  0  0  0  0  0  0
   27.8294  -21.8550  -14.6142 O   0  0  0  0  0  0  0  0  0  0  0  0
   22.8442  -19.6692  -13.0068 N   0  0  0  0  0  0  0  0  0  0  0  0
   21.5185  -19.0493  -12.8968 C   0  0  1  0  0  0  0  0  0  0  0  0
   21.3257  -17.9682  -13.8977 C   0  0  0  0  0  0  0  0  0  0  0  0
   20.0011  -17.3480  -13.7351 C   0  0  0  0  0  0  0  0  0  0  0  0
   19.6251  -16.2951  -12.9347 C   0  0  0  0  0  0  0  0  0  0  0  0
   18.3128  -16.0534  -13.0486 N   0  0  0  0  0  0  0  0  0  0  0  0
   17.8250  -16.9489  -13.9246 C   0  0  0  0  0  0  0  0  0  0  0  0
   18.8381  -17.7313  -14.3410 N   0  0  0  0  0  0  0  0  0  0  0  0
   20.5412  -20.1278  -13.0944 C   0  0  0  0  0  0  0  0  0  0  0  0
   20.7054  -21.0022  -13.9719 O   0  0  0  0  0  0  0  0  0  0  0  0
   19.3911  -20.2376  -12.3267 O   0  0  0  0  0  0  0  0  0  0  0  0
  2  1  1  6
  2  3  1  0
  2 10  1  0
  3  4  1  0
  4  9  1  0
  4  5  2  0
  5  6  1  0
  6  7  2  0
  8  7  1  0
  9  8  2  0
 10 11  2  0
 12 13  1  0
 12 10  1  0
 14 15  1  0
 13 14  1  1
 16 20  1  0
 16 15  1  0
 17 16  2  0
 18 13  1  0
 18 21  1  0
 19 18  2  0
 22 21  1  0
 22 23  1  6
 24 23  1  0
 25 24  2  0
 26 25  1  0
 27 26  1  0
 27 28  2  0
 28 24  1  0
 29 22  1  0
 30 29  2  0
 31 29  1  0
M  END
$$$$
