FEH.pdb
     RDKit          3D

 31 32  0  0  1  0  0  0  0  0999 V2000
   24.9419  -11.1070  -17.8360 N   0  0  0  0  0  0  0  0  0  0  0  0
   24.6458  -10.4975  -16.5534 C   0  0  1  0  0  0  0  0  0  0  0  0
   25.8817   -9.7453  -16.0303 C   0  0  0  0  0  0  0  0  0  0  0  0
   27.0945  -10.5675  -16.0587 C   0  0  0  0  0  0  0  0  0  0  0  0
   27.2101  -11.6592  -15.2416 C   0  0  0  0  0  0  0  0  0  0  0  0
   28.3589  -12.4326  -15.2704 C   0  0  0  0  0  0  0  0  0  0  0  0
   29.3682  -12.0818  -16.1291 C   0  0  0  0  0  0  0  0  0  0  0  0
   29.2580  -10.9860  -16.9527 C   0  0  0  0  0  0  0  0  0  0  0  0
   28.1087  -10.2301  -16.9094 C   0  0  0  0  0  0  0  0  0  0  0  0
   23.6148   -9.4356  -16.7341 C   0  0  0  0  0  0  0  0  0  0  0  0
   23.5402   -8.8820  -17.8601 O   0  0  0  0  0  0  0  0  0  0  0  0
   22.7253   -9.0289  -15.6986 N   0  0  0  0  0  0  0  0  0  0  0  0
   21.6042   -8.1739  -15.9538 C   0  0  1  0  0  0  0  0  0  0  0  0
   20.2811   -8.6986  -15.4762 C   0  0  0  0  0  0  0  0  0  0  0  0
   19.0820   -7.8853  -15.7818 C   0  0  0  0  0  0  0  0  0  0  0  0
   17.8587   -8.5386  -15.3116 C   0  0  0  0  0  0  0  0  0  0  0  0
   17.3648   -8.1651  -14.2171 O   0  0  0  0  0  0  0  0  0  0  0  0
   21.7890   -6.7670  -15.5334 C   0  0  0  0  0  0  0  0  0  0  0  0
   22.5993   -6.4981  -14.5982 O   0  0  0  0  0  0  0  0  0  0  0  0
   17.2329   -9.5475  -16.0290 O   0  0  0  0  0  0  0  0  0  0  0  0
   21.1022   -5.6684  -16.1166 N   0  0  0  0  0  0  0  0  0  0  0  0
   21.6271   -4.3091  -15.9410 C   0  0  1  0  0  0  0  0  0  0  0  0
   23.1126   -4.2814  -15.9502 C   0  0  0  0  0  0  0  0  0  0  0  0
   23.6011   -2.8965  -15.8560 C   0  0  0  0  0  0  0  0  0  0  0  0
   23.7101   -1.9429  -16.8406 C   0  0  0  0  0  0  0  0  0  0  0  0
   24.2347   -0.8111  -16.3534 N   0  0  0  0  0  0  0  0  0  0  0  0
   24.4715   -1.0208  -15.0469 C   0  0  0  0  0  0  0  0  0  0  0  0
   24.0917   -2.2757  -14.7422 N   0  0  0  0  0  0  0  0  0  0  0  0
   21.0805   -3.5100  -17.0455 C   0  0  0  0  0  0  0  0  0  0  0  0
   20.7612   -4.0357  -18.1333 O   0  0  0  0  0  0  0  0  0  0  0  0
   20.8888   -2.1397  -16.9467 O   0  0  0  0  0  0  0  0  0  0  0  0
  2  1  1  6
  2  3  1  0
  2 10  1  0
  3  4  1  0
  4  9  1  0
  4  5  2  0
  5  6  1  0
  6  7  2  0
  8  7  1  0
  9  8  2  0
 10 11  2  0
 12 13  1  0
 12 10  1  0
 14 15  1  0
 13 14  1  1
 16 20  1  0
 16 15  1  0
 17 16  2  0
 18 13  1  0
 18 21  1  0
 19 18  2  0
 22 21  1  0
 22 23  1  6
 24 23  1  0
 25 24  2  0
 26 25  1  0
 27 26  1  0
 27 28  2  0
 28 24  1  0
 29 22  1  0
 30 29  2  0
 31 29  1  0
M  END
$$$$
