FEH.pdb
     RDKit          3D

 31 32  0  0  1  0  0  0  0  0999 V2000
   24.7065  -10.1997  -18.3153 N   0  0  0  0  0  0  0  0  0  0  0  0
   23.8751   -9.0929  -18.7486 C   0  0  1  0  0  0  0  0  0  0  0  0
   23.0008   -9.5256  -19.9382 C   0  0  0  0  0  0  0  0  0  0  0  0
   23.7799   -9.7380  -21.1611 C   0  0  0  0  0  0  0  0  0  0  0  0
   24.0652  -11.0063  -21.5887 C   0  0  0  0  0  0  0  0  0  0  0  0
   24.8034  -11.2026  -22.7442 C   0  0  0  0  0  0  0  0  0  0  0  0
   25.2375  -10.1063  -23.4432 C   0  0  0  0  0  0  0  0  0  0  0  0
   24.9540   -8.8293  -23.0187 C   0  0  0  0  0  0  0  0  0  0  0  0
   24.2193   -8.6548  -21.8681 C   0  0  0  0  0  0  0  0  0  0  0  0
   22.8980   -8.7551  -17.6741 C   0  0  0  0  0  0  0  0  0  0  0  0
   22.5805   -9.6660  -16.8683 O   0  0  0  0  0  0  0  0  0  0  0  0
   22.3182   -7.4624  -17.5265 N   0  0  0  0  0  0  0  0  0  0  0  0
   21.3623   -7.1725  -16.4992 C   0  0  1  0  0  0  0  0  0  0  0  0
   21.4656   -5.7989  -15.9022 C   0  0  0  0  0  0  0  0  0  0  0  0
   22.7226   -5.4626  -15.1953 C   0  0  0  0  0  0  0  0  0  0  0  0
   22.6993   -4.0895  -14.6870 C   0  0  0  0  0  0  0  0  0  0  0  0
   23.3448   -3.2100  -15.3123 O   0  0  0  0  0  0  0  0  0  0  0  0
   19.9590   -7.4826  -16.8527 C   0  0  0  0  0  0  0  0  0  0  0  0
   19.6243   -7.5490  -18.0721 O   0  0  0  0  0  0  0  0  0  0  0  0
   21.9938   -3.7314  -13.5475 O   0  0  0  0  0  0  0  0  0  0  0  0
   18.9331   -7.7136  -15.8972 N   0  0  0  0  0  0  0  0  0  0  0  0
   17.8793   -8.6932  -16.1871 C   0  0  1  0  0  0  0  0  0  0  0  0
   18.4336  -10.0500  -16.4308 C   0  0  0  0  0  0  0  0  0  0  0  0
   17.3457  -11.0271  -16.5963 C   0  0  0  0  0  0  0  0  0  0  0  0
   15.9855  -10.8332  -16.5418 C   0  0  0  0  0  0  0  0  0  0  0  0
   15.3311  -11.9892  -16.7118 N   0  0  0  0  0  0  0  0  0  0  0  0
   16.2620  -12.9447  -16.8779 C   0  0  0  0  0  0  0  0  0  0  0  0
   17.4774  -12.3703  -16.8091 N   0  0  0  0  0  0  0  0  0  0  0  0
   16.9845   -8.6932  -15.0224 C   0  0  0  0  0  0  0  0  0  0  0  0
   17.4221   -8.5154  -13.8655 O   0  0  0  0  0  0  0  0  0  0  0  0
   15.6160   -8.8886  -15.1373 O   0  0  0  0  0  0  0  0  0  0  0  0
  2  1  1  1
  2  3  1  0
  2 10  1  0
  3  4  1  0
  4  9  1  0
  4  5  2  0
  5  6  1  0
  6  7  2  0
  8  7  1  0
  9  8  2  0
 10 11  2  0
 12 13  1  0
 12 10  1  0
 14 15  1  0
 13 14  1  6
 16 20  1  0
 16 15  1  0
 17 16  2  0
 18 13  1  0
 18 21  1  0
 19 18  2  0
 22 21  1  0
 22 23  1  1
 24 23  1  0
 25 24  2  0
 26 25  1  0
 27 26  1  0
 27 28  2  0
 28 24  1  0
 29 22  1  0
 30 29  2  0
 31 29  1  0
M  END
$$$$
