FEH.pdb
     RDKit          3D

 31 32  0  0  1  0  0  0  0  0999 V2000
   22.1024  -18.7075  -20.8896 N   0  0  0  0  0  0  0  0  0  0  0  0
   21.4568  -17.9872  -19.8087 C   0  0  1  0  0  0  0  0  0  0  0  0
   20.3394  -17.0898  -20.3679 C   0  0  0  0  0  0  0  0  0  0  0  0
   20.8568  -15.9964  -21.1953 C   0  0  0  0  0  0  0  0  0  0  0  0
   21.0317  -16.1700  -22.5415 C   0  0  0  0  0  0  0  0  0  0  0  0
   21.5227  -15.1345  -23.3195 C   0  0  0  0  0  0  0  0  0  0  0  0
   21.8266  -13.9425  -22.7148 C   0  0  0  0  0  0  0  0  0  0  0  0
   21.6530  -13.7619  -21.3625 C   0  0  0  0  0  0  0  0  0  0  0  0
   21.1641  -14.8028  -20.6064 C   0  0  0  0  0  0  0  0  0  0  0  0
   20.7473  -18.9534  -18.9219 C   0  0  0  0  0  0  0  0  0  0  0  0
   20.3854  -20.0473  -19.4242 O   0  0  0  0  0  0  0  0  0  0  0  0
   20.4667  -18.6909  -17.5503 N   0  0  0  0  0  0  0  0  0  0  0  0
   19.8102  -19.6506  -16.7131 C   0  0  1  0  0  0  0  0  0  0  0  0
   20.4132  -19.8245  -15.3492 C   0  0  0  0  0  0  0  0  0  0  0  0
   21.7671  -20.4202  -15.2803 C   0  0  0  0  0  0  0  0  0  0  0  0
   22.8076  -19.3917  -15.3402 C   0  0  0  0  0  0  0  0  0  0  0  0
   22.4537  -18.1874  -15.4167 O   0  0  0  0  0  0  0  0  0  0  0  0
   18.3423  -19.4882  -16.6167 C   0  0  0  0  0  0  0  0  0  0  0  0
   17.8647  -18.4188  -16.1353 O   0  0  0  0  0  0  0  0  0  0  0  0
   24.1597  -19.7009  -15.3152 O   0  0  0  0  0  0  0  0  0  0  0  0
   17.4065  -20.4728  -17.0332 N   0  0  0  0  0  0  0  0  0  0  0  0
   16.6008  -21.1781  -16.0295 C   0  0  1  0  0  0  0  0  0  0  0  0
   17.4460  -21.9364  -15.0712 C   0  0  0  0  0  0  0  0  0  0  0  0
   17.9354  -23.1788  -15.6896 C   0  0  0  0  0  0  0  0  0  0  0  0
   17.6244  -23.7235  -16.9133 C   0  0  0  0  0  0  0  0  0  0  0  0
   18.2596  -24.8887  -17.0927 N   0  0  0  0  0  0  0  0  0  0  0  0
   18.9889  -25.1110  -15.9856 C   0  0  0  0  0  0  0  0  0  0  0  0
   18.7970  -24.0838  -15.1370 N   0  0  0  0  0  0  0  0  0  0  0  0
   15.8139  -20.1502  -15.3357 C   0  0  0  0  0  0  0  0  0  0  0  0
   16.3095  -19.0427  -15.0366 O   0  0  0  0  0  0  0  0  0  0  0  0
   14.4887  -20.3465  -14.9759 O   0  0  0  0  0  0  0  0  0  0  0  0
  2  1  1  6
  2  3  1  0
  2 10  1  0
  3  4  1  0
  4  9  1  0
  4  5  2  0
  5  6  1  0
  6  7  2  0
  8  7  1  0
  9  8  2  0
 10 11  2  0
 12 13  1  0
 12 10  1  0
 14 15  1  0
 13 14  1  1
 16 20  1  0
 16 15  1  0
 17 16  2  0
 18 13  1  0
 18 21  1  0
 19 18  2  0
 22 21  1  0
 22 23  1  1
 24 23  1  0
 25 24  2  0
 26 25  1  0
 27 26  1  0
 27 28  2  0
 28 24  1  0
 29 22  1  0
 30 29  2  0
 31 29  1  0
M  END
$$$$
