FEH.pdb
     RDKit          3D

 31 32  0  0  1  0  0  0  0  0999 V2000
   25.6552  -17.7719  -15.4635 N   0  0  0  0  0  0  0  0  0  0  0  0
   24.5634  -18.1060  -16.3582 C   0  0  1  0  0  0  0  0  0  0  0  0
   24.8417  -19.4526  -17.0482 C   0  0  0  0  0  0  0  0  0  0  0  0
   25.8168  -19.3365  -18.1361 C   0  0  0  0  0  0  0  0  0  0  0  0
   26.0717  -20.4036  -18.9541 C   0  0  0  0  0  0  0  0  0  0  0  0
   26.9954  -20.2901  -19.9800 C   0  0  0  0  0  0  0  0  0  0  0  0
   27.6425  -19.0944  -20.1550 C   0  0  0  0  0  0  0  0  0  0  0  0
   27.3907  -18.0185  -19.3363 C   0  0  0  0  0  0  0  0  0  0  0  0
   26.4694  -18.1510  -18.3224 C   0  0  0  0  0  0  0  0  0  0  0  0
   23.3251  -18.3460  -15.5631 C   0  0  0  0  0  0  0  0  0  0  0  0
   23.4619  -18.7051  -14.3664 O   0  0  0  0  0  0  0  0  0  0  0  0
   22.0137  -18.1879  -16.0964 N   0  0  0  0  0  0  0  0  0  0  0  0
   20.8407  -18.4440  -15.3145 C   0  0  1  0  0  0  0  0  0  0  0  0
   19.6809  -17.5309  -15.5879 C   0  0  0  0  0  0  0  0  0  0  0  0
   19.9643  -16.0786  -15.6481 C   0  0  0  0  0  0  0  0  0  0  0  0
   18.7476  -15.3067  -15.9084 C   0  0  0  0  0  0  0  0  0  0  0  0
   18.5862  -14.2209  -15.2950 O   0  0  0  0  0  0  0  0  0  0  0  0
   20.3998  -19.8568  -15.3026 C   0  0  0  0  0  0  0  0  0  0  0  0
   20.8298  -20.6506  -16.1905 O   0  0  0  0  0  0  0  0  0  0  0  0
   17.7757  -15.7315  -16.8026 O   0  0  0  0  0  0  0  0  0  0  0  0
   19.5028  -20.3994  -14.3436 N   0  0  0  0  0  0  0  0  0  0  0  0
   19.4759  -21.8488  -14.1143 C   0  0  1  0  0  0  0  0  0  0  0  0
   20.7166  -22.3300  -13.4535 C   0  0  0  0  0  0  0  0  0  0  0  0
   20.6579  -23.7861  -13.2487 C   0  0  0  0  0  0  0  0  0  0  0  0
   19.6394  -24.6649  -13.5334 C   0  0  0  0  0  0  0  0  0  0  0  0
   19.9660  -25.9103  -13.1646 N   0  0  0  0  0  0  0  0  0  0  0  0
   21.2007  -25.8503  -12.6363 C   0  0  0  0  0  0  0  0  0  0  0  0
   21.6220  -24.5728  -12.6844 N   0  0  0  0  0  0  0  0  0  0  0  0
   18.2989  -22.1121  -13.2762 C   0  0  0  0  0  0  0  0  0  0  0  0
   17.7743  -23.2452  -13.2283 O   0  0  0  0  0  0  0  0  0  0  0  0
   17.7071  -21.1287  -12.4971 O   0  0  0  0  0  0  0  0  0  0  0  0
  2  1  1  1
  2  3  1  0
  2 10  1  0
  3  4  1  0
  4  9  1  0
  4  5  2  0
  5  6  1  0
  6  7  2  0
  8  7  1  0
  9  8  2  0
 10 11  2  0
 12 13  1  0
 12 10  1  0
 14 15  1  0
 13 14  1  6
 16 20  1  0
 16 15  1  0
 17 16  2  0
 18 13  1  0
 18 21  1  0
 19 18  2  0
 22 21  1  0
 22 23  1  1
 24 23  1  0
 25 24  2  0
 26 25  1  0
 27 26  1  0
 27 28  2  0
 28 24  1  0
 29 22  1  0
 30 29  2  0
 31 29  1  0
M  END
$$$$
