FEH.pdb
     RDKit          3D

 31 32  0  0  1  0  0  0  0  0999 V2000
   28.8540  -20.8475   -9.2196 N   0  0  0  0  0  0  0  0  0  0  0  0
   27.4288  -20.9284   -8.9622 C   0  0  1  0  0  0  0  0  0  0  0  0
   26.9860  -19.7500   -8.0780 C   0  0  0  0  0  0  0  0  0  0  0  0
   27.5010  -19.8488   -6.7095 C   0  0  0  0  0  0  0  0  0  0  0  0
   26.9819  -20.7685   -5.8392 C   0  0  0  0  0  0  0  0  0  0  0  0
   27.4704  -20.8574   -4.5461 C   0  0  0  0  0  0  0  0  0  0  0  0
   28.4771  -20.0100   -4.1621 C   0  0  0  0  0  0  0  0  0  0  0  0
   29.0030  -19.0837   -5.0321 C   0  0  0  0  0  0  0  0  0  0  0  0
   28.5042  -19.0107   -6.3128 C   0  0  0  0  0  0  0  0  0  0  0  0
   26.6818  -20.7354  -10.2382 C   0  0  0  0  0  0  0  0  0  0  0  0
   27.0789  -19.8300  -11.0143 O   0  0  0  0  0  0  0  0  0  0  0  0
   25.5536  -21.5227  -10.6073 N   0  0  0  0  0  0  0  0  0  0  0  0
   24.9985  -21.4809  -11.9276 C   0  0  1  0  0  0  0  0  0  0  0  0
   24.8820  -22.8119  -12.6121 C   0  0  0  0  0  0  0  0  0  0  0  0
   24.4985  -22.8045  -14.0424 C   0  0  0  0  0  0  0  0  0  0  0  0
   24.3235  -24.1644  -14.5562 C   0  0  0  0  0  0  0  0  0  0  0  0
   23.1542  -24.5812  -14.7576 O   0  0  0  0  0  0  0  0  0  0  0  0
   23.7329  -20.7225  -12.0444 C   0  0  0  0  0  0  0  0  0  0  0  0
   23.0603  -20.4697  -11.0017 O   0  0  0  0  0  0  0  0  0  0  0  0
   25.3972  -25.0004  -14.8257 O   0  0  0  0  0  0  0  0  0  0  0  0
   23.2030  -20.2487  -13.2746 N   0  0  0  0  0  0  0  0  0  0  0  0
   22.0029  -19.4039  -13.2699 C   0  0  1  0  0  0  0  0  0  0  0  0
   22.1961  -18.1595  -14.0583 C   0  0  0  0  0  0  0  0  0  0  0  0
   20.9760  -17.3372  -14.0275 C   0  0  0  0  0  0  0  0  0  0  0  0
   19.7831  -17.5734  -13.3857 C   0  0  0  0  0  0  0  0  0  0  0  0
   18.9051  -16.5930  -13.6339 N   0  0  0  0  0  0  0  0  0  0  0  0
   19.5212  -15.7113  -14.4402 C   0  0  0  0  0  0  0  0  0  0  0  0
   20.7691  -16.1551  -14.6804 N   0  0  0  0  0  0  0  0  0  0  0  0
   20.9212  -20.2209  -13.8354 C   0  0  0  0  0  0  0  0  0  0  0  0
   19.7888  -20.2565  -13.3084 O   0  0  0  0  0  0  0  0  0  0  0  0
   21.0918  -20.9924  -14.9755 O   0  0  0  0  0  0  0  0  0  0  0  0
  2  1  1  6
  2  3  1  0
  2 10  1  0
  3  4  1  0
  4  9  1  0
  4  5  2  0
  5  6  1  0
  6  7  2  0
  8  7  1  0
  9  8  2  0
 10 11  2  0
 12 13  1  0
 12 10  1  0
 14 15  1  0
 13 14  1  1
 16 20  1  0
 16 15  1  0
 17 16  2  0
 18 13  1  0
 18 21  1  0
 19 18  2  0
 22 21  1  0
 22 23  1  6
 24 23  1  0
 25 24  2  0
 26 25  1  0
 27 26  1  0
 27 28  2  0
 28 24  1  0
 29 22  1  0
 30 29  2  0
 31 29  1  0
M  END
$$$$
