FEH.pdb
     RDKit          3D

 31 32  0  0  1  0  0  0  0  0999 V2000
   24.2586  -10.5793  -18.3550 N   0  0  0  0  0  0  0  0  0  0  0  0
   23.6491   -9.9906  -17.1777 C   0  0  1  0  0  0  0  0  0  0  0  0
   24.5784   -8.9176  -16.5847 C   0  0  0  0  0  0  0  0  0  0  0  0
   25.9136   -9.4374  -16.2768 C   0  0  0  0  0  0  0  0  0  0  0  0
   26.9931   -9.0625  -17.0298 C   0  0  0  0  0  0  0  0  0  0  0  0
   28.2530   -9.5576  -16.7364 C   0  0  0  0  0  0  0  0  0  0  0  0
   28.3919  -10.4241  -15.6834 C   0  0  0  0  0  0  0  0  0  0  0  0
   27.3111  -10.8045  -14.9229 C   0  0  0  0  0  0  0  0  0  0  0  0
   26.0673  -10.3018  -15.2302 C   0  0  0  0  0  0  0  0  0  0  0  0
   22.4233   -9.2405  -17.5753 C   0  0  0  0  0  0  0  0  0  0  0  0
   22.3595   -8.8127  -18.7554 O   0  0  0  0  0  0  0  0  0  0  0  0
   21.3388   -8.9924  -16.6857 N   0  0  0  0  0  0  0  0  0  0  0  0
   20.1147   -8.3947  -17.1299 C   0  0  1  0  0  0  0  0  0  0  0  0
   18.9216   -9.3058  -17.1232 C   0  0  0  0  0  0  0  0  0  0  0  0
   17.6121   -8.7064  -17.4680 C   0  0  0  0  0  0  0  0  0  0  0  0
   17.1193   -9.2022  -18.7547 C   0  0  0  0  0  0  0  0  0  0  0  0
   17.6981  -10.1894  -19.2760 O   0  0  0  0  0  0  0  0  0  0  0  0
   19.7868   -7.1024  -16.4872 C   0  0  0  0  0  0  0  0  0  0  0  0
   19.5968   -7.0600  -15.2360 O   0  0  0  0  0  0  0  0  0  0  0  0
   16.0433   -8.6226  -19.4110 O   0  0  0  0  0  0  0  0  0  0  0  0
   19.6633   -5.8750  -17.1922 N   0  0  0  0  0  0  0  0  0  0  0  0
   18.8591   -4.7883  -16.6209 C   0  0  1  0  0  0  0  0  0  0  0  0
   17.5845   -5.2856  -16.0414 C   0  0  0  0  0  0  0  0  0  0  0  0
   16.7757   -4.1631  -15.5400 C   0  0  0  0  0  0  0  0  0  0  0  0
   16.6314   -2.8961  -16.0543 C   0  0  0  0  0  0  0  0  0  0  0  0
   15.8268   -2.1556  -15.2810 N   0  0  0  0  0  0  0  0  0  0  0  0
   15.4420   -2.9364  -14.2566 C   0  0  0  0  0  0  0  0  0  0  0  0
   16.0110   -4.1469  -14.4079 N   0  0  0  0  0  0  0  0  0  0  0  0
   19.6928   -4.1561  -15.5901 C   0  0  0  0  0  0  0  0  0  0  0  0
   19.3062   -3.1407  -14.9729 O   0  0  0  0  0  0  0  0  0  0  0  0
   20.9446   -4.6442  -15.2453 O   0  0  0  0  0  0  0  0  0  0  0  0
  2  1  1  6
  2  3  1  0
  2 10  1  0
  3  4  1  0
  4  9  1  0
  4  5  2  0
  5  6  1  0
  6  7  2  0
  8  7  1  0
  9  8  2  0
 10 11  2  0
 12 13  1  0
 12 10  1  0
 14 15  1  0
 13 14  1  1
 16 20  1  0
 16 15  1  0
 17 16  2  0
 18 13  1  0
 18 21  1  0
 19 18  2  0
 22 21  1  0
 22 23  1  1
 24 23  1  0
 25 24  2  0
 26 25  1  0
 27 26  1  0
 27 28  2  0
 28 24  1  0
 29 22  1  0
 30 29  2  0
 31 29  1  0
M  END
$$$$
