FEH.pdb
     RDKit          3D

 31 32  0  0  1  0  0  0  0  0999 V2000
   40.1518  -10.9896   -4.7145 N   0  0  0  0  0  0  0  0  0  0  0  0
   40.4700  -11.3707   -6.0774 C   0  0  1  0  0  0  0  0  0  0  0  0
   39.4322  -10.7774   -7.0458 C   0  0  0  0  0  0  0  0  0  0  0  0
   38.3294  -11.7016   -7.3239 C   0  0  0  0  0  0  0  0  0  0  0  0
   38.3815  -12.5354   -8.4078 C   0  0  0  0  0  0  0  0  0  0  0  0
   37.3362  -13.4062   -8.6680 C   0  0  0  0  0  0  0  0  0  0  0  0
   36.2578  -13.4130   -7.8217 C   0  0  0  0  0  0  0  0  0  0  0  0
   36.1996  -12.5776   -6.7308 C   0  0  0  0  0  0  0  0  0  0  0  0
   37.2482  -11.7195   -6.4892 C   0  0  0  0  0  0  0  0  0  0  0  0
   41.7584  -10.7384   -6.4822 C   0  0  0  0  0  0  0  0  0  0  0  0
   41.9862   -9.5704   -6.0778 O   0  0  0  0  0  0  0  0  0  0  0  0
   42.7261  -11.3939   -7.2963 N   0  0  0  0  0  0  0  0  0  0  0  0
   43.9904  -10.7941   -7.6039 C   0  0  1  0  0  0  0  0  0  0  0  0
   45.0460  -11.7455   -8.0881 C   0  0  0  0  0  0  0  0  0  0  0  0
   45.4242  -12.8532   -7.1810 C   0  0  0  0  0  0  0  0  0  0  0  0
   46.4369  -13.7193   -7.7879 C   0  0  0  0  0  0  0  0  0  0  0  0
   47.5991  -13.2638   -7.9401 O   0  0  0  0  0  0  0  0  0  0  0  0
   43.9157   -9.6069   -8.4845 C   0  0  0  0  0  0  0  0  0  0  0  0
   43.2071   -9.6534   -9.5330 O   0  0  0  0  0  0  0  0  0  0  0  0
   46.1574  -15.0151   -8.1966 O   0  0  0  0  0  0  0  0  0  0  0  0
   44.6024   -8.3887   -8.2333 N   0  0  0  0  0  0  0  0  0  0  0  0
   44.4315   -7.2571   -9.1520 C   0  0  1  0  0  0  0  0  0  0  0  0
   44.4515   -5.9540   -8.4384 C   0  0  0  0  0  0  0  0  0  0  0  0
   44.1478   -4.8545   -9.3683 C   0  0  0  0  0  0  0  0  0  0  0  0
   43.2721   -4.8273  -10.4280 C   0  0  0  0  0  0  0  0  0  0  0  0
   43.3108   -3.6415  -11.0492 N   0  0  0  0  0  0  0  0  0  0  0  0
   44.2133   -2.8881  -10.3976 C   0  0  0  0  0  0  0  0  0  0  0  0
   44.7207   -3.6142   -9.3840 N   0  0  0  0  0  0  0  0  0  0  0  0
   45.5325   -7.3421  -10.1204 C   0  0  0  0  0  0  0  0  0  0  0  0
   46.6926   -7.6380   -9.7625 O   0  0  0  0  0  0  0  0  0  0  0  0
   45.3508   -7.1014  -11.4743 O   0  0  0  0  0  0  0  0  0  0  0  0
  2  1  1  1
  2  3  1  0
  2 10  1  0
  3  4  1  0
  4  9  1  0
  4  5  2  0
  5  6  1  0
  6  7  2  0
  8  7  1  0
  9  8  2  0
 10 11  2  0
 12 13  1  0
 12 10  1  0
 14 15  1  0
 13 14  1  6
 16 20  1  0
 16 15  1  0
 17 16  2  0
 18 13  1  0
 18 21  1  0
 19 18  2  0
 22 21  1  0
 22 23  1  1
 24 23  1  0
 25 24  2  0
 26 25  1  0
 27 26  1  0
 27 28  2  0
 28 24  1  0
 29 22  1  0
 30 29  2  0
 31 29  1  0
M  END
$$$$
