FEH.pdb
     RDKit          3D

 31 32  0  0  1  0  0  0  0  0999 V2000
   25.2004  -19.1507  -19.2491 N   0  0  0  0  0  0  0  0  0  0  0  0
   24.0323  -18.2946  -19.3312 C   0  0  1  0  0  0  0  0  0  0  0  0
   23.2788  -18.5571  -20.6465 C   0  0  0  0  0  0  0  0  0  0  0  0
   24.0111  -18.0742  -21.8205 C   0  0  0  0  0  0  0  0  0  0  0  0
   23.9903  -16.7465  -22.1516 C   0  0  0  0  0  0  0  0  0  0  0  0
   24.6824  -16.2946  -23.2630 C   0  0  0  0  0  0  0  0  0  0  0  0
   25.3825  -17.2005  -24.0168 C   0  0  0  0  0  0  0  0  0  0  0  0
   25.4074  -18.5359  -23.6892 C   0  0  0  0  0  0  0  0  0  0  0  0
   24.7133  -18.9655  -22.5811 C   0  0  0  0  0  0  0  0  0  0  0  0
   23.0614  -18.6753  -18.2655 C   0  0  0  0  0  0  0  0  0  0  0  0
   23.1304  -19.8427  -17.8049 O   0  0  0  0  0  0  0  0  0  0  0  0
   22.0736  -17.7839  -17.7568 N   0  0  0  0  0  0  0  0  0  0  0  0
   21.2443  -18.1278  -16.6402 C   0  0  1  0  0  0  0  0  0  0  0  0
   20.9011  -16.9872  -15.7263 C   0  0  0  0  0  0  0  0  0  0  0  0
   20.0555  -17.2949  -14.5503 C   0  0  0  0  0  0  0  0  0  0  0  0
   19.1037  -16.2158  -14.2789 C   0  0  0  0  0  0  0  0  0  0  0  0
   19.4879  -15.2411  -13.5835 O   0  0  0  0  0  0  0  0  0  0  0  0
   20.0313  -18.9028  -16.9841 C   0  0  0  0  0  0  0  0  0  0  0  0
   19.1861  -18.4114  -17.7889 O   0  0  0  0  0  0  0  0  0  0  0  0
   17.8028  -16.2344  -14.7604 O   0  0  0  0  0  0  0  0  0  0  0  0
   19.7378  -20.1904  -16.4599 N   0  0  0  0  0  0  0  0  0  0  0  0
   18.5430  -20.9065  -16.9221 C   0  0  1  0  0  0  0  0  0  0  0  0
   18.5189  -22.3134  -16.4449 C   0  0  0  0  0  0  0  0  0  0  0  0
   17.4619  -23.0712  -17.1332 C   0  0  0  0  0  0  0  0  0  0  0  0
   16.5270  -22.6329  -18.0413 C   0  0  0  0  0  0  0  0  0  0  0  0
   15.7158  -23.6321  -18.4115 N   0  0  0  0  0  0  0  0  0  0  0  0
   16.1172  -24.7287  -17.7457 C   0  0  0  0  0  0  0  0  0  0  0  0
   17.1688  -24.3962  -16.9741 N   0  0  0  0  0  0  0  0  0  0  0  0
   17.3888  -20.1580  -16.4076 C   0  0  0  0  0  0  0  0  0  0  0  0
   17.4010  -19.6452  -15.2682 O   0  0  0  0  0  0  0  0  0  0  0  0
   16.2299  -19.9786  -17.1486 O   0  0  0  0  0  0  0  0  0  0  0  0
  2  1  1  6
  2  3  1  0
  2 10  1  0
  3  4  1  0
  4  9  1  0
  4  5  2  0
  5  6  1  0
  6  7  2  0
  8  7  1  0
  9  8  2  0
 10 11  2  0
 12 13  1  0
 12 10  1  0
 14 15  1  0
 13 14  1  6
 16 20  1  0
 16 15  1  0
 17 16  2  0
 18 13  1  0
 18 21  1  0
 19 18  2  0
 22 21  1  0
 22 23  1  1
 24 23  1  0
 25 24  2  0
 26 25  1  0
 27 26  1  0
 27 28  2  0
 28 24  1  0
 29 22  1  0
 30 29  2  0
 31 29  1  0
M  END
$$$$
