FEH.pdb
     RDKit          3D

 31 32  0  0  1  0  0  0  0  0999 V2000
   30.8685  -34.1968   -5.9496 N   0  0  0  0  0  0  0  0  0  0  0  0
   31.1276  -35.3268   -5.0779 C   0  0  1  0  0  0  0  0  0  0  0  0
   32.6293  -35.6611   -5.0817 C   0  0  0  0  0  0  0  0  0  0  0  0
   33.0436  -36.3754   -6.2924 C   0  0  0  0  0  0  0  0  0  0  0  0
   32.5662  -37.6312   -6.5529 C   0  0  0  0  0  0  0  0  0  0  0  0
   32.9618  -38.3034   -7.6975 C   0  0  0  0  0  0  0  0  0  0  0  0
   33.8349  -37.6867   -8.5556 C   0  0  0  0  0  0  0  0  0  0  0  0
   34.3181  -36.4249   -8.2994 C   0  0  0  0  0  0  0  0  0  0  0  0
   33.9133  -35.7732   -7.1567 C   0  0  0  0  0  0  0  0  0  0  0  0
   30.8371  -34.9425   -3.6667 C   0  0  0  0  0  0  0  0  0  0  0  0
   31.1575  -33.7834   -3.3011 O   0  0  0  0  0  0  0  0  0  0  0  0
   30.2214  -35.8220   -2.7306 N   0  0  0  0  0  0  0  0  0  0  0  0
   29.8942  -35.4049   -1.3995 C   0  0  1  0  0  0  0  0  0  0  0  0
   28.4511  -35.5659   -1.0180 C   0  0  0  0  0  0  0  0  0  0  0  0
   27.8188  -36.8740   -1.3044 C   0  0  0  0  0  0  0  0  0  0  0  0
   26.4549  -36.9359   -0.7751 C   0  0  0  0  0  0  0  0  0  0  0  0
   26.1356  -37.9197   -0.0600 O   0  0  0  0  0  0  0  0  0  0  0  0
   30.7761  -35.9513   -0.3440 C   0  0  0  0  0  0  0  0  0  0  0  0
   31.2302  -37.1276   -0.4597 O   0  0  0  0  0  0  0  0  0  0  0  0
   25.5120  -35.9521   -1.0353 O   0  0  0  0  0  0  0  0  0  0  0  0
   31.1566  -35.2334    0.8216 N   0  0  0  0  0  0  0  0  0  0  0  0
   32.1009  -35.8371    1.7692 C   0  0  1  0  0  0  0  0  0  0  0  0
   33.1813  -34.8929    2.1550 C   0  0  0  0  0  0  0  0  0  0  0  0
   34.3045  -34.9831    1.2086 C   0  0  0  0  0  0  0  0  0  0  0  0
   34.4602  -35.8063    0.1182 C   0  0  0  0  0  0  0  0  0  0  0  0
   35.6465  -35.6021   -0.4688 N   0  0  0  0  0  0  0  0  0  0  0  0
   36.2720  -34.6440    0.2368 C   0  0  0  0  0  0  0  0  0  0  0  0
   35.4678  -34.2677    1.2485 N   0  0  0  0  0  0  0  0  0  0  0  0
   31.3105  -36.2373    2.9407 C   0  0  0  0  0  0  0  0  0  0  0  0
   30.0800  -36.0276    2.9980 O   0  0  0  0  0  0  0  0  0  0  0  0
   31.8779  -36.8646    4.0401 O   0  0  0  0  0  0  0  0  0  0  0  0
  2  1  1  6
  2  3  1  0
  2 10  1  0
  3  4  1  0
  4  9  1  0
  4  5  2  0
  5  6  1  0
  6  7  2  0
  8  7  1  0
  9  8  2  0
 10 11  2  0
 12 13  1  0
 12 10  1  0
 14 15  1  0
 13 14  1  1
 16 20  1  0
 16 15  1  0
 17 16  2  0
 18 13  1  0
 18 21  1  0
 19 18  2  0
 22 21  1  0
 22 23  1  1
 24 23  1  0
 25 24  2  0
 26 25  1  0
 27 26  1  0
 27 28  2  0
 28 24  1  0
 29 22  1  0
 30 29  2  0
 31 29  1  0
M  END
$$$$
