FEH.pdb
     RDKit          3D

 31 32  0  0  1  0  0  0  0  0999 V2000
   22.7015   -9.3944  -15.0832 N   0  0  0  0  0  0  0  0  0  0  0  0
   21.5300   -8.5436  -14.9960 C   0  0  1  0  0  0  0  0  0  0  0  0
   21.6566   -7.3707  -15.9834 C   0  0  0  0  0  0  0  0  0  0  0  0
   22.5757   -6.3325  -15.5089 C   0  0  0  0  0  0  0  0  0  0  0  0
   22.2058   -5.4913  -14.4948 C   0  0  0  0  0  0  0  0  0  0  0  0
   23.0769   -4.5103  -14.0505 C   0  0  0  0  0  0  0  0  0  0  0  0
   24.3073   -4.4029  -14.6451 C   0  0  0  0  0  0  0  0  0  0  0  0
   24.6849   -5.2452  -15.6645 C   0  0  0  0  0  0  0  0  0  0  0  0
   23.8053   -6.2136  -16.0921 C   0  0  0  0  0  0  0  0  0  0  0  0
   20.3327   -9.2971  -15.4674 C   0  0  0  0  0  0  0  0  0  0  0  0
   20.4670  -10.0295  -16.4799 O   0  0  0  0  0  0  0  0  0  0  0  0
   19.0625   -9.2212  -14.8271 N   0  0  0  0  0  0  0  0  0  0  0  0
   17.8773   -9.7583  -15.4269 C   0  0  1  0  0  0  0  0  0  0  0  0
   17.1816  -10.8191  -14.6240 C   0  0  0  0  0  0  0  0  0  0  0  0
   16.0118  -11.4794  -15.2473 C   0  0  0  0  0  0  0  0  0  0  0  0
   15.4896  -12.5534  -14.3999 C   0  0  0  0  0  0  0  0  0  0  0  0
   14.6787  -12.2533  -13.4868 O   0  0  0  0  0  0  0  0  0  0  0  0
   16.9086   -8.7450  -15.9014 C   0  0  0  0  0  0  0  0  0  0  0  0
   16.6535   -7.7396  -15.1750 O   0  0  0  0  0  0  0  0  0  0  0  0
   15.8578  -13.8799  -14.5710 O   0  0  0  0  0  0  0  0  0  0  0  0
   16.2240   -8.8231  -17.1440 N   0  0  0  0  0  0  0  0  0  0  0  0
   15.3051   -7.7474  -17.5347 C   0  0  1  0  0  0  0  0  0  0  0  0
   15.4146   -7.4206  -18.9799 C   0  0  0  0  0  0  0  0  0  0  0  0
   16.7899   -7.0157  -19.3122 C   0  0  0  0  0  0  0  0  0  0  0  0
   17.7864   -7.7387  -19.9246 C   0  0  0  0  0  0  0  0  0  0  0  0
   18.9117   -7.0184  -20.0162 N   0  0  0  0  0  0  0  0  0  0  0  0
   18.6551   -5.8204  -19.4629 C   0  0  0  0  0  0  0  0  0  0  0  0
   17.3782   -5.8137  -19.0371 N   0  0  0  0  0  0  0  0  0  0  0  0
   13.9539   -8.2188  -17.2041 C   0  0  0  0  0  0  0  0  0  0  0  0
   13.7396   -9.4073  -16.8830 O   0  0  0  0  0  0  0  0  0  0  0  0
   12.8486   -7.3811  -17.2288 O   0  0  0  0  0  0  0  0  0  0  0  0
  2  1  1  6
  2  3  1  0
  2 10  1  0
  3  4  1  0
  4  9  1  0
  4  5  2  0
  5  6  1  0
  6  7  2  0
  8  7  1  0
  9  8  2  0
 10 11  2  0
 12 13  1  0
 12 10  1  0
 14 15  1  0
 13 14  1  1
 16 20  1  0
 16 15  1  0
 17 16  2  0
 18 13  1  0
 18 21  1  0
 19 18  2  0
 22 21  1  0
 22 23  1  6
 24 23  1  0
 25 24  2  0
 26 25  1  0
 27 26  1  0
 27 28  2  0
 28 24  1  0
 29 22  1  0
 30 29  2  0
 31 29  1  0
M  END
$$$$
