NLF.pdb
     RDKit          3D

 28 28  0  0  1  0  0  0  0  0999 V2000
   10.9327  -21.5532   19.8804 N   0  0  0  0  0  0  0  0  0  0  0  0
   10.3851  -20.7848   18.8304 C   0  0  0  0  0  0  0  0  0  0  0  0
   10.3915  -21.2413   17.6543 O   0  0  0  0  0  0  0  0  0  0  0  0
    9.8137  -19.4506   19.1379 C   0  0  0  0  0  0  0  0  0  0  0  0
    9.9424  -19.1481   20.6380 C   0  0  2  0  0  0  0  0  0  0  0  0
    8.7589  -19.6215   21.2903 N   0  0  0  0  0  0  0  0  0  0  0  0
   10.1233  -17.6776   20.7485 C   0  0  0  0  0  0  0  0  0  0  0  0
   11.1474  -17.0974   20.2766 O   0  0  0  0  0  0  0  0  0  0  0  0
    8.3796  -12.5315   20.4797 C   0  0  0  0  0  0  0  0  0  0  0  0
    7.5664  -13.5107   21.2327 C   0  0  1  0  0  0  0  0  0  0  0  0
    6.1040  -13.3140   20.8304 C   0  0  0  0  0  0  0  0  0  0  0  0
    7.9048  -14.9396   21.1521 C   0  0  0  0  0  0  0  0  0  0  0  0
    9.2446  -15.4274   21.5352 C   0  0  2  0  0  0  0  0  0  0  0  0
    9.1457  -16.9128   21.3861 N   0  0  0  0  0  0  0  0  0  0  0  0
    9.7136  -15.1725   22.9044 C   0  0  0  0  0  0  0  0  0  0  0  0
   10.0982  -14.0683   23.3395 O   0  0  0  0  0  0  0  0  0  0  0  0
    9.7643  -16.2385   23.8883 N   0  0  0  0  0  0  0  0  0  0  0  0
    9.3334  -16.0137   25.2523 C   0  0  1  0  0  0  0  0  0  0  0  0
    7.8921  -15.5322   25.1686 C   0  0  0  0  0  0  0  0  0  0  0  0
    7.7013  -14.1888   25.7640 C   0  0  0  0  0  0  0  0  0  0  0  0
    6.4328  -13.7304   25.9883 C   0  0  0  0  0  0  0  0  0  0  0  0
    6.2924  -12.4623   26.5519 C   0  0  0  0  0  0  0  0  0  0  0  0
    7.4107  -11.7083   26.8673 C   0  0  0  0  0  0  0  0  0  0  0  0
    8.6797  -12.1980   26.6296 C   0  0  0  0  0  0  0  0  0  0  0  0
    8.8430  -13.4543   26.0709 C   0  0  0  0  0  0  0  0  0  0  0  0
    9.4885  -17.2613   26.0101 C   0  0  0  0  0  0  0  0  0  0  0  0
    9.6445  -17.2590   27.3835 O   0  0  0  0  0  0  0  0  0  0  0  0
    9.4837  -18.3599   25.4125 O   0  0  0  0  0  0  0  0  0  0  0  0
  2  1  1  0
  2  3  2  0
  4  2  1  0
  5  4  1  0
  5  6  1  1
  7  8  2  0
  7  5  1  0
 10  9  1  6
 10 12  1  0
 11 10  1  0
 13 12  1  1
 13 14  1  0
 14  7  1  0
 15 17  1  0
 15 13  1  0
 16 15  2  0
 18 17  1  0
 18 26  1  0
 18 19  1  6
 20 19  1  0
 20 25  2  0
 21 20  1  0
 22 23  1  0
 22 21  2  0
 23 24  2  0
 24 25  1  0
 26 27  1  0
 28 26  2  0
M  END
$$$$
