NLF.pdb
     RDKit          3D

 28 28  0  0  1  0  0  0  0  0999 V2000
   10.7568  -21.6123   19.9265 N   0  0  0  0  0  0  0  0  0  0  0  0
   10.5919  -20.4326   19.1689 C   0  0  0  0  0  0  0  0  0  0  0  0
   10.1833  -20.5082   17.9777 O   0  0  0  0  0  0  0  0  0  0  0  0
   10.9069  -19.1254   19.7959 C   0  0  0  0  0  0  0  0  0  0  0  0
    9.7110  -18.6277   20.6209 C   0  0  2  0  0  0  0  0  0  0  0  0
    8.5594  -18.6123   19.7701 N   0  0  0  0  0  0  0  0  0  0  0  0
   10.0870  -17.2803   21.1215 C   0  0  0  0  0  0  0  0  0  0  0  0
   11.2936  -16.8903   21.1358 O   0  0  0  0  0  0  0  0  0  0  0  0
    8.4888  -14.2771   19.1476 C   0  0  0  0  0  0  0  0  0  0  0  0
    8.2942  -13.5155   20.4003 C   0  0  1  0  0  0  0  0  0  0  0  0
    7.0261  -12.6746   20.2459 C   0  0  0  0  0  0  0  0  0  0  0  0
    8.2456  -14.2377   21.6805 C   0  0  0  0  0  0  0  0  0  0  0  0
    9.3854  -15.0589   22.1350 C   0  0  2  0  0  0  0  0  0  0  0  0
    9.0922  -16.4202   21.5879 N   0  0  0  0  0  0  0  0  0  0  0  0
    9.5933  -15.2225   23.5806 C   0  0  0  0  0  0  0  0  0  0  0  0
   10.3874  -14.5548   24.2735 O   0  0  0  0  0  0  0  0  0  0  0  0
    8.8551  -16.2193   24.3344 N   0  0  0  0  0  0  0  0  0  0  0  0
    8.8802  -16.2271   25.7822 C   0  0  1  0  0  0  0  0  0  0  0  0
    7.4550  -15.9421   26.2333 C   0  0  0  0  0  0  0  0  0  0  0  0
    7.1471  -14.4933   26.2785 C   0  0  0  0  0  0  0  0  0  0  0  0
    8.0207  -13.6426   26.8969 C   0  0  0  0  0  0  0  0  0  0  0  0
    7.6984  -12.2857   26.9179 C   0  0  0  0  0  0  0  0  0  0  0  0
    6.5299  -11.8342   26.3271 C   0  0  0  0  0  0  0  0  0  0  0  0
    5.6667  -12.7174   25.7092 C   0  0  0  0  0  0  0  0  0  0  0  0
    5.9664  -14.0687   25.6763 C   0  0  0  0  0  0  0  0  0  0  0  0
    9.3884  -17.5258   26.2405 C   0  0  0  0  0  0  0  0  0  0  0  0
    9.7457  -18.5188   25.3479 O   0  0  0  0  0  0  0  0  0  0  0  0
    9.5042  -17.7546   27.4645 O   0  0  0  0  0  0  0  0  0  0  0  0
  2  1  1  0
  2  3  2  0
  4  2  1  0
  5  4  1  0
  5  6  1  6
  7  8  2  0
  7  5  1  0
 10  9  1  6
 10 12  1  0
 11 10  1  0
 13 12  1  1
 13 14  1  0
 14  7  1  0
 15 17  1  0
 15 13  1  0
 16 15  2  0
 18 17  1  0
 18 26  1  0
 18 19  1  1
 20 19  1  0
 20 25  2  0
 21 20  1  0
 22 23  1  0
 22 21  2  0
 23 24  2  0
 24 25  1  0
 26 27  1  0
 28 26  2  0
M  END
$$$$
