NLF.pdb
     RDKit          3D

 28 28  0  0  1  0  0  0  0  0999 V2000
    8.5527  -20.9488   19.1897 N   0  0  0  0  0  0  0  0  0  0  0  0
    8.5876  -19.8638   18.2872 C   0  0  0  0  0  0  0  0  0  0  0  0
    8.6286  -20.0859   17.0460 O   0  0  0  0  0  0  0  0  0  0  0  0
    8.5770  -18.4809   18.8244 C   0  0  0  0  0  0  0  0  0  0  0  0
    8.6720  -18.5034   20.3570 C   0  0  2  0  0  0  0  0  0  0  0  0
    7.3533  -18.6934   20.8815 N   0  0  0  0  0  0  0  0  0  0  0  0
    9.2777  -17.2055   20.7521 C   0  0  0  0  0  0  0  0  0  0  0  0
   10.4655  -16.9015   20.4287 O   0  0  0  0  0  0  0  0  0  0  0  0
    6.3922  -12.9672   19.9122 C   0  0  0  0  0  0  0  0  0  0  0  0
    7.5590  -13.8288   20.2011 C   0  0  1  0  0  0  0  0  0  0  0  0
    8.7400  -13.3102   19.3793 C   0  0  0  0  0  0  0  0  0  0  0  0
    7.9839  -14.0194   21.5961 C   0  0  0  0  0  0  0  0  0  0  0  0
    9.0586  -14.9712   21.9413 C   0  0  2  0  0  0  0  0  0  0  0  0
    8.5253  -16.2966   21.4970 N   0  0  0  0  0  0  0  0  0  0  0  0
    9.4296  -15.1200   23.3555 C   0  0  0  0  0  0  0  0  0  0  0  0
   10.2870  -14.4361   23.9503 O   0  0  0  0  0  0  0  0  0  0  0  0
    8.7946  -16.1200   24.1942 N   0  0  0  0  0  0  0  0  0  0  0  0
    9.1677  -16.2708   25.5852 C   0  0  1  0  0  0  0  0  0  0  0  0
    7.9668  -15.8116   26.3994 C   0  0  0  0  0  0  0  0  0  0  0  0
    7.8706  -14.3361   26.4963 C   0  0  0  0  0  0  0  0  0  0  0  0
    8.9537  -13.6218   26.9276 C   0  0  0  0  0  0  0  0  0  0  0  0
    8.8264  -12.2350   27.0040 C   0  0  0  0  0  0  0  0  0  0  0  0
    7.6365  -11.6203   26.6507 C   0  0  0  0  0  0  0  0  0  0  0  0
    6.5594  -12.3682   26.2181 C   0  0  0  0  0  0  0  0  0  0  0  0
    6.6630  -13.7463   26.1343 C   0  0  0  0  0  0  0  0  0  0  0  0
    9.5361  -17.6710   25.8280 C   0  0  0  0  0  0  0  0  0  0  0  0
    9.6194  -18.5866   24.7959 O   0  0  0  0  0  0  0  0  0  0  0  0
    9.7810  -18.0598   26.9911 O   0  0  0  0  0  0  0  0  0  0  0  0
  2  1  1  0
  2  3  2  0
  4  2  1  0
  5  4  1  0
  5  6  1  1
  7  8  2  0
  7  5  1  0
 10  9  1  1
 10 12  1  0
 11 10  1  0
 13 12  1  1
 13 14  1  0
 14  7  1  0
 15 17  1  0
 15 13  1  0
 16 15  2  0
 18 17  1  0
 18 26  1  0
 18 19  1  1
 20 19  1  0
 20 25  2  0
 21 20  1  0
 22 23  1  0
 22 21  2  0
 23 24  2  0
 24 25  1  0
 26 27  1  0
 28 26  2  0
M  END
$$$$
