NLF.pdb
     RDKit          3D

 28 28  0  0  1  0  0  0  0  0999 V2000
    7.7208  -20.7450   18.7721 N   0  0  0  0  0  0  0  0  0  0  0  0
    8.0732  -19.8010   17.7834 C   0  0  0  0  0  0  0  0  0  0  0  0
    7.8326  -20.0491   16.5700 O   0  0  0  0  0  0  0  0  0  0  0  0
    8.7232  -18.5335   18.1983 C   0  0  0  0  0  0  0  0  0  0  0  0
    9.1272  -18.6011   19.6784 C   0  0  2  0  0  0  0  0  0  0  0  0
    7.9406  -18.8002   20.4546 N   0  0  0  0  0  0  0  0  0  0  0  0
    9.8141  -17.3181   19.9777 C   0  0  0  0  0  0  0  0  0  0  0  0
   10.8643  -16.9674   19.3595 O   0  0  0  0  0  0  0  0  0  0  0  0
    6.5624  -13.0454   20.3303 C   0  0  0  0  0  0  0  0  0  0  0  0
    7.8490  -13.7513   20.1469 C   0  0  1  0  0  0  0  0  0  0  0  0
    8.7883  -12.8220   19.3765 C   0  0  0  0  0  0  0  0  0  0  0  0
    8.5507  -14.2844   21.3243 C   0  0  0  0  0  0  0  0  0  0  0  0
    9.7862  -15.0796   21.1789 C   0  0  2  0  0  0  0  0  0  0  0  0
    9.2949  -16.4760   20.9618 N   0  0  0  0  0  0  0  0  0  0  0  0
   10.7177  -15.1333   22.3143 C   0  0  0  0  0  0  0  0  0  0  0  0
   11.5429  -14.2458   22.6107 O   0  0  0  0  0  0  0  0  0  0  0  0
   10.7422  -16.2766   23.2082 N   0  0  0  0  0  0  0  0  0  0  0  0
   10.9328  -16.1034   24.6331 C   0  0  1  0  0  0  0  0  0  0  0  0
    9.7506  -15.2797   25.1229 C   0  0  0  0  0  0  0  0  0  0  0  0
    9.8563  -14.9219   26.5569 C   0  0  0  0  0  0  0  0  0  0  0  0
    9.2672  -13.7722   27.0048 C   0  0  0  0  0  0  0  0  0  0  0  0
    9.3860  -13.4693   28.3611 C   0  0  0  0  0  0  0  0  0  0  0  0
   10.0801  -14.3159   29.2096 C   0  0  0  0  0  0  0  0  0  0  0  0
   10.6645  -15.4707   28.7284 C   0  0  0  0  0  0  0  0  0  0  0  0
   10.5592  -15.7915   27.3856 C   0  0  0  0  0  0  0  0  0  0  0  0
   11.0233  -17.4261   25.2635 C   0  0  0  0  0  0  0  0  0  0  0  0
   10.9022  -18.5888   24.5260 O   0  0  0  0  0  0  0  0  0  0  0  0
   11.2118  -17.5190   26.4963 O   0  0  0  0  0  0  0  0  0  0  0  0
  2  1  1  0
  2  3  2  0
  4  2  1  0
  5  4  1  0
  5  6  1  1
  7  8  2  0
  7  5  1  0
 10  9  1  1
 10 12  1  0
 11 10  1  0
 13 12  1  1
 13 14  1  0
 14  7  1  0
 15 17  1  0
 15 13  1  0
 16 15  2  0
 18 17  1  0
 18 26  1  0
 18 19  1  1
 20 19  1  0
 20 25  2  0
 21 20  1  0
 22 23  1  0
 22 21  2  0
 23 24  2  0
 24 25  1  0
 26 27  1  0
 28 26  2  0
M  END
$$$$
