NLF.pdb
     RDKit          3D

 28 28  0  0  1  0  0  0  0  0999 V2000
   10.5336  -21.2535   19.1280 N   0  0  0  0  0  0  0  0  0  0  0  0
   10.3831  -20.2011   18.1993 C   0  0  0  0  0  0  0  0  0  0  0  0
   10.6666  -20.3950   16.9853 O   0  0  0  0  0  0  0  0  0  0  0  0
    9.8941  -18.8845   18.6773 C   0  0  0  0  0  0  0  0  0  0  0  0
    9.7613  -18.8884   20.2073 C   0  0  2  0  0  0  0  0  0  0  0  0
    8.4365  -19.3199   20.5375 N   0  0  0  0  0  0  0  0  0  0  0  0
   10.0524  -17.5005   20.6504 C   0  0  0  0  0  0  0  0  0  0  0  0
   11.1851  -16.9650   20.4550 O   0  0  0  0  0  0  0  0  0  0  0  0
    8.9718  -12.4305   20.4351 C   0  0  0  0  0  0  0  0  0  0  0  0
    7.9735  -13.1854   21.2230 C   0  0  1  0  0  0  0  0  0  0  0  0
    6.5829  -12.7553   20.7536 C   0  0  0  0  0  0  0  0  0  0  0  0
    8.0435  -14.6541   21.2538 C   0  0  0  0  0  0  0  0  0  0  0  0
    9.2527  -15.3486   21.7388 C   0  0  2  0  0  0  0  0  0  0  0  0
    9.0587  -16.7650   21.2975 N   0  0  0  0  0  0  0  0  0  0  0  0
    9.4989  -15.3895   23.1871 C   0  0  0  0  0  0  0  0  0  0  0  0
   10.3775  -14.7371   23.7863 O   0  0  0  0  0  0  0  0  0  0  0  0
    8.6999  -16.2318   24.0582 N   0  0  0  0  0  0  0  0  0  0  0  0
    8.8525  -16.1714   25.4968 C   0  0  1  0  0  0  0  0  0  0  0  0
    7.4649  -15.9015   26.0603 C   0  0  0  0  0  0  0  0  0  0  0  0
    7.1358  -14.4574   26.1059 C   0  0  0  0  0  0  0  0  0  0  0  0
    8.0413  -13.5812   26.6368 C   0  0  0  0  0  0  0  0  0  0  0  0
    7.6976  -12.2297   26.6609 C   0  0  0  0  0  0  0  0  0  0  0  0
    6.4772  -11.8083   26.1595 C   0  0  0  0  0  0  0  0  0  0  0  0
    5.5828  -12.7167   25.6288 C   0  0  0  0  0  0  0  0  0  0  0  0
    5.9028  -14.0633   25.5945 C   0  0  0  0  0  0  0  0  0  0  0  0
    9.4366  -17.4343   25.9649 C   0  0  0  0  0  0  0  0  0  0  0  0
    9.7341  -17.6435   27.2984 O   0  0  0  0  0  0  0  0  0  0  0  0
    9.6786  -18.3508   25.1492 O   0  0  0  0  0  0  0  0  0  0  0  0
  2  1  1  0
  2  3  2  0
  4  2  1  0
  5  4  1  0
  5  6  1  6
  7  8  2  0
  7  5  1  0
 10  9  1  6
 10 12  1  0
 11 10  1  0
 13 12  1  1
 13 14  1  0
 14  7  1  0
 15 17  1  0
 15 13  1  0
 16 15  2  0
 18 17  1  0
 18 26  1  0
 18 19  1  1
 20 19  1  0
 20 25  2  0
 21 20  1  0
 22 23  1  0
 22 21  2  0
 23 24  2  0
 24 25  1  0
 26 27  1  0
 28 26  2  0
M  END
$$$$
