NLF.pdb
     RDKit          3D

 28 28  0  0  1  0  0  0  0  0999 V2000
   13.7685  -18.6321   18.1463 N   0  0  0  0  0  0  0  0  0  0  0  0
   12.3808  -18.4115   18.0103 C   0  0  0  0  0  0  0  0  0  0  0  0
   11.6895  -19.2004   17.3093 O   0  0  0  0  0  0  0  0  0  0  0  0
   11.7666  -17.2492   18.6979 C   0  0  0  0  0  0  0  0  0  0  0  0
   10.9975  -17.7121   19.9440 C   0  0  2  0  0  0  0  0  0  0  0  0
    9.8693  -18.4799   19.5105 N   0  0  0  0  0  0  0  0  0  0  0  0
   10.6180  -16.4770   20.6773 C   0  0  0  0  0  0  0  0  0  0  0  0
   11.4907  -15.6516   21.0837 O   0  0  0  0  0  0  0  0  0  0  0  0
    6.4069  -13.6320   19.1178 C   0  0  0  0  0  0  0  0  0  0  0  0
    7.6623  -13.9922   19.8117 C   0  0  1  0  0  0  0  0  0  0  0  0
    8.5464  -12.7451   19.8594 C   0  0  0  0  0  0  0  0  0  0  0  0
    7.5957  -14.5923   21.1527 C   0  0  0  0  0  0  0  0  0  0  0  0
    8.8097  -15.1050   21.8185 C   0  0  2  0  0  0  0  0  0  0  0  0
    9.2704  -16.2149   20.9272 N   0  0  0  0  0  0  0  0  0  0  0  0
    8.6768  -15.6757   23.1662 C   0  0  0  0  0  0  0  0  0  0  0  0
    7.8528  -16.5516   23.4987 O   0  0  0  0  0  0  0  0  0  0  0  0
    9.5344  -15.2374   24.2520 N   0  0  0  0  0  0  0  0  0  0  0  0
    9.1722  -15.4829   25.6323 C   0  0  1  0  0  0  0  0  0  0  0  0
    7.6938  -15.1419   25.7507 C   0  0  0  0  0  0  0  0  0  0  0  0
    7.4610  -13.7758   26.2752 C   0  0  0  0  0  0  0  0  0  0  0  0
    6.1878  -13.3865   26.5864 C   0  0  0  0  0  0  0  0  0  0  0  0
    6.0078  -12.0942   27.0794 C   0  0  0  0  0  0  0  0  0  0  0  0
    7.0930  -11.2490   27.2417 C   0  0  0  0  0  0  0  0  0  0  0  0
    8.3678  -11.6704   26.9191 C   0  0  0  0  0  0  0  0  0  0  0  0
    8.5702  -12.9491   26.4281 C   0  0  0  0  0  0  0  0  0  0  0  0
    9.4765  -16.8810   25.9608 C   0  0  0  0  0  0  0  0  0  0  0  0
    9.7282  -17.2808   27.2597 O   0  0  0  0  0  0  0  0  0  0  0  0
    9.5146  -17.7416   25.0542 O   0  0  0  0  0  0  0  0  0  0  0  0
  2  1  1  0
  2  3  2  0
  4  2  1  0
  5  4  1  0
  5  6  1  6
  7  8  2  0
  7  5  1  0
 10  9  1  1
 10 12  1  0
 11 10  1  0
 13 12  1  6
 13 14  1  0
 14  7  1  0
 15 17  1  0
 15 13  1  0
 16 15  2  0
 18 17  1  0
 18 26  1  0
 18 19  1  6
 20 19  1  0
 20 25  2  0
 21 20  1  0
 22 23  1  0
 22 21  2  0
 23 24  2  0
 24 25  1  0
 26 27  1  0
 28 26  2  0
M  END
$$$$
