NLF.pdb
     RDKit          3D

 28 28  0  0  1  0  0  0  0  0999 V2000
   13.5219  -21.3195   20.7920 N   0  0  0  0  0  0  0  0  0  0  0  0
   12.5795  -20.4788   20.1612 C   0  0  0  0  0  0  0  0  0  0  0  0
   12.2062  -20.7334   18.9833 O   0  0  0  0  0  0  0  0  0  0  0  0
   12.0497  -19.3084   20.9032 C   0  0  0  0  0  0  0  0  0  0  0  0
   11.7959  -18.1379   19.9420 C   0  0  2  0  0  0  0  0  0  0  0  0
   13.0371  -17.8030   19.3116 N   0  0  0  0  0  0  0  0  0  0  0  0
   11.2441  -17.0352   20.7710 C   0  0  0  0  0  0  0  0  0  0  0  0
   11.9990  -16.1835   21.3303 O   0  0  0  0  0  0  0  0  0  0  0  0
    8.0934  -12.8396   21.2280 C   0  0  0  0  0  0  0  0  0  0  0  0
    7.3779  -14.1311   21.1420 C   0  0  1  0  0  0  0  0  0  0  0  0
    6.2394  -13.9704   20.1335 C   0  0  0  0  0  0  0  0  0  0  0  0
    8.1348  -15.3528   20.8301 C   0  0  0  0  0  0  0  0  0  0  0  0
    9.2208  -15.8219   21.7136 C   0  0  2  0  0  0  0  0  0  0  0  0
    9.8631  -16.9305   20.9409 N   0  0  0  0  0  0  0  0  0  0  0  0
    8.8606  -16.3776   23.0255 C   0  0  0  0  0  0  0  0  0  0  0  0
    8.4933  -17.5516   23.2335 O   0  0  0  0  0  0  0  0  0  0  0  0
    8.9091  -15.5592   24.2234 N   0  0  0  0  0  0  0  0  0  0  0  0
    8.6585  -16.1343   25.5284 C   0  0  1  0  0  0  0  0  0  0  0  0
    8.9349  -15.0307   26.5392 C   0  0  0  0  0  0  0  0  0  0  0  0
    7.9728  -13.9081   26.4394 C   0  0  0  0  0  0  0  0  0  0  0  0
    8.1530  -12.8009   27.2210 C   0  0  0  0  0  0  0  0  0  0  0  0
    7.2286  -11.7638   27.0983 C   0  0  0  0  0  0  0  0  0  0  0  0
    6.1713  -11.8695   26.2098 C   0  0  0  0  0  0  0  0  0  0  0  0
    6.0152  -13.0003   25.4328 C   0  0  0  0  0  0  0  0  0  0  0  0
    6.9209  -14.0422   25.5380 C   0  0  0  0  0  0  0  0  0  0  0  0
    7.2778  -16.6311   25.5702 C   0  0  0  0  0  0  0  0  0  0  0  0
    6.8503  -17.4977   26.5586 O   0  0  0  0  0  0  0  0  0  0  0  0
    6.4581  -16.2726   24.6964 O   0  0  0  0  0  0  0  0  0  0  0  0
  2  1  1  0
  2  3  2  0
  4  2  1  0
  5  4  1  0
  5  6  1  1
  7  8  2  0
  7  5  1  0
 10  9  1  6
 10 12  1  0
 11 10  1  0
 13 12  1  6
 13 14  1  0
 14  7  1  0
 15 17  1  0
 15 13  1  0
 16 15  2  0
 18 17  1  0
 18 26  1  0
 18 19  1  1
 20 19  1  0
 20 25  2  0
 21 20  1  0
 22 23  1  0
 22 21  2  0
 23 24  2  0
 24 25  1  0
 26 27  1  0
 28 26  2  0
M  END
$$$$
