NLF.pdb
     RDKit          3D

 28 28  0  0  1  0  0  0  0  0999 V2000
    9.8971  -20.7341   19.2590 N   0  0  0  0  0  0  0  0  0  0  0  0
   10.0719  -19.6431   18.3803 C   0  0  0  0  0  0  0  0  0  0  0  0
   10.3135  -19.8570   17.1606 O   0  0  0  0  0  0  0  0  0  0  0  0
    9.9684  -18.2638   18.9167 C   0  0  0  0  0  0  0  0  0  0  0  0
    9.7080  -18.2981   20.4298 C   0  0  2  0  0  0  0  0  0  0  0  0
    8.3316  -18.6342   20.6366 N   0  0  0  0  0  0  0  0  0  0  0  0
   10.0644  -16.9493   20.9407 C   0  0  0  0  0  0  0  0  0  0  0  0
   11.2603  -16.5280   20.9245 O   0  0  0  0  0  0  0  0  0  0  0  0
    6.6126  -12.9399   19.9872 C   0  0  0  0  0  0  0  0  0  0  0  0
    7.8689  -13.6493   20.3123 C   0  0  1  0  0  0  0  0  0  0  0  0
    9.0279  -12.8462   19.7201 C   0  0  0  0  0  0  0  0  0  0  0  0
    8.1689  -13.9737   21.7150 C   0  0  0  0  0  0  0  0  0  0  0  0
    9.3450  -14.7916   22.0725 C   0  0  2  0  0  0  0  0  0  0  0  0
    9.0626  -16.1232   21.4516 N   0  0  0  0  0  0  0  0  0  0  0  0
    9.6142  -15.0399   23.4957 C   0  0  0  0  0  0  0  0  0  0  0  0
   10.4182  -14.3955   24.1992 O   0  0  0  0  0  0  0  0  0  0  0  0
    8.9318  -16.1021   24.2118 N   0  0  0  0  0  0  0  0  0  0  0  0
    9.0497  -16.2257   25.6497 C   0  0  1  0  0  0  0  0  0  0  0  0
    7.6551  -15.9918   26.2120 C   0  0  0  0  0  0  0  0  0  0  0  0
    7.3197  -14.5535   26.3329 C   0  0  0  0  0  0  0  0  0  0  0  0
    6.1083  -14.1087   25.8812 C   0  0  0  0  0  0  0  0  0  0  0  0
    5.8271  -12.7490   26.0135 C   0  0  0  0  0  0  0  0  0  0  0  0
    6.7549  -11.8943   26.5856 C   0  0  0  0  0  0  0  0  0  0  0  0
    7.9704  -12.3728   27.0332 C   0  0  0  0  0  0  0  0  0  0  0  0
    8.2710  -13.7189   26.9121 C   0  0  0  0  0  0  0  0  0  0  0  0
    9.5923  -17.5520   25.9686 C   0  0  0  0  0  0  0  0  0  0  0  0
    9.8420  -17.9373   27.2723 O   0  0  0  0  0  0  0  0  0  0  0  0
    9.8419  -18.3623   25.0493 O   0  0  0  0  0  0  0  0  0  0  0  0
  2  1  1  0
  2  3  2  0
  4  2  1  0
  5  4  1  0
  5  6  1  6
  7  8  2  0
  7  5  1  0
 10  9  1  1
 10 12  1  0
 11 10  1  0
 13 12  1  1
 13 14  1  0
 14  7  1  0
 15 17  1  0
 15 13  1  0
 16 15  2  0
 18 17  1  0
 18 26  1  0
 18 19  1  1
 20 19  1  0
 20 25  2  0
 21 20  1  0
 22 23  1  0
 22 21  2  0
 23 24  2  0
 24 25  1  0
 26 27  1  0
 28 26  2  0
M  END
$$$$
