NLF.pdb
     RDKit          3D

 28 28  0  0  1  0  0  0  0  0999 V2000
   15.0160  -20.1203   21.7996 N   0  0  0  0  0  0  0  0  0  0  0  0
   13.9076  -19.4004   21.3035 C   0  0  0  0  0  0  0  0  0  0  0  0
   13.2883  -19.8282   20.2911 O   0  0  0  0  0  0  0  0  0  0  0  0
   13.4974  -18.1499   21.9884 C   0  0  0  0  0  0  0  0  0  0  0  0
   12.7462  -17.2302   21.0145 C   0  0  2  0  0  0  0  0  0  0  0  0
   13.7142  -16.4542   20.2996 N   0  0  0  0  0  0  0  0  0  0  0  0
   11.8335  -16.4048   21.8469 C   0  0  0  0  0  0  0  0  0  0  0  0
   12.2670  -15.4516   22.5620 O   0  0  0  0  0  0  0  0  0  0  0  0
    7.7098  -13.2552   22.5601 C   0  0  0  0  0  0  0  0  0  0  0  0
    7.3509  -14.6104   22.0892 C   0  0  1  0  0  0  0  0  0  0  0  0
    6.3776  -14.4581   20.9194 C   0  0  0  0  0  0  0  0  0  0  0  0
    8.4203  -15.5473   21.7129 C   0  0  0  0  0  0  0  0  0  0  0  0
    9.4804  -15.9173   22.6716 C   0  0  2  0  0  0  0  0  0  0  0  0
   10.4658  -16.6817   21.8449 N   0  0  0  0  0  0  0  0  0  0  0  0
    9.1235  -16.7810   23.8057 C   0  0  0  0  0  0  0  0  0  0  0  0
    9.3004  -18.0151   23.8540 O   0  0  0  0  0  0  0  0  0  0  0  0
    8.5116  -16.2309   25.0014 N   0  0  0  0  0  0  0  0  0  0  0  0
    8.1215  -17.0892   26.1004 C   0  0  1  0  0  0  0  0  0  0  0  0
    7.6777  -16.1646   27.2247 C   0  0  0  0  0  0  0  0  0  0  0  0
    8.7655  -15.2783   27.7009 C   0  0  0  0  0  0  0  0  0  0  0  0
    9.7457  -15.7936   28.5028 C   0  0  0  0  0  0  0  0  0  0  0  0
   10.7541  -14.9298   28.9298 C   0  0  0  0  0  0  0  0  0  0  0  0
   10.7465  -13.5995   28.5443 C   0  0  0  0  0  0  0  0  0  0  0  0
    9.7432  -13.1075   27.7330 C   0  0  0  0  0  0  0  0  0  0  0  0
    8.7320  -13.9468   27.2972 C   0  0  0  0  0  0  0  0  0  0  0  0
    7.0639  -17.9974   25.6402 C   0  0  0  0  0  0  0  0  0  0  0  0
    6.3058  -17.7161   24.5192 O   0  0  0  0  0  0  0  0  0  0  0  0
    6.8302  -19.0532   26.2684 O   0  0  0  0  0  0  0  0  0  0  0  0
  2  1  1  0
  2  3  2  0
  4  2  1  0
  5  4  1  0
  5  6  1  1
  7  8  2  0
  7  5  1  0
 10  9  1  6
 10 12  1  0
 11 10  1  0
 13 12  1  6
 13 14  1  0
 14  7  1  0
 15 17  1  0
 15 13  1  0
 16 15  2  0
 18 17  1  0
 18 26  1  0
 18 19  1  1
 20 19  1  0
 20 25  2  0
 21 20  1  0
 22 23  1  0
 22 21  2  0
 23 24  2  0
 24 25  1  0
 26 27  1  0
 28 26  2  0
M  END
$$$$
