NLF.pdb
     RDKit          3D

 28 28  0  0  1  0  0  0  0  0999 V2000
    8.3596  -21.4369   21.7556 N   0  0  0  0  0  0  0  0  0  0  0  0
    9.5290  -20.7972   21.2909 C   0  0  0  0  0  0  0  0  0  0  0  0
   10.2967  -21.4030   20.4938 O   0  0  0  0  0  0  0  0  0  0  0  0
    9.8289  -19.4205   21.7557 C   0  0  0  0  0  0  0  0  0  0  0  0
    9.6245  -18.4154   20.6127 C   0  0  2  0  0  0  0  0  0  0  0  0
   10.4723  -18.8006   19.5249 N   0  0  0  0  0  0  0  0  0  0  0  0
    9.9600  -17.0805   21.1720 C   0  0  0  0  0  0  0  0  0  0  0  0
   11.1610  -16.6869   21.2756 O   0  0  0  0  0  0  0  0  0  0  0  0
    6.4582  -13.1752   19.8636 C   0  0  0  0  0  0  0  0  0  0  0  0
    7.7017  -13.8744   20.2537 C   0  0  1  0  0  0  0  0  0  0  0  0
    8.8769  -13.1335   19.6140 C   0  0  0  0  0  0  0  0  0  0  0  0
    7.9848  -14.0957   21.6798 C   0  0  0  0  0  0  0  0  0  0  0  0
    9.1764  -14.8536   22.1107 C   0  0  2  0  0  0  0  0  0  0  0  0
    8.9323  -16.2366   21.5947 N   0  0  0  0  0  0  0  0  0  0  0  0
    9.4368  -14.9821   23.5513 C   0  0  0  0  0  0  0  0  0  0  0  0
   10.0005  -14.1240   24.2601 O   0  0  0  0  0  0  0  0  0  0  0  0
    9.0380  -16.1723   24.2802 N   0  0  0  0  0  0  0  0  0  0  0  0
    9.1705  -16.2425   25.7204 C   0  0  1  0  0  0  0  0  0  0  0  0
    7.7738  -16.0302   26.2864 C   0  0  0  0  0  0  0  0  0  0  0  0
    7.4289  -14.5972   26.4385 C   0  0  0  0  0  0  0  0  0  0  0  0
    8.3184  -13.7557   27.0469 C   0  0  0  0  0  0  0  0  0  0  0  0
    7.9600  -12.4134   27.1704 C   0  0  0  0  0  0  0  0  0  0  0  0
    6.7414  -11.9666   26.6869 C   0  0  0  0  0  0  0  0  0  0  0  0
    5.8633  -12.8400   26.0764 C   0  0  0  0  0  0  0  0  0  0  0  0
    6.1981  -14.1769   25.9428 C   0  0  0  0  0  0  0  0  0  0  0  0
    9.7545  -17.5404   26.0800 C   0  0  0  0  0  0  0  0  0  0  0  0
   10.1402  -18.4524   25.1156 O   0  0  0  0  0  0  0  0  0  0  0  0
    9.9108  -17.8432   27.2833 O   0  0  0  0  0  0  0  0  0  0  0  0
  2  1  1  0
  2  3  2  0
  4  2  1  0
  5  4  1  0
  5  6  1  6
  7  8  2  0
  7  5  1  0
 10  9  1  1
 10 12  1  0
 11 10  1  0
 13 12  1  1
 13 14  1  0
 14  7  1  0
 15 17  1  0
 15 13  1  0
 16 15  2  0
 18 17  1  0
 18 26  1  0
 18 19  1  1
 20 19  1  0
 20 25  2  0
 21 20  1  0
 22 23  1  0
 22 21  2  0
 23 24  2  0
 24 25  1  0
 26 27  1  0
 28 26  2  0
M  END
$$$$
