NLF.pdb
     RDKit          3D

 28 28  0  0  1  0  0  0  0  0999 V2000
    8.2730  -20.7335   18.9354 N   0  0  0  0  0  0  0  0  0  0  0  0
    8.9032  -19.7550   18.1365 C   0  0  0  0  0  0  0  0  0  0  0  0
    9.0249  -19.9466   16.8954 O   0  0  0  0  0  0  0  0  0  0  0  0
    9.4115  -18.5189   18.7805 C   0  0  0  0  0  0  0  0  0  0  0  0
    9.1252  -18.5471   20.2891 C   0  0  2  0  0  0  0  0  0  0  0  0
    7.7058  -18.5914   20.4716 N   0  0  0  0  0  0  0  0  0  0  0  0
    9.7497  -17.3215   20.8507 C   0  0  0  0  0  0  0  0  0  0  0  0
   11.0066  -17.1536   20.8430 O   0  0  0  0  0  0  0  0  0  0  0  0
    6.6503  -12.9367   20.2175 C   0  0  0  0  0  0  0  0  0  0  0  0
    7.8224  -13.8262   20.3671 C   0  0  1  0  0  0  0  0  0  0  0  0
    8.9344  -13.2932   19.4625 C   0  0  0  0  0  0  0  0  0  0  0  0
    8.3669  -14.0780   21.7099 C   0  0  0  0  0  0  0  0  0  0  0  0
    9.4755  -15.0312   21.9154 C   0  0  2  0  0  0  0  0  0  0  0  0
    8.9376  -16.3290   21.4008 N   0  0  0  0  0  0  0  0  0  0  0  0
    9.9337  -15.2811   23.2892 C   0  0  0  0  0  0  0  0  0  0  0  0
   11.0076  -14.8723   23.7752 O   0  0  0  0  0  0  0  0  0  0  0  0
    9.1306  -16.0576   24.2160 N   0  0  0  0  0  0  0  0  0  0  0  0
    9.5444  -16.2345   25.5922 C   0  0  1  0  0  0  0  0  0  0  0  0
    9.4125  -14.8706   26.2543 C   0  0  0  0  0  0  0  0  0  0  0  0
    8.0551  -14.2936   26.1123 C   0  0  0  0  0  0  0  0  0  0  0  0
    7.0522  -15.0628   25.5907 C   0  0  0  0  0  0  0  0  0  0  0  0
    5.7875  -14.4864   25.4742 C   0  0  0  0  0  0  0  0  0  0  0  0
    5.5737  -13.1790   25.8784 C   0  0  0  0  0  0  0  0  0  0  0  0
    6.6063  -12.4264   26.4021 C   0  0  0  0  0  0  0  0  0  0  0  0
    7.8700  -12.9780   26.5271 C   0  0  0  0  0  0  0  0  0  0  0  0
    8.7040  -17.2670   26.2109 C   0  0  0  0  0  0  0  0  0  0  0  0
    8.8694  -17.6387   27.5319 O   0  0  0  0  0  0  0  0  0  0  0  0
    7.8149  -17.8341   25.5389 O   0  0  0  0  0  0  0  0  0  0  0  0
  2  1  1  0
  2  3  2  0
  4  2  1  0
  5  4  1  0
  5  6  1  6
  7  8  2  0
  7  5  1  0
 10  9  1  1
 10 12  1  0
 11 10  1  0
 13 12  1  1
 13 14  1  0
 14  7  1  0
 15 17  1  0
 15 13  1  0
 16 15  2  0
 18 17  1  0
 18 26  1  0
 18 19  1  1
 20 19  1  0
 20 25  2  0
 21 20  1  0
 22 23  1  0
 22 21  2  0
 23 24  2  0
 24 25  1  0
 26 27  1  0
 28 26  2  0
M  END
$$$$
