NLF.pdb
     RDKit          3D

 28 28  0  0  1  0  0  0  0  0999 V2000
    9.1846  -21.1014   17.7761 N   0  0  0  0  0  0  0  0  0  0  0  0
   10.1675  -20.6072   18.6607 C   0  0  0  0  0  0  0  0  0  0  0  0
   11.0505  -21.3877   19.1110 O   0  0  0  0  0  0  0  0  0  0  0  0
   10.1362  -19.1739   19.0426 C   0  0  0  0  0  0  0  0  0  0  0  0
   10.0146  -19.0307   20.5668 C   0  0  2  0  0  0  0  0  0  0  0  0
    8.7152  -19.4904   20.9544 N   0  0  0  0  0  0  0  0  0  0  0  0
   10.2401  -17.5929   20.8656 C   0  0  0  0  0  0  0  0  0  0  0  0
   11.3214  -17.0108   20.5496 O   0  0  0  0  0  0  0  0  0  0  0  0
    8.8018  -12.4584   20.7602 C   0  0  0  0  0  0  0  0  0  0  0  0
    7.8629  -13.3709   21.4479 C   0  0  1  0  0  0  0  0  0  0  0  0
    6.4533  -13.0631   20.9406 C   0  0  0  0  0  0  0  0  0  0  0  0
    8.0956  -14.8217   21.3865 C   0  0  0  0  0  0  0  0  0  0  0  0
    9.3768  -15.4067   21.8297 C   0  0  2  0  0  0  0  0  0  0  0  0
    9.2409  -16.8618   21.5091 N   0  0  0  0  0  0  0  0  0  0  0  0
    9.7258  -15.3209   23.2547 C   0  0  0  0  0  0  0  0  0  0  0  0
   10.5551  -14.5288   23.7460 O   0  0  0  0  0  0  0  0  0  0  0  0
    9.1008  -16.1936   24.2317 N   0  0  0  0  0  0  0  0  0  0  0  0
    9.3724  -16.0428   25.6460 C   0  0  1  0  0  0  0  0  0  0  0  0
    8.0187  -15.8936   26.3251 C   0  0  0  0  0  0  0  0  0  0  0  0
    7.4864  -14.5131   26.2449 C   0  0  0  0  0  0  0  0  0  0  0  0
    8.2298  -13.4793   26.7431 C   0  0  0  0  0  0  0  0  0  0  0  0
    7.6973  -12.1937   26.6482 C   0  0  0  0  0  0  0  0  0  0  0  0
    6.4571  -11.9906   26.0657 C   0  0  0  0  0  0  0  0  0  0  0  0
    5.7292  -13.0545   25.5708 C   0  0  0  0  0  0  0  0  0  0  0  0
    6.2382  -14.3394   25.6542 C   0  0  0  0  0  0  0  0  0  0  0  0
   10.1322  -17.2101   26.1098 C   0  0  0  0  0  0  0  0  0  0  0  0
   10.5803  -18.1778   25.2304 O   0  0  0  0  0  0  0  0  0  0  0  0
   10.3858  -17.3471   27.3267 O   0  0  0  0  0  0  0  0  0  0  0  0
  2  1  1  0
  2  3  2  0
  4  2  1  0
  5  4  1  0
  5  6  1  6
  7  8  2  0
  7  5  1  0
 10  9  1  6
 10 12  1  0
 11 10  1  0
 13 12  1  1
 13 14  1  0
 14  7  1  0
 15 17  1  0
 15 13  1  0
 16 15  2  0
 18 17  1  0
 18 26  1  0
 18 19  1  1
 20 19  1  0
 20 25  2  0
 21 20  1  0
 22 23  1  0
 22 21  2  0
 23 24  2  0
 24 25  1  0
 26 27  1  0
 28 26  2  0
M  END
$$$$
