KIT.pdb
     RDKit          3D

 25 24  0  0  1  0  0  0  0  0999 V2000
   19.9090  -19.9116  -11.6814 N   0  0  0  0  0  0  0  0  0  0  0  0
   20.7844  -20.9747  -12.0210 C   0  0  1  0  0  0  0  0  0  0  0  0
   20.3069  -21.7881  -13.1831 C   0  0  0  0  0  0  0  0  0  0  0  0
   19.1466  -21.2483  -13.9500 C   0  0  0  0  0  0  0  0  0  0  0  0
   19.4204  -21.0665  -15.3970 C   0  0  0  0  0  0  0  0  0  0  0  0
   19.7183  -22.4520  -15.9947 C   0  0  0  0  0  0  0  0  0  0  0  0
   19.9211  -22.2981  -17.4087 N   0  0  0  0  0  0  0  0  0  0  0  0
   22.1616  -20.5152  -12.3566 C   0  0  0  0  0  0  0  0  0  0  0  0
   22.2835  -19.2564  -12.5393 O   0  0  0  0  0  0  0  0  0  0  0  0
   25.7930  -21.1126   -8.9919 C   0  0  0  0  0  0  0  0  0  0  0  0
   24.8877  -20.7322  -10.1614 C   0  0  0  0  0  0  0  0  0  0  0  0
   25.4799  -21.1539  -11.4756 C   0  0  2  0  0  0  0  0  0  0  0  0
   26.8943  -20.6623  -11.6475 C   0  0  0  0  0  0  0  0  0  0  0  0
   24.5734  -20.8083  -12.5884 C   0  0  2  0  0  0  0  0  0  0  0  0
   23.2589  -21.4053  -12.4661 N   0  0  0  0  0  0  0  0  0  0  0  0
   25.1005  -21.1868  -13.9224 C   0  0  0  0  0  0  0  0  0  0  0  0
   25.5724  -22.3094  -14.2291 O   0  0  0  0  0  0  0  0  0  0  0  0
   23.3773  -20.7610  -17.3619 C   0  0  0  0  0  0  0  0  0  0  0  0
   24.6904  -19.9993  -17.3940 C   0  0  1  0  0  0  0  0  0  0  0  0
   24.4361  -18.6590  -17.2227 O   0  0  0  0  0  0  0  0  0  0  0  0
   25.5606  -20.5818  -16.2908 C   0  0  2  0  0  0  0  0  0  0  0  0
   25.0966  -20.2311  -14.9914 N   0  0  0  0  0  0  0  0  0  0  0  0
   26.9832  -20.2589  -16.5059 C   0  0  0  0  0  0  0  0  0  0  0  0
   27.6995  -19.4156  -15.6950 O   0  0  0  0  0  0  0  0  0  0  0  0
   27.5647  -20.7862  -17.4840 O   0  0  0  0  0  0  0  0  0  0  0  0
  2  1  1  6
  3  2  1  0
  4  3  1  0
  5  4  1  0
  6  5  1  0
  7  6  1  0
  8  2  1  0
  8  9  2  0
 11 10  1  0
 12 14  1  0
 12 11  1  0
 12 13  1  6
 14 15  1  1
 15  8  1  0
 16 14  1  0
 17 16  2  0
 19 18  1  1
 19 21  1  0
 20 19  1  0
 21 23  1  0
 21 22  1  1
 22 16  1  0
 23 24  1  0
 25 23  2  0
M  END
$$$$
