KIT.pdb
     RDKit          3D

 25 24  0  0  1  0  0  0  0  0999 V2000
   27.2505  -23.9140  -15.7198 N   0  0  0  0  0  0  0  0  0  0  0  0
   26.8407  -22.5661  -15.5548 C   0  0  1  0  0  0  0  0  0  0  0  0
   26.2569  -21.9674  -16.7961 C   0  0  0  0  0  0  0  0  0  0  0  0
   27.1963  -21.7174  -17.9279 C   0  0  0  0  0  0  0  0  0  0  0  0
   28.2028  -20.6640  -17.6464 C   0  0  0  0  0  0  0  0  0  0  0  0
   27.9708  -19.5165  -18.6438 C   0  0  0  0  0  0  0  0  0  0  0  0
   28.8768  -18.4493  -18.3209 N   0  0  0  0  0  0  0  0  0  0  0  0
   25.8275  -22.3895  -14.4765 C   0  0  0  0  0  0  0  0  0  0  0  0
   24.9318  -23.2991  -14.4201 O   0  0  0  0  0  0  0  0  0  0  0  0
   27.0374  -20.9768   -9.4800 C   0  0  0  0  0  0  0  0  0  0  0  0
   26.4352  -21.5767  -10.7486 C   0  0  0  0  0  0  0  0  0  0  0  0
   25.2924  -20.7477  -11.2607 C   0  0  2  0  0  0  0  0  0  0  0  0
   24.2088  -20.5708  -10.2280 C   0  0  0  0  0  0  0  0  0  0  0  0
   24.8192  -21.2624  -12.5609 C   0  0  2  0  0  0  0  0  0  0  0  0
   25.8516  -21.2948  -13.5770 N   0  0  0  0  0  0  0  0  0  0  0  0
   23.6797  -20.4968  -13.1229 C   0  0  0  0  0  0  0  0  0  0  0  0
   23.6759  -19.2641  -13.3625 O   0  0  0  0  0  0  0  0  0  0  0  0
   22.1340  -20.7552  -16.2512 C   0  0  0  0  0  0  0  0  0  0  0  0
   20.9316  -20.9487  -15.3443 C   0  0  1  0  0  0  0  0  0  0  0  0
   20.5737  -22.2762  -15.3507 O   0  0  0  0  0  0  0  0  0  0  0  0
   21.3398  -20.4527  -13.9656 C   0  0  2  0  0  0  0  0  0  0  0  0
   22.4525  -21.1678  -13.4392 N   0  0  0  0  0  0  0  0  0  0  0  0
   20.1863  -20.4165  -13.0478 C   0  0  0  0  0  0  0  0  0  0  0  0
   19.0331  -19.7202  -13.3075 O   0  0  0  0  0  0  0  0  0  0  0  0
   20.2690  -21.0583  -11.9734 O   0  0  0  0  0  0  0  0  0  0  0  0
  2  1  1  6
  3  2  1  0
  4  3  1  0
  5  4  1  0
  6  5  1  0
  7  6  1  0
  8  2  1  0
  8  9  2  0
 11 10  1  0
 12 14  1  0
 12 11  1  0
 12 13  1  1
 14 15  1  6
 15  8  1  0
 16 14  1  0
 17 16  2  0
 19 18  1  6
 19 21  1  0
 20 19  1  0
 21 23  1  0
 21 22  1  1
 22 16  1  0
 23 24  1  0
 25 23  2  0
M  END
$$$$
