KIT.pdb
     RDKit          3D

 25 24  0  0  1  0  0  0  0  0999 V2000
   18.5340  -12.1882  -17.5621 N   0  0  0  0  0  0  0  0  0  0  0  0
   19.3116  -11.0621  -17.9350 C   0  0  1  0  0  0  0  0  0  0  0  0
   18.5106   -9.9765  -18.5831 C   0  0  0  0  0  0  0  0  0  0  0  0
   17.8324  -10.3169  -19.8676 C   0  0  0  0  0  0  0  0  0  0  0  0
   16.3542  -10.1996  -19.8112 C   0  0  0  0  0  0  0  0  0  0  0  0
   15.8072  -10.4961  -21.2177 C   0  0  0  0  0  0  0  0  0  0  0  0
   14.3730  -10.5386  -21.1431 N   0  0  0  0  0  0  0  0  0  0  0  0
   20.0284  -10.4387  -16.7869 C   0  0  0  0  0  0  0  0  0  0  0  0
   19.4288  -10.5258  -15.6619 O   0  0  0  0  0  0  0  0  0  0  0  0
   24.3637  -12.1790  -15.1072 C   0  0  0  0  0  0  0  0  0  0  0  0
   23.0290  -11.4707  -15.3285 C   0  0  0  0  0  0  0  0  0  0  0  0
   23.2057   -9.9827  -15.4289 C   0  0  2  0  0  0  0  0  0  0  0  0
   23.9493   -9.4158  -14.2468 C   0  0  0  0  0  0  0  0  0  0  0  0
   21.9149   -9.3244  -15.7117 C   0  0  2  0  0  0  0  0  0  0  0  0
   21.2831   -9.7954  -16.9277 N   0  0  0  0  0  0  0  0  0  0  0  0
   22.0121   -7.8479  -15.8159 C   0  0  0  0  0  0  0  0  0  0  0  0
   22.5935   -7.2176  -16.7333 O   0  0  0  0  0  0  0  0  0  0  0  0
   19.5580   -5.4058  -16.3352 C   0  0  0  0  0  0  0  0  0  0  0  0
   20.1454   -4.9326  -15.0173 C   0  0  1  0  0  0  0  0  0  0  0  0
   19.2837   -5.2622  -13.9979 O   0  0  0  0  0  0  0  0  0  0  0  0
   21.5057   -5.5993  -14.8808 C   0  0  2  0  0  0  0  0  0  0  0  0
   21.4103   -7.0181  -14.8132 N   0  0  0  0  0  0  0  0  0  0  0  0
   22.2773   -5.0157  -13.7679 C   0  0  0  0  0  0  0  0  0  0  0  0
   22.6684   -3.7015  -13.7246 O   0  0  0  0  0  0  0  0  0  0  0  0
   22.5901   -5.7653  -12.8123 O   0  0  0  0  0  0  0  0  0  0  0  0
  2  1  1  1
  3  2  1  0
  4  3  1  0
  5  4  1  0
  6  5  1  0
  7  6  1  0
  8  2  1  0
  8  9  2  0
 11 10  1  0
 12 14  1  0
 12 11  1  0
 12 13  1  1
 14 15  1  6
 15  8  1  0
 16 14  1  0
 17 16  2  0
 19 18  1  6
 19 21  1  0
 20 19  1  0
 21 23  1  0
 21 22  1  1
 22 16  1  0
 23 24  1  0
 25 23  2  0
M  END
$$$$
