KIT.pdb
     RDKit          3D

 25 24  0  0  1  0  0  0  0  0999 V2000
   22.5787  -15.1649  -18.2561 N   0  0  0  0  0  0  0  0  0  0  0  0
   22.9449  -13.8528  -18.6510 C   0  0  1  0  0  0  0  0  0  0  0  0
   21.9356  -13.1976  -19.5409 C   0  0  0  0  0  0  0  0  0  0  0  0
   21.6984  -13.8324  -20.8700 C   0  0  0  0  0  0  0  0  0  0  0  0
   20.5581  -14.7818  -20.8828 C   0  0  0  0  0  0  0  0  0  0  0  0
   20.4050  -15.3101  -22.3191 C   0  0  0  0  0  0  0  0  0  0  0  0
   19.3599  -16.2960  -22.3271 N   0  0  0  0  0  0  0  0  0  0  0  0
   23.1616  -12.9330  -17.4988 C   0  0  0  0  0  0  0  0  0  0  0  0
   22.4578  -13.1869  -16.4629 O   0  0  0  0  0  0  0  0  0  0  0  0
   27.8748  -12.0082  -15.6146 C   0  0  0  0  0  0  0  0  0  0  0  0
   26.3780  -12.2015  -15.8474 C   0  0  0  0  0  0  0  0  0  0  0  0
   25.6630  -10.8850  -15.9530 C   0  0  2  0  0  0  0  0  0  0  0  0
   25.8687  -10.0250  -14.7325 C   0  0  0  0  0  0  0  0  0  0  0  0
   24.2490  -11.0904  -16.3245 C   0  0  2  0  0  0  0  0  0  0  0  0
   24.0797  -11.8545  -17.5439 N   0  0  0  0  0  0  0  0  0  0  0  0
   23.4906   -9.8269  -16.4942 C   0  0  0  0  0  0  0  0  0  0  0  0
   23.7920   -8.8945  -17.2794 O   0  0  0  0  0  0  0  0  0  0  0  0
   20.1541   -9.3932  -17.6386 C   0  0  0  0  0  0  0  0  0  0  0  0
   20.1010   -8.6933  -16.2922 C   0  0  1  0  0  0  0  0  0  0  0  0
   19.4471   -9.5009  -15.3920 O   0  0  0  0  0  0  0  0  0  0  0  0
   21.5400   -8.4056  -15.8923 C   0  0  2  0  0  0  0  0  0  0  0  0
   22.3042   -9.5947  -15.7229 N   0  0  0  0  0  0  0  0  0  0  0  0
   21.6005   -7.5057  -14.7256 C   0  0  0  0  0  0  0  0  0  0  0  0
   21.0921   -6.2316  -14.7246 O   0  0  0  0  0  0  0  0  0  0  0  0
   22.1472   -7.9330  -13.6809 O   0  0  0  0  0  0  0  0  0  0  0  0
  2  1  1  1
  3  2  1  0
  4  3  1  0
  5  4  1  0
  6  5  1  0
  7  6  1  0
  8  2  1  0
  8  9  2  0
 11 10  1  0
 12 14  1  0
 12 11  1  0
 12 13  1  1
 14 15  1  6
 15  8  1  0
 16 14  1  0
 17 16  2  0
 19 18  1  6
 19 21  1  0
 20 19  1  0
 21 23  1  0
 21 22  1  1
 22 16  1  0
 23 24  1  0
 25 23  2  0
M  END
$$$$
