KIT.pdb
     RDKit          3D

 25 24  0  0  1  0  0  0  0  0999 V2000
   19.6474  -13.1241  -18.1720 N   0  0  0  0  0  0  0  0  0  0  0  0
   20.0612  -11.8050  -18.4892 C   0  0  1  0  0  0  0  0  0  0  0  0
   19.0608  -11.0499  -19.3070 C   0  0  0  0  0  0  0  0  0  0  0  0
   18.7752  -11.5759  -20.6736 C   0  0  0  0  0  0  0  0  0  0  0  0
   17.4188  -12.1605  -20.8165 C   0  0  0  0  0  0  0  0  0  0  0  0
   17.2153  -12.5140  -22.2994 C   0  0  0  0  0  0  0  0  0  0  0  0
   15.9254  -13.1304  -22.4424 N   0  0  0  0  0  0  0  0  0  0  0  0
   20.3450  -10.9743  -17.2850 C   0  0  0  0  0  0  0  0  0  0  0  0
   19.4897  -11.0780  -16.3414 O   0  0  0  0  0  0  0  0  0  0  0  0
   24.2318  -11.9496  -14.6332 C   0  0  0  0  0  0  0  0  0  0  0  0
   22.8466  -11.3748  -14.9209 C   0  0  0  0  0  0  0  0  0  0  0  0
   22.9123   -9.9047  -15.2211 C   0  0  2  0  0  0  0  0  0  0  0  0
   23.2642   -9.0893  -14.0034 C   0  0  0  0  0  0  0  0  0  0  0  0
   21.6896   -9.4624  -15.9203 C   0  0  2  0  0  0  0  0  0  0  0  0
   21.4789  -10.1299  -17.1889 N   0  0  0  0  0  0  0  0  0  0  0  0
   21.6526   -8.0033  -16.1852 C   0  0  0  0  0  0  0  0  0  0  0  0
   22.3373   -7.4005  -17.0482 O   0  0  0  0  0  0  0  0  0  0  0  0
   18.8522   -5.8867  -17.1947 C   0  0  0  0  0  0  0  0  0  0  0  0
   19.3199   -5.2527  -15.8966 C   0  0  1  0  0  0  0  0  0  0  0  0
   18.4481   -5.5954  -14.8902 O   0  0  0  0  0  0  0  0  0  0  0  0
   20.7345   -5.7543  -15.6501 C   0  0  2  0  0  0  0  0  0  0  0  0
   20.7801   -7.1588  -15.4223 N   0  0  0  0  0  0  0  0  0  0  0  0
   21.4017   -4.9728  -14.5926 C   0  0  0  0  0  0  0  0  0  0  0  0
   21.6191   -3.6206  -14.6728 O   0  0  0  0  0  0  0  0  0  0  0  0
   21.7894   -5.5817  -13.5670 O   0  0  0  0  0  0  0  0  0  0  0  0
  2  1  1  1
  3  2  1  0
  4  3  1  0
  5  4  1  0
  6  5  1  0
  7  6  1  0
  8  2  1  0
  8  9  2  0
 11 10  1  0
 12 14  1  0
 12 11  1  0
 12 13  1  1
 14 15  1  6
 15  8  1  0
 16 14  1  0
 17 16  2  0
 19 18  1  6
 19 21  1  0
 20 19  1  0
 21 23  1  0
 21 22  1  1
 22 16  1  0
 23 24  1  0
 25 23  2  0
M  END
$$$$
