KIT.pdb
     RDKit          3D

 25 24  0  0  1  0  0  0  0  0999 V2000
   19.5513  -14.3644  -18.4449 N   0  0  0  0  0  0  0  0  0  0  0  0
   20.1333  -13.1134  -18.7741 C   0  0  1  0  0  0  0  0  0  0  0  0
   19.2220  -12.2235  -19.5599 C   0  0  0  0  0  0  0  0  0  0  0  0
   18.9356  -12.6286  -20.9669 C   0  0  0  0  0  0  0  0  0  0  0  0
   17.9008  -13.6856  -21.0846 C   0  0  0  0  0  0  0  0  0  0  0  0
   17.6685  -13.9485  -22.5821 C   0  0  0  0  0  0  0  0  0  0  0  0
   16.6257  -14.9284  -22.7106 N   0  0  0  0  0  0  0  0  0  0  0  0
   20.5660  -12.3358  -17.5788 C   0  0  0  0  0  0  0  0  0  0  0  0
   19.8237  -12.4698  -16.5474 O   0  0  0  0  0  0  0  0  0  0  0  0
   25.1069  -12.8727  -15.3592 C   0  0  0  0  0  0  0  0  0  0  0  0
   23.6548  -12.5737  -15.7254 C   0  0  0  0  0  0  0  0  0  0  0  0
   23.4174  -11.0982  -15.8742 C   0  0  2  0  0  0  0  0  0  0  0  0
   23.8163  -10.3293  -14.6408 C   0  0  0  0  0  0  0  0  0  0  0  0
   22.0400  -10.8381  -16.3377 C   0  0  2  0  0  0  0  0  0  0  0  0
   21.7155  -11.5071  -17.5812 N   0  0  0  0  0  0  0  0  0  0  0  0
   21.7401   -9.3978  -16.5275 C   0  0  0  0  0  0  0  0  0  0  0  0
   22.3261   -8.6297  -17.3297 O   0  0  0  0  0  0  0  0  0  0  0  0
   18.5444   -7.8716  -17.4746 C   0  0  0  0  0  0  0  0  0  0  0  0
   18.8918   -7.1806  -16.1678 C   0  0  1  0  0  0  0  0  0  0  0  0
   18.1133   -7.7041  -15.1627 O   0  0  0  0  0  0  0  0  0  0  0  0
   20.3794   -7.4004  -15.9393 C   0  0  2  0  0  0  0  0  0  0  0  0
   20.7032   -8.7747  -15.7574 N   0  0  0  0  0  0  0  0  0  0  0  0
   20.8870   -6.5363  -14.8575 C   0  0  0  0  0  0  0  0  0  0  0  0
   21.4447   -7.0193  -13.7009 O   0  0  0  0  0  0  0  0  0  0  0  0
   20.8019   -5.2941  -15.0080 O   0  0  0  0  0  0  0  0  0  0  0  0
  2  1  1  1
  3  2  1  0
  4  3  1  0
  5  4  1  0
  6  5  1  0
  7  6  1  0
  8  2  1  0
  8  9  2  0
 11 10  1  0
 12 14  1  0
 12 11  1  0
 12 13  1  1
 14 15  1  6
 15  8  1  0
 16 14  1  0
 17 16  2  0
 19 18  1  6
 19 21  1  0
 20 19  1  0
 21 23  1  0
 21 22  1  1
 22 16  1  0
 23 24  1  0
 25 23  2  0
M  END
$$$$
