KIT.pdb
     RDKit          3D

 25 24  0  0  1  0  0  0  0  0999 V2000
   27.8744  -21.6387  -16.4400 N   0  0  0  0  0  0  0  0  0  0  0  0
   27.3578  -20.6235  -15.5947 C   0  0  1  0  0  0  0  0  0  0  0  0
   26.8355  -19.4373  -16.3430 C   0  0  0  0  0  0  0  0  0  0  0  0
   27.8325  -18.6314  -17.1059 C   0  0  0  0  0  0  0  0  0  0  0  0
   28.8905  -19.4471  -17.7518 C   0  0  0  0  0  0  0  0  0  0  0  0
   29.7752  -18.4976  -18.5772 C   0  0  0  0  0  0  0  0  0  0  0  0
   30.8404  -19.2665  -19.1588 N   0  0  0  0  0  0  0  0  0  0  0  0
   26.2508  -21.0985  -14.7175 C   0  0  0  0  0  0  0  0  0  0  0  0
   25.5254  -22.0256  -15.2144 O   0  0  0  0  0  0  0  0  0  0  0  0
   25.5723  -20.0499   -9.0501 C   0  0  0  0  0  0  0  0  0  0  0  0
   25.3075  -19.9555  -10.5511 C   0  0  0  0  0  0  0  0  0  0  0  0
   25.3321  -21.3095  -11.2004 C   0  0  2  0  0  0  0  0  0  0  0  0
   26.6126  -22.0532  -10.9197 C   0  0  0  0  0  0  0  0  0  0  0  0
   24.9874  -21.2051  -12.6321 C   0  0  2  0  0  0  0  0  0  0  0  0
   26.0159  -20.5641  -13.4262 N   0  0  0  0  0  0  0  0  0  0  0  0
   23.7224  -20.4730  -12.8859 C   0  0  0  0  0  0  0  0  0  0  0  0
   23.4896  -19.2831  -12.5591 O   0  0  0  0  0  0  0  0  0  0  0  0
   22.1792  -19.5750  -15.9438 C   0  0  0  0  0  0  0  0  0  0  0  0
   21.0729  -20.3785  -15.2835 C   0  0  1  0  0  0  0  0  0  0  0  0
   21.0021  -21.6167  -15.8769 O   0  0  0  0  0  0  0  0  0  0  0  0
   21.4100  -20.4510  -13.8020 C   0  0  2  0  0  0  0  0  0  0  0  0
   22.6381  -21.1283  -13.5575 N   0  0  0  0  0  0  0  0  0  0  0  0
   20.2821  -20.9951  -13.0235 C   0  0  0  0  0  0  0  0  0  0  0  0
   19.0485  -20.3983  -12.9588 O   0  0  0  0  0  0  0  0  0  0  0  0
   20.4656  -22.0608  -12.3883 O   0  0  0  0  0  0  0  0  0  0  0  0
  2  1  1  6
  3  2  1  0
  4  3  1  0
  5  4  1  0
  6  5  1  0
  7  6  1  0
  8  2  1  0
  8  9  2  0
 11 10  1  0
 12 14  1  0
 12 11  1  0
 12 13  1  6
 14 15  1  6
 15  8  1  0
 16 14  1  0
 17 16  2  0
 19 18  1  6
 19 21  1  0
 20 19  1  0
 21 23  1  0
 21 22  1  6
 22 16  1  0
 23 24  1  0
 25 23  2  0
M  END
$$$$
