KIT.pdb
     RDKit          3D

 25 24  0  0  1  0  0  0  0  0999 V2000
   20.2938  -20.2866  -11.6716 N   0  0  0  0  0  0  0  0  0  0  0  0
   20.9936  -21.0781  -12.6180 C   0  0  1  0  0  0  0  0  0  0  0  0
   20.3109  -21.1548  -13.9477 C   0  0  0  0  0  0  0  0  0  0  0  0
   19.5574  -22.4076  -14.2452 C   0  0  0  0  0  0  0  0  0  0  0  0
   20.4188  -23.6114  -14.3502 C   0  0  0  0  0  0  0  0  0  0  0  0
   19.5234  -24.7936  -14.7579 C   0  0  0  0  0  0  0  0  0  0  0  0
   18.9710  -24.5137  -16.0543 N   0  0  0  0  0  0  0  0  0  0  0  0
   22.3797  -20.5953  -12.8751 C   0  0  0  0  0  0  0  0  0  0  0  0
   22.5018  -19.3275  -12.9770 O   0  0  0  0  0  0  0  0  0  0  0  0
   26.1270  -21.2349   -9.5942 C   0  0  0  0  0  0  0  0  0  0  0  0
   25.1652  -20.8712  -10.7232 C   0  0  0  0  0  0  0  0  0  0  0  0
   25.7318  -21.2317  -12.0665 C   0  0  2  0  0  0  0  0  0  0  0  0
   27.1315  -20.7052  -12.2547 C   0  0  0  0  0  0  0  0  0  0  0  0
   24.7907  -20.8637  -13.1428 C   0  0  2  0  0  0  0  0  0  0  0  0
   23.4845  -21.4741  -12.9984 N   0  0  0  0  0  0  0  0  0  0  0  0
   25.2812  -21.2023  -14.5012 C   0  0  0  0  0  0  0  0  0  0  0  0
   25.5004  -22.3620  -14.9301 O   0  0  0  0  0  0  0  0  0  0  0  0
   23.8239  -20.0796  -17.8889 C   0  0  0  0  0  0  0  0  0  0  0  0
   25.2607  -19.5943  -17.8129 C   0  0  1  0  0  0  0  0  0  0  0  0
   25.2666  -18.2588  -17.4863 O   0  0  0  0  0  0  0  0  0  0  0  0
   25.9601  -20.4599  -16.7761 C   0  0  2  0  0  0  0  0  0  0  0  0
   25.5448  -20.1583  -15.4482 N   0  0  0  0  0  0  0  0  0  0  0  0
   27.4240  -20.4229  -16.9490 C   0  0  0  0  0  0  0  0  0  0  0  0
   28.2806  -19.8612  -16.0364 O   0  0  0  0  0  0  0  0  0  0  0  0
   27.9067  -20.9337  -17.9878 O   0  0  0  0  0  0  0  0  0  0  0  0
  2  1  1  1
  3  2  1  0
  4  3  1  0
  5  4  1  0
  6  5  1  0
  7  6  1  0
  8  2  1  0
  8  9  2  0
 11 10  1  0
 12 14  1  0
 12 11  1  0
 12 13  1  6
 14 15  1  1
 15  8  1  0
 16 14  1  0
 17 16  2  0
 19 18  1  1
 19 21  1  0
 20 19  1  0
 21 23  1  0
 21 22  1  1
 22 16  1  0
 23 24  1  0
 25 23  2  0
M  END
$$$$
