KIT.pdb
     RDKit          3D

 25 24  0  0  1  0  0  0  0  0999 V2000
   20.3230  -14.9403  -19.1777 N   0  0  0  0  0  0  0  0  0  0  0  0
   21.0402  -13.9469  -18.4632 C   0  0  1  0  0  0  0  0  0  0  0  0
   22.2393  -13.4363  -19.1989 C   0  0  0  0  0  0  0  0  0  0  0  0
   23.4990  -14.2232  -19.0594 C   0  0  0  0  0  0  0  0  0  0  0  0
   23.3556  -15.6510  -19.4371 C   0  0  0  0  0  0  0  0  0  0  0  0
   24.7447  -16.3035  -19.3370 C   0  0  0  0  0  0  0  0  0  0  0  0
   24.6123  -17.6965  -19.6630 N   0  0  0  0  0  0  0  0  0  0  0  0
   20.2099  -12.7582  -18.1195 C   0  0  0  0  0  0  0  0  0  0  0  0
   19.7727  -12.0948  -19.1203 O   0  0  0  0  0  0  0  0  0  0  0  0
   16.2911   -9.7367  -17.2183 C   0  0  0  0  0  0  0  0  0  0  0  0
   16.9456  -10.2525  -15.9386 C   0  0  0  0  0  0  0  0  0  0  0  0
   17.7178  -11.5166  -16.1863 C   0  0  2  0  0  0  0  0  0  0  0  0
   17.6073  -12.4865  -15.0380 C   0  0  0  0  0  0  0  0  0  0  0  0
   19.1026  -11.2077  -16.5942 C   0  0  2  0  0  0  0  0  0  0  0  0
   19.9236  -12.3867  -16.7822 N   0  0  0  0  0  0  0  0  0  0  0  0
   19.8194  -10.3263  -15.6403 C   0  0  0  0  0  0  0  0  0  0  0  0
   19.9824  -10.5550  -14.4164 O   0  0  0  0  0  0  0  0  0  0  0  0
   23.2796   -9.1353  -15.6231 C   0  0  0  0  0  0  0  0  0  0  0  0
   22.4622   -7.8564  -15.6652 C   0  0  1  0  0  0  0  0  0  0  0  0
   22.4838   -7.3518  -16.9439 O   0  0  0  0  0  0  0  0  0  0  0  0
   21.0613   -8.2175  -15.1954 C   0  0  2  0  0  0  0  0  0  0  0  0
   20.3961   -9.0955  -16.0973 N   0  0  0  0  0  0  0  0  0  0  0  0
   20.2772   -7.0103  -14.8760 C   0  0  0  0  0  0  0  0  0  0  0  0
   20.6023   -6.1412  -13.8656 O   0  0  0  0  0  0  0  0  0  0  0  0
   19.2594   -6.7697  -15.5683 O   0  0  0  0  0  0  0  0  0  0  0  0
  2  1  1  6
  3  2  1  0
  4  3  1  0
  5  4  1  0
  6  5  1  0
  7  6  1  0
  8  2  1  0
  8  9  2  0
 11 10  1  0
 12 14  1  0
 12 11  1  0
 12 13  1  1
 14 15  1  1
 15  8  1  0
 16 14  1  0
 17 16  2  0
 19 18  1  6
 19 21  1  0
 20 19  1  0
 21 23  1  0
 21 22  1  6
 22 16  1  0
 23 24  1  0
 25 23  2  0
M  END
$$$$
