KIT.pdb
     RDKit          3D

 25 24  0  0  1  0  0  0  0  0999 V2000
   18.8154  -11.1948  -19.0071 N   0  0  0  0  0  0  0  0  0  0  0  0
   19.8555  -10.2308  -18.9790 C   0  0  1  0  0  0  0  0  0  0  0  0
   19.4938   -8.9479  -19.6598 C   0  0  0  0  0  0  0  0  0  0  0  0
   18.7477   -9.0570  -20.9470 C   0  0  0  0  0  0  0  0  0  0  0  0
   19.6233   -9.2461  -22.1301 C   0  0  0  0  0  0  0  0  0  0  0  0
   18.7265   -9.2543  -23.3796 C   0  0  0  0  0  0  0  0  0  0  0  0
   18.2264  -10.5883  -23.5659 N   0  0  0  0  0  0  0  0  0  0  0  0
   20.2884   -9.8759  -17.5980 C   0  0  0  0  0  0  0  0  0  0  0  0
   19.3417   -9.7477  -16.7494 O   0  0  0  0  0  0  0  0  0  0  0  0
   23.5403  -12.6619  -14.8085 C   0  0  0  0  0  0  0  0  0  0  0  0
   22.4721  -11.7042  -15.3317 C   0  0  0  0  0  0  0  0  0  0  0  0
   22.9239  -10.2746  -15.2434 C   0  0  2  0  0  0  0  0  0  0  0  0
   23.3278   -9.8898  -13.8432 C   0  0  0  0  0  0  0  0  0  0  0  0
   21.9282   -9.3763  -15.8608 C   0  0  2  0  0  0  0  0  0  0  0  0
   21.6490   -9.6930  -17.2469 N   0  0  0  0  0  0  0  0  0  0  0  0
   22.3097   -7.9437  -15.8103 C   0  0  0  0  0  0  0  0  0  0  0  0
   23.2920   -7.4287  -16.3991 O   0  0  0  0  0  0  0  0  0  0  0  0
   20.7057   -5.1323  -17.0582 C   0  0  0  0  0  0  0  0  0  0  0  0
   20.8034   -4.7494  -15.5921 C   0  0  1  0  0  0  0  0  0  0  0  0
   19.5710   -4.9084  -15.0038 O   0  0  0  0  0  0  0  0  0  0  0  0
   21.8716   -5.6410  -14.9778 C   0  0  2  0  0  0  0  0  0  0  0  0
   21.5278   -7.0212  -15.0397 N   0  0  0  0  0  0  0  0  0  0  0  0
   22.2259   -5.1915  -13.6188 C   0  0  0  0  0  0  0  0  0  0  0  0
   22.7673   -3.9611  -13.3450 O   0  0  0  0  0  0  0  0  0  0  0  0
   22.0192   -5.9802  -12.6658 O   0  0  0  0  0  0  0  0  0  0  0  0
  2  1  1  1
  3  2  1  0
  4  3  1  0
  5  4  1  0
  6  5  1  0
  7  6  1  0
  8  2  1  0
  8  9  2  0
 11 10  1  0
 12 14  1  0
 12 11  1  0
 12 13  1  1
 14 15  1  6
 15  8  1  0
 16 14  1  0
 17 16  2  0
 19 18  1  6
 19 21  1  0
 20 19  1  0
 21 23  1  0
 21 22  1  1
 22 16  1  0
 23 24  1  0
 25 23  2  0
M  END
$$$$
