KIT.pdb
     RDKit          3D

 25 24  0  0  1  0  0  0  0  0999 V2000
   19.5681  -11.2908  -18.3611 N   0  0  0  0  0  0  0  0  0  0  0  0
   19.1987  -11.3159  -16.9919 C   0  0  1  0  0  0  0  0  0  0  0  0
   18.9860  -12.6986  -16.4601 C   0  0  0  0  0  0  0  0  0  0  0  0
   17.8862  -13.4948  -17.0782 C   0  0  0  0  0  0  0  0  0  0  0  0
   17.7538  -14.8634  -16.5200 C   0  0  0  0  0  0  0  0  0  0  0  0
   16.5886  -15.5550  -17.2477 C   0  0  0  0  0  0  0  0  0  0  0  0
   16.4991  -16.9073  -16.7707 N   0  0  0  0  0  0  0  0  0  0  0  0
   20.2010  -10.6641  -16.1025 C   0  0  0  0  0  0  0  0  0  0  0  0
   19.8969  -10.6509  -14.8615 O   0  0  0  0  0  0  0  0  0  0  0  0
   25.9126  -10.5304  -14.5991 C   0  0  0  0  0  0  0  0  0  0  0  0
   24.5815   -9.7821  -14.6060 C   0  0  0  0  0  0  0  0  0  0  0  0
   23.6401  -10.3430  -15.6330 C   0  0  2  0  0  0  0  0  0  0  0  0
   24.2736  -10.4343  -16.9975 C   0  0  0  0  0  0  0  0  0  0  0  0
   22.3515   -9.6231  -15.6045 C   0  0  2  0  0  0  0  0  0  0  0  0
   21.4046  -10.0990  -16.5925 N   0  0  0  0  0  0  0  0  0  0  0  0
   22.4856   -8.1588  -15.8006 C   0  0  0  0  0  0  0  0  0  0  0  0
   23.0745   -7.6017  -16.7595 O   0  0  0  0  0  0  0  0  0  0  0  0
   20.1102   -5.8796  -16.6286 C   0  0  0  0  0  0  0  0  0  0  0  0
   20.5979   -5.2490  -15.3362 C   0  0  1  0  0  0  0  0  0  0  0  0
   19.6845   -5.5027  -14.3405 O   0  0  0  0  0  0  0  0  0  0  0  0
   21.9673   -5.8451  -15.0486 C   0  0  2  0  0  0  0  0  0  0  0  0
   21.9145   -7.2533  -14.8465 N   0  0  0  0  0  0  0  0  0  0  0  0
   22.6434   -5.1264  -13.9528 C   0  0  0  0  0  0  0  0  0  0  0  0
   22.9148   -3.7820  -13.9827 O   0  0  0  0  0  0  0  0  0  0  0  0
   22.9866   -5.7842  -12.9416 O   0  0  0  0  0  0  0  0  0  0  0  0
  2  1  1  6
  3  2  1  0
  4  3  1  0
  5  4  1  0
  6  5  1  0
  7  6  1  0
  8  2  1  0
  8  9  2  0
 11 10  1  0
 12 14  1  0
 12 11  1  0
 12 13  1  6
 14 15  1  6
 15  8  1  0
 16 14  1  0
 17 16  2  0
 19 18  1  6
 19 21  1  0
 20 19  1  0
 21 23  1  0
 21 22  1  1
 22 16  1  0
 23 24  1  0
 25 23  2  0
M  END
$$$$
