KIT.pdb
     RDKit          3D

 25 24  0  0  1  0  0  0  0  0999 V2000
   16.0781  -14.0098  -17.6066 N   0  0  0  0  0  0  0  0  0  0  0  0
   16.7857  -13.5349  -16.4727 C   0  0  1  0  0  0  0  0  0  0  0  0
   18.0206  -14.3247  -16.1705 C   0  0  0  0  0  0  0  0  0  0  0  0
   17.8309  -15.7641  -15.8275 C   0  0  0  0  0  0  0  0  0  0  0  0
   19.0927  -16.4684  -15.4900 C   0  0  0  0  0  0  0  0  0  0  0  0
   18.7494  -17.9448  -15.2295 C   0  0  0  0  0  0  0  0  0  0  0  0
   19.9747  -18.6571  -14.9939 N   0  0  0  0  0  0  0  0  0  0  0  0
   17.2076  -12.1114  -16.5992 C   0  0  0  0  0  0  0  0  0  0  0  0
   17.6599  -11.7801  -17.7474 O   0  0  0  0  0  0  0  0  0  0  0  0
   13.7667   -8.8883  -15.9735 C   0  0  0  0  0  0  0  0  0  0  0  0
   15.1374   -9.1939  -16.5732 C   0  0  0  0  0  0  0  0  0  0  0  0
   16.2418   -8.9067  -15.5966 C   0  0  2  0  0  0  0  0  0  0  0  0
   16.5905   -7.4413  -15.5452 C   0  0  0  0  0  0  0  0  0  0  0  0
   17.3921   -9.8005  -15.8360 C   0  0  2  0  0  0  0  0  0  0  0  0
   17.1158  -11.1889  -15.5273 N   0  0  0  0  0  0  0  0  0  0  0  0
   18.6077   -9.4196  -15.0759 C   0  0  0  0  0  0  0  0  0  0  0  0
   18.7385   -9.4832  -13.8287 O   0  0  0  0  0  0  0  0  0  0  0  0
   22.3526  -10.2165  -16.0593 C   0  0  0  0  0  0  0  0  0  0  0  0
   22.1995   -8.7187  -15.8622 C   0  0  1  0  0  0  0  0  0  0  0  0
   22.1638   -8.1056  -17.0922 O   0  0  0  0  0  0  0  0  0  0  0  0
   20.9234   -8.5116  -15.0608 C   0  0  2  0  0  0  0  0  0  0  0  0
   19.7627   -8.9304  -15.7708 N   0  0  0  0  0  0  0  0  0  0  0  0
   20.8279   -7.1293  -14.5562 C   0  0  0  0  0  0  0  0  0  0  0  0
   21.7011   -6.5940  -13.6437 O   0  0  0  0  0  0  0  0  0  0  0  0
   19.8965   -6.4087  -14.9878 O   0  0  0  0  0  0  0  0  0  0  0  0
  2  1  1  6
  3  2  1  0
  4  3  1  0
  5  4  1  0
  6  5  1  0
  7  6  1  0
  8  2  1  0
  8  9  2  0
 11 10  1  0
 12 14  1  0
 12 11  1  0
 12 13  1  6
 14 15  1  1
 15  8  1  0
 16 14  1  0
 17 16  2  0
 19 18  1  6
 19 21  1  0
 20 19  1  0
 21 23  1  0
 21 22  1  6
 22 16  1  0
 23 24  1  0
 25 23  2  0
M  END
$$$$
