AIV.pdb
     RDKit          3D

 21 20  0  0  1  0  0  0  0  0999 V2000
    6.4351  -15.6764   20.5282 C   0  0  0  0  0  0  0  0  0  0  0  0
    6.9736  -14.2998   20.8518 C   0  0  2  0  0  0  0  0  0  0  0  0
    7.8233  -13.8376   19.7981 N   0  0  0  0  0  0  0  0  0  0  0  0
    7.7029  -14.2661   22.1309 C   0  0  0  0  0  0  0  0  0  0  0  0
    8.9288  -14.5150   22.1314 O   0  0  0  0  0  0  0  0  0  0  0  0
    5.8202  -11.1790   26.4129 C   0  0  0  0  0  0  0  0  0  0  0  0
    6.6986  -11.8409   25.4181 C   0  0  0  0  0  0  0  0  0  0  0  0
    7.2229  -13.1842   25.7502 C   0  0  2  0  0  0  0  0  0  0  0  0
    8.1161  -13.1560   26.9742 C   0  0  0  0  0  0  0  0  0  0  0  0
    7.8197  -13.9707   24.6261 C   0  0  2  0  0  0  0  0  0  0  0  0
    7.1021  -13.9642   23.3975 N   0  0  0  0  0  0  0  0  0  0  0  0
    8.1128  -15.3543   25.1312 C   0  0  0  0  0  0  0  0  0  0  0  0
    7.1932  -16.1291   25.4928 O   0  0  0  0  0  0  0  0  0  0  0  0
   10.4024  -17.6924   23.2073 C   0  0  0  0  0  0  0  0  0  0  0  0
   10.8011  -17.8037   24.6624 C   0  0  1  0  0  0  0  0  0  0  0  0
   12.0783  -16.9724   24.8174 C   0  0  0  0  0  0  0  0  0  0  0  0
    9.6979  -17.2299   25.5274 C   0  0  2  0  0  0  0  0  0  0  0  0
    9.4571  -15.8493   25.2218 N   0  0  0  0  0  0  0  0  0  0  0  0
   10.1244  -17.3472   26.9383 C   0  0  0  0  0  0  0  0  0  0  0  0
   10.4697  -16.2631   27.7339 O   0  0  0  0  0  0  0  0  0  0  0  0
   10.1819  -18.4862   27.4587 O   0  0  0  0  0  0  0  0  0  0  0  0
  2  1  1  6
  2  4  1  0
  3  2  1  0
  4 11  1  0
  4  5  2  0
  7  6  1  0
  7  8  1  0
  8 10  1  0
  8  9  1  1
 10 12  1  0
 10 11  1  6
 12 13  2  0
 15 14  1  6
 15 17  1  0
 16 15  1  0
 17 19  1  0
 18 12  1  0
 17 18  1  6
 19 20  1  0
 21 19  2  0
M  END
$$$$
