AIV.pdb
     RDKit          3D

 21 20  0  0  1  0  0  0  0  0999 V2000
    5.3229  -17.4290   22.0073 C   0  0  0  0  0  0  0  0  0  0  0  0
    5.4386  -15.9229   21.9163 C   0  0  2  0  0  0  0  0  0  0  0  0
    5.5916  -15.5171   20.5534 N   0  0  0  0  0  0  0  0  0  0  0  0
    6.5523  -15.3935   22.7218 C   0  0  0  0  0  0  0  0  0  0  0  0
    7.6862  -15.3115   22.2003 O   0  0  0  0  0  0  0  0  0  0  0  0
    5.7138  -11.6256   26.7525 C   0  0  0  0  0  0  0  0  0  0  0  0
    6.3113  -12.3866   25.6286 C   0  0  0  0  0  0  0  0  0  0  0  0
    7.1922  -13.5277   25.9626 C   0  0  2  0  0  0  0  0  0  0  0  0
    8.4196  -13.0875   26.7351 C   0  0  0  0  0  0  0  0  0  0  0  0
    7.5262  -14.4689   24.8486 C   0  0  2  0  0  0  0  0  0  0  0  0
    6.4313  -14.9577   24.0826 N   0  0  0  0  0  0  0  0  0  0  0  0
    8.3903  -15.5626   25.4076 C   0  0  0  0  0  0  0  0  0  0  0  0
    7.9776  -16.3254   26.3156 O   0  0  0  0  0  0  0  0  0  0  0  0
   10.7592  -17.4840   22.8212 C   0  0  0  0  0  0  0  0  0  0  0  0
   11.4414  -17.3344   24.1633 C   0  0  1  0  0  0  0  0  0  0  0  0
   12.4203  -16.1657   24.0139 C   0  0  0  0  0  0  0  0  0  0  0  0
   10.4028  -17.0123   25.2177 C   0  0  2  0  0  0  0  0  0  0  0  0
    9.7250  -15.7821   24.9270 N   0  0  0  0  0  0  0  0  0  0  0  0
   11.1016  -16.8864   26.5148 C   0  0  0  0  0  0  0  0  0  0  0  0
   11.2612  -15.6855   27.1932 O   0  0  0  0  0  0  0  0  0  0  0  0
   11.5825  -17.9161   27.0437 O   0  0  0  0  0  0  0  0  0  0  0  0
  2  1  1  6
  2  4  1  0
  3  2  1  0
  4 11  1  0
  4  5  2  0
  7  6  1  0
  7  8  1  0
  8 10  1  0
  8  9  1  6
 10 12  1  0
 10 11  1  1
 12 13  2  0
 15 14  1  6
 15 17  1  0
 16 15  1  0
 17 19  1  0
 18 12  1  0
 17 18  1  6
 19 20  1  0
 21 19  2  0
M  END
$$$$
