AIV.pdb
     RDKit          3D

 21 20  0  0  1  0  0  0  0  0999 V2000
    6.5202  -16.1793   20.8086 C   0  0  0  0  0  0  0  0  0  0  0  0
    6.9238  -14.7313   20.9829 C   0  0  2  0  0  0  0  0  0  0  0  0
    7.7087  -14.2960   19.8694 N   0  0  0  0  0  0  0  0  0  0  0  0
    7.6637  -14.4992   22.2351 C   0  0  0  0  0  0  0  0  0  0  0  0
    8.9140  -14.5296   22.2096 O   0  0  0  0  0  0  0  0  0  0  0  0
    5.8525  -11.2050   26.3964 C   0  0  0  0  0  0  0  0  0  0  0  0
    6.6629  -11.9572   25.4081 C   0  0  0  0  0  0  0  0  0  0  0  0
    7.1509  -13.2987   25.7980 C   0  0  2  0  0  0  0  0  0  0  0  0
    7.9981  -13.2494   27.0537 C   0  0  0  0  0  0  0  0  0  0  0  0
    7.7755  -14.1273   24.7202 C   0  0  2  0  0  0  0  0  0  0  0  0
    7.0471  -14.2365   23.5028 N   0  0  0  0  0  0  0  0  0  0  0  0
    8.1413  -15.4588   25.3107 C   0  0  0  0  0  0  0  0  0  0  0  0
    7.2680  -16.2337   25.7728 O   0  0  0  0  0  0  0  0  0  0  0  0
   12.1825  -16.9441   25.1707 C   0  0  0  0  0  0  0  0  0  0  0  0
   10.9612  -17.8182   24.9891 C   0  0  1  0  0  0  0  0  0  0  0  0
   11.3411  -19.1976   25.5362 C   0  0  0  0  0  0  0  0  0  0  0  0
    9.8108  -17.2401   25.7872 C   0  0  2  0  0  0  0  0  0  0  0  0
    9.5053  -15.9017   25.3717 N   0  0  0  0  0  0  0  0  0  0  0  0
   10.2116  -17.2267   27.2104 C   0  0  0  0  0  0  0  0  0  0  0  0
   10.1559  -18.3391   28.0394 O   0  0  0  0  0  0  0  0  0  0  0  0
   10.6278  -16.1551   27.7102 O   0  0  0  0  0  0  0  0  0  0  0  0
  2  1  1  6
  2  4  1  0
  3  2  1  0
  4 11  1  0
  4  5  2  0
  7  6  1  0
  7  8  1  0
  8 10  1  0
  8  9  1  1
 10 12  1  0
 10 11  1  6
 12 13  2  0
 15 14  1  1
 15 17  1  0
 16 15  1  0
 17 19  1  0
 18 12  1  0
 17 18  1  6
 19 20  1  0
 21 19  2  0
M  END
$$$$
