AIV.pdb
     RDKit          3D

 21 20  0  0  1  0  0  0  0  0999 V2000
    8.4329  -19.0008   26.1212 C   0  0  0  0  0  0  0  0  0  0  0  0
    7.0460  -18.4489   26.3692 C   0  0  2  0  0  0  0  0  0  0  0  0
    6.0580  -19.4490   26.1057 N   0  0  0  0  0  0  0  0  0  0  0  0
    6.7654  -17.2474   25.5650 C   0  0  0  0  0  0  0  0  0  0  0  0
    6.0899  -17.3676   24.5191 O   0  0  0  0  0  0  0  0  0  0  0  0
    6.7026  -12.1242   27.7362 C   0  0  0  0  0  0  0  0  0  0  0  0
    6.2837  -13.1491   26.7496 C   0  0  0  0  0  0  0  0  0  0  0  0
    7.2155  -13.4589   25.6426 C   0  0  2  0  0  0  0  0  0  0  0  0
    7.2560  -12.3499   24.6104 C   0  0  0  0  0  0  0  0  0  0  0  0
    7.0944  -14.8139   25.0200 C   0  0  2  0  0  0  0  0  0  0  0  0
    7.2165  -15.9274   25.8974 N   0  0  0  0  0  0  0  0  0  0  0  0
    8.0382  -14.8754   23.8535 C   0  0  0  0  0  0  0  0  0  0  0  0
    9.1951  -15.3493   23.9699 O   0  0  0  0  0  0  0  0  0  0  0  0
    6.5313  -14.0104   19.9578 C   0  0  0  0  0  0  0  0  0  0  0  0
    8.0269  -13.9772   20.1834 C   0  0  1  0  0  0  0  0  0  0  0  0
    8.3828  -12.5125   20.4554 C   0  0  0  0  0  0  0  0  0  0  0  0
    8.3688  -14.8289   21.3885 C   0  0  2  0  0  0  0  0  0  0  0  0
    7.6570  -14.3947   22.5557 N   0  0  0  0  0  0  0  0  0  0  0  0
    9.8219  -14.7030   21.6316 C   0  0  0  0  0  0  0  0  0  0  0  0
   10.7949  -15.1705   20.7583 O   0  0  0  0  0  0  0  0  0  0  0  0
   10.2116  -14.1436   22.6835 O   0  0  0  0  0  0  0  0  0  0  0  0
  2  1  1  6
  2  4  1  0
  3  2  1  0
  4 11  1  0
  4  5  2  0
  7  6  1  0
  7  8  1  0
  8 10  1  0
  8  9  1  6
 10 12  1  0
 10 11  1  1
 12 13  2  0
 15 14  1  1
 15 17  1  0
 16 15  1  0
 17 19  1  0
 18 12  1  0
 17 18  1  1
 19 20  1  0
 21 19  2  0
M  END
$$$$
