AIV.pdb
     RDKit          3D

 21 20  0  0  1  0  0  0  0  0999 V2000
    6.3532  -16.0088   20.6810 C   0  0  0  0  0  0  0  0  0  0  0  0
    6.7219  -14.5699   20.9698 C   0  0  2  0  0  0  0  0  0  0  0  0
    7.4188  -14.0019   19.8574 N   0  0  0  0  0  0  0  0  0  0  0  0
    7.5342  -14.4303   22.1905 C   0  0  0  0  0  0  0  0  0  0  0  0
    8.7792  -14.5077   22.0969 O   0  0  0  0  0  0  0  0  0  0  0  0
    5.7834  -11.5086   26.6838 C   0  0  0  0  0  0  0  0  0  0  0  0
    6.6587  -12.0874   25.6359 C   0  0  0  0  0  0  0  0  0  0  0  0
    7.1845  -13.4529   25.8566 C   0  0  2  0  0  0  0  0  0  0  0  0
    8.0660  -13.5274   27.0873 C   0  0  0  0  0  0  0  0  0  0  0  0
    7.7949  -14.1384   24.6751 C   0  0  2  0  0  0  0  0  0  0  0  0
    6.9949  -14.2086   23.5005 N   0  0  0  0  0  0  0  0  0  0  0  0
    8.3008  -15.4787   25.1256 C   0  0  0  0  0  0  0  0  0  0  0  0
    7.5193  -16.3686   25.5428 O   0  0  0  0  0  0  0  0  0  0  0  0
   12.4195  -16.5365   24.6072 C   0  0  0  0  0  0  0  0  0  0  0  0
   11.2833  -17.5124   24.3941 C   0  0  1  0  0  0  0  0  0  0  0  0
   11.8350  -18.8932   24.7619 C   0  0  0  0  0  0  0  0  0  0  0  0
   10.1347  -17.1489   25.3123 C   0  0  2  0  0  0  0  0  0  0  0  0
    9.6998  -15.7989   25.0982 N   0  0  0  0  0  0  0  0  0  0  0  0
   10.6094  -17.2905   26.7055 C   0  0  0  0  0  0  0  0  0  0  0  0
   10.7713  -18.5114   27.3465 O   0  0  0  0  0  0  0  0  0  0  0  0
   10.8853  -16.2558   27.3572 O   0  0  0  0  0  0  0  0  0  0  0  0
  2  1  1  6
  2  4  1  0
  3  2  1  0
  4 11  1  0
  4  5  2  0
  7  6  1  0
  7  8  1  0
  8 10  1  0
  8  9  1  1
 10 12  1  0
 10 11  1  6
 12 13  2  0
 15 14  1  1
 15 17  1  0
 16 15  1  0
 17 19  1  0
 18 12  1  0
 17 18  1  6
 19 20  1  0
 21 19  2  0
M  END
$$$$
