AIV.pdb
     RDKit          3D

 21 20  0  0  1  0  0  0  0  0999 V2000
    7.7042  -19.1348   17.5275 C   0  0  0  0  0  0  0  0  0  0  0  0
    8.3249  -17.8133   17.1296 C   0  0  2  0  0  0  0  0  0  0  0  0
    9.3580  -18.0200   16.1623 N   0  0  0  0  0  0  0  0  0  0  0  0
    8.8636  -17.0735   18.2836 C   0  0  0  0  0  0  0  0  0  0  0  0
   10.0792  -17.1863   18.5564 O   0  0  0  0  0  0  0  0  0  0  0  0
    6.9262  -12.0244   19.8729 C   0  0  0  0  0  0  0  0  0  0  0  0
    7.7440  -13.2192   19.5521 C   0  0  0  0  0  0  0  0  0  0  0  0
    7.9232  -14.2346   20.6135 C   0  0  2  0  0  0  0  0  0  0  0  0
    8.4739  -13.6286   21.8888 C   0  0  0  0  0  0  0  0  0  0  0  0
    8.6324  -15.4941   20.2275 C   0  0  2  0  0  0  0  0  0  0  0  0
    8.0852  -16.2189   19.1322 N   0  0  0  0  0  0  0  0  0  0  0  0
    8.8006  -16.3303   21.4636 C   0  0  0  0  0  0  0  0  0  0  0  0
    7.8146  -16.8423   22.0484 O   0  0  0  0  0  0  0  0  0  0  0  0
   11.1000  -19.3027   21.7328 C   0  0  0  0  0  0  0  0  0  0  0  0
   11.3867  -18.4356   22.9389 C   0  0  1  0  0  0  0  0  0  0  0  0
   12.6699  -17.6654   22.6127 C   0  0  0  0  0  0  0  0  0  0  0  0
   10.2376  -17.4702   23.1438 C   0  0  2  0  0  0  0  0  0  0  0  0
   10.0965  -16.5794   22.0285 N   0  0  0  0  0  0  0  0  0  0  0  0
   10.5234  -16.6815   24.3615 C   0  0  0  0  0  0  0  0  0  0  0  0
   10.4517  -17.1953   25.6495 O   0  0  0  0  0  0  0  0  0  0  0  0
   10.8506  -15.4778   24.2380 O   0  0  0  0  0  0  0  0  0  0  0  0
  2  1  1  1
  2  4  1  0
  3  2  1  0
  4 11  1  0
  4  5  2  0
  7  6  1  0
  7  8  1  0
  8 10  1  0
  8  9  1  1
 10 12  1  0
 10 11  1  6
 12 13  2  0
 15 14  1  6
 15 17  1  0
 16 15  1  0
 17 19  1  0
 18 12  1  0
 17 18  1  6
 19 20  1  0
 21 19  2  0
M  END
$$$$
