AIV.pdb
     RDKit          3D

 21 20  0  0  1  0  0  0  0  0999 V2000
    6.5924  -16.2719   20.8332 C   0  0  0  0  0  0  0  0  0  0  0  0
    6.9535  -14.8269   21.1004 C   0  0  2  0  0  0  0  0  0  0  0  0
    7.7043  -14.2913   20.0072 N   0  0  0  0  0  0  0  0  0  0  0  0
    7.7082  -14.6570   22.3537 C   0  0  0  0  0  0  0  0  0  0  0  0
    8.9554  -14.7466   22.3219 O   0  0  0  0  0  0  0  0  0  0  0  0
    5.8301  -11.3711   26.4010 C   0  0  0  0  0  0  0  0  0  0  0  0
    6.7322  -12.0888   25.4680 C   0  0  0  0  0  0  0  0  0  0  0  0
    7.2645  -13.4005   25.8991 C   0  0  2  0  0  0  0  0  0  0  0  0
    8.1671  -13.2742   27.1100 C   0  0  0  0  0  0  0  0  0  0  0  0
    7.8558  -14.2698   24.8347 C   0  0  2  0  0  0  0  0  0  0  0  0
    7.1094  -14.3919   23.6294 N   0  0  0  0  0  0  0  0  0  0  0  0
    8.1982  -15.5945   25.4536 C   0  0  0  0  0  0  0  0  0  0  0  0
    7.3101  -16.3506   25.9187 O   0  0  0  0  0  0  0  0  0  0  0  0
   10.4039  -18.2191   23.8131 C   0  0  0  0  0  0  0  0  0  0  0  0
   10.9038  -18.0593   25.2320 C   0  0  1  0  0  0  0  0  0  0  0  0
   12.1629  -17.1917   25.1434 C   0  0  0  0  0  0  0  0  0  0  0  0
    9.8451  -17.3582   26.0579 C   0  0  2  0  0  0  0  0  0  0  0  0
    9.5560  -16.0523   25.5396 N   0  0  0  0  0  0  0  0  0  0  0  0
   10.3619  -17.2292   27.4373 C   0  0  0  0  0  0  0  0  0  0  0  0
   10.5602  -18.3053   28.2920 O   0  0  0  0  0  0  0  0  0  0  0  0
   10.6413  -16.0875   27.8728 O   0  0  0  0  0  0  0  0  0  0  0  0
  2  1  1  6
  2  4  1  0
  3  2  1  0
  4 11  1  0
  4  5  2  0
  7  6  1  0
  7  8  1  0
  8 10  1  0
  8  9  1  1
 10 12  1  0
 10 11  1  6
 12 13  2  0
 15 14  1  6
 15 17  1  0
 16 15  1  0
 17 19  1  0
 18 12  1  0
 17 18  1  6
 19 20  1  0
 21 19  2  0
M  END
$$$$
