AIV.pdb
     RDKit          3D

 21 20  0  0  1  0  0  0  0  0999 V2000
    5.9763  -16.7621   21.2064 C   0  0  0  0  0  0  0  0  0  0  0  0
    6.2341  -15.2762   21.3304 C   0  0  2  0  0  0  0  0  0  0  0  0
    6.7331  -14.7530   20.0963 N   0  0  0  0  0  0  0  0  0  0  0  0
    7.1696  -14.9555   22.4219 C   0  0  0  0  0  0  0  0  0  0  0  0
    8.3963  -14.9398   22.1778 O   0  0  0  0  0  0  0  0  0  0  0  0
    5.7280  -11.4999   26.5420 C   0  0  0  0  0  0  0  0  0  0  0  0
    6.4873  -12.2337   25.5007 C   0  0  0  0  0  0  0  0  0  0  0  0
    7.1910  -13.4705   25.9066 C   0  0  2  0  0  0  0  0  0  0  0  0
    8.2466  -13.2009   26.9601 C   0  0  0  0  0  0  0  0  0  0  0  0
    7.6944  -14.3506   24.8063 C   0  0  2  0  0  0  0  0  0  0  0  0
    6.7720  -14.6550   23.7665 N   0  0  0  0  0  0  0  0  0  0  0  0
    8.3042  -15.5726   25.4308 C   0  0  0  0  0  0  0  0  0  0  0  0
    7.6178  -16.3730   26.1126 O   0  0  0  0  0  0  0  0  0  0  0  0
   10.8099  -17.7501   23.3340 C   0  0  0  0  0  0  0  0  0  0  0  0
   11.3318  -17.6070   24.7467 C   0  0  1  0  0  0  0  0  0  0  0  0
   12.4157  -16.5260   24.6914 C   0  0  0  0  0  0  0  0  0  0  0  0
   10.2017  -17.1656   25.6537 C   0  0  2  0  0  0  0  0  0  0  0  0
    9.6983  -15.8771   25.2744 N   0  0  0  0  0  0  0  0  0  0  0  0
   10.7324  -17.0925   27.0319 C   0  0  0  0  0  0  0  0  0  0  0  0
   11.1374  -18.2007   27.7638 O   0  0  0  0  0  0  0  0  0  0  0  0
   10.8274  -15.9708   27.5834 O   0  0  0  0  0  0  0  0  0  0  0  0
  2  1  1  6
  2  4  1  0
  3  2  1  0
  4 11  1  0
  4  5  2  0
  7  6  1  0
  7  8  1  0
  8 10  1  0
  8  9  1  1
 10 12  1  0
 10 11  1  6
 12 13  2  0
 15 14  1  6
 15 17  1  0
 16 15  1  0
 17 19  1  0
 18 12  1  0
 17 18  1  6
 19 20  1  0
 21 19  2  0
M  END
$$$$
