AIV.pdb
     RDKit          3D

 21 20  0  0  1  0  0  0  0  0999 V2000
    5.6213  -17.2749   21.7920 C   0  0  0  0  0  0  0  0  0  0  0  0
    5.8187  -15.7756   21.7378 C   0  0  2  0  0  0  0  0  0  0  0  0
    6.1469  -15.3646   20.4077 N   0  0  0  0  0  0  0  0  0  0  0  0
    6.8564  -15.3096   22.6735 C   0  0  0  0  0  0  0  0  0  0  0  0
    8.0435  -15.2650   22.2819 O   0  0  0  0  0  0  0  0  0  0  0  0
    5.7173  -11.5973   26.6901 C   0  0  0  0  0  0  0  0  0  0  0  0
    6.3677  -12.3791   25.6107 C   0  0  0  0  0  0  0  0  0  0  0  0
    7.2057  -13.5326   26.0067 C   0  0  2  0  0  0  0  0  0  0  0  0
    8.3670  -13.1128   26.8854 C   0  0  0  0  0  0  0  0  0  0  0  0
    7.6242  -14.4667   24.9156 C   0  0  2  0  0  0  0  0  0  0  0  0
    6.6027  -14.8962   24.0229 N   0  0  0  0  0  0  0  0  0  0  0  0
    8.3777  -15.6049   25.5417 C   0  0  0  0  0  0  0  0  0  0  0  0
    7.8336  -16.3740   26.3719 O   0  0  0  0  0  0  0  0  0  0  0  0
   10.8967  -17.6855   23.2702 C   0  0  0  0  0  0  0  0  0  0  0  0
   11.4758  -17.4897   24.6541 C   0  0  1  0  0  0  0  0  0  0  0  0
   12.4927  -16.3508   24.5315 C   0  0  0  0  0  0  0  0  0  0  0  0
   10.3666  -17.0973   25.6081 C   0  0  2  0  0  0  0  0  0  0  0  0
    9.7523  -15.8615   25.2174 N   0  0  0  0  0  0  0  0  0  0  0  0
   10.9631  -16.9389   26.9518 C   0  0  0  0  0  0  0  0  0  0  0  0
   11.4166  -17.9987   27.7258 O   0  0  0  0  0  0  0  0  0  0  0  0
   11.0717  -15.7861   27.4319 O   0  0  0  0  0  0  0  0  0  0  0  0
  2  1  1  6
  2  4  1  0
  3  2  1  0
  4 11  1  0
  4  5  2  0
  7  6  1  0
  7  8  1  0
  8 10  1  0
  8  9  1  6
 10 12  1  0
 10 11  1  1
 12 13  2  0
 15 14  1  6
 15 17  1  0
 16 15  1  0
 17 19  1  0
 18 12  1  0
 17 18  1  6
 19 20  1  0
 21 19  2  0
M  END
$$$$
