AIV.pdb
     RDKit          3D

 21 20  0  0  1  0  0  0  0  0999 V2000
    6.0349  -16.6275   21.2387 C   0  0  0  0  0  0  0  0  0  0  0  0
    6.4413  -15.1733   21.3379 C   0  0  2  0  0  0  0  0  0  0  0  0
    7.0597  -14.7453   20.1213 N   0  0  0  0  0  0  0  0  0  0  0  0
    7.3441  -14.9165   22.4729 C   0  0  0  0  0  0  0  0  0  0  0  0
    8.5793  -14.9395   22.2764 O   0  0  0  0  0  0  0  0  0  0  0  0
    5.8868  -11.4538   26.6219 C   0  0  0  0  0  0  0  0  0  0  0  0
    6.5727  -12.2408   25.5686 C   0  0  0  0  0  0  0  0  0  0  0  0
    7.2598  -13.4856   25.9785 C   0  0  2  0  0  0  0  0  0  0  0  0
    8.2827  -13.2345   27.0683 C   0  0  0  0  0  0  0  0  0  0  0  0
    7.7950  -14.3515   24.8821 C   0  0  2  0  0  0  0  0  0  0  0  0
    6.9052  -14.6374   23.8092 N   0  0  0  0  0  0  0  0  0  0  0  0
    8.3807  -15.5847   25.5077 C   0  0  0  0  0  0  0  0  0  0  0  0
    7.6737  -16.3831   26.1705 O   0  0  0  0  0  0  0  0  0  0  0  0
   10.9204  -17.7760   23.4707 C   0  0  0  0  0  0  0  0  0  0  0  0
   11.4073  -17.6474   24.8973 C   0  0  1  0  0  0  0  0  0  0  0  0
   12.5105  -16.5851   24.8752 C   0  0  0  0  0  0  0  0  0  0  0  0
   10.2615  -17.1903   25.7763 C   0  0  2  0  0  0  0  0  0  0  0  0
    9.7741  -15.9027   25.3742 N   0  0  0  0  0  0  0  0  0  0  0  0
   10.7640  -17.1070   27.1645 C   0  0  0  0  0  0  0  0  0  0  0  0
   11.1710  -18.2078   27.9064 O   0  0  0  0  0  0  0  0  0  0  0  0
   10.8316  -15.9831   27.7154 O   0  0  0  0  0  0  0  0  0  0  0  0
  2  1  1  6
  2  4  1  0
  3  2  1  0
  4 11  1  0
  4  5  2  0
  7  6  1  0
  7  8  1  0
  8 10  1  0
  8  9  1  1
 10 12  1  0
 10 11  1  6
 12 13  2  0
 15 14  1  6
 15 17  1  0
 16 15  1  0
 17 19  1  0
 18 12  1  0
 17 18  1  6
 19 20  1  0
 21 19  2  0
M  END
$$$$
