AIV.pdb
     RDKit          3D

 21 20  0  0  1  0  0  0  0  0999 V2000
    6.3371  -15.8577   20.5964 C   0  0  0  0  0  0  0  0  0  0  0  0
    6.9188  -14.4889   20.8758 C   0  0  2  0  0  0  0  0  0  0  0  0
    7.7748  -14.0838   19.8040 N   0  0  0  0  0  0  0  0  0  0  0  0
    7.6573  -14.4395   22.1491 C   0  0  0  0  0  0  0  0  0  0  0  0
    8.8916  -14.6420   22.1370 O   0  0  0  0  0  0  0  0  0  0  0  0
    5.8491  -11.2719   26.4363 C   0  0  0  0  0  0  0  0  0  0  0  0
    6.6147  -11.9976   25.3939 C   0  0  0  0  0  0  0  0  0  0  0  0
    7.1795  -13.3181   25.7502 C   0  0  2  0  0  0  0  0  0  0  0  0
    8.0776  -13.2389   26.9684 C   0  0  0  0  0  0  0  0  0  0  0  0
    7.7935  -14.1096   24.6390 C   0  0  2  0  0  0  0  0  0  0  0  0
    7.0566  -14.1719   23.4234 N   0  0  0  0  0  0  0  0  0  0  0  0
    8.1576  -15.4630   25.1785 C   0  0  0  0  0  0  0  0  0  0  0  0
    7.2786  -16.2810   25.5459 O   0  0  0  0  0  0  0  0  0  0  0  0
   10.4822  -17.8833   23.4421 C   0  0  0  0  0  0  0  0  0  0  0  0
   10.9393  -17.8206   24.8829 C   0  0  1  0  0  0  0  0  0  0  0  0
   12.1776  -16.9192   24.8966 C   0  0  0  0  0  0  0  0  0  0  0  0
    9.8410  -17.2098   25.7285 C   0  0  2  0  0  0  0  0  0  0  0  0
    9.5264  -15.8786   25.2969 N   0  0  0  0  0  0  0  0  0  0  0  0
   10.3205  -17.1658   27.1266 C   0  0  0  0  0  0  0  0  0  0  0  0
   10.5041  -18.2930   27.9164 O   0  0  0  0  0  0  0  0  0  0  0  0
   10.5800  -16.0526   27.6410 O   0  0  0  0  0  0  0  0  0  0  0  0
  2  1  1  6
  2  4  1  0
  3  2  1  0
  4 11  1  0
  4  5  2  0
  7  6  1  0
  7  8  1  0
  8 10  1  0
  8  9  1  1
 10 12  1  0
 10 11  1  6
 12 13  2  0
 15 14  1  6
 15 17  1  0
 16 15  1  0
 17 19  1  0
 18 12  1  0
 17 18  1  6
 19 20  1  0
 21 19  2  0
M  END
$$$$
