AIV.pdb
     RDKit          3D

 21 20  0  0  1  0  0  0  0  0999 V2000
    6.1515  -17.0842   21.0309 C   0  0  0  0  0  0  0  0  0  0  0  0
    6.5115  -15.6155   20.9752 C   0  0  2  0  0  0  0  0  0  0  0  0
    7.1464  -15.3057   19.7316 N   0  0  0  0  0  0  0  0  0  0  0  0
    7.3782  -15.2048   22.0929 C   0  0  0  0  0  0  0  0  0  0  0  0
    8.6186  -15.2874   21.9544 O   0  0  0  0  0  0  0  0  0  0  0  0
    7.5809  -11.7385   27.3310 C   0  0  0  0  0  0  0  0  0  0  0  0
    8.1170  -12.7397   26.3772 C   0  0  0  0  0  0  0  0  0  0  0  0
    7.1883  -13.2919   25.3662 C   0  0  2  0  0  0  0  0  0  0  0  0
    5.8892  -13.7627   25.9889 C   0  0  0  0  0  0  0  0  0  0  0  0
    7.7547  -14.2888   24.4051 C   0  0  2  0  0  0  0  0  0  0  0  0
    6.8977  -14.7088   23.3497 N   0  0  0  0  0  0  0  0  0  0  0  0
    8.3171  -15.4325   25.1994 C   0  0  0  0  0  0  0  0  0  0  0  0
    7.5704  -16.2764   25.7534 O   0  0  0  0  0  0  0  0  0  0  0  0
   12.5735  -16.1298   25.2805 C   0  0  0  0  0  0  0  0  0  0  0  0
   11.5441  -17.1845   24.9390 C   0  0  1  0  0  0  0  0  0  0  0  0
   12.1381  -18.5208   25.3948 C   0  0  0  0  0  0  0  0  0  0  0  0
   10.2649  -16.8972   25.6976 C   0  0  2  0  0  0  0  0  0  0  0  0
    9.7327  -15.6091   25.3586 N   0  0  0  0  0  0  0  0  0  0  0  0
   10.5812  -16.9266   27.1418 C   0  0  0  0  0  0  0  0  0  0  0  0
   10.7462  -18.0953   27.8731 O   0  0  0  0  0  0  0  0  0  0  0  0
   10.7107  -15.8402   27.7535 O   0  0  0  0  0  0  0  0  0  0  0  0
  2  1  1  6
  2  4  1  0
  3  2  1  0
  4 11  1  0
  4  5  2  0
  7  6  1  0
  7  8  1  0
  8 10  1  0
  8  9  1  1
 10 12  1  0
 10 11  1  6
 12 13  2  0
 15 14  1  1
 15 17  1  0
 16 15  1  0
 17 19  1  0
 18 12  1  0
 17 18  1  6
 19 20  1  0
 21 19  2  0
M  END
$$$$
