AIV.pdb
     RDKit          3D

 21 20  0  0  1  0  0  0  0  0999 V2000
    6.4701  -16.2780   20.9849 C   0  0  0  0  0  0  0  0  0  0  0  0
    6.8576  -14.8270   21.1696 C   0  0  2  0  0  0  0  0  0  0  0  0
    7.5948  -14.3606   20.0361 N   0  0  0  0  0  0  0  0  0  0  0  0
    7.6390  -14.6042   22.3980 C   0  0  0  0  0  0  0  0  0  0  0  0
    8.8875  -14.6462   22.3329 O   0  0  0  0  0  0  0  0  0  0  0  0
    5.9449  -11.2553   26.5386 C   0  0  0  0  0  0  0  0  0  0  0  0
    6.7246  -12.0265   25.5404 C   0  0  0  0  0  0  0  0  0  0  0  0
    7.2535  -13.3458   25.9517 C   0  0  2  0  0  0  0  0  0  0  0  0
    8.1621  -13.2391   27.1601 C   0  0  0  0  0  0  0  0  0  0  0  0
    7.8364  -14.2035   24.8733 C   0  0  2  0  0  0  0  0  0  0  0  0
    7.0654  -14.3383   23.6851 N   0  0  0  0  0  0  0  0  0  0  0  0
    8.2169  -15.5222   25.4829 C   0  0  0  0  0  0  0  0  0  0  0  0
    7.3501  -16.3109   25.9337 O   0  0  0  0  0  0  0  0  0  0  0  0
   10.4564  -18.0593   23.7984 C   0  0  0  0  0  0  0  0  0  0  0  0
   10.9767  -17.9056   25.2107 C   0  0  1  0  0  0  0  0  0  0  0  0
   12.2103  -17.0030   25.1127 C   0  0  0  0  0  0  0  0  0  0  0  0
    9.9143  -17.2449   26.0646 C   0  0  2  0  0  0  0  0  0  0  0  0
    9.5881  -15.9365   25.5758 N   0  0  0  0  0  0  0  0  0  0  0  0
   10.4479  -17.1302   27.4389 C   0  0  0  0  0  0  0  0  0  0  0  0
   10.7049  -18.2189   28.2614 O   0  0  0  0  0  0  0  0  0  0  0  0
   10.6866  -15.9895   27.9004 O   0  0  0  0  0  0  0  0  0  0  0  0
  2  1  1  6
  2  4  1  0
  3  2  1  0
  4 11  1  0
  4  5  2  0
  7  6  1  0
  7  8  1  0
  8 10  1  0
  8  9  1  1
 10 12  1  0
 10 11  1  6
 12 13  2  0
 15 14  1  6
 15 17  1  0
 16 15  1  0
 17 19  1  0
 18 12  1  0
 17 18  1  6
 19 20  1  0
 21 19  2  0
M  END
$$$$
