AIV.pdb
     RDKit          3D

 21 20  0  0  1  0  0  0  0  0999 V2000
    5.7159  -19.6266   24.4060 C   0  0  0  0  0  0  0  0  0  0  0  0
    5.1392  -18.2457   24.1814 C   0  0  2  0  0  0  0  0  0  0  0  0
    4.3677  -18.2185   22.9774 N   0  0  0  0  0  0  0  0  0  0  0  0
    6.1778  -17.2026   24.1312 C   0  0  0  0  0  0  0  0  0  0  0  0
    6.8740  -17.0959   23.0976 O   0  0  0  0  0  0  0  0  0  0  0  0
    5.9158  -12.4625   27.1377 C   0  0  0  0  0  0  0  0  0  0  0  0
    6.2458  -13.3490   25.9956 C   0  0  0  0  0  0  0  0  0  0  0  0
    7.4484  -14.2031   26.1135 C   0  0  2  0  0  0  0  0  0  0  0  0
    8.7229  -13.3838   26.1466 C   0  0  0  0  0  0  0  0  0  0  0  0
    7.5421  -15.3667   25.1778 C   0  0  2  0  0  0  0  0  0  0  0  0
    6.4549  -16.2844   25.1973 N   0  0  0  0  0  0  0  0  0  0  0  0
    8.8749  -16.0260   25.3880 C   0  0  0  0  0  0  0  0  0  0  0  0
    9.1488  -16.6258   26.4566 O   0  0  0  0  0  0  0  0  0  0  0  0
   10.8023  -17.4776   22.0818 C   0  0  0  0  0  0  0  0  0  0  0  0
   11.7550  -16.9727   23.1430 C   0  0  1  0  0  0  0  0  0  0  0  0
   12.2013  -15.5807   22.6853 C   0  0  0  0  0  0  0  0  0  0  0  0
   11.0228  -16.8762   24.4656 C   0  0  2  0  0  0  0  0  0  0  0  0
    9.8921  -15.9983   24.3756 N   0  0  0  0  0  0  0  0  0  0  0  0
   11.9712  -16.3447   25.4678 C   0  0  0  0  0  0  0  0  0  0  0  0
   11.8224  -15.1160   26.0971 O   0  0  0  0  0  0  0  0  0  0  0  0
   12.9721  -17.0333   25.7765 O   0  0  0  0  0  0  0  0  0  0  0  0
  2  1  1  6
  2  4  1  0
  3  2  1  0
  4 11  1  0
  4  5  2  0
  7  6  1  0
  7  8  1  0
  8 10  1  0
  8  9  1  6
 10 12  1  0
 10 11  1  1
 12 13  2  0
 15 14  1  6
 15 17  1  0
 16 15  1  0
 17 19  1  0
 18 12  1  0
 17 18  1  6
 19 20  1  0
 21 19  2  0
M  END
$$$$
