SVM.pdb
     RDKit          3D

 22 21  0  0  1  0  0  0  0  0999 V2000
    8.5265  -19.0097   21.1910 O   0  0  0  0  0  0  0  0  0  0  0  0
    7.1851  -18.6432   20.9389 C   0  0  0  0  0  0  0  0  0  0  0  0
    7.1848  -17.7841   19.6925 C   0  0  2  0  0  0  0  0  0  0  0  0
    7.7215  -18.5607   18.5844 N   0  0  0  0  0  0  0  0  0  0  0  0
    8.0413  -16.5866   19.8544 C   0  0  0  0  0  0  0  0  0  0  0  0
    8.4987  -15.9547   18.8757 O   0  0  0  0  0  0  0  0  0  0  0  0
    7.3100  -13.8394   19.4734 C   0  0  0  0  0  0  0  0  0  0  0  0
    7.5264  -13.8317   20.9412 C   0  0  2  0  0  0  0  0  0  0  0  0
    7.8213  -12.4730   21.5154 C   0  0  0  0  0  0  0  0  0  0  0  0
    8.6729  -14.7496   21.3842 C   0  0  2  0  0  0  0  0  0  0  0  0
    8.3639  -16.1262   21.1515 N   0  0  0  0  0  0  0  0  0  0  0  0
    9.0351  -14.4696   22.8033 C   0  0  0  0  0  0  0  0  0  0  0  0
    9.3767  -13.3157   23.1665 O   0  0  0  0  0  0  0  0  0  0  0  0
    6.6102  -11.3216   26.0224 C   0  0  0  0  0  0  0  0  0  0  0  0
    6.6247  -12.5497   27.2863 S   0  0  0  0  0  0  0  0  0  0  0  0
    7.3409  -14.1433   26.9302 C   0  0  0  0  0  0  0  0  0  0  0  0
    7.6174  -14.3693   25.4808 C   0  0  0  0  0  0  0  0  0  0  0  0
    8.8242  -15.1666   25.2296 C   0  0  2  0  0  0  0  0  0  0  0  0
    9.0156  -15.4712   23.8057 N   0  0  0  0  0  0  0  0  0  0  0  0
    8.8773  -16.4225   25.9563 C   0  0  0  0  0  0  0  0  0  0  0  0
    9.1483  -16.5122   27.2904 O   0  0  0  0  0  0  0  0  0  0  0  0
    8.6627  -17.5127   25.3373 O   0  0  0  0  0  0  0  0  0  0  0  0
  2  1  1  0
  2  3  1  0
  3  4  1  6
  5 11  1  0
  5  3  1  0
  6  5  2  0
  8  7  1  6
  8 10  1  0
  9  8  1  0
 10 11  1  1
 10 12  1  0
 12 19  1  0
 12 13  2  0
 14 15  1  0
 16 17  1  0
 16 15  1  0
 18 20  1  0
 18 17  1  6
 19 18  1  0
 20 21  1  0
 22 20  2  0
M  END
$$$$
