SVM.pdb
     RDKit          3D

 22 21  0  0  1  0  0  0  0  0999 V2000
   10.4135  -19.3869   20.9419 O   0  0  0  0  0  0  0  0  0  0  0  0
    9.7877  -18.9974   19.7361 C   0  0  0  0  0  0  0  0  0  0  0  0
   10.4459  -17.7099   19.2882 C   0  0  2  0  0  0  0  0  0  0  0  0
   11.8810  -17.9277   19.1776 N   0  0  0  0  0  0  0  0  0  0  0  0
   10.2343  -16.6189   20.2675 C   0  0  0  0  0  0  0  0  0  0  0  0
   11.1618  -16.1679   20.9763 O   0  0  0  0  0  0  0  0  0  0  0  0
    7.7668  -13.4601   19.6109 C   0  0  0  0  0  0  0  0  0  0  0  0
    7.5471  -14.1074   20.9277 C   0  0  2  0  0  0  0  0  0  0  0  0
    7.3066  -13.1438   22.0576 C   0  0  0  0  0  0  0  0  0  0  0  0
    8.7159  -15.0019   21.3599 C   0  0  2  0  0  0  0  0  0  0  0  0
    8.9470  -16.0550   20.4206 N   0  0  0  0  0  0  0  0  0  0  0  0
    8.4934  -15.5021   22.7470 C   0  0  0  0  0  0  0  0  0  0  0  0
    7.9856  -16.6337   22.9513 O   0  0  0  0  0  0  0  0  0  0  0  0
    5.6324  -11.2425   27.5498 C   0  0  0  0  0  0  0  0  0  0  0  0
    7.1425  -12.1425   27.4255 S   0  0  0  0  0  0  0  0  0  0  0  0
    7.2406  -13.5057   26.2804 C   0  0  0  0  0  0  0  0  0  0  0  0
    8.5728  -14.1788   26.2576 C   0  0  0  0  0  0  0  0  0  0  0  0
    8.6722  -15.2525   25.2615 C   0  0  2  0  0  0  0  0  0  0  0  0
    8.8355  -14.7430   23.8938 N   0  0  0  0  0  0  0  0  0  0  0  0
    7.5486  -16.1721   25.2542 C   0  0  0  0  0  0  0  0  0  0  0  0
    7.4996  -17.3108   26.0041 O   0  0  0  0  0  0  0  0  0  0  0  0
    6.5424  -15.9242   24.5165 O   0  0  0  0  0  0  0  0  0  0  0  0
  2  1  1  0
  2  3  1  0
  3  4  1  1
  5 11  1  0
  5  3  1  0
  6  5  2  0
  8  7  1  6
  8 10  1  0
  9  8  1  0
 10 11  1  6
 10 12  1  0
 12 19  1  0
 12 13  2  0
 14 15  1  0
 16 17  1  0
 16 15  1  0
 18 20  1  0
 18 17  1  1
 19 18  1  0
 20 21  1  0
 22 20  2  0
M  END
$$$$
