SVM.pdb
     RDKit          3D

 22 21  0  0  1  0  0  0  0  0999 V2000
    7.7999  -20.4716   20.7062 O   0  0  0  0  0  0  0  0  0  0  0  0
    7.9305  -19.1851   21.2765 C   0  0  0  0  0  0  0  0  0  0  0  0
    8.0561  -18.2015   20.1327 C   0  0  2  0  0  0  0  0  0  0  0  0
    8.9076  -18.7808   19.1040 N   0  0  0  0  0  0  0  0  0  0  0  0
    8.6837  -16.9330   20.5696 C   0  0  0  0  0  0  0  0  0  0  0  0
    9.9253  -16.7885   20.6322 O   0  0  0  0  0  0  0  0  0  0  0  0
    7.2512  -13.2478   19.5788 C   0  0  0  0  0  0  0  0  0  0  0  0
    7.5224  -13.4114   21.0283 C   0  0  2  0  0  0  0  0  0  0  0  0
    8.1384  -12.2046   21.6818 C   0  0  0  0  0  0  0  0  0  0  0  0
    8.4496  -14.5940   21.3363 C   0  0  2  0  0  0  0  0  0  0  0  0
    7.8685  -15.8365   20.9323 N   0  0  0  0  0  0  0  0  0  0  0  0
    8.8401  -14.5784   22.7753 C   0  0  0  0  0  0  0  0  0  0  0  0
    9.5761  -13.6688   23.2345 O   0  0  0  0  0  0  0  0  0  0  0  0
    6.1369  -11.2389   25.7697 C   0  0  0  0  0  0  0  0  0  0  0  0
    6.4688  -12.5734   26.8720 S   0  0  0  0  0  0  0  0  0  0  0  0
    7.8807  -13.6167   26.5603 C   0  0  0  0  0  0  0  0  0  0  0  0
    7.5427  -14.8990   25.8748 C   0  0  0  0  0  0  0  0  0  0  0  0
    8.6673  -15.4844   25.1347 C   0  0  2  0  0  0  0  0  0  0  0  0
    8.4114  -15.5714   23.6911 N   0  0  0  0  0  0  0  0  0  0  0  0
    9.0637  -16.8053   25.5888 C   0  0  0  0  0  0  0  0  0  0  0  0
   10.1182  -17.0319   26.4242 O   0  0  0  0  0  0  0  0  0  0  0  0
    8.4071  -17.8232   25.2005 O   0  0  0  0  0  0  0  0  0  0  0  0
  2  1  1  0
  2  3  1  0
  3  4  1  6
  5 11  1  0
  5  3  1  0
  6  5  2  0
  8  7  1  6
  8 10  1  0
  9  8  1  0
 10 11  1  1
 10 12  1  0
 12 19  1  0
 12 13  2  0
 14 15  1  0
 16 17  1  0
 16 15  1  0
 18 20  1  0
 18 17  1  1
 19 18  1  0
 20 21  1  0
 22 20  2  0
M  END
$$$$
