SVM.pdb
     RDKit          3D

 22 21  0  0  1  0  0  0  0  0999 V2000
   10.4752  -19.8691   18.5046 O   0  0  0  0  0  0  0  0  0  0  0  0
   10.5180  -18.9497   19.5771 C   0  0  0  0  0  0  0  0  0  0  0  0
   10.5395  -17.5617   18.9734 C   0  0  2  0  0  0  0  0  0  0  0  0
   11.8578  -17.3137   18.4081 N   0  0  0  0  0  0  0  0  0  0  0  0
   10.2880  -16.5182   19.9940 C   0  0  0  0  0  0  0  0  0  0  0  0
   11.2153  -15.9641   20.6259 O   0  0  0  0  0  0  0  0  0  0  0  0
    7.3438  -13.7075   19.6365 C   0  0  0  0  0  0  0  0  0  0  0  0
    7.3648  -14.3881   20.9547 C   0  0  2  0  0  0  0  0  0  0  0  0
    7.1065  -13.4780   22.1243 C   0  0  0  0  0  0  0  0  0  0  0  0
    8.6928  -15.1001   21.2422 C   0  0  2  0  0  0  0  0  0  0  0  0
    8.9612  -16.1211   20.2778 N   0  0  0  0  0  0  0  0  0  0  0  0
    8.7090  -15.6091   22.6437 C   0  0  0  0  0  0  0  0  0  0  0  0
    8.3723  -16.7917   22.9048 O   0  0  0  0  0  0  0  0  0  0  0  0
   10.4742  -14.0338   30.3341 C   0  0  0  0  0  0  0  0  0  0  0  0
   10.3081  -13.5799   28.6393 S   0  0  0  0  0  0  0  0  0  0  0  0
    9.8420  -14.8288   27.4551 C   0  0  0  0  0  0  0  0  0  0  0  0
    9.6667  -14.3078   26.0673 C   0  0  0  0  0  0  0  0  0  0  0  0
    9.2261  -15.3274   25.1076 C   0  0  2  0  0  0  0  0  0  0  0  0
    9.0978  -14.8023   23.7420 N   0  0  0  0  0  0  0  0  0  0  0  0
    7.9699  -15.9711   25.4481 C   0  0  0  0  0  0  0  0  0  0  0  0
    7.8862  -17.1846   26.0659 O   0  0  0  0  0  0  0  0  0  0  0  0
    6.8735  -15.3915   25.1654 O   0  0  0  0  0  0  0  0  0  0  0  0
  2  1  1  0
  2  3  1  0
  3  4  1  1
  5 11  1  0
  5  3  1  0
  6  5  2  0
  8  7  1  6
  8 10  1  0
  9  8  1  0
 10 11  1  6
 10 12  1  0
 12 19  1  0
 12 13  2  0
 14 15  1  0
 16 17  1  0
 16 15  1  0
 18 20  1  0
 18 17  1  1
 19 18  1  0
 20 21  1  0
 22 20  2  0
M  END
$$$$
