SVM.pdb
     RDKit          3D

 22 21  0  0  1  0  0  0  0  0999 V2000
   11.8134  -19.0712   20.6034 O   0  0  0  0  0  0  0  0  0  0  0  0
   10.8143  -18.9149   19.6161 C   0  0  0  0  0  0  0  0  0  0  0  0
   10.8518  -17.4689   19.1696 C   0  0  2  0  0  0  0  0  0  0  0  0
   12.1934  -17.1552   18.6996 N   0  0  0  0  0  0  0  0  0  0  0  0
   10.5420  -16.5447   20.2848 C   0  0  0  0  0  0  0  0  0  0  0  0
   11.4231  -15.8555   20.8460 O   0  0  0  0  0  0  0  0  0  0  0  0
    7.0927  -14.3359   20.5490 C   0  0  0  0  0  0  0  0  0  0  0  0
    7.4216  -15.1023   21.7761 C   0  0  2  0  0  0  0  0  0  0  0  0
    7.1541  -14.3616   23.0578 C   0  0  0  0  0  0  0  0  0  0  0  0
    8.8878  -15.5500   21.8299 C   0  0  2  0  0  0  0  0  0  0  0  0
    9.2108  -16.4234   20.7449 N   0  0  0  0  0  0  0  0  0  0  0  0
    9.1940  -16.1448   23.1626 C   0  0  0  0  0  0  0  0  0  0  0  0
    9.3450  -17.3855   23.2962 O   0  0  0  0  0  0  0  0  0  0  0  0
    9.9502  -12.5377   28.9204 C   0  0  0  0  0  0  0  0  0  0  0  0
   10.6061  -14.1474   29.2107 S   0  0  0  0  0  0  0  0  0  0  0  0
   10.3870  -15.4040   27.9649 C   0  0  0  0  0  0  0  0  0  0  0  0
   10.0598  -14.8618   26.6132 C   0  0  0  0  0  0  0  0  0  0  0  0
    9.8380  -15.9012   25.6005 C   0  0  2  0  0  0  0  0  0  0  0  0
    9.3291  -15.3587   24.3341 N   0  0  0  0  0  0  0  0  0  0  0  0
    8.9376  -16.9622   26.0147 C   0  0  0  0  0  0  0  0  0  0  0  0
    7.5884  -16.9287   25.8151 O   0  0  0  0  0  0  0  0  0  0  0  0
    9.4086  -17.9900   26.5976 O   0  0  0  0  0  0  0  0  0  0  0  0
  2  1  1  0
  2  3  1  0
  3  4  1  1
  5 11  1  0
  5  3  1  0
  6  5  2  0
  8  7  1  6
  8 10  1  0
  9  8  1  0
 10 11  1  6
 10 12  1  0
 12 19  1  0
 12 13  2  0
 14 15  1  0
 16 17  1  0
 16 15  1  0
 18 20  1  0
 18 17  1  1
 19 18  1  0
 20 21  1  0
 22 20  2  0
M  END
$$$$
