SVM.pdb
     RDKit          3D

 22 21  0  0  1  0  0  0  0  0999 V2000
    6.2279  -18.8771   22.3203 O   0  0  0  0  0  0  0  0  0  0  0  0
    5.2828  -18.2867   21.4511 C   0  0  0  0  0  0  0  0  0  0  0  0
    6.0257  -17.8769   20.1974 C   0  0  2  0  0  0  0  0  0  0  0  0
    6.6469  -19.0556   19.6110 N   0  0  0  0  0  0  0  0  0  0  0  0
    7.1035  -16.9052   20.4943 C   0  0  0  0  0  0  0  0  0  0  0  0
    8.2869  -17.2602   20.6940 O   0  0  0  0  0  0  0  0  0  0  0  0
    7.3021  -13.3390   18.7542 C   0  0  0  0  0  0  0  0  0  0  0  0
    7.5602  -13.2190   20.2103 C   0  0  2  0  0  0  0  0  0  0  0  0
    8.7276  -12.3374   20.5605 C   0  0  0  0  0  0  0  0  0  0  0  0
    7.8168  -14.5709   20.8884 C   0  0  2  0  0  0  0  0  0  0  0  0
    6.8044  -15.5251   20.5582 N   0  0  0  0  0  0  0  0  0  0  0  0
    7.9791  -14.3845   22.3589 C   0  0  0  0  0  0  0  0  0  0  0  0
    7.2281  -13.6044   22.9973 O   0  0  0  0  0  0  0  0  0  0  0  0
    5.5512  -12.0142   27.1654 C   0  0  0  0  0  0  0  0  0  0  0  0
    6.6752  -13.3574   26.9696 S   0  0  0  0  0  0  0  0  0  0  0  0
    6.9512  -14.0181   25.3366 C   0  0  0  0  0  0  0  0  0  0  0  0
    7.9054  -15.1656   25.3043 C   0  0  0  0  0  0  0  0  0  0  0  0
    9.1368  -14.8855   24.5557 C   0  0  2  0  0  0  0  0  0  0  0  0
    8.9722  -15.0642   23.1073 N   0  0  0  0  0  0  0  0  0  0  0  0
   10.2832  -15.6763   24.9663 C   0  0  0  0  0  0  0  0  0  0  0  0
   11.0461  -15.3891   26.0603 O   0  0  0  0  0  0  0  0  0  0  0  0
   10.6145  -16.6980   24.2849 O   0  0  0  0  0  0  0  0  0  0  0  0
  2  1  1  0
  2  3  1  0
  3  4  1  1
  5 11  1  0
  5  3  1  0
  6  5  2  0
  8  7  1  6
  8 10  1  0
  9  8  1  0
 10 11  1  1
 10 12  1  0
 12 19  1  0
 12 13  2  0
 14 15  1  0
 16 17  1  0
 16 15  1  0
 18 20  1  0
 18 17  1  1
 19 18  1  0
 20 21  1  0
 22 20  2  0
M  END
$$$$
