SVM.pdb
     RDKit          3D

 22 21  0  0  1  0  0  0  0  0999 V2000
   12.3771  -19.1111   20.1167 O   0  0  0  0  0  0  0  0  0  0  0  0
   11.0055  -18.8173   19.9436 C   0  0  0  0  0  0  0  0  0  0  0  0
   10.9196  -17.4318   19.3400 C   0  0  2  0  0  0  0  0  0  0  0  0
   12.2346  -17.0505   18.8455 N   0  0  0  0  0  0  0  0  0  0  0  0
   10.5106  -16.4228   20.3443 C   0  0  0  0  0  0  0  0  0  0  0  0
   11.3242  -15.6215   20.8563 O   0  0  0  0  0  0  0  0  0  0  0  0
    6.9687  -14.3932   20.4894 C   0  0  0  0  0  0  0  0  0  0  0  0
    7.2927  -15.1087   21.7481 C   0  0  2  0  0  0  0  0  0  0  0  0
    6.9795  -14.3329   22.9982 C   0  0  0  0  0  0  0  0  0  0  0  0
    8.7690  -15.5141   21.8458 C   0  0  2  0  0  0  0  0  0  0  0  0
    9.1588  -16.3472   20.7510 N   0  0  0  0  0  0  0  0  0  0  0  0
    9.0434  -16.1362   23.1729 C   0  0  0  0  0  0  0  0  0  0  0  0
    9.0981  -17.3855   23.3011 O   0  0  0  0  0  0  0  0  0  0  0  0
   10.8238  -12.5964   28.7234 C   0  0  0  0  0  0  0  0  0  0  0  0
   11.0305  -14.3048   29.1032 S   0  0  0  0  0  0  0  0  0  0  0  0
   10.4767  -15.5221   27.9240 C   0  0  0  0  0  0  0  0  0  0  0  0
   10.1430  -14.9549   26.5841 C   0  0  0  0  0  0  0  0  0  0  0  0
    9.6878  -15.9607   25.6165 C   0  0  2  0  0  0  0  0  0  0  0  0
    9.2538  -15.3677   24.3449 N   0  0  0  0  0  0  0  0  0  0  0  0
    8.6105  -16.8095   26.0931 C   0  0  0  0  0  0  0  0  0  0  0  0
    8.8082  -18.0372   26.6543 O   0  0  0  0  0  0  0  0  0  0  0  0
    7.4075  -16.4086   25.9933 O   0  0  0  0  0  0  0  0  0  0  0  0
  2  1  1  0
  2  3  1  0
  3  4  1  1
  5 11  1  0
  5  3  1  0
  6  5  2  0
  8  7  1  6
  8 10  1  0
  9  8  1  0
 10 11  1  6
 10 12  1  0
 12 19  1  0
 12 13  2  0
 14 15  1  0
 16 17  1  0
 16 15  1  0
 18 20  1  0
 18 17  1  1
 19 18  1  0
 20 21  1  0
 22 20  2  0
M  END
$$$$
