SVM.pdb
     RDKit          3D

 22 21  0  0  1  0  0  0  0  0999 V2000
    8.4696  -18.9385   22.1823 O   0  0  0  0  0  0  0  0  0  0  0  0
    7.5208  -19.0708   21.1432 C   0  0  0  0  0  0  0  0  0  0  0  0
    8.0488  -18.2936   19.9563 C   0  0  2  0  0  0  0  0  0  0  0  0
    9.0950  -19.0728   19.3101 N   0  0  0  0  0  0  0  0  0  0  0  0
    8.6451  -17.0025   20.3703 C   0  0  0  0  0  0  0  0  0  0  0  0
    9.8818  -16.8390   20.4705 O   0  0  0  0  0  0  0  0  0  0  0  0
    7.3021  -13.3519   19.1812 C   0  0  0  0  0  0  0  0  0  0  0  0
    7.4501  -13.4797   20.6520 C   0  0  2  0  0  0  0  0  0  0  0  0
    8.0013  -12.2532   21.3265 C   0  0  0  0  0  0  0  0  0  0  0  0
    8.3547  -14.6475   21.0655 C   0  0  2  0  0  0  0  0  0  0  0  0
    7.8041  -15.9055   20.6667 N   0  0  0  0  0  0  0  0  0  0  0  0
    8.6442  -14.5796   22.5267 C   0  0  0  0  0  0  0  0  0  0  0  0
    9.2369  -13.5877   23.0217 O   0  0  0  0  0  0  0  0  0  0  0  0
    6.4178  -10.8089   27.1625 C   0  0  0  0  0  0  0  0  0  0  0  0
    6.1719  -12.4634   26.6076 S   0  0  0  0  0  0  0  0  0  0  0  0
    7.5396  -13.3355   25.8673 C   0  0  0  0  0  0  0  0  0  0  0  0
    7.2058  -14.7251   25.4363 C   0  0  0  0  0  0  0  0  0  0  0  0
    8.3499  -15.4603   24.8836 C   0  0  2  0  0  0  0  0  0  0  0  0
    8.2746  -15.6118   23.4247 N   0  0  0  0  0  0  0  0  0  0  0  0
    8.5460  -16.7825   25.4508 C   0  0  0  0  0  0  0  0  0  0  0  0
    8.9529  -17.0008   26.7345 O   0  0  0  0  0  0  0  0  0  0  0  0
    8.3330  -17.8095   24.7312 O   0  0  0  0  0  0  0  0  0  0  0  0
  2  1  1  0
  2  3  1  0
  3  4  1  1
  5 11  1  0
  5  3  1  0
  6  5  2  0
  8  7  1  6
  8 10  1  0
  9  8  1  0
 10 11  1  1
 10 12  1  0
 12 19  1  0
 12 13  2  0
 14 15  1  0
 16 17  1  0
 16 15  1  0
 18 20  1  0
 18 17  1  1
 19 18  1  0
 20 21  1  0
 22 20  2  0
M  END
$$$$
