SVM.pdb
     RDKit          3D

 22 21  0  0  1  0  0  0  0  0999 V2000
   11.3831  -18.9578   20.0697 O   0  0  0  0  0  0  0  0  0  0  0  0
   10.5204  -18.3906   19.1045 C   0  0  0  0  0  0  0  0  0  0  0  0
   10.9320  -16.9438   18.9346 C   0  0  2  0  0  0  0  0  0  0  0  0
   12.3750  -16.8825   18.7520 N   0  0  0  0  0  0  0  0  0  0  0  0
   10.5988  -16.1370   20.1312 C   0  0  0  0  0  0  0  0  0  0  0  0
   11.4774  -15.6953   20.9053 O   0  0  0  0  0  0  0  0  0  0  0  0
    7.4422  -13.4894   20.2316 C   0  0  0  0  0  0  0  0  0  0  0  0
    7.5195  -14.4033   21.3978 C   0  0  2  0  0  0  0  0  0  0  0  0
    7.1928  -13.7538   22.7147 C   0  0  0  0  0  0  0  0  0  0  0  0
    8.9001  -15.0514   21.5627 C   0  0  2  0  0  0  0  0  0  0  0  0
    9.2471  -15.8454   20.4254 N   0  0  0  0  0  0  0  0  0  0  0  0
    8.9584  -15.8157   22.8418 C   0  0  0  0  0  0  0  0  0  0  0  0
    8.5314  -16.9961   22.9083 O   0  0  0  0  0  0  0  0  0  0  0  0
   10.7537  -12.6165   29.1952 C   0  0  0  0  0  0  0  0  0  0  0  0
    9.8887  -14.0745   28.7136 S   0  0  0  0  0  0  0  0  0  0  0  0
    9.5025  -14.3168   26.9899 C   0  0  0  0  0  0  0  0  0  0  0  0
   10.3912  -15.3021   26.3060 C   0  0  0  0  0  0  0  0  0  0  0  0
    9.7194  -16.0628   25.2453 C   0  0  2  0  0  0  0  0  0  0  0  0
    9.4889  -15.2641   24.0346 N   0  0  0  0  0  0  0  0  0  0  0  0
    8.4467  -16.6430   25.6351 C   0  0  0  0  0  0  0  0  0  0  0  0
    8.3304  -17.8122   26.3285 O   0  0  0  0  0  0  0  0  0  0  0  0
    7.3666  -16.0471   25.3248 O   0  0  0  0  0  0  0  0  0  0  0  0
  2  1  1  0
  2  3  1  0
  3  4  1  1
  5 11  1  0
  5  3  1  0
  6  5  2  0
  8  7  1  6
  8 10  1  0
  9  8  1  0
 10 11  1  6
 10 12  1  0
 12 19  1  0
 12 13  2  0
 14 15  1  0
 16 17  1  0
 16 15  1  0
 18 20  1  0
 18 17  1  1
 19 18  1  0
 20 21  1  0
 22 20  2  0
M  END
$$$$
