SVM.pdb
     RDKit          3D

 22 21  0  0  1  0  0  0  0  0999 V2000
    8.8002  -19.1899   22.0979 O   0  0  0  0  0  0  0  0  0  0  0  0
    7.6631  -19.1002   21.2634 C   0  0  0  0  0  0  0  0  0  0  0  0
    8.0733  -18.3177   20.0342 C   0  0  2  0  0  0  0  0  0  0  0  0
    9.0938  -19.0678   19.3166 N   0  0  0  0  0  0  0  0  0  0  0  0
    8.6546  -17.0033   20.3924 C   0  0  0  0  0  0  0  0  0  0  0  0
    9.8901  -16.8097   20.4407 O   0  0  0  0  0  0  0  0  0  0  0  0
    6.8786  -13.5142   19.1869 C   0  0  0  0  0  0  0  0  0  0  0  0
    7.3009  -13.5192   20.6092 C   0  0  2  0  0  0  0  0  0  0  0  0
    7.8955  -12.2209   21.0820 C   0  0  0  0  0  0  0  0  0  0  0  0
    8.3310  -14.6108   20.9261 C   0  0  2  0  0  0  0  0  0  0  0  0
    7.8002  -15.9179   20.6932 N   0  0  0  0  0  0  0  0  0  0  0  0
    8.8530  -14.4366   22.3120 C   0  0  0  0  0  0  0  0  0  0  0  0
    9.4316  -13.3747   22.6550 O   0  0  0  0  0  0  0  0  0  0  0  0
    7.7346  -11.0939   27.2574 C   0  0  0  0  0  0  0  0  0  0  0  0
    6.5577  -12.1725   26.5108 S   0  0  0  0  0  0  0  0  0  0  0  0
    6.9846  -13.8889   26.2850 C   0  0  0  0  0  0  0  0  0  0  0  0
    7.2692  -14.2575   24.8668 C   0  0  0  0  0  0  0  0  0  0  0  0
    8.4340  -15.1371   24.7101 C   0  0  2  0  0  0  0  0  0  0  0  0
    8.7291  -15.4412   23.3040 N   0  0  0  0  0  0  0  0  0  0  0  0
    8.3333  -16.4005   25.4187 C   0  0  0  0  0  0  0  0  0  0  0  0
    8.5671  -16.5372   26.7559 O   0  0  0  0  0  0  0  0  0  0  0  0
    8.0105  -17.4519   24.7797 O   0  0  0  0  0  0  0  0  0  0  0  0
  2  1  1  0
  2  3  1  0
  3  4  1  1
  5 11  1  0
  5  3  1  0
  6  5  2  0
  8  7  1  6
  8 10  1  0
  9  8  1  0
 10 11  1  1
 10 12  1  0
 12 19  1  0
 12 13  2  0
 14 15  1  0
 16 17  1  0
 16 15  1  0
 18 20  1  0
 18 17  1  6
 19 18  1  0
 20 21  1  0
 22 20  2  0
M  END
$$$$
