SVM.pdb
     RDKit          3D

 22 21  0  0  1  0  0  0  0  0999 V2000
    5.9799  -17.6077   20.1898 O   0  0  0  0  0  0  0  0  0  0  0  0
    6.2641  -18.9921   20.1980 C   0  0  0  0  0  0  0  0  0  0  0  0
    5.3238  -19.6339   21.1957 C   0  0  2  0  0  0  0  0  0  0  0  0
    3.9518  -19.3897   20.7751 N   0  0  0  0  0  0  0  0  0  0  0  0
    5.4856  -19.0548   22.5494 C   0  0  0  0  0  0  0  0  0  0  0  0
    4.5872  -18.3782   23.0985 O   0  0  0  0  0  0  0  0  0  0  0  0
    6.3923  -20.8756   25.7715 C   0  0  0  0  0  0  0  0  0  0  0  0
    7.3662  -19.7763   25.5608 C   0  0  2  0  0  0  0  0  0  0  0  0
    7.7496  -19.0413   26.8161 C   0  0  0  0  0  0  0  0  0  0  0  0
    6.8699  -18.7158   24.5698 C   0  0  2  0  0  0  0  0  0  0  0  0
    6.6891  -19.2630   23.2612 N   0  0  0  0  0  0  0  0  0  0  0  0
    7.7809  -17.5354   24.5827 C   0  0  0  0  0  0  0  0  0  0  0  0
    8.8497  -17.5377   23.9210 O   0  0  0  0  0  0  0  0  0  0  0  0
    6.5861  -11.1628   27.2387 C   0  0  0  0  0  0  0  0  0  0  0  0
    5.7277  -12.2318   26.1314 S   0  0  0  0  0  0  0  0  0  0  0  0
    6.6517  -13.4670   25.2372 C   0  0  0  0  0  0  0  0  0  0  0  0
    7.7991  -14.0344   26.0052 C   0  0  0  0  0  0  0  0  0  0  0  0
    8.4069  -15.2107   25.3712 C   0  0  2  0  0  0  0  0  0  0  0  0
    7.4988  -16.3642   25.3293 N   0  0  0  0  0  0  0  0  0  0  0  0
    9.6462  -15.6522   25.9855 C   0  0  0  0  0  0  0  0  0  0  0  0
   10.8813  -15.2507   25.5674 O   0  0  0  0  0  0  0  0  0  0  0  0
    9.6044  -16.4573   26.9694 O   0  0  0  0  0  0  0  0  0  0  0  0
  2  1  1  0
  2  3  1  0
  3  4  1  6
  5 11  1  0
  5  3  1  0
  6  5  2  0
  8  7  1  1
  8 10  1  0
  9  8  1  0
 10 11  1  6
 10 12  1  0
 12 19  1  0
 12 13  2  0
 14 15  1  0
 16 17  1  0
 16 15  1  0
 18 20  1  0
 18 17  1  1
 19 18  1  0
 20 21  1  0
 22 20  2  0
M  END
$$$$
