SVM.pdb
     RDKit          3D

 22 21  0  0  1  0  0  0  0  0999 V2000
    4.3868  -19.1954   21.2083 O   0  0  0  0  0  0  0  0  0  0  0  0
    5.6461  -18.5911   21.4236 C   0  0  0  0  0  0  0  0  0  0  0  0
    5.9883  -17.8157   20.1693 C   0  0  2  0  0  0  0  0  0  0  0  0
    6.4982  -18.7407   19.1676 N   0  0  0  0  0  0  0  0  0  0  0  0
    7.0420  -16.8058   20.4219 C   0  0  0  0  0  0  0  0  0  0  0  0
    8.2597  -17.0631   20.2900 O   0  0  0  0  0  0  0  0  0  0  0  0
    7.2368  -13.2310   19.0913 C   0  0  0  0  0  0  0  0  0  0  0  0
    7.4002  -13.1724   20.5648 C   0  0  2  0  0  0  0  0  0  0  0  0
    8.5030  -12.2605   21.0286 C   0  0  0  0  0  0  0  0  0  0  0  0
    7.6762  -14.5441   21.1936 C   0  0  2  0  0  0  0  0  0  0  0  0
    6.6791  -15.5008   20.8265 N   0  0  0  0  0  0  0  0  0  0  0  0
    7.8330  -14.4092   22.6704 C   0  0  0  0  0  0  0  0  0  0  0  0
    7.0722  -13.6606   23.3344 O   0  0  0  0  0  0  0  0  0  0  0  0
    6.1727  -11.4165   27.0000 C   0  0  0  0  0  0  0  0  0  0  0  0
    7.2136  -12.8264   26.8139 S   0  0  0  0  0  0  0  0  0  0  0  0
    6.8058  -14.0399   25.5728 C   0  0  0  0  0  0  0  0  0  0  0  0
    7.7141  -15.2246   25.5671 C   0  0  0  0  0  0  0  0  0  0  0  0
    8.9763  -14.9945   24.8538 C   0  0  2  0  0  0  0  0  0  0  0  0
    8.8317  -15.1048   23.3965 N   0  0  0  0  0  0  0  0  0  0  0  0
   10.0615  -15.8726   25.2531 C   0  0  0  0  0  0  0  0  0  0  0  0
   10.6834  -15.8017   26.4653 O   0  0  0  0  0  0  0  0  0  0  0  0
   10.4728  -16.7654   24.4459 O   0  0  0  0  0  0  0  0  0  0  0  0
  2  1  1  0
  2  3  1  0
  3  4  1  6
  5 11  1  0
  5  3  1  0
  6  5  2  0
  8  7  1  6
  8 10  1  0
  9  8  1  0
 10 11  1  1
 10 12  1  0
 12 19  1  0
 12 13  2  0
 14 15  1  0
 16 17  1  0
 16 15  1  0
 18 20  1  0
 18 17  1  1
 19 18  1  0
 20 21  1  0
 22 20  2  0
M  END
$$$$
