SVM.pdb
     RDKit          3D

 22 21  0  0  1  0  0  0  0  0999 V2000
    6.3042  -20.0791   21.7633 O   0  0  0  0  0  0  0  0  0  0  0  0
    7.1223  -18.9404   21.9413 C   0  0  0  0  0  0  0  0  0  0  0  0
    7.3256  -18.3202   20.5755 C   0  0  2  0  0  0  0  0  0  0  0  0
    8.0595  -19.2569   19.7369 N   0  0  0  0  0  0  0  0  0  0  0  0
    8.1217  -17.0736   20.6547 C   0  0  0  0  0  0  0  0  0  0  0  0
    9.3683  -17.0686   20.5443 O   0  0  0  0  0  0  0  0  0  0  0  0
    6.9548  -13.4639   19.1089 C   0  0  0  0  0  0  0  0  0  0  0  0
    7.3751  -13.4098   20.5308 C   0  0  2  0  0  0  0  0  0  0  0  0
    8.1746  -12.1881   20.8929 C   0  0  0  0  0  0  0  0  0  0  0  0
    8.2149  -14.6213   20.9556 C   0  0  2  0  0  0  0  0  0  0  0  0
    7.4684  -15.8372   20.8616 N   0  0  0  0  0  0  0  0  0  0  0  0
    8.7879  -14.3974   22.3139 C   0  0  0  0  0  0  0  0  0  0  0  0
    9.6399  -13.4952   22.5142 O   0  0  0  0  0  0  0  0  0  0  0  0
    6.0669  -10.9712   26.3582 C   0  0  0  0  0  0  0  0  0  0  0  0
    6.4669  -12.3737   27.3475 S   0  0  0  0  0  0  0  0  0  0  0  0
    7.7100  -13.5117   26.7653 C   0  0  0  0  0  0  0  0  0  0  0  0
    7.5256  -13.9302   25.3443 C   0  0  0  0  0  0  0  0  0  0  0  0
    8.6352  -14.7357   24.8198 C   0  0  2  0  0  0  0  0  0  0  0  0
    8.4112  -15.1758   23.4367 N   0  0  0  0  0  0  0  0  0  0  0  0
    8.9483  -15.9140   25.6082 C   0  0  0  0  0  0  0  0  0  0  0  0
    8.9515  -17.1815   25.1035 O   0  0  0  0  0  0  0  0  0  0  0  0
    9.2392  -15.7834   26.8396 O   0  0  0  0  0  0  0  0  0  0  0  0
  2  1  1  0
  2  3  1  0
  3  4  1  6
  5 11  1  0
  5  3  1  0
  6  5  2  0
  8  7  1  6
  8 10  1  0
  9  8  1  0
 10 11  1  1
 10 12  1  0
 12 19  1  0
 12 13  2  0
 14 15  1  0
 16 17  1  0
 16 15  1  0
 18 20  1  0
 18 17  1  1
 19 18  1  0
 20 21  1  0
 22 20  2  0
M  END
$$$$
