SVM.pdb
     RDKit          3D

 22 21  0  0  1  0  0  0  0  0999 V2000
    7.9966  -18.7537   21.7037 O   0  0  0  0  0  0  0  0  0  0  0  0
    8.8338  -19.1619   20.6407 C   0  0  0  0  0  0  0  0  0  0  0  0
    8.6959  -18.1285   19.5431 C   0  0  2  0  0  0  0  0  0  0  0  0
    9.5555  -18.5050   18.4303 N   0  0  0  0  0  0  0  0  0  0  0  0
    9.1209  -16.7855   20.0010 C   0  0  0  0  0  0  0  0  0  0  0  0
   10.3189  -16.4237   19.9898 O   0  0  0  0  0  0  0  0  0  0  0  0
    7.4048  -13.3948   18.9347 C   0  0  0  0  0  0  0  0  0  0  0  0
    7.5037  -13.5039   20.4111 C   0  0  2  0  0  0  0  0  0  0  0  0
    7.8633  -12.2176   21.1032 C   0  0  0  0  0  0  0  0  0  0  0  0
    8.5315  -14.5466   20.8689 C   0  0  2  0  0  0  0  0  0  0  0  0
    8.1542  -15.8668   20.4701 N   0  0  0  0  0  0  0  0  0  0  0  0
    8.7618  -14.4293   22.3375 C   0  0  0  0  0  0  0  0  0  0  0  0
    9.0721  -13.3270   22.8561 O   0  0  0  0  0  0  0  0  0  0  0  0
    6.6455  -10.9593   27.3593 C   0  0  0  0  0  0  0  0  0  0  0  0
    6.3918  -12.5553   26.6562 S   0  0  0  0  0  0  0  0  0  0  0  0
    7.6286  -13.2181   25.5561 C   0  0  0  0  0  0  0  0  0  0  0  0
    7.2746  -14.5509   24.9845 C   0  0  0  0  0  0  0  0  0  0  0  0
    8.4415  -15.3816   24.6630 C   0  0  2  0  0  0  0  0  0  0  0  0
    8.6466  -15.5347   23.2168 N   0  0  0  0  0  0  0  0  0  0  0  0
    8.4110  -16.7121   25.2435 C   0  0  0  0  0  0  0  0  0  0  0  0
    8.8411  -16.9949   26.5069 O   0  0  0  0  0  0  0  0  0  0  0  0
    7.9627  -17.6841   24.5562 O   0  0  0  0  0  0  0  0  0  0  0  0
  2  1  1  0
  2  3  1  0
  3  4  1  6
  5 11  1  0
  5  3  1  0
  6  5  2  0
  8  7  1  6
  8 10  1  0
  9  8  1  0
 10 11  1  1
 10 12  1  0
 12 19  1  0
 12 13  2  0
 14 15  1  0
 16 17  1  0
 16 15  1  0
 18 20  1  0
 18 17  1  6
 19 18  1  0
 20 21  1  0
 22 20  2  0
M  END
$$$$
