CMC.pdb
     RDKit          3D

 21 20  0  0  1  0  0  0  0  0999 V2000
    7.4825  -17.1007   21.0784 N   0  0  0  0  0  0  0  0  0  0  0  0
    8.7488  -16.4094   20.9863 C   0  0  1  0  0  0  0  0  0  0  0  0
    8.7575  -15.4012   19.8616 C   0  0  0  0  0  0  0  0  0  0  0  0
   10.4402  -14.7661   19.6328 S   0  0  0  0  0  0  0  0  0  0  0  0
    9.0185  -15.7374   22.2841 C   0  0  0  0  0  0  0  0  0  0  0  0
   10.1428  -15.2294   22.5572 O   0  0  0  0  0  0  0  0  0  0  0  0
    6.4247  -11.1966   26.0816 C   0  0  0  0  0  0  0  0  0  0  0  0
    7.5606  -12.4996   26.6469 S   0  0  0  0  0  0  0  0  0  0  0  0
    6.7660  -14.1381   26.4596 C   0  0  0  0  0  0  0  0  0  0  0  0
    6.8759  -14.6148   25.0540 C   0  0  0  0  0  0  0  0  0  0  0  0
    8.2406  -14.9650   24.5657 C   0  0  2  0  0  0  0  0  0  0  0  0
    8.0198  -15.6389   23.2731 N   0  0  0  0  0  0  0  0  0  0  0  0
    9.0136  -15.8767   25.4040 C   0  0  0  0  0  0  0  0  0  0  0  0
    8.5913  -17.0814   25.5280 O   0  0  0  0  0  0  0  0  0  0  0  0
   10.1980  -15.5779   26.1071 N   0  0  0  0  0  0  0  0  0  0  0  0
   10.9276  -16.6248   26.7932 C   0  0  1  0  0  0  0  0  0  0  0  0
   12.4185  -16.5236   26.5562 C   0  0  0  0  0  0  0  0  0  0  0  0
   12.8138  -14.7327   26.5542 S   0  0  0  0  0  0  0  0  0  0  0  0
   10.7002  -16.5368   28.2584 C   0  0  0  0  0  0  0  0  0  0  0  0
   11.2762  -17.4748   29.0771 O   0  0  0  0  0  0  0  0  0  0  0  0
    9.9884  -15.6114   28.7265 O   0  0  0  0  0  0  0  0  0  0  0  0
  2  1  1  1
  2  5  1  0
  3  2  1  0
  3  4  1  0
  5  6  2  0
  7  8  1  0
  9 10  1  0
  9  8  1  0
 11 10  1  1
 11 13  1  0
 12 11  1  0
 12  5  1  0
 13 14  2  0
 13 15  1  0
 15 16  1  0
 16 19  1  0
 16 17  1  1
 18 17  1  0
 19 21  2  0
 19 20  1  0
M  END
$$$$
