CMC.pdb
     RDKit          3D

 21 20  0  0  1  0  0  0  0  0999 V2000
    4.8913  -19.3265   22.2782 N   0  0  0  0  0  0  0  0  0  0  0  0
    5.3818  -19.0708   23.6139 C   0  0  1  0  0  0  0  0  0  0  0  0
    6.0918  -20.2725   24.1909 C   0  0  0  0  0  0  0  0  0  0  0  0
    6.3080  -21.5249   22.8977 S   0  0  0  0  0  0  0  0  0  0  0  0
    6.2990  -17.9024   23.5673 C   0  0  0  0  0  0  0  0  0  0  0  0
    6.9610  -17.6084   22.5319 O   0  0  0  0  0  0  0  0  0  0  0  0
    6.2042  -11.4295   25.4574 C   0  0  0  0  0  0  0  0  0  0  0  0
    6.7341  -12.5043   26.8254 S   0  0  0  0  0  0  0  0  0  0  0  0
    7.7491  -13.8813   26.1738 C   0  0  0  0  0  0  0  0  0  0  0  0
    6.8857  -15.0310   25.7898 C   0  0  0  0  0  0  0  0  0  0  0  0
    7.3797  -15.9069   24.6887 C   0  0  2  0  0  0  0  0  0  0  0  0
    6.4690  -17.0665   24.6886 N   0  0  0  0  0  0  0  0  0  0  0  0
    8.7382  -16.4220   24.8318 C   0  0  0  0  0  0  0  0  0  0  0  0
    8.9393  -17.3533   25.6905 O   0  0  0  0  0  0  0  0  0  0  0  0
    9.8790  -16.0045   24.1171 N   0  0  0  0  0  0  0  0  0  0  0  0
   11.1378  -16.7051   24.2709 C   0  0  1  0  0  0  0  0  0  0  0  0
   12.2098  -16.1483   23.3597 C   0  0  0  0  0  0  0  0  0  0  0  0
   13.6628  -17.2512   23.5490 S   0  0  0  0  0  0  0  0  0  0  0  0
   11.6291  -16.5824   25.6672 C   0  0  0  0  0  0  0  0  0  0  0  0
   11.5784  -15.3578   26.2835 O   0  0  0  0  0  0  0  0  0  0  0  0
   12.0819  -17.5939   26.2623 O   0  0  0  0  0  0  0  0  0  0  0  0
  2  1  1  6
  2  5  1  0
  3  2  1  0
  3  4  1  0
  5  6  2  0
  7  8  1  0
  9 10  1  0
  9  8  1  0
 11 10  1  1
 11 13  1  0
 12 11  1  0
 12  5  1  0
 13 14  2  0
 13 15  1  0
 15 16  1  0
 16 19  1  0
 16 17  1  6
 18 17  1  0
 19 21  2  0
 19 20  1  0
M  END
$$$$
