CMC.pdb
     RDKit          3D

 21 20  0  0  1  0  0  0  0  0999 V2000
    8.5151  -15.1023   19.3325 N   0  0  0  0  0  0  0  0  0  0  0  0
    7.5182  -15.2502   20.3690 C   0  0  1  0  0  0  0  0  0  0  0  0
    6.9065  -16.6312   20.3667 C   0  0  0  0  0  0  0  0  0  0  0  0
    8.2032  -17.8666   20.6492 S   0  0  0  0  0  0  0  0  0  0  0  0
    8.1537  -14.9692   21.6827 C   0  0  0  0  0  0  0  0  0  0  0  0
    9.4083  -14.9540   21.8330 O   0  0  0  0  0  0  0  0  0  0  0  0
    7.6661  -10.8336   27.1099 C   0  0  0  0  0  0  0  0  0  0  0  0
    6.3743  -12.1094   27.0050 S   0  0  0  0  0  0  0  0  0  0  0  0
    7.1029  -13.6814   26.4142 C   0  0  0  0  0  0  0  0  0  0  0  0
    6.8567  -13.8566   24.9570 C   0  0  0  0  0  0  0  0  0  0  0  0
    7.9637  -14.4490   24.1527 C   0  0  2  0  0  0  0  0  0  0  0  0
    7.3737  -14.7057   22.8260 N   0  0  0  0  0  0  0  0  0  0  0  0
    8.5104  -15.7133   24.6366 C   0  0  0  0  0  0  0  0  0  0  0  0
    7.8183  -16.7768   24.4494 O   0  0  0  0  0  0  0  0  0  0  0  0
    9.7397  -15.9029   25.2995 N   0  0  0  0  0  0  0  0  0  0  0  0
   10.1593  -17.2304   25.7007 C   0  0  1  0  0  0  0  0  0  0  0  0
   11.5985  -17.5064   25.3238 C   0  0  0  0  0  0  0  0  0  0  0  0
   12.0375  -19.0987   26.1209 S   0  0  0  0  0  0  0  0  0  0  0  0
   10.0449  -17.3842   27.1736 C   0  0  0  0  0  0  0  0  0  0  0  0
   10.2673  -18.6176   27.7315 O   0  0  0  0  0  0  0  0  0  0  0  0
    9.7478  -16.3903   27.8852 O   0  0  0  0  0  0  0  0  0  0  0  0
  2  1  1  6
  2  5  1  0
  3  2  1  0
  3  4  1  0
  5  6  2  0
  7  8  1  0
  9 10  1  0
  9  8  1  0
 11 10  1  1
 11 13  1  0
 12 11  1  0
 12  5  1  0
 13 14  2  0
 13 15  1  0
 15 16  1  0
 16 19  1  0
 16 17  1  1
 18 17  1  0
 19 21  2  0
 19 20  1  0
M  END
$$$$
