CMC.pdb
     RDKit          3D

 21 20  0  0  1  0  0  0  0  0999 V2000
    7.5143  -15.2776   19.2504 N   0  0  0  0  0  0  0  0  0  0  0  0
    6.7727  -15.2242   20.4902 C   0  0  1  0  0  0  0  0  0  0  0  0
    5.9906  -16.4935   20.7317 C   0  0  0  0  0  0  0  0  0  0  0  0
    7.1395  -17.8809   20.9382 S   0  0  0  0  0  0  0  0  0  0  0  0
    7.7269  -14.9858   21.6044 C   0  0  0  0  0  0  0  0  0  0  0  0
    8.9711  -15.1627   21.4733 O   0  0  0  0  0  0  0  0  0  0  0  0
    5.2831  -12.1212   26.7424 C   0  0  0  0  0  0  0  0  0  0  0  0
    7.0260  -11.6825   27.0207 S   0  0  0  0  0  0  0  0  0  0  0  0
    8.1091  -12.8261   26.0880 C   0  0  0  0  0  0  0  0  0  0  0  0
    7.4377  -13.2810   24.8401 C   0  0  0  0  0  0  0  0  0  0  0  0
    8.1954  -14.2296   23.9742 C   0  0  2  0  0  0  0  0  0  0  0  0
    7.2769  -14.5480   22.8657 N   0  0  0  0  0  0  0  0  0  0  0  0
    8.5884  -15.4941   24.5891 C   0  0  0  0  0  0  0  0  0  0  0  0
    7.6941  -16.4053   24.7111 O   0  0  0  0  0  0  0  0  0  0  0  0
    9.8671  -15.8358   25.0735 N   0  0  0  0  0  0  0  0  0  0  0  0
   10.1250  -17.1653   25.5884 C   0  0  1  0  0  0  0  0  0  0  0  0
   11.4032  -17.7503   25.0285 C   0  0  0  0  0  0  0  0  0  0  0  0
   11.2086  -17.7481   23.2049 S   0  0  0  0  0  0  0  0  0  0  0  0
   10.2598  -17.1283   27.0672 C   0  0  0  0  0  0  0  0  0  0  0  0
   10.5199  -18.2956   27.7394 O   0  0  0  0  0  0  0  0  0  0  0  0
   10.1347  -16.0368   27.6797 O   0  0  0  0  0  0  0  0  0  0  0  0
  2  1  1  6
  2  5  1  0
  3  2  1  0
  3  4  1  0
  5  6  2  0
  7  8  1  0
  9 10  1  0
  9  8  1  0
 11 10  1  1
 11 13  1  0
 12 11  1  0
 12  5  1  0
 13 14  2  0
 13 15  1  0
 15 16  1  0
 16 19  1  0
 16 17  1  6
 18 17  1  0
 19 21  2  0
 19 20  1  0
M  END
$$$$
