CMC.pdb
     RDKit          3D

 21 20  0  0  1  0  0  0  0  0999 V2000
   -0.5277  -25.8681   27.1396 N   0  0  0  0  0  0  0  0  0  0  0  0
   -1.9549  -25.9873   26.9424 C   0  0  1  0  0  0  0  0  0  0  0  0
   -2.6170  -26.7392   28.0727 C   0  0  0  0  0  0  0  0  0  0  0  0
   -2.2319  -25.9256   29.6466 S   0  0  0  0  0  0  0  0  0  0  0  0
   -2.5331  -24.6236   26.8209 C   0  0  0  0  0  0  0  0  0  0  0  0
   -1.9371  -23.5994   27.2596 O   0  0  0  0  0  0  0  0  0  0  0  0
   -3.8981  -18.6549   23.5356 C   0  0  0  0  0  0  0  0  0  0  0  0
   -3.2971  -20.2971   24.0353 S   0  0  0  0  0  0  0  0  0  0  0  0
   -4.6876  -21.4875   24.0497 C   0  0  0  0  0  0  0  0  0  0  0  0
   -4.2329  -22.8167   24.5409 C   0  0  0  0  0  0  0  0  0  0  0  0
   -4.3608  -23.0746   26.0040 C   0  0  2  0  0  0  0  0  0  0  0  0
   -3.7830  -24.4162   26.2048 N   0  0  0  0  0  0  0  0  0  0  0  0
   -5.7186  -23.1022   26.5398 C   0  0  0  0  0  0  0  0  0  0  0  0
   -6.4814  -24.0726   26.1914 O   0  0  0  0  0  0  0  0  0  0  0  0
   -6.2993  -22.1640   27.4169 N   0  0  0  0  0  0  0  0  0  0  0  0
   -7.6720  -22.3199   27.8532 C   0  0  1  0  0  0  0  0  0  0  0  0
   -7.9102  -21.6876   29.2071 C   0  0  0  0  0  0  0  0  0  0  0  0
   -6.9516  -22.6853   30.4110 S   0  0  0  0  0  0  0  0  0  0  0  0
   -8.5966  -21.6723   26.8879 C   0  0  0  0  0  0  0  0  0  0  0  0
   -9.9469  -21.8719   27.0259 O   0  0  0  0  0  0  0  0  0  0  0  0
   -8.1344  -20.9552   25.9636 O   0  0  0  0  0  0  0  0  0  0  0  0
  2  1  1  1
  2  5  1  0
  3  2  1  0
  3  4  1  0
  5  6  2  0
  7  8  1  0
  9 10  1  0
  9  8  1  0
 11 10  1  6
 11 13  1  0
 12 11  1  0
 12  5  1  0
 13 14  2  0
 13 15  1  0
 15 16  1  0
 16 19  1  0
 16 17  1  1
 18 17  1  0
 19 21  2  0
 19 20  1  0
M  END
$$$$
