CMC.pdb
     RDKit          3D

 21 20  0  0  1  0  0  0  0  0999 V2000
    8.1427  -16.0173   19.7604 N   0  0  0  0  0  0  0  0  0  0  0  0
    7.6174  -16.6115   20.9691 C   0  0  1  0  0  0  0  0  0  0  0  0
    7.8659  -18.1006   21.0165 C   0  0  0  0  0  0  0  0  0  0  0  0
    6.5603  -18.9604   20.0981 S   0  0  0  0  0  0  0  0  0  0  0  0
    8.2478  -15.9454   22.1386 C   0  0  0  0  0  0  0  0  0  0  0  0
    9.3771  -15.3835   22.0640 O   0  0  0  0  0  0  0  0  0  0  0  0
    7.2394  -11.2657   25.7698 C   0  0  0  0  0  0  0  0  0  0  0  0
    6.4645  -12.4972   26.8609 S   0  0  0  0  0  0  0  0  0  0  0  0
    7.2962  -14.1152   26.6578 C   0  0  0  0  0  0  0  0  0  0  0  0
    7.0281  -14.6747   25.3051 C   0  0  0  0  0  0  0  0  0  0  0  0
    8.1902  -15.2557   24.5734 C   0  0  2  0  0  0  0  0  0  0  0  0
    7.6039  -15.9137   23.3913 N   0  0  0  0  0  0  0  0  0  0  0  0
    8.9680  -16.2625   25.2895 C   0  0  0  0  0  0  0  0  0  0  0  0
    8.3810  -17.3564   25.6120 O   0  0  0  0  0  0  0  0  0  0  0  0
   10.3207  -16.1682   25.6741 N   0  0  0  0  0  0  0  0  0  0  0  0
   10.9748  -17.2801   26.3335 C   0  0  1  0  0  0  0  0  0  0  0  0
   12.4822  -17.1579   26.2863 C   0  0  0  0  0  0  0  0  0  0  0  0
   12.9204  -16.9349   24.5195 S   0  0  0  0  0  0  0  0  0  0  0  0
   10.5750  -17.3396   27.7627 C   0  0  0  0  0  0  0  0  0  0  0  0
   11.1160  -18.3135   28.5634 O   0  0  0  0  0  0  0  0  0  0  0  0
    9.7524  -16.5038   28.2176 O   0  0  0  0  0  0  0  0  0  0  0  0
  2  1  1  6
  2  5  1  0
  3  2  1  0
  3  4  1  0
  5  6  2  0
  7  8  1  0
  9 10  1  0
  9  8  1  0
 11 10  1  1
 11 13  1  0
 12 11  1  0
 12  5  1  0
 13 14  2  0
 13 15  1  0
 15 16  1  0
 16 19  1  0
 16 17  1  1
 18 17  1  0
 19 21  2  0
 19 20  1  0
M  END
$$$$
