CMC.pdb
     RDKit          3D

 21 20  0  0  1  0  0  0  0  0999 V2000
    8.3915  -15.4600   19.3898 N   0  0  0  0  0  0  0  0  0  0  0  0
    7.5444  -15.6779   20.5408 C   0  0  1  0  0  0  0  0  0  0  0  0
    7.0505  -17.1035   20.6126 C   0  0  0  0  0  0  0  0  0  0  0  0
    8.4684  -18.2306   20.6935 S   0  0  0  0  0  0  0  0  0  0  0  0
    8.3114  -15.3349   21.7667 C   0  0  0  0  0  0  0  0  0  0  0  0
    9.5611  -15.1491   21.7476 O   0  0  0  0  0  0  0  0  0  0  0  0
    6.1948  -11.1000   26.3220 C   0  0  0  0  0  0  0  0  0  0  0  0
    6.4221  -12.6729   27.2062 S   0  0  0  0  0  0  0  0  0  0  0  0
    7.7582  -13.6414   26.4138 C   0  0  0  0  0  0  0  0  0  0  0  0
    7.3728  -14.0287   25.0295 C   0  0  0  0  0  0  0  0  0  0  0  0
    8.3794  -14.7930   24.2383 C   0  0  2  0  0  0  0  0  0  0  0  0
    7.6682  -15.2018   23.0131 N   0  0  0  0  0  0  0  0  0  0  0  0
    8.9058  -16.0049   24.8594 C   0  0  0  0  0  0  0  0  0  0  0  0
    8.1464  -17.0378   24.8978 O   0  0  0  0  0  0  0  0  0  0  0  0
   10.1821  -16.1735   25.4331 N   0  0  0  0  0  0  0  0  0  0  0  0
   10.5877  -17.4636   25.9531 C   0  0  1  0  0  0  0  0  0  0  0  0
   12.0487  -17.7486   25.6816 C   0  0  0  0  0  0  0  0  0  0  0  0
   12.2433  -17.7193   23.8582 S   0  0  0  0  0  0  0  0  0  0  0  0
   10.3879  -17.5126   27.4241 C   0  0  0  0  0  0  0  0  0  0  0  0
   10.7307  -18.6545   28.1028 O   0  0  0  0  0  0  0  0  0  0  0  0
    9.9108  -16.5154   28.0242 O   0  0  0  0  0  0  0  0  0  0  0  0
  2  1  1  6
  2  5  1  0
  3  2  1  0
  3  4  1  0
  5  6  2  0
  7  8  1  0
  9 10  1  0
  9  8  1  0
 11 10  1  1
 11 13  1  0
 12 11  1  0
 12  5  1  0
 13 14  2  0
 13 15  1  0
 15 16  1  0
 16 19  1  0
 16 17  1  1
 18 17  1  0
 19 21  2  0
 19 20  1  0
M  END
$$$$
