CMC.pdb
     RDKit          3D

 21 20  0  0  1  0  0  0  0  0999 V2000
    8.9087  -15.1303   19.5723 N   0  0  0  0  0  0  0  0  0  0  0  0
    8.3293  -15.9220   20.6342 C   0  0  1  0  0  0  0  0  0  0  0  0
    8.7685  -17.3653   20.5622 C   0  0  0  0  0  0  0  0  0  0  0  0
    9.9512  -17.5697   19.2032 S   0  0  0  0  0  0  0  0  0  0  0  0
    8.7219  -15.3272   21.9383 C   0  0  0  0  0  0  0  0  0  0  0  0
    9.7260  -14.5692   22.0563 O   0  0  0  0  0  0  0  0  0  0  0  0
    6.7085  -11.1612   27.3696 C   0  0  0  0  0  0  0  0  0  0  0  0
    6.5551  -12.1132   25.8276 S   0  0  0  0  0  0  0  0  0  0  0  0
    6.6756  -13.9034   26.1903 C   0  0  0  0  0  0  0  0  0  0  0  0
    6.8002  -14.6850   24.9300 C   0  0  0  0  0  0  0  0  0  0  0  0
    8.1696  -14.8274   24.3575 C   0  0  2  0  0  0  0  0  0  0  0  0
    7.9817  -15.5879   23.1084 N   0  0  0  0  0  0  0  0  0  0  0  0
    9.1376  -15.5590   25.1696 C   0  0  0  0  0  0  0  0  0  0  0  0
    9.2367  -16.8250   24.9893 O   0  0  0  0  0  0  0  0  0  0  0  0
    9.9954  -15.0207   26.1498 N   0  0  0  0  0  0  0  0  0  0  0  0
   10.9019  -15.8807   26.8831 C   0  0  1  0  0  0  0  0  0  0  0  0
   11.7125  -15.1099   27.9021 C   0  0  0  0  0  0  0  0  0  0  0  0
   10.5060  -14.1374   28.8829 S   0  0  0  0  0  0  0  0  0  0  0  0
   10.1422  -16.9269   27.6142 C   0  0  0  0  0  0  0  0  0  0  0  0
   10.8334  -17.9253   28.2524 O   0  0  0  0  0  0  0  0  0  0  0  0
    8.8853  -16.8850   27.6389 O   0  0  0  0  0  0  0  0  0  0  0  0
  2  1  1  6
  2  5  1  0
  3  2  1  0
  3  4  1  0
  5  6  2  0
  7  8  1  0
  9 10  1  0
  9  8  1  0
 11 10  1  1
 11 13  1  0
 12 11  1  0
 12  5  1  0
 13 14  2  0
 13 15  1  0
 15 16  1  0
 16 19  1  0
 16 17  1  1
 18 17  1  0
 19 21  2  0
 19 20  1  0
M  END
$$$$
