CMC.pdb
     RDKit          3D

 21 20  0  0  1  0  0  0  0  0999 V2000
    8.2330  -13.1568   19.1148 N   0  0  0  0  0  0  0  0  0  0  0  0
    7.6992  -14.2407   19.9087 C   0  0  1  0  0  0  0  0  0  0  0  0
    8.0563  -15.5893   19.3299 C   0  0  0  0  0  0  0  0  0  0  0  0
    6.8591  -16.0297   18.0414 S   0  0  0  0  0  0  0  0  0  0  0  0
    8.2240  -14.1180   21.2937 C   0  0  0  0  0  0  0  0  0  0  0  0
    9.4060  -13.7412   21.5338 O   0  0  0  0  0  0  0  0  0  0  0  0
    7.6841  -11.6449   27.8745 C   0  0  0  0  0  0  0  0  0  0  0  0
    6.4044  -12.1551   26.6873 S   0  0  0  0  0  0  0  0  0  0  0  0
    6.7851  -13.8271   26.0466 C   0  0  0  0  0  0  0  0  0  0  0  0
    6.6651  -13.8585   24.5636 C   0  0  0  0  0  0  0  0  0  0  0  0
    7.8793  -14.2610   23.7974 C   0  0  2  0  0  0  0  0  0  0  0  0
    7.4152  -14.4204   22.4070 N   0  0  0  0  0  0  0  0  0  0  0  0
    8.5064  -15.5188   24.1926 C   0  0  0  0  0  0  0  0  0  0  0  0
    7.9035  -16.6102   23.8916 O   0  0  0  0  0  0  0  0  0  0  0  0
    9.7263  -15.6742   24.8812 N   0  0  0  0  0  0  0  0  0  0  0  0
   10.2294  -16.9968   25.1923 C   0  0  1  0  0  0  0  0  0  0  0  0
   11.6807  -17.1573   24.7956 C   0  0  0  0  0  0  0  0  0  0  0  0
   12.1090  -18.9094   25.1279 S   0  0  0  0  0  0  0  0  0  0  0  0
   10.1331  -17.2550   26.6518 C   0  0  0  0  0  0  0  0  0  0  0  0
   10.4778  -18.4934   27.1310 O   0  0  0  0  0  0  0  0  0  0  0  0
    9.7398  -16.3431   27.4238 O   0  0  0  0  0  0  0  0  0  0  0  0
  2  1  1  6
  2  5  1  0
  3  2  1  0
  3  4  1  0
  5  6  2  0
  7  8  1  0
  9 10  1  0
  9  8  1  0
 11 10  1  1
 11 13  1  0
 12 11  1  0
 12  5  1  0
 13 14  2  0
 13 15  1  0
 15 16  1  0
 16 19  1  0
 16 17  1  1
 18 17  1  0
 19 21  2  0
 19 20  1  0
M  END
$$$$
