CMC.pdb
     RDKit          3D

 21 20  0  0  1  0  0  0  0  0999 V2000
   10.5246  -15.5611   20.2537 N   0  0  0  0  0  0  0  0  0  0  0  0
    9.8196  -16.3838   21.2108 C   0  0  1  0  0  0  0  0  0  0  0  0
   10.4735  -17.7348   21.3792 C   0  0  0  0  0  0  0  0  0  0  0  0
    9.9502  -18.8311   20.0331 S   0  0  0  0  0  0  0  0  0  0  0  0
    9.7746  -15.6663   22.5116 C   0  0  0  0  0  0  0  0  0  0  0  0
   10.6861  -14.8685   22.8711 O   0  0  0  0  0  0  0  0  0  0  0  0
    5.9047  -11.4870   25.8427 C   0  0  0  0  0  0  0  0  0  0  0  0
    7.2719  -12.6310   26.2026 S   0  0  0  0  0  0  0  0  0  0  0  0
    6.6605  -14.3562   26.1712 C   0  0  0  0  0  0  0  0  0  0  0  0
    7.0986  -15.0435   24.9261 C   0  0  0  0  0  0  0  0  0  0  0  0
    8.5647  -15.0801   24.6563 C   0  0  2  0  0  0  0  0  0  0  0  0
    8.7014  -15.8494   23.4060 N   0  0  0  0  0  0  0  0  0  0  0  0
    9.3916  -15.7383   25.6635 C   0  0  0  0  0  0  0  0  0  0  0  0
    9.7187  -16.9625   25.4645 O   0  0  0  0  0  0  0  0  0  0  0  0
    9.8837  -15.1690   26.8553 N   0  0  0  0  0  0  0  0  0  0  0  0
   10.8448  -15.8862   27.6683 C   0  0  1  0  0  0  0  0  0  0  0  0
   11.2148  -15.1165   28.9173 C   0  0  0  0  0  0  0  0  0  0  0  0
   10.4826  -13.4464   28.7224 S   0  0  0  0  0  0  0  0  0  0  0  0
   10.2840  -17.1930   28.0975 C   0  0  0  0  0  0  0  0  0  0  0  0
   11.0546  -18.0246   28.8699 O   0  0  0  0  0  0  0  0  0  0  0  0
    9.1196  -17.5184   27.7503 O   0  0  0  0  0  0  0  0  0  0  0  0
  2  1  1  6
  2  5  1  0
  3  2  1  0
  3  4  1  0
  5  6  2  0
  7  8  1  0
  9 10  1  0
  9  8  1  0
 11 10  1  1
 11 13  1  0
 12 11  1  0
 12  5  1  0
 13 14  2  0
 13 15  1  0
 15 16  1  0
 16 19  1  0
 16 17  1  1
 18 17  1  0
 19 21  2  0
 19 20  1  0
M  END
$$$$
