CMC.pdb
     RDKit          3D

 21 20  0  0  1  0  0  0  0  0999 V2000
    6.7659  -16.6585   20.5301 N   0  0  0  0  0  0  0  0  0  0  0  0
    8.1538  -16.2806   20.3850 C   0  0  1  0  0  0  0  0  0  0  0  0
    8.3540  -15.3040   19.2503 C   0  0  0  0  0  0  0  0  0  0  0  0
   10.1284  -15.0461   18.9812 S   0  0  0  0  0  0  0  0  0  0  0  0
    8.6208  -15.6875   21.6651 C   0  0  0  0  0  0  0  0  0  0  0  0
    9.8376  -15.4218   21.8784 O   0  0  0  0  0  0  0  0  0  0  0  0
    6.8226  -11.4037   27.8566 C   0  0  0  0  0  0  0  0  0  0  0  0
    6.6848  -11.9121   26.1159 S   0  0  0  0  0  0  0  0  0  0  0  0
    7.0217  -13.7052   25.9658 C   0  0  0  0  0  0  0  0  0  0  0  0
    6.9694  -14.1295   24.5403 C   0  0  0  0  0  0  0  0  0  0  0  0
    8.1459  -14.8815   24.0172 C   0  0  2  0  0  0  0  0  0  0  0  0
    7.7150  -15.3944   22.7037 N   0  0  0  0  0  0  0  0  0  0  0  0
    8.5849  -16.0276   24.8079 C   0  0  0  0  0  0  0  0  0  0  0  0
    7.8784  -17.0969   24.7578 O   0  0  0  0  0  0  0  0  0  0  0  0
    9.7225  -16.0951   25.6373 N   0  0  0  0  0  0  0  0  0  0  0  0
   10.2035  -17.3738   26.1198 C   0  0  1  0  0  0  0  0  0  0  0  0
   11.2954  -17.9369   25.2366 C   0  0  0  0  0  0  0  0  0  0  0  0
   11.8664  -19.4773   26.0518 S   0  0  0  0  0  0  0  0  0  0  0  0
   10.7634  -17.2312   27.4881 C   0  0  0  0  0  0  0  0  0  0  0  0
   10.8816  -15.9763   28.0295 O   0  0  0  0  0  0  0  0  0  0  0  0
   11.1195  -18.2539   28.1280 O   0  0  0  0  0  0  0  0  0  0  0  0
  2  1  1  1
  2  5  1  0
  3  2  1  0
  3  4  1  0
  5  6  2  0
  7  8  1  0
  9 10  1  0
  9  8  1  0
 11 10  1  1
 11 13  1  0
 12 11  1  0
 12  5  1  0
 13 14  2  0
 13 15  1  0
 15 16  1  0
 16 19  1  0
 16 17  1  6
 18 17  1  0
 19 21  2  0
 19 20  1  0
M  END
$$$$
