CMC.pdb
     RDKit          3D

 21 20  0  0  1  0  0  0  0  0999 V2000
    8.4743  -17.4363   21.1201 N   0  0  0  0  0  0  0  0  0  0  0  0
    9.7133  -16.6918   21.1406 C   0  0  1  0  0  0  0  0  0  0  0  0
    9.8487  -15.7937   19.9338 C   0  0  0  0  0  0  0  0  0  0  0  0
    9.1372  -16.6183   18.4843 S   0  0  0  0  0  0  0  0  0  0  0  0
    9.7642  -15.8888   22.3901 C   0  0  0  0  0  0  0  0  0  0  0  0
   10.7114  -15.0899   22.6377 O   0  0  0  0  0  0  0  0  0  0  0  0
    6.9966  -11.4628   26.1950 C   0  0  0  0  0  0  0  0  0  0  0  0
    5.9654  -12.9544   26.0564 S   0  0  0  0  0  0  0  0  0  0  0  0
    6.9998  -14.4464   26.2908 C   0  0  0  0  0  0  0  0  0  0  0  0
    7.3024  -15.0839   24.9804 C   0  0  0  0  0  0  0  0  0  0  0  0
    8.7392  -15.1807   24.5936 C   0  0  2  0  0  0  0  0  0  0  0  0
    8.7465  -15.9874   23.3595 N   0  0  0  0  0  0  0  0  0  0  0  0
    9.6235  -15.8414   25.5492 C   0  0  0  0  0  0  0  0  0  0  0  0
    9.7766  -17.1107   25.4464 O   0  0  0  0  0  0  0  0  0  0  0  0
   10.3451  -15.2300   26.5941 N   0  0  0  0  0  0  0  0  0  0  0  0
   11.1564  -16.0286   27.4902 C   0  0  1  0  0  0  0  0  0  0  0  0
   11.7967  -15.1883   28.5735 C   0  0  0  0  0  0  0  0  0  0  0  0
   10.4697  -14.1059   29.2300 S   0  0  0  0  0  0  0  0  0  0  0  0
   10.3234  -17.0610   28.1583 C   0  0  0  0  0  0  0  0  0  0  0  0
   10.9412  -18.0285   28.9094 O   0  0  0  0  0  0  0  0  0  0  0  0
    9.0725  -17.0359   28.0280 O   0  0  0  0  0  0  0  0  0  0  0  0
  2  1  1  6
  2  5  1  0
  3  2  1  0
  3  4  1  0
  5  6  2  0
  7  8  1  0
  9 10  1  0
  9  8  1  0
 11 10  1  1
 11 13  1  0
 12 11  1  0
 12  5  1  0
 13 14  2  0
 13 15  1  0
 15 16  1  0
 16 19  1  0
 16 17  1  1
 18 17  1  0
 19 21  2  0
 19 20  1  0
M  END
$$$$
