CMC.pdb
     RDKit          3D

 21 20  0  0  1  0  0  0  0  0999 V2000
    7.4346  -14.2588   19.8578 N   0  0  0  0  0  0  0  0  0  0  0  0
    6.7122  -14.9142   20.9248 C   0  0  1  0  0  0  0  0  0  0  0  0
    6.4728  -16.3752   20.6260 C   0  0  0  0  0  0  0  0  0  0  0  0
    8.0640  -17.2364   20.5087 S   0  0  0  0  0  0  0  0  0  0  0  0
    7.4869  -14.7650   22.1843 C   0  0  0  0  0  0  0  0  0  0  0  0
    8.7124  -14.4571   22.1872 O   0  0  0  0  0  0  0  0  0  0  0  0
    7.9000  -12.4193   28.2070 C   0  0  0  0  0  0  0  0  0  0  0  0
    7.5618  -12.1276   26.4441 S   0  0  0  0  0  0  0  0  0  0  0  0
    6.1512  -13.1620   25.9045 C   0  0  0  0  0  0  0  0  0  0  0  0
    6.5751  -14.5791   25.7395 C   0  0  0  0  0  0  0  0  0  0  0  0
    7.6183  -14.8552   24.7106 C   0  0  2  0  0  0  0  0  0  0  0  0
    6.8787  -14.9632   23.4396 N   0  0  0  0  0  0  0  0  0  0  0  0
    8.3794  -16.0901   24.8760 C   0  0  0  0  0  0  0  0  0  0  0  0
    7.7850  -17.1990   24.6271 O   0  0  0  0  0  0  0  0  0  0  0  0
    9.7230  -16.2052   25.2859 N   0  0  0  0  0  0  0  0  0  0  0  0
   10.3657  -17.5027   25.3367 C   0  0  1  0  0  0  0  0  0  0  0  0
   11.4030  -17.6629   24.2469 C   0  0  0  0  0  0  0  0  0  0  0  0
   12.4121  -16.1317   24.2748 S   0  0  0  0  0  0  0  0  0  0  0  0
   11.0537  -17.6867   26.6401 C   0  0  0  0  0  0  0  0  0  0  0  0
   11.6523  -18.8911   26.9105 O   0  0  0  0  0  0  0  0  0  0  0  0
   11.0786  -16.7443   27.4729 O   0  0  0  0  0  0  0  0  0  0  0  0
  2  1  1  6
  2  5  1  0
  3  2  1  0
  3  4  1  0
  5  6  2  0
  7  8  1  0
  9 10  1  0
  9  8  1  0
 11 10  1  1
 11 13  1  0
 12 11  1  0
 12  5  1  0
 13 14  2  0
 13 15  1  0
 15 16  1  0
 16 19  1  0
 16 17  1  6
 18 17  1  0
 19 21  2  0
 19 20  1  0
M  END
$$$$
