CMC.pdb
     RDKit          3D

 21 20  0  0  1  0  0  0  0  0999 V2000
    8.5449  -15.0887   19.9866 N   0  0  0  0  0  0  0  0  0  0  0  0
    7.8980  -15.7174   21.1164 C   0  0  1  0  0  0  0  0  0  0  0  0
    8.1533  -17.2056   21.1528 C   0  0  0  0  0  0  0  0  0  0  0  0
    9.9354  -17.5096   21.2912 S   0  0  0  0  0  0  0  0  0  0  0  0
    8.3931  -15.0780   22.3633 C   0  0  0  0  0  0  0  0  0  0  0  0
    9.5018  -14.4739   22.4145 O   0  0  0  0  0  0  0  0  0  0  0  0
    5.8182  -11.2951   25.3062 C   0  0  0  0  0  0  0  0  0  0  0  0
    6.6134  -11.7598   26.8744 S   0  0  0  0  0  0  0  0  0  0  0  0
    6.9552  -13.5582   26.8865 C   0  0  0  0  0  0  0  0  0  0  0  0
    6.8165  -14.1259   25.5178 C   0  0  0  0  0  0  0  0  0  0  0  0
    8.0771  -14.4721   24.8006 C   0  0  2  0  0  0  0  0  0  0  0  0
    7.6373  -15.1206   23.5516 N   0  0  0  0  0  0  0  0  0  0  0  0
    8.9736  -15.4026   25.4803 C   0  0  0  0  0  0  0  0  0  0  0  0
    8.7211  -16.6565   25.3853 O   0  0  0  0  0  0  0  0  0  0  0  0
   10.1109  -15.0729   26.2448 N   0  0  0  0  0  0  0  0  0  0  0  0
   10.9589  -16.1161   26.7850 C   0  0  1  0  0  0  0  0  0  0  0  0
   12.1379  -15.5491   27.5453 C   0  0  0  0  0  0  0  0  0  0  0  0
   11.4455  -14.3180   28.7151 S   0  0  0  0  0  0  0  0  0  0  0  0
   10.1895  -16.9710   27.7248 C   0  0  0  0  0  0  0  0  0  0  0  0
   10.8001  -18.0697   28.2744 O   0  0  0  0  0  0  0  0  0  0  0  0
    8.9977  -16.6799   28.0027 O   0  0  0  0  0  0  0  0  0  0  0  0
  2  1  1  6
  2  5  1  0
  3  2  1  0
  3  4  1  0
  5  6  2  0
  7  8  1  0
  9 10  1  0
  9  8  1  0
 11 10  1  1
 11 13  1  0
 12 11  1  0
 12  5  1  0
 13 14  2  0
 13 15  1  0
 15 16  1  0
 16 19  1  0
 16 17  1  1
 18 17  1  0
 19 21  2  0
 19 20  1  0
M  END
$$$$
