NLW.pdb
     RDKit          3D

 31 32  0  0  1  0  0  0  0  0999 V2000
   25.9113  -16.0317  -17.1624 N   0  0  0  0  0  0  0  0  0  0  0  0
   25.0223  -16.9987  -16.6423 C   0  0  0  0  0  0  0  0  0  0  0  0
   23.7941  -16.7462  -16.4415 O   0  0  0  0  0  0  0  0  0  0  0  0
   25.4672  -18.3753  -16.2963 C   0  0  0  0  0  0  0  0  0  0  0  0
   25.2149  -18.6402  -14.8193 C   0  0  2  0  0  0  0  0  0  0  0  0
   25.6095  -17.5214  -14.0082 N   0  0  0  0  0  0  0  0  0  0  0  0
   25.8767  -19.9007  -14.4111 C   0  0  0  0  0  0  0  0  0  0  0  0
   25.6415  -20.9776  -15.0184 O   0  0  0  0  0  0  0  0  0  0  0  0
   29.4847  -20.9090  -15.2079 C   0  0  0  0  0  0  0  0  0  0  0  0
   29.5167  -20.0981  -13.9152 C   0  0  2  0  0  0  0  0  0  0  0  0
   30.9410  -19.6862  -13.6592 C   0  0  0  0  0  0  0  0  0  0  0  0
   28.9597  -20.8924  -12.7662 C   0  0  0  0  0  0  0  0  0  0  0  0
   27.5228  -21.1754  -12.9721 C   0  0  2  0  0  0  0  0  0  0  0  0
   26.7863  -19.9541  -13.3408 N   0  0  0  0  0  0  0  0  0  0  0  0
   26.7810  -21.7787  -11.8718 C   0  0  0  0  0  0  0  0  0  0  0  0
   27.1692  -22.8538  -11.3681 O   0  0  0  0  0  0  0  0  0  0  0  0
   25.6005  -21.2139  -11.3049 N   0  0  0  0  0  0  0  0  0  0  0  0
   25.3306  -21.2835   -9.8525 C   0  0  1  0  0  0  0  0  0  0  0  0
   26.5073  -20.6929   -9.1579 C   0  0  0  0  0  0  0  0  0  0  0  0
   26.4476  -20.6133   -7.6936 C   0  0  0  0  0  0  0  0  0  0  0  0
   25.4725  -21.2198   -6.9096 C   0  0  0  0  0  0  0  0  0  0  0  0
   25.6834  -20.9332   -5.6154 N   0  0  0  0  0  0  0  0  0  0  0  0
   26.7892  -20.1452   -5.5507 C   0  0  0  0  0  0  0  0  0  0  0  0
   27.4248  -19.5950   -4.4471 C   0  0  0  0  0  0  0  0  0  0  0  0
   28.5535  -18.8340   -4.6234 C   0  0  0  0  0  0  0  0  0  0  0  0
   29.0327  -18.6331   -5.9087 C   0  0  0  0  0  0  0  0  0  0  0  0
   28.4178  -19.1666   -6.9967 C   0  0  0  0  0  0  0  0  0  0  0  0
   27.2703  -19.9396   -6.8175 C   0  0  0  0  0  0  0  0  0  0  0  0
   24.0159  -20.7598   -9.5267 C   0  0  0  0  0  0  0  0  0  0  0  0
   23.2456  -21.2528   -8.4884 O   0  0  0  0  0  0  0  0  0  0  0  0
   23.4695  -19.8029  -10.1821 O   0  0  0  0  0  0  0  0  0  0  0  0
  1  2  1  0
  2  4  1  0
  2  3  2  0
  4  5  1  0
  5  6  1  1
  7  8  2  0
  7  5  1  0
 10  9  1  6
 10 12  1  0
 11 10  1  0
 13 12  1  1
 13 14  1  0
 14  7  1  0
 15 13  1  0
 16 15  2  0
 17 15  1  0
 18 29  1  0
 18 17  1  0
 18 19  1  1
 20 19  1  0
 21 20  2  0
 22 21  1  0
 23 22  1  0
 23 28  2  0
 24 25  2  0
 24 23  1  0
 25 26  1  0
 26 27  2  0
 28 27  1  0
 28 20  1  0
 29 30  1  0
 31 29  2  0
M  END
$$$$
