NLW.pdb
     RDKit          3D

 31 32  0  0  1  0  0  0  0  0999 V2000
   29.7309  -26.1573  -16.5934 N   0  0  0  0  0  0  0  0  0  0  0  0
   29.8216  -27.3266  -17.3812 C   0  0  0  0  0  0  0  0  0  0  0  0
   30.9128  -27.6965  -17.9151 O   0  0  0  0  0  0  0  0  0  0  0  0
   28.6451  -28.2002  -17.6361 C   0  0  0  0  0  0  0  0  0  0  0  0
   27.4342  -27.6614  -16.8886 C   0  0  2  0  0  0  0  0  0  0  0  0
   27.6504  -27.6580  -15.4679 N   0  0  0  0  0  0  0  0  0  0  0  0
   26.2216  -28.4173  -17.2780 C   0  0  0  0  0  0  0  0  0  0  0  0
   25.8414  -28.4514  -18.4772 O   0  0  0  0  0  0  0  0  0  0  0  0
   25.3341  -32.4604  -17.9660 C   0  0  0  0  0  0  0  0  0  0  0  0
   25.4693  -32.0277  -16.5087 C   0  0  2  0  0  0  0  0  0  0  0  0
   25.6512  -33.2641  -15.6708 C   0  0  0  0  0  0  0  0  0  0  0  0
   24.2688  -31.2369  -16.0671 C   0  0  0  0  0  0  0  0  0  0  0  0
   24.2544  -29.9040  -16.7077 C   0  0  2  0  0  0  0  0  0  0  0  0
   25.4481  -29.1229  -16.3402 N   0  0  0  0  0  0  0  0  0  0  0  0
   23.1099  -29.0371  -16.4552 C   0  0  0  0  0  0  0  0  0  0  0  0
   22.4965  -29.1080  -15.3694 O   0  0  0  0  0  0  0  0  0  0  0  0
   22.6182  -28.0777  -17.3888 N   0  0  0  0  0  0  0  0  0  0  0  0
   21.3856  -27.3041  -17.1256 C   0  0  1  0  0  0  0  0  0  0  0  0
   21.4159  -26.1121  -18.0167 C   0  0  0  0  0  0  0  0  0  0  0  0
   20.2853  -25.1808  -17.9247 C   0  0  0  0  0  0  0  0  0  0  0  0
   20.2570  -24.0520  -17.1132 C   0  0  0  0  0  0  0  0  0  0  0  0
   19.0739  -23.4302  -17.2368 N   0  0  0  0  0  0  0  0  0  0  0  0
   18.3318  -24.1452  -18.1233 C   0  0  0  0  0  0  0  0  0  0  0  0
   17.0493  -23.9137  -18.5989 C   0  0  0  0  0  0  0  0  0  0  0  0
   16.5002  -24.7742  -19.5165 C   0  0  0  0  0  0  0  0  0  0  0  0
   17.2463  -25.8602  -19.9477 C   0  0  0  0  0  0  0  0  0  0  0  0
   18.5030  -26.0968  -19.4882 C   0  0  0  0  0  0  0  0  0  0  0  0
   19.0609  -25.2225  -18.5550 C   0  0  0  0  0  0  0  0  0  0  0  0
   20.2052  -28.1494  -17.1613 C   0  0  0  0  0  0  0  0  0  0  0  0
   19.1645  -28.0271  -16.2578 O   0  0  0  0  0  0  0  0  0  0  0  0
   20.0431  -29.0762  -18.0323 O   0  0  0  0  0  0  0  0  0  0  0  0
  1  2  1  0
  2  4  1  0
  2  3  2  0
  4  5  1  0
  5  6  1  1
  7  8  2  0
  7  5  1  0
 10  9  1  6
 10 12  1  0
 11 10  1  0
 13 12  1  1
 13 14  1  0
 14  7  1  0
 15 13  1  0
 16 15  2  0
 17 15  1  0
 18 29  1  0
 18 17  1  0
 18 19  1  6
 20 19  1  0
 21 20  2  0
 22 21  1  0
 23 22  1  0
 23 28  2  0
 24 25  2  0
 24 23  1  0
 25 26  1  0
 26 27  2  0
 28 27  1  0
 28 20  1  0
 29 30  1  0
 31 29  2  0
M  END
$$$$
