NLW.pdb
     RDKit          3D

 31 32  0  0  1  0  0  0  0  0999 V2000
   22.6989  -17.9762  -15.3525 N   0  0  0  0  0  0  0  0  0  0  0  0
   22.3212  -18.4204  -14.0656 C   0  0  0  0  0  0  0  0  0  0  0  0
   21.3785  -17.8736  -13.4136 O   0  0  0  0  0  0  0  0  0  0  0  0
   23.0028  -19.5574  -13.3911 C   0  0  0  0  0  0  0  0  0  0  0  0
   24.2432  -19.9525  -14.1788 C   0  0  2  0  0  0  0  0  0  0  0  0
   23.9042  -20.4324  -15.4902 N   0  0  0  0  0  0  0  0  0  0  0  0
   25.0444  -20.9286  -13.4050 C   0  0  0  0  0  0  0  0  0  0  0  0
   24.7187  -22.1437  -13.3680 O   0  0  0  0  0  0  0  0  0  0  0  0
   28.1001  -19.3123  -13.6796 C   0  0  0  0  0  0  0  0  0  0  0  0
   28.7920  -19.8826  -12.4446 C   0  0  2  0  0  0  0  0  0  0  0  0
   30.2738  -19.6758  -12.6037 C   0  0  0  0  0  0  0  0  0  0  0  0
   28.4570  -21.3373  -12.2621 C   0  0  0  0  0  0  0  0  0  0  0  0
   27.0241  -21.5089  -11.9389 C   0  0  2  0  0  0  0  0  0  0  0  0
   26.1907  -20.5502  -12.6849 N   0  0  0  0  0  0  0  0  0  0  0  0
   26.6204  -21.3953  -10.5428 C   0  0  0  0  0  0  0  0  0  0  0  0
   27.2617  -21.9934   -9.6534 O   0  0  0  0  0  0  0  0  0  0  0  0
   25.5063  -20.6240  -10.0977 N   0  0  0  0  0  0  0  0  0  0  0  0
   24.9941  -20.7323   -8.7146 C   0  0  1  0  0  0  0  0  0  0  0  0
   25.3199  -19.4547   -8.0238 C   0  0  0  0  0  0  0  0  0  0  0  0
   26.6814  -19.3096   -7.4954 C   0  0  0  0  0  0  0  0  0  0  0  0
   27.7086  -18.6274   -8.1381 C   0  0  0  0  0  0  0  0  0  0  0  0
   28.8330  -18.7026   -7.4089 N   0  0  0  0  0  0  0  0  0  0  0  0
   28.5456  -19.4280   -6.2958 C   0  0  0  0  0  0  0  0  0  0  0  0
   29.3593  -19.7764   -5.2276 C   0  0  0  0  0  0  0  0  0  0  0  0
   28.8407  -20.5114   -4.1908 C   0  0  0  0  0  0  0  0  0  0  0  0
   27.5078  -20.8896   -4.2380 C   0  0  0  0  0  0  0  0  0  0  0  0
   26.7019  -20.5545   -5.2795 C   0  0  0  0  0  0  0  0  0  0  0  0
   27.2292  -19.8078   -6.3335 C   0  0  0  0  0  0  0  0  0  0  0  0
   23.6150  -21.1864   -8.6887 C   0  0  0  0  0  0  0  0  0  0  0  0
   22.9247  -21.4294   -7.5144 O   0  0  0  0  0  0  0  0  0  0  0  0
   22.9360  -21.4004   -9.7549 O   0  0  0  0  0  0  0  0  0  0  0  0
  1  2  1  0
  2  4  1  0
  2  3  2  0
  4  5  1  0
  5  6  1  6
  7  8  2  0
  7  5  1  0
 10  9  1  6
 10 12  1  0
 11 10  1  0
 13 12  1  1
 13 14  1  0
 14  7  1  0
 15 13  1  0
 16 15  2  0
 17 15  1  0
 18 29  1  0
 18 17  1  0
 18 19  1  6
 20 19  1  0
 21 20  2  0
 22 21  1  0
 23 22  1  0
 23 28  2  0
 24 25  2  0
 24 23  1  0
 25 26  1  0
 26 27  2  0
 28 27  1  0
 28 20  1  0
 29 30  1  0
 31 29  2  0
M  END
$$$$
