NLW.pdb
     RDKit          3D

 31 32  0  0  1  0  0  0  0  0999 V2000
   23.3356  -18.2769  -21.1475 N   0  0  0  0  0  0  0  0  0  0  0  0
   24.6886  -18.0907  -20.7857 C   0  0  0  0  0  0  0  0  0  0  0  0
   25.4283  -17.2339  -21.3612 O   0  0  0  0  0  0  0  0  0  0  0  0
   25.3342  -18.8860  -19.7072 C   0  0  0  0  0  0  0  0  0  0  0  0
   24.2943  -19.7595  -19.0210 C   0  0  2  0  0  0  0  0  0  0  0  0
   23.4019  -18.9780  -18.2098 N   0  0  0  0  0  0  0  0  0  0  0  0
   24.9636  -20.8364  -18.2556 C   0  0  0  0  0  0  0  0  0  0  0  0
   25.9370  -21.4657  -18.7459 O   0  0  0  0  0  0  0  0  0  0  0  0
   28.2663  -18.9830  -14.6134 C   0  0  0  0  0  0  0  0  0  0  0  0
   27.4142  -20.2457  -14.7088 C   0  0  2  0  0  0  0  0  0  0  0  0
   28.3412  -21.4261  -14.8139 C   0  0  0  0  0  0  0  0  0  0  0  0
   26.4774  -20.1768  -15.8831 C   0  0  0  0  0  0  0  0  0  0  0  0
   25.4648  -21.2523  -15.8100 C   0  0  2  0  0  0  0  0  0  0  0  0
   24.5496  -21.2023  -16.9632 N   0  0  0  0  0  0  0  0  0  0  0  0
   24.6190  -21.3147  -14.6244 C   0  0  0  0  0  0  0  0  0  0  0  0
   24.7813  -22.2252  -13.7849 O   0  0  0  0  0  0  0  0  0  0  0  0
   23.5805  -20.3798  -14.3387 N   0  0  0  0  0  0  0  0  0  0  0  0
   22.5459  -20.6609  -13.3201 C   0  0  1  0  0  0  0  0  0  0  0  0
   22.7151  -19.6580  -12.2332 C   0  0  0  0  0  0  0  0  0  0  0  0
   24.0696  -19.4752  -11.6984 C   0  0  0  0  0  0  0  0  0  0  0  0
   25.1175  -18.8789  -12.3910 C   0  0  0  0  0  0  0  0  0  0  0  0
   26.2282  -18.8904  -11.6375 N   0  0  0  0  0  0  0  0  0  0  0  0
   25.9112  -19.4892  -10.4589 C   0  0  0  0  0  0  0  0  0  0  0  0
   26.7015  -19.7322   -9.3449 C   0  0  0  0  0  0  0  0  0  0  0  0
   26.1546  -20.3456   -8.2456 C   0  0  0  0  0  0  0  0  0  0  0  0
   24.8171  -20.7093   -8.2767 C   0  0  0  0  0  0  0  0  0  0  0  0
   24.0341  -20.4767   -9.3625 C   0  0  0  0  0  0  0  0  0  0  0  0
   24.5902  -19.8537  -10.4802 C   0  0  0  0  0  0  0  0  0  0  0  0
   21.2298  -20.7994  -13.9181 C   0  0  0  0  0  0  0  0  0  0  0  0
   20.1078  -21.1593  -13.1928 O   0  0  0  0  0  0  0  0  0  0  0  0
   21.0117  -20.6024  -15.1660 O   0  0  0  0  0  0  0  0  0  0  0  0
  1  2  1  0
  2  4  1  0
  2  3  2  0
  4  5  1  0
  5  6  1  1
  7  8  2  0
  7  5  1  0
 10  9  1  6
 10 12  1  0
 11 10  1  0
 13 12  1  1
 13 14  1  0
 14  7  1  0
 15 13  1  0
 16 15  2  0
 17 15  1  0
 18 29  1  0
 18 17  1  0
 18 19  1  1
 20 19  1  0
 21 20  2  0
 22 21  1  0
 23 22  1  0
 23 28  2  0
 24 25  2  0
 24 23  1  0
 25 26  1  0
 26 27  2  0
 28 27  1  0
 28 20  1  0
 29 30  1  0
 31 29  2  0
M  END
$$$$
