NLW.pdb
     RDKit          3D

 31 32  0  0  1  0  0  0  0  0999 V2000
   28.0505  -24.5006  -18.1106 N   0  0  0  0  0  0  0  0  0  0  0  0
   29.0212  -23.4743  -18.0919 C   0  0  0  0  0  0  0  0  0  0  0  0
   30.0311  -23.4877  -18.8616 O   0  0  0  0  0  0  0  0  0  0  0  0
   28.9231  -22.3114  -17.1697 C   0  0  0  0  0  0  0  0  0  0  0  0
   27.6956  -22.4615  -16.2832 C   0  0  2  0  0  0  0  0  0  0  0  0
   26.4804  -22.3426  -17.0410 N   0  0  0  0  0  0  0  0  0  0  0  0
   27.7621  -21.4989  -15.1596 C   0  0  0  0  0  0  0  0  0  0  0  0
   28.8048  -21.3933  -14.4628 O   0  0  0  0  0  0  0  0  0  0  0  0
   28.0640  -17.2477  -14.8349 C   0  0  0  0  0  0  0  0  0  0  0  0
   26.6750  -17.7348  -15.2383 C   0  0  2  0  0  0  0  0  0  0  0  0
   25.8774  -16.5427  -15.6930 C   0  0  0  0  0  0  0  0  0  0  0  0
   25.9997  -18.4445  -14.0974 C   0  0  0  0  0  0  0  0  0  0  0  0
   26.7359  -19.6752  -13.7360 C   0  0  2  0  0  0  0  0  0  0  0  0
   26.6791  -20.6688  -14.8221 N   0  0  0  0  0  0  0  0  0  0  0  0
   26.3372  -20.3783  -12.5229 C   0  0  0  0  0  0  0  0  0  0  0  0
   25.3608  -21.1570  -12.5411 O   0  0  0  0  0  0  0  0  0  0  0  0
   27.0022  -20.2397  -11.2688 N   0  0  0  0  0  0  0  0  0  0  0  0
   26.4609  -20.8497  -10.0352 C   0  0  1  0  0  0  0  0  0  0  0  0
   27.4717  -20.6425   -8.9622 C   0  0  0  0  0  0  0  0  0  0  0  0
   27.0048  -20.7514   -7.5751 C   0  0  0  0  0  0  0  0  0  0  0  0
   25.8353  -21.3942   -7.1844 C   0  0  0  0  0  0  0  0  0  0  0  0
   25.6805  -21.2926   -5.8550 N   0  0  0  0  0  0  0  0  0  0  0  0
   26.7409  -20.5891   -5.3769 C   0  0  0  0  0  0  0  0  0  0  0  0
   27.0530  -20.2279   -4.0743 C   0  0  0  0  0  0  0  0  0  0  0  0
   28.2025  -19.5211   -3.8229 C   0  0  0  0  0  0  0  0  0  0  0  0
   29.0279  -19.1837   -4.8845 C   0  0  0  0  0  0  0  0  0  0  0  0
   28.7316  -19.5317   -6.1641 C   0  0  0  0  0  0  0  0  0  0  0  0
   27.5630  -20.2497   -6.4197 C   0  0  0  0  0  0  0  0  0  0  0  0
   25.0985  -20.4180   -9.7778 C   0  0  0  0  0  0  0  0  0  0  0  0
   24.1153  -21.2701   -9.3069 O   0  0  0  0  0  0  0  0  0  0  0  0
   24.7050  -19.2135   -9.9731 O   0  0  0  0  0  0  0  0  0  0  0  0
  1  2  1  0
  2  4  1  0
  2  3  2  0
  4  5  1  0
  5  6  1  6
  7  8  2  0
  7  5  1  0
 10  9  1  1
 10 12  1  0
 11 10  1  0
 13 12  1  6
 13 14  1  0
 14  7  1  0
 15 13  1  0
 16 15  2  0
 17 15  1  0
 18 29  1  0
 18 17  1  0
 18 19  1  1
 20 19  1  0
 21 20  2  0
 22 21  1  0
 23 22  1  0
 23 28  2  0
 24 25  2  0
 24 23  1  0
 25 26  1  0
 26 27  2  0
 28 27  1  0
 28 20  1  0
 29 30  1  0
 31 29  2  0
M  END
$$$$
