NLW.pdb
     RDKit          3D

 31 32  0  0  1  0  0  0  0  0999 V2000
   26.5474  -28.8834  -17.5328 N   0  0  0  0  0  0  0  0  0  0  0  0
   26.1158  -27.5970  -17.9266 C   0  0  0  0  0  0  0  0  0  0  0  0
   26.1816  -27.2037  -19.1322 O   0  0  0  0  0  0  0  0  0  0  0  0
   25.5560  -26.6201  -16.9545 C   0  0  0  0  0  0  0  0  0  0  0  0
   26.3363  -25.3160  -17.0305 C   0  0  2  0  0  0  0  0  0  0  0  0
   27.7164  -25.5063  -16.6779 N   0  0  0  0  0  0  0  0  0  0  0  0
   25.6747  -24.2816  -16.2024 C   0  0  0  0  0  0  0  0  0  0  0  0
   24.9745  -24.6037  -15.2075 O   0  0  0  0  0  0  0  0  0  0  0  0
   27.4758  -20.9622  -13.8772 C   0  0  0  0  0  0  0  0  0  0  0  0
   27.3607  -20.7157  -15.3790 C   0  0  2  0  0  0  0  0  0  0  0  0
   28.1500  -19.4781  -15.7095 C   0  0  0  0  0  0  0  0  0  0  0  0
   25.9221  -20.5768  -15.7942 C   0  0  0  0  0  0  0  0  0  0  0  0
   25.2043  -21.8602  -15.6359 C   0  0  2  0  0  0  0  0  0  0  0  0
   25.7953  -22.9098  -16.4840 N   0  0  0  0  0  0  0  0  0  0  0  0
   23.7721  -21.8797  -15.9067 C   0  0  0  0  0  0  0  0  0  0  0  0
   23.3405  -21.5354  -17.0271 O   0  0  0  0  0  0  0  0  0  0  0  0
   22.7883  -22.2770  -14.9536 N   0  0  0  0  0  0  0  0  0  0  0  0
   21.3423  -22.1593  -15.2403 C   0  0  1  0  0  0  0  0  0  0  0  0
   20.7262  -23.4814  -14.9434 C   0  0  0  0  0  0  0  0  0  0  0  0
   19.2675  -23.5819  -15.0706 C   0  0  0  0  0  0  0  0  0  0  0  0
   18.5281  -23.0459  -16.1191 C   0  0  0  0  0  0  0  0  0  0  0  0
   17.2216  -23.2855  -15.9261 N   0  0  0  0  0  0  0  0  0  0  0  0
   17.1047  -23.9743  -14.7600 C   0  0  0  0  0  0  0  0  0  0  0  0
   15.9718  -24.4670  -14.1287 C   0  0  0  0  0  0  0  0  0  0  0  0
   16.0981  -25.1567  -12.9488 C   0  0  0  0  0  0  0  0  0  0  0  0
   17.3633  -25.3448  -12.4142 C   0  0  0  0  0  0  0  0  0  0  0  0
   18.4796  -24.8662  -13.0236 C   0  0  0  0  0  0  0  0  0  0  0  0
   18.3511  -24.1646  -14.2226 C   0  0  0  0  0  0  0  0  0  0  0  0
   20.7657  -20.9843  -14.6109 C   0  0  0  0  0  0  0  0  0  0  0  0
   19.6406  -20.3444  -15.0999 O   0  0  0  0  0  0  0  0  0  0  0  0
   21.2614  -20.4499  -13.5562 O   0  0  0  0  0  0  0  0  0  0  0  0
  1  2  1  0
  2  4  1  0
  2  3  2  0
  4  5  1  0
  5  6  1  1
  7  8  2  0
  7  5  1  0
 10  9  1  1
 10 12  1  0
 11 10  1  0
 13 12  1  6
 13 14  1  0
 14  7  1  0
 15 13  1  0
 16 15  2  0
 17 15  1  0
 18 29  1  0
 18 17  1  0
 18 19  1  1
 20 19  1  0
 21 20  2  0
 22 21  1  0
 23 22  1  0
 23 28  2  0
 24 25  2  0
 24 23  1  0
 25 26  1  0
 26 27  2  0
 28 27  1  0
 28 20  1  0
 29 30  1  0
 31 29  2  0
M  END
$$$$
