NLW.pdb
     RDKit          3D

 31 32  0  0  1  0  0  0  0  0999 V2000
   18.2274  -17.8906  -11.0700 N   0  0  0  0  0  0  0  0  0  0  0  0
   19.3471  -18.0006  -11.9245 C   0  0  0  0  0  0  0  0  0  0  0  0
   19.4141  -17.3807  -13.0308 O   0  0  0  0  0  0  0  0  0  0  0  0
   20.5202  -18.8492  -11.5837 C   0  0  0  0  0  0  0  0  0  0  0  0
   20.7416  -19.8824  -12.6784 C   0  0  2  0  0  0  0  0  0  0  0  0
   19.6515  -20.8160  -12.7504 N   0  0  0  0  0  0  0  0  0  0  0  0
   22.0503  -20.5491  -12.4877 C   0  0  0  0  0  0  0  0  0  0  0  0
   22.2055  -21.4189  -11.5914 O   0  0  0  0  0  0  0  0  0  0  0  0
   27.5287  -21.2733  -15.3337 C   0  0  0  0  0  0  0  0  0  0  0  0
   26.6142  -21.5099  -14.1349 C   0  0  2  0  0  0  0  0  0  0  0  0
   26.4835  -22.9954  -13.9350 C   0  0  0  0  0  0  0  0  0  0  0  0
   25.2725  -20.8637  -14.3441 C   0  0  0  0  0  0  0  0  0  0  0  0
   24.4877  -20.8671  -13.0906 C   0  0  2  0  0  0  0  0  0  0  0  0
   23.1661  -20.2467  -13.2872 N   0  0  0  0  0  0  0  0  0  0  0  0
   25.0679  -20.2211  -11.9196 C   0  0  0  0  0  0  0  0  0  0  0  0
   25.1619  -18.9766  -11.8716 O   0  0  0  0  0  0  0  0  0  0  0  0
   25.5551  -20.9286  -10.7812 N   0  0  0  0  0  0  0  0  0  0  0  0
   26.6463  -20.3867   -9.9429 C   0  0  1  0  0  0  0  0  0  0  0  0
   26.1923  -20.4627   -8.5273 C   0  0  0  0  0  0  0  0  0  0  0  0
   26.9690  -19.7092   -7.5357 C   0  0  0  0  0  0  0  0  0  0  0  0
   27.3345  -18.3742   -7.6685 C   0  0  0  0  0  0  0  0  0  0  0  0
   28.0611  -17.9918   -6.6068 N   0  0  0  0  0  0  0  0  0  0  0  0
   28.1710  -19.0676   -5.7831 C   0  0  0  0  0  0  0  0  0  0  0  0
   28.8090  -19.1864   -4.5569 C   0  0  0  0  0  0  0  0  0  0  0  0
   28.7745  -20.3840   -3.8871 C   0  0  0  0  0  0  0  0  0  0  0  0
   28.0983  -21.4517   -4.4570 C   0  0  0  0  0  0  0  0  0  0  0  0
   27.4705  -21.3467   -5.6575 C   0  0  0  0  0  0  0  0  0  0  0  0
   27.5061  -20.1296   -6.3386 C   0  0  0  0  0  0  0  0  0  0  0  0
   27.9266  -20.9841  -10.2789 C   0  0  0  0  0  0  0  0  0  0  0  0
   29.1132  -20.6111   -9.6730 O   0  0  0  0  0  0  0  0  0  0  0  0
   28.0517  -21.8999  -11.1674 O   0  0  0  0  0  0  0  0  0  0  0  0
  1  2  1  0
  2  4  1  0
  2  3  2  0
  4  5  1  0
  5  6  1  1
  7  8  2  0
  7  5  1  0
 10  9  1  6
 10 12  1  0
 11 10  1  0
 13 12  1  6
 13 14  1  0
 14  7  1  0
 15 13  1  0
 16 15  2  0
 17 15  1  0
 18 29  1  0
 18 17  1  0
 18 19  1  1
 20 19  1  0
 21 20  2  0
 22 21  1  0
 23 22  1  0
 23 28  2  0
 24 25  2  0
 24 23  1  0
 25 26  1  0
 26 27  2  0
 28 27  1  0
 28 20  1  0
 29 30  1  0
 31 29  2  0
M  END
$$$$
