NLW.pdb
     RDKit          3D

 31 32  0  0  1  0  0  0  0  0999 V2000
   31.5896  -20.2917  -12.2403 N   0  0  0  0  0  0  0  0  0  0  0  0
   30.1950  -20.2836  -12.4667 C   0  0  0  0  0  0  0  0  0  0  0  0
   29.6905  -19.8536  -13.5498 O   0  0  0  0  0  0  0  0  0  0  0  0
   29.2273  -20.7784  -11.4512 C   0  0  0  0  0  0  0  0  0  0  0  0
   29.9685  -21.1561  -10.1771 C   0  0  2  0  0  0  0  0  0  0  0  0
   30.8496  -22.2711  -10.3908 N   0  0  0  0  0  0  0  0  0  0  0  0
   29.0015  -21.3967   -9.0815 C   0  0  0  0  0  0  0  0  0  0  0  0
   28.4971  -22.5364   -8.9064 O   0  0  0  0  0  0  0  0  0  0  0  0
   28.1955  -21.4035   -4.8321 C   0  0  0  0  0  0  0  0  0  0  0  0
   28.4680  -20.0120   -5.3969 C   0  0  2  0  0  0  0  0  0  0  0  0
   28.6693  -19.0712   -4.2401 C   0  0  0  0  0  0  0  0  0  0  0  0
   27.3408  -19.5593   -6.2833 C   0  0  0  0  0  0  0  0  0  0  0  0
   27.2954  -20.3615   -7.5250 C   0  0  2  0  0  0  0  0  0  0  0  0
   28.6060  -20.3782   -8.1973 N   0  0  0  0  0  0  0  0  0  0  0  0
   26.3223  -19.9882   -8.5442 C   0  0  0  0  0  0  0  0  0  0  0  0
   26.2896  -18.8189   -8.9822 O   0  0  0  0  0  0  0  0  0  0  0  0
   25.3682  -20.8904   -9.1006 N   0  0  0  0  0  0  0  0  0  0  0  0
   24.4188  -20.4612  -10.1502 C   0  0  1  0  0  0  0  0  0  0  0  0
   24.9228  -20.9964  -11.4445 C   0  0  0  0  0  0  0  0  0  0  0  0
   24.1156  -20.7236  -12.6395 C   0  0  0  0  0  0  0  0  0  0  0  0
   23.9511  -19.4664  -13.2104 C   0  0  0  0  0  0  0  0  0  0  0  0
   23.1342  -19.5503  -14.2721 N   0  0  0  0  0  0  0  0  0  0  0  0
   22.7660  -20.8528  -14.3974 C   0  0  0  0  0  0  0  0  0  0  0  0
   21.9466  -21.4580  -15.3391 C   0  0  0  0  0  0  0  0  0  0  0  0
   21.7265  -22.8115  -15.2777 C   0  0  0  0  0  0  0  0  0  0  0  0
   22.3328  -23.5443  -14.2690 C   0  0  0  0  0  0  0  0  0  0  0  0
   23.1367  -22.9619  -13.3411 C   0  0  0  0  0  0  0  0  0  0  0  0
   23.3599  -21.5860  -13.4033 C   0  0  0  0  0  0  0  0  0  0  0  0
   23.0451  -20.7553   -9.7820 C   0  0  0  0  0  0  0  0  0  0  0  0
   21.9573  -20.1684  -10.4038 O   0  0  0  0  0  0  0  0  0  0  0  0
   22.7395  -21.5790   -8.8483 O   0  0  0  0  0  0  0  0  0  0  0  0
  1  2  1  0
  2  4  1  0
  2  3  2  0
  4  5  1  0
  5  6  1  6
  7  8  2  0
  7  5  1  0
 10  9  1  1
 10 12  1  0
 11 10  1  0
 13 12  1  1
 13 14  1  0
 14  7  1  0
 15 13  1  0
 16 15  2  0
 17 15  1  0
 18 29  1  0
 18 17  1  0
 18 19  1  6
 20 19  1  0
 21 20  2  0
 22 21  1  0
 23 22  1  0
 23 28  2  0
 24 25  2  0
 24 23  1  0
 25 26  1  0
 26 27  2  0
 28 27  1  0
 28 20  1  0
 29 30  1  0
 31 29  2  0
M  END
$$$$
