NLW.pdb
     RDKit          3D

 31 32  0  0  1  0  0  0  0  0999 V2000
   27.0856  -18.7894  -18.5864 N   0  0  0  0  0  0  0  0  0  0  0  0
   27.7730  -18.6061  -17.3658 C   0  0  0  0  0  0  0  0  0  0  0  0
   28.6982  -17.7460  -17.2360 O   0  0  0  0  0  0  0  0  0  0  0  0
   27.4575  -19.4083  -16.1536 C   0  0  0  0  0  0  0  0  0  0  0  0
   28.6876  -20.1938  -15.7235 C   0  0  2  0  0  0  0  0  0  0  0  0
   29.0924  -21.1335  -16.7327 N   0  0  0  0  0  0  0  0  0  0  0  0
   28.4441  -20.8370  -14.4118 C   0  0  0  0  0  0  0  0  0  0  0  0
   27.6437  -21.8025  -14.3066 O   0  0  0  0  0  0  0  0  0  0  0  0
   30.7895  -23.0430  -11.1374 C   0  0  0  0  0  0  0  0  0  0  0  0
   31.0593  -21.5565  -11.3536 C   0  0  2  0  0  0  0  0  0  0  0  0
   32.2802  -21.1842  -10.5569 C   0  0  0  0  0  0  0  0  0  0  0  0
   29.8693  -20.7285  -10.9540 C   0  0  0  0  0  0  0  0  0  0  0  0
   28.7509  -20.9263  -11.9012 C   0  0  2  0  0  0  0  0  0  0  0  0
   29.0860  -20.4060  -13.2380 N   0  0  0  0  0  0  0  0  0  0  0  0
   27.4551  -20.3539  -11.5573 C   0  0  0  0  0  0  0  0  0  0  0  0
   27.0041  -19.3866  -12.2062 O   0  0  0  0  0  0  0  0  0  0  0  0
   26.6315  -20.8320  -10.4957 N   0  0  0  0  0  0  0  0  0  0  0  0
   25.2310  -20.3827  -10.3412 C   0  0  1  0  0  0  0  0  0  0  0  0
   24.5411  -20.6413  -11.6346 C   0  0  0  0  0  0  0  0  0  0  0  0
   23.0935  -20.4031  -11.6785 C   0  0  0  0  0  0  0  0  0  0  0  0
   22.3740  -19.7331  -10.6952 C   0  0  0  0  0  0  0  0  0  0  0  0
   21.0718  -19.7080  -11.0193 N   0  0  0  0  0  0  0  0  0  0  0  0
   20.9379  -20.3561  -12.2067 C   0  0  0  0  0  0  0  0  0  0  0  0
   19.8022  -20.5892  -12.9687 C   0  0  0  0  0  0  0  0  0  0  0  0
   19.9108  -21.2618  -14.1603 C   0  0  0  0  0  0  0  0  0  0  0  0
   21.1611  -21.6940  -14.5749 C   0  0  0  0  0  0  0  0  0  0  0  0
   22.2798  -21.4717  -13.8363 C   0  0  0  0  0  0  0  0  0  0  0  0
   22.1694  -20.7886  -12.6248 C   0  0  0  0  0  0  0  0  0  0  0  0
   24.6286  -20.9144   -9.1315 C   0  0  0  0  0  0  0  0  0  0  0  0
   24.6968  -22.2514   -8.7819 O   0  0  0  0  0  0  0  0  0  0  0  0
   23.9838  -20.1826   -8.2994 O   0  0  0  0  0  0  0  0  0  0  0  0
  1  2  1  0
  2  4  1  0
  2  3  2  0
  4  5  1  0
  5  6  1  6
  7  8  2  0
  7  5  1  0
 10  9  1  1
 10 12  1  0
 11 10  1  0
 13 12  1  1
 13 14  1  0
 14  7  1  0
 15 13  1  0
 16 15  2  0
 17 15  1  0
 18 29  1  0
 18 17  1  0
 18 19  1  6
 20 19  1  0
 21 20  2  0
 22 21  1  0
 23 22  1  0
 23 28  2  0
 24 25  2  0
 24 23  1  0
 25 26  1  0
 26 27  2  0
 28 27  1  0
 28 20  1  0
 29 30  1  0
 31 29  2  0
M  END
$$$$
