NLW.pdb
     RDKit          3D

 31 32  0  0  1  0  0  0  0  0999 V2000
   25.5661  -24.8459  -18.8435 N   0  0  0  0  0  0  0  0  0  0  0  0
   25.2125  -25.1413  -17.5080 C   0  0  0  0  0  0  0  0  0  0  0  0
   24.3563  -26.0336  -17.2191 O   0  0  0  0  0  0  0  0  0  0  0  0
   25.8202  -24.4267  -16.3537 C   0  0  0  0  0  0  0  0  0  0  0  0
   26.8066  -23.3834  -16.8576 C   0  0  2  0  0  0  0  0  0  0  0  0
   27.9294  -23.9936  -17.5150 N   0  0  0  0  0  0  0  0  0  0  0  0
   27.2128  -22.4927  -15.7463 C   0  0  0  0  0  0  0  0  0  0  0  0
   28.0243  -22.8869  -14.8687 O   0  0  0  0  0  0  0  0  0  0  0  0
   29.3488  -18.7313  -15.2601 C   0  0  0  0  0  0  0  0  0  0  0  0
   27.9476  -18.5007  -15.8194 C   0  0  2  0  0  0  0  0  0  0  0  0
   27.8319  -17.0502  -16.2022 C   0  0  0  0  0  0  0  0  0  0  0  0
   26.8960  -18.8898  -14.8173 C   0  0  0  0  0  0  0  0  0  0  0  0
   27.0136  -20.3207  -14.4625 C   0  0  2  0  0  0  0  0  0  0  0  0
   26.7186  -21.1829  -15.6199 N   0  0  0  0  0  0  0  0  0  0  0  0
   26.1951  -20.8219  -13.3653 C   0  0  0  0  0  0  0  0  0  0  0  0
   24.9973  -21.1180  -13.5603 O   0  0  0  0  0  0  0  0  0  0  0  0
   26.6756  -21.0070  -12.0353 N   0  0  0  0  0  0  0  0  0  0  0  0
   25.7760  -21.4292  -10.9401 C   0  0  1  0  0  0  0  0  0  0  0  0
   26.6311  -21.7237   -9.7577 C   0  0  0  0  0  0  0  0  0  0  0  0
   26.6115  -20.7493   -8.6603 C   0  0  0  0  0  0  0  0  0  0  0  0
   25.5764  -19.8525   -8.4198 C   0  0  0  0  0  0  0  0  0  0  0  0
   25.8760  -19.0822   -7.3623 N   0  0  0  0  0  0  0  0  0  0  0  0
   27.0981  -19.4711   -6.9118 C   0  0  0  0  0  0  0  0  0  0  0  0
   27.8418  -18.9987   -5.8401 C   0  0  0  0  0  0  0  0  0  0  0  0
   29.0613  -19.5625   -5.5592 C   0  0  0  0  0  0  0  0  0  0  0  0
   29.5220  -20.5968   -6.3591 C   0  0  0  0  0  0  0  0  0  0  0  0
   28.8024  -21.0669   -7.4115 C   0  0  0  0  0  0  0  0  0  0  0  0
   27.5631  -20.4934   -7.6974 C   0  0  0  0  0  0  0  0  0  0  0  0
   24.6723  -20.5015  -10.7663 C   0  0  0  0  0  0  0  0  0  0  0  0
   23.4575  -20.8718  -10.2172 O   0  0  0  0  0  0  0  0  0  0  0  0
   24.7416  -19.2695  -11.1144 O   0  0  0  0  0  0  0  0  0  0  0  0
  1  2  1  0
  2  4  1  0
  2  3  2  0
  4  5  1  0
  5  6  1  1
  7  8  2  0
  7  5  1  0
 10  9  1  1
 10 12  1  0
 11 10  1  0
 13 12  1  6
 13 14  1  0
 14  7  1  0
 15 13  1  0
 16 15  2  0
 17 15  1  0
 18 29  1  0
 18 17  1  0
 18 19  1  1
 20 19  1  0
 21 20  2  0
 22 21  1  0
 23 22  1  0
 23 28  2  0
 24 25  2  0
 24 23  1  0
 25 26  1  0
 26 27  2  0
 28 27  1  0
 28 20  1  0
 29 30  1  0
 31 29  2  0
M  END
$$$$
