NLW.pdb
     RDKit          3D

 31 32  0  0  1  0  0  0  0  0999 V2000
   21.5130  -17.4817  -14.4459 N   0  0  0  0  0  0  0  0  0  0  0  0
   21.4474  -18.7480  -13.8228 C   0  0  0  0  0  0  0  0  0  0  0  0
   20.5212  -19.0514  -13.0088 O   0  0  0  0  0  0  0  0  0  0  0  0
   22.4588  -19.8079  -14.0800 C   0  0  0  0  0  0  0  0  0  0  0  0
   23.5711  -19.2537  -14.9579 C   0  0  2  0  0  0  0  0  0  0  0  0
   23.1925  -19.2426  -16.3442 N   0  0  0  0  0  0  0  0  0  0  0  0
   24.8263  -20.0019  -14.7168 C   0  0  0  0  0  0  0  0  0  0  0  0
   24.8483  -21.2589  -14.7752 O   0  0  0  0  0  0  0  0  0  0  0  0
   28.4270  -19.6833  -16.9214 C   0  0  0  0  0  0  0  0  0  0  0  0
   28.3259  -18.6271  -15.8243 C   0  0  2  0  0  0  0  0  0  0  0  0
   29.3918  -17.5945  -16.0724 C   0  0  0  0  0  0  0  0  0  0  0  0
   28.4697  -19.2485  -14.4624 C   0  0  0  0  0  0  0  0  0  0  0  0
   27.2887  -20.0770  -14.1367 C   0  0  2  0  0  0  0  0  0  0  0  0
   26.0363  -19.3532  -14.4153 N   0  0  0  0  0  0  0  0  0  0  0  0
   27.1669  -20.5882  -12.7770 C   0  0  0  0  0  0  0  0  0  0  0  0
   27.5356  -21.7510  -12.5083 O   0  0  0  0  0  0  0  0  0  0  0  0
   26.6387  -19.8333  -11.6884 N   0  0  0  0  0  0  0  0  0  0  0  0
   26.4392  -20.4375  -10.3534 C   0  0  1  0  0  0  0  0  0  0  0  0
   27.2077  -19.6151   -9.3793 C   0  0  0  0  0  0  0  0  0  0  0  0
   26.9281  -19.8323   -7.9550 C   0  0  0  0  0  0  0  0  0  0  0  0
   25.6580  -20.0137   -7.4189 C   0  0  0  0  0  0  0  0  0  0  0  0
   25.7407  -20.1585   -6.0871 N   0  0  0  0  0  0  0  0  0  0  0  0
   27.0554  -20.0736   -5.7519 C   0  0  0  0  0  0  0  0  0  0  0  0
   27.6636  -20.1723   -4.5089 C   0  0  0  0  0  0  0  0  0  0  0  0
   29.0289  -20.0699   -4.4113 C   0  0  0  0  0  0  0  0  0  0  0  0
   29.7704  -19.8689   -5.5654 C   0  0  0  0  0  0  0  0  0  0  0  0
   29.1851  -19.7701   -6.7877 C   0  0  0  0  0  0  0  0  0  0  0  0
   27.7973  -19.8737   -6.8868 C   0  0  0  0  0  0  0  0  0  0  0  0
   25.0335  -20.6783  -10.0795 C   0  0  0  0  0  0  0  0  0  0  0  0
   24.5963  -21.5921   -9.1370 O   0  0  0  0  0  0  0  0  0  0  0  0
   24.0925  -20.0635  -10.6960 O   0  0  0  0  0  0  0  0  0  0  0  0
  1  2  1  0
  2  4  1  0
  2  3  2  0
  4  5  1  0
  5  6  1  6
  7  8  2  0
  7  5  1  0
 10  9  1  6
 10 12  1  0
 11 10  1  0
 13 12  1  1
 13 14  1  0
 14  7  1  0
 15 13  1  0
 16 15  2  0
 17 15  1  0
 18 29  1  0
 18 17  1  0
 18 19  1  1
 20 19  1  0
 21 20  2  0
 22 21  1  0
 23 22  1  0
 23 28  2  0
 24 25  2  0
 24 23  1  0
 25 26  1  0
 26 27  2  0
 28 27  1  0
 28 20  1  0
 29 30  1  0
 31 29  2  0
M  END
$$$$
