NLW.pdb
     RDKit          3D

 31 32  0  0  1  0  0  0  0  0999 V2000
   21.0149  -18.0047  -15.2526 N   0  0  0  0  0  0  0  0  0  0  0  0
   21.4829  -19.0694  -16.0547 C   0  0  0  0  0  0  0  0  0  0  0  0
   20.8661  -19.4490  -17.0977 O   0  0  0  0  0  0  0  0  0  0  0  0
   22.7286  -19.8144  -15.7297 C   0  0  0  0  0  0  0  0  0  0  0  0
   23.2010  -19.4398  -14.3327 C   0  0  2  0  0  0  0  0  0  0  0  0
   23.4877  -18.0352  -14.2321 N   0  0  0  0  0  0  0  0  0  0  0  0
   24.3535  -20.2851  -13.9446 C   0  0  0  0  0  0  0  0  0  0  0  0
   24.2671  -21.5405  -13.9646 O   0  0  0  0  0  0  0  0  0  0  0  0
   27.9791  -20.6303  -15.9509 C   0  0  0  0  0  0  0  0  0  0  0  0
   27.9773  -19.4274  -15.0115 C   0  0  2  0  0  0  0  0  0  0  0  0
   29.1632  -18.5672  -15.3543 C   0  0  0  0  0  0  0  0  0  0  0  0
   28.0141  -19.8657  -13.5735 C   0  0  0  0  0  0  0  0  0  0  0  0
   26.7583  -20.5531  -13.2025 C   0  0  2  0  0  0  0  0  0  0  0  0
   25.5819  -19.7337  -13.5409 N   0  0  0  0  0  0  0  0  0  0  0  0
   26.5849  -20.9555  -11.8122 C   0  0  0  0  0  0  0  0  0  0  0  0
   27.0530  -22.0415  -11.4101 O   0  0  0  0  0  0  0  0  0  0  0  0
   25.8952  -20.1741  -10.8387 N   0  0  0  0  0  0  0  0  0  0  0  0
   25.6352  -20.6891   -9.4769 C   0  0  1  0  0  0  0  0  0  0  0  0
   26.2633  -19.7376   -8.5198 C   0  0  0  0  0  0  0  0  0  0  0  0
   27.5457  -20.1357   -7.9272 C   0  0  0  0  0  0  0  0  0  0  0  0
   28.4856  -20.9475   -8.5525 C   0  0  0  0  0  0  0  0  0  0  0  0
   29.5331  -21.1453   -7.7369 N   0  0  0  0  0  0  0  0  0  0  0  0
   29.2827  -20.4677   -6.5853 C   0  0  0  0  0  0  0  0  0  0  0  0
   30.0569  -20.3440   -5.4408 C   0  0  0  0  0  0  0  0  0  0  0  0
   29.6018  -19.5838   -4.3924 C   0  0  0  0  0  0  0  0  0  0  0  0
   28.3715  -18.9546   -4.5048 C   0  0  0  0  0  0  0  0  0  0  0  0
   27.6048  -19.0694   -5.6207 C   0  0  0  0  0  0  0  0  0  0  0  0
   28.0671  -19.8426   -6.6861 C   0  0  0  0  0  0  0  0  0  0  0  0
   24.2334  -21.0174   -9.2874 C   0  0  0  0  0  0  0  0  0  0  0  0
   23.7640  -21.7030   -8.1810 O   0  0  0  0  0  0  0  0  0  0  0  0
   23.3266  -20.6993  -10.1361 O   0  0  0  0  0  0  0  0  0  0  0  0
  1  2  1  0
  2  4  1  0
  2  3  2  0
  4  5  1  0
  5  6  1  6
  7  8  2  0
  7  5  1  0
 10  9  1  6
 10 12  1  0
 11 10  1  0
 13 12  1  1
 13 14  1  0
 14  7  1  0
 15 13  1  0
 16 15  2  0
 17 15  1  0
 18 29  1  0
 18 17  1  0
 18 19  1  1
 20 19  1  0
 21 20  2  0
 22 21  1  0
 23 22  1  0
 23 28  2  0
 24 25  2  0
 24 23  1  0
 25 26  1  0
 26 27  2  0
 28 27  1  0
 28 20  1  0
 29 30  1  0
 31 29  2  0
M  END
$$$$
