NLW.pdb
     RDKit          3D

 31 32  0  0  1  0  0  0  0  0999 V2000
   22.0869  -17.2100  -14.9792 N   0  0  0  0  0  0  0  0  0  0  0  0
   21.8676  -17.9801  -13.8152 C   0  0  0  0  0  0  0  0  0  0  0  0
   20.9668  -17.6836  -12.9707 O   0  0  0  0  0  0  0  0  0  0  0  0
   22.6774  -19.1882  -13.5035 C   0  0  0  0  0  0  0  0  0  0  0  0
   23.8856  -19.2483  -14.4264 C   0  0  2  0  0  0  0  0  0  0  0  0
   23.4915  -19.3554  -15.8043 N   0  0  0  0  0  0  0  0  0  0  0  0
   24.7893  -20.3438  -14.0062 C   0  0  0  0  0  0  0  0  0  0  0  0
   24.4794  -21.5471  -14.2064 O   0  0  0  0  0  0  0  0  0  0  0  0
   28.2784  -18.6064  -14.6576 C   0  0  0  0  0  0  0  0  0  0  0  0
   28.6007  -19.3466  -13.3624 C   0  0  2  0  0  0  0  0  0  0  0  0
   30.0389  -19.0729  -13.0152 C   0  0  0  0  0  0  0  0  0  0  0  0
   28.3411  -20.8210  -13.5046 C   0  0  0  0  0  0  0  0  0  0  0  0
   26.9798  -21.1612  -13.0372 C   0  0  2  0  0  0  0  0  0  0  0  0
   26.0192  -20.0959  -13.3724 N   0  0  0  0  0  0  0  0  0  0  0  0
   26.7949  -21.4414  -11.6186 C   0  0  0  0  0  0  0  0  0  0  0  0
   27.5554  -22.2401  -11.0323 O   0  0  0  0  0  0  0  0  0  0  0  0
   25.7726  -20.8508  -10.8185 N   0  0  0  0  0  0  0  0  0  0  0  0
   25.5657  -21.2506   -9.4098 C   0  0  1  0  0  0  0  0  0  0  0  0
   26.9094  -21.3348   -8.7747 C   0  0  0  0  0  0  0  0  0  0  0  0
   27.2660  -20.2751   -7.8239 C   0  0  0  0  0  0  0  0  0  0  0  0
   26.9442  -18.9317   -7.9825 C   0  0  0  0  0  0  0  0  0  0  0  0
   27.4367  -18.2199   -6.9567 N   0  0  0  0  0  0  0  0  0  0  0  0
   28.0762  -19.0898   -6.1308 C   0  0  0  0  0  0  0  0  0  0  0  0
   28.7362  -18.8561   -4.9331 C   0  0  0  0  0  0  0  0  0  0  0  0
   29.3018  -19.9061   -4.2537 C   0  0  0  0  0  0  0  0  0  0  0  0
   29.1984  -21.1823   -4.7853 C   0  0  0  0  0  0  0  0  0  0  0  0
   28.5548  -21.4226   -5.9578 C   0  0  0  0  0  0  0  0  0  0  0  0
   27.9805  -20.3552   -6.6486 C   0  0  0  0  0  0  0  0  0  0  0  0
   24.5585  -20.4287   -8.7625 C   0  0  0  0  0  0  0  0  0  0  0  0
   24.0908  -20.6786   -7.4846 O   0  0  0  0  0  0  0  0  0  0  0  0
   24.0243  -19.4114   -9.3315 O   0  0  0  0  0  0  0  0  0  0  0  0
  1  2  1  0
  2  4  1  0
  2  3  2  0
  4  5  1  0
  5  6  1  6
  7  8  2  0
  7  5  1  0
 10  9  1  6
 10 12  1  0
 11 10  1  0
 13 12  1  1
 13 14  1  0
 14  7  1  0
 15 13  1  0
 16 15  2  0
 17 15  1  0
 18 29  1  0
 18 17  1  0
 18 19  1  1
 20 19  1  0
 21 20  2  0
 22 21  1  0
 23 22  1  0
 23 28  2  0
 24 25  2  0
 24 23  1  0
 25 26  1  0
 26 27  2  0
 28 27  1  0
 28 20  1  0
 29 30  1  0
 31 29  2  0
M  END
$$$$
