NLW.pdb
     RDKit          3D

 31 32  0  0  1  0  0  0  0  0999 V2000
   21.6964  -17.2051  -14.8511 N   0  0  0  0  0  0  0  0  0  0  0  0
   21.5740  -18.2019  -13.8575 C   0  0  0  0  0  0  0  0  0  0  0  0
   20.5684  -18.2630  -13.0844 O   0  0  0  0  0  0  0  0  0  0  0  0
   22.6148  -19.2446  -13.6526 C   0  0  0  0  0  0  0  0  0  0  0  0
   23.7669  -19.0168  -14.6200 C   0  0  2  0  0  0  0  0  0  0  0  0
   23.3277  -19.0798  -15.9869 N   0  0  0  0  0  0  0  0  0  0  0  0
   24.8658  -19.9667  -14.3309 C   0  0  0  0  0  0  0  0  0  0  0  0
   24.7542  -21.1871  -14.6175 O   0  0  0  0  0  0  0  0  0  0  0  0
   28.1624  -20.5358  -16.3096 C   0  0  0  0  0  0  0  0  0  0  0  0
   28.3402  -19.4075  -15.2972 C   0  0  2  0  0  0  0  0  0  0  0  0
   29.5574  -18.6157  -15.6914 C   0  0  0  0  0  0  0  0  0  0  0  0
   28.4670  -19.9508  -13.9008 C   0  0  0  0  0  0  0  0  0  0  0  0
   27.1720  -20.4845  -13.4261 C   0  0  2  0  0  0  0  0  0  0  0  0
   26.0690  -19.5568  -13.7310 N   0  0  0  0  0  0  0  0  0  0  0  0
   27.0456  -20.8124  -12.0113 C   0  0  0  0  0  0  0  0  0  0  0  0
   28.0634  -21.0628  -11.3318 O   0  0  0  0  0  0  0  0  0  0  0  0
   25.8012  -20.8717  -11.3172 N   0  0  0  0  0  0  0  0  0  0  0  0
   25.7389  -21.1311   -9.8626 C   0  0  1  0  0  0  0  0  0  0  0  0
   26.6799  -20.1826   -9.2062 C   0  0  0  0  0  0  0  0  0  0  0  0
   26.6758  -20.1462   -7.7389 C   0  0  0  0  0  0  0  0  0  0  0  0
   25.5553  -20.3717   -6.9472 C   0  0  0  0  0  0  0  0  0  0  0  0
   25.8775  -20.2388   -5.6510 N   0  0  0  0  0  0  0  0  0  0  0  0
   27.1998  -19.9291   -5.5927 C   0  0  0  0  0  0  0  0  0  0  0  0
   28.0121  -19.7046   -4.4907 C   0  0  0  0  0  0  0  0  0  0  0  0
   29.3419  -19.4187   -4.6747 C   0  0  0  0  0  0  0  0  0  0  0  0
   29.8429  -19.3611   -5.9661 C   0  0  0  0  0  0  0  0  0  0  0  0
   29.0564  -19.5786   -7.0526 C   0  0  0  0  0  0  0  0  0  0  0  0
   27.7046  -19.8686   -6.8655 C   0  0  0  0  0  0  0  0  0  0  0  0
   24.3684  -21.1692   -9.3838 C   0  0  0  0  0  0  0  0  0  0  0  0
   23.2809  -20.8889  -10.1921 O   0  0  0  0  0  0  0  0  0  0  0  0
   24.0656  -21.4614   -8.1728 O   0  0  0  0  0  0  0  0  0  0  0  0
  1  2  1  0
  2  4  1  0
  2  3  2  0
  4  5  1  0
  5  6  1  6
  7  8  2  0
  7  5  1  0
 10  9  1  6
 10 12  1  0
 11 10  1  0
 13 12  1  1
 13 14  1  0
 14  7  1  0
 15 13  1  0
 16 15  2  0
 17 15  1  0
 18 29  1  0
 18 17  1  0
 18 19  1  1
 20 19  1  0
 21 20  2  0
 22 21  1  0
 23 22  1  0
 23 28  2  0
 24 25  2  0
 24 23  1  0
 25 26  1  0
 26 27  2  0
 28 27  1  0
 28 20  1  0
 29 30  1  0
 31 29  2  0
M  END
$$$$
