NLW.pdb
     RDKit          3D

 31 32  0  0  1  0  0  0  0  0999 V2000
   23.6205  -16.2631  -13.8827 N   0  0  0  0  0  0  0  0  0  0  0  0
   22.9440  -17.5026  -13.8384 C   0  0  0  0  0  0  0  0  0  0  0  0
   21.7404  -17.6276  -14.2237 O   0  0  0  0  0  0  0  0  0  0  0  0
   23.5975  -18.7415  -13.3379 C   0  0  0  0  0  0  0  0  0  0  0  0
   24.6344  -19.2174  -14.3447 C   0  0  2  0  0  0  0  0  0  0  0  0
   24.0244  -19.6026  -15.5875 N   0  0  0  0  0  0  0  0  0  0  0  0
   25.4541  -20.3000  -13.7534 C   0  0  0  0  0  0  0  0  0  0  0  0
   25.0889  -21.5017  -13.8341 O   0  0  0  0  0  0  0  0  0  0  0  0
   29.4685  -21.1271  -14.8110 C   0  0  0  0  0  0  0  0  0  0  0  0
   29.4307  -20.0609  -13.7196 C   0  0  2  0  0  0  0  0  0  0  0  0
   30.8175  -19.4960  -13.5723 C   0  0  0  0  0  0  0  0  0  0  0  0
   28.9306  -20.6342  -12.4225 C   0  0  0  0  0  0  0  0  0  0  0  0
   27.5358  -21.1060  -12.5607 C   0  0  2  0  0  0  0  0  0  0  0  0
   26.6621  -20.0411  -13.0830 N   0  0  0  0  0  0  0  0  0  0  0  0
   26.8708  -21.6292  -11.3737 C   0  0  0  0  0  0  0  0  0  0  0  0
   27.1732  -22.7573  -10.9309 O   0  0  0  0  0  0  0  0  0  0  0  0
   25.8626  -20.9247  -10.6518 N   0  0  0  0  0  0  0  0  0  0  0  0
   25.2504  -21.4884   -9.4293 C   0  0  1  0  0  0  0  0  0  0  0  0
   26.3314  -21.6130   -8.4135 C   0  0  0  0  0  0  0  0  0  0  0  0
   26.7998  -20.3739   -7.7816 C   0  0  0  0  0  0  0  0  0  0  0  0
   26.4825  -19.0941   -8.2233 C   0  0  0  0  0  0  0  0  0  0  0  0
   27.0887  -18.1804   -7.4493 N   0  0  0  0  0  0  0  0  0  0  0  0
   27.7978  -18.8555   -6.5062 C   0  0  0  0  0  0  0  0  0  0  0  0
   28.5815  -18.3720   -5.4686 C   0  0  0  0  0  0  0  0  0  0  0  0
   29.1993  -19.2537   -4.6170 C   0  0  0  0  0  0  0  0  0  0  0  0
   29.0231  -20.6142   -4.8170 C   0  0  0  0  0  0  0  0  0  0  0  0
   28.2583  -21.0987   -5.8303 C   0  0  0  0  0  0  0  0  0  0  0  0
   27.6309  -20.2025   -6.6962 C   0  0  0  0  0  0  0  0  0  0  0  0
   24.0451  -20.7705   -9.0543 C   0  0  0  0  0  0  0  0  0  0  0  0
   23.3228  -21.0587   -7.9099 O   0  0  0  0  0  0  0  0  0  0  0  0
   23.5584  -19.8176   -9.7607 O   0  0  0  0  0  0  0  0  0  0  0  0
  1  2  1  0
  2  4  1  0
  2  3  2  0
  4  5  1  0
  5  6  1  6
  7  8  2  0
  7  5  1  0
 10  9  1  6
 10 12  1  0
 11 10  1  0
 13 12  1  1
 13 14  1  0
 14  7  1  0
 15 13  1  0
 16 15  2  0
 17 15  1  0
 18 29  1  0
 18 17  1  0
 18 19  1  1
 20 19  1  0
 21 20  2  0
 22 21  1  0
 23 22  1  0
 23 28  2  0
 24 25  2  0
 24 23  1  0
 25 26  1  0
 26 27  2  0
 28 27  1  0
 28 20  1  0
 29 30  1  0
 31 29  2  0
M  END
$$$$
