NWA.pdb
     RDKit          3D

 28 29  0  0  1  0  0  0  0  0999 V2000
   18.9581  -24.0661  -13.3219 N   0  0  0  0  0  0  0  0  0  0  0  0
   19.9230  -23.4761  -14.1892 C   0  0  0  0  0  0  0  0  0  0  0  0
   20.8703  -24.1788  -14.6129 O   0  0  0  0  0  0  0  0  0  0  0  0
   19.8140  -22.0614  -14.5816 C   0  0  0  0  0  0  0  0  0  0  0  0
   20.6831  -21.2732  -13.6077 C   0  0  2  0  0  0  0  0  0  0  0  0
   19.8287  -20.8549  -12.5417 N   0  0  0  0  0  0  0  0  0  0  0  0
   21.3022  -20.0850  -14.3117 C   0  0  0  0  0  0  0  0  0  0  0  0
   20.5548  -19.2349  -14.7978 O   0  0  0  0  0  0  0  0  0  0  0  0
   22.7069  -19.9899  -14.3911 N   0  0  0  0  0  0  0  0  0  0  0  0
   23.4658  -18.9804  -15.0657 C   0  0  1  0  0  0  0  0  0  0  0  0
   24.7222  -18.6271  -14.3249 C   0  0  0  0  0  0  0  0  0  0  0  0
   25.5484  -17.5881  -14.9007 C   0  0  0  0  0  0  0  0  0  0  0  0
   25.2207  -16.2426  -14.8685 C   0  0  0  0  0  0  0  0  0  0  0  0
   26.2194  -15.5764  -15.4537 N   0  0  0  0  0  0  0  0  0  0  0  0
   27.1954  -16.4012  -15.8769 C   0  0  0  0  0  0  0  0  0  0  0  0
   28.4021  -16.1964  -16.5304 C   0  0  0  0  0  0  0  0  0  0  0  0
   29.2218  -17.2458  -16.8577 C   0  0  0  0  0  0  0  0  0  0  0  0
   28.8132  -18.5102  -16.5171 C   0  0  0  0  0  0  0  0  0  0  0  0
   27.6185  -18.7049  -15.8701 C   0  0  0  0  0  0  0  0  0  0  0  0
   26.7602  -17.6782  -15.5211 C   0  0  0  0  0  0  0  0  0  0  0  0
   23.5143  -18.9960  -16.5113 C   0  0  0  0  0  0  0  0  0  0  0  0
   23.8165  -20.0045  -17.1712 O   0  0  0  0  0  0  0  0  0  0  0  0
   21.9599  -17.4053  -19.3503 C   0  0  0  0  0  0  0  0  0  0  0  0
   23.2500  -17.9269  -18.7647 C   0  0  2  0  0  0  0  0  0  0  0  0
   23.2076  -17.8329  -17.2937 N   0  0  0  0  0  0  0  0  0  0  0  0
   24.4133  -17.1096  -19.1974 C   0  0  0  0  0  0  0  0  0  0  0  0
   24.7337  -15.8855  -18.6427 O   0  0  0  0  0  0  0  0  0  0  0  0
   25.1603  -17.5460  -20.1237 O   0  0  0  0  0  0  0  0  0  0  0  0
  2  1  1  0
  2  3  2  0
  4  5  1  0
  4  2  1  0
  5  7  1  0
  5  6  1  1
  7  8  2  0
  9 10  1  0
  9  7  1  0
 10 11  1  1
 11 12  1  0
 12 20  1  0
 13 12  2  0
 13 14  1  0
 14 15  1  0
 15 16  1  0
 16 17  2  0
 18 17  1  0
 19 18  2  0
 20 15  2  0
 20 19  1  0
 21 22  2  0
 21 10  1  0
 24 23  1  6
 24 25  1  0
 24 26  1  0
 25 21  1  0
 26 27  1  0
 28 26  2  0
M  END
$$$$
