NWA.pdb
     RDKit          3D

 28 29  0  0  1  0  0  0  0  0999 V2000
   29.6510  -24.0856  -17.8965 N   0  0  0  0  0  0  0  0  0  0  0  0
   29.9602  -23.9129  -16.5160 C   0  0  0  0  0  0  0  0  0  0  0  0
   30.7813  -24.6898  -15.9747 O   0  0  0  0  0  0  0  0  0  0  0  0
   29.3243  -22.8407  -15.7327 C   0  0  0  0  0  0  0  0  0  0  0  0
   28.4030  -22.0925  -16.6901 C   0  0  2  0  0  0  0  0  0  0  0  0
   29.2334  -21.2260  -17.4652 N   0  0  0  0  0  0  0  0  0  0  0  0
   27.3717  -21.3078  -15.9083 C   0  0  0  0  0  0  0  0  0  0  0  0
   27.7610  -20.4218  -15.1461 O   0  0  0  0  0  0  0  0  0  0  0  0
   26.0054  -21.6152  -16.0738 N   0  0  0  0  0  0  0  0  0  0  0  0
   24.8971  -21.0044  -15.4041 C   0  0  1  0  0  0  0  0  0  0  0  0
   23.8196  -20.5842  -16.3603 C   0  0  0  0  0  0  0  0  0  0  0  0
   22.6155  -20.0275  -15.7823 C   0  0  0  0  0  0  0  0  0  0  0  0
   22.5910  -18.8561  -15.0434 C   0  0  0  0  0  0  0  0  0  0  0  0
   21.3198  -18.6267  -14.7045 N   0  0  0  0  0  0  0  0  0  0  0  0
   20.4933  -19.5799  -15.1739 C   0  0  0  0  0  0  0  0  0  0  0  0
   19.1241  -19.7852  -15.0846 C   0  0  0  0  0  0  0  0  0  0  0  0
   18.5278  -20.8744  -15.6662 C   0  0  0  0  0  0  0  0  0  0  0  0
   19.3279  -21.7589  -16.3438 C   0  0  0  0  0  0  0  0  0  0  0  0
   20.6816  -21.5488  -16.4285 C   0  0  0  0  0  0  0  0  0  0  0  0
   21.3260  -20.4664  -15.8579 C   0  0  0  0  0  0  0  0  0  0  0  0
   24.4937  -21.5200  -14.1142 C   0  0  0  0  0  0  0  0  0  0  0  0
   24.1716  -22.7051  -13.9254 O   0  0  0  0  0  0  0  0  0  0  0  0
   24.7133  -20.5525  -10.5222 C   0  0  0  0  0  0  0  0  0  0  0  0
   24.0400  -21.2833  -11.6588 C   0  0  2  0  0  0  0  0  0  0  0  0
   24.4417  -20.6875  -12.9465 N   0  0  0  0  0  0  0  0  0  0  0  0
   22.5611  -21.1548  -11.5877 C   0  0  0  0  0  0  0  0  0  0  0  0
   21.7602  -21.9776  -10.8196 O   0  0  0  0  0  0  0  0  0  0  0  0
   21.9902  -20.2463  -12.2625 O   0  0  0  0  0  0  0  0  0  0  0  0
  2  1  1  0
  2  3  2  0
  4  5  1  0
  4  2  1  0
  5  7  1  0
  5  6  1  1
  7  8  2  0
  9 10  1  0
  9  7  1  0
 10 11  1  6
 11 12  1  0
 12 20  1  0
 13 12  2  0
 13 14  1  0
 14 15  1  0
 15 16  1  0
 16 17  2  0
 18 17  1  0
 19 18  2  0
 20 15  2  0
 20 19  1  0
 21 22  2  0
 21 10  1  0
 24 23  1  1
 24 25  1  0
 24 26  1  0
 25 21  1  0
 26 27  1  0
 28 26  2  0
M  END
$$$$
