NWA.pdb
     RDKit          3D

 28 29  0  0  1  0  0  0  0  0999 V2000
   18.1948  -13.7157  -18.0770 N   0  0  0  0  0  0  0  0  0  0  0  0
   17.0239  -12.9037  -18.1118 C   0  0  0  0  0  0  0  0  0  0  0  0
   15.9683  -13.3788  -18.5922 O   0  0  0  0  0  0  0  0  0  0  0  0
   17.0505  -11.5256  -17.5948 C   0  0  0  0  0  0  0  0  0  0  0  0
   18.0115  -11.5251  -16.4110 C   0  0  2  0  0  0  0  0  0  0  0  0
   17.3525  -12.2151  -15.3475 N   0  0  0  0  0  0  0  0  0  0  0  0
   18.3458  -10.1026  -16.0166 C   0  0  0  0  0  0  0  0  0  0  0  0
   17.4203   -9.3113  -15.8306 O   0  0  0  0  0  0  0  0  0  0  0  0
   19.6985   -9.7290  -15.8777 N   0  0  0  0  0  0  0  0  0  0  0  0
   20.2099   -8.4108  -15.6524 C   0  0  1  0  0  0  0  0  0  0  0  0
   21.6086   -8.4315  -15.1090 C   0  0  0  0  0  0  0  0  0  0  0  0
   22.2617   -7.1514  -14.9401 C   0  0  0  0  0  0  0  0  0  0  0  0
   21.9147   -6.2379  -13.9583 C   0  0  0  0  0  0  0  0  0  0  0  0
   22.7434   -5.1969  -14.0736 N   0  0  0  0  0  0  0  0  0  0  0  0
   23.6236   -5.3625  -15.0784 C   0  0  0  0  0  0  0  0  0  0  0  0
   24.6520   -4.5813  -15.5854 C   0  0  0  0  0  0  0  0  0  0  0  0
   25.4066   -5.0011  -16.6506 C   0  0  0  0  0  0  0  0  0  0  0  0
   25.1151   -6.2227  -17.2021 C   0  0  0  0  0  0  0  0  0  0  0  0
   24.0968   -6.9903  -16.6947 C   0  0  0  0  0  0  0  0  0  0  0  0
   23.3098   -6.6079  -15.6236 C   0  0  0  0  0  0  0  0  0  0  0  0
   19.8616   -7.3607  -16.5842 C   0  0  0  0  0  0  0  0  0  0  0  0
   20.1174   -7.4162  -17.7989 O   0  0  0  0  0  0  0  0  0  0  0  0
   17.4706   -4.6064  -16.9387 C   0  0  0  0  0  0  0  0  0  0  0  0
   18.8669   -5.1331  -17.1665 C   0  0  2  0  0  0  0  0  0  0  0  0
   19.1826   -6.1682  -16.1648 N   0  0  0  0  0  0  0  0  0  0  0  0
   19.8860   -4.0654  -16.9922 C   0  0  0  0  0  0  0  0  0  0  0  0
   20.2194   -3.1608  -17.9817 O   0  0  0  0  0  0  0  0  0  0  0  0
   20.4896   -3.9675  -15.8820 O   0  0  0  0  0  0  0  0  0  0  0  0
  2  1  1  0
  2  3  2  0
  4  5  1  0
  4  2  1  0
  5  7  1  0
  5  6  1  1
  7  8  2  0
  9 10  1  0
  9  7  1  0
 10 11  1  6
 11 12  1  0
 12 20  1  0
 13 12  2  0
 13 14  1  0
 14 15  1  0
 15 16  1  0
 16 17  2  0
 18 17  1  0
 19 18  2  0
 20 15  2  0
 20 19  1  0
 21 22  2  0
 21 10  1  0
 24 23  1  1
 24 25  1  0
 24 26  1  0
 25 21  1  0
 26 27  1  0
 28 26  2  0
M  END
$$$$
