NWA.pdb
     RDKit          3D

 28 29  0  0  1  0  0  0  0  0999 V2000
   28.0818  -16.7977  -15.1068 N   0  0  0  0  0  0  0  0  0  0  0  0
   28.2024  -17.9069  -15.9936 C   0  0  0  0  0  0  0  0  0  0  0  0
   28.4337  -17.6935  -17.2067 O   0  0  0  0  0  0  0  0  0  0  0  0
   28.0549  -19.2848  -15.4966 C   0  0  0  0  0  0  0  0  0  0  0  0
   27.7566  -19.1781  -14.0051 C   0  0  2  0  0  0  0  0  0  0  0  0
   29.0179  -19.1677  -13.3343 N   0  0  0  0  0  0  0  0  0  0  0  0
   26.9100  -20.3516  -13.5616 C   0  0  0  0  0  0  0  0  0  0  0  0
   27.1344  -21.4579  -14.0547 O   0  0  0  0  0  0  0  0  0  0  0  0
   25.8949  -20.1428  -12.6052 N   0  0  0  0  0  0  0  0  0  0  0  0
   24.9067  -21.0863  -12.1770 C   0  0  1  0  0  0  0  0  0  0  0  0
   24.8568  -21.2149  -10.6827 C   0  0  0  0  0  0  0  0  0  0  0  0
   26.0178  -20.7583   -9.9498 C   0  0  0  0  0  0  0  0  0  0  0  0
   25.9599  -19.8289   -8.9243 C   0  0  0  0  0  0  0  0  0  0  0  0
   27.2012  -19.6763   -8.4559 N   0  0  0  0  0  0  0  0  0  0  0  0
   28.0860  -20.4501   -9.1118 C   0  0  0  0  0  0  0  0  0  0  0  0
   29.4564  -20.6370   -9.0025 C   0  0  0  0  0  0  0  0  0  0  0  0
   30.1248  -21.5054   -9.8268 C   0  0  0  0  0  0  0  0  0  0  0  0
   29.3955  -22.1888  -10.7663 C   0  0  0  0  0  0  0  0  0  0  0  0
   28.0400  -21.9993  -10.8680 C   0  0  0  0  0  0  0  0  0  0  0  0
   27.3246  -21.1345  -10.0599 C   0  0  0  0  0  0  0  0  0  0  0  0
   23.6593  -21.1658  -12.9050 C   0  0  0  0  0  0  0  0  0  0  0  0
   23.0337  -20.1654  -13.2949 O   0  0  0  0  0  0  0  0  0  0  0  0
   21.5900  -23.7927  -14.6344 C   0  0  0  0  0  0  0  0  0  0  0  0
   21.8005  -22.4320  -14.0152 C   0  0  2  0  0  0  0  0  0  0  0  0
   23.0524  -22.4233  -13.2360 N   0  0  0  0  0  0  0  0  0  0  0  0
   20.7152  -22.0970  -13.0566 C   0  0  0  0  0  0  0  0  0  0  0  0
   19.4640  -21.6580  -13.4445 O   0  0  0  0  0  0  0  0  0  0  0  0
   20.9348  -22.2154  -11.8140 O   0  0  0  0  0  0  0  0  0  0  0  0
  2  1  1  0
  2  3  2  0
  4  5  1  0
  4  2  1  0
  5  7  1  0
  5  6  1  1
  7  8  2  0
  9 10  1  0
  9  7  1  0
 10 11  1  1
 11 12  1  0
 12 20  1  0
 13 12  2  0
 13 14  1  0
 14 15  1  0
 15 16  1  0
 16 17  2  0
 18 17  1  0
 19 18  2  0
 20 15  2  0
 20 19  1  0
 21 22  2  0
 21 10  1  0
 24 23  1  1
 24 25  1  0
 24 26  1  0
 25 21  1  0
 26 27  1  0
 28 26  2  0
M  END
$$$$
