NWA.pdb
     RDKit          3D

 28 29  0  0  1  0  0  0  0  0999 V2000
   15.8125  -13.2686  -16.6113 N   0  0  0  0  0  0  0  0  0  0  0  0
   16.3970  -13.1212  -15.3197 C   0  0  0  0  0  0  0  0  0  0  0  0
   15.7725  -13.5417  -14.3178 O   0  0  0  0  0  0  0  0  0  0  0  0
   17.7136  -12.4822  -15.1601 C   0  0  0  0  0  0  0  0  0  0  0  0
   18.1901  -12.1154  -16.5614 C   0  0  2  0  0  0  0  0  0  0  0  0
   18.9615  -13.2209  -17.0347 N   0  0  0  0  0  0  0  0  0  0  0  0
   19.0195  -10.8504  -16.5111 C   0  0  0  0  0  0  0  0  0  0  0  0
   20.1950  -10.9321  -16.1518 O   0  0  0  0  0  0  0  0  0  0  0  0
   18.4238   -9.6244  -16.8726 N   0  0  0  0  0  0  0  0  0  0  0  0
   19.0358   -8.3301  -16.8546 C   0  0  1  0  0  0  0  0  0  0  0  0
   18.3813   -7.3811  -17.8154 C   0  0  0  0  0  0  0  0  0  0  0  0
   18.5174   -7.6823  -19.2241 C   0  0  0  0  0  0  0  0  0  0  0  0
   19.2426   -8.7572  -19.7113 C   0  0  0  0  0  0  0  0  0  0  0  0
   19.1194   -8.7495  -21.0411 N   0  0  0  0  0  0  0  0  0  0  0  0
   18.3541   -7.7288  -21.4703 C   0  0  0  0  0  0  0  0  0  0  0  0
   17.9470   -7.3030  -22.7265 C   0  0  0  0  0  0  0  0  0  0  0  0
   17.1529   -6.1958  -22.8805 C   0  0  0  0  0  0  0  0  0  0  0  0
   16.7692   -5.5187  -21.7508 C   0  0  0  0  0  0  0  0  0  0  0  0
   17.1752   -5.9464  -20.5115 C   0  0  0  0  0  0  0  0  0  0  0  0
   17.9758   -7.0556  -20.3082 C   0  0  0  0  0  0  0  0  0  0  0  0
   19.5045   -7.7997  -15.5931 C   0  0  0  0  0  0  0  0  0  0  0  0
   18.7416   -7.4253  -14.6866 O   0  0  0  0  0  0  0  0  0  0  0  0
   22.3932   -8.0731  -13.4020 C   0  0  0  0  0  0  0  0  0  0  0  0
   21.3108   -7.1843  -13.9655 C   0  0  2  0  0  0  0  0  0  0  0  0
   20.9025   -7.6723  -15.2958 N   0  0  0  0  0  0  0  0  0  0  0  0
   21.7983   -5.7948  -14.1672 C   0  0  0  0  0  0  0  0  0  0  0  0
   22.0736   -4.9252  -13.1296 O   0  0  0  0  0  0  0  0  0  0  0  0
   21.9755   -5.3712  -15.3486 O   0  0  0  0  0  0  0  0  0  0  0  0
  2  1  1  0
  2  3  2  0
  4  5  1  0
  4  2  1  0
  5  7  1  0
  5  6  1  1
  7  8  2  0
  9 10  1  0
  9  7  1  0
 10 11  1  1
 11 12  1  0
 12 20  1  0
 13 12  2  0
 13 14  1  0
 14 15  1  0
 15 16  1  0
 16 17  2  0
 18 17  1  0
 19 18  2  0
 20 15  2  0
 20 19  1  0
 21 22  2  0
 21 10  1  0
 24 23  1  6
 24 25  1  0
 24 26  1  0
 25 21  1  0
 26 27  1  0
 28 26  2  0
M  END
$$$$
