NWA.pdb
     RDKit          3D

 28 29  0  0  1  0  0  0  0  0999 V2000
   18.2776  -13.0565  -21.3098 N   0  0  0  0  0  0  0  0  0  0  0  0
   17.9350  -11.7606  -20.8251 C   0  0  0  0  0  0  0  0  0  0  0  0
   17.1603  -11.0437  -21.5008 O   0  0  0  0  0  0  0  0  0  0  0  0
   18.4834  -11.2663  -19.5514 C   0  0  0  0  0  0  0  0  0  0  0  0
   19.3863  -12.3698  -19.0109 C   0  0  2  0  0  0  0  0  0  0  0  0
   18.5312  -13.3352  -18.3962 N   0  0  0  0  0  0  0  0  0  0  0  0
   20.3675  -11.7931  -18.0133 C   0  0  0  0  0  0  0  0  0  0  0  0
   19.9363  -11.3826  -16.9348 O   0  0  0  0  0  0  0  0  0  0  0  0
   21.7364  -11.7416  -18.3483 N   0  0  0  0  0  0  0  0  0  0  0  0
   22.7780  -11.0827  -17.6197 C   0  0  1  0  0  0  0  0  0  0  0  0
   24.0816  -11.8214  -17.7031 C   0  0  0  0  0  0  0  0  0  0  0  0
   25.1783  -11.2995  -16.9166 C   0  0  0  0  0  0  0  0  0  0  0  0
   25.1807  -11.2670  -15.5318 C   0  0  0  0  0  0  0  0  0  0  0  0
   26.3558  -10.7613  -15.1483 N   0  0  0  0  0  0  0  0  0  0  0  0
   27.1383  -10.4522  -16.1990 C   0  0  0  0  0  0  0  0  0  0  0  0
   28.4099   -9.9096  -16.3157 C   0  0  0  0  0  0  0  0  0  0  0  0
   28.9794   -9.6871  -17.5431 C   0  0  0  0  0  0  0  0  0  0  0  0
   28.2526  -10.0196  -18.6579 C   0  0  0  0  0  0  0  0  0  0  0  0
   26.9956  -10.5566  -18.5346 C   0  0  0  0  0  0  0  0  0  0  0  0
   26.3815  -10.7978  -17.3192 C   0  0  0  0  0  0  0  0  0  0  0  0
   22.8185   -9.6368  -17.6180 C   0  0  0  0  0  0  0  0  0  0  0  0
   22.9682   -8.9589  -18.6486 O   0  0  0  0  0  0  0  0  0  0  0  0
   21.8483   -6.9240  -17.6213 C   0  0  0  0  0  0  0  0  0  0  0  0
   22.7165   -7.4026  -16.4827 C   0  0  2  0  0  0  0  0  0  0  0  0
   22.6817   -8.8750  -16.4096 N   0  0  0  0  0  0  0  0  0  0  0  0
   22.2144   -6.9122  -15.1727 C   0  0  0  0  0  0  0  0  0  0  0  0
   22.2701   -5.5883  -14.7820 O   0  0  0  0  0  0  0  0  0  0  0  0
   21.7056   -7.7414  -14.3602 O   0  0  0  0  0  0  0  0  0  0  0  0
  2  1  1  0
  2  3  2  0
  4  5  1  0
  4  2  1  0
  5  7  1  0
  5  6  1  1
  7  8  2  0
  9 10  1  0
  9  7  1  0
 10 11  1  6
 11 12  1  0
 12 20  1  0
 13 12  2  0
 13 14  1  0
 14 15  1  0
 15 16  1  0
 16 17  2  0
 18 17  1  0
 19 18  2  0
 20 15  2  0
 20 19  1  0
 21 22  2  0
 21 10  1  0
 24 23  1  6
 24 25  1  0
 24 26  1  0
 25 21  1  0
 26 27  1  0
 28 26  2  0
M  END
$$$$
