NWA.pdb
     RDKit          3D

 28 29  0  0  1  0  0  0  0  0999 V2000
   29.7130  -20.9023  -17.6434 N   0  0  0  0  0  0  0  0  0  0  0  0
   28.5155  -20.1325  -17.7137 C   0  0  0  0  0  0  0  0  0  0  0  0
   28.4662  -19.1544  -18.4957 O   0  0  0  0  0  0  0  0  0  0  0  0
   27.3523  -20.4759  -16.8793 C   0  0  0  0  0  0  0  0  0  0  0  0
   27.7635  -21.6780  -16.0360 C   0  0  2  0  0  0  0  0  0  0  0  0
   27.6694  -22.8246  -16.8831 N   0  0  0  0  0  0  0  0  0  0  0  0
   26.8486  -21.8062  -14.8372 C   0  0  0  0  0  0  0  0  0  0  0  0
   25.6846  -22.1649  -15.0218 O   0  0  0  0  0  0  0  0  0  0  0  0
   27.3533  -21.5103  -13.5541 N   0  0  0  0  0  0  0  0  0  0  0  0
   26.5984  -21.3351  -12.3501 C   0  0  1  0  0  0  0  0  0  0  0  0
   27.4808  -21.1404  -11.1520 C   0  0  0  0  0  0  0  0  0  0  0  0
   26.8354  -20.7141   -9.9291 C   0  0  0  0  0  0  0  0  0  0  0  0
   25.4733  -20.4872   -9.8205 C   0  0  0  0  0  0  0  0  0  0  0  0
   25.2270  -20.1474   -8.5527 N   0  0  0  0  0  0  0  0  0  0  0  0
   26.3482  -20.1327   -7.8081 C   0  0  0  0  0  0  0  0  0  0  0  0
   26.6060  -19.8447   -6.4755 C   0  0  0  0  0  0  0  0  0  0  0  0
   27.8785  -19.9016   -5.9678 C   0  0  0  0  0  0  0  0  0  0  0  0
   28.8942  -20.2551   -6.8191 C   0  0  0  0  0  0  0  0  0  0  0  0
   28.6315  -20.5393   -8.1359 C   0  0  0  0  0  0  0  0  0  0  0  0
   27.3659  -20.4943   -8.6916 C   0  0  0  0  0  0  0  0  0  0  0  0
   25.3608  -20.5885  -12.4074 C   0  0  0  0  0  0  0  0  0  0  0  0
   25.3113  -19.3479  -12.3577 O   0  0  0  0  0  0  0  0  0  0  0  0
   22.4210  -20.5702  -14.1893 C   0  0  0  0  0  0  0  0  0  0  0  0
   22.8834  -20.4180  -12.7603 C   0  0  2  0  0  0  0  0  0  0  0  0
   24.0874  -21.2383  -12.5323 N   0  0  0  0  0  0  0  0  0  0  0  0
   21.8601  -20.9114  -11.8021 C   0  0  0  0  0  0  0  0  0  0  0  0
   21.7817  -22.2242  -11.3791 O   0  0  0  0  0  0  0  0  0  0  0  0
   21.0072  -20.0956  -11.3399 O   0  0  0  0  0  0  0  0  0  0  0  0
  2  1  1  0
  2  3  2  0
  4  5  1  0
  4  2  1  0
  5  7  1  0
  5  6  1  6
  7  8  2  0
  9 10  1  0
  9  7  1  0
 10 11  1  1
 11 12  1  0
 12 20  1  0
 13 12  2  0
 13 14  1  0
 14 15  1  0
 15 16  1  0
 16 17  2  0
 18 17  1  0
 19 18  2  0
 20 15  2  0
 20 19  1  0
 21 22  2  0
 21 10  1  0
 24 23  1  6
 24 25  1  0
 24 26  1  0
 25 21  1  0
 26 27  1  0
 28 26  2  0
M  END
$$$$
