NWA.pdb
     RDKit          3D

 28 29  0  0  1  0  0  0  0  0999 V2000
   27.5929  -20.9259  -18.5758 N   0  0  0  0  0  0  0  0  0  0  0  0
   26.9852  -20.3936  -17.4015 C   0  0  0  0  0  0  0  0  0  0  0  0
   27.0877  -19.1669  -17.1662 O   0  0  0  0  0  0  0  0  0  0  0  0
   26.2495  -21.2689  -16.4743 C   0  0  0  0  0  0  0  0  0  0  0  0
   26.9306  -21.1325  -15.1168 C   0  0  2  0  0  0  0  0  0  0  0  0
   28.0832  -21.9761  -15.1497 N   0  0  0  0  0  0  0  0  0  0  0  0
   25.9786  -21.5485  -14.0162 C   0  0  0  0  0  0  0  0  0  0  0  0
   25.4422  -22.6549  -14.0902 O   0  0  0  0  0  0  0  0  0  0  0  0
   25.7348  -20.6608  -12.9480 N   0  0  0  0  0  0  0  0  0  0  0  0
   24.7552  -20.8050  -11.9138 C   0  0  1  0  0  0  0  0  0  0  0  0
   25.1976  -20.1788  -10.6238 C   0  0  0  0  0  0  0  0  0  0  0  0
   26.4480  -20.6475  -10.0665 C   0  0  0  0  0  0  0  0  0  0  0  0
   27.3571  -21.4221  -10.7681 C   0  0  0  0  0  0  0  0  0  0  0  0
   28.4022  -21.6342   -9.9641 N   0  0  0  0  0  0  0  0  0  0  0  0
   28.2420  -21.0464   -8.7639 C   0  0  0  0  0  0  0  0  0  0  0  0
   29.0235  -20.9843   -7.6191 C   0  0  0  0  0  0  0  0  0  0  0  0
   28.6024  -20.3040   -6.5054 C   0  0  0  0  0  0  0  0  0  0  0  0
   27.3809  -19.6821   -6.5566 C   0  0  0  0  0  0  0  0  0  0  0  0
   26.6138  -19.7473   -7.6928 C   0  0  0  0  0  0  0  0  0  0  0  0
   26.9967  -20.4214   -8.8380 C   0  0  0  0  0  0  0  0  0  0  0  0
   23.3548  -20.7145  -12.2645 C   0  0  0  0  0  0  0  0  0  0  0  0
   22.7683  -19.6350  -12.4513 O   0  0  0  0  0  0  0  0  0  0  0  0
   20.6107  -22.9686  -13.4672 C   0  0  0  0  0  0  0  0  0  0  0  0
   21.1170  -21.7166  -12.7924 C   0  0  2  0  0  0  0  0  0  0  0  0
   22.5363  -21.8817  -12.4280 N   0  0  0  0  0  0  0  0  0  0  0  0
   20.3925  -21.4526  -11.5219 C   0  0  0  0  0  0  0  0  0  0  0  0
   19.1221  -20.9127  -11.4667 O   0  0  0  0  0  0  0  0  0  0  0  0
   20.9579  -21.7325  -10.4226 O   0  0  0  0  0  0  0  0  0  0  0  0
  2  1  1  0
  2  3  2  0
  4  5  1  0
  4  2  1  0
  5  7  1  0
  5  6  1  6
  7  8  2  0
  9 10  1  0
  9  7  1  0
 10 11  1  1
 11 12  1  0
 12 20  1  0
 13 12  2  0
 13 14  1  0
 14 15  1  0
 15 16  1  0
 16 17  2  0
 18 17  1  0
 19 18  2  0
 20 15  2  0
 20 19  1  0
 21 22  2  0
 21 10  1  0
 24 23  1  1
 24 25  1  0
 24 26  1  0
 25 21  1  0
 26 27  1  0
 28 26  2  0
M  END
$$$$
