NWA.pdb
     RDKit          3D

 28 29  0  0  1  0  0  0  0  0999 V2000
   29.1969  -20.9233  -18.3625 N   0  0  0  0  0  0  0  0  0  0  0  0
   27.9121  -21.4220  -18.7260 C   0  0  0  0  0  0  0  0  0  0  0  0
   27.5012  -21.2481  -19.8971 O   0  0  0  0  0  0  0  0  0  0  0  0
   27.0754  -22.1288  -17.7423 C   0  0  0  0  0  0  0  0  0  0  0  0
   27.8738  -22.1697  -16.4438 C   0  0  2  0  0  0  0  0  0  0  0  0
   28.6817  -23.3468  -16.4960 N   0  0  0  0  0  0  0  0  0  0  0  0
   26.9329  -22.2033  -15.2588 C   0  0  0  0  0  0  0  0  0  0  0  0
   26.3862  -23.2695  -14.9725 O   0  0  0  0  0  0  0  0  0  0  0  0
   26.7106  -21.0197  -14.5252 N   0  0  0  0  0  0  0  0  0  0  0  0
   25.7988  -20.8388  -13.4363 C   0  0  1  0  0  0  0  0  0  0  0  0
   26.3350  -19.8952  -12.3998 C   0  0  0  0  0  0  0  0  0  0  0  0
   27.3673  -20.4065  -11.5242 C   0  0  0  0  0  0  0  0  0  0  0  0
   28.6215  -20.7963  -11.9643 C   0  0  0  0  0  0  0  0  0  0  0  0
   29.3196  -21.1742  -10.8903 N   0  0  0  0  0  0  0  0  0  0  0  0
   28.6019  -21.0606   -9.7572 C   0  0  0  0  0  0  0  0  0  0  0  0
   28.8748  -21.3271   -8.4232 C   0  0  0  0  0  0  0  0  0  0  0  0
   27.9321  -21.1221   -7.4487 C   0  0  0  0  0  0  0  0  0  0  0  0
   26.7058  -20.6419   -7.8325 C   0  0  0  0  0  0  0  0  0  0  0  0
   26.4435  -20.3799   -9.1539 C   0  0  0  0  0  0  0  0  0  0  0  0
   27.3619  -20.5718  -10.1700 C   0  0  0  0  0  0  0  0  0  0  0  0
   24.3800  -20.8017  -13.7157 C   0  0  0  0  0  0  0  0  0  0  0  0
   23.8414  -19.9042  -14.3853 O   0  0  0  0  0  0  0  0  0  0  0  0
   21.4229  -23.0967  -13.5110 C   0  0  0  0  0  0  0  0  0  0  0  0
   22.0527  -21.7261  -13.5744 C   0  0  2  0  0  0  0  0  0  0  0  0
   23.4852  -21.8159  -13.2361 N   0  0  0  0  0  0  0  0  0  0  0  0
   21.4498  -20.8039  -12.5770 C   0  0  0  0  0  0  0  0  0  0  0  0
   20.2658  -20.1234  -12.7858 O   0  0  0  0  0  0  0  0  0  0  0  0
   22.0423  -20.6222  -11.4714 O   0  0  0  0  0  0  0  0  0  0  0  0
  2  1  1  0
  2  3  2  0
  4  5  1  0
  4  2  1  0
  5  7  1  0
  5  6  1  6
  7  8  2  0
  9 10  1  0
  9  7  1  0
 10 11  1  6
 11 12  1  0
 12 20  1  0
 13 12  2  0
 13 14  1  0
 14 15  1  0
 15 16  1  0
 16 17  2  0
 18 17  1  0
 19 18  2  0
 20 15  2  0
 20 19  1  0
 21 22  2  0
 21 10  1  0
 24 23  1  1
 24 25  1  0
 24 26  1  0
 25 21  1  0
 26 27  1  0
 28 26  2  0
M  END
$$$$
