HKN.pdb
     RDKit          3D

 28 28  0  0  1  0  0  0  0  0999 V2000
   16.4847  -11.4607  -10.5517 N   0  0  0  0  0  0  0  0  0  0  0  0
   15.5942  -10.3064  -10.6570 C   0  0  1  0  0  0  0  0  0  0  0  0
   14.4486  -10.4770   -9.6645 C   0  0  0  0  0  0  0  0  0  0  0  0
   13.5082  -11.5308  -10.1210 C   0  0  0  0  0  0  0  0  0  0  0  0
   12.4674  -11.3466  -11.0056 C   0  0  0  0  0  0  0  0  0  0  0  0
   11.8554  -12.5248  -11.1643 N   0  0  0  0  0  0  0  0  0  0  0  0
   12.5117  -13.4052  -10.3918 C   0  0  0  0  0  0  0  0  0  0  0  0
   13.5267  -12.8045   -9.7484 N   0  0  0  0  0  0  0  0  0  0  0  0
   16.3971   -9.1087  -10.3070 C   0  0  0  0  0  0  0  0  0  0  0  0
   17.1028   -9.1407   -9.2669 O   0  0  0  0  0  0  0  0  0  0  0  0
   16.3943   -7.9379  -11.1016 N   0  0  0  0  0  0  0  0  0  0  0  0
   17.2081   -6.7685  -10.6932 C   0  0  1  0  0  0  0  0  0  0  0  0
   18.1669   -6.4335  -11.7906 C   0  0  0  0  0  0  0  0  0  0  0  0
   19.2659   -7.4311  -11.8954 C   0  0  0  0  0  0  0  0  0  0  0  0
   20.1487   -7.1973  -13.1110 C   0  0  0  0  0  0  0  0  0  0  0  0
   21.2160   -8.2622  -13.2359 C   0  0  0  0  0  0  0  0  0  0  0  0
   21.9781   -8.1062  -14.4536 N   0  0  0  0  0  0  0  0  0  0  0  0
   16.3109   -5.7308  -10.2288 C   0  0  0  0  0  0  0  0  0  0  0  0
   15.2990   -5.4617  -10.9747 O   0  0  0  0  0  0  0  0  0  0  0  0
   12.9180   -4.9008   -8.3312 N   0  0  0  0  0  0  0  0  0  0  0  0
   13.6962   -4.5446   -7.1868 C   0  0  0  0  0  0  0  0  0  0  0  0
   13.1840   -4.7521   -6.0537 O   0  0  0  0  0  0  0  0  0  0  0  0
   15.0475   -3.9560   -7.2992 C   0  0  0  0  0  0  0  0  0  0  0  0
   15.4489   -3.9184   -8.7478 C   0  0  2  0  0  0  0  0  0  0  0  0
   16.4102   -4.9803   -9.0525 N   0  0  0  0  0  0  0  0  0  0  0  0
   15.9461   -2.6112   -9.2092 C   0  0  0  0  0  0  0  0  0  0  0  0
   15.1692   -1.6519   -9.8260 O   0  0  0  0  0  0  0  0  0  0  0  0
   17.1751   -2.3142   -9.0434 O   0  0  0  0  0  0  0  0  0  0  0  0
  2  1  1  1
  2  3  1  0
  4  3  1  0
  5  4  2  0
  6  5  1  0
  7  6  1  0
  7  8  2  0
  8  4  1  0
  9  2  1  0
 10  9  2  0
 11  9  1  0
 12 11  1  0
 12 13  1  6
 13 14  1  0
 14 15  1  0
 16 15  1  0
 17 16  1  0
 18 12  1  0
 19 18  2  0
 20 21  1  0
 21 22  2  0
 21 23  1  0
 24 23  1  1
 24 25  1  0
 25 18  1  0
 26 24  1  0
 27 26  1  0
 28 26  2  0
M  END
$$$$
