HKN.pdb
     RDKit          3D

 28 28  0  0  1  0  0  0  0  0999 V2000
   28.1017  -22.9208  -17.1544 N   0  0  0  0  0  0  0  0  0  0  0  0
   28.0277  -21.5210  -16.7406 C   0  0  1  0  0  0  0  0  0  0  0  0
   27.5164  -20.6882  -17.9118 C   0  0  0  0  0  0  0  0  0  0  0  0
   28.5632  -20.5469  -18.9547 C   0  0  0  0  0  0  0  0  0  0  0  0
   29.5725  -19.6084  -18.9540 C   0  0  0  0  0  0  0  0  0  0  0  0
   30.3080  -19.8016  -20.0538 N   0  0  0  0  0  0  0  0  0  0  0  0
   29.7560  -20.8360  -20.7078 C   0  0  0  0  0  0  0  0  0  0  0  0
   28.6855  -21.2994  -20.0411 N   0  0  0  0  0  0  0  0  0  0  0  0
   27.0673  -21.4552  -15.6113 C   0  0  0  0  0  0  0  0  0  0  0  0
   25.9761  -22.0714  -15.7132 O   0  0  0  0  0  0  0  0  0  0  0  0
   27.3384  -20.7252  -14.4299 N   0  0  0  0  0  0  0  0  0  0  0  0
   26.3259  -20.6708  -13.3489 C   0  0  1  0  0  0  0  0  0  0  0  0
   26.9320  -20.0251  -12.1441 C   0  0  0  0  0  0  0  0  0  0  0  0
   25.9128  -19.7134  -11.1057 C   0  0  0  0  0  0  0  0  0  0  0  0
   25.2437  -20.9626  -10.5549 C   0  0  0  0  0  0  0  0  0  0  0  0
   24.1254  -20.6175   -9.5963 C   0  0  0  0  0  0  0  0  0  0  0  0
   23.4863  -21.8061   -9.0800 N   0  0  0  0  0  0  0  0  0  0  0  0
   25.1113  -20.0993  -13.8927 C   0  0  0  0  0  0  0  0  0  0  0  0
   25.2493  -19.1854  -14.7862 O   0  0  0  0  0  0  0  0  0  0  0  0
   21.5845  -18.2370  -17.2119 N   0  0  0  0  0  0  0  0  0  0  0  0
   21.5357  -19.3705  -16.3432 C   0  0  0  0  0  0  0  0  0  0  0  0
   20.4032  -19.8768  -16.1186 O   0  0  0  0  0  0  0  0  0  0  0  0
   22.7473  -19.9449  -15.7211 C   0  0  0  0  0  0  0  0  0  0  0  0
   22.6610  -19.7776  -14.2292 C   0  0  2  0  0  0  0  0  0  0  0  0
   23.7920  -20.4272  -13.5632 N   0  0  0  0  0  0  0  0  0  0  0  0
   21.3834  -20.2127  -13.6396 C   0  0  0  0  0  0  0  0  0  0  0  0
   20.2602  -19.4182  -13.5330 O   0  0  0  0  0  0  0  0  0  0  0  0
   21.2747  -21.3994  -13.1857 O   0  0  0  0  0  0  0  0  0  0  0  0
  2  1  1  6
  2  3  1  0
  4  3  1  0
  5  4  2  0
  6  5  1  0
  7  6  1  0
  7  8  2  0
  8  4  1  0
  9  2  1  0
 10  9  2  0
 11  9  1  0
 12 11  1  0
 12 13  1  1
 13 14  1  0
 14 15  1  0
 16 15  1  0
 17 16  1  0
 18 12  1  0
 19 18  2  0
 20 21  1  0
 21 22  2  0
 21 23  1  0
 24 23  1  6
 24 25  1  0
 25 18  1  0
 26 24  1  0
 27 26  1  0
 28 26  2  0
M  END
$$$$
