HKN.pdb
     RDKit          3D

 28 28  0  0  1  0  0  0  0  0999 V2000
   26.8894  -18.9573  -17.4001 N   0  0  0  0  0  0  0  0  0  0  0  0
   26.1673  -19.7422  -16.4007 C   0  0  1  0  0  0  0  0  0  0  0  0
   26.2751  -19.0391  -15.0514 C   0  0  0  0  0  0  0  0  0  0  0  0
   27.6428  -19.1793  -14.4919 C   0  0  0  0  0  0  0  0  0  0  0  0
   28.7886  -18.6369  -15.0328 C   0  0  0  0  0  0  0  0  0  0  0  0
   29.8128  -18.9826  -14.2456 N   0  0  0  0  0  0  0  0  0  0  0  0
   29.2984  -19.7194  -13.2481 C   0  0  0  0  0  0  0  0  0  0  0  0
   27.9684  -19.8452  -13.3909 N   0  0  0  0  0  0  0  0  0  0  0  0
   24.7495  -19.7949  -16.8357 C   0  0  0  0  0  0  0  0  0  0  0  0
   24.1592  -18.7153  -17.0939 O   0  0  0  0  0  0  0  0  0  0  0  0
   24.0444  -21.0144  -16.9685 N   0  0  0  0  0  0  0  0  0  0  0  0
   22.6443  -21.0065  -17.4548 C   0  0  1  0  0  0  0  0  0  0  0  0
   22.3026  -22.3637  -17.9812 C   0  0  0  0  0  0  0  0  0  0  0  0
   20.9042  -22.4310  -18.4854 C   0  0  0  0  0  0  0  0  0  0  0  0
   20.5510  -23.8030  -19.0371 C   0  0  0  0  0  0  0  0  0  0  0  0
   19.1745  -23.8122  -19.6647 C   0  0  0  0  0  0  0  0  0  0  0  0
   18.1752  -23.3022  -18.7541 N   0  0  0  0  0  0  0  0  0  0  0  0
   21.8058  -20.4451  -16.4160 C   0  0  0  0  0  0  0  0  0  0  0  0
   22.2571  -20.4987  -15.2135 O   0  0  0  0  0  0  0  0  0  0  0  0
   18.3283  -18.1915  -13.4011 N   0  0  0  0  0  0  0  0  0  0  0  0
   19.4104  -17.4362  -13.9492 C   0  0  0  0  0  0  0  0  0  0  0  0
   19.6078  -16.2844  -13.4762 O   0  0  0  0  0  0  0  0  0  0  0  0
   20.2771  -17.9601  -15.0260 C   0  0  0  0  0  0  0  0  0  0  0  0
   19.8121  -19.3390  -15.4050 C   0  0  2  0  0  0  0  0  0  0  0  0
   20.5528  -19.8411  -16.5642 N   0  0  0  0  0  0  0  0  0  0  0  0
   18.3595  -19.4555  -15.6188 C   0  0  0  0  0  0  0  0  0  0  0  0
   17.4216  -19.5075  -14.6080 O   0  0  0  0  0  0  0  0  0  0  0  0
   17.9042  -19.5160  -16.8084 O   0  0  0  0  0  0  0  0  0  0  0  0
  2  1  1  6
  2  3  1  0
  4  3  1  0
  5  4  2  0
  6  5  1  0
  7  6  1  0
  7  8  2  0
  8  4  1  0
  9  2  1  0
 10  9  2  0
 11  9  1  0
 12 11  1  0
 12 13  1  1
 13 14  1  0
 14 15  1  0
 16 15  1  0
 17 16  1  0
 18 12  1  0
 19 18  2  0
 20 21  1  0
 21 22  2  0
 21 23  1  0
 24 23  1  6
 24 25  1  0
 25 18  1  0
 26 24  1  0
 27 26  1  0
 28 26  2  0
M  END
$$$$
