HKN.pdb
     RDKit          3D

 28 28  0  0  1  0  0  0  0  0999 V2000
   18.1954  -16.7693  -17.7403 N   0  0  0  0  0  0  0  0  0  0  0  0
   17.2222  -16.0391  -18.5502 C   0  0  1  0  0  0  0  0  0  0  0  0
   15.9703  -15.7954  -17.7136 C   0  0  0  0  0  0  0  0  0  0  0  0
   15.2898  -17.0762  -17.3978 C   0  0  0  0  0  0  0  0  0  0  0  0
   14.5622  -17.8368  -18.2874 C   0  0  0  0  0  0  0  0  0  0  0  0
   14.1100  -18.9099  -17.6300 N   0  0  0  0  0  0  0  0  0  0  0  0
   14.5545  -18.8019  -16.3677 C   0  0  0  0  0  0  0  0  0  0  0  0
   15.2789  -17.6805  -16.2161 N   0  0  0  0  0  0  0  0  0  0  0  0
   17.8497  -14.7453  -18.9165 C   0  0  0  0  0  0  0  0  0  0  0  0
   18.5612  -14.1587  -18.0618 O   0  0  0  0  0  0  0  0  0  0  0  0
   17.6743  -14.1536  -20.1898 N   0  0  0  0  0  0  0  0  0  0  0  0
   18.4181  -12.9196  -20.5374 C   0  0  1  0  0  0  0  0  0  0  0  0
   18.9957  -13.0676  -21.9086 C   0  0  0  0  0  0  0  0  0  0  0  0
   20.2347  -13.8916  -21.9064 C   0  0  0  0  0  0  0  0  0  0  0  0
   21.4427  -13.1230  -21.3951 C   0  0  0  0  0  0  0  0  0  0  0  0
   22.7056  -13.9516  -21.4804 C   0  0  0  0  0  0  0  0  0  0  0  0
   23.8452  -13.2332  -20.9579 N   0  0  0  0  0  0  0  0  0  0  0  0
   17.5594  -11.7830  -20.2763 C   0  0  0  0  0  0  0  0  0  0  0  0
   16.3694  -11.8311  -20.7604 O   0  0  0  0  0  0  0  0  0  0  0  0
   15.2062   -7.4046  -19.0830 N   0  0  0  0  0  0  0  0  0  0  0  0
   15.6759   -8.0850  -17.9175 C   0  0  0  0  0  0  0  0  0  0  0  0
   15.2637   -7.6687  -16.8012 O   0  0  0  0  0  0  0  0  0  0  0  0
   16.6062   -9.2315  -17.9901 C   0  0  0  0  0  0  0  0  0  0  0  0
   16.9111   -9.5272  -19.4325 C   0  0  2  0  0  0  0  0  0  0  0  0
   17.8693  -10.6284  -19.5499 N   0  0  0  0  0  0  0  0  0  0  0  0
   17.3536   -8.3600  -20.2141 C   0  0  0  0  0  0  0  0  0  0  0  0
   18.5332   -8.2975  -20.9274 O   0  0  0  0  0  0  0  0  0  0  0  0
   16.6195   -7.3180  -20.2543 O   0  0  0  0  0  0  0  0  0  0  0  0
  2  1  1  1
  2  3  1  0
  4  3  1  0
  5  4  2  0
  6  5  1  0
  7  6  1  0
  7  8  2  0
  8  4  1  0
  9  2  1  0
 10  9  2  0
 11  9  1  0
 12 11  1  0
 12 13  1  6
 13 14  1  0
 14 15  1  0
 16 15  1  0
 17 16  1  0
 18 12  1  0
 19 18  2  0
 20 21  1  0
 21 22  2  0
 21 23  1  0
 24 23  1  1
 24 25  1  0
 25 18  1  0
 26 24  1  0
 27 26  1  0
 28 26  2  0
M  END
$$$$
