HKN.pdb
     RDKit          3D

 28 28  0  0  1  0  0  0  0  0999 V2000
   27.0497  -16.2309  -19.2976 N   0  0  0  0  0  0  0  0  0  0  0  0
   27.1938  -14.9574  -20.0004 C   0  0  1  0  0  0  0  0  0  0  0  0
   25.8362  -14.2634  -20.0438 C   0  0  0  0  0  0  0  0  0  0  0  0
   24.8843  -15.0203  -20.8949 C   0  0  0  0  0  0  0  0  0  0  0  0
   24.6912  -14.8283  -22.2460 C   0  0  0  0  0  0  0  0  0  0  0  0
   23.7579  -15.6962  -22.6506 N   0  0  0  0  0  0  0  0  0  0  0  0
   23.3929  -16.4000  -21.5671 C   0  0  0  0  0  0  0  0  0  0  0  0
   24.0784  -15.9923  -20.4859 N   0  0  0  0  0  0  0  0  0  0  0  0
   28.1581  -14.1416  -19.2217 C   0  0  0  0  0  0  0  0  0  0  0  0
   28.0722  -14.1436  -17.9673 O   0  0  0  0  0  0  0  0  0  0  0  0
   29.1658  -13.3657  -19.8418 N   0  0  0  0  0  0  0  0  0  0  0  0
   30.1330  -12.6126  -19.0087 C   0  0  1  0  0  0  0  0  0  0  0  0
   31.5225  -12.9945  -19.4078 C   0  0  0  0  0  0  0  0  0  0  0  0
   32.5506  -12.2727  -18.6103 C   0  0  0  0  0  0  0  0  0  0  0  0
   33.9665  -12.6917  -18.9725 C   0  0  0  0  0  0  0  0  0  0  0  0
   34.9949  -11.9357  -18.1604 C   0  0  0  0  0  0  0  0  0  0  0  0
   36.3368  -12.2076  -18.6221 N   0  0  0  0  0  0  0  0  0  0  0  0
   29.7713  -11.2108  -19.0479 C   0  0  0  0  0  0  0  0  0  0  0  0
   29.7614  -10.6460  -20.2027 O   0  0  0  0  0  0  0  0  0  0  0  0
   26.9782   -9.7600  -19.6097 N   0  0  0  0  0  0  0  0  0  0  0  0
   26.7510   -9.0505  -18.3903 C   0  0  0  0  0  0  0  0  0  0  0  0
   25.5525   -8.8504  -18.0542 O   0  0  0  0  0  0  0  0  0  0  0  0
   27.8569   -8.5611  -17.5404 C   0  0  0  0  0  0  0  0  0  0  0  0
   29.1675   -8.9594  -18.1605 C   0  0  2  0  0  0  0  0  0  0  0  0
   29.4236  -10.3888  -17.9708 N   0  0  0  0  0  0  0  0  0  0  0  0
   30.3202   -8.1559  -17.7192 C   0  0  0  0  0  0  0  0  0  0  0  0
   30.9933   -7.2508  -18.5141 O   0  0  0  0  0  0  0  0  0  0  0  0
   30.7521   -8.2824  -16.5260 O   0  0  0  0  0  0  0  0  0  0  0  0
  2  1  1  1
  2  3  1  0
  4  3  1  0
  5  4  2  0
  6  5  1  0
  7  6  1  0
  7  8  2  0
  8  4  1  0
  9  2  1  0
 10  9  2  0
 11  9  1  0
 12 11  1  0
 12 13  1  6
 13 14  1  0
 14 15  1  0
 16 15  1  0
 17 16  1  0
 18 12  1  0
 19 18  2  0
 20 21  1  0
 21 22  2  0
 21 23  1  0
 24 23  1  1
 24 25  1  0
 25 18  1  0
 26 24  1  0
 27 26  1  0
 28 26  2  0
M  END
$$$$
