HKN.pdb
     RDKit          3D

 28 28  0  0  1  0  0  0  0  0999 V2000
   24.0843  -12.2360  -18.0045 N   0  0  0  0  0  0  0  0  0  0  0  0
   23.8915  -11.8128  -16.6188 C   0  0  1  0  0  0  0  0  0  0  0  0
   25.1671  -11.1344  -16.1298 C   0  0  0  0  0  0  0  0  0  0  0  0
   26.2786  -12.1128  -16.0278 C   0  0  0  0  0  0  0  0  0  0  0  0
   26.1348  -13.4742  -15.8683 C   0  0  0  0  0  0  0  0  0  0  0  0
   27.3592  -14.0093  -15.8188 N   0  0  0  0  0  0  0  0  0  0  0  0
   28.2275  -12.9932  -15.9458 C   0  0  0  0  0  0  0  0  0  0  0  0
   27.5738  -11.8265  -16.0745 N   0  0  0  0  0  0  0  0  0  0  0  0
   22.7666  -10.8451  -16.6158 C   0  0  0  0  0  0  0  0  0  0  0  0
   22.7994   -9.8824  -17.4240 O   0  0  0  0  0  0  0  0  0  0  0  0
   21.6643  -10.9700  -15.7376 N   0  0  0  0  0  0  0  0  0  0  0  0
   20.5155  -10.0416  -15.8608 C   0  0  1  0  0  0  0  0  0  0  0  0
   19.2698  -10.7459  -15.4272 C   0  0  0  0  0  0  0  0  0  0  0  0
   18.8554  -11.7954  -16.3972 C   0  0  0  0  0  0  0  0  0  0  0  0
   17.5603  -12.4814  -15.9929 C   0  0  0  0  0  0  0  0  0  0  0  0
   17.1803  -13.5719  -16.9703 C   0  0  0  0  0  0  0  0  0  0  0  0
   16.0400  -14.3264  -16.5030 N   0  0  0  0  0  0  0  0  0  0  0  0
   20.8629   -8.7993  -15.2025 C   0  0  0  0  0  0  0  0  0  0  0  0
   21.3832   -8.8892  -14.0304 O   0  0  0  0  0  0  0  0  0  0  0  0
   21.5841   -3.9979  -13.5328 N   0  0  0  0  0  0  0  0  0  0  0  0
   22.5895   -4.5566  -14.3806 C   0  0  0  0  0  0  0  0  0  0  0  0
   23.7079   -3.9755  -14.4093 O   0  0  0  0  0  0  0  0  0  0  0  0
   22.3540   -5.7643  -15.1997 C   0  0  0  0  0  0  0  0  0  0  0  0
   21.0035   -6.3325  -14.8616 C   0  0  2  0  0  0  0  0  0  0  0  0
   20.7031   -7.4994  -15.6940 N   0  0  0  0  0  0  0  0  0  0  0  0
   19.9019   -5.3561  -14.9084 C   0  0  0  0  0  0  0  0  0  0  0  0
   18.7779   -5.4820  -15.6989 O   0  0  0  0  0  0  0  0  0  0  0  0
   19.9602   -4.3103  -14.1810 O   0  0  0  0  0  0  0  0  0  0  0  0
  2  1  1  6
  2  3  1  0
  4  3  1  0
  5  4  2  0
  6  5  1  0
  7  6  1  0
  7  8  2  0
  8  4  1  0
  9  2  1  0
 10  9  2  0
 11  9  1  0
 12 11  1  0
 12 13  1  1
 13 14  1  0
 14 15  1  0
 16 15  1  0
 17 16  1  0
 18 12  1  0
 19 18  2  0
 20 21  1  0
 21 22  2  0
 21 23  1  0
 24 23  1  6
 24 25  1  0
 25 18  1  0
 26 24  1  0
 27 26  1  0
 28 26  2  0
M  END
$$$$
