HKN.pdb
     RDKit          3D

 28 28  0  0  1  0  0  0  0  0999 V2000
   23.0254  -16.4733  -19.2135 N   0  0  0  0  0  0  0  0  0  0  0  0
   23.2275  -16.2589  -17.7818 C   0  0  1  0  0  0  0  0  0  0  0  0
   22.1828  -15.2669  -17.2808 C   0  0  0  0  0  0  0  0  0  0  0  0
   22.4505  -13.9066  -17.8114 C   0  0  0  0  0  0  0  0  0  0  0  0
   21.6013  -13.1807  -18.6185 C   0  0  0  0  0  0  0  0  0  0  0  0
   22.1932  -12.0113  -18.8836 N   0  0  0  0  0  0  0  0  0  0  0  0
   23.3769  -12.0281  -18.2502 C   0  0  0  0  0  0  0  0  0  0  0  0
   23.5432  -13.1865  -17.5901 N   0  0  0  0  0  0  0  0  0  0  0  0
   23.0414  -17.5730  -17.1183 C   0  0  0  0  0  0  0  0  0  0  0  0
   22.1514  -18.3464  -17.5549 O   0  0  0  0  0  0  0  0  0  0  0  0
   23.8289  -17.9817  -16.0161 N   0  0  0  0  0  0  0  0  0  0  0  0
   23.6035  -19.3119  -15.4026 C   0  0  1  0  0  0  0  0  0  0  0  0
   24.8770  -19.7830  -14.7764 C   0  0  0  0  0  0  0  0  0  0  0  0
   24.7244  -21.1184  -14.1379 C   0  0  0  0  0  0  0  0  0  0  0  0
   24.7749  -22.2541  -15.1474 C   0  0  0  0  0  0  0  0  0  0  0  0
   24.7205  -23.6047  -14.4677 C   0  0  0  0  0  0  0  0  0  0  0  0
   24.6823  -24.6802  -15.4319 N   0  0  0  0  0  0  0  0  0  0  0  0
   22.4206  -19.2338  -14.5707 C   0  0  0  0  0  0  0  0  0  0  0  0
   22.1949  -18.1110  -13.9866 O   0  0  0  0  0  0  0  0  0  0  0  0
   18.3179  -17.9736  -11.8520 N   0  0  0  0  0  0  0  0  0  0  0  0
   18.3399  -18.6226  -13.1249 C   0  0  0  0  0  0  0  0  0  0  0  0
   17.2485  -19.0831  -13.5564 O   0  0  0  0  0  0  0  0  0  0  0  0
   19.5767  -18.7615  -13.9224 C   0  0  0  0  0  0  0  0  0  0  0  0
   20.3113  -19.9967  -13.4800 C   0  0  2  0  0  0  0  0  0  0  0  0
   21.4814  -20.2411  -14.3260 N   0  0  0  0  0  0  0  0  0  0  0  0
   19.4723  -21.2031  -13.3822 C   0  0  0  0  0  0  0  0  0  0  0  0
   18.6720  -21.5141  -12.3019 O   0  0  0  0  0  0  0  0  0  0  0  0
   19.4626  -22.0394  -14.3449 O   0  0  0  0  0  0  0  0  0  0  0  0
  2  1  1  6
  2  3  1  0
  4  3  1  0
  5  4  2  0
  6  5  1  0
  7  6  1  0
  7  8  2  0
  8  4  1  0
  9  2  1  0
 10  9  2  0
 11  9  1  0
 12 11  1  0
 12 13  1  1
 13 14  1  0
 14 15  1  0
 16 15  1  0
 17 16  1  0
 18 12  1  0
 19 18  2  0
 20 21  1  0
 21 22  2  0
 21 23  1  0
 24 23  1  6
 24 25  1  0
 25 18  1  0
 26 24  1  0
 27 26  1  0
 28 26  2  0
M  END
$$$$
