HKN.pdb
     RDKit          3D

 28 28  0  0  1  0  0  0  0  0999 V2000
   21.0891  -15.9792  -18.9081 N   0  0  0  0  0  0  0  0  0  0  0  0
   21.3840  -16.3845  -17.5351 C   0  0  1  0  0  0  0  0  0  0  0  0
   20.2631  -15.8921  -16.6254 C   0  0  0  0  0  0  0  0  0  0  0  0
   20.3303  -14.4189  -16.4564 C   0  0  0  0  0  0  0  0  0  0  0  0
   21.2917  -13.5938  -16.9990 C   0  0  0  0  0  0  0  0  0  0  0  0
   21.0120  -12.3414  -16.6229 N   0  0  0  0  0  0  0  0  0  0  0  0
   19.9037  -12.4061  -15.8679 C   0  0  0  0  0  0  0  0  0  0  0  0
   19.4786  -13.6761  -15.7604 N   0  0  0  0  0  0  0  0  0  0  0  0
   21.4341  -17.8675  -17.5245 C   0  0  0  0  0  0  0  0  0  0  0  0
   20.5457  -18.5037  -18.1464 O   0  0  0  0  0  0  0  0  0  0  0  0
   22.4440  -18.5849  -16.8407 N   0  0  0  0  0  0  0  0  0  0  0  0
   22.4166  -20.0668  -16.8306 C   0  0  1  0  0  0  0  0  0  0  0  0
   23.7949  -20.5789  -16.5589 C   0  0  0  0  0  0  0  0  0  0  0  0
   23.8461  -22.0660  -16.5499 C   0  0  0  0  0  0  0  0  0  0  0  0
   25.2524  -22.5974  -16.3225 C   0  0  0  0  0  0  0  0  0  0  0  0
   25.2698  -24.1082  -16.2445 C   0  0  0  0  0  0  0  0  0  0  0  0
   26.5978  -24.6079  -15.9717 N   0  0  0  0  0  0  0  0  0  0  0  0
   21.3436  -20.4952  -15.9574 C   0  0  0  0  0  0  0  0  0  0  0  0
   21.3942  -20.0958  -14.7365 O   0  0  0  0  0  0  0  0  0  0  0  0
   17.2353  -22.6245  -13.6787 N   0  0  0  0  0  0  0  0  0  0  0  0
   17.1322  -21.3130  -14.2365 C   0  0  0  0  0  0  0  0  0  0  0  0
   16.0882  -20.6560  -13.9762 O   0  0  0  0  0  0  0  0  0  0  0  0
   18.1907  -20.7277  -15.0862 C   0  0  0  0  0  0  0  0  0  0  0  0
   19.2940  -21.7343  -15.2613 C   0  0  2  0  0  0  0  0  0  0  0  0
   20.2447  -21.2962  -16.2854 N   0  0  0  0  0  0  0  0  0  0  0  0
   18.8308  -23.1068  -15.5269 C   0  0  0  0  0  0  0  0  0  0  0  0
   19.1775  -23.8484  -16.6378 O   0  0  0  0  0  0  0  0  0  0  0  0
   18.0536  -23.6783  -14.6929 O   0  0  0  0  0  0  0  0  0  0  0  0
  2  1  1  6
  2  3  1  0
  4  3  1  0
  5  4  2  0
  6  5  1  0
  7  6  1  0
  7  8  2  0
  8  4  1  0
  9  2  1  0
 10  9  2  0
 11  9  1  0
 12 11  1  0
 12 13  1  1
 13 14  1  0
 14 15  1  0
 16 15  1  0
 17 16  1  0
 18 12  1  0
 19 18  2  0
 20 21  1  0
 21 22  2  0
 21 23  1  0
 24 23  1  6
 24 25  1  0
 25 18  1  0
 26 24  1  0
 27 26  1  0
 28 26  2  0
M  END
$$$$
