HKN.pdb
     RDKit          3D

 28 28  0  0  1  0  0  0  0  0999 V2000
   16.7767  -12.7917  -14.9824 N   0  0  0  0  0  0  0  0  0  0  0  0
   17.1739  -11.7727  -15.9520 C   0  0  1  0  0  0  0  0  0  0  0  0
   16.0456  -10.7552  -16.0862 C   0  0  0  0  0  0  0  0  0  0  0  0
   14.8344  -11.3850  -16.6690 C   0  0  0  0  0  0  0  0  0  0  0  0
   13.5994  -11.4589  -16.0617 C   0  0  0  0  0  0  0  0  0  0  0  0
   12.7728  -12.0961  -16.8976 N   0  0  0  0  0  0  0  0  0  0  0  0
   13.4919  -12.4023  -17.9892 C   0  0  0  0  0  0  0  0  0  0  0  0
   14.7573  -11.9701  -17.8579 N   0  0  0  0  0  0  0  0  0  0  0  0
   18.3907  -11.1159  -15.4136 C   0  0  0  0  0  0  0  0  0  0  0  0
   18.3857  -10.7288  -14.2173 O   0  0  0  0  0  0  0  0  0  0  0  0
   19.5501  -10.9122  -16.1986 N   0  0  0  0  0  0  0  0  0  0  0  0
   20.7487  -10.2849  -15.5933 C   0  0  1  0  0  0  0  0  0  0  0  0
   21.9749  -10.9094  -16.1784 C   0  0  0  0  0  0  0  0  0  0  0  0
   23.2200  -10.3873  -15.5529 C   0  0  0  0  0  0  0  0  0  0  0  0
   24.4645  -11.1073  -16.0472 C   0  0  0  0  0  0  0  0  0  0  0  0
   25.7012  -10.6547  -15.3025 C   0  0  0  0  0  0  0  0  0  0  0  0
   26.8406  -11.4861  -15.6161 N   0  0  0  0  0  0  0  0  0  0  0  0
   20.6038   -8.8468  -15.6846 C   0  0  0  0  0  0  0  0  0  0  0  0
   20.2883   -8.3671  -16.8348 O   0  0  0  0  0  0  0  0  0  0  0  0
   19.1175   -3.8221  -16.1182 N   0  0  0  0  0  0  0  0  0  0  0  0
   19.2870   -4.4859  -14.8641 C   0  0  0  0  0  0  0  0  0  0  0  0
   19.4405   -3.7612  -13.8441 O   0  0  0  0  0  0  0  0  0  0  0  0
   19.2864   -5.9589  -14.7407 C   0  0  0  0  0  0  0  0  0  0  0  0
   20.6873   -6.4696  -14.9344 C   0  0  2  0  0  0  0  0  0  0  0  0
   20.7632   -7.9064  -14.6614 N   0  0  0  0  0  0  0  0  0  0  0  0
   21.7144   -5.7356  -14.1759 C   0  0  0  0  0  0  0  0  0  0  0  0
   22.1026   -4.4377  -14.4384 O   0  0  0  0  0  0  0  0  0  0  0  0
   22.3060   -6.3108  -13.2037 O   0  0  0  0  0  0  0  0  0  0  0  0
  2  1  1  1
  2  3  1  0
  4  3  1  0
  5  4  2  0
  6  5  1  0
  7  6  1  0
  7  8  2  0
  8  4  1  0
  9  2  1  0
 10  9  2  0
 11  9  1  0
 12 11  1  0
 12 13  1  6
 13 14  1  0
 14 15  1  0
 16 15  1  0
 17 16  1  0
 18 12  1  0
 19 18  2  0
 20 21  1  0
 21 22  2  0
 21 23  1  0
 24 23  1  1
 24 25  1  0
 25 18  1  0
 26 24  1  0
 27 26  1  0
 28 26  2  0
M  END
$$$$
