HKN.pdb
     RDKit          3D

 28 28  0  0  1  0  0  0  0  0999 V2000
   27.7404  -20.7767  -15.5242 N   0  0  0  0  0  0  0  0  0  0  0  0
   26.6196  -21.5474  -16.0591 C   0  0  1  0  0  0  0  0  0  0  0  0
   27.1122  -22.9446  -16.4220 C   0  0  0  0  0  0  0  0  0  0  0  0
   28.3132  -22.8708  -17.2911 C   0  0  0  0  0  0  0  0  0  0  0  0
   28.3582  -22.3083  -18.5485 C   0  0  0  0  0  0  0  0  0  0  0  0
   29.6081  -22.4357  -19.0064 N   0  0  0  0  0  0  0  0  0  0  0  0
   30.3064  -23.0626  -18.0462 C   0  0  0  0  0  0  0  0  0  0  0  0
   29.5205  -23.3332  -16.9907 N   0  0  0  0  0  0  0  0  0  0  0  0
   25.6006  -21.6300  -14.9835 C   0  0  0  0  0  0  0  0  0  0  0  0
   24.6088  -22.3843  -15.1515 O   0  0  0  0  0  0  0  0  0  0  0  0
   25.7085  -20.8914  -13.7815 N   0  0  0  0  0  0  0  0  0  0  0  0
   24.6395  -20.9875  -12.7594 C   0  0  1  0  0  0  0  0  0  0  0  0
   25.2294  -20.7287  -11.4100 C   0  0  0  0  0  0  0  0  0  0  0  0
   24.2386  -20.9341  -10.3190 C   0  0  0  0  0  0  0  0  0  0  0  0
   24.8098  -20.6116   -8.9473 C   0  0  0  0  0  0  0  0  0  0  0  0
   23.7863  -20.8274   -7.8543 C   0  0  0  0  0  0  0  0  0  0  0  0
   24.3542  -20.5972   -6.5458 N   0  0  0  0  0  0  0  0  0  0  0  0
   23.5263  -20.1661  -13.1879 C   0  0  0  0  0  0  0  0  0  0  0  0
   23.7575  -19.3193  -14.1271 O   0  0  0  0  0  0  0  0  0  0  0  0
   18.9929  -19.1343  -15.1960 N   0  0  0  0  0  0  0  0  0  0  0  0
   20.1083  -19.8235  -15.7639 C   0  0  0  0  0  0  0  0  0  0  0  0
   20.0642  -20.0730  -16.9989 O   0  0  0  0  0  0  0  0  0  0  0  0
   21.2772  -20.2377  -14.9595 C   0  0  0  0  0  0  0  0  0  0  0  0
   21.0891  -19.7721  -13.5421 C   0  0  2  0  0  0  0  0  0  0  0  0
   22.2149  -20.1852  -12.7016 N   0  0  0  0  0  0  0  0  0  0  0  0
   19.8070  -20.1681  -12.9352 C   0  0  0  0  0  0  0  0  0  0  0  0
   19.4475  -21.4682  -12.6443 O   0  0  0  0  0  0  0  0  0  0  0  0
   18.9467  -19.2718  -12.6472 O   0  0  0  0  0  0  0  0  0  0  0  0
  2  1  1  1
  2  3  1  0
  4  3  1  0
  5  4  2  0
  6  5  1  0
  7  6  1  0
  7  8  2  0
  8  4  1  0
  9  2  1  0
 10  9  2  0
 11  9  1  0
 12 11  1  0
 12 13  1  1
 13 14  1  0
 14 15  1  0
 16 15  1  0
 17 16  1  0
 18 12  1  0
 19 18  2  0
 20 21  1  0
 21 22  2  0
 21 23  1  0
 24 23  1  6
 24 25  1  0
 25 18  1  0
 26 24  1  0
 27 26  1  0
 28 26  2  0
M  END
$$$$
