HKN.pdb
     RDKit          3D

 28 28  0  0  1  0  0  0  0  0999 V2000
   24.1942  -11.9571  -18.1587 N   0  0  0  0  0  0  0  0  0  0  0  0
   23.9263  -11.7066  -16.7439 C   0  0  1  0  0  0  0  0  0  0  0  0
   25.2173  -11.2495  -16.0723 C   0  0  0  0  0  0  0  0  0  0  0  0
   26.2136  -12.3494  -16.0419 C   0  0  0  0  0  0  0  0  0  0  0  0
   27.2484  -12.5173  -16.9367 C   0  0  0  0  0  0  0  0  0  0  0  0
   27.9214  -13.6157  -16.5783 N   0  0  0  0  0  0  0  0  0  0  0  0
   27.3073  -14.1037  -15.4887 C   0  0  0  0  0  0  0  0  0  0  0  0
   26.2590  -13.3335  -15.1525 N   0  0  0  0  0  0  0  0  0  0  0  0
   22.9100  -10.6271  -16.6818 C   0  0  0  0  0  0  0  0  0  0  0  0
   22.9199   -9.7400  -17.5726 O   0  0  0  0  0  0  0  0  0  0  0  0
   21.9355  -10.5643  -15.6578 N   0  0  0  0  0  0  0  0  0  0  0  0
   20.8290   -9.5829  -15.7533 C   0  0  1  0  0  0  0  0  0  0  0  0
   19.5837  -10.1952  -15.1964 C   0  0  0  0  0  0  0  0  0  0  0  0
   18.8077  -10.9250  -16.2354 C   0  0  0  0  0  0  0  0  0  0  0  0
   17.6248  -11.6816  -15.6524 C   0  0  0  0  0  0  0  0  0  0  0  0
   16.9077  -12.4919  -16.7097 C   0  0  0  0  0  0  0  0  0  0  0  0
   15.7406  -13.1506  -16.1693 N   0  0  0  0  0  0  0  0  0  0  0  0
   21.2846   -8.3285  -15.1908 C   0  0  0  0  0  0  0  0  0  0  0  0
   21.9824   -8.3951  -14.1131 O   0  0  0  0  0  0  0  0  0  0  0  0
   22.3628   -3.5515  -13.7264 N   0  0  0  0  0  0  0  0  0  0  0  0
   22.7447   -3.7617  -15.0873 C   0  0  0  0  0  0  0  0  0  0  0  0
   23.4463   -2.8683  -15.6340 O   0  0  0  0  0  0  0  0  0  0  0  0
   22.3470   -4.9671  -15.8448 C   0  0  0  0  0  0  0  0  0  0  0  0
   21.5223   -5.8568  -14.9565 C   0  0  2  0  0  0  0  0  0  0  0  0
   21.0589   -7.0396  -15.6851 N   0  0  0  0  0  0  0  0  0  0  0  0
   20.3993   -5.1784  -14.2873 C   0  0  0  0  0  0  0  0  0  0  0  0
   20.5006   -4.4846  -13.0987 O   0  0  0  0  0  0  0  0  0  0  0  0
   19.2395   -5.2166  -14.8158 O   0  0  0  0  0  0  0  0  0  0  0  0
  2  1  1  6
  2  3  1  0
  4  3  1  0
  5  4  2  0
  6  5  1  0
  7  6  1  0
  7  8  2  0
  8  4  1  0
  9  2  1  0
 10  9  2  0
 11  9  1  0
 12 11  1  0
 12 13  1  1
 13 14  1  0
 14 15  1  0
 16 15  1  0
 17 16  1  0
 18 12  1  0
 19 18  2  0
 20 21  1  0
 21 22  2  0
 21 23  1  0
 24 23  1  6
 24 25  1  0
 25 18  1  0
 26 24  1  0
 27 26  1  0
 28 26  2  0
M  END
$$$$
