HKN.pdb
     RDKit          3D

 28 28  0  0  1  0  0  0  0  0999 V2000
   20.3817  -11.2871  -17.3451 N   0  0  0  0  0  0  0  0  0  0  0  0
   20.6242  -11.6734  -15.9564 C   0  0  1  0  0  0  0  0  0  0  0  0
   20.5589  -13.1936  -15.8503 C   0  0  0  0  0  0  0  0  0  0  0  0
   19.1703  -13.6770  -16.0534 C   0  0  0  0  0  0  0  0  0  0  0  0
   18.4231  -13.5076  -17.1990 C   0  0  0  0  0  0  0  0  0  0  0  0
   17.2314  -14.0790  -16.9953 N   0  0  0  0  0  0  0  0  0  0  0  0
   17.2557  -14.5843  -15.7517 C   0  0  0  0  0  0  0  0  0  0  0  0
   18.4408  -14.3425  -15.1666 N   0  0  0  0  0  0  0  0  0  0  0  0
   21.9853  -11.1964  -15.6074 C   0  0  0  0  0  0  0  0  0  0  0  0
   22.4042  -11.3785  -14.4360 O   0  0  0  0  0  0  0  0  0  0  0  0
   22.8223  -10.5468  -16.5451 N   0  0  0  0  0  0  0  0  0  0  0  0
   24.1512  -10.0446  -16.1225 C   0  0  1  0  0  0  0  0  0  0  0  0
   25.1861  -10.5309  -17.0859 C   0  0  0  0  0  0  0  0  0  0  0  0
   26.5604  -10.1332  -16.6768 C   0  0  0  0  0  0  0  0  0  0  0  0
   27.6226  -10.6397  -17.6394 C   0  0  0  0  0  0  0  0  0  0  0  0
   29.0106  -10.2236  -17.2047 C   0  0  0  0  0  0  0  0  0  0  0  0
   30.0283  -10.8439  -18.0216 N   0  0  0  0  0  0  0  0  0  0  0  0
   24.0461   -8.6183  -15.8943 C   0  0  0  0  0  0  0  0  0  0  0  0
   25.1155   -8.0096  -15.5220 O   0  0  0  0  0  0  0  0  0  0  0  0
   24.1196   -4.8664  -18.3837 N   0  0  0  0  0  0  0  0  0  0  0  0
   23.0329   -5.7214  -18.0230 C   0  0  0  0  0  0  0  0  0  0  0  0
   22.7244   -6.6356  -18.8344 O   0  0  0  0  0  0  0  0  0  0  0  0
   22.2854   -5.5620  -16.7578 C   0  0  0  0  0  0  0  0  0  0  0  0
   22.9439   -6.3903  -15.6894 C   0  0  2  0  0  0  0  0  0  0  0  0
   22.9110   -7.8129  -16.0352 N   0  0  0  0  0  0  0  0  0  0  0  0
   22.4163   -6.1669  -14.3327 C   0  0  0  0  0  0  0  0  0  0  0  0
   22.7242   -5.0780  -13.5429 O   0  0  0  0  0  0  0  0  0  0  0  0
   21.6182   -7.0205  -13.8224 O   0  0  0  0  0  0  0  0  0  0  0  0
  2  1  1  6
  2  3  1  0
  4  3  1  0
  5  4  2  0
  6  5  1  0
  7  6  1  0
  7  8  2  0
  8  4  1  0
  9  2  1  0
 10  9  2  0
 11  9  1  0
 12 11  1  0
 12 13  1  6
 13 14  1  0
 14 15  1  0
 16 15  1  0
 17 16  1  0
 18 12  1  0
 19 18  2  0
 20 21  1  0
 21 22  2  0
 21 23  1  0
 24 23  1  6
 24 25  1  0
 25 18  1  0
 26 24  1  0
 27 26  1  0
 28 26  2  0
M  END
$$$$
