HKN.pdb
     RDKit          3D

 28 28  0  0  1  0  0  0  0  0999 V2000
   23.9847  -17.4335  -18.1176 N   0  0  0  0  0  0  0  0  0  0  0  0
   22.9880  -17.0520  -17.1189 C   0  0  1  0  0  0  0  0  0  0  0  0
   21.7693  -16.4783  -17.8345 C   0  0  0  0  0  0  0  0  0  0  0  0
   22.0739  -15.1427  -18.4061 C   0  0  0  0  0  0  0  0  0  0  0  0
   23.2739  -14.4755  -18.2866 C   0  0  0  0  0  0  0  0  0  0  0  0
   23.1574  -13.3106  -18.9327 N   0  0  0  0  0  0  0  0  0  0  0  0
   21.9123  -13.2724  -19.4335 C   0  0  0  0  0  0  0  0  0  0  0  0
   21.2407  -14.3917  -19.1156 N   0  0  0  0  0  0  0  0  0  0  0  0
   22.6144  -18.2882  -16.3881 C   0  0  0  0  0  0  0  0  0  0  0  0
   22.0431  -19.2118  -17.0215 O   0  0  0  0  0  0  0  0  0  0  0  0
   22.8790  -18.4602  -15.0088 N   0  0  0  0  0  0  0  0  0  0  0  0
   22.4489  -19.7032  -14.3256 C   0  0  1  0  0  0  0  0  0  0  0  0
   23.5174  -20.1304  -13.3708 C   0  0  0  0  0  0  0  0  0  0  0  0
   24.0937  -21.4535  -13.7336 C   0  0  0  0  0  0  0  0  0  0  0  0
   25.2104  -21.8783  -12.7933 C   0  0  0  0  0  0  0  0  0  0  0  0
   25.6858  -23.2827  -13.0937 C   0  0  0  0  0  0  0  0  0  0  0  0
   26.8102  -23.6488  -12.2633 N   0  0  0  0  0  0  0  0  0  0  0  0
   21.1120  -19.4977  -13.8082 C   0  0  0  0  0  0  0  0  0  0  0  0
   20.6601  -18.2944  -13.8289 O   0  0  0  0  0  0  0  0  0  0  0  0
   16.3283  -20.7319  -14.8095 N   0  0  0  0  0  0  0  0  0  0  0  0
   17.2797  -19.9153  -15.4950 C   0  0  0  0  0  0  0  0  0  0  0  0
   16.8845  -19.3153  -16.5309 O   0  0  0  0  0  0  0  0  0  0  0  0
   18.6746  -19.7634  -15.0301 C   0  0  0  0  0  0  0  0  0  0  0  0
   18.8804  -20.6117  -13.8057 C   0  0  2  0  0  0  0  0  0  0  0  0
   20.2414  -20.4606  -13.2868 N   0  0  0  0  0  0  0  0  0  0  0  0
   18.5411  -22.0336  -13.9848 C   0  0  0  0  0  0  0  0  0  0  0  0
   17.5297  -22.6875  -13.3113 O   0  0  0  0  0  0  0  0  0  0  0  0
   19.2097  -22.7380  -14.8112 O   0  0  0  0  0  0  0  0  0  0  0  0
  2  1  1  6
  2  3  1  0
  4  3  1  0
  5  4  2  0
  6  5  1  0
  7  6  1  0
  7  8  2  0
  8  4  1  0
  9  2  1  0
 10  9  2  0
 11  9  1  0
 12 11  1  0
 12 13  1  1
 13 14  1  0
 14 15  1  0
 16 15  1  0
 17 16  1  0
 18 12  1  0
 19 18  2  0
 20 21  1  0
 21 22  2  0
 21 23  1  0
 24 23  1  6
 24 25  1  0
 25 18  1  0
 26 24  1  0
 27 26  1  0
 28 26  2  0
M  END
$$$$
