HKN.pdb
     RDKit          3D

 28 28  0  0  1  0  0  0  0  0999 V2000
   24.1393  -25.3253  -13.9641 N   0  0  0  0  0  0  0  0  0  0  0  0
   23.3572  -24.5720  -14.9425 C   0  0  1  0  0  0  0  0  0  0  0  0
   21.9551  -24.3491  -14.3846 C   0  0  0  0  0  0  0  0  0  0  0  0
   21.1994  -25.6256  -14.3328 C   0  0  0  0  0  0  0  0  0  0  0  0
   21.6400  -26.8372  -14.8198 C   0  0  0  0  0  0  0  0  0  0  0  0
   20.6825  -27.7412  -14.5876 N   0  0  0  0  0  0  0  0  0  0  0  0
   19.6818  -27.0909  -13.9725 C   0  0  0  0  0  0  0  0  0  0  0  0
   19.9901  -25.7930  -13.8121 N   0  0  0  0  0  0  0  0  0  0  0  0
   24.0427  -23.2698  -15.1324 C   0  0  0  0  0  0  0  0  0  0  0  0
   24.2305  -22.5370  -14.1282 O   0  0  0  0  0  0  0  0  0  0  0  0
   24.4896  -22.8285  -16.4003 N   0  0  0  0  0  0  0  0  0  0  0  0
   25.1997  -21.5332  -16.5213 C   0  0  1  0  0  0  0  0  0  0  0  0
   26.3694  -21.7012  -17.4375 C   0  0  0  0  0  0  0  0  0  0  0  0
   27.4444  -22.5275  -16.8245 C   0  0  0  0  0  0  0  0  0  0  0  0
   28.6589  -22.6643  -17.7288 C   0  0  0  0  0  0  0  0  0  0  0  0
   29.7183  -23.5474  -17.1069 C   0  0  0  0  0  0  0  0  0  0  0  0
   30.8999  -23.6188  -17.9356 N   0  0  0  0  0  0  0  0  0  0  0  0
   24.2256  -20.5090  -16.8369 C   0  0  0  0  0  0  0  0  0  0  0  0
   23.0000  -20.8843  -16.9356 O   0  0  0  0  0  0  0  0  0  0  0  0
   21.4970  -16.3211  -16.0630 N   0  0  0  0  0  0  0  0  0  0  0  0
   21.9508  -17.2246  -15.0532 C   0  0  0  0  0  0  0  0  0  0  0  0
   21.4150  -17.1345  -13.9156 O   0  0  0  0  0  0  0  0  0  0  0  0
   23.0027  -18.2319  -15.3058 C   0  0  0  0  0  0  0  0  0  0  0  0
   23.4301  -18.1469  -16.7450 C   0  0  2  0  0  0  0  0  0  0  0  0
   24.4582  -19.1455  -17.0457 N   0  0  0  0  0  0  0  0  0  0  0  0
   23.8587  -16.8053  -17.1757 C   0  0  0  0  0  0  0  0  0  0  0  0
   23.0015  -15.8029  -17.5816 O   0  0  0  0  0  0  0  0  0  0  0  0
   25.1010  -16.5180  -17.1871 O   0  0  0  0  0  0  0  0  0  0  0  0
  2  1  1  1
  2  3  1  0
  4  3  1  0
  5  4  2  0
  6  5  1  0
  7  6  1  0
  7  8  2  0
  8  4  1  0
  9  2  1  0
 10  9  2  0
 11  9  1  0
 12 11  1  0
 12 13  1  6
 13 14  1  0
 14 15  1  0
 16 15  1  0
 17 16  1  0
 18 12  1  0
 19 18  2  0
 20 21  1  0
 21 22  2  0
 21 23  1  0
 24 23  1  1
 24 25  1  0
 25 18  1  0
 26 24  1  0
 27 26  1  0
 28 26  2  0
M  END
$$$$
