HKN.pdb
     RDKit          3D

 28 28  0  0  1  0  0  0  0  0999 V2000
   22.8492  -16.1206  -20.0748 N   0  0  0  0  0  0  0  0  0  0  0  0
   22.8170  -15.2414  -18.9075 C   0  0  1  0  0  0  0  0  0  0  0  0
   22.7909  -13.7926  -19.3837 C   0  0  0  0  0  0  0  0  0  0  0  0
   24.0882  -13.4166  -19.9993 C   0  0  0  0  0  0  0  0  0  0  0  0
   25.2111  -14.2141  -20.0504 C   0  0  0  0  0  0  0  0  0  0  0  0
   26.1695  -13.5268  -20.6807 N   0  0  0  0  0  0  0  0  0  0  0  0
   25.6384  -12.3371  -21.0049 C   0  0  0  0  0  0  0  0  0  0  0  0
   24.3625  -12.2607  -20.5910 N   0  0  0  0  0  0  0  0  0  0  0  0
   21.5715  -15.5559  -18.1647 C   0  0  0  0  0  0  0  0  0  0  0  0
   20.5412  -15.8579  -18.8189 O   0  0  0  0  0  0  0  0  0  0  0  0
   21.5064  -15.5270  -16.7516 N   0  0  0  0  0  0  0  0  0  0  0  0
   20.2603  -15.9392  -16.0630 C   0  0  1  0  0  0  0  0  0  0  0  0
   20.6131  -16.7658  -14.8680 C   0  0  0  0  0  0  0  0  0  0  0  0
   19.4062  -17.2003  -14.1138 C   0  0  0  0  0  0  0  0  0  0  0  0
   19.7412  -18.1652  -12.9876 C   0  0  0  0  0  0  0  0  0  0  0  0
   18.4987  -18.6067  -12.2460 C   0  0  0  0  0  0  0  0  0  0  0  0
   18.7879  -19.6794  -11.3221 N   0  0  0  0  0  0  0  0  0  0  0  0
   19.4416  -14.7616  -15.8622 C   0  0  0  0  0  0  0  0  0  0  0  0
   20.0409  -13.7012  -15.4510 O   0  0  0  0  0  0  0  0  0  0  0  0
   14.8304  -11.2511  -16.8945 N   0  0  0  0  0  0  0  0  0  0  0  0
   16.2332  -11.4420  -16.7005 C   0  0  0  0  0  0  0  0  0  0  0  0
   16.8856  -10.4765  -16.2192 O   0  0  0  0  0  0  0  0  0  0  0  0
   16.9153  -12.7083  -17.0416 C   0  0  0  0  0  0  0  0  0  0  0  0
   17.3661  -13.3811  -15.7746 C   0  0  2  0  0  0  0  0  0  0  0  0
   18.0636  -14.6351  -16.0674 N   0  0  0  0  0  0  0  0  0  0  0  0
   16.2978  -13.5932  -14.7833 C   0  0  0  0  0  0  0  0  0  0  0  0
   15.8488  -12.6332  -13.8995 O   0  0  0  0  0  0  0  0  0  0  0  0
   15.7283  -14.7317  -14.7096 O   0  0  0  0  0  0  0  0  0  0  0  0
  2  1  1  6
  2  3  1  0
  4  3  1  0
  5  4  2  0
  6  5  1  0
  7  6  1  0
  7  8  2  0
  8  4  1  0
  9  2  1  0
 10  9  2  0
 11  9  1  0
 12 11  1  0
 12 13  1  1
 13 14  1  0
 14 15  1  0
 16 15  1  0
 17 16  1  0
 18 12  1  0
 19 18  2  0
 20 21  1  0
 21 22  2  0
 21 23  1  0
 24 23  1  6
 24 25  1  0
 25 18  1  0
 26 24  1  0
 27 26  1  0
 28 26  2  0
M  END
$$$$
