MHL.pdb
     RDKit          3D

 27 27  0  0  1  0  0  0  0  0999 V2000
    8.8542  -11.9020   20.0252 C   0  0  0  0  0  0  0  0  0  0  0  0
    7.8297  -12.5304   18.6917 S   0  0  0  0  0  0  0  0  0  0  0  0
    7.6663  -14.3195   18.8320 C   0  0  0  0  0  0  0  0  0  0  0  0
    8.8015  -14.8390   19.6911 C   0  0  0  0  0  0  0  0  0  0  0  0
    8.6270  -16.3309   19.9337 C   0  0  2  0  0  0  0  0  0  0  0  0
    7.9471  -16.9461   18.8394 N   0  0  0  0  0  0  0  0  0  0  0  0
    8.0305  -16.5931   21.2639 C   0  0  0  0  0  0  0  0  0  0  0  0
    6.7770  -16.5908   21.3286 O   0  0  0  0  0  0  0  0  0  0  0  0
    8.7551  -16.8412   22.4404 N   0  0  0  0  0  0  0  0  0  0  0  0
    8.1790  -17.0042   23.7657 C   0  0  1  0  0  0  0  0  0  0  0  0
    8.2233  -18.4728   24.1796 C   0  0  0  0  0  0  0  0  0  0  0  0
    7.2383  -19.2182   23.3773 C   0  0  0  0  0  0  0  0  0  0  0  0
    7.5426  -20.0437   22.2913 C   0  0  0  0  0  0  0  0  0  0  0  0
    6.4047  -20.5751   21.7832 N   0  0  0  0  0  0  0  0  0  0  0  0
    5.4066  -20.0888   22.5399 C   0  0  0  0  0  0  0  0  0  0  0  0
    5.8964  -19.2802   23.4908 N   0  0  0  0  0  0  0  0  0  0  0  0
    8.7788  -16.0927   24.7433 C   0  0  0  0  0  0  0  0  0  0  0  0
   10.0119  -15.8563   24.8177 O   0  0  0  0  0  0  0  0  0  0  0  0
    5.8150  -11.8619   26.6601 C   0  0  0  0  0  0  0  0  0  0  0  0
    6.8843  -12.8041   26.1597 C   0  0  1  0  0  0  0  0  0  0  0  0
    7.8657  -11.8809   25.3974 C   0  0  0  0  0  0  0  0  0  0  0  0
    7.6182  -13.5020   27.2413 C   0  0  0  0  0  0  0  0  0  0  0  0
    8.5830  -14.5107   26.7253 C   0  0  2  0  0  0  0  0  0  0  0  0
    8.0017  -15.3740   25.7197 N   0  0  0  0  0  0  0  0  0  0  0  0
    9.1024  -15.3614   27.8117 C   0  0  0  0  0  0  0  0  0  0  0  0
    9.7649  -14.9654   28.8038 O   0  0  0  0  0  0  0  0  0  0  0  0
    8.8515  -16.7355   27.7589 O   0  0  0  0  0  0  0  0  0  0  0  0
  1  2  1  0
  3  2  1  0
  4  3  1  0
  5  4  1  0
  5  6  1  6
  7  5  1  0
  8  7  2  0
  9  7  1  0
 10 17  1  0
 10  9  1  0
 10 11  1  1
 12 16  1  0
 12 11  1  0
 13 12  2  0
 14 13  1  0
 14 15  1  0
 15 16  2  0
 17 24  1  0
 18 17  2  0
 20 21  1  1
 20 19  1  0
 22 20  1  0
 23 25  1  0
 23 22  1  1
 24 23  1  0
 25 26  2  0
 25 27  1  0
M  END
$$$$
