MHL.pdb
     RDKit          3D

 27 27  0  0  1  0  0  0  0  0999 V2000
    9.2960  -12.2369   19.5855 C   0  0  0  0  0  0  0  0  0  0  0  0
    8.0521  -12.5264   18.3238 S   0  0  0  0  0  0  0  0  0  0  0  0
    7.5190  -14.2472   18.3687 C   0  0  0  0  0  0  0  0  0  0  0  0
    7.0525  -14.5684   19.7744 C   0  0  0  0  0  0  0  0  0  0  0  0
    8.1543  -15.2932   20.5331 C   0  0  2  0  0  0  0  0  0  0  0  0
    8.7065  -16.3456   19.7420 N   0  0  0  0  0  0  0  0  0  0  0  0
    7.6991  -15.7018   21.8822 C   0  0  0  0  0  0  0  0  0  0  0  0
    7.0476  -14.8522   22.5373 O   0  0  0  0  0  0  0  0  0  0  0  0
    7.9394  -16.9526   22.4723 N   0  0  0  0  0  0  0  0  0  0  0  0
    7.6316  -17.3076   23.8485 C   0  0  1  0  0  0  0  0  0  0  0  0
    7.7604  -18.8162   24.0422 C   0  0  0  0  0  0  0  0  0  0  0  0
    7.4197  -19.1429   25.4374 C   0  0  0  0  0  0  0  0  0  0  0  0
    6.9582  -18.2294   26.3892 C   0  0  0  0  0  0  0  0  0  0  0  0
    6.7409  -18.8616   27.5675 N   0  0  0  0  0  0  0  0  0  0  0  0
    7.0618  -20.1488   27.3542 C   0  0  0  0  0  0  0  0  0  0  0  0
    7.4667  -20.3228   26.0878 N   0  0  0  0  0  0  0  0  0  0  0  0
    8.4062  -16.5168   24.8082 C   0  0  0  0  0  0  0  0  0  0  0  0
    9.6349  -16.2760   24.6890 O   0  0  0  0  0  0  0  0  0  0  0  0
    5.4411  -12.9157   27.7184 C   0  0  0  0  0  0  0  0  0  0  0  0
    6.4843  -13.6183   26.8820 C   0  0  1  0  0  0  0  0  0  0  0  0
    7.0273  -12.5048   25.9535 C   0  0  0  0  0  0  0  0  0  0  0  0
    7.6054  -14.1778   27.6729 C   0  0  0  0  0  0  0  0  0  0  0  0
    8.5274  -15.0122   26.8554 C   0  0  2  0  0  0  0  0  0  0  0  0
    7.8242  -15.9344   25.9897 N   0  0  0  0  0  0  0  0  0  0  0  0
    9.4420  -15.7938   27.7076 C   0  0  0  0  0  0  0  0  0  0  0  0
    9.4673  -17.0468   27.8045 O   0  0  0  0  0  0  0  0  0  0  0  0
   10.3743  -15.1058   28.4894 O   0  0  0  0  0  0  0  0  0  0  0  0
  1  2  1  0
  3  2  1  0
  4  3  1  0
  5  4  1  0
  5  6  1  6
  7  5  1  0
  8  7  2  0
  9  7  1  0
 10 17  1  0
 10  9  1  0
 10 11  1  6
 12 16  1  0
 12 11  1  0
 13 12  2  0
 14 13  1  0
 14 15  1  0
 15 16  2  0
 17 24  1  0
 18 17  2  0
 20 21  1  6
 20 19  1  0
 22 20  1  0
 23 25  1  0
 23 22  1  1
 24 23  1  0
 25 26  2  0
 25 27  1  0
M  END
$$$$
