MHL.pdb
     RDKit          3D

 27 27  0  0  1  0  0  0  0  0999 V2000
    8.2622  -11.2343   20.4489 C   0  0  0  0  0  0  0  0  0  0  0  0
    8.4905  -12.2882   19.0136 S   0  0  0  0  0  0  0  0  0  0  0  0
    7.2889  -13.6309   19.0387 C   0  0  0  0  0  0  0  0  0  0  0  0
    7.3104  -14.2683   20.4135 C   0  0  0  0  0  0  0  0  0  0  0  0
    7.7788  -15.7121   20.3080 C   0  0  2  0  0  0  0  0  0  0  0  0
    6.9057  -16.4680   19.4686 N   0  0  0  0  0  0  0  0  0  0  0  0
    8.0177  -16.2989   21.6468 C   0  0  0  0  0  0  0  0  0  0  0  0
    7.0039  -16.5218   22.3524 O   0  0  0  0  0  0  0  0  0  0  0  0
    9.2778  -16.6200   22.1759 N   0  0  0  0  0  0  0  0  0  0  0  0
    9.5196  -17.1731   23.4989 C   0  0  1  0  0  0  0  0  0  0  0  0
   10.6108  -18.2382   23.4303 C   0  0  0  0  0  0  0  0  0  0  0  0
   10.8148  -18.7912   24.7802 C   0  0  0  0  0  0  0  0  0  0  0  0
   10.0465  -18.4764   25.9045 C   0  0  0  0  0  0  0  0  0  0  0  0
   10.5023  -19.1614   26.9807 N   0  0  0  0  0  0  0  0  0  0  0  0
   11.5384  -19.8917   26.5351 C   0  0  0  0  0  0  0  0  0  0  0  0
   11.7295  -19.6757   25.2256 N   0  0  0  0  0  0  0  0  0  0  0  0
    9.7700  -16.1289   24.4955 C   0  0  0  0  0  0  0  0  0  0  0  0
   10.7776  -15.3762   24.4851 O   0  0  0  0  0  0  0  0  0  0  0  0
    5.9461  -12.7670   26.4933 C   0  0  0  0  0  0  0  0  0  0  0  0
    7.2153  -13.4454   26.0344 C   0  0  1  0  0  0  0  0  0  0  0  0
    8.1219  -12.2731   25.5866 C   0  0  0  0  0  0  0  0  0  0  0  0
    7.9034  -14.2083   27.1021 C   0  0  0  0  0  0  0  0  0  0  0  0
    9.1392  -14.8844   26.6222 C   0  0  2  0  0  0  0  0  0  0  0  0
    8.8735  -15.8644   25.5910 N   0  0  0  0  0  0  0  0  0  0  0  0
    9.8428  -15.5631   27.7259 C   0  0  0  0  0  0  0  0  0  0  0  0
    9.9664  -16.8061   27.8660 O   0  0  0  0  0  0  0  0  0  0  0  0
   10.4341  -14.7787   28.7204 O   0  0  0  0  0  0  0  0  0  0  0  0
  1  2  1  0
  3  2  1  0
  4  3  1  0
  5  4  1  0
  5  6  1  1
  7  5  1  0
  8  7  2  0
  9  7  1  0
 10 17  1  0
 10  9  1  0
 10 11  1  6
 12 16  1  0
 12 11  1  0
 13 12  2  0
 14 13  1  0
 14 15  1  0
 15 16  2  0
 17 24  1  0
 18 17  2  0
 20 21  1  1
 20 19  1  0
 22 20  1  0
 23 25  1  0
 23 22  1  1
 24 23  1  0
 25 26  2  0
 25 27  1  0
M  END
$$$$
