MHL.pdb
     RDKit          3D

 27 27  0  0  1  0  0  0  0  0999 V2000
    6.7430  -11.6009   26.3277 C   0  0  0  0  0  0  0  0  0  0  0  0
    5.5704  -12.7725   27.0173 S   0  0  0  0  0  0  0  0  0  0  0  0
    5.2300  -14.0778   25.8226 C   0  0  0  0  0  0  0  0  0  0  0  0
    6.5507  -14.6054   25.2991 C   0  0  0  0  0  0  0  0  0  0  0  0
    6.3019  -15.6151   24.1884 C   0  0  2  0  0  0  0  0  0  0  0  0
    5.4390  -16.6602   24.6376 N   0  0  0  0  0  0  0  0  0  0  0  0
    7.5740  -16.0746   23.5846 C   0  0  0  0  0  0  0  0  0  0  0  0
    7.8806  -17.2781   23.7664 O   0  0  0  0  0  0  0  0  0  0  0  0
    8.4486  -15.2733   22.8339 N   0  0  0  0  0  0  0  0  0  0  0  0
    9.7847  -15.6567   22.4064 C   0  0  1  0  0  0  0  0  0  0  0  0
   10.3453  -14.6154   21.4413 C   0  0  0  0  0  0  0  0  0  0  0  0
    9.3163  -14.3037   20.4347 C   0  0  0  0  0  0  0  0  0  0  0  0
    8.5389  -13.1425   20.4100 C   0  0  0  0  0  0  0  0  0  0  0  0
    7.6941  -13.1758   19.3515 N   0  0  0  0  0  0  0  0  0  0  0  0
    7.9404  -14.3391   18.7259 C   0  0  0  0  0  0  0  0  0  0  0  0
    8.9053  -15.0153   19.3660 N   0  0  0  0  0  0  0  0  0  0  0  0
   10.6636  -15.9497   23.5412 C   0  0  0  0  0  0  0  0  0  0  0  0
   11.8886  -16.2126   23.4303 O   0  0  0  0  0  0  0  0  0  0  0  0
   11.4364  -13.4817   29.0035 C   0  0  0  0  0  0  0  0  0  0  0  0
   11.6436  -14.7066   28.1442 C   0  0  1  0  0  0  0  0  0  0  0  0
   11.2659  -15.8829   29.0771 C   0  0  0  0  0  0  0  0  0  0  0  0
   10.7779  -14.7455   26.9423 C   0  0  0  0  0  0  0  0  0  0  0  0
   11.0831  -15.8961   26.0493 C   0  0  2  0  0  0  0  0  0  0  0  0
   10.2002  -15.9624   24.9046 N   0  0  0  0  0  0  0  0  0  0  0  0
   10.9883  -17.1771   26.7731 C   0  0  0  0  0  0  0  0  0  0  0  0
    9.9280  -17.8035   27.0249 O   0  0  0  0  0  0  0  0  0  0  0  0
   12.1674  -17.7705   27.2330 O   0  0  0  0  0  0  0  0  0  0  0  0
  1  2  1  0
  3  2  1  0
  4  3  1  0
  5  4  1  0
  5  6  1  1
  7  5  1  0
  8  7  2  0
  9  7  1  0
 10 17  1  0
 10  9  1  0
 10 11  1  1
 12 16  1  0
 12 11  1  0
 13 12  2  0
 14 13  1  0
 14 15  1  0
 15 16  2  0
 17 24  1  0
 18 17  2  0
 20 21  1  1
 20 19  1  0
 22 20  1  0
 23 25  1  0
 23 22  1  1
 24 23  1  0
 25 26  2  0
 25 27  1  0
M  END
$$$$
