MHL.pdb
     RDKit          3D

 27 27  0  0  1  0  0  0  0  0999 V2000
    8.6680  -11.6936   19.6059 C   0  0  0  0  0  0  0  0  0  0  0  0
    7.8089  -12.3273   18.1625 S   0  0  0  0  0  0  0  0  0  0  0  0
    7.9225  -14.1252   18.1189 C   0  0  0  0  0  0  0  0  0  0  0  0
    7.8846  -14.6430   19.5426 C   0  0  0  0  0  0  0  0  0  0  0  0
    8.1252  -16.1453   19.5543 C   0  0  2  0  0  0  0  0  0  0  0  0
    7.1441  -16.8218   18.7680 N   0  0  0  0  0  0  0  0  0  0  0  0
    8.2745  -16.6552   20.9370 C   0  0  0  0  0  0  0  0  0  0  0  0
    7.2321  -16.7027   21.6346 O   0  0  0  0  0  0  0  0  0  0  0  0
    9.4799  -17.0835   21.5152 N   0  0  0  0  0  0  0  0  0  0  0  0
    9.6698  -17.4151   22.9183 C   0  0  1  0  0  0  0  0  0  0  0  0
   10.8806  -18.3302   23.0815 C   0  0  0  0  0  0  0  0  0  0  0  0
   11.0338  -18.6587   24.5091 C   0  0  0  0  0  0  0  0  0  0  0  0
   11.2313  -17.7285   25.5333 C   0  0  0  0  0  0  0  0  0  0  0  0
   11.3302  -18.3676   26.7237 N   0  0  0  0  0  0  0  0  0  0  0  0
   11.1967  -19.6755   26.4466 C   0  0  0  0  0  0  0  0  0  0  0  0
   11.0199  -19.8554   25.1296 N   0  0  0  0  0  0  0  0  0  0  0  0
    9.7083  -16.2212   23.7665 C   0  0  0  0  0  0  0  0  0  0  0  0
   10.2113  -15.1245   23.4116 O   0  0  0  0  0  0  0  0  0  0  0  0
    6.1503  -12.5389   26.3734 C   0  0  0  0  0  0  0  0  0  0  0  0
    7.5839  -12.9345   26.1088 C   0  0  1  0  0  0  0  0  0  0  0  0
    8.2138  -13.0145   27.5207 C   0  0  0  0  0  0  0  0  0  0  0  0
    7.7262  -14.2494   25.4406 C   0  0  0  0  0  0  0  0  0  0  0  0
    8.9583  -14.9750   25.8531 C   0  0  2  0  0  0  0  0  0  0  0  0
    9.1657  -16.1933   25.1001 N   0  0  0  0  0  0  0  0  0  0  0  0
    8.9214  -15.3245   27.2849 C   0  0  0  0  0  0  0  0  0  0  0  0
    8.1137  -16.1201   27.8278 O   0  0  0  0  0  0  0  0  0  0  0  0
    9.8561  -14.7321   28.1389 O   0  0  0  0  0  0  0  0  0  0  0  0
  1  2  1  0
  3  2  1  0
  4  3  1  0
  5  4  1  0
  5  6  1  1
  7  5  1  0
  8  7  2  0
  9  7  1  0
 10 17  1  0
 10  9  1  0
 10 11  1  6
 12 16  1  0
 12 11  1  0
 13 12  2  0
 14 13  1  0
 14 15  1  0
 15 16  2  0
 17 24  1  0
 18 17  2  0
 20 21  1  1
 20 19  1  0
 22 20  1  0
 23 25  1  0
 23 22  1  6
 24 23  1  0
 25 26  2  0
 25 27  1  0
M  END
$$$$
