MHL.pdb
     RDKit          3D

 27 27  0  0  1  0  0  0  0  0999 V2000
    7.4790  -12.1071   26.5776 C   0  0  0  0  0  0  0  0  0  0  0  0
    6.3030  -12.7622   25.3898 S   0  0  0  0  0  0  0  0  0  0  0  0
    5.7913  -14.4190   25.8802 C   0  0  0  0  0  0  0  0  0  0  0  0
    6.9719  -15.3546   25.7142 C   0  0  0  0  0  0  0  0  0  0  0  0
    6.9291  -16.0040   24.3389 C   0  0  2  0  0  0  0  0  0  0  0  0
    5.7736  -16.8320   24.2053 N   0  0  0  0  0  0  0  0  0  0  0  0
    8.2127  -16.6704   24.0188 C   0  0  0  0  0  0  0  0  0  0  0  0
    8.3649  -17.8373   24.4552 O   0  0  0  0  0  0  0  0  0  0  0  0
    9.2560  -16.0997   23.2728 N   0  0  0  0  0  0  0  0  0  0  0  0
   10.6029  -16.6365   23.1611 C   0  0  1  0  0  0  0  0  0  0  0  0
   11.2748  -16.1078   21.8967 C   0  0  0  0  0  0  0  0  0  0  0  0
   10.6202  -16.7160   20.7258 C   0  0  0  0  0  0  0  0  0  0  0  0
    9.9413  -17.9377   20.7264 C   0  0  0  0  0  0  0  0  0  0  0  0
    9.4600  -18.1982   19.4872 N   0  0  0  0  0  0  0  0  0  0  0  0
    9.8327  -17.1559   18.7256 C   0  0  0  0  0  0  0  0  0  0  0  0
   10.5239  -16.2699   19.4573 N   0  0  0  0  0  0  0  0  0  0  0  0
   11.3838  -16.4244   24.3824 C   0  0  0  0  0  0  0  0  0  0  0  0
   12.3048  -15.5743   24.4874 O   0  0  0  0  0  0  0  0  0  0  0  0
   11.0263  -13.9017   28.7092 C   0  0  0  0  0  0  0  0  0  0  0  0
   10.0576  -15.0375   28.4787 C   0  0  1  0  0  0  0  0  0  0  0  0
    8.6699  -14.3987   28.7293 C   0  0  0  0  0  0  0  0  0  0  0  0
   10.0966  -15.5847   27.1022 C   0  0  0  0  0  0  0  0  0  0  0  0
   11.1772  -16.5900   26.9121 C   0  0  2  0  0  0  0  0  0  0  0  0
   11.1647  -17.1780   25.5898 N   0  0  0  0  0  0  0  0  0  0  0  0
   11.0740  -17.6817   27.8976 C   0  0  0  0  0  0  0  0  0  0  0  0
   10.2660  -18.6434   27.8488 O   0  0  0  0  0  0  0  0  0  0  0  0
   11.9391  -17.6713   28.9955 O   0  0  0  0  0  0  0  0  0  0  0  0
  1  2  1  0
  3  2  1  0
  4  3  1  0
  5  4  1  0
  5  6  1  1
  7  5  1  0
  8  7  2  0
  9  7  1  0
 10 17  1  0
 10  9  1  0
 10 11  1  6
 12 16  1  0
 12 11  1  0
 13 12  2  0
 14 13  1  0
 14 15  1  0
 15 16  2  0
 17 24  1  0
 18 17  2  0
 20 21  1  6
 20 19  1  0
 22 20  1  0
 23 25  1  0
 23 22  1  6
 24 23  1  0
 25 26  2  0
 25 27  1  0
M  END
$$$$
