MHL.pdb
     RDKit          3D

 27 27  0  0  1  0  0  0  0  0999 V2000
    8.6917  -12.0371   18.1135 C   0  0  0  0  0  0  0  0  0  0  0  0
    8.3106  -12.5636   19.7870 S   0  0  0  0  0  0  0  0  0  0  0  0
    8.3052  -14.3632   19.8797 C   0  0  0  0  0  0  0  0  0  0  0  0
    7.9305  -14.7697   21.2908 C   0  0  0  0  0  0  0  0  0  0  0  0
    7.8128  -16.2841   21.3798 C   0  0  2  0  0  0  0  0  0  0  0  0
    7.2410  -16.8189   20.1858 N   0  0  0  0  0  0  0  0  0  0  0  0
    7.1391  -16.6982   22.6322 C   0  0  0  0  0  0  0  0  0  0  0  0
    5.8847  -16.6545   22.6373 O   0  0  0  0  0  0  0  0  0  0  0  0
    7.7925  -17.1306   23.7971 N   0  0  0  0  0  0  0  0  0  0  0  0
    9.2336  -17.1748   23.9872 C   0  0  1  0  0  0  0  0  0  0  0  0
    9.9435  -17.0747   22.6395 C   0  0  0  0  0  0  0  0  0  0  0  0
    9.7195  -18.3257   21.8951 C   0  0  0  0  0  0  0  0  0  0  0  0
   10.0974  -19.5997   22.3280 C   0  0  0  0  0  0  0  0  0  0  0  0
    9.7407  -20.5249   21.4049 N   0  0  0  0  0  0  0  0  0  0  0  0
    9.1498  -19.8391   20.4120 C   0  0  0  0  0  0  0  0  0  0  0  0
    9.1341  -18.5291   20.6979 N   0  0  0  0  0  0  0  0  0  0  0  0
    9.6898  -16.1925   24.9738 C   0  0  0  0  0  0  0  0  0  0  0  0
   10.8975  -15.8957   25.1616 O   0  0  0  0  0  0  0  0  0  0  0  0
    5.9389  -12.6247   26.8710 C   0  0  0  0  0  0  0  0  0  0  0  0
    7.1941  -13.2794   26.3444 C   0  0  1  0  0  0  0  0  0  0  0  0
    7.8726  -12.1650   25.5111 C   0  0  0  0  0  0  0  0  0  0  0  0
    8.1260  -13.7238   27.4072 C   0  0  0  0  0  0  0  0  0  0  0  0
    9.2238  -14.5842   26.8883 C   0  0  2  0  0  0  0  0  0  0  0  0
    8.7860  -15.4670   25.8284 N   0  0  0  0  0  0  0  0  0  0  0  0
    9.8086  -15.4120   27.9590 C   0  0  0  0  0  0  0  0  0  0  0  0
    9.7656  -16.6665   28.0261 O   0  0  0  0  0  0  0  0  0  0  0  0
   10.4757  -14.7709   29.0067 O   0  0  0  0  0  0  0  0  0  0  0  0
  1  2  1  0
  3  2  1  0
  4  3  1  0
  5  4  1  0
  5  6  1  6
  7  5  1  0
  8  7  2  0
  9  7  1  0
 10 17  1  0
 10  9  1  0
 10 11  1  6
 12 16  1  0
 12 11  1  0
 13 12  2  0
 14 13  1  0
 14 15  1  0
 15 16  2  0
 17 24  1  0
 18 17  2  0
 20 21  1  6
 20 19  1  0
 22 20  1  0
 23 25  1  0
 23 22  1  1
 24 23  1  0
 25 26  2  0
 25 27  1  0
M  END
$$$$
