MHL.pdb
     RDKit          3D

 27 27  0  0  1  0  0  0  0  0999 V2000
    8.8414  -11.4274   19.3699 C   0  0  0  0  0  0  0  0  0  0  0  0
    8.0536  -12.1739   17.9399 S   0  0  0  0  0  0  0  0  0  0  0  0
    8.4802  -13.9221   17.8450 C   0  0  0  0  0  0  0  0  0  0  0  0
    8.0515  -14.5913   19.1354 C   0  0  0  0  0  0  0  0  0  0  0  0
    8.3623  -16.0795   19.0756 C   0  0  2  0  0  0  0  0  0  0  0  0
    7.5978  -16.7160   18.0515 N   0  0  0  0  0  0  0  0  0  0  0  0
    8.2536  -16.7056   20.4136 C   0  0  0  0  0  0  0  0  0  0  0  0
    7.1163  -17.1142   20.7528 O   0  0  0  0  0  0  0  0  0  0  0  0
    9.3154  -16.8733   21.3165 N   0  0  0  0  0  0  0  0  0  0  0  0
    9.1818  -17.2708   22.7090 C   0  0  1  0  0  0  0  0  0  0  0  0
   10.1646  -18.3937   23.0302 C   0  0  0  0  0  0  0  0  0  0  0  0
   10.0542  -18.7211   24.4620 C   0  0  0  0  0  0  0  0  0  0  0  0
   10.9038  -18.2461   25.4650 C   0  0  0  0  0  0  0  0  0  0  0  0
   10.5200  -18.7404   26.6665 N   0  0  0  0  0  0  0  0  0  0  0  0
    9.4483  -19.5115   26.4171 C   0  0  0  0  0  0  0  0  0  0  0  0
    9.1659  -19.5042   25.1063 N   0  0  0  0  0  0  0  0  0  0  0  0
    9.2686  -16.1264   23.6196 C   0  0  0  0  0  0  0  0  0  0  0  0
   10.0516  -15.1561   23.4542 O   0  0  0  0  0  0  0  0  0  0  0  0
    7.8207  -11.7229   26.2556 C   0  0  0  0  0  0  0  0  0  0  0  0
    7.4098  -13.0405   26.8691 C   0  0  1  0  0  0  0  0  0  0  0  0
    6.0092  -12.7530   27.4629 C   0  0  0  0  0  0  0  0  0  0  0  0
    7.3017  -14.1469   25.8894 C   0  0  0  0  0  0  0  0  0  0  0  0
    8.5694  -14.9124   25.7425 C   0  0  2  0  0  0  0  0  0  0  0  0
    8.4542  -16.0054   24.8010 N   0  0  0  0  0  0  0  0  0  0  0  0
    9.0137  -15.4678   27.0340 C   0  0  0  0  0  0  0  0  0  0  0  0
    8.6321  -16.5540   27.5384 O   0  0  0  0  0  0  0  0  0  0  0  0
    9.9412  -14.7420   27.7867 O   0  0  0  0  0  0  0  0  0  0  0  0
  1  2  1  0
  3  2  1  0
  4  3  1  0
  5  4  1  0
  5  6  1  6
  7  5  1  0
  8  7  2  0
  9  7  1  0
 10 17  1  0
 10  9  1  0
 10 11  1  1
 12 16  1  0
 12 11  1  0
 13 12  2  0
 14 13  1  0
 14 15  1  0
 15 16  2  0
 17 24  1  0
 18 17  2  0
 20 21  1  6
 20 19  1  0
 22 20  1  0
 23 25  1  0
 23 22  1  1
 24 23  1  0
 25 26  2  0
 25 27  1  0
M  END
$$$$
