MHL.pdb
     RDKit          3D

 27 27  0  0  1  0  0  0  0  0999 V2000
   11.7368  -20.8243   24.2141 C   0  0  0  0  0  0  0  0  0  0  0  0
   12.5041  -21.3402   22.6753 S   0  0  0  0  0  0  0  0  0  0  0  0
   12.1549  -20.1371   21.3799 C   0  0  0  0  0  0  0  0  0  0  0  0
   11.7496  -18.8317   22.0343 C   0  0  0  0  0  0  0  0  0  0  0  0
   11.4218  -17.7972   20.9678 C   0  0  2  0  0  0  0  0  0  0  0  0
   12.5701  -17.5118   20.1687 N   0  0  0  0  0  0  0  0  0  0  0  0
   10.7620  -16.6088   21.5562 C   0  0  0  0  0  0  0  0  0  0  0  0
   11.5113  -15.6641   21.9048 O   0  0  0  0  0  0  0  0  0  0  0  0
    9.3790  -16.4643   21.7490 N   0  0  0  0  0  0  0  0  0  0  0  0
    8.7326  -15.3349   22.3982 C   0  0  1  0  0  0  0  0  0  0  0  0
    7.3952  -15.0382   21.7249 C   0  0  0  0  0  0  0  0  0  0  0  0
    7.6509  -14.6002   20.3421 C   0  0  0  0  0  0  0  0  0  0  0  0
    8.1230  -13.3381   19.9709 C   0  0  0  0  0  0  0  0  0  0  0  0
    8.2470  -13.2703   18.6235 N   0  0  0  0  0  0  0  0  0  0  0  0
    7.8583  -14.4707   18.1616 C   0  0  0  0  0  0  0  0  0  0  0  0
    7.5022  -15.2670   19.1799 N   0  0  0  0  0  0  0  0  0  0  0  0
    8.6412  -15.5119   23.8496 C   0  0  0  0  0  0  0  0  0  0  0  0
    8.8100  -16.6126   24.4341 O   0  0  0  0  0  0  0  0  0  0  0  0
    5.7307  -12.0949   26.2453 C   0  0  0  0  0  0  0  0  0  0  0  0
    7.1984  -12.4243   26.1084 C   0  0  1  0  0  0  0  0  0  0  0  0
    7.9142  -11.1502   26.6195 C   0  0  0  0  0  0  0  0  0  0  0  0
    7.6289  -13.5820   26.9271 C   0  0  0  0  0  0  0  0  0  0  0  0
    8.5233  -14.5116   26.1852 C   0  0  2  0  0  0  0  0  0  0  0  0
    8.3474  -14.4281   24.7511 N   0  0  0  0  0  0  0  0  0  0  0  0
    8.2988  -15.9110   26.5915 C   0  0  0  0  0  0  0  0  0  0  0  0
    8.6920  -16.4386   27.6625 O   0  0  0  0  0  0  0  0  0  0  0  0
    7.5888  -16.7492   25.7271 O   0  0  0  0  0  0  0  0  0  0  0  0
  1  2  1  0
  3  2  1  0
  4  3  1  0
  5  4  1  0
  5  6  1  1
  7  5  1  0
  8  7  2  0
  9  7  1  0
 10 17  1  0
 10  9  1  0
 10 11  1  6
 12 16  1  0
 12 11  1  0
 13 12  2  0
 14 13  1  0
 14 15  1  0
 15 16  2  0
 17 24  1  0
 18 17  2  0
 20 21  1  1
 20 19  1  0
 22 20  1  0
 23 25  1  0
 23 22  1  1
 24 23  1  0
 25 26  2  0
 25 27  1  0
M  END
$$$$
