MHL.pdb
     RDKit          3D

 27 27  0  0  1  0  0  0  0  0999 V2000
    9.1700  -10.9892   19.3106 C   0  0  0  0  0  0  0  0  0  0  0  0
    8.7118  -12.6551   19.7981 S   0  0  0  0  0  0  0  0  0  0  0  0
    7.5237  -13.3344   18.6258 C   0  0  0  0  0  0  0  0  0  0  0  0
    6.9852  -14.6348   19.1877 C   0  0  0  0  0  0  0  0  0  0  0  0
    8.0863  -15.6846   19.2111 C   0  0  2  0  0  0  0  0  0  0  0  0
    8.0106  -16.5241   18.0587 N   0  0  0  0  0  0  0  0  0  0  0  0
    8.1150  -16.4049   20.5051 C   0  0  0  0  0  0  0  0  0  0  0  0
    7.1421  -17.1589   20.7509 O   0  0  0  0  0  0  0  0  0  0  0  0
    9.1371  -16.3072   21.4624 N   0  0  0  0  0  0  0  0  0  0  0  0
    9.1753  -17.0203   22.7292 C   0  0  1  0  0  0  0  0  0  0  0  0
   10.1156  -18.2185   22.6282 C   0  0  0  0  0  0  0  0  0  0  0  0
   10.1297  -18.9170   23.9248 C   0  0  0  0  0  0  0  0  0  0  0  0
    9.0065  -19.4434   24.5688 C   0  0  0  0  0  0  0  0  0  0  0  0
    9.3735  -20.0189   25.7390 N   0  0  0  0  0  0  0  0  0  0  0  0
   10.7043  -19.8540   25.8238 C   0  0  0  0  0  0  0  0  0  0  0  0
   11.1605  -19.1986   24.7467 N   0  0  0  0  0  0  0  0  0  0  0  0
    9.4670  -16.1291   23.8548 C   0  0  0  0  0  0  0  0  0  0  0  0
   10.5657  -15.5383   24.0154 O   0  0  0  0  0  0  0  0  0  0  0  0
    5.7320  -12.7877   26.3952 C   0  0  0  0  0  0  0  0  0  0  0  0
    6.9818  -13.4006   25.8087 C   0  0  1  0  0  0  0  0  0  0  0  0
    7.9567  -12.2048   25.6804 C   0  0  0  0  0  0  0  0  0  0  0  0
    7.5985  -14.4370   26.6695 C   0  0  0  0  0  0  0  0  0  0  0  0
    8.8130  -15.0441   26.0604 C   0  0  2  0  0  0  0  0  0  0  0  0
    8.5102  -15.8431   24.8923 N   0  0  0  0  0  0  0  0  0  0  0  0
    9.5270  -15.8998   27.0257 C   0  0  0  0  0  0  0  0  0  0  0  0
   10.5804  -15.5955   27.6404 O   0  0  0  0  0  0  0  0  0  0  0  0
    9.0093  -17.1688   27.3003 O   0  0  0  0  0  0  0  0  0  0  0  0
  1  2  1  0
  3  2  1  0
  4  3  1  0
  5  4  1  0
  5  6  1  6
  7  5  1  0
  8  7  2  0
  9  7  1  0
 10 17  1  0
 10  9  1  0
 10 11  1  6
 12 16  1  0
 12 11  1  0
 13 12  2  0
 14 13  1  0
 14 15  1  0
 15 16  2  0
 17 24  1  0
 18 17  2  0
 20 21  1  1
 20 19  1  0
 22 20  1  0
 23 25  1  0
 23 22  1  1
 24 23  1  0
 25 26  2  0
 25 27  1  0
M  END
$$$$
