MHL.pdb
     RDKit          3D

 27 27  0  0  1  0  0  0  0  0999 V2000
    6.7806  -10.6727   24.9362 C   0  0  0  0  0  0  0  0  0  0  0  0
    5.8170  -11.5778   26.1508 S   0  0  0  0  0  0  0  0  0  0  0  0
    5.3644  -13.1946   25.4963 C   0  0  0  0  0  0  0  0  0  0  0  0
    6.6067  -14.0616   25.4580 C   0  0  0  0  0  0  0  0  0  0  0  0
    6.3015  -15.3734   24.7502 C   0  0  2  0  0  0  0  0  0  0  0  0
    5.3142  -16.1171   25.4647 N   0  0  0  0  0  0  0  0  0  0  0  0
    7.5432  -16.1209   24.4444 C   0  0  0  0  0  0  0  0  0  0  0  0
    7.9475  -16.9229   25.3212 O   0  0  0  0  0  0  0  0  0  0  0  0
    8.2896  -15.9996   23.2616 N   0  0  0  0  0  0  0  0  0  0  0  0
    9.5741  -16.6323   23.0077 C   0  0  1  0  0  0  0  0  0  0  0  0
   10.0221  -16.3530   21.5755 C   0  0  0  0  0  0  0  0  0  0  0  0
   11.2180  -17.1638   21.2893 C   0  0  0  0  0  0  0  0  0  0  0  0
   11.3032  -18.5516   21.4306 C   0  0  0  0  0  0  0  0  0  0  0  0
   12.5420  -18.9752   21.0823 N   0  0  0  0  0  0  0  0  0  0  0  0
   13.2187  -17.8693   20.7295 C   0  0  0  0  0  0  0  0  0  0  0  0
   12.4359  -16.7874   20.8506 N   0  0  0  0  0  0  0  0  0  0  0  0
   10.5714  -16.2812   24.0217 C   0  0  0  0  0  0  0  0  0  0  0  0
   11.4627  -15.4092   23.8567 O   0  0  0  0  0  0  0  0  0  0  0  0
   10.3610  -14.0581   27.1110 C   0  0  0  0  0  0  0  0  0  0  0  0
   11.2226  -14.9371   27.9864 C   0  0  1  0  0  0  0  0  0  0  0  0
   10.6431  -14.7287   29.4068 C   0  0  0  0  0  0  0  0  0  0  0  0
   11.1508  -16.3764   27.6413 C   0  0  0  0  0  0  0  0  0  0  0  0
   11.6756  -16.6694   26.2800 C   0  0  2  0  0  0  0  0  0  0  0  0
   10.6224  -16.9089   25.3167 N   0  0  0  0  0  0  0  0  0  0  0  0
   12.5623  -17.8472   26.2886 C   0  0  0  0  0  0  0  0  0  0  0  0
   13.8179  -17.8237   26.2347 O   0  0  0  0  0  0  0  0  0  0  0  0
   11.9819  -19.1167   26.3617 O   0  0  0  0  0  0  0  0  0  0  0  0
  1  2  1  0
  3  2  1  0
  4  3  1  0
  5  4  1  0
  5  6  1  1
  7  5  1  0
  8  7  2  0
  9  7  1  0
 10 17  1  0
 10  9  1  0
 10 11  1  6
 12 16  1  0
 12 11  1  0
 13 12  2  0
 14 13  1  0
 14 15  1  0
 15 16  2  0
 17 24  1  0
 18 17  2  0
 20 21  1  1
 20 19  1  0
 22 20  1  0
 23 25  1  0
 23 22  1  1
 24 23  1  0
 25 26  2  0
 25 27  1  0
M  END
$$$$
