MHL.pdb
     RDKit          3D

 27 27  0  0  1  0  0  0  0  0999 V2000
    8.0410  -12.0237   18.4498 C   0  0  0  0  0  0  0  0  0  0  0  0
    8.6097  -13.2894   19.5890 S   0  0  0  0  0  0  0  0  0  0  0  0
    7.2341  -13.8747   20.5951 C   0  0  0  0  0  0  0  0  0  0  0  0
    6.5505  -15.0096   19.8593 C   0  0  0  0  0  0  0  0  0  0  0  0
    7.4474  -16.2387   19.8543 C   0  0  2  0  0  0  0  0  0  0  0  0
    6.8398  -17.3065   19.1269 N   0  0  0  0  0  0  0  0  0  0  0  0
    7.8861  -16.5897   21.2249 C   0  0  0  0  0  0  0  0  0  0  0  0
    6.9850  -16.7109   22.0902 O   0  0  0  0  0  0  0  0  0  0  0  0
    9.2174  -16.7943   21.6202 N   0  0  0  0  0  0  0  0  0  0  0  0
    9.6524  -17.1502   22.9615 C   0  0  1  0  0  0  0  0  0  0  0  0
   11.0386  -17.7875   22.9113 C   0  0  0  0  0  0  0  0  0  0  0  0
   11.4105  -18.2140   24.2711 C   0  0  0  0  0  0  0  0  0  0  0  0
   12.3795  -17.6017   25.0709 C   0  0  0  0  0  0  0  0  0  0  0  0
   12.4687  -18.2442   26.2602 N   0  0  0  0  0  0  0  0  0  0  0  0
   11.5699  -19.2413   26.2033 C   0  0  0  0  0  0  0  0  0  0  0  0
   10.9365  -19.2287   25.0215 N   0  0  0  0  0  0  0  0  0  0  0  0
    9.5497  -16.0230   23.8915 C   0  0  0  0  0  0  0  0  0  0  0  0
    9.9024  -14.8485   23.6120 O   0  0  0  0  0  0  0  0  0  0  0  0
    8.0385  -12.0972   26.6690 C   0  0  0  0  0  0  0  0  0  0  0  0
    7.2686  -13.3509   27.0110 C   0  0  1  0  0  0  0  0  0  0  0  0
    5.7874  -12.9044   26.9536 C   0  0  0  0  0  0  0  0  0  0  0  0
    7.4769  -14.4597   26.0503 C   0  0  0  0  0  0  0  0  0  0  0  0
    8.8443  -15.0415   26.1295 C   0  0  2  0  0  0  0  0  0  0  0  0
    9.0278  -16.1577   25.2269 N   0  0  0  0  0  0  0  0  0  0  0  0
    9.1525  -15.5038   27.4951 C   0  0  0  0  0  0  0  0  0  0  0  0
    9.4450  -14.7694   28.4724 O   0  0  0  0  0  0  0  0  0  0  0  0
    9.1256  -16.8770   27.7548 O   0  0  0  0  0  0  0  0  0  0  0  0
  1  2  1  0
  3  2  1  0
  4  3  1  0
  5  4  1  0
  5  6  1  1
  7  5  1  0
  8  7  2  0
  9  7  1  0
 10 17  1  0
 10  9  1  0
 10 11  1  6
 12 16  1  0
 12 11  1  0
 13 12  2  0
 14 13  1  0
 14 15  1  0
 15 16  2  0
 17 24  1  0
 18 17  2  0
 20 21  1  6
 20 19  1  0
 22 20  1  0
 23 25  1  0
 23 22  1  1
 24 23  1  0
 25 26  2  0
 25 27  1  0
M  END
$$$$
