MHL.pdb
     RDKit          3D

 27 27  0  0  1  0  0  0  0  0999 V2000
    8.4199  -11.4270   17.7242 C   0  0  0  0  0  0  0  0  0  0  0  0
    8.3608  -12.6181   19.0662 S   0  0  0  0  0  0  0  0  0  0  0  0
    7.0542  -13.8216   18.7636 C   0  0  0  0  0  0  0  0  0  0  0  0
    6.9500  -14.7304   19.9719 C   0  0  0  0  0  0  0  0  0  0  0  0
    8.3332  -14.9768   20.5559 C   0  0  2  0  0  0  0  0  0  0  0  0
    9.1808  -15.6140   19.5999 N   0  0  0  0  0  0  0  0  0  0  0  0
    8.2491  -15.6610   21.8670 C   0  0  0  0  0  0  0  0  0  0  0  0
    7.3897  -15.2286   22.6731 O   0  0  0  0  0  0  0  0  0  0  0  0
    9.0491  -16.7429   22.2672 N   0  0  0  0  0  0  0  0  0  0  0  0
    8.9778  -17.4112   23.5568 C   0  0  1  0  0  0  0  0  0  0  0  0
    9.7205  -18.7435   23.4986 C   0  0  0  0  0  0  0  0  0  0  0  0
    8.9201  -19.6949   22.7088 C   0  0  0  0  0  0  0  0  0  0  0  0
    7.9951  -19.3444   21.7214 C   0  0  0  0  0  0  0  0  0  0  0  0
    7.4387  -20.4613   21.1939 N   0  0  0  0  0  0  0  0  0  0  0  0
    8.0073  -21.4919   21.8418 C   0  0  0  0  0  0  0  0  0  0  0  0
    8.8903  -21.0421   22.7451 N   0  0  0  0  0  0  0  0  0  0  0  0
    9.4058  -16.5395   24.6537 C   0  0  0  0  0  0  0  0  0  0  0  0
   10.5497  -16.0227   24.7337 O   0  0  0  0  0  0  0  0  0  0  0  0
    6.2009  -12.6821   26.7088 C   0  0  0  0  0  0  0  0  0  0  0  0
    7.4196  -13.4785   26.3062 C   0  0  1  0  0  0  0  0  0  0  0  0
    8.5207  -12.4057   26.1237 C   0  0  0  0  0  0  0  0  0  0  0  0
    7.8600  -14.4540   27.3308 C   0  0  0  0  0  0  0  0  0  0  0  0
    8.9557  -15.3391   26.8505 C   0  0  2  0  0  0  0  0  0  0  0  0
    8.5449  -16.1890   25.7536 N   0  0  0  0  0  0  0  0  0  0  0  0
    9.4608  -16.2035   27.9329 C   0  0  0  0  0  0  0  0  0  0  0  0
    9.2860  -17.4448   28.0257 O   0  0  0  0  0  0  0  0  0  0  0  0
   10.2029  -15.6166   28.9618 O   0  0  0  0  0  0  0  0  0  0  0  0
  1  2  1  0
  3  2  1  0
  4  3  1  0
  5  4  1  0
  5  6  1  6
  7  5  1  0
  8  7  2  0
  9  7  1  0
 10 17  1  0
 10  9  1  0
 10 11  1  6
 12 16  1  0
 12 11  1  0
 13 12  2  0
 14 13  1  0
 14 15  1  0
 15 16  2  0
 17 24  1  0
 18 17  2  0
 20 21  1  1
 20 19  1  0
 22 20  1  0
 23 25  1  0
 23 22  1  1
 24 23  1  0
 25 26  2  0
 25 27  1  0
M  END
$$$$
