MHL.pdb
     RDKit          3D

 27 27  0  0  1  0  0  0  0  0999 V2000
    7.9006  -11.2810   18.7066 C   0  0  0  0  0  0  0  0  0  0  0  0
    7.6573  -12.3800   20.1051 S   0  0  0  0  0  0  0  0  0  0  0  0
    8.1262  -14.0609   19.6556 C   0  0  0  0  0  0  0  0  0  0  0  0
    7.9682  -14.9456   20.8758 C   0  0  0  0  0  0  0  0  0  0  0  0
    8.3895  -16.3690   20.5420 C   0  0  2  0  0  0  0  0  0  0  0  0
    7.6501  -16.8681   19.4273 N   0  0  0  0  0  0  0  0  0  0  0  0
    8.3624  -17.2337   21.7444 C   0  0  0  0  0  0  0  0  0  0  0  0
    7.9730  -18.4154   21.5788 O   0  0  0  0  0  0  0  0  0  0  0  0
    8.7360  -16.8332   23.0370 N   0  0  0  0  0  0  0  0  0  0  0  0
   10.1011  -16.7510   23.5316 C   0  0  1  0  0  0  0  0  0  0  0  0
   10.9963  -16.0830   22.4912 C   0  0  0  0  0  0  0  0  0  0  0  0
   11.5619  -17.1253   21.6175 C   0  0  0  0  0  0  0  0  0  0  0  0
   11.2970  -18.4938   21.7201 C   0  0  0  0  0  0  0  0  0  0  0  0
   11.9777  -19.1681   20.7624 N   0  0  0  0  0  0  0  0  0  0  0  0
   12.6564  -18.2353   20.0734 C   0  0  0  0  0  0  0  0  0  0  0  0
   12.4130  -17.0169   20.5777 N   0  0  0  0  0  0  0  0  0  0  0  0
   10.1702  -16.1348   24.8589 C   0  0  0  0  0  0  0  0  0  0  0  0
   11.2460  -15.8723   25.4553 O   0  0  0  0  0  0  0  0  0  0  0  0
    5.9729  -12.9732   26.3432 C   0  0  0  0  0  0  0  0  0  0  0  0
    7.3856  -13.4844   26.1871 C   0  0  1  0  0  0  0  0  0  0  0  0
    8.2541  -12.2051   26.2628 C   0  0  0  0  0  0  0  0  0  0  0  0
    7.8044  -14.4172   27.2596 C   0  0  0  0  0  0  0  0  0  0  0  0
    9.0492  -15.1602   26.9235 C   0  0  2  0  0  0  0  0  0  0  0  0
    8.9984  -15.7674   25.6109 N   0  0  0  0  0  0  0  0  0  0  0  0
    9.3218  -16.2235   27.9077 C   0  0  0  0  0  0  0  0  0  0  0  0
    9.6159  -16.0491   29.1173 O   0  0  0  0  0  0  0  0  0  0  0  0
    9.2554  -17.5543   27.4853 O   0  0  0  0  0  0  0  0  0  0  0  0
  1  2  1  0
  3  2  1  0
  4  3  1  0
  5  4  1  0
  5  6  1  6
  7  5  1  0
  8  7  2  0
  9  7  1  0
 10 17  1  0
 10  9  1  0
 10 11  1  6
 12 16  1  0
 12 11  1  0
 13 12  2  0
 14 13  1  0
 14 15  1  0
 15 16  2  0
 17 24  1  0
 18 17  2  0
 20 21  1  1
 20 19  1  0
 22 20  1  0
 23 25  1  0
 23 22  1  1
 24 23  1  0
 25 26  2  0
 25 27  1  0
M  END
$$$$
