MHL.pdb
     RDKit          3D

 27 27  0  0  1  0  0  0  0  0999 V2000
    7.3835  -11.5488   26.7154 C   0  0  0  0  0  0  0  0  0  0  0  0
    5.6796  -11.7297   26.1799 S   0  0  0  0  0  0  0  0  0  0  0  0
    5.2907  -13.4733   25.9435 C   0  0  0  0  0  0  0  0  0  0  0  0
    6.5674  -14.2047   25.5809 C   0  0  0  0  0  0  0  0  0  0  0  0
    6.2336  -15.5463   24.9457 C   0  0  2  0  0  0  0  0  0  0  0  0
    5.3937  -16.3185   25.8041 N   0  0  0  0  0  0  0  0  0  0  0  0
    7.4569  -16.2412   24.4824 C   0  0  0  0  0  0  0  0  0  0  0  0
    7.7478  -17.3154   25.0629 O   0  0  0  0  0  0  0  0  0  0  0  0
    8.3021  -15.7921   23.4554 N   0  0  0  0  0  0  0  0  0  0  0  0
    9.4920  -16.4813   22.9822 C   0  0  1  0  0  0  0  0  0  0  0  0
    9.9484  -15.8865   21.6525 C   0  0  0  0  0  0  0  0  0  0  0  0
   11.0645  -16.6952   21.1331 C   0  0  0  0  0  0  0  0  0  0  0  0
   11.4751  -17.9275   21.6491 C   0  0  0  0  0  0  0  0  0  0  0  0
   12.5271  -18.3979   20.9367 N   0  0  0  0  0  0  0  0  0  0  0  0
   12.7689  -17.4740   19.9917 C   0  0  0  0  0  0  0  0  0  0  0  0
   11.9014  -16.4576   20.1033 N   0  0  0  0  0  0  0  0  0  0  0  0
   10.5421  -16.5318   24.0025 C   0  0  0  0  0  0  0  0  0  0  0  0
   11.7104  -16.9448   23.7870 O   0  0  0  0  0  0  0  0  0  0  0  0
    9.8405  -13.9269   26.9987 C   0  0  0  0  0  0  0  0  0  0  0  0
   10.4627  -14.7291   28.1171 C   0  0  1  0  0  0  0  0  0  0  0  0
    9.4268  -14.6334   29.2636 C   0  0  0  0  0  0  0  0  0  0  0  0
   10.6795  -16.1554   27.7791 C   0  0  0  0  0  0  0  0  0  0  0  0
   11.2783  -16.3433   26.4298 C   0  0  2  0  0  0  0  0  0  0  0  0
   10.3306  -16.1066   25.3620 N   0  0  0  0  0  0  0  0  0  0  0  0
   11.8179  -17.7057   26.2671 C   0  0  0  0  0  0  0  0  0  0  0  0
   11.1423  -18.7649   26.2265 O   0  0  0  0  0  0  0  0  0  0  0  0
   13.2014  -17.8635   26.1457 O   0  0  0  0  0  0  0  0  0  0  0  0
  1  2  1  0
  3  2  1  0
  4  3  1  0
  5  4  1  0
  5  6  1  1
  7  5  1  0
  8  7  2  0
  9  7  1  0
 10 17  1  0
 10  9  1  0
 10 11  1  6
 12 16  1  0
 12 11  1  0
 13 12  2  0
 14 13  1  0
 14 15  1  0
 15 16  2  0
 17 24  1  0
 18 17  2  0
 20 21  1  1
 20 19  1  0
 22 20  1  0
 23 25  1  0
 23 22  1  1
 24 23  1  0
 25 26  2  0
 25 27  1  0
M  END
$$$$
