VYE.pdb
     RDKit          3D

 29 29  0  0  1  0  0  0  0  0999 V2000
   21.9888  -34.5823   -7.3373 C   0  0  0  0  0  0  0  0  0  0  0  0
   20.6755  -34.1800   -8.0131 C   0  0  2  0  0  0  0  0  0  0  0  0
   20.5885  -35.0176   -9.2796 C   0  0  0  0  0  0  0  0  0  0  0  0
   20.8035  -32.7022   -8.3268 C   0  0  2  0  0  0  0  0  0  0  0  0
   21.8633  -32.5577   -9.2892 N   0  0  0  0  0  0  0  0  0  0  0  0
   21.0187  -31.8898   -7.1103 C   0  0  0  0  0  0  0  0  0  0  0  0
   22.2066  -31.5966   -6.8172 O   0  0  0  0  0  0  0  0  0  0  0  0
   19.7042  -26.6223   -0.1313 O   0  0  0  0  0  0  0  0  0  0  0  0
   19.4923  -27.4782   -1.2246 C   0  0  0  0  0  0  0  0  0  0  0  0
   18.8432  -28.6827   -1.0702 C   0  0  0  0  0  0  0  0  0  0  0  0
   18.6494  -29.5118   -2.1847 C   0  0  0  0  0  0  0  0  0  0  0  0
   19.0983  -29.1387   -3.4282 C   0  0  0  0  0  0  0  0  0  0  0  0
   18.8843  -30.0249   -4.5861 C   0  0  0  0  0  0  0  0  0  0  0  0
   20.2099  -30.6195   -5.0803 C   0  0  2  0  0  0  0  0  0  0  0  0
   19.9963  -31.4239   -6.2622 N   0  0  0  0  0  0  0  0  0  0  0  0
   20.6370  -31.5666   -3.9884 C   0  0  0  0  0  0  0  0  0  0  0  0
   20.0334  -32.6560   -3.8541 O   0  0  0  0  0  0  0  0  0  0  0  0
   19.7438  -27.9347   -3.5665 C   0  0  0  0  0  0  0  0  0  0  0  0
   19.9456  -27.0954   -2.4653 C   0  0  0  0  0  0  0  0  0  0  0  0
   21.6887  -31.2700   -3.1160 N   0  0  0  0  0  0  0  0  0  0  0  0
   22.1112  -32.2989   -2.1516 C   0  0  1  0  0  0  0  0  0  0  0  0
   23.6130  -32.3336   -2.0861 C   0  0  0  0  0  0  0  0  0  0  0  0
   24.0695  -33.2821   -1.0215 C   0  0  0  0  0  0  0  0  0  0  0  0
   25.5730  -33.3094   -0.9472 C   0  0  0  0  0  0  0  0  0  0  0  0
   26.1373  -34.3146   -0.4733 O   0  0  0  0  0  0  0  0  0  0  0  0
   21.4430  -31.9718   -0.8856 C   0  0  0  0  0  0  0  0  0  0  0  0
   21.1184  -30.7939   -0.6318 O   0  0  0  0  0  0  0  0  0  0  0  0
   26.3266  -32.2474   -1.3922 O   0  0  0  0  0  0  0  0  0  0  0  0
   21.1641  -32.9515    0.0381 O   0  0  0  0  0  0  0  0  0  0  0  0
  2  1  1  6
  2  3  1  0
  4  2  1  0
  4  5  1  6
  6  4  1  0
  7  6  2  0
  8  9  1  0
  9 10  2  0
  9 19  1  0
 10 11  1  0
 11 12  2  0
 12 13  1  0
 14 13  1  1
 14 15  1  0
 15  6  1  0
 16 14  1  0
 16 17  2  0
 18 12  1  0
 19 18  2  0
 20 21  1  0
 20 16  1  0
 21 22  1  1
 22 23  1  0
 23 24  1  0
 24 28  1  0
 24 25  2  0
 26 21  1  0
 27 26  2  0
 29 26  1  0
M  END
$$$$
