VYE.pdb
     RDKit          3D

 29 29  0  0  1  0  0  0  0  0999 V2000
   20.2425  -11.0039  -18.2362 C   0  0  0  0  0  0  0  0  0  0  0  0
   20.9558  -12.0544  -17.3814 C   0  0  2  0  0  0  0  0  0  0  0  0
   20.4784  -13.4025  -17.8990 C   0  0  0  0  0  0  0  0  0  0  0  0
   20.5025  -11.8096  -15.9554 C   0  0  2  0  0  0  0  0  0  0  0  0
   19.0954  -12.1041  -15.8957 N   0  0  0  0  0  0  0  0  0  0  0  0
   20.8222  -10.4414  -15.4949 C   0  0  0  0  0  0  0  0  0  0  0  0
   22.0386  -10.1272  -15.4264 O   0  0  0  0  0  0  0  0  0  0  0  0
   21.7720   -2.0084  -13.9372 O   0  0  0  0  0  0  0  0  0  0  0  0
   21.5156   -3.3109  -14.3961 C   0  0  0  0  0  0  0  0  0  0  0  0
   22.5444   -4.1803  -14.6814 C   0  0  0  0  0  0  0  0  0  0  0  0
   22.2504   -5.4736  -15.1377 C   0  0  0  0  0  0  0  0  0  0  0  0
   20.9502   -5.8846  -15.3038 C   0  0  0  0  0  0  0  0  0  0  0  0
   20.6634   -7.2480  -15.7844 C   0  0  0  0  0  0  0  0  0  0  0  0
   20.1867   -8.1500  -14.6382 C   0  0  2  0  0  0  0  0  0  0  0  0
   19.8693   -9.4716  -15.1302 N   0  0  0  0  0  0  0  0  0  0  0  0
   18.8866   -7.5383  -14.1831 C   0  0  0  0  0  0  0  0  0  0  0  0
   17.9008   -7.5534  -14.9560 O   0  0  0  0  0  0  0  0  0  0  0  0
   19.9350   -5.0063  -15.0152 C   0  0  0  0  0  0  0  0  0  0  0  0
   20.2104   -3.7126  -14.5591 C   0  0  0  0  0  0  0  0  0  0  0  0
   18.7418   -6.9516  -12.9221 N   0  0  0  0  0  0  0  0  0  0  0  0
   17.4021   -6.5050  -12.5061 C   0  0  1  0  0  0  0  0  0  0  0  0
   17.3066   -6.5468  -11.0060 C   0  0  0  0  0  0  0  0  0  0  0  0
   16.0300   -5.9157  -10.5443 C   0  0  0  0  0  0  0  0  0  0  0  0
   15.9610   -5.9016   -9.0404 C   0  0  0  0  0  0  0  0  0  0  0  0
   16.8881   -6.4184   -8.3872 O   0  0  0  0  0  0  0  0  0  0  0  0
   17.2101   -5.1771  -13.1027 C   0  0  0  0  0  0  0  0  0  0  0  0
   18.1954   -4.4610  -13.3737 O   0  0  0  0  0  0  0  0  0  0  0  0
   14.8960   -5.3300   -8.3825 O   0  0  0  0  0  0  0  0  0  0  0  0
   15.9485   -4.7009  -13.3722 O   0  0  0  0  0  0  0  0  0  0  0  0
  2  1  1  6
  2  3  1  0
  4  2  1  0
  4  5  1  6
  6  4  1  0
  7  6  2  0
  8  9  1  0
  9 10  2  0
  9 19  1  0
 10 11  1  0
 11 12  2  0
 12 13  1  0
 14 13  1  6
 14 15  1  0
 15  6  1  0
 16 14  1  0
 16 17  2  0
 18 12  1  0
 19 18  2  0
 20 21  1  0
 20 16  1  0
 21 22  1  1
 22 23  1  0
 23 24  1  0
 24 28  1  0
 24 25  2  0
 26 21  1  0
 27 26  2  0
 29 26  1  0
M  END
$$$$
