VYE.pdb
     RDKit          3D

 29 29  0  0  1  0  0  0  0  0999 V2000
   30.2853  -16.6271  -16.9592 C   0  0  0  0  0  0  0  0  0  0  0  0
   30.5795  -17.9419  -17.6858 C   0  0  2  0  0  0  0  0  0  0  0  0
   31.7829  -17.6639  -18.5731 C   0  0  0  0  0  0  0  0  0  0  0  0
   29.3410  -18.2528  -18.5032 C   0  0  2  0  0  0  0  0  0  0  0  0
   29.2761  -17.2879  -19.5685 N   0  0  0  0  0  0  0  0  0  0  0  0
   28.1164  -18.2758  -17.6748 C   0  0  0  0  0  0  0  0  0  0  0  0
   27.6352  -17.1660  -17.3288 O   0  0  0  0  0  0  0  0  0  0  0  0
   20.5835  -20.4299  -13.7061 O   0  0  0  0  0  0  0  0  0  0  0  0
   21.7132  -20.3678  -14.5384 C   0  0  0  0  0  0  0  0  0  0  0  0
   22.1050  -19.1825  -15.1193 C   0  0  0  0  0  0  0  0  0  0  0  0
   23.2385  -19.1583  -15.9449 C   0  0  0  0  0  0  0  0  0  0  0  0
   23.9631  -20.3010  -16.1819 C   0  0  0  0  0  0  0  0  0  0  0  0
   25.1511  -20.2536  -17.0528 C   0  0  0  0  0  0  0  0  0  0  0  0
   26.2891  -19.4627  -16.3938 C   0  0  2  0  0  0  0  0  0  0  0  0
   27.4550  -19.4429  -17.2482 N   0  0  0  0  0  0  0  0  0  0  0  0
   26.6632  -20.2694  -15.1769 C   0  0  0  0  0  0  0  0  0  0  0  0
   27.2560  -21.3626  -15.3272 O   0  0  0  0  0  0  0  0  0  0  0  0
   23.5601  -21.4754  -15.5957 C   0  0  0  0  0  0  0  0  0  0  0  0
   22.4318  -21.5174  -14.7694 C   0  0  0  0  0  0  0  0  0  0  0  0
   26.3699  -19.8378  -13.8796 N   0  0  0  0  0  0  0  0  0  0  0  0
   26.5861  -20.7733  -12.7636 C   0  0  1  0  0  0  0  0  0  0  0  0
   26.8240  -19.9944  -11.4996 C   0  0  0  0  0  0  0  0  0  0  0  0
   26.9612  -20.9204  -10.3312 C   0  0  0  0  0  0  0  0  0  0  0  0
   25.7348  -20.8577   -9.4603 C   0  0  0  0  0  0  0  0  0  0  0  0
   24.8982  -19.9552   -9.6572 O   0  0  0  0  0  0  0  0  0  0  0  0
   25.4126  -21.6556  -12.7365 C   0  0  0  0  0  0  0  0  0  0  0  0
   24.2710  -21.1897  -12.9281 O   0  0  0  0  0  0  0  0  0  0  0  0
   25.5269  -21.7768   -8.4574 O   0  0  0  0  0  0  0  0  0  0  0  0
   25.5492  -23.0034  -12.5008 O   0  0  0  0  0  0  0  0  0  0  0  0
  2  1  1  6
  2  3  1  0
  4  2  1  0
  4  5  1  6
  6  4  1  0
  7  6  2  0
  8  9  1  0
  9 10  2  0
  9 19  1  0
 10 11  1  0
 11 12  2  0
 12 13  1  0
 14 13  1  6
 14 15  1  0
 15  6  1  0
 16 14  1  0
 16 17  2  0
 18 12  1  0
 19 18  2  0
 20 21  1  0
 20 16  1  0
 21 22  1  1
 22 23  1  0
 23 24  1  0
 24 28  1  0
 24 25  2  0
 26 21  1  0
 27 26  2  0
 29 26  1  0
M  END
$$$$
