VYE.pdb
     RDKit          3D

 29 29  0  0  1  0  0  0  0  0999 V2000
   20.5975  -30.7647  -12.1036 C   0  0  0  0  0  0  0  0  0  0  0  0
   20.6457  -30.3148  -10.6413 C   0  0  2  0  0  0  0  0  0  0  0  0
   20.1218  -31.4894   -9.8296 C   0  0  0  0  0  0  0  0  0  0  0  0
   19.7265  -29.1129  -10.5442 C   0  0  2  0  0  0  0  0  0  0  0  0
   20.2932  -28.0719  -11.3599 N   0  0  0  0  0  0  0  0  0  0  0  0
   19.5069  -28.6895   -9.1447 C   0  0  0  0  0  0  0  0  0  0  0  0
   20.4119  -28.0040   -8.6024 O   0  0  0  0  0  0  0  0  0  0  0  0
   18.4010  -22.5500   -9.0389 O   0  0  0  0  0  0  0  0  0  0  0  0
   18.0439  -23.8077   -8.5256 C   0  0  0  0  0  0  0  0  0  0  0  0
   17.3545  -24.7198   -9.2927 C   0  0  0  0  0  0  0  0  0  0  0  0
   17.0147  -25.9662   -8.7466 C   0  0  0  0  0  0  0  0  0  0  0  0
   17.3603  -26.2894   -7.4570 C   0  0  0  0  0  0  0  0  0  0  0  0
   16.9934  -27.6047   -6.9027 C   0  0  0  0  0  0  0  0  0  0  0  0
   18.1614  -28.5945   -7.0070 C   0  0  2  0  0  0  0  0  0  0  0  0
   18.3652  -28.9965   -8.3806 N   0  0  0  0  0  0  0  0  0  0  0  0
   17.6933  -29.8208   -6.2664 C   0  0  0  0  0  0  0  0  0  0  0  0
   16.8560  -30.5789   -6.8078 O   0  0  0  0  0  0  0  0  0  0  0  0
   18.0477  -25.3694   -6.7043 C   0  0  0  0  0  0  0  0  0  0  0  0
   18.3947  -24.1215   -7.2333 C   0  0  0  0  0  0  0  0  0  0  0  0
   18.1636  -30.1432   -4.9896 N   0  0  0  0  0  0  0  0  0  0  0  0
   17.7068  -31.3981   -4.3702 C   0  0  1  0  0  0  0  0  0  0  0  0
   18.7220  -31.8526   -3.3583 C   0  0  0  0  0  0  0  0  0  0  0  0
   19.9769  -32.3017   -4.0400 C   0  0  0  0  0  0  0  0  0  0  0  0
   20.9802  -32.7926   -3.0304 C   0  0  0  0  0  0  0  0  0  0  0  0
   21.8155  -33.6508   -3.3754 O   0  0  0  0  0  0  0  0  0  0  0  0
   16.3704  -31.1235   -3.8273 C   0  0  0  0  0  0  0  0  0  0  0  0
   15.5647  -32.0572   -3.6372 O   0  0  0  0  0  0  0  0  0  0  0  0
   20.9869  -32.3100   -1.7418 O   0  0  0  0  0  0  0  0  0  0  0  0
   15.9843  -29.8400   -3.5200 O   0  0  0  0  0  0  0  0  0  0  0  0
  2  1  1  6
  2  3  1  0
  4  2  1  0
  4  5  1  6
  6  4  1  0
  7  6  2  0
  8  9  1  0
  9 10  2  0
  9 19  1  0
 10 11  1  0
 11 12  2  0
 12 13  1  0
 14 13  1  6
 14 15  1  0
 15  6  1  0
 16 14  1  0
 16 17  2  0
 18 12  1  0
 19 18  2  0
 20 21  1  0
 20 16  1  0
 21 22  1  1
 22 23  1  0
 23 24  1  0
 24 28  1  0
 24 25  2  0
 26 21  1  0
 27 26  2  0
 29 26  1  0
M  END
$$$$
