VYE.pdb
     RDKit          3D

 29 29  0  0  1  0  0  0  0  0999 V2000
   25.0036  -22.9832  -13.3820 C   0  0  0  0  0  0  0  0  0  0  0  0
   24.0844  -23.3612  -14.5462 C   0  0  2  0  0  0  0  0  0  0  0  0
   25.0061  -23.7106  -15.7043 C   0  0  0  0  0  0  0  0  0  0  0  0
   23.2569  -22.1257  -14.8422 C   0  0  2  0  0  0  0  0  0  0  0  0
   24.1636  -21.0940  -15.2706 N   0  0  0  0  0  0  0  0  0  0  0  0
   22.4290  -21.7182  -13.6869 C   0  0  0  0  0  0  0  0  0  0  0  0
   22.9219  -20.8735  -12.8955 O   0  0  0  0  0  0  0  0  0  0  0  0
   20.4809  -15.6452  -14.3794 O   0  0  0  0  0  0  0  0  0  0  0  0
   20.1338  -16.9657  -14.0497 C   0  0  0  0  0  0  0  0  0  0  0  0
   20.0253  -17.9365  -15.0201 C   0  0  0  0  0  0  0  0  0  0  0  0
   19.6767  -19.2447  -14.6538 C   0  0  0  0  0  0  0  0  0  0  0  0
   19.4421  -19.5707  -13.3401 C   0  0  0  0  0  0  0  0  0  0  0  0
   19.0769  -20.9515  -12.9768 C   0  0  0  0  0  0  0  0  0  0  0  0
   20.2719  -21.6983  -12.3695 C   0  0  2  0  0  0  0  0  0  0  0  0
   21.1371  -22.2046  -13.4110 N   0  0  0  0  0  0  0  0  0  0  0  0
   19.6687  -22.9013  -11.6908 C   0  0  0  0  0  0  0  0  0  0  0  0
   19.4778  -23.9458  -12.3554 O   0  0  0  0  0  0  0  0  0  0  0  0
   19.5541  -18.5919  -12.3837 C   0  0  0  0  0  0  0  0  0  0  0  0
   19.9010  -17.2818  -12.7317 C   0  0  0  0  0  0  0  0  0  0  0  0
   19.3130  -22.8919  -10.3386 N   0  0  0  0  0  0  0  0  0  0  0  0
   18.7156  -24.1075   -9.7621 C   0  0  1  0  0  0  0  0  0  0  0  0
   18.8603  -24.0724   -8.2658 C   0  0  0  0  0  0  0  0  0  0  0  0
   18.1292  -25.2199   -7.6413 C   0  0  0  0  0  0  0  0  0  0  0  0
   18.2783  -25.1894   -6.1435 C   0  0  0  0  0  0  0  0  0  0  0  0
   18.5610  -24.1116   -5.5853 O   0  0  0  0  0  0  0  0  0  0  0  0
   17.3314  -24.1539  -10.2500 C   0  0  0  0  0  0  0  0  0  0  0  0
   16.6859  -23.0982  -10.4119 O   0  0  0  0  0  0  0  0  0  0  0  0
   18.1079  -26.3272   -5.3884 O   0  0  0  0  0  0  0  0  0  0  0  0
   16.7243  -25.3541  -10.5358 O   0  0  0  0  0  0  0  0  0  0  0  0
  2  1  1  1
  2  3  1  0
  4  2  1  0
  4  5  1  1
  6  4  1  0
  7  6  2  0
  8  9  1  0
  9 10  2  0
  9 19  1  0
 10 11  1  0
 11 12  2  0
 12 13  1  0
 14 13  1  6
 14 15  1  0
 15  6  1  0
 16 14  1  0
 16 17  2  0
 18 12  1  0
 19 18  2  0
 20 21  1  0
 20 16  1  0
 21 22  1  1
 22 23  1  0
 23 24  1  0
 24 28  1  0
 24 25  2  0
 26 21  1  0
 27 26  2  0
 29 26  1  0
M  END
$$$$
