VYE.pdb
     RDKit          3D

 29 29  0  0  1  0  0  0  0  0999 V2000
   18.6536  -11.8834  -20.4730 C   0  0  0  0  0  0  0  0  0  0  0  0
   19.0343  -11.4719  -19.0486 C   0  0  2  0  0  0  0  0  0  0  0  0
   18.9672   -9.9527  -19.0251 C   0  0  0  0  0  0  0  0  0  0  0  0
   20.4489  -11.9733  -18.8337 C   0  0  2  0  0  0  0  0  0  0  0  0
   20.4124  -13.4093  -18.9145 N   0  0  0  0  0  0  0  0  0  0  0  0
   21.0275  -11.4847  -17.5637 C   0  0  0  0  0  0  0  0  0  0  0  0
   20.7107  -12.1001  -16.5130 O   0  0  0  0  0  0  0  0  0  0  0  0
   25.0574  -15.7725  -15.8170 O   0  0  0  0  0  0  0  0  0  0  0  0
   24.7948  -14.3949  -15.8954 C   0  0  0  0  0  0  0  0  0  0  0  0
   24.4990  -13.6615  -14.7682 C   0  0  0  0  0  0  0  0  0  0  0  0
   24.2423  -12.2877  -14.8847 C   0  0  0  0  0  0  0  0  0  0  0  0
   24.2818  -11.6637  -16.1079 C   0  0  0  0  0  0  0  0  0  0  0  0
   24.0088  -10.2189  -16.2081 C   0  0  0  0  0  0  0  0  0  0  0  0
   22.4998   -9.9398  -16.2094 C   0  0  2  0  0  0  0  0  0  0  0  0
   21.9016  -10.3876  -17.4468 N   0  0  0  0  0  0  0  0  0  0  0  0
   22.3871   -8.4369  -16.1979 C   0  0  0  0  0  0  0  0  0  0  0  0
   22.5954   -7.8006  -17.2566 O   0  0  0  0  0  0  0  0  0  0  0  0
   24.5782  -12.4083  -17.2229 C   0  0  0  0  0  0  0  0  0  0  0  0
   24.8370  -13.7798  -17.1247 C   0  0  0  0  0  0  0  0  0  0  0  0
   22.0564   -7.7247  -15.0409 N   0  0  0  0  0  0  0  0  0  0  0  0
   21.8308   -6.2741  -15.1508 C   0  0  1  0  0  0  0  0  0  0  0  0
   20.4457   -6.0240  -15.6798 C   0  0  0  0  0  0  0  0  0  0  0  0
   19.4171   -6.5028  -14.7031 C   0  0  0  0  0  0  0  0  0  0  0  0
   18.0338   -6.3607  -15.2800 C   0  0  0  0  0  0  0  0  0  0  0  0
   17.6902   -5.2656  -15.7659 O   0  0  0  0  0  0  0  0  0  0  0  0
   22.0953   -5.7171  -13.8181 C   0  0  0  0  0  0  0  0  0  0  0  0
   22.1897   -6.4714  -12.8286 O   0  0  0  0  0  0  0  0  0  0  0  0
   17.1504   -7.4159  -15.2780 O   0  0  0  0  0  0  0  0  0  0  0  0
   22.2431   -4.3620  -13.6370 O   0  0  0  0  0  0  0  0  0  0  0  0
  2  1  1  6
  2  3  1  0
  4  2  1  0
  4  5  1  1
  6  4  1  0
  7  6  2  0
  8  9  1  0
  9 10  2  0
  9 19  1  0
 10 11  1  0
 11 12  2  0
 12 13  1  0
 14 13  1  6
 14 15  1  0
 15  6  1  0
 16 14  1  0
 16 17  2  0
 18 12  1  0
 19 18  2  0
 20 21  1  0
 20 16  1  0
 21 22  1  1
 22 23  1  0
 23 24  1  0
 24 28  1  0
 24 25  2  0
 26 21  1  0
 27 26  2  0
 29 26  1  0
M  END
$$$$
