VYE.pdb
     RDKit          3D

 29 29  0  0  1  0  0  0  0  0999 V2000
   27.4238  -10.8277  -17.1097 C   0  0  0  0  0  0  0  0  0  0  0  0
   26.8458  -11.6520  -15.9566 C   0  0  2  0  0  0  0  0  0  0  0  0
   27.9525  -12.6062  -15.5350 C   0  0  0  0  0  0  0  0  0  0  0  0
   25.6549  -12.3943  -16.5306 C   0  0  2  0  0  0  0  0  0  0  0  0
   26.1497  -13.2692  -17.5601 N   0  0  0  0  0  0  0  0  0  0  0  0
   24.6044  -11.4739  -17.0161 C   0  0  0  0  0  0  0  0  0  0  0  0
   24.5661  -11.2460  -18.2528 O   0  0  0  0  0  0  0  0  0  0  0  0
   20.2857  -14.3951  -20.6457 O   0  0  0  0  0  0  0  0  0  0  0  0
   20.5163  -13.4477  -19.6347 C   0  0  0  0  0  0  0  0  0  0  0  0
   20.4071  -12.0982  -19.8857 C   0  0  0  0  0  0  0  0  0  0  0  0
   20.6447  -11.1811  -18.8516 C   0  0  0  0  0  0  0  0  0  0  0  0
   20.9849  -11.6106  -17.5919 C   0  0  0  0  0  0  0  0  0  0  0  0
   21.2303  -10.6299  -16.5195 C   0  0  0  0  0  0  0  0  0  0  0  0
   22.6041   -9.9655  -16.6811 C   0  0  2  0  0  0  0  0  0  0  0  0
   23.6504  -10.8387  -16.1989 N   0  0  0  0  0  0  0  0  0  0  0  0
   22.5704   -8.7815  -15.7491 C   0  0  0  0  0  0  0  0  0  0  0  0
   22.8809   -8.9419  -14.5462 O   0  0  0  0  0  0  0  0  0  0  0  0
   21.0899  -12.9594  -17.3569 C   0  0  0  0  0  0  0  0  0  0  0  0
   20.8563  -13.8880  -18.3770 C   0  0  0  0  0  0  0  0  0  0  0  0
   22.2028   -7.5040  -16.1827 N   0  0  0  0  0  0  0  0  0  0  0  0
   22.1820   -6.4086  -15.1993 C   0  0  1  0  0  0  0  0  0  0  0  0
   22.1693   -5.0902  -15.9223 C   0  0  0  0  0  0  0  0  0  0  0  0
   22.1984   -3.9563  -14.9453 C   0  0  0  0  0  0  0  0  0  0  0  0
   22.1245   -2.6362  -15.6652 C   0  0  0  0  0  0  0  0  0  0  0  0
   22.0886   -2.6274  -16.9110 O   0  0  0  0  0  0  0  0  0  0  0  0
   21.0184   -6.6544  -14.3380 C   0  0  0  0  0  0  0  0  0  0  0  0
   19.9916   -7.1880  -14.8051 O   0  0  0  0  0  0  0  0  0  0  0  0
   22.0963   -1.4481  -14.9713 O   0  0  0  0  0  0  0  0  0  0  0  0
   21.0385   -6.3034  -13.0086 O   0  0  0  0  0  0  0  0  0  0  0  0
  2  1  1  6
  2  3  1  0
  4  2  1  0
  4  5  1  6
  6  4  1  0
  7  6  2  0
  8  9  1  0
  9 10  2  0
  9 19  1  0
 10 11  1  0
 11 12  2  0
 12 13  1  0
 14 13  1  1
 14 15  1  0
 15  6  1  0
 16 14  1  0
 16 17  2  0
 18 12  1  0
 19 18  2  0
 20 21  1  0
 20 16  1  0
 21 22  1  6
 22 23  1  0
 23 24  1  0
 24 28  1  0
 24 25  2  0
 26 21  1  0
 27 26  2  0
 29 26  1  0
M  END
$$$$
