VYE.pdb
     RDKit          3D

 29 29  0  0  1  0  0  0  0  0999 V2000
   27.5397  -18.2992  -20.6088 C   0  0  0  0  0  0  0  0  0  0  0  0
   26.7841  -18.9496  -19.4473 C   0  0  2  0  0  0  0  0  0  0  0  0
   26.2149  -17.8008  -18.6292 C   0  0  0  0  0  0  0  0  0  0  0  0
   27.8182  -19.7355  -18.6651 C   0  0  2  0  0  0  0  0  0  0  0  0
   28.3240  -20.7641  -19.5349 N   0  0  0  0  0  0  0  0  0  0  0  0
   27.2724  -20.2715  -17.3998 C   0  0  0  0  0  0  0  0  0  0  0  0
   26.5069  -21.2667  -17.4795 O   0  0  0  0  0  0  0  0  0  0  0  0
   25.0114  -20.8980   -8.8522 O   0  0  0  0  0  0  0  0  0  0  0  0
   25.6875  -20.6152  -10.0504 C   0  0  0  0  0  0  0  0  0  0  0  0
   26.3176  -21.6100  -10.7639 C   0  0  0  0  0  0  0  0  0  0  0  0
   26.9831  -21.2904  -11.9563 C   0  0  0  0  0  0  0  0  0  0  0  0
   27.0149  -19.9986  -12.4222 C   0  0  0  0  0  0  0  0  0  0  0  0
   27.7200  -19.6844  -13.6777 C   0  0  0  0  0  0  0  0  0  0  0  0
   26.9619  -20.2382  -14.8916 C   0  0  2  0  0  0  0  0  0  0  0  0
   27.5463  -19.7512  -16.1208 N   0  0  0  0  0  0  0  0  0  0  0  0
   25.5877  -19.6263  -14.7983 C   0  0  0  0  0  0  0  0  0  0  0  0
   25.4632  -18.3846  -14.9078 O   0  0  0  0  0  0  0  0  0  0  0  0
   26.3820  -19.0173  -11.6998 C   0  0  0  0  0  0  0  0  0  0  0  0
   25.7135  -19.3186  -10.5082 C   0  0  0  0  0  0  0  0  0  0  0  0
   24.4413  -20.4001  -14.5928 N   0  0  0  0  0  0  0  0  0  0  0  0
   23.1522  -19.7111  -14.4179 C   0  0  1  0  0  0  0  0  0  0  0  0
   22.3870  -19.7499  -15.7117 C   0  0  0  0  0  0  0  0  0  0  0  0
   22.0020  -21.1562  -16.0512 C   0  0  0  0  0  0  0  0  0  0  0  0
   21.9896  -21.3553  -17.5434 C   0  0  0  0  0  0  0  0  0  0  0  0
   22.2862  -20.3979  -18.2842 O   0  0  0  0  0  0  0  0  0  0  0  0
   22.4879  -20.3680  -13.2849 C   0  0  0  0  0  0  0  0  0  0  0  0
   21.4894  -19.8434  -12.7511 O   0  0  0  0  0  0  0  0  0  0  0  0
   21.6577  -22.5711  -18.0960 O   0  0  0  0  0  0  0  0  0  0  0  0
   22.9509  -21.5662  -12.7943 O   0  0  0  0  0  0  0  0  0  0  0  0
  2  1  1  6
  2  3  1  0
  4  2  1  0
  4  5  1  6
  6  4  1  0
  7  6  2  0
  8  9  1  0
  9 10  2  0
  9 19  1  0
 10 11  1  0
 11 12  2  0
 12 13  1  0
 14 13  1  1
 14 15  1  0
 15  6  1  0
 16 14  1  0
 16 17  2  0
 18 12  1  0
 19 18  2  0
 20 21  1  0
 20 16  1  0
 21 22  1  6
 22 23  1  0
 23 24  1  0
 24 28  1  0
 24 25  2  0
 26 21  1  0
 27 26  2  0
 29 26  1  0
M  END
$$$$
