VYE.pdb
     RDKit          3D

 29 29  0  0  1  0  0  0  0  0999 V2000
   26.2833  -20.8164   -9.2524 C   0  0  0  0  0  0  0  0  0  0  0  0
   25.6711  -20.0815  -10.4475 C   0  0  2  0  0  0  0  0  0  0  0  0
   24.2919  -19.6297   -9.9929 C   0  0  0  0  0  0  0  0  0  0  0  0
   25.5858  -21.1020  -11.5655 C   0  0  2  0  0  0  0  0  0  0  0  0
   26.9124  -21.6162  -11.7797 N   0  0  0  0  0  0  0  0  0  0  0  0
   24.9847  -20.5369  -12.7926 C   0  0  0  0  0  0  0  0  0  0  0  0
   25.7037  -19.7715  -13.4854 O   0  0  0  0  0  0  0  0  0  0  0  0
   23.5961  -26.5146  -14.9682 O   0  0  0  0  0  0  0  0  0  0  0  0
   23.5572  -25.1224  -15.1502 C   0  0  0  0  0  0  0  0  0  0  0  0
   22.4105  -24.4924  -15.5790 C   0  0  0  0  0  0  0  0  0  0  0  0
   22.4087  -23.1003  -15.7496 C   0  0  0  0  0  0  0  0  0  0  0  0
   23.5353  -22.3568  -15.4948 C   0  0  0  0  0  0  0  0  0  0  0  0
   23.5119  -20.8950  -15.6806 C   0  0  0  0  0  0  0  0  0  0  0  0
   23.0649  -20.1812  -14.3978 C   0  0  2  0  0  0  0  0  0  0  0  0
   23.6740  -20.7924  -13.2380 N   0  0  0  0  0  0  0  0  0  0  0  0
   21.5862  -20.4561  -14.3004 C   0  0  0  0  0  0  0  0  0  0  0  0
   21.1765  -21.3121  -13.4828 O   0  0  0  0  0  0  0  0  0  0  0  0
   24.6713  -22.9992  -15.0678 C   0  0  0  0  0  0  0  0  0  0  0  0
   24.6905  -24.3871  -14.8924 C   0  0  0  0  0  0  0  0  0  0  0  0
   20.6512  -19.7855  -15.0950 N   0  0  0  0  0  0  0  0  0  0  0  0
   19.2210  -20.0551  -14.8736 C   0  0  1  0  0  0  0  0  0  0  0  0
   18.4770  -18.7517  -14.7803 C   0  0  0  0  0  0  0  0  0  0  0  0
   18.8617  -18.0165  -13.5342 C   0  0  0  0  0  0  0  0  0  0  0  0
   17.6615  -17.3394  -12.9280 C   0  0  0  0  0  0  0  0  0  0  0  0
   16.8752  -16.7216  -13.6720 O   0  0  0  0  0  0  0  0  0  0  0  0
   18.7960  -20.9342  -15.9703 C   0  0  0  0  0  0  0  0  0  0  0  0
   19.5325  -21.1016  -16.9636 O   0  0  0  0  0  0  0  0  0  0  0  0
   17.4229  -17.3931  -11.5738 O   0  0  0  0  0  0  0  0  0  0  0  0
   17.5859  -21.5855  -15.9232 O   0  0  0  0  0  0  0  0  0  0  0  0
  2  1  1  1
  2  3  1  0
  4  2  1  0
  4  5  1  6
  6  4  1  0
  7  6  2  0
  8  9  1  0
  9 10  2  0
  9 19  1  0
 10 11  1  0
 11 12  2  0
 12 13  1  0
 14 13  1  6
 14 15  1  0
 15  6  1  0
 16 14  1  0
 16 17  2  0
 18 12  1  0
 19 18  2  0
 20 21  1  0
 20 16  1  0
 21 22  1  6
 22 23  1  0
 23 24  1  0
 24 28  1  0
 24 25  2  0
 26 21  1  0
 27 26  2  0
 29 26  1  0
M  END
$$$$
