VYE.pdb
     RDKit          3D

 29 29  0  0  1  0  0  0  0  0999 V2000
   29.6899  -23.1939  -17.6045 C   0  0  0  0  0  0  0  0  0  0  0  0
   28.2772  -23.7099  -17.3191 C   0  0  2  0  0  0  0  0  0  0  0  0
   27.8807  -24.5264  -18.5394 C   0  0  0  0  0  0  0  0  0  0  0  0
   27.4070  -22.4782  -17.1626 C   0  0  2  0  0  0  0  0  0  0  0  0
   28.2388  -21.3305  -17.4099 N   0  0  0  0  0  0  0  0  0  0  0  0
   26.7401  -22.4297  -15.8438 C   0  0  0  0  0  0  0  0  0  0  0  0
   25.8341  -23.2751  -15.6261 O   0  0  0  0  0  0  0  0  0  0  0  0
   24.3673  -20.0501   -7.6490 O   0  0  0  0  0  0  0  0  0  0  0  0
   25.0500  -20.1592   -8.8717 C   0  0  0  0  0  0  0  0  0  0  0  0
   25.1342  -19.0919   -9.7375 C   0  0  0  0  0  0  0  0  0  0  0  0
   25.8241  -19.2377  -10.9498 C   0  0  0  0  0  0  0  0  0  0  0  0
   26.4170  -20.4306  -11.2853 C   0  0  0  0  0  0  0  0  0  0  0  0
   27.1372  -20.5623  -12.5643 C   0  0  0  0  0  0  0  0  0  0  0  0
   26.3486  -21.4269  -13.5569 C   0  0  2  0  0  0  0  0  0  0  0  0
   27.0442  -21.5114  -14.8213 N   0  0  0  0  0  0  0  0  0  0  0  0
   25.0805  -20.6547  -13.8161 C   0  0  0  0  0  0  0  0  0  0  0  0
   25.1117  -19.6712  -14.5913 O   0  0  0  0  0  0  0  0  0  0  0  0
   26.3245  -21.4859  -10.4116 C   0  0  0  0  0  0  0  0  0  0  0  0
   25.6401  -21.3578   -9.1981 C   0  0  0  0  0  0  0  0  0  0  0  0
   23.8643  -20.9996  -13.2183 N   0  0  0  0  0  0  0  0  0  0  0  0
   22.6640  -20.2245  -13.5726 C   0  0  1  0  0  0  0  0  0  0  0  0
   22.3300  -20.4571  -15.0202 C   0  0  0  0  0  0  0  0  0  0  0  0
   21.0969  -19.6989  -15.4021 C   0  0  0  0  0  0  0  0  0  0  0  0
   19.9220  -20.6313  -15.5317 C   0  0  0  0  0  0  0  0  0  0  0  0
   19.9870  -21.5779  -16.3398 O   0  0  0  0  0  0  0  0  0  0  0  0
   21.6202  -20.6300  -12.6228 C   0  0  0  0  0  0  0  0  0  0  0  0
   21.5980  -21.7932  -12.1715 O   0  0  0  0  0  0  0  0  0  0  0  0
   18.7861  -20.4536  -14.7755 O   0  0  0  0  0  0  0  0  0  0  0  0
   20.6536  -19.7409  -12.2153 O   0  0  0  0  0  0  0  0  0  0  0  0
  2  1  1  6
  2  3  1  0
  4  2  1  0
  4  5  1  1
  6  4  1  0
  7  6  2  0
  8  9  1  0
  9 10  2  0
  9 19  1  0
 10 11  1  0
 11 12  2  0
 12 13  1  0
 14 13  1  1
 14 15  1  0
 15  6  1  0
 16 14  1  0
 16 17  2  0
 18 12  1  0
 19 18  2  0
 20 21  1  0
 20 16  1  0
 21 22  1  6
 22 23  1  0
 23 24  1  0
 24 28  1  0
 24 25  2  0
 26 21  1  0
 27 26  2  0
 29 26  1  0
M  END
$$$$
