VYE.pdb
     RDKit          3D

 29 29  0  0  1  0  0  0  0  0999 V2000
   23.4069  -11.9286  -15.4256 C   0  0  0  0  0  0  0  0  0  0  0  0
   22.0541  -12.5037  -15.8527 C   0  0  2  0  0  0  0  0  0  0  0  0
   22.3735  -13.6892  -16.7502 C   0  0  0  0  0  0  0  0  0  0  0  0
   21.3525  -11.3969  -16.6155 C   0  0  2  0  0  0  0  0  0  0  0  0
   22.0848  -11.1855  -17.8358 N   0  0  0  0  0  0  0  0  0  0  0  0
   21.2129  -10.1651  -15.8096 C   0  0  0  0  0  0  0  0  0  0  0  0
   20.4101  -10.1991  -14.8415 O   0  0  0  0  0  0  0  0  0  0  0  0
   21.8079   -1.5817  -13.6131 O   0  0  0  0  0  0  0  0  0  0  0  0
   22.0833   -2.9076  -13.9860 C   0  0  0  0  0  0  0  0  0  0  0  0
   22.6400   -3.2015  -15.2106 C   0  0  0  0  0  0  0  0  0  0  0  0
   22.9011   -4.5374  -15.5488 C   0  0  0  0  0  0  0  0  0  0  0  0
   22.6091   -5.5564  -14.6752 C   0  0  0  0  0  0  0  0  0  0  0  0
   22.8915   -6.9534  -15.0506 C   0  0  0  0  0  0  0  0  0  0  0  0
   21.6022   -7.6979  -15.4223 C   0  0  2  0  0  0  0  0  0  0  0  0
   21.9095   -8.9651  -16.0465 N   0  0  0  0  0  0  0  0  0  0  0  0
   20.9569   -6.8430  -16.4826 C   0  0  0  0  0  0  0  0  0  0  0  0
   21.4773   -6.7845  -17.6205 O   0  0  0  0  0  0  0  0  0  0  0  0
   22.0542   -5.2477  -13.4578 C   0  0  0  0  0  0  0  0  0  0  0  0
   21.7871   -3.9206  -13.1042 C   0  0  0  0  0  0  0  0  0  0  0  0
   19.7917   -6.1094  -16.2390 N   0  0  0  0  0  0  0  0  0  0  0  0
   19.1611   -5.4006  -17.3647 C   0  0  1  0  0  0  0  0  0  0  0  0
   17.7210   -5.8193  -17.4732 C   0  0  0  0  0  0  0  0  0  0  0  0
   17.0264   -5.0359  -18.5433 C   0  0  0  0  0  0  0  0  0  0  0  0
   15.6715   -5.6242  -18.8341 C   0  0  0  0  0  0  0  0  0  0  0  0
   15.2126   -6.4944  -18.0688 O   0  0  0  0  0  0  0  0  0  0  0  0
   19.3733   -3.9689  -17.1169 C   0  0  0  0  0  0  0  0  0  0  0  0
   19.6980   -3.2100  -18.0527 O   0  0  0  0  0  0  0  0  0  0  0  0
   14.9385   -5.2171  -19.9252 O   0  0  0  0  0  0  0  0  0  0  0  0
   19.2189   -3.4410  -15.8565 O   0  0  0  0  0  0  0  0  0  0  0  0
  2  1  1  6
  2  3  1  0
  4  2  1  0
  4  5  1  6
  6  4  1  0
  7  6  2  0
  8  9  1  0
  9 10  2  0
  9 19  1  0
 10 11  1  0
 11 12  2  0
 12 13  1  0
 14 13  1  6
 14 15  1  0
 15  6  1  0
 16 14  1  0
 16 17  2  0
 18 12  1  0
 19 18  2  0
 20 21  1  0
 20 16  1  0
 21 22  1  1
 22 23  1  0
 23 24  1  0
 24 28  1  0
 24 25  2  0
 26 21  1  0
 27 26  2  0
 29 26  1  0
M  END
$$$$
