VYE.pdb
     RDKit          3D

 29 29  0  0  1  0  0  0  0  0999 V2000
   25.6672  -19.6831  -18.0289 C   0  0  0  0  0  0  0  0  0  0  0  0
   27.1255  -19.3100  -17.7509 C   0  0  2  0  0  0  0  0  0  0  0  0
   27.7244  -18.9475  -19.1011 C   0  0  0  0  0  0  0  0  0  0  0  0
   27.7700  -20.5523  -17.1679 C   0  0  2  0  0  0  0  0  0  0  0  0
   27.7589  -21.5628  -18.1920 N   0  0  0  0  0  0  0  0  0  0  0  0
   27.1079  -20.9920  -15.9210 C   0  0  0  0  0  0  0  0  0  0  0  0
   26.2104  -21.8677  -16.0244 O   0  0  0  0  0  0  0  0  0  0  0  0
   24.2096  -20.9966   -7.5522 O   0  0  0  0  0  0  0  0  0  0  0  0
   24.9913  -20.7889   -8.7005 C   0  0  0  0  0  0  0  0  0  0  0  0
   25.4799  -19.5399   -9.0124 C   0  0  0  0  0  0  0  0  0  0  0  0
   26.2571  -19.3700  -10.1675 C   0  0  0  0  0  0  0  0  0  0  0  0
   26.5375  -20.4325  -10.9918 C   0  0  0  0  0  0  0  0  0  0  0  0
   27.3563  -20.2321  -12.2007 C   0  0  0  0  0  0  0  0  0  0  0  0
   26.6846  -20.8527  -13.4330 C   0  0  2  0  0  0  0  0  0  0  0  0
   27.4079  -20.5041  -14.6352 N   0  0  0  0  0  0  0  0  0  0  0  0
   25.3446  -20.1690  -13.5255 C   0  0  0  0  0  0  0  0  0  0  0  0
   25.2978  -18.9557  -13.8331 O   0  0  0  0  0  0  0  0  0  0  0  0
   26.0433  -21.6719  -10.6676 C   0  0  0  0  0  0  0  0  0  0  0  0
   25.2663  -21.8591   -9.5192 C   0  0  0  0  0  0  0  0  0  0  0  0
   24.1460  -20.8455  -13.2785 N   0  0  0  0  0  0  0  0  0  0  0  0
   22.8828  -20.0978  -13.3905 C   0  0  1  0  0  0  0  0  0  0  0  0
   22.3832  -20.1732  -14.8067 C   0  0  0  0  0  0  0  0  0  0  0  0
   21.0524  -19.4985  -14.9297 C   0  0  0  0  0  0  0  0  0  0  0  0
   20.8915  -18.8925  -16.2985 C   0  0  0  0  0  0  0  0  0  0  0  0
   20.7890  -19.6463  -17.2857 O   0  0  0  0  0  0  0  0  0  0  0  0
   21.9793  -20.6682  -12.3832 C   0  0  0  0  0  0  0  0  0  0  0  0
   20.9326  -20.0678  -12.0653 O   0  0  0  0  0  0  0  0  0  0  0  0
   20.8562  -17.5279  -16.4726 O   0  0  0  0  0  0  0  0  0  0  0  0
   22.2682  -21.8673  -11.7753 O   0  0  0  0  0  0  0  0  0  0  0  0
  2  1  1  6
  2  3  1  0
  4  2  1  0
  4  5  1  6
  6  4  1  0
  7  6  2  0
  8  9  1  0
  9 10  2  0
  9 19  1  0
 10 11  1  0
 11 12  2  0
 12 13  1  0
 14 13  1  1
 14 15  1  0
 15  6  1  0
 16 14  1  0
 16 17  2  0
 18 12  1  0
 19 18  2  0
 20 21  1  0
 20 16  1  0
 21 22  1  6
 22 23  1  0
 23 24  1  0
 24 28  1  0
 24 25  2  0
 26 21  1  0
 27 26  2  0
 29 26  1  0
M  END
$$$$
