GTN.pdb
     RDKit          3D

 20 19  0  0  1  0  0  0  0  0999 V2000
   16.5434  -11.8184  -15.7871 N   0  0  0  0  0  0  0  0  0  0  0  0
   17.0027  -10.6311  -16.4812 C   0  0  0  0  0  0  0  0  0  0  0  0
   18.1579  -10.0513  -15.7532 C   0  0  0  0  0  0  0  0  0  0  0  0
   18.0329   -9.3439  -14.7268 O   0  0  0  0  0  0  0  0  0  0  0  0
   23.0122  -10.0448  -14.9148 C   0  0  0  0  0  0  0  0  0  0  0  0
   21.8916  -10.5569  -15.7939 C   0  0  1  0  0  0  0  0  0  0  0  0
   21.7498  -11.8965  -15.5435 O   0  0  0  0  0  0  0  0  0  0  0  0
   20.6261   -9.7687  -15.5430 C   0  0  2  0  0  0  0  0  0  0  0  0
   19.4826  -10.2877  -16.2119 N   0  0  0  0  0  0  0  0  0  0  0  0
   20.8552   -8.3206  -15.8345 C   0  0  0  0  0  0  0  0  0  0  0  0
   20.8231   -7.8718  -17.0086 O   0  0  0  0  0  0  0  0  0  0  0  0
   21.2873   -3.1492  -15.1426 N   0  0  0  0  0  0  0  0  0  0  0  0
   20.0517   -3.8383  -15.2240 C   0  0  0  0  0  0  0  0  0  0  0  0
   19.0070   -3.1423  -15.3782 O   0  0  0  0  0  0  0  0  0  0  0  0
   19.9861   -5.3022  -15.1358 C   0  0  0  0  0  0  0  0  0  0  0  0
   21.3034   -5.9879  -14.9468 C   0  0  2  0  0  0  0  0  0  0  0  0
   21.1158   -7.4287  -14.7587 N   0  0  0  0  0  0  0  0  0  0  0  0
   21.8991   -5.5154  -13.6635 C   0  0  0  0  0  0  0  0  0  0  0  0
   21.9382   -6.2408  -12.6244 O   0  0  0  0  0  0  0  0  0  0  0  0
   22.4311   -4.2642  -13.5639 O   0  0  0  0  0  0  0  0  0  0  0  0
  2  1  1  0
  3  2  1  0
  4  3  2  0
  6  5  1  1
  7  6  1  0
  8  9  1  6
  8  6  1  0
  9  3  1  0
 10  8  1  0
 11 10  2  0
 13 12  1  0
 13 14  2  0
 15 13  1  0
 16 15  1  1
 16 17  1  0
 17 10  1  0
 18 20  1  0
 18 16  1  0
 19 18  2  0
M  END
$$$$
