GTN.pdb
     RDKit          3D

 20 19  0  0  1  0  0  0  0  0999 V2000
   13.9042   -8.4601   -7.1742 N   0  0  0  0  0  0  0  0  0  0  0  0
   14.6408   -7.3550   -7.7562 C   0  0  0  0  0  0  0  0  0  0  0  0
   15.7189   -7.8859   -8.6261 C   0  0  0  0  0  0  0  0  0  0  0  0
   16.4090   -8.8870   -8.3242 O   0  0  0  0  0  0  0  0  0  0  0  0
   15.5488   -9.7094  -11.4358 C   0  0  0  0  0  0  0  0  0  0  0  0
   16.3540   -8.5318  -11.9413 C   0  0  1  0  0  0  0  0  0  0  0  0
   15.5197   -7.7583  -12.7049 O   0  0  0  0  0  0  0  0  0  0  0  0
   16.9663   -7.7787  -10.7820 C   0  0  2  0  0  0  0  0  0  0  0  0
   16.0111   -7.2557   -9.8665 N   0  0  0  0  0  0  0  0  0  0  0  0
   17.9103   -6.7355  -11.2870 C   0  0  0  0  0  0  0  0  0  0  0  0
   17.6357   -5.5103  -11.2196 O   0  0  0  0  0  0  0  0  0  0  0  0
   23.1465   -6.4203  -14.4857 N   0  0  0  0  0  0  0  0  0  0  0  0
   22.4329   -6.0041  -13.3342 C   0  0  0  0  0  0  0  0  0  0  0  0
   22.7080   -4.8644  -12.8602 O   0  0  0  0  0  0  0  0  0  0  0  0
   21.4125   -6.8603  -12.7171 C   0  0  0  0  0  0  0  0  0  0  0  0
   20.1045   -6.1890  -12.4348 C   0  0  2  0  0  0  0  0  0  0  0  0
   19.1489   -7.1376  -11.8572 N   0  0  0  0  0  0  0  0  0  0  0  0
   19.4942   -5.7844  -13.7343 C   0  0  0  0  0  0  0  0  0  0  0  0
   18.9580   -6.6199  -14.5230 O   0  0  0  0  0  0  0  0  0  0  0  0
   19.4928   -4.4780  -14.1240 O   0  0  0  0  0  0  0  0  0  0  0  0
  2  1  1  0
  3  2  1  0
  4  3  2  0
  6  5  1  1
  7  6  1  0
  8  9  1  6
  8  6  1  0
  9  3  1  0
 10  8  1  0
 11 10  2  0
 13 12  1  0
 13 14  2  0
 15 13  1  0
 16 15  1  6
 16 17  1  0
 17 10  1  0
 18 20  1  0
 18 16  1  0
 19 18  2  0
M  END
$$$$
