GTN.pdb
     RDKit          3D

 20 19  0  0  1  0  0  0  0  0999 V2000
   13.0804  -21.7029   -5.3337 N   0  0  0  0  0  0  0  0  0  0  0  0
   14.1606  -22.2371   -4.5274 C   0  0  0  0  0  0  0  0  0  0  0  0
   13.6996  -22.3891   -3.1255 C   0  0  0  0  0  0  0  0  0  0  0  0
   12.5536  -22.0567   -2.7438 O   0  0  0  0  0  0  0  0  0  0  0  0
   14.3287  -25.6757   -1.1943 C   0  0  0  0  0  0  0  0  0  0  0  0
   14.6852  -24.5285   -0.2738 C   0  0  1  0  0  0  0  0  0  0  0  0
   16.0479  -24.5216   -0.1313 O   0  0  0  0  0  0  0  0  0  0  0  0
   14.1386  -23.2287   -0.8194 C   0  0  2  0  0  0  0  0  0  0  0  0
   14.5706  -22.9329   -2.1423 N   0  0  0  0  0  0  0  0  0  0  0  0
   14.4112  -22.1134    0.1378 C   0  0  0  0  0  0  0  0  0  0  0  0
   15.4420  -21.3999    0.0417 O   0  0  0  0  0  0  0  0  0  0  0  0
   10.7840  -18.4913    1.0073 N   0  0  0  0  0  0  0  0  0  0  0  0
   12.0807  -18.8525    1.4504 C   0  0  0  0  0  0  0  0  0  0  0  0
   13.0436  -18.1143    1.0934 O   0  0  0  0  0  0  0  0  0  0  0  0
   12.2984  -20.0348    2.2928 C   0  0  0  0  0  0  0  0  0  0  0  0
   13.6160  -20.7191    2.1009 C   0  0  2  0  0  0  0  0  0  0  0  0
   13.4828  -21.8526    1.1823 N   0  0  0  0  0  0  0  0  0  0  0  0
   14.0202  -21.3325    3.3992 C   0  0  0  0  0  0  0  0  0  0  0  0
   14.1111  -22.5870    3.5592 O   0  0  0  0  0  0  0  0  0  0  0  0
   14.3105  -20.5496    4.4767 O   0  0  0  0  0  0  0  0  0  0  0  0
  2  1  1  0
  3  2  1  0
  4  3  2  0
  6  5  1  6
  7  6  1  0
  8  9  1  6
  8  6  1  0
  9  3  1  0
 10  8  1  0
 11 10  2  0
 13 12  1  0
 13 14  2  0
 15 13  1  0
 16 15  1  1
 16 17  1  0
 17 10  1  0
 18 20  1  0
 18 16  1  0
 19 18  2  0
M  END
$$$$
