GTN.pdb
     RDKit          3D

 20 19  0  0  1  0  0  0  0  0999 V2000
   28.7928  -32.9522  -15.8223 N   0  0  0  0  0  0  0  0  0  0  0  0
   28.6491  -31.9992  -16.9055 C   0  0  0  0  0  0  0  0  0  0  0  0
   28.9009  -30.6299  -16.3931 C   0  0  0  0  0  0  0  0  0  0  0  0
   29.2995  -30.3995  -15.2280 O   0  0  0  0  0  0  0  0  0  0  0  0
   30.7345  -27.8599  -18.7279 C   0  0  0  0  0  0  0  0  0  0  0  0
   30.5569  -27.9002  -17.2254 C   0  0  1  0  0  0  0  0  0  0  0  0
   30.9997  -26.7040  -16.7251 O   0  0  0  0  0  0  0  0  0  0  0  0
   29.1156  -28.1933  -16.8752 C   0  0  2  0  0  0  0  0  0  0  0  0
   28.6910  -29.5030  -17.2339 N   0  0  0  0  0  0  0  0  0  0  0  0
   28.2246  -27.1280  -17.4282 C   0  0  0  0  0  0  0  0  0  0  0  0
   27.9047  -27.1021  -18.6439 O   0  0  0  0  0  0  0  0  0  0  0  0
   24.4841  -22.6481  -15.1591 N   0  0  0  0  0  0  0  0  0  0  0  0
   25.1097  -23.4301  -16.1618 C   0  0  0  0  0  0  0  0  0  0  0  0
   24.7417  -23.2447  -17.3574 O   0  0  0  0  0  0  0  0  0  0  0  0
   26.1459  -24.4146  -15.8271 C   0  0  0  0  0  0  0  0  0  0  0  0
   26.8001  -25.0740  -17.0012 C   0  0  2  0  0  0  0  0  0  0  0  0
   27.7266  -26.1193  -16.5590 N   0  0  0  0  0  0  0  0  0  0  0  0
   27.6654  -24.0681  -17.6827 C   0  0  0  0  0  0  0  0  0  0  0  0
   28.8412  -23.8042  -17.2883 O   0  0  0  0  0  0  0  0  0  0  0  0
   27.2119  -23.3867  -18.7728 O   0  0  0  0  0  0  0  0  0  0  0  0
  2  1  1  0
  3  2  1  0
  4  3  2  0
  6  5  1  6
  7  6  1  0
  8  9  1  6
  8  6  1  0
  9  3  1  0
 10  8  1  0
 11 10  2  0
 13 12  1  0
 13 14  2  0
 15 13  1  0
 16 15  1  1
 16 17  1  0
 17 10  1  0
 18 20  1  0
 18 16  1  0
 19 18  2  0
M  END
$$$$
