GTN.pdb
     RDKit          3D

 20 19  0  0  1  0  0  0  0  0999 V2000
   15.2571  -15.6052  -14.8963 N   0  0  0  0  0  0  0  0  0  0  0  0
   15.6695  -14.8478  -16.0618 C   0  0  0  0  0  0  0  0  0  0  0  0
   16.6895  -13.8471  -15.6629 C   0  0  0  0  0  0  0  0  0  0  0  0
   16.7815  -13.3927  -14.4991 O   0  0  0  0  0  0  0  0  0  0  0  0
   19.9649  -12.6611  -18.3773 C   0  0  0  0  0  0  0  0  0  0  0  0
   20.0055  -12.8056  -16.8713 C   0  0  1  0  0  0  0  0  0  0  0  0
   21.0256  -12.0169  -16.4081 O   0  0  0  0  0  0  0  0  0  0  0  0
   18.6626  -12.4510  -16.2739 C   0  0  2  0  0  0  0  0  0  0  0  0
   17.6219  -13.3581  -16.6181 N   0  0  0  0  0  0  0  0  0  0  0  0
   18.3168  -11.0317  -16.5909 C   0  0  0  0  0  0  0  0  0  0  0  0
   17.7414  -10.7175  -17.6638 O   0  0  0  0  0  0  0  0  0  0  0  0
   17.5005   -5.8693  -15.7972 N   0  0  0  0  0  0  0  0  0  0  0  0
   17.0091   -6.7262  -14.7810 C   0  0  0  0  0  0  0  0  0  0  0  0
   16.2453   -6.2175  -13.9108 O   0  0  0  0  0  0  0  0  0  0  0  0
   17.3695   -8.1487  -14.7409 C   0  0  0  0  0  0  0  0  0  0  0  0
   18.2698   -8.6084  -15.8451 C   0  0  2  0  0  0  0  0  0  0  0  0
   18.6462  -10.0118  -15.6569 N   0  0  0  0  0  0  0  0  0  0  0  0
   19.5550   -7.8578  -15.7465 C   0  0  0  0  0  0  0  0  0  0  0  0
   20.6555   -8.4266  -15.4766 O   0  0  0  0  0  0  0  0  0  0  0  0
   19.5892   -6.5098  -15.9473 O   0  0  0  0  0  0  0  0  0  0  0  0
  2  1  1  0
  3  2  1  0
  4  3  2  0
  6  5  1  6
  7  6  1  0
  8  9  1  6
  8  6  1  0
  9  3  1  0
 10  8  1  0
 11 10  2  0
 13 12  1  0
 13 14  2  0
 15 13  1  0
 16 15  1  1
 16 17  1  0
 17 10  1  0
 18 20  1  0
 18 16  1  0
 19 18  2  0
M  END
$$$$
