GTN.pdb
     RDKit          3D

 20 19  0  0  1  0  0  0  0  0999 V2000
   16.0015  -12.7230  -15.8221 N   0  0  0  0  0  0  0  0  0  0  0  0
   15.6598  -11.3338  -15.5864 C   0  0  0  0  0  0  0  0  0  0  0  0
   16.2851  -10.8813  -14.3195 C   0  0  0  0  0  0  0  0  0  0  0  0
   16.1893  -11.5185  -13.2451 O   0  0  0  0  0  0  0  0  0  0  0  0
   19.9219   -9.4814  -13.8226 C   0  0  0  0  0  0  0  0  0  0  0  0
   18.9289   -8.4922  -13.2516 C   0  0  1  0  0  0  0  0  0  0  0  0
   18.8992   -7.4075  -14.0881 O   0  0  0  0  0  0  0  0  0  0  0  0
   17.5767   -9.1465  -13.0793 C   0  0  2  0  0  0  0  0  0  0  0  0
   17.0348   -9.6738  -14.2845 N   0  0  0  0  0  0  0  0  0  0  0  0
   16.6375   -8.2125  -12.3865 C   0  0  0  0  0  0  0  0  0  0  0  0
   15.7550   -7.5772  -13.0178 O   0  0  0  0  0  0  0  0  0  0  0  0
   15.1855   -6.4354   -6.7401 N   0  0  0  0  0  0  0  0  0  0  0  0
   14.7392   -6.7754   -8.0415 C   0  0  0  0  0  0  0  0  0  0  0  0
   13.6449   -6.2745   -8.4300 O   0  0  0  0  0  0  0  0  0  0  0  0
   15.5171   -7.6712   -8.9060 C   0  0  0  0  0  0  0  0  0  0  0  0
   15.9121   -7.0937  -10.2295 C   0  0  2  0  0  0  0  0  0  0  0  0
   16.7441   -8.0379  -10.9797 N   0  0  0  0  0  0  0  0  0  0  0  0
   16.8013   -5.9216   -9.9839 C   0  0  0  0  0  0  0  0  0  0  0  0
   18.0380   -6.0470   -9.7338 O   0  0  0  0  0  0  0  0  0  0  0  0
   16.3041   -4.6528  -10.0209 O   0  0  0  0  0  0  0  0  0  0  0  0
  2  1  1  0
  3  2  1  0
  4  3  2  0
  6  5  1  6
  7  6  1  0
  8  9  1  6
  8  6  1  0
  9  3  1  0
 10  8  1  0
 11 10  2  0
 13 12  1  0
 13 14  2  0
 15 13  1  0
 16 15  1  1
 16 17  1  0
 17 10  1  0
 18 20  1  0
 18 16  1  0
 19 18  2  0
M  END
$$$$
