GTN.pdb
     RDKit          3D

 20 19  0  0  1  0  0  0  0  0999 V2000
   29.3548  -25.8530  -16.6657 N   0  0  0  0  0  0  0  0  0  0  0  0
   28.3630  -24.9570  -17.2277 C   0  0  0  0  0  0  0  0  0  0  0  0
   28.2938  -23.7227  -16.4076 C   0  0  0  0  0  0  0  0  0  0  0  0
   28.8933  -23.5943  -15.3152 O   0  0  0  0  0  0  0  0  0  0  0  0
   27.0226  -18.9667  -16.0348 C   0  0  0  0  0  0  0  0  0  0  0  0
   27.0322  -20.2040  -16.9063 C   0  0  1  0  0  0  0  0  0  0  0  0
   27.9045  -19.9756  -17.9380 O   0  0  0  0  0  0  0  0  0  0  0  0
   27.3902  -21.4216  -16.0846 C   0  0  2  0  0  0  0  0  0  0  0  0
   27.5214  -22.6140  -16.8496 N   0  0  0  0  0  0  0  0  0  0  0  0
   26.4356  -21.5719  -14.9442 C   0  0  0  0  0  0  0  0  0  0  0  0
   25.3517  -22.1967  -15.0703 O   0  0  0  0  0  0  0  0  0  0  0  0
   24.6864  -21.4942   -9.9501 N   0  0  0  0  0  0  0  0  0  0  0  0
   25.8935  -20.7550  -10.0201 C   0  0  0  0  0  0  0  0  0  0  0  0
   26.3399  -20.2677   -8.9419 O   0  0  0  0  0  0  0  0  0  0  0  0
   26.5999  -20.5645  -11.2927 C   0  0  0  0  0  0  0  0  0  0  0  0
   25.9567  -21.2101  -12.4805 C   0  0  2  0  0  0  0  0  0  0  0  0
   26.7603  -20.9947  -13.6864 N   0  0  0  0  0  0  0  0  0  0  0  0
   24.6692  -20.5092  -12.7562 C   0  0  0  0  0  0  0  0  0  0  0  0
   23.5753  -20.8610  -12.2202 O   0  0  0  0  0  0  0  0  0  0  0  0
   24.6255  -19.4471  -13.6096 O   0  0  0  0  0  0  0  0  0  0  0  0
  2  1  1  0
  3  2  1  0
  4  3  2  0
  6  5  1  1
  7  6  1  0
  8  9  1  6
  8  6  1  0
  9  3  1  0
 10  8  1  0
 11 10  2  0
 13 12  1  0
 13 14  2  0
 15 13  1  0
 16 15  1  1
 16 17  1  0
 17 10  1  0
 18 20  1  0
 18 16  1  0
 19 18  2  0
M  END
$$$$
