GTN.pdb
     RDKit          3D

 20 19  0  0  1  0  0  0  0  0999 V2000
   29.6611  -23.0947  -17.0798 N   0  0  0  0  0  0  0  0  0  0  0  0
   28.8323  -21.9434  -17.3795 C   0  0  0  0  0  0  0  0  0  0  0  0
   27.9318  -21.6731  -16.2319 C   0  0  0  0  0  0  0  0  0  0  0  0
   27.8799  -22.4061  -15.2173 O   0  0  0  0  0  0  0  0  0  0  0  0
   27.6093  -18.5442  -14.1326 C   0  0  0  0  0  0  0  0  0  0  0  0
   26.2318  -18.8351  -14.6880 C   0  0  1  0  0  0  0  0  0  0  0  0
   25.9731  -17.9040  -15.6593 O   0  0  0  0  0  0  0  0  0  0  0  0
   26.1605  -20.2577  -15.1952 C   0  0  2  0  0  0  0  0  0  0  0  0
   27.0739  -20.5396  -16.2489 N   0  0  0  0  0  0  0  0  0  0  0  0
   24.7506  -20.6088  -15.5466 C   0  0  0  0  0  0  0  0  0  0  0  0
   24.3169  -20.4966  -16.7214 O   0  0  0  0  0  0  0  0  0  0  0  0
   23.2767  -25.0113  -14.5923 N   0  0  0  0  0  0  0  0  0  0  0  0
   22.6682  -23.8610  -15.1536 C   0  0  0  0  0  0  0  0  0  0  0  0
   22.5897  -23.8017  -16.4144 O   0  0  0  0  0  0  0  0  0  0  0  0
   22.1469  -22.7819  -14.3057 C   0  0  0  0  0  0  0  0  0  0  0  0
   22.4682  -21.3957  -14.7708 C   0  0  2  0  0  0  0  0  0  0  0  0
   23.8784  -21.0811  -14.5282 N   0  0  0  0  0  0  0  0  0  0  0  0
   21.7154  -20.4287  -13.9203 C   0  0  0  0  0  0  0  0  0  0  0  0
   22.1873  -19.9634  -12.8393 O   0  0  0  0  0  0  0  0  0  0  0  0
   20.4717  -20.0055  -14.2841 O   0  0  0  0  0  0  0  0  0  0  0  0
  2  1  1  0
  3  2  1  0
  4  3  2  0
  6  5  1  6
  7  6  1  0
  8  9  1  6
  8  6  1  0
  9  3  1  0
 10  8  1  0
 11 10  2  0
 13 12  1  0
 13 14  2  0
 15 13  1  0
 16 15  1  1
 16 17  1  0
 17 10  1  0
 18 20  1  0
 18 16  1  0
 19 18  2  0
M  END
$$$$
