GTN.pdb
     RDKit          3D

 20 19  0  0  1  0  0  0  0  0999 V2000
   29.6488  -23.9243  -16.1632 N   0  0  0  0  0  0  0  0  0  0  0  0
   29.1203  -23.1195  -17.2473 C   0  0  0  0  0  0  0  0  0  0  0  0
   28.2938  -22.0219  -16.6879 C   0  0  0  0  0  0  0  0  0  0  0  0
   27.8788  -22.0141  -15.5059 O   0  0  0  0  0  0  0  0  0  0  0  0
   26.7937  -17.3550  -17.0605 C   0  0  0  0  0  0  0  0  0  0  0  0
   27.3635  -18.5396  -17.8106 C   0  0  1  0  0  0  0  0  0  0  0  0
   28.6716  -18.2538  -18.1014 O   0  0  0  0  0  0  0  0  0  0  0  0
   27.1985  -19.8038  -16.9980 C   0  0  2  0  0  0  0  0  0  0  0  0
   27.9362  -20.9116  -17.5006 N   0  0  0  0  0  0  0  0  0  0  0  0
   25.7473  -20.1135  -16.8168 C   0  0  0  0  0  0  0  0  0  0  0  0
   25.0958  -20.7485  -17.6848 O   0  0  0  0  0  0  0  0  0  0  0  0
   21.0557  -20.5186  -14.3908 N   0  0  0  0  0  0  0  0  0  0  0  0
   22.0489  -20.1581  -13.4464 C   0  0  0  0  0  0  0  0  0  0  0  0
   21.6985  -20.0848  -12.2335 O   0  0  0  0  0  0  0  0  0  0  0  0
   23.4308  -19.8832  -13.8585 C   0  0  0  0  0  0  0  0  0  0  0  0
   23.6993  -20.0309  -15.3239 C   0  0  2  0  0  0  0  0  0  0  0  0
   25.0873  -19.6800  -15.6348 N   0  0  0  0  0  0  0  0  0  0  0  0
   22.8827  -19.0193  -16.0552 C   0  0  0  0  0  0  0  0  0  0  0  0
   23.2514  -17.8132  -16.1852 O   0  0  0  0  0  0  0  0  0  0  0  0
   21.6904  -19.3649  -16.6186 O   0  0  0  0  0  0  0  0  0  0  0  0
  2  1  1  0
  3  2  1  0
  4  3  2  0
  6  5  1  1
  7  6  1  0
  8  9  1  6
  8  6  1  0
  9  3  1  0
 10  8  1  0
 11 10  2  0
 13 12  1  0
 13 14  2  0
 15 13  1  0
 16 15  1  1
 16 17  1  0
 17 10  1  0
 18 20  1  0
 18 16  1  0
 19 18  2  0
M  END
$$$$
