GTN.pdb
     RDKit          3D

 20 19  0  0  1  0  0  0  0  0999 V2000
   18.9593  -13.1025  -16.7626 N   0  0  0  0  0  0  0  0  0  0  0  0
   19.0905  -11.7458  -17.2570 C   0  0  0  0  0  0  0  0  0  0  0  0
   19.6376  -10.8812  -16.1828 C   0  0  0  0  0  0  0  0  0  0  0  0
   19.0836  -10.7449  -15.0675 O   0  0  0  0  0  0  0  0  0  0  0  0
   22.8523  -11.2524  -14.5519 C   0  0  0  0  0  0  0  0  0  0  0  0
   22.8538   -9.8122  -15.0174 C   0  0  1  0  0  0  0  0  0  0  0  0
   23.7288   -9.7187  -16.0677 O   0  0  0  0  0  0  0  0  0  0  0  0
   21.4509   -9.3743  -15.3725 C   0  0  2  0  0  0  0  0  0  0  0  0
   20.8439  -10.1587  -16.3925 N   0  0  0  0  0  0  0  0  0  0  0  0
   21.4311   -7.9121  -15.6826 C   0  0  0  0  0  0  0  0  0  0  0  0
   21.5832   -7.4853  -16.8555 O   0  0  0  0  0  0  0  0  0  0  0  0
   20.9863   -2.6969  -14.7980 N   0  0  0  0  0  0  0  0  0  0  0  0
   19.8172   -3.4866  -14.6642 C   0  0  0  0  0  0  0  0  0  0  0  0
   18.7129   -2.8780  -14.5663 O   0  0  0  0  0  0  0  0  0  0  0  0
   19.8840   -4.9529  -14.6428 C   0  0  0  0  0  0  0  0  0  0  0  0
   21.2524   -5.5304  -14.8307 C   0  0  2  0  0  0  0  0  0  0  0  0
   21.2356   -6.9810  -14.6263 N   0  0  0  0  0  0  0  0  0  0  0  0
   22.1353   -5.0081  -13.7479 C   0  0  0  0  0  0  0  0  0  0  0  0
   22.6987   -3.8744  -13.8177 O   0  0  0  0  0  0  0  0  0  0  0  0
   22.3700   -5.7466  -12.6263 O   0  0  0  0  0  0  0  0  0  0  0  0
  2  1  1  0
  3  2  1  0
  4  3  2  0
  6  5  1  6
  7  6  1  0
  8  9  1  6
  8  6  1  0
  9  3  1  0
 10  8  1  0
 11 10  2  0
 13 12  1  0
 13 14  2  0
 15 13  1  0
 16 15  1  1
 16 17  1  0
 17 10  1  0
 18 20  1  0
 18 16  1  0
 19 18  2  0
M  END
$$$$
