GTN.pdb
     RDKit          3D

 20 19  0  0  1  0  0  0  0  0999 V2000
   16.4551  -13.2918  -15.0694 N   0  0  0  0  0  0  0  0  0  0  0  0
   16.4888  -11.9820  -15.6902 C   0  0  0  0  0  0  0  0  0  0  0  0
   17.8975  -11.5358  -15.8217 C   0  0  0  0  0  0  0  0  0  0  0  0
   18.6427  -11.3278  -14.8364 O   0  0  0  0  0  0  0  0  0  0  0  0
   21.8849  -10.8359  -18.6001 C   0  0  0  0  0  0  0  0  0  0  0  0
   20.4228  -11.2269  -18.5914 C   0  0  1  0  0  0  0  0  0  0  0  0
   20.3551  -12.5769  -18.8154 O   0  0  0  0  0  0  0  0  0  0  0  0
   19.7754  -10.8075  -17.2911 C   0  0  2  0  0  0  0  0  0  0  0  0
   18.4622  -11.3238  -17.1091 N   0  0  0  0  0  0  0  0  0  0  0  0
   19.8350   -9.3213  -17.1422 C   0  0  0  0  0  0  0  0  0  0  0  0
   19.0140   -8.5674  -17.7241 O   0  0  0  0  0  0  0  0  0  0  0  0
   21.7313   -4.6410  -15.4274 N   0  0  0  0  0  0  0  0  0  0  0  0
   21.3483   -5.5397  -14.4009 C   0  0  0  0  0  0  0  0  0  0  0  0
   21.2805   -5.0827  -13.2236 O   0  0  0  0  0  0  0  0  0  0  0  0
   21.0397   -6.9451  -14.6919 C   0  0  0  0  0  0  0  0  0  0  0  0
   20.9965   -7.2993  -16.1458 C   0  0  2  0  0  0  0  0  0  0  0  0
   20.8441   -8.7456  -16.3230 N   0  0  0  0  0  0  0  0  0  0  0  0
   22.3256   -6.9848  -16.7455 C   0  0  0  0  0  0  0  0  0  0  0  0
   22.7415   -5.7959  -16.8912 O   0  0  0  0  0  0  0  0  0  0  0  0
   23.1526   -7.9843  -17.1645 O   0  0  0  0  0  0  0  0  0  0  0  0
  2  1  1  0
  3  2  1  0
  4  3  2  0
  6  5  1  1
  7  6  1  0
  8  9  1  6
  8  6  1  0
  9  3  1  0
 10  8  1  0
 11 10  2  0
 13 12  1  0
 13 14  2  0
 15 13  1  0
 16 15  1  1
 16 17  1  0
 17 10  1  0
 18 20  1  0
 18 16  1  0
 19 18  2  0
M  END
$$$$
