GTN.pdb
     RDKit          3D

 20 19  0  0  1  0  0  0  0  0999 V2000
   21.0024  -14.0382  -17.5770 N   0  0  0  0  0  0  0  0  0  0  0  0
   19.8782  -13.5618  -16.7950 C   0  0  0  0  0  0  0  0  0  0  0  0
   19.7647  -12.0900  -16.9424 C   0  0  0  0  0  0  0  0  0  0  0  0
   20.4975  -11.4219  -17.7079 O   0  0  0  0  0  0  0  0  0  0  0  0
   17.0410   -8.1188  -16.8749 C   0  0  0  0  0  0  0  0  0  0  0  0
   17.1595   -9.5373  -16.3605 C   0  0  1  0  0  0  0  0  0  0  0  0
   16.3776  -10.3320  -17.1571 O   0  0  0  0  0  0  0  0  0  0  0  0
   18.6090   -9.9663  -16.3340 C   0  0  2  0  0  0  0  0  0  0  0  0
   18.7912  -11.3706  -16.1967 N   0  0  0  0  0  0  0  0  0  0  0  0
   19.3582   -9.1854  -15.3028 C   0  0  0  0  0  0  0  0  0  0  0  0
   19.3500   -9.5177  -14.0902 O   0  0  0  0  0  0  0  0  0  0  0  0
   22.4242   -5.3925  -13.2363 N   0  0  0  0  0  0  0  0  0  0  0  0
   22.4849   -5.3115  -14.6499 C   0  0  0  0  0  0  0  0  0  0  0  0
   23.2289   -4.4192  -15.1495 O   0  0  0  0  0  0  0  0  0  0  0  0
   21.7170   -6.2283  -15.5013 C   0  0  0  0  0  0  0  0  0  0  0  0
   20.8916   -7.2382  -14.7665 C   0  0  2  0  0  0  0  0  0  0  0  0
   20.0981   -8.0391  -15.7021 N   0  0  0  0  0  0  0  0  0  0  0  0
   19.8821   -6.5109  -13.9438 C   0  0  0  0  0  0  0  0  0  0  0  0
   18.8611   -5.9579  -14.4530 O   0  0  0  0  0  0  0  0  0  0  0  0
   20.0269   -6.4150  -12.5917 O   0  0  0  0  0  0  0  0  0  0  0  0
  2  1  1  0
  3  2  1  0
  4  3  2  0
  6  5  1  6
  7  6  1  0
  8  9  1  1
  8  6  1  0
  9  3  1  0
 10  8  1  0
 11 10  2  0
 13 12  1  0
 13 14  2  0
 15 13  1  0
 16 15  1  6
 16 17  1  0
 17 10  1  0
 18 20  1  0
 18 16  1  0
 19 18  2  0
M  END
$$$$
