GTN.pdb
     RDKit          3D

 20 19  0  0  1  0  0  0  0  0999 V2000
   25.0659  -15.5177  -18.6292 N   0  0  0  0  0  0  0  0  0  0  0  0
   25.4111  -14.1297  -18.8673 C   0  0  0  0  0  0  0  0  0  0  0  0
   24.9509  -13.3048  -17.7234 C   0  0  0  0  0  0  0  0  0  0  0  0
   23.9791  -13.6228  -16.9997 O   0  0  0  0  0  0  0  0  0  0  0  0
   27.4217  -11.2398  -15.2944 C   0  0  0  0  0  0  0  0  0  0  0  0
   26.2767  -10.3726  -15.7715 C   0  0  1  0  0  0  0  0  0  0  0  0
   26.7884   -9.4668  -16.6631 O   0  0  0  0  0  0  0  0  0  0  0  0
   25.1792  -11.2300  -16.3600 C   0  0  2  0  0  0  0  0  0  0  0  0
   25.6187  -12.0911  -17.4038 N   0  0  0  0  0  0  0  0  0  0  0  0
   24.0217  -10.3764  -16.7675 C   0  0  0  0  0  0  0  0  0  0  0  0
   23.8678   -9.9991  -17.9570 O   0  0  0  0  0  0  0  0  0  0  0  0
   18.5202   -8.8856  -14.7311 N   0  0  0  0  0  0  0  0  0  0  0  0
   19.3871   -9.1634  -15.8172 C   0  0  0  0  0  0  0  0  0  0  0  0
   19.0392   -8.7474  -16.9597 O   0  0  0  0  0  0  0  0  0  0  0  0
   20.6408   -9.9023  -15.6243 C   0  0  0  0  0  0  0  0  0  0  0  0
   21.8727   -9.2026  -16.1082 C   0  0  2  0  0  0  0  0  0  0  0  0
   23.0714   -9.9813  -15.7868 N   0  0  0  0  0  0  0  0  0  0  0  0
   22.0281   -7.9365  -15.3351 C   0  0  0  0  0  0  0  0  0  0  0  0
   22.8751   -7.8105  -14.4001 O   0  0  0  0  0  0  0  0  0  0  0  0
   21.2497   -6.8526  -15.6138 O   0  0  0  0  0  0  0  0  0  0  0  0
  2  1  1  0
  3  2  1  0
  4  3  2  0
  6  5  1  6
  7  6  1  0
  8  9  1  6
  8  6  1  0
  9  3  1  0
 10  8  1  0
 11 10  2  0
 13 12  1  0
 13 14  2  0
 15 13  1  0
 16 15  1  1
 16 17  1  0
 17 10  1  0
 18 20  1  0
 18 16  1  0
 19 18  2  0
M  END
$$$$
