GTN.pdb
     RDKit          3D

 20 19  0  0  1  0  0  0  0  0999 V2000
   27.6721  -11.8716  -16.6414 N   0  0  0  0  0  0  0  0  0  0  0  0
   26.7214  -11.4871  -15.6164 C   0  0  0  0  0  0  0  0  0  0  0  0
   25.7581  -10.5098  -16.1802 C   0  0  0  0  0  0  0  0  0  0  0  0
   26.0983   -9.5832  -16.9516 O   0  0  0  0  0  0  0  0  0  0  0  0
   22.6845  -11.4117  -18.0688 C   0  0  0  0  0  0  0  0  0  0  0  0
   22.2195  -10.4246  -17.0200 C   0  0  1  0  0  0  0  0  0  0  0  0
   21.4701  -11.1165  -16.1051 O   0  0  0  0  0  0  0  0  0  0  0  0
   23.4049   -9.7172  -16.4032 C   0  0  2  0  0  0  0  0  0  0  0  0
   24.3776  -10.5973  -15.8523 N   0  0  0  0  0  0  0  0  0  0  0  0
   22.9382   -8.6894  -15.4233 C   0  0  0  0  0  0  0  0  0  0  0  0
   23.0445   -8.8656  -14.1828 O   0  0  0  0  0  0  0  0  0  0  0  0
   22.3078   -3.9534  -12.8778 N   0  0  0  0  0  0  0  0  0  0  0  0
   22.1687   -4.0848  -14.2820 C   0  0  0  0  0  0  0  0  0  0  0  0
   21.5638   -3.1589  -14.8953 O   0  0  0  0  0  0  0  0  0  0  0  0
   22.7076   -5.2479  -14.9975 C   0  0  0  0  0  0  0  0  0  0  0  0
   21.8173   -6.4512  -15.0177 C   0  0  2  0  0  0  0  0  0  0  0  0
   22.3602   -7.4832  -15.9047 N   0  0  0  0  0  0  0  0  0  0  0  0
   20.5187   -6.0643  -15.6413 C   0  0  0  0  0  0  0  0  0  0  0  0
   19.5939   -5.4939  -14.9878 O   0  0  0  0  0  0  0  0  0  0  0  0
   20.2790   -6.3159  -16.9595 O   0  0  0  0  0  0  0  0  0  0  0  0
  2  1  1  0
  3  2  1  0
  4  3  2  0
  6  5  1  6
  7  6  1  0
  8  9  1  1
  8  6  1  0
  9  3  1  0
 10  8  1  0
 11 10  2  0
 13 12  1  0
 13 14  2  0
 15 13  1  0
 16 15  1  6
 16 17  1  0
 17 10  1  0
 18 20  1  0
 18 16  1  0
 19 18  2  0
M  END
$$$$
