GTN.pdb
     RDKit          3D

 20 19  0  0  1  0  0  0  0  0999 V2000
   17.1760  -15.5696  -14.8220 N   0  0  0  0  0  0  0  0  0  0  0  0
   16.3922  -14.4266  -15.2480 C   0  0  0  0  0  0  0  0  0  0  0  0
   17.2926  -13.4027  -15.8325 C   0  0  0  0  0  0  0  0  0  0  0  0
   18.5346  -13.5482  -15.9070 O   0  0  0  0  0  0  0  0  0  0  0  0
   18.0276   -9.6914  -18.8584 C   0  0  0  0  0  0  0  0  0  0  0  0
   17.0052  -10.5867  -18.1921 C   0  0  1  0  0  0  0  0  0  0  0  0
   16.6292  -11.5356  -19.1062 O   0  0  0  0  0  0  0  0  0  0  0  0
   17.5741  -11.1781  -16.9223 C   0  0  2  0  0  0  0  0  0  0  0  0
   16.7574  -12.1879  -16.3413 N   0  0  0  0  0  0  0  0  0  0  0  0
   17.9179  -10.0900  -15.9567 C   0  0  0  0  0  0  0  0  0  0  0  0
   17.0516   -9.5836  -15.1989 O   0  0  0  0  0  0  0  0  0  0  0  0
   20.8457   -6.4495  -13.4564 N   0  0  0  0  0  0  0  0  0  0  0  0
   21.7067   -7.3190  -14.1712 C   0  0  0  0  0  0  0  0  0  0  0  0
   22.9518   -7.1337  -14.0493 O   0  0  0  0  0  0  0  0  0  0  0  0
   21.1754   -8.3942  -15.0178 C   0  0  0  0  0  0  0  0  0  0  0  0
   19.6930   -8.5892  -14.9432 C   0  0  2  0  0  0  0  0  0  0  0  0
   19.2566   -9.6158  -15.8930 N   0  0  0  0  0  0  0  0  0  0  0  0
   19.0305   -7.3375  -15.4115 C   0  0  0  0  0  0  0  0  0  0  0  0
   18.3291   -6.6116  -14.6442 O   0  0  0  0  0  0  0  0  0  0  0  0
   19.1599   -6.9250  -16.7043 O   0  0  0  0  0  0  0  0  0  0  0  0
  2  1  1  0
  3  2  1  0
  4  3  2  0
  6  5  1  6
  7  6  1  0
  8  9  1  1
  8  6  1  0
  9  3  1  0
 10  8  1  0
 11 10  2  0
 13 12  1  0
 13 14  2  0
 15 13  1  0
 16 15  1  6
 16 17  1  0
 17 10  1  0
 18 20  1  0
 18 16  1  0
 19 18  2  0
M  END
$$$$
