SSF.pdb
     RDKit          3D

 24 24  0  0  1  0  0  0  0  0999 V2000
    9.7967  -12.3209   18.7898 O   0  0  0  0  0  0  0  0  0  0  0  0
    9.0886  -12.6655   19.9232 C   0  0  0  0  0  0  0  0  0  0  0  0
    8.1840  -13.8330   19.5659 C   0  0  2  0  0  0  0  0  0  0  0  0
    6.9651  -13.3643   18.9519 N   0  0  0  0  0  0  0  0  0  0  0  0
    7.8391  -14.5228   20.8297 C   0  0  0  0  0  0  0  0  0  0  0  0
    6.9678  -14.0403   21.5929 O   0  0  0  0  0  0  0  0  0  0  0  0
    9.3827  -18.3003   21.8184 O   0  0  0  0  0  0  0  0  0  0  0  0
    8.0492  -17.9815   22.0549 C   0  0  0  0  0  0  0  0  0  0  0  0
    7.9727  -16.4850   22.3472 C   0  0  2  0  0  0  0  0  0  0  0  0
    8.4717  -15.7453   21.2282 N   0  0  0  0  0  0  0  0  0  0  0  0
    8.6770  -16.1556   23.6121 C   0  0  0  0  0  0  0  0  0  0  0  0
    9.8628  -15.7365   23.5956 O   0  0  0  0  0  0  0  0  0  0  0  0
    8.0720  -16.2889   24.8973 N   0  0  0  0  0  0  0  0  0  0  0  0
    8.7780  -15.9990   26.1330 C   0  0  1  0  0  0  0  0  0  0  0  0
    7.7648  -15.4051   27.0822 C   0  0  0  0  0  0  0  0  0  0  0  0
    7.3264  -14.0601   26.7365 C   0  0  0  0  0  0  0  0  0  0  0  0
    8.2471  -13.0432   26.6792 C   0  0  0  0  0  0  0  0  0  0  0  0
    7.9127  -11.7352   26.3571 C   0  0  0  0  0  0  0  0  0  0  0  0
    6.5909  -11.4511   26.0829 C   0  0  0  0  0  0  0  0  0  0  0  0
    5.6618  -12.4621   26.1377 C   0  0  0  0  0  0  0  0  0  0  0  0
    6.0144  -13.7633   26.4613 C   0  0  0  0  0  0  0  0  0  0  0  0
    9.4594  -17.1831   26.6522 C   0  0  0  0  0  0  0  0  0  0  0  0
    9.2086  -18.4172   26.0811 O   0  0  0  0  0  0  0  0  0  0  0  0
   10.2700  -17.1176   27.6053 O   0  0  0  0  0  0  0  0  0  0  0  0
  1  2  1  0
  2  3  1  0
  3  5  1  0
  3  4  1  1
  5  6  2  0
  7  8  1  0
  9  8  1  6
  9 11  1  0
 10  5  1  0
 10  9  1  0
 11 12  2  0
 11 13  1  0
 13 14  1  0
 14 22  1  0
 14 15  1  1
 16 15  1  0
 16 17  2  0
 18 17  1  0
 19 18  2  0
 20 21  2  0
 20 19  1  0
 21 16  1  0
 22 24  2  0
 22 23  1  0
M  END
$$$$
