SSF.pdb
     RDKit          3D

 24 24  0  0  1  0  0  0  0  0999 V2000
   10.9406  -13.3355   19.0817 O   0  0  0  0  0  0  0  0  0  0  0  0
   10.1387  -14.4574   19.1384 C   0  0  0  0  0  0  0  0  0  0  0  0
    8.6956  -14.0014   19.0023 C   0  0  2  0  0  0  0  0  0  0  0  0
    8.6248  -12.5662   18.8691 N   0  0  0  0  0  0  0  0  0  0  0  0
    7.9933  -14.3936   20.2452 C   0  0  0  0  0  0  0  0  0  0  0  0
    7.6311  -13.5175   21.0673 O   0  0  0  0  0  0  0  0  0  0  0  0
    7.6461  -18.3850   21.5066 O   0  0  0  0  0  0  0  0  0  0  0  0
    6.5778  -17.5324   21.7664 C   0  0  0  0  0  0  0  0  0  0  0  0
    7.1215  -16.1067   21.8188 C   0  0  2  0  0  0  0  0  0  0  0  0
    7.7025  -15.7617   20.5572 N   0  0  0  0  0  0  0  0  0  0  0  0
    8.0686  -15.9422   22.9504 C   0  0  0  0  0  0  0  0  0  0  0  0
    9.2990  -15.7881   22.7395 O   0  0  0  0  0  0  0  0  0  0  0  0
    7.6577  -15.9479   24.3165 N   0  0  0  0  0  0  0  0  0  0  0  0
    8.5919  -15.8067   25.4197 C   0  0  1  0  0  0  0  0  0  0  0  0
    7.7922  -15.3236   26.6060 C   0  0  0  0  0  0  0  0  0  0  0  0
    7.2463  -13.9812   26.4624 C   0  0  0  0  0  0  0  0  0  0  0  0
    8.0955  -12.9278   26.2293 C   0  0  0  0  0  0  0  0  0  0  0  0
    7.6570  -11.6195   26.0798 C   0  0  0  0  0  0  0  0  0  0  0  0
    6.3026  -11.3736   26.1709 C   0  0  0  0  0  0  0  0  0  0  0  0
    5.4446  -12.4212   26.4041 C   0  0  0  0  0  0  0  0  0  0  0  0
    5.9008  -13.7222   26.5509 C   0  0  0  0  0  0  0  0  0  0  0  0
    9.3281  -17.0459   25.6612 C   0  0  0  0  0  0  0  0  0  0  0  0
   10.4339  -17.0294   26.4912 O   0  0  0  0  0  0  0  0  0  0  0  0
    8.9884  -18.1322   25.1373 O   0  0  0  0  0  0  0  0  0  0  0  0
  1  2  1  0
  2  3  1  0
  3  5  1  0
  3  4  1  1
  5  6  2  0
  7  8  1  0
  9  8  1  6
  9 11  1  0
 10  5  1  0
 10  9  1  0
 11 12  2  0
 11 13  1  0
 13 14  1  0
 14 22  1  0
 14 15  1  1
 16 15  1  0
 16 17  2  0
 18 17  1  0
 19 18  2  0
 20 21  2  0
 20 19  1  0
 21 16  1  0
 22 24  2  0
 22 23  1  0
M  END
$$$$
