SSF.pdb
     RDKit          3D

 24 24  0  0  1  0  0  0  0  0999 V2000
    5.8119  -15.1263   20.9703 O   0  0  0  0  0  0  0  0  0  0  0  0
    6.8038  -14.2414   20.5986 C   0  0  0  0  0  0  0  0  0  0  0  0
    7.9249  -15.0449   19.9611 C   0  0  2  0  0  0  0  0  0  0  0  0
    7.4320  -15.8063   18.8386 N   0  0  0  0  0  0  0  0  0  0  0  0
    8.4252  -15.9887   20.9863 C   0  0  0  0  0  0  0  0  0  0  0  0
    7.9898  -17.1649   21.0255 O   0  0  0  0  0  0  0  0  0  0  0  0
   12.1255  -15.9236   22.3422 O   0  0  0  0  0  0  0  0  0  0  0  0
   11.3023  -17.0424   22.4221 C   0  0  0  0  0  0  0  0  0  0  0  0
    9.9230  -16.5743   22.8796 C   0  0  2  0  0  0  0  0  0  0  0  0
    9.4075  -15.6084   21.9579 N   0  0  0  0  0  0  0  0  0  0  0  0
    9.9712  -16.0673   24.2742 C   0  0  0  0  0  0  0  0  0  0  0  0
   10.5088  -14.9608   24.5361 O   0  0  0  0  0  0  0  0  0  0  0  0
    9.4255  -16.7823   25.3817 N   0  0  0  0  0  0  0  0  0  0  0  0
    9.4848  -16.2853   26.7452 C   0  0  1  0  0  0  0  0  0  0  0  0
    8.0705  -15.9332   27.1402 C   0  0  0  0  0  0  0  0  0  0  0  0
    7.6624  -14.5800   26.7888 C   0  0  0  0  0  0  0  0  0  0  0  0
    6.4771  -14.3828   26.1246 C   0  0  0  0  0  0  0  0  0  0  0  0
    6.0155  -13.1274   25.7544 C   0  0  0  0  0  0  0  0  0  0  0  0
    6.7897  -12.0307   26.0722 C   0  0  0  0  0  0  0  0  0  0  0  0
    7.9777  -12.2176   26.7368 C   0  0  0  0  0  0  0  0  0  0  0  0
    8.4230  -13.4798   27.0988 C   0  0  0  0  0  0  0  0  0  0  0  0
   10.1323  -17.2442   27.6380 C   0  0  0  0  0  0  0  0  0  0  0  0
   10.5365  -18.4699   27.1418 O   0  0  0  0  0  0  0  0  0  0  0  0
   10.3355  -16.9913   28.8482 O   0  0  0  0  0  0  0  0  0  0  0  0
  1  2  1  0
  2  3  1  0
  3  5  1  0
  3  4  1  6
  5  6  2  0
  7  8  1  0
  9  8  1  6
  9 11  1  0
 10  5  1  0
 10  9  1  0
 11 12  2  0
 11 13  1  0
 13 14  1  0
 14 22  1  0
 14 15  1  1
 16 15  1  0
 16 17  2  0
 18 17  1  0
 19 18  2  0
 20 21  2  0
 20 19  1  0
 21 16  1  0
 22 24  2  0
 22 23  1  0
M  END
$$$$
