SSF.pdb
     RDKit          3D

 24 24  0  0  1  0  0  0  0  0999 V2000
    8.4572  -12.3671   21.1016 O   0  0  0  0  0  0  0  0  0  0  0  0
    8.8814  -13.3585   20.2400 C   0  0  0  0  0  0  0  0  0  0  0  0
    7.8761  -14.4957   20.3132 C   0  0  2  0  0  0  0  0  0  0  0  0
    6.5275  -13.9908   20.2197 N   0  0  0  0  0  0  0  0  0  0  0  0
    8.0448  -15.1451   21.6330 C   0  0  0  0  0  0  0  0  0  0  0  0
    7.1570  -15.0258   22.5117 O   0  0  0  0  0  0  0  0  0  0  0  0
   11.3932  -17.4600   22.5662 O   0  0  0  0  0  0  0  0  0  0  0  0
   10.1362  -17.9361   22.9255 C   0  0  0  0  0  0  0  0  0  0  0  0
    9.2245  -16.7302   23.1385 C   0  0  2  0  0  0  0  0  0  0  0  0
    9.2045  -15.9218   21.9577 N   0  0  0  0  0  0  0  0  0  0  0  0
    9.6272  -15.9687   24.3479 C   0  0  0  0  0  0  0  0  0  0  0  0
   10.4371  -15.0102   24.2620 O   0  0  0  0  0  0  0  0  0  0  0  0
    9.1356  -16.2652   25.6539 N   0  0  0  0  0  0  0  0  0  0  0  0
    9.6005  -15.5758   26.8448 C   0  0  1  0  0  0  0  0  0  0  0  0
    8.3691  -15.1124   27.5860 C   0  0  0  0  0  0  0  0  0  0  0  0
    7.6709  -13.9967   26.9628 C   0  0  0  0  0  0  0  0  0  0  0  0
    8.2648  -12.7591   26.9342 C   0  0  0  0  0  0  0  0  0  0  0  0
    7.6684  -11.6453   26.3598 C   0  0  0  0  0  0  0  0  0  0  0  0
    6.4198  -11.7964   25.7930 C   0  0  0  0  0  0  0  0  0  0  0  0
    5.8170  -13.0310   25.8166 C   0  0  0  0  0  0  0  0  0  0  0  0
    6.4282  -14.1329   26.3950 C   0  0  0  0  0  0  0  0  0  0  0  0
   10.4929  -16.4181   27.6385 C   0  0  0  0  0  0  0  0  0  0  0  0
   10.7372  -17.7183   27.2363 O   0  0  0  0  0  0  0  0  0  0  0  0
   11.0489  -15.9986   28.6800 O   0  0  0  0  0  0  0  0  0  0  0  0
  1  2  1  0
  2  3  1  0
  3  5  1  0
  3  4  1  1
  5  6  2  0
  7  8  1  0
  9  8  1  6
  9 11  1  0
 10  5  1  0
 10  9  1  0
 11 12  2  0
 11 13  1  0
 13 14  1  0
 14 22  1  0
 14 15  1  1
 16 15  1  0
 16 17  2  0
 18 17  1  0
 19 18  2  0
 20 21  2  0
 20 19  1  0
 21 16  1  0
 22 24  2  0
 22 23  1  0
M  END
$$$$
