SSF.pdb
     RDKit          3D

 24 24  0  0  1  0  0  0  0  0999 V2000
   10.2051  -13.0421   19.9479 O   0  0  0  0  0  0  0  0  0  0  0  0
    9.5848  -14.0608   19.2532 C   0  0  0  0  0  0  0  0  0  0  0  0
    8.0856  -13.9057   19.4463 C   0  0  2  0  0  0  0  0  0  0  0  0
    7.7060  -12.5143   19.3944 N   0  0  0  0  0  0  0  0  0  0  0  0
    7.7604  -14.4320   20.7914 C   0  0  0  0  0  0  0  0  0  0  0  0
    7.5836  -13.6427   21.7507 O   0  0  0  0  0  0  0  0  0  0  0  0
    7.8424  -18.5182   21.9290 O   0  0  0  0  0  0  0  0  0  0  0  0
    6.7139  -17.7533   22.2066 C   0  0  0  0  0  0  0  0  0  0  0  0
    7.1547  -16.2958   22.3179 C   0  0  2  0  0  0  0  0  0  0  0  0
    7.6361  -15.8358   21.0510 N   0  0  0  0  0  0  0  0  0  0  0  0
    8.1504  -16.1251   23.4059 C   0  0  0  0  0  0  0  0  0  0  0  0
    9.3648  -15.9340   23.1397 O   0  0  0  0  0  0  0  0  0  0  0  0
    7.8059  -16.1653   24.7897 N   0  0  0  0  0  0  0  0  0  0  0  0
    8.7867  -16.0091   25.8496 C   0  0  1  0  0  0  0  0  0  0  0  0
    8.0989  -15.2683   26.9712 C   0  0  0  0  0  0  0  0  0  0  0  0
    7.5871  -13.9548   26.6055 C   0  0  0  0  0  0  0  0  0  0  0  0
    6.2490  -13.6856   26.7546 C   0  0  0  0  0  0  0  0  0  0  0  0
    5.6816  -12.4610   26.4309 C   0  0  0  0  0  0  0  0  0  0  0  0
    6.5073  -11.4726   25.9365 C   0  0  0  0  0  0  0  0  0  0  0  0
    7.8479  -11.7323   25.7836 C   0  0  0  0  0  0  0  0  0  0  0  0
    8.3973  -12.9621   26.1124 C   0  0  0  0  0  0  0  0  0  0  0  0
    9.3578  -17.2947   26.2458 C   0  0  0  0  0  0  0  0  0  0  0  0
   10.3984  -17.3252   27.1558 O   0  0  0  0  0  0  0  0  0  0  0  0
    8.9329  -18.3796   25.7850 O   0  0  0  0  0  0  0  0  0  0  0  0
  1  2  1  0
  2  3  1  0
  3  5  1  0
  3  4  1  1
  5  6  2  0
  7  8  1  0
  9  8  1  6
  9 11  1  0
 10  5  1  0
 10  9  1  0
 11 12  2  0
 11 13  1  0
 13 14  1  0
 14 22  1  0
 14 15  1  1
 16 15  1  0
 16 17  2  0
 18 17  1  0
 19 18  2  0
 20 21  2  0
 20 19  1  0
 21 16  1  0
 22 24  2  0
 22 23  1  0
M  END
$$$$
