SSF.pdb
     RDKit          3D

 24 24  0  0  1  0  0  0  0  0999 V2000
    8.9798  -11.9164   18.6146 O   0  0  0  0  0  0  0  0  0  0  0  0
    9.0155  -12.7097   19.7435 C   0  0  0  0  0  0  0  0  0  0  0  0
    8.5314  -14.0953   19.3502 C   0  0  2  0  0  0  0  0  0  0  0  0
    7.3406  -14.0085   18.5397 N   0  0  0  0  0  0  0  0  0  0  0  0
    8.1978  -14.8141   20.6008 C   0  0  0  0  0  0  0  0  0  0  0  0
    7.0257  -14.7891   21.0480 O   0  0  0  0  0  0  0  0  0  0  0  0
   10.5366  -17.8702   21.7621 O   0  0  0  0  0  0  0  0  0  0  0  0
    9.1759  -17.8679   22.0524 C   0  0  0  0  0  0  0  0  0  0  0  0
    8.7746  -16.4347   22.3929 C   0  0  2  0  0  0  0  0  0  0  0  0
    9.1779  -15.5539   21.3395 N   0  0  0  0  0  0  0  0  0  0  0  0
    9.3168  -16.0329   23.7154 C   0  0  0  0  0  0  0  0  0  0  0  0
   10.4269  -15.4480   23.8025 O   0  0  0  0  0  0  0  0  0  0  0  0
    8.6332  -16.2766   24.9437 N   0  0  0  0  0  0  0  0  0  0  0  0
    9.2196  -15.9890   26.2410 C   0  0  1  0  0  0  0  0  0  0  0  0
    8.0981  -15.4971   27.1244 C   0  0  0  0  0  0  0  0  0  0  0  0
    7.5794  -14.1833   26.7700 C   0  0  0  0  0  0  0  0  0  0  0  0
    6.3809  -14.0863   26.1073 C   0  0  0  0  0  0  0  0  0  0  0  0
    5.8169  -12.8742   25.7344 C   0  0  0  0  0  0  0  0  0  0  0  0
    6.4986  -11.7165   26.0477 C   0  0  0  0  0  0  0  0  0  0  0  0
    7.6989  -11.8031   26.7108 C   0  0  0  0  0  0  0  0  0  0  0  0
    8.2472  -13.0232   27.0756 C   0  0  0  0  0  0  0  0  0  0  0  0
    9.9356  -17.1460   26.7745 C   0  0  0  0  0  0  0  0  0  0  0  0
   10.7278  -16.9968   27.8979 O   0  0  0  0  0  0  0  0  0  0  0  0
    9.8554  -18.2782   26.2440 O   0  0  0  0  0  0  0  0  0  0  0  0
  1  2  1  0
  2  3  1  0
  3  5  1  0
  3  4  1  6
  5  6  2  0
  7  8  1  0
  9  8  1  6
  9 11  1  0
 10  5  1  0
 10  9  1  0
 11 12  2  0
 11 13  1  0
 13 14  1  0
 14 22  1  0
 14 15  1  1
 16 15  1  0
 16 17  2  0
 18 17  1  0
 19 18  2  0
 20 21  2  0
 20 19  1  0
 21 16  1  0
 22 24  2  0
 22 23  1  0
M  END
$$$$
