SSF.pdb
     RDKit          3D

 24 24  0  0  1  0  0  0  0  0999 V2000
   10.5696  -14.3080   19.0066 O   0  0  0  0  0  0  0  0  0  0  0  0
    9.6110  -14.8205   18.1559 C   0  0  0  0  0  0  0  0  0  0  0  0
    8.2913  -14.1429   18.4850 C   0  0  2  0  0  0  0  0  0  0  0  0
    8.3958  -12.7136   18.3151 N   0  0  0  0  0  0  0  0  0  0  0  0
    7.9958  -14.4271   19.9076 C   0  0  0  0  0  0  0  0  0  0  0  0
    8.4388  -13.6714   20.8061 O   0  0  0  0  0  0  0  0  0  0  0  0
    6.6182  -18.0399   21.5614 O   0  0  0  0  0  0  0  0  0  0  0  0
    5.8652  -16.8975   21.8134 C   0  0  0  0  0  0  0  0  0  0  0  0
    6.7893  -15.6902   21.6739 C   0  0  2  0  0  0  0  0  0  0  0  0
    7.2077  -15.5536   20.3121 N   0  0  0  0  0  0  0  0  0  0  0  0
    7.9314  -15.7854   22.6179 C   0  0  0  0  0  0  0  0  0  0  0  0
    9.0481  -16.2165   22.2319 O   0  0  0  0  0  0  0  0  0  0  0  0
    7.8412  -15.4044   23.9897 N   0  0  0  0  0  0  0  0  0  0  0  0
    8.9805  -15.4311   24.8902 C   0  0  1  0  0  0  0  0  0  0  0  0
    9.1883  -14.0140   25.3686 C   0  0  0  0  0  0  0  0  0  0  0  0
    8.0021  -13.3849   25.9326 C   0  0  0  0  0  0  0  0  0  0  0  0
    7.0859  -12.7979   25.0954 C   0  0  0  0  0  0  0  0  0  0  0  0
    5.9304  -12.1786   25.5511 C   0  0  0  0  0  0  0  0  0  0  0  0
    5.6985  -12.1557   26.9108 C   0  0  0  0  0  0  0  0  0  0  0  0
    6.6095  -12.7404   27.7570 C   0  0  0  0  0  0  0  0  0  0  0  0
    7.7588  -13.3548   27.2835 C   0  0  0  0  0  0  0  0  0  0  0  0
    8.7917  -16.4022   25.9658 C   0  0  0  0  0  0  0  0  0  0  0  0
    9.8182  -16.6312   26.8634 O   0  0  0  0  0  0  0  0  0  0  0  0
    7.7221  -17.0400   26.1035 O   0  0  0  0  0  0  0  0  0  0  0  0
  1  2  1  0
  2  3  1  0
  3  5  1  0
  3  4  1  1
  5  6  2  0
  7  8  1  0
  9  8  1  6
  9 11  1  0
 10  5  1  0
 10  9  1  0
 11 12  2  0
 11 13  1  0
 13 14  1  0
 14 22  1  0
 14 15  1  1
 16 15  1  0
 16 17  2  0
 18 17  1  0
 19 18  2  0
 20 21  2  0
 20 19  1  0
 21 16  1  0
 22 24  2  0
 22 23  1  0
M  END
$$$$
