SSF.pdb
     RDKit          3D

 24 24  0  0  1  0  0  0  0  0999 V2000
   10.4424  -13.0408   18.5384 O   0  0  0  0  0  0  0  0  0  0  0  0
    9.6863  -13.2316   19.6772 C   0  0  0  0  0  0  0  0  0  0  0  0
    8.4193  -13.9664   19.2729 C   0  0  2  0  0  0  0  0  0  0  0  0
    7.4848  -13.0639   18.6445 N   0  0  0  0  0  0  0  0  0  0  0  0
    7.8038  -14.4928   20.5124 C   0  0  0  0  0  0  0  0  0  0  0  0
    7.0778  -13.7521   21.2186 O   0  0  0  0  0  0  0  0  0  0  0  0
    8.1773  -18.5175   21.8552 O   0  0  0  0  0  0  0  0  0  0  0  0
    6.9892  -17.7996   21.9489 C   0  0  0  0  0  0  0  0  0  0  0  0
    7.3478  -16.3261   22.1254 C   0  0  2  0  0  0  0  0  0  0  0  0
    8.0060  -15.8422   20.9503 N   0  0  0  0  0  0  0  0  0  0  0  0
    8.1499  -16.1201   23.3578 C   0  0  0  0  0  0  0  0  0  0  0  0
    9.3876  -15.9069   23.2892 O   0  0  0  0  0  0  0  0  0  0  0  0
    7.5855  -16.1493   24.6677 N   0  0  0  0  0  0  0  0  0  0  0  0
    8.3913  -16.0692   25.8735 C   0  0  1  0  0  0  0  0  0  0  0  0
    7.5261  -15.4270   26.9314 C   0  0  0  0  0  0  0  0  0  0  0  0
    7.2053  -14.0281   26.6846 C   0  0  0  0  0  0  0  0  0  0  0  0
    8.1850  -13.0759   26.8217 C   0  0  0  0  0  0  0  0  0  0  0  0
    7.9629  -11.7232   26.6047 C   0  0  0  0  0  0  0  0  0  0  0  0
    6.6955  -11.3241   26.2340 C   0  0  0  0  0  0  0  0  0  0  0  0
    5.7082  -12.2694   26.0941 C   0  0  0  0  0  0  0  0  0  0  0  0
    5.9485  -13.6169   26.3152 C   0  0  0  0  0  0  0  0  0  0  0  0
    8.9234  -17.3770   26.2510 C   0  0  0  0  0  0  0  0  0  0  0  0
    8.4853  -18.5073   25.5859 O   0  0  0  0  0  0  0  0  0  0  0  0
    9.7704  -17.5100   27.1647 O   0  0  0  0  0  0  0  0  0  0  0  0
  1  2  1  0
  2  3  1  0
  3  5  1  0
  3  4  1  1
  5  6  2  0
  7  8  1  0
  9  8  1  6
  9 11  1  0
 10  5  1  0
 10  9  1  0
 11 12  2  0
 11 13  1  0
 13 14  1  0
 14 22  1  0
 14 15  1  1
 16 15  1  0
 16 17  2  0
 18 17  1  0
 19 18  2  0
 20 21  2  0
 20 19  1  0
 21 16  1  0
 22 24  2  0
 22 23  1  0
M  END
$$$$
