SSF.pdb
     RDKit          3D

 24 24  0  0  1  0  0  0  0  0999 V2000
   10.5270  -13.2700   19.7129 O   0  0  0  0  0  0  0  0  0  0  0  0
   10.1823  -14.0744   18.6456 C   0  0  0  0  0  0  0  0  0  0  0  0
    8.6662  -14.1702   18.6097 C   0  0  2  0  0  0  0  0  0  0  0  0
    8.0806  -12.8826   18.3239 N   0  0  0  0  0  0  0  0  0  0  0  0
    8.2226  -14.6005   19.9551 C   0  0  0  0  0  0  0  0  0  0  0  0
    7.9893  -13.7465   20.8444 O   0  0  0  0  0  0  0  0  0  0  0  0
    8.3211  -18.5980   21.4063 O   0  0  0  0  0  0  0  0  0  0  0  0
    7.1896  -17.8174   21.6207 C   0  0  0  0  0  0  0  0  0  0  0  0
    7.6243  -16.3539   21.6099 C   0  0  2  0  0  0  0  0  0  0  0  0
    8.0440  -15.9816   20.2934 N   0  0  0  0  0  0  0  0  0  0  0  0
    8.6673  -16.1035   22.6366 C   0  0  0  0  0  0  0  0  0  0  0  0
    9.8761  -15.9898   22.3082 O   0  0  0  0  0  0  0  0  0  0  0  0
    8.3761  -15.9784   24.0276 N   0  0  0  0  0  0  0  0  0  0  0  0
    9.4030  -15.7480   25.0286 C   0  0  1  0  0  0  0  0  0  0  0  0
    9.5509  -14.2511   25.1615 C   0  0  0  0  0  0  0  0  0  0  0  0
    8.3846  -13.5734   25.7104 C   0  0  0  0  0  0  0  0  0  0  0  0
    8.3982  -13.1581   27.0190 C   0  0  0  0  0  0  0  0  0  0  0  0
    7.3299  -12.5054   27.6182 C   0  0  0  0  0  0  0  0  0  0  0  0
    6.2047  -12.2661   26.8566 C   0  0  0  0  0  0  0  0  0  0  0  0
    6.1814  -12.6780   25.5459 C   0  0  0  0  0  0  0  0  0  0  0  0
    7.2584  -13.3289   24.9641 C   0  0  0  0  0  0  0  0  0  0  0  0
    9.0921  -16.4304   26.2830 C   0  0  0  0  0  0  0  0  0  0  0  0
    7.8991  -17.1187   26.4053 O   0  0  0  0  0  0  0  0  0  0  0  0
    9.8766  -16.4130   27.2598 O   0  0  0  0  0  0  0  0  0  0  0  0
  1  2  1  0
  2  3  1  0
  3  5  1  0
  3  4  1  1
  5  6  2  0
  7  8  1  0
  9  8  1  6
  9 11  1  0
 10  5  1  0
 10  9  1  0
 11 12  2  0
 11 13  1  0
 13 14  1  0
 14 22  1  0
 14 15  1  1
 16 15  1  0
 16 17  2  0
 18 17  1  0
 19 18  2  0
 20 21  2  0
 20 19  1  0
 21 16  1  0
 22 24  2  0
 22 23  1  0
M  END
$$$$
