SSF.pdb
     RDKit          3D

 24 24  0  0  1  0  0  0  0  0999 V2000
   10.5162  -13.4753   19.0663 O   0  0  0  0  0  0  0  0  0  0  0  0
    9.8508  -14.5017   18.4269 C   0  0  0  0  0  0  0  0  0  0  0  0
    8.3598  -14.2441   18.5674 C   0  0  2  0  0  0  0  0  0  0  0  0
    8.0546  -12.8587   18.3025 N   0  0  0  0  0  0  0  0  0  0  0  0
    7.9933  -14.5468   19.9695 C   0  0  0  0  0  0  0  0  0  0  0  0
    8.0819  -13.6569   20.8497 O   0  0  0  0  0  0  0  0  0  0  0  0
    7.5589  -18.3897   21.6249 O   0  0  0  0  0  0  0  0  0  0  0  0
    6.5368  -17.4753   21.8589 C   0  0  0  0  0  0  0  0  0  0  0  0
    7.1268  -16.0733   21.7273 C   0  0  2  0  0  0  0  0  0  0  0  0
    7.5312  -15.8415   20.3742 N   0  0  0  0  0  0  0  0  0  0  0  0
    8.2312  -15.8700   22.6986 C   0  0  0  0  0  0  0  0  0  0  0  0
    9.4046  -15.6553   22.2998 O   0  0  0  0  0  0  0  0  0  0  0  0
    8.0407  -15.9036   24.1121 N   0  0  0  0  0  0  0  0  0  0  0  0
    9.1284  -15.7207   25.0571 C   0  0  1  0  0  0  0  0  0  0  0  0
    9.3538  -14.2324   25.1762 C   0  0  0  0  0  0  0  0  0  0  0  0
    8.2295  -13.4919   25.7316 C   0  0  0  0  0  0  0  0  0  0  0  0
    8.2056  -13.2068   27.0745 C   0  0  0  0  0  0  0  0  0  0  0  0
    7.1732  -12.5061   27.6823 C   0  0  0  0  0  0  0  0  0  0  0  0
    6.1250  -12.0791   26.8935 C   0  0  0  0  0  0  0  0  0  0  0  0
    6.1398  -12.3595   25.5484 C   0  0  0  0  0  0  0  0  0  0  0  0
    7.1800  -13.0610   24.9584 C   0  0  0  0  0  0  0  0  0  0  0  0
    8.8519  -16.3858   26.3287 C   0  0  0  0  0  0  0  0  0  0  0  0
    7.6503  -17.0474   26.5031 O   0  0  0  0  0  0  0  0  0  0  0  0
    9.6736  -16.3770   27.2745 O   0  0  0  0  0  0  0  0  0  0  0  0
  1  2  1  0
  2  3  1  0
  3  5  1  0
  3  4  1  1
  5  6  2  0
  7  8  1  0
  9  8  1  6
  9 11  1  0
 10  5  1  0
 10  9  1  0
 11 12  2  0
 11 13  1  0
 13 14  1  0
 14 22  1  0
 14 15  1  1
 16 15  1  0
 16 17  2  0
 18 17  1  0
 19 18  2  0
 20 21  2  0
 20 19  1  0
 21 16  1  0
 22 24  2  0
 22 23  1  0
M  END
$$$$
