SSF.pdb
     RDKit          3D

 24 24  0  0  1  0  0  0  0  0999 V2000
   10.3882  -13.9166   19.5774 O   0  0  0  0  0  0  0  0  0  0  0  0
    9.5436  -14.5378   18.6798 C   0  0  0  0  0  0  0  0  0  0  0  0
    8.1312  -14.0549   18.9640 C   0  0  2  0  0  0  0  0  0  0  0  0
    8.0290  -12.6298   18.7611 N   0  0  0  0  0  0  0  0  0  0  0  0
    7.8457  -14.3491   20.3867 C   0  0  0  0  0  0  0  0  0  0  0  0
    8.0751  -13.4848   21.2669 O   0  0  0  0  0  0  0  0  0  0  0  0
    6.8404  -18.1460   21.8111 O   0  0  0  0  0  0  0  0  0  0  0  0
    6.1116  -17.0760   22.3205 C   0  0  0  0  0  0  0  0  0  0  0  0
    6.9707  -15.8211   22.1863 C   0  0  2  0  0  0  0  0  0  0  0  0
    7.3063  -15.6070   20.8116 N   0  0  0  0  0  0  0  0  0  0  0  0
    8.1665  -15.9015   23.0626 C   0  0  0  0  0  0  0  0  0  0  0  0
    9.2976  -16.1678   22.5812 O   0  0  0  0  0  0  0  0  0  0  0  0
    8.1143  -15.6878   24.4722 N   0  0  0  0  0  0  0  0  0  0  0  0
    9.2612  -15.8864   25.3410 C   0  0  1  0  0  0  0  0  0  0  0  0
    9.2681  -14.7364   26.3196 C   0  0  0  0  0  0  0  0  0  0  0  0
    8.0937  -13.8778   26.2538 C   0  0  0  0  0  0  0  0  0  0  0  0
    8.0272  -12.8962   25.2961 C   0  0  0  0  0  0  0  0  0  0  0  0
    6.9449  -12.0373   25.1650 C   0  0  0  0  0  0  0  0  0  0  0  0
    5.8900  -12.1827   26.0419 C   0  0  0  0  0  0  0  0  0  0  0  0
    5.9471  -13.1621   27.0040 C   0  0  0  0  0  0  0  0  0  0  0  0
    7.0369  -14.0113   27.1201 C   0  0  0  0  0  0  0  0  0  0  0  0
    9.2355  -17.2051   25.9704 C   0  0  0  0  0  0  0  0  0  0  0  0
    8.1525  -18.0385   25.7593 O   0  0  0  0  0  0  0  0  0  0  0  0
   10.1694  -17.6098   26.7010 O   0  0  0  0  0  0  0  0  0  0  0  0
  1  2  1  0
  2  3  1  0
  3  5  1  0
  3  4  1  1
  5  6  2  0
  7  8  1  0
  9  8  1  6
  9 11  1  0
 10  5  1  0
 10  9  1  0
 11 12  2  0
 11 13  1  0
 13 14  1  0
 14 22  1  0
 14 15  1  1
 16 15  1  0
 16 17  2  0
 18 17  1  0
 19 18  2  0
 20 21  2  0
 20 19  1  0
 21 16  1  0
 22 24  2  0
 22 23  1  0
M  END
$$$$
