SSF.pdb
     RDKit          3D

 24 24  0  0  1  0  0  0  0  0999 V2000
    5.2078  -18.3063   23.5617 O   0  0  0  0  0  0  0  0  0  0  0  0
    4.5307  -17.4866   22.6815 C   0  0  0  0  0  0  0  0  0  0  0  0
    5.1411  -17.6836   21.3040 C   0  0  2  0  0  0  0  0  0  0  0  0
    5.1517  -19.0816   20.9460 N   0  0  0  0  0  0  0  0  0  0  0  0
    6.5404  -17.2049   21.3724 C   0  0  0  0  0  0  0  0  0  0  0  0
    7.4753  -18.0184   21.5697 O   0  0  0  0  0  0  0  0  0  0  0  0
    7.3337  -13.5043   20.3051 O   0  0  0  0  0  0  0  0  0  0  0  0
    8.5249  -14.1969   20.4974 C   0  0  0  0  0  0  0  0  0  0  0  0
    8.2309  -15.3851   21.4098 C   0  0  2  0  0  0  0  0  0  0  0  0
    6.8812  -15.8214   21.2196 N   0  0  0  0  0  0  0  0  0  0  0  0
    8.5322  -15.0533   22.8253 C   0  0  0  0  0  0  0  0  0  0  0  0
    8.1432  -13.9671   23.3261 O   0  0  0  0  0  0  0  0  0  0  0  0
    9.2637  -15.9212   23.6896 N   0  0  0  0  0  0  0  0  0  0  0  0
    9.4212  -15.6664   25.1108 C   0  0  1  0  0  0  0  0  0  0  0  0
    8.0319  -15.6297   25.7014 C   0  0  0  0  0  0  0  0  0  0  0  0
    7.5570  -14.2980   26.0504 C   0  0  0  0  0  0  0  0  0  0  0  0
    6.3346  -13.8746   25.5904 C   0  0  0  0  0  0  0  0  0  0  0  0
    5.8090  -12.6225   25.8774 C   0  0  0  0  0  0  0  0  0  0  0  0
    6.5557  -11.7687   26.6626 C   0  0  0  0  0  0  0  0  0  0  0  0
    7.7803  -12.1833   27.1279 C   0  0  0  0  0  0  0  0  0  0  0  0
    8.2896  -13.4382   26.8308 C   0  0  0  0  0  0  0  0  0  0  0  0
   10.3095  -16.6441   25.7359 C   0  0  0  0  0  0  0  0  0  0  0  0
   10.9187  -16.3381   26.9390 O   0  0  0  0  0  0  0  0  0  0  0  0
   10.5400  -17.7598   25.2145 O   0  0  0  0  0  0  0  0  0  0  0  0
  1  2  1  0
  2  3  1  0
  3  5  1  0
  3  4  1  1
  5  6  2  0
  7  8  1  0
  9  8  1  6
  9 11  1  0
 10  5  1  0
 10  9  1  0
 11 12  2  0
 11 13  1  0
 13 14  1  0
 14 22  1  0
 14 15  1  1
 16 15  1  0
 16 17  2  0
 18 17  1  0
 19 18  2  0
 20 21  2  0
 20 19  1  0
 21 16  1  0
 22 24  2  0
 22 23  1  0
M  END
$$$$
