WQT.pdb
     RDKit          3D

 31 32  0  0  1  0  0  0  0  0999 V2000
    6.8791  -17.1568   24.1819 N   0  0  0  0  0  0  0  0  0  0  0  0
    7.9146  -16.1350   24.2377 C   0  0  1  0  0  0  0  0  0  0  0  0
    7.9620  -15.5420   25.6522 C   0  0  0  0  0  0  0  0  0  0  0  0
    6.7728  -14.7005   25.8220 C   0  0  0  0  0  0  0  0  0  0  0  0
    5.5018  -15.1331   26.1370 C   0  0  0  0  0  0  0  0  0  0  0  0
    4.7035  -14.0655   26.1981 N   0  0  0  0  0  0  0  0  0  0  0  0
    5.3824  -12.9263   25.9371 C   0  0  0  0  0  0  0  0  0  0  0  0
    5.0366  -11.5919   25.8756 C   0  0  0  0  0  0  0  0  0  0  0  0
    5.9814  -10.6328   25.5774 C   0  0  0  0  0  0  0  0  0  0  0  0
    7.2836  -11.0235   25.3398 C   0  0  0  0  0  0  0  0  0  0  0  0
    7.6332  -12.3562   25.4004 C   0  0  0  0  0  0  0  0  0  0  0  0
    6.6907  -13.3318   25.6998 C   0  0  0  0  0  0  0  0  0  0  0  0
    9.2441  -16.7521   24.0240 C   0  0  0  0  0  0  0  0  0  0  0  0
    9.3456  -17.9837   24.1806 O   0  0  0  0  0  0  0  0  0  0  0  0
   13.9294  -14.8555   20.2865 N   0  0  0  0  0  0  0  0  0  0  0  0
   12.9735  -15.9208   20.1605 C   0  0  0  0  0  0  0  0  0  0  0  0
   13.0883  -16.8021   19.2808 O   0  0  0  0  0  0  0  0  0  0  0  0
   11.8101  -15.9560   21.1257 C   0  0  0  0  0  0  0  0  0  0  0  0
   12.3789  -15.8287   22.4916 C   0  0  0  0  0  0  0  0  0  0  0  0
   11.6820  -16.5455   23.5943 C   0  0  2  0  0  0  0  0  0  0  0  0
   10.3340  -15.9566   23.6584 N   0  0  0  0  0  0  0  0  0  0  0  0
   12.3291  -16.5175   24.9128 C   0  0  0  0  0  0  0  0  0  0  0  0
   13.3771  -17.2121   25.1151 O   0  0  0  0  0  0  0  0  0  0  0  0
   10.9162  -14.1279   28.0223 C   0  0  0  0  0  0  0  0  0  0  0  0
   11.0408  -15.6092   28.2816 C   0  0  1  0  0  0  0  0  0  0  0  0
    9.8194  -16.2000   28.0110 O   0  0  0  0  0  0  0  0  0  0  0  0
   12.1312  -16.2302   27.4062 C   0  0  2  0  0  0  0  0  0  0  0  0
   11.8946  -15.7657   26.0285 N   0  0  0  0  0  0  0  0  0  0  0  0
   12.0710  -17.6876   27.5039 C   0  0  0  0  0  0  0  0  0  0  0  0
   12.4958  -18.2873   28.6765 O   0  0  0  0  0  0  0  0  0  0  0  0
   11.6512  -18.4245   26.5725 O   0  0  0  0  0  0  0  0  0  0  0  0
  2  1  1  1
  2  3  1  0
  3  4  1  0
  4  5  2  0
  5  6  1  0
  7  6  1  0
  8  7  2  0
  9  8  1  0
 10 11  1  0
 10  9  2  0
 11 12  2  0
 12  4  1  0
 12  7  1  0
 13 21  1  0
 13  2  1  0
 14 13  2  0
 16 17  2  0
 16 15  1  0
 18 16  1  0
 19 18  1  0
 20 21  1  0
 20 19  1  6
 22 20  1  0
 23 22  2  0
 25 24  1  6
 25 26  1  0
 25 27  1  0
 27 29  1  0
 27 28  1  6
 28 22  1  0
 29 30  1  0
 31 29  2  0
M  END
$$$$
