WQT.pdb
     RDKit          3D

 31 32  0  0  1  0  0  0  0  0999 V2000
    6.0906  -17.8992   24.1507 N   0  0  0  0  0  0  0  0  0  0  0  0
    6.5346  -16.5320   23.9201 C   0  0  1  0  0  0  0  0  0  0  0  0
    7.5469  -16.1409   25.0050 C   0  0  0  0  0  0  0  0  0  0  0  0
    6.9128  -15.1345   25.8630 C   0  0  0  0  0  0  0  0  0  0  0  0
    5.8346  -15.3337   26.6994 C   0  0  0  0  0  0  0  0  0  0  0  0
    5.5590  -14.1762   27.3038 N   0  0  0  0  0  0  0  0  0  0  0  0
    6.4074  -13.2002   26.9106 C   0  0  0  0  0  0  0  0  0  0  0  0
    6.5501  -11.8642   27.2247 C   0  0  0  0  0  0  0  0  0  0  0  0
    7.5432  -11.1059   26.6415 C   0  0  0  0  0  0  0  0  0  0  0  0
    8.3978  -11.7005   25.7354 C   0  0  0  0  0  0  0  0  0  0  0  0
    8.2585  -13.0355   25.4188 C   0  0  0  0  0  0  0  0  0  0  0  0
    7.2621  -13.8099   25.9995 C   0  0  0  0  0  0  0  0  0  0  0  0
    7.2770  -16.4520   22.6408 C   0  0  0  0  0  0  0  0  0  0  0  0
    7.8313  -17.4869   22.2242 O   0  0  0  0  0  0  0  0  0  0  0  0
    6.6968  -14.1478   17.7336 N   0  0  0  0  0  0  0  0  0  0  0  0
    8.1263  -14.0265   17.8122 C   0  0  0  0  0  0  0  0  0  0  0  0
    8.8711  -14.4714   16.9115 O   0  0  0  0  0  0  0  0  0  0  0  0
    8.7209  -13.3409   19.0218 C   0  0  0  0  0  0  0  0  0  0  0  0
    7.9192  -13.7676   20.1968 C   0  0  0  0  0  0  0  0  0  0  0  0
    8.1226  -15.1539   20.6990 C   0  0  2  0  0  0  0  0  0  0  0  0
    7.3386  -15.2426   21.9422 N   0  0  0  0  0  0  0  0  0  0  0  0
    9.5111  -15.5775   20.9240 C   0  0  0  0  0  0  0  0  0  0  0  0
   10.1702  -15.0855   21.8963 O   0  0  0  0  0  0  0  0  0  0  0  0
   13.1174  -18.9207   20.3529 C   0  0  0  0  0  0  0  0  0  0  0  0
   11.7367  -18.3956   20.0444 C   0  0  1  0  0  0  0  0  0  0  0  0
   10.8138  -19.2023   20.6858 O   0  0  0  0  0  0  0  0  0  0  0  0
   11.5833  -16.9466   20.5111 C   0  0  2  0  0  0  0  0  0  0  0  0
   10.2232  -16.5169   20.1434 N   0  0  0  0  0  0  0  0  0  0  0  0
   12.6040  -16.1141   19.8768 C   0  0  0  0  0  0  0  0  0  0  0  0
   13.7289  -15.7781   20.6095 O   0  0  0  0  0  0  0  0  0  0  0  0
   12.5095  -15.6871   18.6955 O   0  0  0  0  0  0  0  0  0  0  0  0
  2  1  1  1
  2  3  1  0
  3  4  1  0
  4  5  2  0
  5  6  1  0
  7  6  1  0
  8  7  2  0
  9  8  1  0
 10 11  1  0
 10  9  2  0
 11 12  2  0
 12  4  1  0
 12  7  1  0
 13 21  1  0
 13  2  1  0
 14 13  2  0
 16 17  2  0
 16 15  1  0
 18 16  1  0
 19 18  1  0
 20 21  1  0
 20 19  1  1
 22 20  1  0
 23 22  2  0
 25 24  1  1
 25 26  1  0
 25 27  1  0
 27 29  1  0
 27 28  1  6
 28 22  1  0
 29 30  1  0
 31 29  2  0
M  END
$$$$
