WQT.pdb
     RDKit          3D

 31 32  0  0  1  0  0  0  0  0999 V2000
    6.5215  -17.2920   24.2483 N   0  0  0  0  0  0  0  0  0  0  0  0
    7.6867  -16.4489   24.0225 C   0  0  1  0  0  0  0  0  0  0  0  0
    8.0864  -15.7771   25.3429 C   0  0  0  0  0  0  0  0  0  0  0  0
    7.0228  -14.8331   25.7017 C   0  0  0  0  0  0  0  0  0  0  0  0
    5.7321  -15.1539   26.0666 C   0  0  0  0  0  0  0  0  0  0  0  0
    5.0760  -14.0180   26.3120 N   0  0  0  0  0  0  0  0  0  0  0  0
    5.8702  -12.9399   26.1280 C   0  0  0  0  0  0  0  0  0  0  0  0
    5.6867  -11.5774   26.2459 C   0  0  0  0  0  0  0  0  0  0  0  0
    6.7197  -10.7026   25.9834 C   0  0  0  0  0  0  0  0  0  0  0  0
    7.9458  -11.2066   25.5994 C   0  0  0  0  0  0  0  0  0  0  0  0
    8.1332  -12.5677   25.4805 C   0  0  0  0  0  0  0  0  0  0  0  0
    7.1006  -13.4593   25.7421 C   0  0  0  0  0  0  0  0  0  0  0  0
    8.8474  -17.2851   23.6383 C   0  0  0  0  0  0  0  0  0  0  0  0
    8.9279  -18.4281   24.1270 O   0  0  0  0  0  0  0  0  0  0  0  0
   13.5068  -15.8433   19.5745 N   0  0  0  0  0  0  0  0  0  0  0  0
   12.3641  -15.0590   19.9534 C   0  0  0  0  0  0  0  0  0  0  0  0
   11.9683  -14.0998   19.2554 O   0  0  0  0  0  0  0  0  0  0  0  0
   11.6393  -15.4211   21.2302 C   0  0  0  0  0  0  0  0  0  0  0  0
   11.7055  -16.8990   21.3594 C   0  0  0  0  0  0  0  0  0  0  0  0
   11.0737  -17.5114   22.5599 C   0  0  2  0  0  0  0  0  0  0  0  0
    9.8076  -16.7852   22.7537 N   0  0  0  0  0  0  0  0  0  0  0  0
   11.8692  -17.5161   23.7949 C   0  0  0  0  0  0  0  0  0  0  0  0
   12.3086  -16.4174   24.2654 O   0  0  0  0  0  0  0  0  0  0  0  0
   11.2602  -17.4607   27.1566 C   0  0  0  0  0  0  0  0  0  0  0  0
   12.0869  -18.7079   26.9620 C   0  0  1  0  0  0  0  0  0  0  0  0
   11.2251  -19.7704   26.7560 O   0  0  0  0  0  0  0  0  0  0  0  0
   13.0332  -18.5589   25.7689 C   0  0  2  0  0  0  0  0  0  0  0  0
   12.2109  -18.6608   24.5511 N   0  0  0  0  0  0  0  0  0  0  0  0
   14.0573  -19.6009   25.8193 C   0  0  0  0  0  0  0  0  0  0  0  0
   14.9864  -19.5625   26.8442 O   0  0  0  0  0  0  0  0  0  0  0  0
   14.1357  -20.5323   24.9748 O   0  0  0  0  0  0  0  0  0  0  0  0
  2  1  1  1
  2  3  1  0
  3  4  1  0
  4  5  2  0
  5  6  1  0
  7  6  1  0
  8  7  2  0
  9  8  1  0
 10 11  1  0
 10  9  2  0
 11 12  2  0
 12  4  1  0
 12  7  1  0
 13 21  1  0
 13  2  1  0
 14 13  2  0
 16 17  2  0
 16 15  1  0
 18 16  1  0
 19 18  1  0
 20 21  1  0
 20 19  1  6
 22 20  1  0
 23 22  2  0
 25 24  1  6
 25 26  1  0
 25 27  1  0
 27 29  1  0
 27 28  1  6
 28 22  1  0
 29 30  1  0
 31 29  2  0
M  END
$$$$
