WQT.pdb
     RDKit          3D

 31 32  0  0  1  0  0  0  0  0999 V2000
    8.6698  -15.7688   20.9329 N   0  0  0  0  0  0  0  0  0  0  0  0
    8.4742  -15.4242   22.3338 C   0  0  1  0  0  0  0  0  0  0  0  0
    7.0736  -15.8722   22.7723 C   0  0  0  0  0  0  0  0  0  0  0  0
    6.7666  -15.1976   24.0378 C   0  0  0  0  0  0  0  0  0  0  0  0
    6.5037  -15.8059   25.2473 C   0  0  0  0  0  0  0  0  0  0  0  0
    6.2708  -14.8510   26.1500 N   0  0  0  0  0  0  0  0  0  0  0  0
    6.3651  -13.6195   25.6008 C   0  0  0  0  0  0  0  0  0  0  0  0
    6.2210  -12.3356   26.0854 C   0  0  0  0  0  0  0  0  0  0  0  0
    6.3850  -11.2471   25.2548 C   0  0  0  0  0  0  0  0  0  0  0  0
    6.6966  -11.4563   23.9267 C   0  0  0  0  0  0  0  0  0  0  0  0
    6.8415  -12.7380   23.4387 C   0  0  0  0  0  0  0  0  0  0  0  0
    6.6789  -13.8426   24.2651 C   0  0  0  0  0  0  0  0  0  0  0  0
    9.4168  -16.1934   23.1787 C   0  0  0  0  0  0  0  0  0  0  0  0
    8.9692  -17.1709   23.8079 O   0  0  0  0  0  0  0  0  0  0  0  0
   13.4496  -19.1498   23.2362 N   0  0  0  0  0  0  0  0  0  0  0  0
   13.2406  -18.5643   21.9408 C   0  0  0  0  0  0  0  0  0  0  0  0
   13.2491  -19.2578   20.9003 O   0  0  0  0  0  0  0  0  0  0  0  0
   13.0069  -17.0725   21.8592 C   0  0  0  0  0  0  0  0  0  0  0  0
   12.9974  -16.5606   23.2531 C   0  0  0  0  0  0  0  0  0  0  0  0
   11.7157  -16.6433   24.0054 C   0  0  2  0  0  0  0  0  0  0  0  0
   10.7606  -15.8148   23.2507 N   0  0  0  0  0  0  0  0  0  0  0  0
   11.7527  -16.2442   25.4187 C   0  0  0  0  0  0  0  0  0  0  0  0
   12.5576  -15.3318   25.7948 O   0  0  0  0  0  0  0  0  0  0  0  0
   10.3085  -14.2953   27.9471 C   0  0  0  0  0  0  0  0  0  0  0  0
   10.2107  -15.7048   28.4769 C   0  0  1  0  0  0  0  0  0  0  0  0
    8.9574  -16.1991   28.1623 O   0  0  0  0  0  0  0  0  0  0  0  0
   11.2957  -16.5963   27.8694 C   0  0  2  0  0  0  0  0  0  0  0  0
   10.9522  -16.7871   26.4498 N   0  0  0  0  0  0  0  0  0  0  0  0
   11.3487  -17.8677   28.5891 C   0  0  0  0  0  0  0  0  0  0  0  0
   11.7497  -17.8587   29.9136 O   0  0  0  0  0  0  0  0  0  0  0  0
   11.0474  -18.9715   28.0624 O   0  0  0  0  0  0  0  0  0  0  0  0
  2  1  1  6
  2  3  1  0
  3  4  1  0
  4  5  2  0
  5  6  1  0
  7  6  1  0
  8  7  2  0
  9  8  1  0
 10 11  1  0
 10  9  2  0
 11 12  2  0
 12  4  1  0
 12  7  1  0
 13 21  1  0
 13  2  1  0
 14 13  2  0
 16 17  2  0
 16 15  1  0
 18 16  1  0
 19 18  1  0
 20 21  1  0
 20 19  1  6
 22 20  1  0
 23 22  2  0
 25 24  1  6
 25 26  1  0
 25 27  1  0
 27 29  1  0
 27 28  1  6
 28 22  1  0
 29 30  1  0
 31 29  2  0
M  END
$$$$
