WQT.pdb
     RDKit          3D

 31 32  0  0  1  0  0  0  0  0999 V2000
    7.1727  -17.9271   22.3242 N   0  0  0  0  0  0  0  0  0  0  0  0
    7.9106  -16.8600   22.9847 C   0  0  1  0  0  0  0  0  0  0  0  0
    6.9959  -16.1726   24.0072 C   0  0  0  0  0  0  0  0  0  0  0  0
    7.1165  -14.7244   23.8093 C   0  0  0  0  0  0  0  0  0  0  0  0
    7.5079  -14.0860   22.6512 C   0  0  0  0  0  0  0  0  0  0  0  0
    7.4920  -12.7708   22.8767 N   0  0  0  0  0  0  0  0  0  0  0  0
    7.1054  -12.4919   24.1416 C   0  0  0  0  0  0  0  0  0  0  0  0
    6.9272  -11.3269   24.8592 C   0  0  0  0  0  0  0  0  0  0  0  0
    6.5109  -11.3661   26.1732 C   0  0  0  0  0  0  0  0  0  0  0  0
    6.2729  -12.5894   26.7663 C   0  0  0  0  0  0  0  0  0  0  0  0
    6.4498  -13.7560   26.0524 C   0  0  0  0  0  0  0  0  0  0  0  0
    6.8688  -13.7298   24.7283 C   0  0  0  0  0  0  0  0  0  0  0  0
    9.0255  -17.4319   23.7747 C   0  0  0  0  0  0  0  0  0  0  0  0
    8.7740  -18.3961   24.5222 O   0  0  0  0  0  0  0  0  0  0  0  0
   13.3195  -19.4882   22.2108 N   0  0  0  0  0  0  0  0  0  0  0  0
   14.2090  -19.1574   23.2896 C   0  0  0  0  0  0  0  0  0  0  0  0
   15.2407  -19.8270   23.5156 O   0  0  0  0  0  0  0  0  0  0  0  0
   13.8686  -17.9674   24.1584 C   0  0  0  0  0  0  0  0  0  0  0  0
   12.6144  -17.3839   23.6183 C   0  0  0  0  0  0  0  0  0  0  0  0
   11.4057  -17.4340   24.4855 C   0  0  2  0  0  0  0  0  0  0  0  0
   10.3095  -16.8896   23.6669 N   0  0  0  0  0  0  0  0  0  0  0  0
   11.4902  -16.7388   25.7768 C   0  0  0  0  0  0  0  0  0  0  0  0
   12.1785  -15.6718   25.8740 O   0  0  0  0  0  0  0  0  0  0  0  0
   10.2051  -14.4409   27.9401 C   0  0  0  0  0  0  0  0  0  0  0  0
   10.2565  -15.6810   28.7982 C   0  0  1  0  0  0  0  0  0  0  0  0
    9.0082  -16.2769   28.7726 O   0  0  0  0  0  0  0  0  0  0  0  0
   11.3168  -16.6587   28.2873 C   0  0  2  0  0  0  0  0  0  0  0  0
   10.8583  -17.1448   26.9746 N   0  0  0  0  0  0  0  0  0  0  0  0
   11.4793  -17.7529   29.2431 C   0  0  0  0  0  0  0  0  0  0  0  0
   12.0318  -17.4705   30.4800 O   0  0  0  0  0  0  0  0  0  0  0  0
   11.1411  -18.9408   28.9956 O   0  0  0  0  0  0  0  0  0  0  0  0
  2  1  1  1
  2  3  1  0
  3  4  1  0
  4  5  2  0
  5  6  1  0
  7  6  1  0
  8  7  2  0
  9  8  1  0
 10 11  1  0
 10  9  2  0
 11 12  2  0
 12  4  1  0
 12  7  1  0
 13 21  1  0
 13  2  1  0
 14 13  2  0
 16 17  2  0
 16 15  1  0
 18 16  1  0
 19 18  1  0
 20 21  1  0
 20 19  1  6
 22 20  1  0
 23 22  2  0
 25 24  1  6
 25 26  1  0
 25 27  1  0
 27 29  1  0
 27 28  1  6
 28 22  1  0
 29 30  1  0
 31 29  2  0
M  END
$$$$
