WQT.pdb
     RDKit          3D

 31 32  0  0  1  0  0  0  0  0999 V2000
    6.9328  -17.5369   23.8001 N   0  0  0  0  0  0  0  0  0  0  0  0
    7.9363  -16.4975   23.6207 C   0  0  1  0  0  0  0  0  0  0  0  0
    8.3800  -15.9823   24.9964 C   0  0  0  0  0  0  0  0  0  0  0  0
    7.2816  -15.1817   25.5472 C   0  0  0  0  0  0  0  0  0  0  0  0
    6.0476  -15.6499   25.9471 C   0  0  0  0  0  0  0  0  0  0  0  0
    5.3324  -14.6122   26.3858 N   0  0  0  0  0  0  0  0  0  0  0  0
    6.0321  -13.4590   26.2993 C   0  0  0  0  0  0  0  0  0  0  0  0
    5.7615  -12.1427   26.6123 C   0  0  0  0  0  0  0  0  0  0  0  0
    6.7073  -11.1609   26.4053 C   0  0  0  0  0  0  0  0  0  0  0  0
    7.9343  -11.5104   25.8788 C   0  0  0  0  0  0  0  0  0  0  0  0
    8.2086  -12.8250   25.5646 C   0  0  0  0  0  0  0  0  0  0  0  0
    7.2643  -13.8231   25.7685 C   0  0  0  0  0  0  0  0  0  0  0  0
    9.1537  -17.0730   23.0036 C   0  0  0  0  0  0  0  0  0  0  0  0
    9.4308  -18.2599   23.2611 O   0  0  0  0  0  0  0  0  0  0  0  0
   12.3387  -14.8713   17.9143 N   0  0  0  0  0  0  0  0  0  0  0  0
   13.2521  -14.9936   19.0166 C   0  0  0  0  0  0  0  0  0  0  0  0
   14.2161  -14.2095   19.1576 O   0  0  0  0  0  0  0  0  0  0  0  0
   13.0220  -16.1041   20.0168 C   0  0  0  0  0  0  0  0  0  0  0  0
   11.7152  -15.8337   20.6684 C   0  0  0  0  0  0  0  0  0  0  0  0
   11.2526  -16.7977   21.7038 C   0  0  2  0  0  0  0  0  0  0  0  0
    9.9492  -16.2891   22.1627 N   0  0  0  0  0  0  0  0  0  0  0  0
   12.1542  -17.0291   22.8403 C   0  0  0  0  0  0  0  0  0  0  0  0
   12.6542  -16.0354   23.4603 O   0  0  0  0  0  0  0  0  0  0  0  0
   11.9560  -18.9154   26.2895 C   0  0  0  0  0  0  0  0  0  0  0  0
   13.0250  -19.4817   25.3876 C   0  0  1  0  0  0  0  0  0  0  0  0
   12.4822  -20.5443   24.6876 O   0  0  0  0  0  0  0  0  0  0  0  0
   13.5419  -18.4198   24.4148 C   0  0  2  0  0  0  0  0  0  0  0  0
   12.5399  -18.2931   23.3426 N   0  0  0  0  0  0  0  0  0  0  0  0
   14.8460  -18.8237   23.8920 C   0  0  0  0  0  0  0  0  0  0  0  0
   15.9382  -18.7808   24.7408 O   0  0  0  0  0  0  0  0  0  0  0  0
   15.0244  -19.2088   22.7060 O   0  0  0  0  0  0  0  0  0  0  0  0
  2  1  1  1
  2  3  1  0
  3  4  1  0
  4  5  2  0
  5  6  1  0
  7  6  1  0
  8  7  2  0
  9  8  1  0
 10 11  1  0
 10  9  2  0
 11 12  2  0
 12  4  1  0
 12  7  1  0
 13 21  1  0
 13  2  1  0
 14 13  2  0
 16 17  2  0
 16 15  1  0
 18 16  1  0
 19 18  1  0
 20 21  1  0
 20 19  1  6
 22 20  1  0
 23 22  2  0
 25 24  1  1
 25 26  1  0
 25 27  1  0
 27 29  1  0
 27 28  1  6
 28 22  1  0
 29 30  1  0
 31 29  2  0
M  END
$$$$
