WQT.pdb
     RDKit          3D

 31 32  0  0  1  0  0  0  0  0999 V2000
    7.5768  -17.0752   21.4714 N   0  0  0  0  0  0  0  0  0  0  0  0
    8.1827  -16.2613   22.5154 C   0  0  1  0  0  0  0  0  0  0  0  0
    7.1074  -15.8711   23.5383 C   0  0  0  0  0  0  0  0  0  0  0  0
    7.1580  -14.4147   23.7035 C   0  0  0  0  0  0  0  0  0  0  0  0
    7.4605  -13.4898   22.7263 C   0  0  0  0  0  0  0  0  0  0  0  0
    7.4030  -12.2741   23.2736 N   0  0  0  0  0  0  0  0  0  0  0  0
    7.0736  -12.3378   24.5830 C   0  0  0  0  0  0  0  0  0  0  0  0
    6.8865  -11.3977   25.5756 C   0  0  0  0  0  0  0  0  0  0  0  0
    6.5430  -11.7828   26.8543 C   0  0  0  0  0  0  0  0  0  0  0  0
    6.3872  -13.1256   27.1325 C   0  0  0  0  0  0  0  0  0  0  0  0
    6.5732  -14.0682   26.1432 C   0  0  0  0  0  0  0  0  0  0  0  0
    6.9194  -13.6930   24.8513 C   0  0  0  0  0  0  0  0  0  0  0  0
    9.1723  -17.0643   23.2704 C   0  0  0  0  0  0  0  0  0  0  0  0
    8.7530  -18.0357   23.9278 O   0  0  0  0  0  0  0  0  0  0  0  0
   16.3724  -18.3843   23.3726 N   0  0  0  0  0  0  0  0  0  0  0  0
   15.0386  -18.1450   22.8949 C   0  0  0  0  0  0  0  0  0  0  0  0
   14.8131  -17.8653   21.6970 O   0  0  0  0  0  0  0  0  0  0  0  0
   13.8972  -18.2393   23.8822 C   0  0  0  0  0  0  0  0  0  0  0  0
   12.7426  -17.5291   23.2757 C   0  0  0  0  0  0  0  0  0  0  0  0
   11.4906  -17.4464   24.0765 C   0  0  2  0  0  0  0  0  0  0  0  0
   10.5274  -16.7229   23.2299 N   0  0  0  0  0  0  0  0  0  0  0  0
   11.5949  -16.8223   25.4022 C   0  0  0  0  0  0  0  0  0  0  0  0
   12.2713  -15.7525   25.5435 O   0  0  0  0  0  0  0  0  0  0  0  0
   10.0641  -14.7376   27.7065 C   0  0  0  0  0  0  0  0  0  0  0  0
   10.2756  -16.0066   28.4950 C   0  0  1  0  0  0  0  0  0  0  0  0
    9.1030  -16.7397   28.4577 O   0  0  0  0  0  0  0  0  0  0  0  0
   11.4285  -16.8282   27.9144 C   0  0  2  0  0  0  0  0  0  0  0  0
   10.9951  -17.3026   26.5890 N   0  0  0  0  0  0  0  0  0  0  0  0
   11.7421  -17.9393   28.8112 C   0  0  0  0  0  0  0  0  0  0  0  0
   12.2323  -17.6498   30.0725 O   0  0  0  0  0  0  0  0  0  0  0  0
   11.5882  -19.1480   28.4917 O   0  0  0  0  0  0  0  0  0  0  0  0
  2  1  1  6
  2  3  1  0
  3  4  1  0
  4  5  2  0
  5  6  1  0
  7  6  1  0
  8  7  2  0
  9  8  1  0
 10 11  1  0
 10  9  2  0
 11 12  2  0
 12  4  1  0
 12  7  1  0
 13 21  1  0
 13  2  1  0
 14 13  2  0
 16 17  2  0
 16 15  1  0
 18 16  1  0
 19 18  1  0
 20 21  1  0
 20 19  1  6
 22 20  1  0
 23 22  2  0
 25 24  1  6
 25 26  1  0
 25 27  1  0
 27 29  1  0
 27 28  1  6
 28 22  1  0
 29 30  1  0
 31 29  2  0
M  END
$$$$
