WQT.pdb
     RDKit          3D

 31 32  0  0  1  0  0  0  0  0999 V2000
    5.8616  -17.0735   25.3993 N   0  0  0  0  0  0  0  0  0  0  0  0
    6.8634  -16.1112   24.9635 C   0  0  1  0  0  0  0  0  0  0  0  0
    8.1256  -16.2743   25.8207 C   0  0  0  0  0  0  0  0  0  0  0  0
    8.2821  -15.0540   26.6191 C   0  0  0  0  0  0  0  0  0  0  0  0
    9.1708  -14.8622   27.6560 C   0  0  0  0  0  0  0  0  0  0  0  0
    9.0015  -13.6239   28.1238 N   0  0  0  0  0  0  0  0  0  0  0  0
    8.0335  -12.9684   27.4454 C   0  0  0  0  0  0  0  0  0  0  0  0
    7.4874  -11.7039   27.5280 C   0  0  0  0  0  0  0  0  0  0  0  0
    6.4813  -11.3140   26.6694 C   0  0  0  0  0  0  0  0  0  0  0  0
    6.0238  -12.2065   25.7213 C   0  0  0  0  0  0  0  0  0  0  0  0
    6.5670  -13.4712   25.6356 C   0  0  0  0  0  0  0  0  0  0  0  0
    7.5808  -13.8759   26.4946 C   0  0  0  0  0  0  0  0  0  0  0  0
    7.2861  -16.4162   23.5770 C   0  0  0  0  0  0  0  0  0  0  0  0
    7.1904  -17.5950   23.1858 O   0  0  0  0  0  0  0  0  0  0  0  0
    6.7702  -13.1439   18.9574 N   0  0  0  0  0  0  0  0  0  0  0  0
    7.9159  -13.7994   18.3899 C   0  0  0  0  0  0  0  0  0  0  0  0
    8.0796  -13.8759   17.1525 O   0  0  0  0  0  0  0  0  0  0  0  0
    8.9340  -14.4032   19.3310 C   0  0  0  0  0  0  0  0  0  0  0  0
    8.3203  -14.4102   20.6833 C   0  0  0  0  0  0  0  0  0  0  0  0
    8.2475  -15.7146   21.3966 C   0  0  2  0  0  0  0  0  0  0  0  0
    7.7729  -15.3966   22.7537 N   0  0  0  0  0  0  0  0  0  0  0  0
    9.4816  -16.5098   21.4462 C   0  0  0  0  0  0  0  0  0  0  0  0
    9.5968  -17.5408   20.7076 O   0  0  0  0  0  0  0  0  0  0  0  0
   12.6904  -16.0370   20.1818 C   0  0  0  0  0  0  0  0  0  0  0  0
   12.9387  -16.3139   21.6442 C   0  0  1  0  0  0  0  0  0  0  0  0
   13.0721  -15.1017   22.2974 O   0  0  0  0  0  0  0  0  0  0  0  0
   11.7877  -17.1165   22.2542 C   0  0  2  0  0  0  0  0  0  0  0  0
   10.6052  -16.2382   22.2602 N   0  0  0  0  0  0  0  0  0  0  0  0
   12.1486  -17.5475   23.6037 C   0  0  0  0  0  0  0  0  0  0  0  0
   13.1521  -18.4894   23.7482 O   0  0  0  0  0  0  0  0  0  0  0  0
   11.5903  -17.1035   24.6420 O   0  0  0  0  0  0  0  0  0  0  0  0
  2  1  1  1
  2  3  1  0
  3  4  1  0
  4  5  2  0
  5  6  1  0
  7  6  1  0
  8  7  2  0
  9  8  1  0
 10 11  1  0
 10  9  2  0
 11 12  2  0
 12  4  1  0
 12  7  1  0
 13 21  1  0
 13  2  1  0
 14 13  2  0
 16 17  2  0
 16 15  1  0
 18 16  1  0
 19 18  1  0
 20 21  1  0
 20 19  1  6
 22 20  1  0
 23 22  2  0
 25 24  1  6
 25 26  1  0
 25 27  1  0
 27 29  1  0
 27 28  1  1
 28 22  1  0
 29 30  1  0
 31 29  2  0
M  END
$$$$
