WQT.pdb
     RDKit          3D

 31 32  0  0  1  0  0  0  0  0999 V2000
    6.7782  -17.4295   24.9085 N   0  0  0  0  0  0  0  0  0  0  0  0
    7.7218  -16.5602   24.2203 C   0  0  1  0  0  0  0  0  0  0  0  0
    8.1715  -15.4472   25.1762 C   0  0  0  0  0  0  0  0  0  0  0  0
    6.9886  -14.6514   25.5204 C   0  0  0  0  0  0  0  0  0  0  0  0
    5.7257  -15.1359   25.7893 C   0  0  0  0  0  0  0  0  0  0  0  0
    4.9309  -14.0974   26.0553 N   0  0  0  0  0  0  0  0  0  0  0  0
    5.6046  -12.9280   25.9774 C   0  0  0  0  0  0  0  0  0  0  0  0
    5.2593  -11.6042   26.1568 C   0  0  0  0  0  0  0  0  0  0  0  0
    6.1974  -10.6051   26.0041 C   0  0  0  0  0  0  0  0  0  0  0  0
    7.4922  -10.9448   25.6681 C   0  0  0  0  0  0  0  0  0  0  0  0
    7.8411  -12.2668   25.4880 C   0  0  0  0  0  0  0  0  0  0  0  0
    6.9055  -13.2824   25.6389 C   0  0  0  0  0  0  0  0  0  0  0  0
    8.9521  -17.3148   23.8871 C   0  0  0  0  0  0  0  0  0  0  0  0
    9.0618  -18.4736   24.3309 O   0  0  0  0  0  0  0  0  0  0  0  0
   13.6376  -15.5204   20.2434 N   0  0  0  0  0  0  0  0  0  0  0  0
   12.3107  -14.9703   20.2747 C   0  0  0  0  0  0  0  0  0  0  0  0
   11.9514  -14.0824   19.4705 O   0  0  0  0  0  0  0  0  0  0  0  0
   11.3436  -15.4930   21.3130 C   0  0  0  0  0  0  0  0  0  0  0  0
   12.0678  -16.5274   22.0946 C   0  0  0  0  0  0  0  0  0  0  0  0
   11.3423  -17.1634   23.2281 C   0  0  2  0  0  0  0  0  0  0  0  0
    9.9431  -16.7238   23.0979 N   0  0  0  0  0  0  0  0  0  0  0  0
   11.8544  -16.8883   24.5772 C   0  0  0  0  0  0  0  0  0  0  0  0
   13.0922  -17.0535   24.8271 O   0  0  0  0  0  0  0  0  0  0  0  0
   11.3639  -14.9968   29.1439 C   0  0  0  0  0  0  0  0  0  0  0  0
   10.8969  -15.1663   27.7191 C   0  0  1  0  0  0  0  0  0  0  0  0
   11.0756  -13.9635   27.0593 O   0  0  0  0  0  0  0  0  0  0  0  0
   11.6795  -16.2753   27.0129 C   0  0  2  0  0  0  0  0  0  0  0  0
   11.0858  -16.4370   25.6746 N   0  0  0  0  0  0  0  0  0  0  0  0
   11.5990  -17.5088   27.7934 C   0  0  0  0  0  0  0  0  0  0  0  0
   12.2018  -17.5410   29.0386 O   0  0  0  0  0  0  0  0  0  0  0  0
   11.0077  -18.5444   27.3876 O   0  0  0  0  0  0  0  0  0  0  0  0
  2  1  1  1
  2  3  1  0
  3  4  1  0
  4  5  2  0
  5  6  1  0
  7  6  1  0
  8  7  2  0
  9  8  1  0
 10 11  1  0
 10  9  2  0
 11 12  2  0
 12  4  1  0
 12  7  1  0
 13 21  1  0
 13  2  1  0
 14 13  2  0
 16 17  2  0
 16 15  1  0
 18 16  1  0
 19 18  1  0
 20 21  1  0
 20 19  1  6
 22 20  1  0
 23 22  2  0
 25 24  1  1
 25 26  1  0
 25 27  1  0
 27 29  1  0
 27 28  1  6
 28 22  1  0
 29 30  1  0
 31 29  2  0
M  END
$$$$
