YLH.pdb
     RDKit          3D

 31 32  0  0  1  0  0  0  0  0999 V2000
    6.5583  -13.1344   17.3703 O   0  0  0  0  0  0  0  0  0  0  0  0
    7.5312  -13.5898   18.2823 C   0  0  0  0  0  0  0  0  0  0  0  0
    7.8646  -14.9133   18.3780 C   0  0  0  0  0  0  0  0  0  0  0  0
    8.8286  -15.3416   19.2859 C   0  0  0  0  0  0  0  0  0  0  0  0
    9.4770  -14.4541   20.1148 C   0  0  0  0  0  0  0  0  0  0  0  0
   10.5000  -14.8871   21.0821 C   0  0  0  0  0  0  0  0  0  0  0  0
    9.9903  -15.9267   22.0531 C   0  0  2  0  0  0  0  0  0  0  0  0
    8.7926  -16.5673   21.6147 N   0  0  0  0  0  0  0  0  0  0  0  0
    9.7373  -15.2367   23.3407 C   0  0  0  0  0  0  0  0  0  0  0  0
   10.6849  -14.6071   23.8765 O   0  0  0  0  0  0  0  0  0  0  0  0
    9.1320  -13.1261   20.0078 C   0  0  0  0  0  0  0  0  0  0  0  0
    8.1702  -12.6907   19.1036 C   0  0  0  0  0  0  0  0  0  0  0  0
    5.3965  -12.8197   26.8502 C   0  0  0  0  0  0  0  0  0  0  0  0
    6.8614  -13.2943   26.7376 C   0  0  2  0  0  0  0  0  0  0  0  0
    7.7700  -12.1655   27.0641 C   0  0  0  0  0  0  0  0  0  0  0  0
    7.0257  -13.9638   25.4181 C   0  0  0  0  0  0  0  0  0  0  0  0
    8.3129  -14.6657   25.2670 C   0  0  2  0  0  0  0  0  0  0  0  0
    8.4625  -15.2690   23.9782 N   0  0  0  0  0  0  0  0  0  0  0  0
    8.5082  -15.7385   26.2881 C   0  0  0  0  0  0  0  0  0  0  0  0
    8.4846  -15.4523   27.4970 O   0  0  0  0  0  0  0  0  0  0  0  0
    8.7270  -17.1169   25.9341 N   0  0  0  0  0  0  0  0  0  0  0  0
    8.9522  -18.1281   26.9324 C   0  0  1  0  0  0  0  0  0  0  0  0
    8.4281  -19.4762   26.6285 C   0  0  0  0  0  0  0  0  0  0  0  0
    7.1778  -19.5541   25.8765 C   0  0  0  0  0  0  0  0  0  0  0  0
    6.2271  -18.6497   25.5104 C   0  0  0  0  0  0  0  0  0  0  0  0
    5.2783  -19.2666   24.7968 N   0  0  0  0  0  0  0  0  0  0  0  0
    5.6062  -20.5455   24.7008 C   0  0  0  0  0  0  0  0  0  0  0  0
    6.7496  -20.7356   25.3467 N   0  0  0  0  0  0  0  0  0  0  0  0
   10.4003  -18.1642   27.3346 C   0  0  0  0  0  0  0  0  0  0  0  0
   10.8154  -19.0063   28.3432 O   0  0  0  0  0  0  0  0  0  0  0  0
   11.2358  -17.4395   26.7660 O   0  0  0  0  0  0  0  0  0  0  0  0
  2 12  2  0
  2  1  1  0
  3  2  1  0
  4  5  1  0
  4  3  2  0
  5 11  2  0
  6  7  1  0
  6  5  1  0
  7  9  1  0
  7  8  1  6
  9 10  2  0
 11 12  1  0
 14 13  1  6
 14 16  1  0
 14 15  1  0
 17 16  1  6
 18 17  1  0
 18  9  1  0
 19 21  1  0
 19 17  1  0
 20 19  2  0
 22 21  1  0
 22 23  1  6
 23 24  1  0
 24 28  1  0
 25 24  2  0
 25 26  1  0
 26 27  1  0
 28 27  2  0
 29 22  1  0
 30 29  1  0
 31 29  2  0
M  END
$$$$
