YLH.pdb
     RDKit          3D

 31 32  0  0  1  0  0  0  0  0999 V2000
    7.1701  -14.0202   15.8471 O   0  0  0  0  0  0  0  0  0  0  0  0
    7.6824  -14.1049   17.1570 C   0  0  0  0  0  0  0  0  0  0  0  0
    8.6149  -15.0433   17.5061 C   0  0  0  0  0  0  0  0  0  0  0  0
    9.1076  -15.1094   18.8061 C   0  0  0  0  0  0  0  0  0  0  0  0
    8.6767  -14.2380   19.7810 C   0  0  0  0  0  0  0  0  0  0  0  0
    9.1856  -14.2913   21.1622 C   0  0  0  0  0  0  0  0  0  0  0  0
    8.6895  -15.4965   21.9269 C   0  0  2  0  0  0  0  0  0  0  0  0
    7.3208  -15.8051   21.6651 N   0  0  0  0  0  0  0  0  0  0  0  0
    8.8608  -15.2007   23.3695 C   0  0  0  0  0  0  0  0  0  0  0  0
   10.0053  -14.8815   23.7814 O   0  0  0  0  0  0  0  0  0  0  0  0
    7.7388  -13.2993   19.4160 C   0  0  0  0  0  0  0  0  0  0  0  0
    7.2420  -13.2272   18.1198 C   0  0  0  0  0  0  0  0  0  0  0  0
    8.0088  -12.1024   26.4541 C   0  0  0  0  0  0  0  0  0  0  0  0
    6.7649  -12.8382   25.9108 C   0  0  2  0  0  0  0  0  0  0  0  0
    5.5415  -12.0988   26.3143 C   0  0  0  0  0  0  0  0  0  0  0  0
    6.8747  -14.2712   26.2992 C   0  0  0  0  0  0  0  0  0  0  0  0
    8.0094  -14.9697   25.6690 C   0  0  2  0  0  0  0  0  0  0  0  0
    7.7738  -15.2685   24.2897 N   0  0  0  0  0  0  0  0  0  0  0  0
    8.3480  -16.2538   26.3530 C   0  0  0  0  0  0  0  0  0  0  0  0
    8.7636  -16.2392   27.5239 O   0  0  0  0  0  0  0  0  0  0  0  0
    8.2141  -17.5351   25.7098 N   0  0  0  0  0  0  0  0  0  0  0  0
    9.0096  -18.6670   26.1047 C   0  0  1  0  0  0  0  0  0  0  0  0
   10.0694  -19.0830   25.1623 C   0  0  0  0  0  0  0  0  0  0  0  0
   10.8928  -20.2280   25.5444 C   0  0  0  0  0  0  0  0  0  0  0  0
   10.8656  -21.1216   26.5722 C   0  0  0  0  0  0  0  0  0  0  0  0
   11.8653  -21.9985   26.4252 N   0  0  0  0  0  0  0  0  0  0  0  0
   12.5281  -21.6813   25.3242 C   0  0  0  0  0  0  0  0  0  0  0  0
   11.9542  -20.6155   24.7808 N   0  0  0  0  0  0  0  0  0  0  0  0
    9.5371  -18.4844   27.5006 C   0  0  0  0  0  0  0  0  0  0  0  0
   10.6531  -17.7065   27.7201 O   0  0  0  0  0  0  0  0  0  0  0  0
    8.9766  -19.0293   28.4679 O   0  0  0  0  0  0  0  0  0  0  0  0
  2 12  2  0
  2  1  1  0
  3  2  1  0
  4  5  1  0
  4  3  2  0
  5 11  2  0
  6  7  1  0
  6  5  1  0
  7  9  1  0
  7  8  1  1
  9 10  2  0
 11 12  1  0
 14 13  1  1
 14 16  1  0
 14 15  1  0
 17 16  1  1
 18 17  1  0
 18  9  1  0
 19 21  1  0
 19 17  1  0
 20 19  2  0
 22 21  1  0
 22 23  1  6
 23 24  1  0
 24 28  1  0
 25 24  2  0
 25 26  1  0
 26 27  1  0
 28 27  2  0
 29 22  1  0
 30 29  1  0
 31 29  2  0
M  END
$$$$
