YLH.pdb
     RDKit          3D

 31 32  0  0  1  0  0  0  0  0999 V2000
    7.5509  -13.1423   16.4420 O   0  0  0  0  0  0  0  0  0  0  0  0
    7.6723  -13.6290   17.7588 C   0  0  0  0  0  0  0  0  0  0  0  0
    8.0320  -12.8140   18.7973 C   0  0  0  0  0  0  0  0  0  0  0  0
    8.1461  -13.3156   20.0905 C   0  0  0  0  0  0  0  0  0  0  0  0
    7.9025  -14.6417   20.3690 C   0  0  0  0  0  0  0  0  0  0  0  0
    8.0177  -15.1920   21.7304 C   0  0  0  0  0  0  0  0  0  0  0  0
    9.4291  -15.1436   22.2682 C   0  0  2  0  0  0  0  0  0  0  0  0
   10.2740  -16.1571   21.7242 N   0  0  0  0  0  0  0  0  0  0  0  0
    9.3433  -15.3103   23.7388 C   0  0  0  0  0  0  0  0  0  0  0  0
   10.3848  -15.6354   24.3643 O   0  0  0  0  0  0  0  0  0  0  0  0
    7.5416  -15.4500   19.3152 C   0  0  0  0  0  0  0  0  0  0  0  0
    7.4256  -14.9563   18.0209 C   0  0  0  0  0  0  0  0  0  0  0  0
    7.9417  -12.0471   26.3710 C   0  0  0  0  0  0  0  0  0  0  0  0
    6.7502  -12.9073   25.8974 C   0  0  2  0  0  0  0  0  0  0  0  0
    5.4798  -12.2209   26.2454 C   0  0  0  0  0  0  0  0  0  0  0  0
    6.9564  -14.2926   26.4023 C   0  0  0  0  0  0  0  0  0  0  0  0
    8.1692  -14.9410   25.8721 C   0  0  2  0  0  0  0  0  0  0  0  0
    8.1248  -15.1134   24.4524 N   0  0  0  0  0  0  0  0  0  0  0  0
    8.4169  -16.2839   26.4779 C   0  0  0  0  0  0  0  0  0  0  0  0
    8.3437  -16.4288   27.7098 O   0  0  0  0  0  0  0  0  0  0  0  0
    8.7433  -17.4434   25.6891 N   0  0  0  0  0  0  0  0  0  0  0  0
    9.0149  -18.7194   26.2957 C   0  0  1  0  0  0  0  0  0  0  0  0
    8.6581  -19.9121   25.4991 C   0  0  0  0  0  0  0  0  0  0  0  0
    7.4205  -19.8537   24.7246 C   0  0  0  0  0  0  0  0  0  0  0  0
    6.5982  -18.8477   24.3154 C   0  0  0  0  0  0  0  0  0  0  0  0
    5.5907  -19.3605   23.5998 N   0  0  0  0  0  0  0  0  0  0  0  0
    5.7555  -20.6728   23.5450 C   0  0  0  0  0  0  0  0  0  0  0  0
    6.8548  -20.9867   24.2185 N   0  0  0  0  0  0  0  0  0  0  0  0
   10.4314  -18.7791   26.7956 C   0  0  0  0  0  0  0  0  0  0  0  0
   11.3089  -17.7570   26.5056 O   0  0  0  0  0  0  0  0  0  0  0  0
   10.8262  -19.7450   27.4723 O   0  0  0  0  0  0  0  0  0  0  0  0
  2 12  2  0
  2  1  1  0
  3  2  1  0
  4  5  1  0
  4  3  2  0
  5 11  2  0
  6  7  1  0
  6  5  1  0
  7  9  1  0
  7  8  1  6
  9 10  2  0
 11 12  1  0
 14 13  1  1
 14 16  1  0
 14 15  1  0
 17 16  1  1
 18 17  1  0
 18  9  1  0
 19 21  1  0
 19 17  1  0
 20 19  2  0
 22 21  1  0
 22 23  1  6
 23 24  1  0
 24 28  1  0
 25 24  2  0
 25 26  1  0
 26 27  1  0
 28 27  2  0
 29 22  1  0
 30 29  1  0
 31 29  2  0
M  END
$$$$
