YLH.pdb
     RDKit          3D

 31 32  0  0  1  0  0  0  0  0999 V2000
   15.1447  -17.9957   12.1543 O   0  0  0  0  0  0  0  0  0  0  0  0
   14.6103  -17.6292   13.4055 C   0  0  0  0  0  0  0  0  0  0  0  0
   13.2657  -17.4576   13.5917 C   0  0  0  0  0  0  0  0  0  0  0  0
   12.7590  -17.0954   14.8363 C   0  0  0  0  0  0  0  0  0  0  0  0
   13.5878  -16.8981   15.9178 C   0  0  0  0  0  0  0  0  0  0  0  0
   13.0715  -16.5146   17.2429 C   0  0  0  0  0  0  0  0  0  0  0  0
   12.6434  -15.0670   17.3122 C   0  0  2  0  0  0  0  0  0  0  0  0
   13.7265  -14.1513   17.1533 N   0  0  0  0  0  0  0  0  0  0  0  0
   12.0132  -14.8597   18.6381 C   0  0  0  0  0  0  0  0  0  0  0  0
   12.7557  -14.5862   19.6155 O   0  0  0  0  0  0  0  0  0  0  0  0
   14.9378  -17.0741   15.7163 C   0  0  0  0  0  0  0  0  0  0  0  0
   15.4513  -17.4358   14.4763 C   0  0  0  0  0  0  0  0  0  0  0  0
    9.1733  -11.9772   19.8002 C   0  0  0  0  0  0  0  0  0  0  0  0
    8.3758  -13.1735   19.2373 C   0  0  2  0  0  0  0  0  0  0  0  0
    6.9619  -12.7679   19.0308 C   0  0  0  0  0  0  0  0  0  0  0  0
    8.6444  -14.3522   20.1062 C   0  0  0  0  0  0  0  0  0  0  0  0
   10.0623  -14.7533   20.1375 C   0  0  2  0  0  0  0  0  0  0  0  0
   10.6041  -14.9616   18.8297 N   0  0  0  0  0  0  0  0  0  0  0  0
   10.2905  -16.0049   20.9205 C   0  0  0  0  0  0  0  0  0  0  0  0
   10.0315  -17.1082   20.4110 O   0  0  0  0  0  0  0  0  0  0  0  0
   10.8064  -15.9967   22.2647 N   0  0  0  0  0  0  0  0  0  0  0  0
   11.5142  -17.1242   22.8106 C   0  0  1  0  0  0  0  0  0  0  0  0
   12.6171  -17.6651   21.9887 C   0  0  0  0  0  0  0  0  0  0  0  0
   12.2685  -18.6459   20.9634 C   0  0  0  0  0  0  0  0  0  0  0  0
   11.1507  -19.3699   20.6769 C   0  0  0  0  0  0  0  0  0  0  0  0
   11.3730  -20.1198   19.5915 N   0  0  0  0  0  0  0  0  0  0  0  0
   12.6099  -19.8874   19.1810 C   0  0  0  0  0  0  0  0  0  0  0  0
   13.1638  -19.0005   19.9977 N   0  0  0  0  0  0  0  0  0  0  0  0
   11.9483  -16.8457   24.2227 C   0  0  0  0  0  0  0  0  0  0  0  0
   11.6886  -15.6195   24.7952 O   0  0  0  0  0  0  0  0  0  0  0  0
   12.5430  -17.7126   24.8872 O   0  0  0  0  0  0  0  0  0  0  0  0
  2 12  2  0
  2  1  1  0
  3  2  1  0
  4  5  1  0
  4  3  2  0
  5 11  2  0
  6  7  1  0
  6  5  1  0
  7  9  1  0
  7  8  1  1
  9 10  2  0
 11 12  1  0
 14 13  1  1
 14 16  1  0
 14 15  1  0
 17 16  1  6
 18 17  1  0
 18  9  1  0
 19 21  1  0
 19 17  1  0
 20 19  2  0
 22 21  1  0
 22 23  1  6
 23 24  1  0
 24 28  1  0
 25 24  2  0
 25 26  1  0
 26 27  1  0
 28 27  2  0
 29 22  1  0
 30 29  1  0
 31 29  2  0
M  END
$$$$
