YLH.pdb
     RDKit          3D

 31 32  0  0  1  0  0  0  0  0999 V2000
    7.5884  -14.1425   15.7479 O   0  0  0  0  0  0  0  0  0  0  0  0
    7.9858  -14.1676   17.0996 C   0  0  0  0  0  0  0  0  0  0  0  0
    8.8357  -15.1250   17.5825 C   0  0  0  0  0  0  0  0  0  0  0  0
    9.2154  -15.1312   18.9214 C   0  0  0  0  0  0  0  0  0  0  0  0
    8.7521  -14.1800   19.8023 C   0  0  0  0  0  0  0  0  0  0  0  0
    9.1419  -14.1691   21.2227 C   0  0  0  0  0  0  0  0  0  0  0  0
    8.5784  -15.3379   21.9974 C   0  0  2  0  0  0  0  0  0  0  0  0
    7.1904  -15.5602   21.7507 N   0  0  0  0  0  0  0  0  0  0  0  0
    8.7831  -15.0485   23.4369 C   0  0  0  0  0  0  0  0  0  0  0  0
    9.9615  -14.9379   23.8617 O   0  0  0  0  0  0  0  0  0  0  0  0
    7.8980  -13.2232   19.3031 C   0  0  0  0  0  0  0  0  0  0  0  0
    7.5143  -13.2104   17.9672 C   0  0  0  0  0  0  0  0  0  0  0  0
    8.0137  -11.7993   26.2826 C   0  0  0  0  0  0  0  0  0  0  0  0
    6.7642  -12.6246   25.9064 C   0  0  2  0  0  0  0  0  0  0  0  0
    5.5435  -11.8714   26.2920 C   0  0  0  0  0  0  0  0  0  0  0  0
    6.9401  -13.9974   26.4550 C   0  0  0  0  0  0  0  0  0  0  0  0
    7.9555  -14.7936   25.7425 C   0  0  2  0  0  0  0  0  0  0  0  0
    7.6906  -14.8946   24.3401 N   0  0  0  0  0  0  0  0  0  0  0  0
    8.0768  -16.1837   26.2758 C   0  0  0  0  0  0  0  0  0  0  0  0
    7.1978  -17.0232   26.0179 O   0  0  0  0  0  0  0  0  0  0  0  0
    9.1849  -16.6087   27.0911 N   0  0  0  0  0  0  0  0  0  0  0  0
    9.7227  -17.9402   27.0027 C   0  0  1  0  0  0  0  0  0  0  0  0
   10.1492  -18.3861   25.6596 C   0  0  0  0  0  0  0  0  0  0  0  0
   10.6744  -19.7444   25.5411 C   0  0  0  0  0  0  0  0  0  0  0  0
   10.8514  -20.7778   26.4109 C   0  0  0  0  0  0  0  0  0  0  0  0
   11.3651  -21.8259   25.7571 N   0  0  0  0  0  0  0  0  0  0  0  0
   11.5184  -21.4806   24.4884 C   0  0  0  0  0  0  0  0  0  0  0  0
   11.1064  -20.2279   24.3413 N   0  0  0  0  0  0  0  0  0  0  0  0
   10.7976  -18.1483   28.0329 C   0  0  0  0  0  0  0  0  0  0  0  0
   11.2190  -19.4233   28.3424 O   0  0  0  0  0  0  0  0  0  0  0  0
   11.3163  -17.1792   28.6146 O   0  0  0  0  0  0  0  0  0  0  0  0
  2 12  2  0
  2  1  1  0
  3  2  1  0
  4  5  1  0
  4  3  2  0
  5 11  2  0
  6  7  1  0
  6  5  1  0
  7  9  1  0
  7  8  1  1
  9 10  2  0
 11 12  1  0
 14 13  1  1
 14 16  1  0
 14 15  1  0
 17 16  1  1
 18 17  1  0
 18  9  1  0
 19 21  1  0
 19 17  1  0
 20 19  2  0
 22 21  1  0
 22 23  1  6
 23 24  1  0
 24 28  1  0
 25 24  2  0
 25 26  1  0
 26 27  1  0
 28 27  2  0
 29 22  1  0
 30 29  1  0
 31 29  2  0
M  END
$$$$
