YLH.pdb
     RDKit          3D

 31 32  0  0  1  0  0  0  0  0999 V2000
    7.2935  -13.5964   15.8606 O   0  0  0  0  0  0  0  0  0  0  0  0
    7.3594  -13.9385   17.2260 C   0  0  0  0  0  0  0  0  0  0  0  0
    7.7287  -13.0289   18.1791 C   0  0  0  0  0  0  0  0  0  0  0  0
    7.7872  -13.3881   19.5224 C   0  0  0  0  0  0  0  0  0  0  0  0
    7.4774  -14.6638   19.9374 C   0  0  0  0  0  0  0  0  0  0  0  0
    7.5331  -15.0638   21.3539 C   0  0  0  0  0  0  0  0  0  0  0  0
    8.9109  -14.9115   21.9556 C   0  0  2  0  0  0  0  0  0  0  0  0
    9.8762  -15.7924   21.3820 N   0  0  0  0  0  0  0  0  0  0  0  0
    8.7886  -15.1915   23.4063 C   0  0  0  0  0  0  0  0  0  0  0  0
    9.6605  -15.9168   23.9496 O   0  0  0  0  0  0  0  0  0  0  0  0
    7.1076  -15.5683   18.9683 C   0  0  0  0  0  0  0  0  0  0  0  0
    7.0469  -15.2170   17.6247 C   0  0  0  0  0  0  0  0  0  0  0  0
    8.1938  -11.9490   26.6191 C   0  0  0  0  0  0  0  0  0  0  0  0
    6.8826  -12.4666   25.9891 C   0  0  2  0  0  0  0  0  0  0  0  0
    5.7591  -11.5864   26.4002 C   0  0  0  0  0  0  0  0  0  0  0  0
    6.7749  -13.9213   26.2866 C   0  0  0  0  0  0  0  0  0  0  0  0
    7.8018  -14.7397   25.6171 C   0  0  2  0  0  0  0  0  0  0  0  0
    7.7205  -14.6655   24.1906 N   0  0  0  0  0  0  0  0  0  0  0  0
    7.7255  -16.1831   25.9947 C   0  0  0  0  0  0  0  0  0  0  0  0
    6.7982  -16.8870   25.5604 O   0  0  0  0  0  0  0  0  0  0  0  0
    8.6932  -16.8129   26.8550 N   0  0  0  0  0  0  0  0  0  0  0  0
    9.0654  -18.1931   26.6925 C   0  0  1  0  0  0  0  0  0  0  0  0
    9.4532  -18.6103   25.3287 C   0  0  0  0  0  0  0  0  0  0  0  0
    9.8404  -20.0066   25.1409 C   0  0  0  0  0  0  0  0  0  0  0  0
    9.9296  -21.0903   25.9617 C   0  0  0  0  0  0  0  0  0  0  0  0
   10.3267  -22.1532   25.2527 N   0  0  0  0  0  0  0  0  0  0  0  0
   10.4916  -21.7680   23.9970 C   0  0  0  0  0  0  0  0  0  0  0  0
   10.2022  -20.4758   23.9126 N   0  0  0  0  0  0  0  0  0  0  0  0
   10.0920  -18.5904   27.7164 C   0  0  0  0  0  0  0  0  0  0  0  0
   10.6501  -17.6368   28.5398 O   0  0  0  0  0  0  0  0  0  0  0  0
   10.4480  -19.7764   27.8321 O   0  0  0  0  0  0  0  0  0  0  0  0
  2 12  2  0
  2  1  1  0
  3  2  1  0
  4  5  1  0
  4  3  2  0
  5 11  2  0
  6  7  1  0
  6  5  1  0
  7  9  1  0
  7  8  1  6
  9 10  2  0
 11 12  1  0
 14 13  1  1
 14 16  1  0
 14 15  1  0
 17 16  1  1
 18 17  1  0
 18  9  1  0
 19 21  1  0
 19 17  1  0
 20 19  2  0
 22 21  1  0
 22 23  1  6
 23 24  1  0
 24 28  1  0
 25 24  2  0
 25 26  1  0
 26 27  1  0
 28 27  2  0
 29 22  1  0
 30 29  1  0
 31 29  2  0
M  END
$$$$
