YLH.pdb
     RDKit          3D

 31 32  0  0  1  0  0  0  0  0999 V2000
    7.1933  -13.9512   15.9102 O   0  0  0  0  0  0  0  0  0  0  0  0
    7.6612  -13.9402   17.2393 C   0  0  0  0  0  0  0  0  0  0  0  0
    8.5401  -14.8818   17.7009 C   0  0  0  0  0  0  0  0  0  0  0  0
    8.9896  -14.8523   19.0177 C   0  0  0  0  0  0  0  0  0  0  0  0
    8.5684  -13.8806   19.8973 C   0  0  0  0  0  0  0  0  0  0  0  0
    9.0321  -13.8319   21.2945 C   0  0  0  0  0  0  0  0  0  0  0  0
    8.8974  -15.1579   22.0067 C   0  0  2  0  0  0  0  0  0  0  0  0
    7.6095  -15.7527   21.8502 N   0  0  0  0  0  0  0  0  0  0  0  0
    9.1544  -14.9102   23.4456 C   0  0  0  0  0  0  0  0  0  0  0  0
   10.3125  -14.5656   23.7942 O   0  0  0  0  0  0  0  0  0  0  0  0
    7.6844  -12.9400   19.4197 C   0  0  0  0  0  0  0  0  0  0  0  0
    7.2310  -12.9629   18.1059 C   0  0  0  0  0  0  0  0  0  0  0  0
    8.2376  -11.9264   26.3441 C   0  0  0  0  0  0  0  0  0  0  0  0
    7.0231  -12.8427   26.0805 C   0  0  2  0  0  0  0  0  0  0  0  0
    5.7972  -12.2013   26.6208 C   0  0  0  0  0  0  0  0  0  0  0  0
    7.3671  -14.2086   26.5627 C   0  0  0  0  0  0  0  0  0  0  0  0
    8.4625  -14.8439   25.8083 C   0  0  2  0  0  0  0  0  0  0  0  0
    8.1339  -15.0513   24.4313 N   0  0  0  0  0  0  0  0  0  0  0  0
    8.8628  -16.1662   26.3765 C   0  0  0  0  0  0  0  0  0  0  0  0
    9.0698  -16.2772   27.5966 O   0  0  0  0  0  0  0  0  0  0  0  0
    9.0241  -17.3438   25.5637 N   0  0  0  0  0  0  0  0  0  0  0  0
    9.5112  -18.5813   26.1126 C   0  0  1  0  0  0  0  0  0  0  0  0
    9.4764  -19.7545   25.2144 C   0  0  0  0  0  0  0  0  0  0  0  0
    9.9800  -21.0190   25.7456 C   0  0  0  0  0  0  0  0  0  0  0  0
   10.4748  -21.4178   26.9506 C   0  0  0  0  0  0  0  0  0  0  0  0
   10.7772  -22.7200   26.8979 N   0  0  0  0  0  0  0  0  0  0  0  0
   10.4844  -23.1584   25.6836 C   0  0  0  0  0  0  0  0  0  0  0  0
   10.0023  -22.1447   24.9760 N   0  0  0  0  0  0  0  0  0  0  0  0
   10.8657  -18.3892   26.7358 C   0  0  0  0  0  0  0  0  0  0  0  0
   11.8912  -17.8355   26.0005 O   0  0  0  0  0  0  0  0  0  0  0  0
   11.0762  -18.7252   27.9146 O   0  0  0  0  0  0  0  0  0  0  0  0
  2 12  2  0
  2  1  1  0
  3  2  1  0
  4  5  1  0
  4  3  2  0
  5 11  2  0
  6  7  1  0
  6  5  1  0
  7  9  1  0
  7  8  1  1
  9 10  2  0
 11 12  1  0
 14 13  1  1
 14 16  1  0
 14 15  1  0
 17 16  1  1
 18 17  1  0
 18  9  1  0
 19 21  1  0
 19 17  1  0
 20 19  2  0
 22 21  1  0
 22 23  1  6
 23 24  1  0
 24 28  1  0
 25 24  2  0
 25 26  1  0
 26 27  1  0
 28 27  2  0
 29 22  1  0
 30 29  1  0
 31 29  2  0
M  END
$$$$
