YLH.pdb
     RDKit          3D

 31 32  0  0  1  0  0  0  0  0999 V2000
    8.9049  -18.6464   15.9312 O   0  0  0  0  0  0  0  0  0  0  0  0
    9.1687  -18.1800   17.2344 C   0  0  0  0  0  0  0  0  0  0  0  0
    8.4665  -18.6340   18.3174 C   0  0  0  0  0  0  0  0  0  0  0  0
    8.7435  -18.1599   19.5963 C   0  0  0  0  0  0  0  0  0  0  0  0
    9.7281  -17.2229   19.8157 C   0  0  0  0  0  0  0  0  0  0  0  0
   10.0366  -16.7085   21.1609 C   0  0  0  0  0  0  0  0  0  0  0  0
    8.8856  -15.9498   21.7800 C   0  0  2  0  0  0  0  0  0  0  0  0
    8.5448  -14.7624   21.0654 N   0  0  0  0  0  0  0  0  0  0  0  0
    9.2881  -15.5950   23.1621 C   0  0  0  0  0  0  0  0  0  0  0  0
   10.4865  -15.2767   23.3715 O   0  0  0  0  0  0  0  0  0  0  0  0
   10.4264  -16.7751   18.7175 C   0  0  0  0  0  0  0  0  0  0  0  0
   10.1555  -17.2439   17.4373 C   0  0  0  0  0  0  0  0  0  0  0  0
    8.3469  -12.2534   25.3340 C   0  0  0  0  0  0  0  0  0  0  0  0
    7.3509  -13.4207   25.5055 C   0  0  2  0  0  0  0  0  0  0  0  0
    6.0402  -12.8861   25.9553 C   0  0  0  0  0  0  0  0  0  0  0  0
    8.0057  -14.4616   26.3447 C   0  0  0  0  0  0  0  0  0  0  0  0
    8.8444  -15.3993   25.5767 C   0  0  2  0  0  0  0  0  0  0  0  0
    8.3616  -15.6057   24.2458 N   0  0  0  0  0  0  0  0  0  0  0  0
    8.9529  -16.7404   26.2259 C   0  0  0  0  0  0  0  0  0  0  0  0
    8.2130  -17.0252   27.1827 O   0  0  0  0  0  0  0  0  0  0  0  0
    9.8918  -17.7408   25.7892 N   0  0  0  0  0  0  0  0  0  0  0  0
   11.0755  -18.0497   26.5466 C   0  0  1  0  0  0  0  0  0  0  0  0
   12.3073  -17.3314   26.1579 C   0  0  0  0  0  0  0  0  0  0  0  0
   12.8019  -17.5385   24.7988 C   0  0  0  0  0  0  0  0  0  0  0  0
   12.3885  -18.2848   23.7367 C   0  0  0  0  0  0  0  0  0  0  0  0
   13.2159  -18.0853   22.7044 N   0  0  0  0  0  0  0  0  0  0  0  0
   14.1475  -17.2266   23.0879 C   0  0  0  0  0  0  0  0  0  0  0  0
   13.9122  -16.8868   24.3488 N   0  0  0  0  0  0  0  0  0  0  0  0
   10.8044  -17.9457   28.0216 C   0  0  0  0  0  0  0  0  0  0  0  0
    9.5644  -17.5437   28.4685 O   0  0  0  0  0  0  0  0  0  0  0  0
   11.6897  -18.2192   28.8511 O   0  0  0  0  0  0  0  0  0  0  0  0
  2 12  2  0
  2  1  1  0
  3  2  1  0
  4  5  1  0
  4  3  2  0
  5 11  2  0
  6  7  1  0
  6  5  1  0
  7  9  1  0
  7  8  1  6
  9 10  2  0
 11 12  1  0
 14 13  1  1
 14 16  1  0
 14 15  1  0
 17 16  1  1
 18 17  1  0
 18  9  1  0
 19 21  1  0
 19 17  1  0
 20 19  2  0
 22 21  1  0
 22 23  1  6
 23 24  1  0
 24 28  1  0
 25 24  2  0
 25 26  1  0
 26 27  1  0
 28 27  2  0
 29 22  1  0
 30 29  1  0
 31 29  2  0
M  END
$$$$
