YLH.pdb
     RDKit          3D

 31 32  0  0  1  0  0  0  0  0999 V2000
   12.8274  -19.6823   11.1711 O   0  0  0  0  0  0  0  0  0  0  0  0
   12.7170  -19.0591   12.4302 C   0  0  0  0  0  0  0  0  0  0  0  0
   13.7971  -18.4921   13.0499 C   0  0  0  0  0  0  0  0  0  0  0  0
   13.6657  -17.8815   14.2937 C   0  0  0  0  0  0  0  0  0  0  0  0
   12.4517  -17.8269   14.9407 C   0  0  0  0  0  0  0  0  0  0  0  0
   12.2917  -17.1855   16.2570 C   0  0  0  0  0  0  0  0  0  0  0  0
   11.2089  -16.1315   16.2713 C   0  0  2  0  0  0  0  0  0  0  0  0
   11.4618  -15.0523   15.3723 N   0  0  0  0  0  0  0  0  0  0  0  0
   11.1241  -15.6097   17.6564 C   0  0  0  0  0  0  0  0  0  0  0  0
   12.1933  -15.3166   18.2501 O   0  0  0  0  0  0  0  0  0  0  0  0
   11.3740  -18.4011   14.3059 C   0  0  0  0  0  0  0  0  0  0  0  0
   11.4974  -19.0127   13.0637 C   0  0  0  0  0  0  0  0  0  0  0  0
    8.9567  -12.1733   19.0512 C   0  0  0  0  0  0  0  0  0  0  0  0
    8.0406  -13.4162   19.0620 C   0  0  2  0  0  0  0  0  0  0  0  0
    6.6267  -12.9832   19.2018 C   0  0  0  0  0  0  0  0  0  0  0  0
    8.5802  -14.3739   20.0660 C   0  0  0  0  0  0  0  0  0  0  0  0
    9.8694  -14.9739   19.6781 C   0  0  2  0  0  0  0  0  0  0  0  0
    9.8763  -15.4343   18.3234 N   0  0  0  0  0  0  0  0  0  0  0  0
   10.2518  -16.1290   20.5447 C   0  0  0  0  0  0  0  0  0  0  0  0
   10.6481  -17.1862   20.0257 O   0  0  0  0  0  0  0  0  0  0  0  0
   10.1829  -16.0777   21.9820 N   0  0  0  0  0  0  0  0  0  0  0  0
   11.3501  -16.2624   22.8028 C   0  0  1  0  0  0  0  0  0  0  0  0
   12.4865  -15.3552   22.5382 C   0  0  0  0  0  0  0  0  0  0  0  0
   13.5054  -15.8160   21.5978 C   0  0  0  0  0  0  0  0  0  0  0  0
   14.0674  -17.0248   21.3171 C   0  0  0  0  0  0  0  0  0  0  0  0
   14.9583  -16.8820   20.3292 N   0  0  0  0  0  0  0  0  0  0  0  0
   14.9744  -15.6066   19.9751 C   0  0  0  0  0  0  0  0  0  0  0  0
   14.1035  -14.9498   20.7307 N   0  0  0  0  0  0  0  0  0  0  0  0
   10.9768  -16.2878   24.2588 C   0  0  0  0  0  0  0  0  0  0  0  0
   11.1149  -17.4499   24.9863 O   0  0  0  0  0  0  0  0  0  0  0  0
   10.5417  -15.2673   24.8210 O   0  0  0  0  0  0  0  0  0  0  0  0
  2 12  2  0
  2  1  1  0
  3  2  1  0
  4  5  1  0
  4  3  2  0
  5 11  2  0
  6  7  1  0
  6  5  1  0
  7  9  1  0
  7  8  1  6
  9 10  2  0
 11 12  1  0
 14 13  1  1
 14 16  1  0
 14 15  1  0
 17 16  1  1
 18 17  1  0
 18  9  1  0
 19 21  1  0
 19 17  1  0
 20 19  2  0
 22 21  1  0
 22 23  1  1
 23 24  1  0
 24 28  1  0
 25 24  2  0
 25 26  1  0
 26 27  1  0
 28 27  2  0
 29 22  1  0
 30 29  1  0
 31 29  2  0
M  END
$$$$
