YLH.pdb
     RDKit          3D

 31 32  0  0  1  0  0  0  0  0999 V2000
    7.4310  -22.9450   14.2008 O   0  0  0  0  0  0  0  0  0  0  0  0
    8.0166  -22.0526   15.1208 C   0  0  0  0  0  0  0  0  0  0  0  0
    9.3710  -21.9959   15.3064 C   0  0  0  0  0  0  0  0  0  0  0  0
    9.9285  -21.1068   16.2206 C   0  0  0  0  0  0  0  0  0  0  0  0
    9.1417  -20.2579   16.9660 C   0  0  0  0  0  0  0  0  0  0  0  0
    9.7120  -19.3099   17.9384 C   0  0  0  0  0  0  0  0  0  0  0  0
    9.6515  -17.8752   17.4678 C   0  0  2  0  0  0  0  0  0  0  0  0
   10.5612  -17.5924   16.4050 N   0  0  0  0  0  0  0  0  0  0  0  0
    9.9738  -17.0180   18.6337 C   0  0  0  0  0  0  0  0  0  0  0  0
   11.1732  -16.9400   19.0036 O   0  0  0  0  0  0  0  0  0  0  0  0
    7.7812  -20.3256   16.7692 C   0  0  0  0  0  0  0  0  0  0  0  0
    7.2171  -21.2109   15.8581 C   0  0  0  0  0  0  0  0  0  0  0  0
    8.9919  -12.7390   19.0369 C   0  0  0  0  0  0  0  0  0  0  0  0
    7.8179  -13.6102   19.5336 C   0  0  2  0  0  0  0  0  0  0  0  0
    6.6179  -12.7558   19.7232 C   0  0  0  0  0  0  0  0  0  0  0  0
    8.2987  -14.4068   20.6958 C   0  0  0  0  0  0  0  0  0  0  0  0
    9.3654  -15.3654   20.3554 C   0  0  2  0  0  0  0  0  0  0  0  0
    8.9702  -16.2892   19.3368 N   0  0  0  0  0  0  0  0  0  0  0  0
    9.8192  -16.1652   21.5326 C   0  0  0  0  0  0  0  0  0  0  0  0
    9.1054  -17.0848   21.9670 O   0  0  0  0  0  0  0  0  0  0  0  0
   11.0691  -15.9186   22.2036 N   0  0  0  0  0  0  0  0  0  0  0  0
   11.4469  -16.6407   23.3894 C   0  0  1  0  0  0  0  0  0  0  0  0
   12.7529  -17.3312   23.3471 C   0  0  0  0  0  0  0  0  0  0  0  0
   12.9602  -18.3057   22.2784 C   0  0  0  0  0  0  0  0  0  0  0  0
   12.1328  -19.0176   21.4631 C   0  0  0  0  0  0  0  0  0  0  0  0
   12.8654  -19.7669   20.6314 N   0  0  0  0  0  0  0  0  0  0  0  0
   14.1426  -19.5460   20.9005 C   0  0  0  0  0  0  0  0  0  0  0  0
   14.2171  -18.6668   21.8916 N   0  0  0  0  0  0  0  0  0  0  0  0
   11.3089  -15.7706   24.6076 C   0  0  0  0  0  0  0  0  0  0  0  0
   11.6096  -16.2758   25.8538 O   0  0  0  0  0  0  0  0  0  0  0  0
   10.9244  -14.5922   24.5064 O   0  0  0  0  0  0  0  0  0  0  0  0
  2 12  2  0
  2  1  1  0
  3  2  1  0
  4  5  1  0
  4  3  2  0
  5 11  2  0
  6  7  1  0
  6  5  1  0
  7  9  1  0
  7  8  1  6
  9 10  2  0
 11 12  1  0
 14 13  1  1
 14 16  1  0
 14 15  1  0
 17 16  1  1
 18 17  1  0
 18  9  1  0
 19 21  1  0
 19 17  1  0
 20 19  2  0
 22 21  1  0
 22 23  1  6
 23 24  1  0
 24 28  1  0
 25 24  2  0
 25 26  1  0
 26 27  1  0
 28 27  2  0
 29 22  1  0
 30 29  1  0
 31 29  2  0
M  END
$$$$
