YLH.pdb
     RDKit          3D

 31 32  0  0  1  0  0  0  0  0999 V2000
    7.0670  -21.3884   17.5399 O   0  0  0  0  0  0  0  0  0  0  0  0
    7.5155  -20.5471   18.5775 C   0  0  0  0  0  0  0  0  0  0  0  0
    8.7009  -19.8690   18.4930 C   0  0  0  0  0  0  0  0  0  0  0  0
    9.1250  -19.0431   19.5298 C   0  0  0  0  0  0  0  0  0  0  0  0
    8.3714  -18.8801   20.6704 C   0  0  0  0  0  0  0  0  0  0  0  0
    8.8025  -18.0109   21.7786 C   0  0  0  0  0  0  0  0  0  0  0  0
    8.6130  -16.5412   21.4828 C   0  0  2  0  0  0  0  0  0  0  0  0
    9.4593  -16.0636   20.4375 N   0  0  0  0  0  0  0  0  0  0  0  0
    8.9084  -15.8012   22.7331 C   0  0  0  0  0  0  0  0  0  0  0  0
   10.1099  -15.5550   23.0111 O   0  0  0  0  0  0  0  0  0  0  0  0
    7.1816  -19.5681   20.7420 C   0  0  0  0  0  0  0  0  0  0  0  0
    6.7513  -20.3947   19.7106 C   0  0  0  0  0  0  0  0  0  0  0  0
    6.1129  -12.4972   27.1104 C   0  0  0  0  0  0  0  0  0  0  0  0
    7.4331  -13.0603   26.5414 C   0  0  2  0  0  0  0  0  0  0  0  0
    8.4422  -11.9725   26.4731 C   0  0  0  0  0  0  0  0  0  0  0  0
    7.1140  -13.7965   25.2874 C   0  0  0  0  0  0  0  0  0  0  0  0
    8.2293  -14.6180   24.7836 C   0  0  2  0  0  0  0  0  0  0  0  0
    7.8770  -15.3675   23.6168 N   0  0  0  0  0  0  0  0  0  0  0  0
    8.7373  -15.5870   25.8007 C   0  0  0  0  0  0  0  0  0  0  0  0
    7.9936  -16.4903   26.2189 O   0  0  0  0  0  0  0  0  0  0  0  0
   10.0740  -15.5254   26.3323 N   0  0  0  0  0  0  0  0  0  0  0  0
   10.5421  -16.4667   27.3145 C   0  0  1  0  0  0  0  0  0  0  0  0
   11.7780  -17.2040   26.9779 C   0  0  0  0  0  0  0  0  0  0  0  0
   11.7402  -18.0721   25.8033 C   0  0  0  0  0  0  0  0  0  0  0  0
   10.7550  -18.7457   25.1464 C   0  0  0  0  0  0  0  0  0  0  0  0
   11.2795  -19.3875   24.0962 N   0  0  0  0  0  0  0  0  0  0  0  0
   12.5788  -19.1357   24.0711 C   0  0  0  0  0  0  0  0  0  0  0  0
   12.8731  -18.3436   25.0942 N   0  0  0  0  0  0  0  0  0  0  0  0
   10.6217  -15.8235   28.6710 C   0  0  0  0  0  0  0  0  0  0  0  0
   10.9219  -16.5853   29.7792 O   0  0  0  0  0  0  0  0  0  0  0  0
   10.4190  -14.6042   28.8088 O   0  0  0  0  0  0  0  0  0  0  0  0
  2 12  2  0
  2  1  1  0
  3  2  1  0
  4  5  1  0
  4  3  2  0
  5 11  2  0
  6  7  1  0
  6  5  1  0
  7  9  1  0
  7  8  1  6
  9 10  2  0
 11 12  1  0
 14 13  1  6
 14 16  1  0
 14 15  1  0
 17 16  1  1
 18 17  1  0
 18  9  1  0
 19 21  1  0
 19 17  1  0
 20 19  2  0
 22 21  1  0
 22 23  1  6
 23 24  1  0
 24 28  1  0
 25 24  2  0
 25 26  1  0
 26 27  1  0
 28 27  2  0
 29 22  1  0
 30 29  1  0
 31 29  2  0
M  END
$$$$
