YLH.pdb
     RDKit          3D

 31 32  0  0  1  0  0  0  0  0999 V2000
    7.0994  -13.8734   15.5789 O   0  0  0  0  0  0  0  0  0  0  0  0
    7.2234  -14.1595   16.9531 C   0  0  0  0  0  0  0  0  0  0  0  0
    7.4226  -13.1720   17.8789 C   0  0  0  0  0  0  0  0  0  0  0  0
    7.5424  -13.4769   19.2316 C   0  0  0  0  0  0  0  0  0  0  0  0
    7.4652  -14.7751   19.6833 C   0  0  0  0  0  0  0  0  0  0  0  0
    7.5894  -15.1186   21.1103 C   0  0  0  0  0  0  0  0  0  0  0  0
    8.9302  -14.7372   21.6936 C   0  0  2  0  0  0  0  0  0  0  0  0
   10.0271  -15.3971   21.0625 N   0  0  0  0  0  0  0  0  0  0  0  0
    8.9002  -15.0963   23.1317 C   0  0  0  0  0  0  0  0  0  0  0  0
    9.8445  -15.7860   23.5944 O   0  0  0  0  0  0  0  0  0  0  0  0
    7.2646  -15.7582   18.7413 C   0  0  0  0  0  0  0  0  0  0  0  0
    7.1440  -15.4615   17.3886 C   0  0  0  0  0  0  0  0  0  0  0  0
    7.9441  -11.9912   26.5883 C   0  0  0  0  0  0  0  0  0  0  0  0
    6.7288  -12.7021   25.9547 C   0  0  2  0  0  0  0  0  0  0  0  0
    5.4781  -12.0712   26.4485 C   0  0  0  0  0  0  0  0  0  0  0  0
    6.8988  -14.1672   26.1570 C   0  0  0  0  0  0  0  0  0  0  0  0
    8.0322  -14.7402   25.4088 C   0  0  2  0  0  0  0  0  0  0  0  0
    7.8406  -14.6843   23.9921 N   0  0  0  0  0  0  0  0  0  0  0  0
    8.2988  -16.1655   25.7680 C   0  0  0  0  0  0  0  0  0  0  0  0
    7.4219  -17.0250   25.5774 O   0  0  0  0  0  0  0  0  0  0  0  0
    9.5475  -16.6026   26.3362 N   0  0  0  0  0  0  0  0  0  0  0  0
    9.7788  -17.9786   26.6873 C   0  0  1  0  0  0  0  0  0  0  0  0
   10.7672  -18.7069   25.8645 C   0  0  0  0  0  0  0  0  0  0  0  0
   11.1100  -20.0659   26.2775 C   0  0  0  0  0  0  0  0  0  0  0  0
   11.1453  -20.7192   27.4724 C   0  0  0  0  0  0  0  0  0  0  0  0
   11.5200  -21.9882   27.2740 N   0  0  0  0  0  0  0  0  0  0  0  0
   11.7235  -22.1559   25.9768 C   0  0  0  0  0  0  0  0  0  0  0  0
   11.4804  -21.0057   25.3614 N   0  0  0  0  0  0  0  0  0  0  0  0
   10.0630  -18.1109   28.1576 C   0  0  0  0  0  0  0  0  0  0  0  0
   10.1345  -19.3592   28.7368 O   0  0  0  0  0  0  0  0  0  0  0  0
   10.2358  -17.1025   28.8646 O   0  0  0  0  0  0  0  0  0  0  0  0
  2 12  2  0
  2  1  1  0
  3  2  1  0
  4  5  1  0
  4  3  2  0
  5 11  2  0
  6  7  1  0
  6  5  1  0
  7  9  1  0
  7  8  1  6
  9 10  2  0
 11 12  1  0
 14 13  1  1
 14 16  1  0
 14 15  1  0
 17 16  1  1
 18 17  1  0
 18  9  1  0
 19 21  1  0
 19 17  1  0
 20 19  2  0
 22 21  1  0
 22 23  1  6
 23 24  1  0
 24 28  1  0
 25 24  2  0
 25 26  1  0
 26 27  1  0
 28 27  2  0
 29 22  1  0
 30 29  1  0
 31 29  2  0
M  END
$$$$
