YLH.pdb
     RDKit          3D

 31 32  0  0  1  0  0  0  0  0999 V2000
    5.8241  -19.5433   17.2313 O   0  0  0  0  0  0  0  0  0  0  0  0
    6.3927  -18.9663   18.3843 C   0  0  0  0  0  0  0  0  0  0  0  0
    6.8235  -17.6678   18.4018 C   0  0  0  0  0  0  0  0  0  0  0  0
    7.3822  -17.1177   19.5517 C   0  0  0  0  0  0  0  0  0  0  0  0
    7.5204  -17.8562   20.7054 C   0  0  0  0  0  0  0  0  0  0  0  0
    8.1090  -17.2928   21.9325 C   0  0  0  0  0  0  0  0  0  0  0  0
    8.4443  -15.8248   21.8050 C   0  0  2  0  0  0  0  0  0  0  0  0
    9.4455  -15.5591   20.8232 N   0  0  0  0  0  0  0  0  0  0  0  0
    8.9216  -15.3679   23.1321 C   0  0  0  0  0  0  0  0  0  0  0  0
   10.1598  -15.3645   23.3522 O   0  0  0  0  0  0  0  0  0  0  0  0
    7.0830  -19.1607   20.6736 C   0  0  0  0  0  0  0  0  0  0  0  0
    6.5239  -19.7171   19.5290 C   0  0  0  0  0  0  0  0  0  0  0  0
    8.2959  -11.6772   25.3307 C   0  0  0  0  0  0  0  0  0  0  0  0
    7.1026  -12.6306   25.5566 C   0  0  2  0  0  0  0  0  0  0  0  0
    5.9829  -11.8777   26.1775 C   0  0  0  0  0  0  0  0  0  0  0  0
    7.6092  -13.8384   26.2643 C   0  0  0  0  0  0  0  0  0  0  0  0
    8.5358  -14.6521   25.4569 C   0  0  2  0  0  0  0  0  0  0  0  0
    8.0230  -14.9376   24.1520 N   0  0  0  0  0  0  0  0  0  0  0  0
    8.8688  -15.9577   26.1019 C   0  0  0  0  0  0  0  0  0  0  0  0
    8.0017  -16.8437   26.1868 O   0  0  0  0  0  0  0  0  0  0  0  0
   10.1719  -16.2472   26.6417 N   0  0  0  0  0  0  0  0  0  0  0  0
   10.4375  -17.4601   27.3686 C   0  0  1  0  0  0  0  0  0  0  0  0
   11.6552  -18.2025   26.9805 C   0  0  0  0  0  0  0  0  0  0  0  0
   11.7806  -18.5959   25.5790 C   0  0  0  0  0  0  0  0  0  0  0  0
   10.9573  -18.5395   24.4952 C   0  0  0  0  0  0  0  0  0  0  0  0
   11.5954  -19.0298   23.4263 N   0  0  0  0  0  0  0  0  0  0  0  0
   12.8086  -19.3968   23.8079 C   0  0  0  0  0  0  0  0  0  0  0  0
   12.9366  -19.1417   25.1038 N   0  0  0  0  0  0  0  0  0  0  0  0
   10.3754  -17.2154   28.8506 C   0  0  0  0  0  0  0  0  0  0  0  0
   10.5101  -18.2678   29.7298 O   0  0  0  0  0  0  0  0  0  0  0  0
   10.2029  -16.0681   29.2984 O   0  0  0  0  0  0  0  0  0  0  0  0
  2 12  2  0
  2  1  1  0
  3  2  1  0
  4  5  1  0
  4  3  2  0
  5 11  2  0
  6  7  1  0
  6  5  1  0
  7  9  1  0
  7  8  1  6
  9 10  2  0
 11 12  1  0
 14 13  1  1
 14 16  1  0
 14 15  1  0
 17 16  1  1
 18 17  1  0
 18  9  1  0
 19 21  1  0
 19 17  1  0
 20 19  2  0
 22 21  1  0
 22 23  1  1
 23 24  1  0
 24 28  1  0
 25 24  2  0
 25 26  1  0
 26 27  1  0
 28 27  2  0
 29 22  1  0
 30 29  1  0
 31 29  2  0
M  END
$$$$
