YLH.pdb
     RDKit          3D

 31 32  0  0  1  0  0  0  0  0999 V2000
   12.2482  -22.5185   14.6432 O   0  0  0  0  0  0  0  0  0  0  0  0
   12.1407  -21.5000   15.6110 C   0  0  0  0  0  0  0  0  0  0  0  0
   13.1943  -21.1546   16.4127 C   0  0  0  0  0  0  0  0  0  0  0  0
   13.0663  -20.1453   17.3624 C   0  0  0  0  0  0  0  0  0  0  0  0
   11.8822  -19.4628   17.5279 C   0  0  0  0  0  0  0  0  0  0  0  0
   11.7263  -18.3918   18.5270 C   0  0  0  0  0  0  0  0  0  0  0  0
   11.3974  -17.0526   17.9089 C   0  0  2  0  0  0  0  0  0  0  0  0
   12.4239  -16.5631   17.0466 N   0  0  0  0  0  0  0  0  0  0  0  0
   11.1907  -16.0955   19.0221 C   0  0  0  0  0  0  0  0  0  0  0  0
   12.1962  -15.5125   19.5023 O   0  0  0  0  0  0  0  0  0  0  0  0
   10.8308  -19.8205   16.7150 C   0  0  0  0  0  0  0  0  0  0  0  0
   10.9510  -20.8274   15.7642 C   0  0  0  0  0  0  0  0  0  0  0  0
    8.9902  -12.4492   19.0851 C   0  0  0  0  0  0  0  0  0  0  0  0
    8.0061  -13.6047   19.3685 C   0  0  2  0  0  0  0  0  0  0  0  0
    6.6129  -13.1013   19.2598 C   0  0  0  0  0  0  0  0  0  0  0  0
    8.4167  -14.2533   20.6441 C   0  0  0  0  0  0  0  0  0  0  0  0
    9.7627  -14.8520   20.5969 C   0  0  2  0  0  0  0  0  0  0  0  0
    9.8966  -15.8232   19.5548 N   0  0  0  0  0  0  0  0  0  0  0  0
   10.1434  -15.5170   21.8793 C   0  0  0  0  0  0  0  0  0  0  0  0
   10.0284  -14.9012   22.9524 O   0  0  0  0  0  0  0  0  0  0  0  0
   10.6477  -16.8645   21.9354 N   0  0  0  0  0  0  0  0  0  0  0  0
   10.9293  -17.5157   23.1870 C   0  0  1  0  0  0  0  0  0  0  0  0
   11.0296  -18.9899   23.1499 C   0  0  0  0  0  0  0  0  0  0  0  0
    9.8660  -19.7276   22.6635 C   0  0  0  0  0  0  0  0  0  0  0  0
    8.6009  -19.3795   22.2973 C   0  0  0  0  0  0  0  0  0  0  0  0
    7.9361  -20.4716   21.9031 N   0  0  0  0  0  0  0  0  0  0  0  0
    8.7528  -21.5078   22.0105 C   0  0  0  0  0  0  0  0  0  0  0  0
    9.9212  -21.0761   22.4678 N   0  0  0  0  0  0  0  0  0  0  0  0
   12.1191  -16.8869   23.8570 C   0  0  0  0  0  0  0  0  0  0  0  0
   12.5141  -17.3154   25.1057 O   0  0  0  0  0  0  0  0  0  0  0  0
   12.7573  -15.9785   23.2965 O   0  0  0  0  0  0  0  0  0  0  0  0
  2 12  2  0
  2  1  1  0
  3  2  1  0
  4  5  1  0
  4  3  2  0
  5 11  2  0
  6  7  1  0
  6  5  1  0
  7  9  1  0
  7  8  1  6
  9 10  2  0
 11 12  1  0
 14 13  1  1
 14 16  1  0
 14 15  1  0
 17 16  1  1
 18 17  1  0
 18  9  1  0
 19 21  1  0
 19 17  1  0
 20 19  2  0
 22 21  1  0
 22 23  1  6
 23 24  1  0
 24 28  1  0
 25 24  2  0
 25 26  1  0
 26 27  1  0
 28 27  2  0
 29 22  1  0
 30 29  1  0
 31 29  2  0
M  END
$$$$
