YLH.pdb
     RDKit          3D

 31 32  0  0  1  0  0  0  0  0999 V2000
    7.6998  -14.1601   15.9267 O   0  0  0  0  0  0  0  0  0  0  0  0
    8.0115  -14.0827   17.2987 C   0  0  0  0  0  0  0  0  0  0  0  0
    8.7143  -15.0698   17.9341 C   0  0  0  0  0  0  0  0  0  0  0  0
    9.0115  -14.9732   19.2903 C   0  0  0  0  0  0  0  0  0  0  0  0
    8.6113  -13.8874   20.0362 C   0  0  0  0  0  0  0  0  0  0  0  0
    8.9157  -13.7662   21.4722 C   0  0  0  0  0  0  0  0  0  0  0  0
    8.9712  -15.1015   22.1776 C   0  0  2  0  0  0  0  0  0  0  0  0
    7.8043  -15.8966   21.9705 N   0  0  0  0  0  0  0  0  0  0  0  0
    9.1291  -14.8255   23.6257 C   0  0  0  0  0  0  0  0  0  0  0  0
   10.1960  -14.2877   24.0178 O   0  0  0  0  0  0  0  0  0  0  0  0
    7.9053  -12.9021   19.3844 C   0  0  0  0  0  0  0  0  0  0  0  0
    7.6047  -12.9915   18.0302 C   0  0  0  0  0  0  0  0  0  0  0  0
    8.0337  -11.9804   26.3233 C   0  0  0  0  0  0  0  0  0  0  0  0
    6.8587  -12.9479   26.0639 C   0  0  2  0  0  0  0  0  0  0  0  0
    5.5927  -12.3152   26.5142 C   0  0  0  0  0  0  0  0  0  0  0  0
    7.2208  -14.2724   26.6394 C   0  0  0  0  0  0  0  0  0  0  0  0
    8.3591  -14.9201   25.9631 C   0  0  2  0  0  0  0  0  0  0  0  0
    8.1139  -15.1507   24.5725 N   0  0  0  0  0  0  0  0  0  0  0  0
    8.7233  -16.2326   26.5765 C   0  0  0  0  0  0  0  0  0  0  0  0
    8.6793  -16.3713   27.8105 O   0  0  0  0  0  0  0  0  0  0  0  0
    9.1316  -17.3693   25.7926 N   0  0  0  0  0  0  0  0  0  0  0  0
    9.5062  -18.6160   26.4054 C   0  0  1  0  0  0  0  0  0  0  0  0
    9.1385  -19.8438   25.6693 C   0  0  0  0  0  0  0  0  0  0  0  0
    7.7831  -19.9193   25.1290 C   0  0  0  0  0  0  0  0  0  0  0  0
    6.5630  -19.4833   25.5498 C   0  0  0  0  0  0  0  0  0  0  0  0
    5.6366  -19.8109   24.6418 N   0  0  0  0  0  0  0  0  0  0  0  0
    6.2426  -20.4463   23.6512 C   0  0  0  0  0  0  0  0  0  0  0  0
    7.5378  -20.5201   23.9295 N   0  0  0  0  0  0  0  0  0  0  0  0
   10.9595  -18.6035   26.7895 C   0  0  0  0  0  0  0  0  0  0  0  0
   11.4917  -19.6507   27.5101 O   0  0  0  0  0  0  0  0  0  0  0  0
   11.6945  -17.6546   26.4641 O   0  0  0  0  0  0  0  0  0  0  0  0
  2 12  2  0
  2  1  1  0
  3  2  1  0
  4  5  1  0
  4  3  2  0
  5 11  2  0
  6  7  1  0
  6  5  1  0
  7  9  1  0
  7  8  1  1
  9 10  2  0
 11 12  1  0
 14 13  1  1
 14 16  1  0
 14 15  1  0
 17 16  1  1
 18 17  1  0
 18  9  1  0
 19 21  1  0
 19 17  1  0
 20 19  2  0
 22 21  1  0
 22 23  1  6
 23 24  1  0
 24 28  1  0
 25 24  2  0
 25 26  1  0
 26 27  1  0
 28 27  2  0
 29 22  1  0
 30 29  1  0
 31 29  2  0
M  END
$$$$
