MYR.pdb
     RDKit          3D

 32 32  0  0  1  0  0  0  0  0999 V2000
    8.6111  -11.7730   19.3690 C   0  0  0  0  0  0  0  0  0  0  0  0
    7.4847  -13.1072   19.0306 S   0  0  0  0  0  0  0  0  0  0  0  0
    8.0717  -14.3566   17.9040 C   0  0  0  0  0  0  0  0  0  0  0  0
    9.2765  -15.1100   18.2889 C   0  0  0  0  0  0  0  0  0  0  0  0
    9.2123  -16.1620   19.3120 C   0  0  2  0  0  0  0  0  0  0  0  0
    8.0809  -17.0210   19.3185 N   0  0  0  0  0  0  0  0  0  0  0  0
    9.3779  -15.6133   20.7114 C   0  0  0  0  0  0  0  0  0  0  0  0
   10.4326  -15.0343   21.0789 O   0  0  0  0  0  0  0  0  0  0  0  0
    6.8385  -12.3137   28.5151 O   0  0  0  0  0  0  0  0  0  0  0  0
    6.8849  -12.9285   27.2681 C   0  0  0  0  0  0  0  0  0  0  0  0
    6.3917  -14.2233   27.0736 C   0  0  0  0  0  0  0  0  0  0  0  0
    6.4453  -14.8192   25.8289 C   0  0  0  0  0  0  0  0  0  0  0  0
    6.9839  -14.1624   24.7405 C   0  0  0  0  0  0  0  0  0  0  0  0
    7.0274  -14.8222   23.4268 C   0  0  0  0  0  0  0  0  0  0  0  0
    8.4553  -15.2072   23.0194 C   0  0  2  0  0  0  0  0  0  0  0  0
    8.3412  -15.7309   21.6735 N   0  0  0  0  0  0  0  0  0  0  0  0
    8.8550  -16.2712   23.9865 C   0  0  0  0  0  0  0  0  0  0  0  0
    8.1952  -17.3425   23.9764 O   0  0  0  0  0  0  0  0  0  0  0  0
    7.4623  -12.8888   24.9595 C   0  0  0  0  0  0  0  0  0  0  0  0
    7.4212  -12.2731   26.1866 C   0  0  0  0  0  0  0  0  0  0  0  0
   15.2952  -19.8031   21.8193 N   0  0  0  0  0  0  0  0  0  0  0  0
   13.9311  -20.0410   21.5277 C   0  0  0  0  0  0  0  0  0  0  0  0
   13.6326  -20.9165   20.5989 N   0  0  0  0  0  0  0  0  0  0  0  0
   12.8650  -19.3926   22.1816 N   0  0  0  0  0  0  0  0  0  0  0  0
   13.0996  -18.3418   23.2030 C   0  0  0  0  0  0  0  0  0  0  0  0
   11.7806  -17.9955   23.7689 C   0  0  0  0  0  0  0  0  0  0  0  0
   11.6069  -17.7098   25.1841 C   0  0  0  0  0  0  0  0  0  0  0  0
   10.3512  -17.2455   25.7968 C   0  0  2  0  0  0  0  0  0  0  0  0
    9.9253  -16.1091   24.8880 N   0  0  0  0  0  0  0  0  0  0  0  0
   10.3990  -16.6030   27.1141 C   0  0  0  0  0  0  0  0  0  0  0  0
   10.3213  -17.3474   28.3175 O   0  0  0  0  0  0  0  0  0  0  0  0
   10.5094  -15.3727   27.2978 O   0  0  0  0  0  0  0  0  0  0  0  0
  2  1  1  0
  3  4  1  0
  3  2  1  0
  5  6  1  1
  5  4  1  0
  7  5  1  0
  8  7  2  0
  9 10  1  0
 10 20  2  0
 10 11  1  0
 11 12  2  0
 12 13  1  0
 13 14  1  0
 15 14  1  1
 15 16  1  0
 16  7  1  0
 17 29  1  0
 17 15  1  0
 18 17  2  0
 19 13  2  0
 20 19  1  0
 22 23  2  0
 22 21  1  0
 24 22  1  0
 25 26  1  0
 25 24  1  0
 26 27  1  0
 28 27  1  6
 28 29  1  0
 30 28  1  0
 30 31  1  0
 32 30  2  0
M  END
$$$$
