MYR.pdb
     RDKit          3D

 32 32  0  0  1  0  0  0  0  0999 V2000
    6.9846  -10.9087   20.1407 C   0  0  0  0  0  0  0  0  0  0  0  0
    7.7611  -12.2724   19.3037 S   0  0  0  0  0  0  0  0  0  0  0  0
    8.1382  -13.6930   20.3109 C   0  0  0  0  0  0  0  0  0  0  0  0
    8.7207  -14.8679   19.6419 C   0  0  0  0  0  0  0  0  0  0  0  0
    9.0868  -16.0666   20.4081 C   0  0  2  0  0  0  0  0  0  0  0  0
    8.0597  -16.9927   20.7329 N   0  0  0  0  0  0  0  0  0  0  0  0
    9.8196  -15.7292   21.6871 C   0  0  0  0  0  0  0  0  0  0  0  0
   11.0127  -15.3300   21.6853 O   0  0  0  0  0  0  0  0  0  0  0  0
   10.7593  -14.5223   30.4656 O   0  0  0  0  0  0  0  0  0  0  0  0
   10.2653  -14.7802   29.1911 C   0  0  0  0  0  0  0  0  0  0  0  0
    9.9388  -13.7429   28.3108 C   0  0  0  0  0  0  0  0  0  0  0  0
    9.4493  -14.0163   27.0487 C   0  0  0  0  0  0  0  0  0  0  0  0
    9.2666  -15.3141   26.6145 C   0  0  0  0  0  0  0  0  0  0  0  0
    8.7437  -15.5748   25.2648 C   0  0  0  0  0  0  0  0  0  0  0  0
    9.8421  -15.5098   24.1960 C   0  0  2  0  0  0  0  0  0  0  0  0
    9.1850  -15.8506   22.9507 N   0  0  0  0  0  0  0  0  0  0  0  0
   10.8278  -16.5561   24.5967 C   0  0  0  0  0  0  0  0  0  0  0  0
   11.4607  -16.3772   25.6692 O   0  0  0  0  0  0  0  0  0  0  0  0
    9.5959  -16.3164   27.5009 C   0  0  0  0  0  0  0  0  0  0  0  0
   10.0842  -16.0722   28.7612 C   0  0  0  0  0  0  0  0  0  0  0  0
    9.3778  -20.0496   19.8203 N   0  0  0  0  0  0  0  0  0  0  0  0
    9.5695  -21.4230   20.1023 C   0  0  0  0  0  0  0  0  0  0  0  0
    8.6215  -22.2676   19.7764 N   0  0  0  0  0  0  0  0  0  0  0  0
   10.7271  -21.9437   20.7133 N   0  0  0  0  0  0  0  0  0  0  0  0
   11.8653  -21.0725   21.0980 C   0  0  0  0  0  0  0  0  0  0  0  0
   11.4751  -20.3881   22.3467 C   0  0  0  0  0  0  0  0  0  0  0  0
   12.3770  -19.4774   23.0335 C   0  0  0  0  0  0  0  0  0  0  0  0
   12.0552  -18.7601   24.2784 C   0  0  2  0  0  0  0  0  0  0  0  0
   11.0614  -17.7098   23.8225 N   0  0  0  0  0  0  0  0  0  0  0  0
   13.0978  -17.9570   24.9250 C   0  0  0  0  0  0  0  0  0  0  0  0
   13.6384  -16.7961   24.3179 O   0  0  0  0  0  0  0  0  0  0  0  0
   13.5964  -18.2111   26.0415 O   0  0  0  0  0  0  0  0  0  0  0  0
  2  1  1  0
  3  4  1  0
  3  2  1  0
  5  6  1  1
  5  4  1  0
  7  5  1  0
  8  7  2  0
  9 10  1  0
 10 20  2  0
 10 11  1  0
 11 12  2  0
 12 13  1  0
 13 14  1  0
 15 14  1  1
 15 16  1  0
 16  7  1  0
 17 29  1  0
 17 15  1  0
 18 17  2  0
 19 13  2  0
 20 19  1  0
 22 23  2  0
 22 21  1  0
 24 22  1  0
 25 26  1  0
 25 24  1  0
 26 27  1  0
 28 27  1  6
 28 29  1  0
 30 28  1  0
 30 31  1  0
 32 30  2  0
M  END
$$$$
