MYR.pdb
     RDKit          3D

 32 32  0  0  1  0  0  0  0  0999 V2000
    5.0750  -17.7773   20.1413 C   0  0  0  0  0  0  0  0  0  0  0  0
    4.9896  -16.4571   18.9526 S   0  0  0  0  0  0  0  0  0  0  0  0
    6.0210  -15.0422   19.2831 C   0  0  0  0  0  0  0  0  0  0  0  0
    7.0097  -15.1577   20.3678 C   0  0  0  0  0  0  0  0  0  0  0  0
    7.7871  -13.9908   20.8058 C   0  0  2  0  0  0  0  0  0  0  0  0
    8.5907  -13.3226   19.8436 N   0  0  0  0  0  0  0  0  0  0  0  0
    8.6638  -14.2995   21.9987 C   0  0  0  0  0  0  0  0  0  0  0  0
    9.8281  -14.7577   21.8683 O   0  0  0  0  0  0  0  0  0  0  0  0
   10.4375  -15.5438   30.6445 O   0  0  0  0  0  0  0  0  0  0  0  0
    9.8859  -15.1480   29.4304 C   0  0  0  0  0  0  0  0  0  0  0  0
    8.8991  -15.9088   28.7941 C   0  0  0  0  0  0  0  0  0  0  0  0
    8.3619  -15.5016   27.5888 C   0  0  0  0  0  0  0  0  0  0  0  0
    8.7770  -14.3373   26.9740 C   0  0  0  0  0  0  0  0  0  0  0  0
    8.1866  -13.9286   25.6904 C   0  0  0  0  0  0  0  0  0  0  0  0
    8.9379  -14.5227   24.4923 C   0  0  2  0  0  0  0  0  0  0  0  0
    8.2037  -14.0825   23.3237 N   0  0  0  0  0  0  0  0  0  0  0  0
    8.8390  -16.0006   24.6738 C   0  0  0  0  0  0  0  0  0  0  0  0
    7.7202  -16.5374   24.4662 O   0  0  0  0  0  0  0  0  0  0  0  0
    9.7496  -13.6070   27.6217 C   0  0  0  0  0  0  0  0  0  0  0  0
   10.3005  -13.9892   28.8205 C   0  0  0  0  0  0  0  0  0  0  0  0
   10.2335  -17.4598   19.1037 N   0  0  0  0  0  0  0  0  0  0  0  0
   11.4388  -18.0733   19.5201 C   0  0  0  0  0  0  0  0  0  0  0  0
   12.5193  -17.8819   18.8032 N   0  0  0  0  0  0  0  0  0  0  0  0
   11.5511  -18.8810   20.6688 N   0  0  0  0  0  0  0  0  0  0  0  0
   10.3683  -19.2357   21.4919 C   0  0  0  0  0  0  0  0  0  0  0  0
   10.5883  -18.6494   22.8290 C   0  0  0  0  0  0  0  0  0  0  0  0
    9.6109  -18.7914   23.8963 C   0  0  0  0  0  0  0  0  0  0  0  0
    9.7878  -18.2839   25.2670 C   0  0  2  0  0  0  0  0  0  0  0  0
    9.9397  -16.7892   25.0628 N   0  0  0  0  0  0  0  0  0  0  0  0
   11.0077  -18.6335   26.0018 C   0  0  0  0  0  0  0  0  0  0  0  0
   11.9382  -17.6522   26.4255 O   0  0  0  0  0  0  0  0  0  0  0  0
   11.3356  -19.7968   26.3161 O   0  0  0  0  0  0  0  0  0  0  0  0
  2  1  1  0
  3  4  1  0
  3  2  1  0
  5  6  1  6
  5  4  1  0
  7  5  1  0
  8  7  2  0
  9 10  1  0
 10 20  2  0
 10 11  1  0
 11 12  2  0
 12 13  1  0
 13 14  1  0
 15 14  1  1
 15 16  1  0
 16  7  1  0
 17 29  1  0
 17 15  1  0
 18 17  2  0
 19 13  2  0
 20 19  1  0
 22 23  2  0
 22 21  1  0
 24 22  1  0
 25 26  1  0
 25 24  1  0
 26 27  1  0
 28 27  1  6
 28 29  1  0
 30 28  1  0
 30 31  1  0
 32 30  2  0
M  END
$$$$
