MYR.pdb
     RDKit          3D

 32 32  0  0  1  0  0  0  0  0999 V2000
    2.8214  -18.3411   20.8260 C   0  0  0  0  0  0  0  0  0  0  0  0
    3.9770  -19.6430   20.4616 S   0  0  0  0  0  0  0  0  0  0  0  0
    5.0879  -19.3416   19.1014 C   0  0  0  0  0  0  0  0  0  0  0  0
    6.3943  -18.7365   19.4092 C   0  0  0  0  0  0  0  0  0  0  0  0
    6.9368  -18.7693   20.7739 C   0  0  2  0  0  0  0  0  0  0  0  0
    6.0926  -18.3576   21.8397 N   0  0  0  0  0  0  0  0  0  0  0  0
    8.2338  -18.0013   20.8950 C   0  0  0  0  0  0  0  0  0  0  0  0
    9.2198  -18.2381   20.1504 O   0  0  0  0  0  0  0  0  0  0  0  0
    6.5379  -12.4802   17.6242 O   0  0  0  0  0  0  0  0  0  0  0  0
    7.1533  -13.0290   18.7445 C   0  0  0  0  0  0  0  0  0  0  0  0
    6.4063  -13.5751   19.7940 C   0  0  0  0  0  0  0  0  0  0  0  0
    7.0330  -14.1161   20.8993 C   0  0  0  0  0  0  0  0  0  0  0  0
    8.4093  -14.1369   21.0065 C   0  0  0  0  0  0  0  0  0  0  0  0
    9.0490  -14.7200   22.1956 C   0  0  0  0  0  0  0  0  0  0  0  0
    9.5721  -16.1382   21.9348 C   0  0  2  0  0  0  0  0  0  0  0  0
    8.3912  -16.9742   21.8618 N   0  0  0  0  0  0  0  0  0  0  0  0
   10.3997  -16.4666   23.1323 C   0  0  0  0  0  0  0  0  0  0  0  0
   11.4186  -15.7600   23.3454 O   0  0  0  0  0  0  0  0  0  0  0  0
    9.1208  -13.5929   19.9593 C   0  0  0  0  0  0  0  0  0  0  0  0
    8.5228  -13.0486   18.8490 C   0  0  0  0  0  0  0  0  0  0  0  0
   11.5407  -15.2596   28.6761 N   0  0  0  0  0  0  0  0  0  0  0  0
   10.3430  -14.6995   29.1802 C   0  0  0  0  0  0  0  0  0  0  0  0
   10.4260  -13.7281   30.0564 N   0  0  0  0  0  0  0  0  0  0  0  0
    9.0562  -15.1222   28.7929 N   0  0  0  0  0  0  0  0  0  0  0  0
    8.8334  -16.4238   28.1158 C   0  0  0  0  0  0  0  0  0  0  0  0
    9.7929  -16.4911   26.9956 C   0  0  0  0  0  0  0  0  0  0  0  0
   10.1122  -17.7476   26.3368 C   0  0  0  0  0  0  0  0  0  0  0  0
   10.9913  -17.8780   25.1629 C   0  0  2  0  0  0  0  0  0  0  0  0
   10.0764  -17.5222   24.0075 N   0  0  0  0  0  0  0  0  0  0  0  0
   11.4814  -19.2079   24.7871 C   0  0  0  0  0  0  0  0  0  0  0  0
   12.6973  -19.7322   25.2923 O   0  0  0  0  0  0  0  0  0  0  0  0
   10.8917  -19.9852   24.0075 O   0  0  0  0  0  0  0  0  0  0  0  0
  2  1  1  0
  3  4  1  0
  3  2  1  0
  5  6  1  1
  5  4  1  0
  7  5  1  0
  8  7  2  0
  9 10  1  0
 10 20  2  0
 10 11  1  0
 11 12  2  0
 12 13  1  0
 13 14  1  0
 15 14  1  1
 15 16  1  0
 16  7  1  0
 17 29  1  0
 17 15  1  0
 18 17  2  0
 19 13  2  0
 20 19  1  0
 22 23  2  0
 22 21  1  0
 24 22  1  0
 25 26  1  0
 25 24  1  0
 26 27  1  0
 28 27  1  1
 28 29  1  0
 30 28  1  0
 30 31  1  0
 32 30  2  0
M  END
$$$$
