MYR.pdb
     RDKit          3D

 32 32  0  0  1  0  0  0  0  0999 V2000
    8.2046  -11.0701   19.2745 C   0  0  0  0  0  0  0  0  0  0  0  0
    7.2345  -12.3794   18.5618 S   0  0  0  0  0  0  0  0  0  0  0  0
    7.1814  -13.9022   19.4856 C   0  0  0  0  0  0  0  0  0  0  0  0
    8.3314  -14.2161   20.3494 C   0  0  0  0  0  0  0  0  0  0  0  0
    8.4166  -15.5033   21.0520 C   0  0  2  0  0  0  0  0  0  0  0  0
    7.2059  -16.1821   21.3542 N   0  0  0  0  0  0  0  0  0  0  0  0
    9.2188  -15.4080   22.3304 C   0  0  0  0  0  0  0  0  0  0  0  0
   10.2938  -14.7576   22.3948 O   0  0  0  0  0  0  0  0  0  0  0  0
    5.7887  -11.0072   26.3104 O   0  0  0  0  0  0  0  0  0  0  0  0
    6.4446  -12.2290   26.2019 C   0  0  0  0  0  0  0  0  0  0  0  0
    5.7413  -13.4184   25.9819 C   0  0  0  0  0  0  0  0  0  0  0  0
    6.4080  -14.6232   25.8765 C   0  0  0  0  0  0  0  0  0  0  0  0
    7.7825  -14.6956   25.9838 C   0  0  0  0  0  0  0  0  0  0  0  0
    8.4654  -15.9929   25.8672 C   0  0  0  0  0  0  0  0  0  0  0  0
    9.5282  -15.9904   24.7611 C   0  0  2  0  0  0  0  0  0  0  0  0
    8.7869  -16.0540   23.5180 N   0  0  0  0  0  0  0  0  0  0  0  0
   10.3195  -17.2350   24.9884 C   0  0  0  0  0  0  0  0  0  0  0  0
    9.8007  -18.1301   25.7044 O   0  0  0  0  0  0  0  0  0  0  0  0
    8.4506  -13.5100   26.2002 C   0  0  0  0  0  0  0  0  0  0  0  0
    7.8123  -12.2987   26.3089 C   0  0  0  0  0  0  0  0  0  0  0  0
   14.2009  -14.7336   20.2740 N   0  0  0  0  0  0  0  0  0  0  0  0
   12.9800  -15.3474   20.6417 C   0  0  0  0  0  0  0  0  0  0  0  0
   11.8682  -14.6691   20.4933 N   0  0  0  0  0  0  0  0  0  0  0  0
   12.8842  -16.6545   21.1583 N   0  0  0  0  0  0  0  0  0  0  0  0
   14.0894  -17.4786   21.4244 C   0  0  0  0  0  0  0  0  0  0  0  0
   14.0287  -17.8761   22.8450 C   0  0  0  0  0  0  0  0  0  0  0  0
   13.0748  -18.8645   23.3223 C   0  0  0  0  0  0  0  0  0  0  0  0
   12.3150  -18.7567   24.5788 C   0  0  2  0  0  0  0  0  0  0  0  0
   11.6009  -17.4269   24.4355 N   0  0  0  0  0  0  0  0  0  0  0  0
   13.0465  -18.5945   25.8393 C   0  0  0  0  0  0  0  0  0  0  0  0
   14.3594  -19.0973   26.0173 O   0  0  0  0  0  0  0  0  0  0  0  0
   12.5961  -18.0142   26.8493 O   0  0  0  0  0  0  0  0  0  0  0  0
  2  1  1  0
  3  4  1  0
  3  2  1  0
  5  6  1  1
  5  4  1  0
  7  5  1  0
  8  7  2  0
  9 10  1  0
 10 20  2  0
 10 11  1  0
 11 12  2  0
 12 13  1  0
 13 14  1  0
 15 14  1  1
 15 16  1  0
 16  7  1  0
 17 29  1  0
 17 15  1  0
 18 17  2  0
 19 13  2  0
 20 19  1  0
 22 23  2  0
 22 21  1  0
 24 22  1  0
 25 26  1  0
 25 24  1  0
 26 27  1  0
 28 27  1  6
 28 29  1  0
 30 28  1  0
 30 31  1  0
 32 30  2  0
M  END
$$$$
