MYR.pdb
     RDKit          3D

 32 32  0  0  1  0  0  0  0  0999 V2000
    6.5402  -11.5864   26.3912 C   0  0  0  0  0  0  0  0  0  0  0  0
    6.1901  -13.3288   26.4610 S   0  0  0  0  0  0  0  0  0  0  0  0
    5.7276  -14.0937   24.9196 C   0  0  0  0  0  0  0  0  0  0  0  0
    6.6618  -13.9678   23.7887 C   0  0  0  0  0  0  0  0  0  0  0  0
    7.3172  -15.1519   23.2177 C   0  0  2  0  0  0  0  0  0  0  0  0
    6.7002  -16.4168   23.4110 N   0  0  0  0  0  0  0  0  0  0  0  0
    8.7602  -15.2757   23.6528 C   0  0  0  0  0  0  0  0  0  0  0  0
    9.5913  -14.3484   23.4741 O   0  0  0  0  0  0  0  0  0  0  0  0
   10.6073  -13.7127   30.3367 O   0  0  0  0  0  0  0  0  0  0  0  0
   10.6097  -14.6066   29.2710 C   0  0  0  0  0  0  0  0  0  0  0  0
   11.6329  -15.5471   29.1091 C   0  0  0  0  0  0  0  0  0  0  0  0
   11.6202  -16.4276   28.0453 C   0  0  0  0  0  0  0  0  0  0  0  0
   10.6042  -16.4107   27.1108 C   0  0  0  0  0  0  0  0  0  0  0  0
   10.6171  -17.3608   25.9882 C   0  0  0  0  0  0  0  0  0  0  0  0
   10.6313  -16.6505   24.6287 C   0  0  2  0  0  0  0  0  0  0  0  0
    9.2377  -16.4530   24.2856 N   0  0  0  0  0  0  0  0  0  0  0  0
   11.2901  -17.6152   23.7002 C   0  0  0  0  0  0  0  0  0  0  0  0
   10.7435  -18.7378   23.5457 O   0  0  0  0  0  0  0  0  0  0  0  0
    9.6093  -15.4750   27.2937 C   0  0  0  0  0  0  0  0  0  0  0  0
    9.5978  -14.5880   28.3424 C   0  0  0  0  0  0  0  0  0  0  0  0
   14.9034  -15.9607   17.3117 N   0  0  0  0  0  0  0  0  0  0  0  0
   14.4109  -14.9612   18.1840 C   0  0  0  0  0  0  0  0  0  0  0  0
   15.2464  -14.0594   18.6387 N   0  0  0  0  0  0  0  0  0  0  0  0
   13.0663  -14.8726   18.5948 N   0  0  0  0  0  0  0  0  0  0  0  0
   12.5957  -15.4845   19.8623 C   0  0  0  0  0  0  0  0  0  0  0  0
   13.1003  -16.8719   19.8787 C   0  0  0  0  0  0  0  0  0  0  0  0
   13.7522  -17.4346   21.0505 C   0  0  0  0  0  0  0  0  0  0  0  0
   13.0917  -18.3001   22.0417 C   0  0  2  0  0  0  0  0  0  0  0  0
   12.4795  -17.3076   23.0106 N   0  0  0  0  0  0  0  0  0  0  0  0
   13.9188  -19.1360   22.9177 C   0  0  0  0  0  0  0  0  0  0  0  0
   14.3359  -18.6997   24.1999 O   0  0  0  0  0  0  0  0  0  0  0  0
   14.3243  -20.2809   22.6269 O   0  0  0  0  0  0  0  0  0  0  0  0
  2  1  1  0
  3  4  1  0
  3  2  1  0
  5  6  1  1
  5  4  1  0
  7  5  1  0
  8  7  2  0
  9 10  1  0
 10 20  2  0
 10 11  1  0
 11 12  2  0
 12 13  1  0
 13 14  1  0
 15 14  1  1
 15 16  1  0
 16  7  1  0
 17 29  1  0
 17 15  1  0
 18 17  2  0
 19 13  2  0
 20 19  1  0
 22 23  2  0
 22 21  1  0
 24 22  1  0
 25 26  1  0
 25 24  1  0
 26 27  1  0
 28 27  1  6
 28 29  1  0
 30 28  1  0
 30 31  1  0
 32 30  2  0
M  END
$$$$
