MYR.pdb
     RDKit          3D

 32 32  0  0  1  0  0  0  0  0999 V2000
    8.1687  -11.9307   18.9446 C   0  0  0  0  0  0  0  0  0  0  0  0
    7.3662  -13.0685   17.8379 S   0  0  0  0  0  0  0  0  0  0  0  0
    7.7559  -14.7912   18.0732 C   0  0  0  0  0  0  0  0  0  0  0  0
    9.1621  -15.1432   18.3306 C   0  0  0  0  0  0  0  0  0  0  0  0
    9.5245  -16.0349   19.4402 C   0  0  2  0  0  0  0  0  0  0  0  0
    8.7316  -17.1942   19.6533 N   0  0  0  0  0  0  0  0  0  0  0  0
    9.6242  -15.3005   20.7583 C   0  0  0  0  0  0  0  0  0  0  0  0
   10.5144  -14.4381   20.9742 O   0  0  0  0  0  0  0  0  0  0  0  0
    6.5711  -11.7298   28.2483 O   0  0  0  0  0  0  0  0  0  0  0  0
    6.7479  -12.5084   27.1092 C   0  0  0  0  0  0  0  0  0  0  0  0
    6.7239  -11.9451   25.8287 C   0  0  0  0  0  0  0  0  0  0  0  0
    6.9011  -12.7325   24.7080 C   0  0  0  0  0  0  0  0  0  0  0  0
    7.1069  -14.0937   24.8116 C   0  0  0  0  0  0  0  0  0  0  0  0
    7.2928  -14.9070   23.6003 C   0  0  0  0  0  0  0  0  0  0  0  0
    8.7275  -14.8267   23.0637 C   0  0  2  0  0  0  0  0  0  0  0  0
    8.7097  -15.5573   21.8129 N   0  0  0  0  0  0  0  0  0  0  0  0
    9.5589  -15.5219   24.0896 C   0  0  0  0  0  0  0  0  0  0  0  0
    9.1223  -15.5492   25.2692 O   0  0  0  0  0  0  0  0  0  0  0  0
    7.1260  -14.6227   26.0838 C   0  0  0  0  0  0  0  0  0  0  0  0
    6.9524  -13.8626   27.2146 C   0  0  0  0  0  0  0  0  0  0  0  0
    9.3317  -19.6505   30.3396 N   0  0  0  0  0  0  0  0  0  0  0  0
    8.7021  -20.0514   29.1373 C   0  0  0  0  0  0  0  0  0  0  0  0
    7.5847  -20.7325   29.2123 N   0  0  0  0  0  0  0  0  0  0  0  0
    9.2042  -19.7584   27.8540 N   0  0  0  0  0  0  0  0  0  0  0  0
   10.2931  -18.7712   27.6490 C   0  0  0  0  0  0  0  0  0  0  0  0
    9.9059  -17.9447   26.4884 C   0  0  0  0  0  0  0  0  0  0  0  0
   10.6831  -17.9406   25.2594 C   0  0  0  0  0  0  0  0  0  0  0  0
   11.5878  -16.8557   24.8442 C   0  0  2  0  0  0  0  0  0  0  0  0
   10.7896  -16.1322   23.7774 N   0  0  0  0  0  0  0  0  0  0  0  0
   12.8290  -17.1961   24.1415 C   0  0  0  0  0  0  0  0  0  0  0  0
   14.0675  -17.3200   24.8190 O   0  0  0  0  0  0  0  0  0  0  0  0
   12.9126  -17.4036   22.9128 O   0  0  0  0  0  0  0  0  0  0  0  0
  2  1  1  0
  3  4  1  0
  3  2  1  0
  5  6  1  1
  5  4  1  0
  7  5  1  0
  8  7  2  0
  9 10  1  0
 10 20  2  0
 10 11  1  0
 11 12  2  0
 12 13  1  0
 13 14  1  0
 15 14  1  1
 15 16  1  0
 16  7  1  0
 17 29  1  0
 17 15  1  0
 18 17  2  0
 19 13  2  0
 20 19  1  0
 22 23  2  0
 22 21  1  0
 24 22  1  0
 25 26  1  0
 25 24  1  0
 26 27  1  0
 28 27  1  6
 28 29  1  0
 30 28  1  0
 30 31  1  0
 32 30  2  0
M  END
$$$$
