MYR.pdb
     RDKit          3D

 32 32  0  0  1  0  0  0  0  0999 V2000
    6.3401  -12.7779   16.6945 C   0  0  0  0  0  0  0  0  0  0  0  0
    7.2960  -13.1838   18.1384 S   0  0  0  0  0  0  0  0  0  0  0  0
    8.7798  -14.1276   17.8514 C   0  0  0  0  0  0  0  0  0  0  0  0
    9.6243  -14.4413   19.0159 C   0  0  0  0  0  0  0  0  0  0  0  0
    9.2137  -15.4595   19.9917 C   0  0  2  0  0  0  0  0  0  0  0  0
    7.8237  -15.6555   20.2097 N   0  0  0  0  0  0  0  0  0  0  0  0
    9.8642  -15.2566   21.3417 C   0  0  0  0  0  0  0  0  0  0  0  0
   11.0913  -15.0049   21.4584 O   0  0  0  0  0  0  0  0  0  0  0  0
   10.2505  -14.2929   30.1764 O   0  0  0  0  0  0  0  0  0  0  0  0
    9.8287  -14.4885   28.8654 C   0  0  0  0  0  0  0  0  0  0  0  0
    9.6716  -13.4157   27.9811 C   0  0  0  0  0  0  0  0  0  0  0  0
    9.2519  -13.6272   26.6825 C   0  0  0  0  0  0  0  0  0  0  0  0
    8.9746  -14.8962   26.2148 C   0  0  0  0  0  0  0  0  0  0  0  0
    8.5295  -15.0910   24.8266 C   0  0  0  0  0  0  0  0  0  0  0  0
    9.7081  -15.2339   23.8554 C   0  0  2  0  0  0  0  0  0  0  0  0
    9.1095  -15.3429   22.5406 N   0  0  0  0  0  0  0  0  0  0  0  0
   10.3811  -16.5043   24.2552 C   0  0  0  0  0  0  0  0  0  0  0  0
    9.8001  -17.5835   23.9711 O   0  0  0  0  0  0  0  0  0  0  0  0
    9.1375  -15.9346   27.1059 C   0  0  0  0  0  0  0  0  0  0  0  0
    9.5534  -15.7520   28.4021 C   0  0  0  0  0  0  0  0  0  0  0  0
   10.5877  -19.1493   30.8458 N   0  0  0  0  0  0  0  0  0  0  0  0
   11.8891  -19.0987   30.2922 C   0  0  0  0  0  0  0  0  0  0  0  0
   12.8843  -18.7351   31.0638 N   0  0  0  0  0  0  0  0  0  0  0  0
   12.1842  -19.4209   28.9529 N   0  0  0  0  0  0  0  0  0  0  0  0
   11.1232  -19.8159   27.9934 C   0  0  0  0  0  0  0  0  0  0  0  0
   10.9315  -18.6747   27.0764 C   0  0  0  0  0  0  0  0  0  0  0  0
   11.3768  -18.7223   25.6930 C   0  0  0  0  0  0  0  0  0  0  0  0
   12.3828  -17.8219   25.1054 C   0  0  2  0  0  0  0  0  0  0  0  0
   11.6194  -16.5242   24.9267 N   0  0  0  0  0  0  0  0  0  0  0  0
   12.8750  -18.0944   23.7513 C   0  0  0  0  0  0  0  0  0  0  0  0
   12.8513  -17.1119   22.7302 O   0  0  0  0  0  0  0  0  0  0  0  0
   13.3493  -19.1875   23.3773 O   0  0  0  0  0  0  0  0  0  0  0  0
  2  1  1  0
  3  4  1  0
  3  2  1  0
  5  6  1  1
  5  4  1  0
  7  5  1  0
  8  7  2  0
  9 10  1  0
 10 20  2  0
 10 11  1  0
 11 12  2  0
 12 13  1  0
 13 14  1  0
 15 14  1  1
 15 16  1  0
 16  7  1  0
 17 29  1  0
 17 15  1  0
 18 17  2  0
 19 13  2  0
 20 19  1  0
 22 23  2  0
 22 21  1  0
 24 22  1  0
 25 26  1  0
 25 24  1  0
 26 27  1  0
 28 27  1  6
 28 29  1  0
 30 28  1  0
 30 31  1  0
 32 30  2  0
M  END
$$$$
