MYR.pdb
     RDKit          3D

 32 32  0  0  1  0  0  0  0  0999 V2000
    7.4062  -18.7673   19.1739 C   0  0  0  0  0  0  0  0  0  0  0  0
    6.5710  -17.6422   18.0784 S   0  0  0  0  0  0  0  0  0  0  0  0
    6.4579  -15.9529   18.6337 C   0  0  0  0  0  0  0  0  0  0  0  0
    7.2161  -15.5791   19.8390 C   0  0  0  0  0  0  0  0  0  0  0  0
    7.0785  -14.2417   20.4309 C   0  0  2  0  0  0  0  0  0  0  0  0
    7.2383  -13.1144   19.5814 N   0  0  0  0  0  0  0  0  0  0  0  0
    7.9848  -14.0462   21.6255 C   0  0  0  0  0  0  0  0  0  0  0  0
    9.1995  -13.7448   21.4974 O   0  0  0  0  0  0  0  0  0  0  0  0
   10.2685  -14.8783   30.2009 O   0  0  0  0  0  0  0  0  0  0  0  0
    9.5785  -14.7084   29.0051 C   0  0  0  0  0  0  0  0  0  0  0  0
    9.4044  -13.4421   28.4361 C   0  0  0  0  0  0  0  0  0  0  0  0
    8.7166  -13.2908   27.2481 C   0  0  0  0  0  0  0  0  0  0  0  0
    8.1807  -14.3766   26.5849 C   0  0  0  0  0  0  0  0  0  0  0  0
    7.4532  -14.1850   25.3211 C   0  0  0  0  0  0  0  0  0  0  0  0
    8.3693  -14.3257   24.0988 C   0  0  2  0  0  0  0  0  0  0  0  0
    7.4966  -14.1962   22.9497 N   0  0  0  0  0  0  0  0  0  0  0  0
    8.9349  -15.7028   24.2016 C   0  0  0  0  0  0  0  0  0  0  0  0
    8.1468  -16.6684   24.0305 O   0  0  0  0  0  0  0  0  0  0  0  0
    8.3666  -15.6119   27.1667 C   0  0  0  0  0  0  0  0  0  0  0  0
    9.0461  -15.7902   28.3469 C   0  0  0  0  0  0  0  0  0  0  0  0
   15.0995  -17.6697   19.9038 N   0  0  0  0  0  0  0  0  0  0  0  0
   14.8838  -19.0057   20.3174 C   0  0  0  0  0  0  0  0  0  0  0  0
   15.8392  -19.8826   20.1263 N   0  0  0  0  0  0  0  0  0  0  0  0
   13.6973  -19.4548   20.9300 N   0  0  0  0  0  0  0  0  0  0  0  0
   12.5439  -18.5485   21.1547 C   0  0  0  0  0  0  0  0  0  0  0  0
   12.7968  -17.8445   22.4277 C   0  0  0  0  0  0  0  0  0  0  0  0
   11.8182  -16.9390   23.0082 C   0  0  0  0  0  0  0  0  0  0  0  0
   10.9333  -17.2737   24.1363 C   0  0  2  0  0  0  0  0  0  0  0  0
   10.2953  -15.9418   24.4793 N   0  0  0  0  0  0  0  0  0  0  0  0
   11.5316  -17.6814   25.4115 C   0  0  0  0  0  0  0  0  0  0  0  0
   11.7366  -16.7655   26.4733 O   0  0  0  0  0  0  0  0  0  0  0  0
   11.9079  -18.8421   25.6776 O   0  0  0  0  0  0  0  0  0  0  0  0
  2  1  1  0
  3  4  1  0
  3  2  1  0
  5  6  1  6
  5  4  1  0
  7  5  1  0
  8  7  2  0
  9 10  1  0
 10 20  2  0
 10 11  1  0
 11 12  2  0
 12 13  1  0
 13 14  1  0
 15 14  1  1
 15 16  1  0
 16  7  1  0
 17 29  1  0
 17 15  1  0
 18 17  2  0
 19 13  2  0
 20 19  1  0
 22 23  2  0
 22 21  1  0
 24 22  1  0
 25 26  1  0
 25 24  1  0
 26 27  1  0
 28 27  1  6
 28 29  1  0
 30 28  1  0
 30 31  1  0
 32 30  2  0
M  END
$$$$
