MYR.pdb
     RDKit          3D

 32 32  0  0  1  0  0  0  0  0999 V2000
    8.4064  -13.3657   16.3602 C   0  0  0  0  0  0  0  0  0  0  0  0
    7.1659  -14.0306   17.4476 S   0  0  0  0  0  0  0  0  0  0  0  0
    6.7341  -13.0187   18.8492 C   0  0  0  0  0  0  0  0  0  0  0  0
    7.5901  -13.1074   20.0437 C   0  0  0  0  0  0  0  0  0  0  0  0
    7.8897  -14.4061   20.6611 C   0  0  2  0  0  0  0  0  0  0  0  0
    6.8025  -15.2666   20.9707 N   0  0  0  0  0  0  0  0  0  0  0  0
    8.7333  -14.2683   21.9085 C   0  0  0  0  0  0  0  0  0  0  0  0
    9.8607  -13.7101   21.8915 O   0  0  0  0  0  0  0  0  0  0  0  0
   10.8279  -15.1860   30.5103 O   0  0  0  0  0  0  0  0  0  0  0  0
   10.1721  -15.0715   29.2889 C   0  0  0  0  0  0  0  0  0  0  0  0
    9.9894  -13.8292   28.6718 C   0  0  0  0  0  0  0  0  0  0  0  0
    9.3360  -13.7330   27.4589 C   0  0  0  0  0  0  0  0  0  0  0  0
    8.8437  -14.8519   26.8173 C   0  0  0  0  0  0  0  0  0  0  0  0
    8.1522  -14.7189   25.5261 C   0  0  0  0  0  0  0  0  0  0  0  0
    9.1209  -14.8003   24.3395 C   0  0  2  0  0  0  0  0  0  0  0  0
    8.2828  -14.7674   23.1584 N   0  0  0  0  0  0  0  0  0  0  0  0
    9.7995  -16.1208   24.4901 C   0  0  0  0  0  0  0  0  0  0  0  0
    9.0736  -17.1484   24.5041 O   0  0  0  0  0  0  0  0  0  0  0  0
    9.0371  -16.0626   27.4465 C   0  0  0  0  0  0  0  0  0  0  0  0
    9.6831  -16.1861   28.6523 C   0  0  0  0  0  0  0  0  0  0  0  0
   11.7965  -15.1337   19.4968 N   0  0  0  0  0  0  0  0  0  0  0  0
   13.1069  -15.4115   19.9530 C   0  0  0  0  0  0  0  0  0  0  0  0
   14.0729  -14.5898   19.6217 N   0  0  0  0  0  0  0  0  0  0  0  0
   13.4398  -16.5239   20.7508 N   0  0  0  0  0  0  0  0  0  0  0  0
   12.5299  -17.6887   20.8841 C   0  0  0  0  0  0  0  0  0  0  0  0
   12.7794  -18.2740   22.2164 C   0  0  0  0  0  0  0  0  0  0  0  0
   12.8015  -17.4565   23.4188 C   0  0  0  0  0  0  0  0  0  0  0  0
   11.8665  -17.6007   24.5469 C   0  0  2  0  0  0  0  0  0  0  0  0
   11.1976  -16.2417   24.6145 N   0  0  0  0  0  0  0  0  0  0  0  0
   12.4065  -17.7608   25.9008 C   0  0  0  0  0  0  0  0  0  0  0  0
   12.7369  -19.0318   26.4336 O   0  0  0  0  0  0  0  0  0  0  0  0
   12.6212  -16.8195   26.6929 O   0  0  0  0  0  0  0  0  0  0  0  0
  2  1  1  0
  3  4  1  0
  3  2  1  0
  5  6  1  1
  5  4  1  0
  7  5  1  0
  8  7  2  0
  9 10  1  0
 10 20  2  0
 10 11  1  0
 11 12  2  0
 12 13  1  0
 13 14  1  0
 15 14  1  1
 15 16  1  0
 16  7  1  0
 17 29  1  0
 17 15  1  0
 18 17  2  0
 19 13  2  0
 20 19  1  0
 22 23  2  0
 22 21  1  0
 24 22  1  0
 25 26  1  0
 25 24  1  0
 26 27  1  0
 28 27  1  6
 28 29  1  0
 30 28  1  0
 30 31  1  0
 32 30  2  0
M  END
$$$$
