MYR.pdb
     RDKit          3D

 32 32  0  0  1  0  0  0  0  0999 V2000
    7.9155  -11.2831   19.8838 C   0  0  0  0  0  0  0  0  0  0  0  0
    6.6574  -12.5319   20.0289 S   0  0  0  0  0  0  0  0  0  0  0  0
    6.9581  -14.0485   19.1431 C   0  0  0  0  0  0  0  0  0  0  0  0
    8.2844  -14.6708   19.2875 C   0  0  0  0  0  0  0  0  0  0  0  0
    8.4924  -15.7957   20.2089 C   0  0  2  0  0  0  0  0  0  0  0  0
    7.3467  -16.4429   20.7443 N   0  0  0  0  0  0  0  0  0  0  0  0
    9.3942  -15.4308   21.3667 C   0  0  0  0  0  0  0  0  0  0  0  0
   10.5018  -14.8597   21.1935 O   0  0  0  0  0  0  0  0  0  0  0  0
   11.7036  -14.2442   29.8732 O   0  0  0  0  0  0  0  0  0  0  0  0
   11.0276  -14.5390   28.6938 C   0  0  0  0  0  0  0  0  0  0  0  0
   10.4872  -13.5293   27.8899 C   0  0  0  0  0  0  0  0  0  0  0  0
    9.8188  -13.8392   26.7218 C   0  0  0  0  0  0  0  0  0  0  0  0
    9.6617  -15.1473   26.3094 C   0  0  0  0  0  0  0  0  0  0  0  0
    8.9452  -15.4471   25.0604 C   0  0  0  0  0  0  0  0  0  0  0  0
    9.8730  -15.4173   23.8393 C   0  0  2  0  0  0  0  0  0  0  0  0
    9.0235  -15.7205   22.7057 N   0  0  0  0  0  0  0  0  0  0  0  0
   10.8635  -16.5061   24.0851 C   0  0  0  0  0  0  0  0  0  0  0  0
   10.4217  -17.6790   24.1948 O   0  0  0  0  0  0  0  0  0  0  0  0
   10.2032  -16.1219   27.1191 C   0  0  0  0  0  0  0  0  0  0  0  0
   10.8724  -15.8413   28.2853 C   0  0  0  0  0  0  0  0  0  0  0  0
   16.7967  -13.8452   20.4203 N   0  0  0  0  0  0  0  0  0  0  0  0
   15.5761  -14.2502   19.8298 C   0  0  0  0  0  0  0  0  0  0  0  0
   15.5343  -14.4183   18.5305 N   0  0  0  0  0  0  0  0  0  0  0  0
   14.3943  -14.4893   20.5583 N   0  0  0  0  0  0  0  0  0  0  0  0
   14.4166  -14.7417   22.0205 C   0  0  0  0  0  0  0  0  0  0  0  0
   14.4045  -16.2071   22.2003 C   0  0  0  0  0  0  0  0  0  0  0  0
   14.4171  -16.8155   23.5210 C   0  0  0  0  0  0  0  0  0  0  0  0
   13.2408  -17.4028   24.1838 C   0  0  2  0  0  0  0  0  0  0  0  0
   12.2461  -16.2587   24.1953 N   0  0  0  0  0  0  0  0  0  0  0  0
   13.3315  -17.7642   25.6021 C   0  0  0  0  0  0  0  0  0  0  0  0
   13.7761  -19.0412   26.0262 O   0  0  0  0  0  0  0  0  0  0  0  0
   13.0340  -17.0032   26.5466 O   0  0  0  0  0  0  0  0  0  0  0  0
  2  1  1  0
  3  4  1  0
  3  2  1  0
  5  6  1  1
  5  4  1  0
  7  5  1  0
  8  7  2  0
  9 10  1  0
 10 20  2  0
 10 11  1  0
 11 12  2  0
 12 13  1  0
 13 14  1  0
 15 14  1  1
 15 16  1  0
 16  7  1  0
 17 29  1  0
 17 15  1  0
 18 17  2  0
 19 13  2  0
 20 19  1  0
 22 23  2  0
 22 21  1  0
 24 22  1  0
 25 26  1  0
 25 24  1  0
 26 27  1  0
 28 27  1  1
 28 29  1  0
 30 28  1  0
 30 31  1  0
 32 30  2  0
M  END
$$$$
