MYR.pdb
     RDKit          3D

 32 32  0  0  1  0  0  0  0  0999 V2000
    6.7713  -11.1044   20.4276 C   0  0  0  0  0  0  0  0  0  0  0  0
    7.4938  -12.4637   19.5368 S   0  0  0  0  0  0  0  0  0  0  0  0
    7.9226  -13.8936   20.5096 C   0  0  0  0  0  0  0  0  0  0  0  0
    8.4265  -15.0782   19.7952 C   0  0  0  0  0  0  0  0  0  0  0  0
    8.8504  -16.2773   20.5301 C   0  0  2  0  0  0  0  0  0  0  0  0
    7.8576  -17.2277   20.8895 N   0  0  0  0  0  0  0  0  0  0  0  0
    9.6329  -15.9389   21.7791 C   0  0  0  0  0  0  0  0  0  0  0  0
   10.7925  -15.4539   21.7272 O   0  0  0  0  0  0  0  0  0  0  0  0
   11.0294  -14.7951   30.4867 O   0  0  0  0  0  0  0  0  0  0  0  0
   10.4909  -14.9279   29.2110 C   0  0  0  0  0  0  0  0  0  0  0  0
    9.9125  -16.1282   28.7839 C   0  0  0  0  0  0  0  0  0  0  0  0
    9.3823  -16.2434   27.5140 C   0  0  0  0  0  0  0  0  0  0  0  0
    9.4043  -15.1852   26.6275 C   0  0  0  0  0  0  0  0  0  0  0  0
    8.8318  -15.3372   25.2813 C   0  0  0  0  0  0  0  0  0  0  0  0
    9.8361  -15.9375   24.2895 C   0  0  2  0  0  0  0  0  0  0  0  0
    9.0853  -16.1570   23.0702 N   0  0  0  0  0  0  0  0  0  0  0  0
   10.2603  -17.2274   24.9085 C   0  0  0  0  0  0  0  0  0  0  0  0
    9.3568  -18.0419   25.2299 O   0  0  0  0  0  0  0  0  0  0  0  0
    9.9795  -14.0150   27.0733 C   0  0  0  0  0  0  0  0  0  0  0  0
   10.5139  -13.8738   28.3306 C   0  0  0  0  0  0  0  0  0  0  0  0
   14.3907  -18.9460   19.3145 N   0  0  0  0  0  0  0  0  0  0  0  0
   13.4067  -19.6192   20.0768 C   0  0  0  0  0  0  0  0  0  0  0  0
   12.1670  -19.6057   19.6514 N   0  0  0  0  0  0  0  0  0  0  0  0
   13.6798  -20.3119   21.2728 N   0  0  0  0  0  0  0  0  0  0  0  0
   14.2025  -19.6165   22.4752 C   0  0  0  0  0  0  0  0  0  0  0  0
   13.0351  -19.2810   23.3145 C   0  0  0  0  0  0  0  0  0  0  0  0
   13.1029  -19.3138   24.7667 C   0  0  0  0  0  0  0  0  0  0  0  0
   12.0082  -18.9117   25.6655 C   0  0  2  0  0  0  0  0  0  0  0  0
   11.6133  -17.5468   25.1367 N   0  0  0  0  0  0  0  0  0  0  0  0
   12.3106  -18.6357   27.0736 C   0  0  0  0  0  0  0  0  0  0  0  0
   12.3819  -19.6662   28.0438 O   0  0  0  0  0  0  0  0  0  0  0  0
   12.5281  -17.4982   27.5408 O   0  0  0  0  0  0  0  0  0  0  0  0
  2  1  1  0
  3  4  1  0
  3  2  1  0
  5  6  1  1
  5  4  1  0
  7  5  1  0
  8  7  2  0
  9 10  1  0
 10 20  2  0
 10 11  1  0
 11 12  2  0
 12 13  1  0
 13 14  1  0
 15 14  1  1
 15 16  1  0
 16  7  1  0
 17 29  1  0
 17 15  1  0
 18 17  2  0
 19 13  2  0
 20 19  1  0
 22 23  2  0
 22 21  1  0
 24 22  1  0
 25 26  1  0
 25 24  1  0
 26 27  1  0
 28 27  1  6
 28 29  1  0
 30 28  1  0
 30 31  1  0
 32 30  2  0
M  END
$$$$
