MYR.pdb
     RDKit          3D

 32 32  0  0  1  0  0  0  0  0999 V2000
    6.7600  -12.2679   19.3252 C   0  0  0  0  0  0  0  0  0  0  0  0
    7.3442  -13.9478   19.3306 S   0  0  0  0  0  0  0  0  0  0  0  0
    8.8090  -14.2671   18.3676 C   0  0  0  0  0  0  0  0  0  0  0  0
    9.3356  -15.6419   18.3629 C   0  0  0  0  0  0  0  0  0  0  0  0
    9.0617  -16.5573   19.4785 C   0  0  2  0  0  0  0  0  0  0  0  0
    7.7936  -17.1960   19.5242 N   0  0  0  0  0  0  0  0  0  0  0  0
    9.2959  -15.9089   20.8245 C   0  0  0  0  0  0  0  0  0  0  0  0
   10.3484  -15.2695   21.0812 O   0  0  0  0  0  0  0  0  0  0  0  0
    6.9789  -12.1897   28.5260 O   0  0  0  0  0  0  0  0  0  0  0  0
    6.9979  -12.8885   27.3234 C   0  0  0  0  0  0  0  0  0  0  0  0
    6.7319  -12.2532   26.1054 C   0  0  0  0  0  0  0  0  0  0  0  0
    6.7549  -12.9617   24.9202 C   0  0  0  0  0  0  0  0  0  0  0  0
    7.0393  -14.3125   24.8961 C   0  0  0  0  0  0  0  0  0  0  0  0
    7.0568  -15.0410   23.6186 C   0  0  0  0  0  0  0  0  0  0  0  0
    8.4840  -15.3324   23.1378 C   0  0  2  0  0  0  0  0  0  0  0  0
    8.3292  -15.9969   21.8599 N   0  0  0  0  0  0  0  0  0  0  0  0
    9.0531  -16.2527   24.1656 C   0  0  0  0  0  0  0  0  0  0  0  0
    8.5801  -17.4168   24.2281 O   0  0  0  0  0  0  0  0  0  0  0  0
    7.2976  -14.9133   26.1090 C   0  0  0  0  0  0  0  0  0  0  0  0
    7.2812  -14.2324   27.3017 C   0  0  0  0  0  0  0  0  0  0  0  0
   17.6194  -15.8953   23.9229 N   0  0  0  0  0  0  0  0  0  0  0  0
   17.0278  -17.1030   23.4825 C   0  0  0  0  0  0  0  0  0  0  0  0
   17.7435  -17.9200   22.7488 N   0  0  0  0  0  0  0  0  0  0  0  0
   15.7074  -17.4865   23.7892 N   0  0  0  0  0  0  0  0  0  0  0  0
   14.5860  -16.5149   23.7599 C   0  0  0  0  0  0  0  0  0  0  0  0
   13.6478  -16.9147   24.8276 C   0  0  0  0  0  0  0  0  0  0  0  0
   12.3945  -16.2106   25.0471 C   0  0  0  0  0  0  0  0  0  0  0  0
   11.1422  -16.8474   25.4875 C   0  0  2  0  0  0  0  0  0  0  0  0
   10.0805  -15.8593   25.0456 N   0  0  0  0  0  0  0  0  0  0  0  0
   10.8799  -16.9799   26.9242 C   0  0  0  0  0  0  0  0  0  0  0  0
   10.0293  -16.0848   27.6194 O   0  0  0  0  0  0  0  0  0  0  0  0
   11.3670  -17.8692   27.6534 O   0  0  0  0  0  0  0  0  0  0  0  0
  2  1  1  0
  3  4  1  0
  3  2  1  0
  5  6  1  1
  5  4  1  0
  7  5  1  0
  8  7  2  0
  9 10  1  0
 10 20  2  0
 10 11  1  0
 11 12  2  0
 12 13  1  0
 13 14  1  0
 15 14  1  1
 15 16  1  0
 16  7  1  0
 17 29  1  0
 17 15  1  0
 18 17  2  0
 19 13  2  0
 20 19  1  0
 22 23  2  0
 22 21  1  0
 24 22  1  0
 25 26  1  0
 25 24  1  0
 26 27  1  0
 28 27  1  1
 28 29  1  0
 30 28  1  0
 30 31  1  0
 32 30  2  0
M  END
$$$$
