MYR.pdb
     RDKit          3D

 32 32  0  0  1  0  0  0  0  0999 V2000
   10.4851  -20.3379   19.6382 C   0  0  0  0  0  0  0  0  0  0  0  0
    8.7673  -20.1299   19.2267 S   0  0  0  0  0  0  0  0  0  0  0  0
    8.0832  -18.5128   19.5296 C   0  0  0  0  0  0  0  0  0  0  0  0
    8.9282  -17.5365   20.2370 C   0  0  0  0  0  0  0  0  0  0  0  0
    8.4251  -16.1926   20.5509 C   0  0  2  0  0  0  0  0  0  0  0  0
    8.3991  -15.2275   19.5087 N   0  0  0  0  0  0  0  0  0  0  0  0
    9.1399  -15.5727   21.7305 C   0  0  0  0  0  0  0  0  0  0  0  0
   10.1615  -14.8527   21.5865 O   0  0  0  0  0  0  0  0  0  0  0  0
   11.0289  -14.4972   30.3728 O   0  0  0  0  0  0  0  0  0  0  0  0
   10.4016  -14.7313   29.1535 C   0  0  0  0  0  0  0  0  0  0  0  0
   10.1341  -13.6899   28.2581 C   0  0  0  0  0  0  0  0  0  0  0  0
    9.5105  -13.9395   27.0515 C   0  0  0  0  0  0  0  0  0  0  0  0
    9.1318  -15.2167   26.6891 C   0  0  0  0  0  0  0  0  0  0  0  0
    8.4694  -15.4524   25.3973 C   0  0  0  0  0  0  0  0  0  0  0  0
    9.4556  -15.4027   24.2234 C   0  0  2  0  0  0  0  0  0  0  0  0
    8.6825  -15.7803   23.0579 N   0  0  0  0  0  0  0  0  0  0  0  0
   10.4889  -16.4291   24.5485 C   0  0  0  0  0  0  0  0  0  0  0  0
   10.1018  -17.6178   24.6905 O   0  0  0  0  0  0  0  0  0  0  0  0
    9.4069  -16.2236   27.5887 C   0  0  0  0  0  0  0  0  0  0  0  0
   10.0257  -16.0029   28.7949 C   0  0  0  0  0  0  0  0  0  0  0  0
   17.5275  -14.0838   20.8245 N   0  0  0  0  0  0  0  0  0  0  0  0
   16.4130  -14.7587   20.2723 C   0  0  0  0  0  0  0  0  0  0  0  0
   16.2121  -14.6822   18.9792 N   0  0  0  0  0  0  0  0  0  0  0  0
   15.5005  -15.5169   21.0319 N   0  0  0  0  0  0  0  0  0  0  0  0
   15.5362  -15.5232   22.5155 C   0  0  0  0  0  0  0  0  0  0  0  0
   14.4476  -16.4141   22.9642 C   0  0  0  0  0  0  0  0  0  0  0  0
   14.1226  -16.5748   24.3724 C   0  0  0  0  0  0  0  0  0  0  0  0
   12.8896  -17.1979   24.8815 C   0  0  2  0  0  0  0  0  0  0  0  0
   11.8524  -16.1075   24.6972 N   0  0  0  0  0  0  0  0  0  0  0  0
   12.7859  -17.5016   26.3123 C   0  0  0  0  0  0  0  0  0  0  0  0
   12.9793  -18.8107   26.8196 O   0  0  0  0  0  0  0  0  0  0  0  0
   12.5245  -16.6600   27.1973 O   0  0  0  0  0  0  0  0  0  0  0  0
  2  1  1  0
  3  4  1  0
  3  2  1  0
  5  6  1  6
  5  4  1  0
  7  5  1  0
  8  7  2  0
  9 10  1  0
 10 20  2  0
 10 11  1  0
 11 12  2  0
 12 13  1  0
 13 14  1  0
 15 14  1  1
 15 16  1  0
 16  7  1  0
 17 29  1  0
 17 15  1  0
 18 17  2  0
 19 13  2  0
 20 19  1  0
 22 23  2  0
 22 21  1  0
 24 22  1  0
 25 26  1  0
 25 24  1  0
 26 27  1  0
 28 27  1  1
 28 29  1  0
 30 28  1  0
 30 31  1  0
 32 30  2  0
M  END
$$$$
