MYR.pdb
     RDKit          3D

 32 32  0  0  1  0  0  0  0  0999 V2000
    9.7459  -12.2372   27.5491 C   0  0  0  0  0  0  0  0  0  0  0  0
   10.0220  -13.3545   28.9051 S   0  0  0  0  0  0  0  0  0  0  0  0
   10.0493  -15.0881   28.4940 C   0  0  0  0  0  0  0  0  0  0  0  0
    8.9351  -15.6156   27.6891 C   0  0  0  0  0  0  0  0  0  0  0  0
    9.1780  -16.5757   26.6043 C   0  0  2  0  0  0  0  0  0  0  0  0
   10.5227  -16.8252   26.2200 N   0  0  0  0  0  0  0  0  0  0  0  0
    8.4000  -16.2371   25.3526 C   0  0  0  0  0  0  0  0  0  0  0  0
    7.1555  -16.0536   25.3714 O   0  0  0  0  0  0  0  0  0  0  0  0
    7.4770  -12.9589   17.1840 O   0  0  0  0  0  0  0  0  0  0  0  0
    7.7572  -13.2999   18.5031 C   0  0  0  0  0  0  0  0  0  0  0  0
    8.4205  -12.4156   19.3608 C   0  0  0  0  0  0  0  0  0  0  0  0
    8.6910  -12.7699   20.6679 C   0  0  0  0  0  0  0  0  0  0  0  0
    8.3187  -14.0007   21.1705 C   0  0  0  0  0  0  0  0  0  0  0  0
    8.6200  -14.3504   22.5669 C   0  0  0  0  0  0  0  0  0  0  0  0
    8.3346  -15.8271   22.8685 C   0  0  2  0  0  0  0  0  0  0  0  0
    9.0486  -16.1118   24.0964 N   0  0  0  0  0  0  0  0  0  0  0  0
    8.9165  -16.5723   21.7139 C   0  0  0  0  0  0  0  0  0  0  0  0
    8.3090  -16.5054   20.6142 O   0  0  0  0  0  0  0  0  0  0  0  0
    7.6670  -14.8523   20.3050 C   0  0  0  0  0  0  0  0  0  0  0  0
    7.3859  -14.5251   19.0010 C   0  0  0  0  0  0  0  0  0  0  0  0
   15.8410  -13.5161   19.1089 N   0  0  0  0  0  0  0  0  0  0  0  0
   14.9991  -14.6246   18.8535 C   0  0  0  0  0  0  0  0  0  0  0  0
   15.5101  -15.6755   18.2597 N   0  0  0  0  0  0  0  0  0  0  0  0
   13.6355  -14.6703   19.2040 N   0  0  0  0  0  0  0  0  0  0  0  0
   12.7812  -15.8352   18.8640 C   0  0  0  0  0  0  0  0  0  0  0  0
   12.1832  -16.3085   20.1283 C   0  0  0  0  0  0  0  0  0  0  0  0
   11.8782  -17.7128   20.3512 C   0  0  0  0  0  0  0  0  0  0  0  0
   10.5450  -18.2364   20.6920 C   0  0  2  0  0  0  0  0  0  0  0  0
   10.0990  -17.3303   21.8229 N   0  0  0  0  0  0  0  0  0  0  0  0
   10.4377  -19.5716   21.2885 C   0  0  0  0  0  0  0  0  0  0  0  0
   10.3691  -19.7661   22.6906 O   0  0  0  0  0  0  0  0  0  0  0  0
   10.3976  -20.6365   20.6373 O   0  0  0  0  0  0  0  0  0  0  0  0
  2  1  1  0
  3  4  1  0
  3  2  1  0
  5  6  1  6
  5  4  1  0
  7  5  1  0
  8  7  2  0
  9 10  1  0
 10 20  2  0
 10 11  1  0
 11 12  2  0
 12 13  1  0
 13 14  1  0
 15 14  1  6
 15 16  1  0
 16  7  1  0
 17 29  1  0
 17 15  1  0
 18 17  2  0
 19 13  2  0
 20 19  1  0
 22 23  2  0
 22 21  1  0
 24 22  1  0
 25 26  1  0
 25 24  1  0
 26 27  1  0
 28 27  1  1
 28 29  1  0
 30 28  1  0
 30 31  1  0
 32 30  2  0
M  END
$$$$
