MYR.pdb
     RDKit          3D

 32 32  0  0  1  0  0  0  0  0999 V2000
    6.6804  -10.6655   26.0449 C   0  0  0  0  0  0  0  0  0  0  0  0
    6.3222  -12.3630   25.6529 S   0  0  0  0  0  0  0  0  0  0  0  0
    6.4789  -13.5233   26.9961 C   0  0  0  0  0  0  0  0  0  0  0  0
    6.2072  -14.9411   26.7076 C   0  0  0  0  0  0  0  0  0  0  0  0
    6.4620  -15.5006   25.3735 C   0  0  2  0  0  0  0  0  0  0  0  0
    6.1224  -16.8605   25.1422 N   0  0  0  0  0  0  0  0  0  0  0  0
    7.8955  -15.3060   24.9332 C   0  0  0  0  0  0  0  0  0  0  0  0
    8.2772  -14.2568   24.3533 O   0  0  0  0  0  0  0  0  0  0  0  0
   10.5191  -14.6575   31.0078 O   0  0  0  0  0  0  0  0  0  0  0  0
   10.6522  -15.2140   29.7399 C   0  0  0  0  0  0  0  0  0  0  0  0
   10.6418  -14.4189   28.5887 C   0  0  0  0  0  0  0  0  0  0  0  0
   10.7752  -14.9875   27.3372 C   0  0  0  0  0  0  0  0  0  0  0  0
   10.9225  -16.3511   27.1796 C   0  0  0  0  0  0  0  0  0  0  0  0
   11.0625  -16.9284   25.8341 C   0  0  0  0  0  0  0  0  0  0  0  0
   10.2650  -16.1464   24.7827 C   0  0  2  0  0  0  0  0  0  0  0  0
    8.8752  -16.3078   25.1586 N   0  0  0  0  0  0  0  0  0  0  0  0
   10.5633  -16.8300   23.4903 C   0  0  0  0  0  0  0  0  0  0  0  0
   10.0629  -17.9698   23.3074 O   0  0  0  0  0  0  0  0  0  0  0  0
   10.9294  -17.1108   28.3292 C   0  0  0  0  0  0  0  0  0  0  0  0
   10.7987  -16.5710   29.5854 C   0  0  0  0  0  0  0  0  0  0  0  0
    7.7361  -13.7581   18.6760 N   0  0  0  0  0  0  0  0  0  0  0  0
    8.4663  -13.9045   17.4727 C   0  0  0  0  0  0  0  0  0  0  0  0
    8.3138  -13.0026   16.5339 N   0  0  0  0  0  0  0  0  0  0  0  0
    9.3570  -14.9664   17.2206 N   0  0  0  0  0  0  0  0  0  0  0  0
    9.4120  -16.1633   18.0963 C   0  0  0  0  0  0  0  0  0  0  0  0
   10.7099  -16.1180   18.7987 C   0  0  0  0  0  0  0  0  0  0  0  0
   10.7926  -15.9772   20.2437 C   0  0  0  0  0  0  0  0  0  0  0  0
   11.5184  -16.8976   21.1347 C   0  0  2  0  0  0  0  0  0  0  0  0
   11.3717  -16.2454   22.4955 N   0  0  0  0  0  0  0  0  0  0  0  0
   12.9725  -17.0235   20.9937 C   0  0  0  0  0  0  0  0  0  0  0  0
   13.5644  -17.9516   20.1012 O   0  0  0  0  0  0  0  0  0  0  0  0
   13.8065  -16.3443   21.6285 O   0  0  0  0  0  0  0  0  0  0  0  0
  2  1  1  0
  3  4  1  0
  3  2  1  0
  5  6  1  1
  5  4  1  0
  7  5  1  0
  8  7  2  0
  9 10  1  0
 10 20  2  0
 10 11  1  0
 11 12  2  0
 12 13  1  0
 13 14  1  0
 15 14  1  1
 15 16  1  0
 16  7  1  0
 17 29  1  0
 17 15  1  0
 18 17  2  0
 19 13  2  0
 20 19  1  0
 22 23  2  0
 22 21  1  0
 24 22  1  0
 25 26  1  0
 25 24  1  0
 26 27  1  0
 28 27  1  6
 28 29  1  0
 30 28  1  0
 30 31  1  0
 32 30  2  0
M  END
$$$$
