ESW.pdb
     RDKit          3D

 30 31  0  0  1  0  0  0  0  0999 V2000
   25.0120  -20.7598  -20.1734 N   0  0  0  0  0  0  0  0  0  0  0  0
   25.3996  -19.7228  -19.3163 C   0  0  1  0  0  0  0  0  0  0  0  0
   25.7780  -18.4860  -20.0352 C   0  0  0  0  0  0  0  0  0  0  0  0
   27.1157  -18.4196  -20.6762 C   0  0  0  0  0  0  0  0  0  0  0  0
   27.4997  -19.5054  -21.5674 C   0  0  0  0  0  0  0  0  0  0  0  0
   26.8832  -19.8657  -22.5994 O   0  0  0  0  0  0  0  0  0  0  0  0
   24.4057  -19.4465  -18.2264 C   0  0  0  0  0  0  0  0  0  0  0  0
   23.7654  -18.3704  -18.2743 O   0  0  0  0  0  0  0  0  0  0  0  0
   28.6618  -20.2854  -21.3285 O   0  0  0  0  0  0  0  0  0  0  0  0
   21.5754  -21.9541  -16.8493 O   0  0  0  0  0  0  0  0  0  0  0  0
   21.8231  -20.6510  -16.5506 C   0  0  0  0  0  0  0  0  0  0  0  0
   23.2062  -20.2759  -16.1599 C   0  0  2  0  0  0  0  0  0  0  0  0
   24.2131  -20.3816  -17.1891 N   0  0  0  0  0  0  0  0  0  0  0  0
   23.6654  -20.8184  -14.8725 C   0  0  0  0  0  0  0  0  0  0  0  0
   24.6736  -21.5978  -14.7820 O   0  0  0  0  0  0  0  0  0  0  0  0
   23.0333  -20.5181  -13.6387 N   0  0  0  0  0  0  0  0  0  0  0  0
   23.5851  -21.1001  -12.3734 C   0  0  1  0  0  0  0  0  0  0  0  0
   24.9078  -20.3973  -12.2081 C   0  0  0  0  0  0  0  0  0  0  0  0
   25.5836  -20.5761  -10.9362 C   0  0  0  0  0  0  0  0  0  0  0  0
   25.1444  -20.6449   -9.6435 C   0  0  0  0  0  0  0  0  0  0  0  0
   26.1923  -20.8610   -8.8079 N   0  0  0  0  0  0  0  0  0  0  0  0
   27.3487  -20.9405   -9.5338 C   0  0  0  0  0  0  0  0  0  0  0  0
   28.6626  -21.1518   -9.1795 C   0  0  0  0  0  0  0  0  0  0  0  0
   29.6481  -21.1966  -10.1300 C   0  0  0  0  0  0  0  0  0  0  0  0
   29.2867  -21.0252  -11.4374 C   0  0  0  0  0  0  0  0  0  0  0  0
   27.9704  -20.8105  -11.8070 C   0  0  0  0  0  0  0  0  0  0  0  0
   26.9657  -20.7639  -10.8468 C   0  0  0  0  0  0  0  0  0  0  0  0
   22.7034  -20.7557  -11.2536 C   0  0  0  0  0  0  0  0  0  0  0  0
   22.0129  -19.7261  -11.2651 O   0  0  0  0  0  0  0  0  0  0  0  0
   22.6299  -21.5857  -10.1531 O   0  0  0  0  0  0  0  0  0  0  0  0
  2  1  1  6
  2  7  1  0
  2  3  1  0
  4  3  1  0
  5  4  1  0
  5  6  2  0
  7  8  2  0
  9  5  1  0
 10 11  1  0
 12 11  1  6
 13 12  1  0
 13  7  1  0
 14 12  1  0
 14 15  2  0
 16 14  1  0
 17 16  1  0
 17 28  1  0
 17 18  1  1
 19 27  1  0
 19 18  1  0
 20 19  2  0
 21 20  1  0
 21 22  1  0
 22 27  2  0
 23 22  1  0
 23 24  2  0
 24 25  1  0
 25 26  2  0
 27 26  1  0
 28 29  2  0
 28 30  1  0
M  END
$$$$
