ESW.pdb
     RDKit          3D

 30 31  0  0  1  0  0  0  0  0999 V2000
   16.9017   -9.0904  -19.9628 N   0  0  0  0  0  0  0  0  0  0  0  0
   16.8534   -8.3692  -18.7638 C   0  0  1  0  0  0  0  0  0  0  0  0
   16.4299   -9.1911  -17.6084 C   0  0  0  0  0  0  0  0  0  0  0  0
   17.3028  -10.3126  -17.1782 C   0  0  0  0  0  0  0  0  0  0  0  0
   16.8993  -11.0813  -16.0091 C   0  0  0  0  0  0  0  0  0  0  0  0
   15.8392  -11.7426  -15.8911 O   0  0  0  0  0  0  0  0  0  0  0  0
   18.1161   -7.6130  -18.4710 C   0  0  0  0  0  0  0  0  0  0  0  0
   19.2062   -8.1469  -18.7825 O   0  0  0  0  0  0  0  0  0  0  0  0
   17.7133  -11.1476  -14.8478 O   0  0  0  0  0  0  0  0  0  0  0  0
   18.1110   -3.6999  -16.3418 O   0  0  0  0  0  0  0  0  0  0  0  0
   18.9703   -4.0924  -17.3196 C   0  0  0  0  0  0  0  0  0  0  0  0
   19.2056   -5.5482  -17.4981 C   0  0  2  0  0  0  0  0  0  0  0  0
   18.0566   -6.3423  -17.8634 N   0  0  0  0  0  0  0  0  0  0  0  0
   20.0154   -6.1877  -16.4504 C   0  0  0  0  0  0  0  0  0  0  0  0
   19.4888   -6.8031  -15.4624 O   0  0  0  0  0  0  0  0  0  0  0  0
   21.4338   -6.1763  -16.4562 N   0  0  0  0  0  0  0  0  0  0  0  0
   22.1753   -6.8602  -15.3487 C   0  0  1  0  0  0  0  0  0  0  0  0
   23.4852   -7.2462  -15.9856 C   0  0  0  0  0  0  0  0  0  0  0  0
   24.0959   -8.4777  -15.5196 C   0  0  0  0  0  0  0  0  0  0  0  0
   23.6619   -9.4912  -14.7114 C   0  0  0  0  0  0  0  0  0  0  0  0
   24.6184  -10.4498  -14.6144 N   0  0  0  0  0  0  0  0  0  0  0  0
   25.7069  -10.0884  -15.3595 C   0  0  0  0  0  0  0  0  0  0  0  0
   26.9180  -10.6972  -15.6020 C   0  0  0  0  0  0  0  0  0  0  0  0
   27.8499  -10.1086  -16.4157 C   0  0  0  0  0  0  0  0  0  0  0  0
   27.5400   -8.9013  -16.9773 C   0  0  0  0  0  0  0  0  0  0  0  0
   26.3272   -8.2778  -16.7407 C   0  0  0  0  0  0  0  0  0  0  0  0
   25.3774   -8.8702  -15.9157 C   0  0  0  0  0  0  0  0  0  0  0  0
   22.4201   -5.9050  -14.2637 C   0  0  0  0  0  0  0  0  0  0  0  0
   22.5639   -4.6939  -14.4863 O   0  0  0  0  0  0  0  0  0  0  0  0
   22.4965   -6.3481  -12.9586 O   0  0  0  0  0  0  0  0  0  0  0  0
  2  1  1  6
  2  7  1  0
  2  3  1  0
  4  3  1  0
  5  4  1  0
  5  6  2  0
  7  8  2  0
  9  5  1  0
 10 11  1  0
 12 11  1  1
 13 12  1  0
 13  7  1  0
 14 12  1  0
 14 15  2  0
 16 14  1  0
 17 16  1  0
 17 28  1  0
 17 18  1  6
 19 27  1  0
 19 18  1  0
 20 19  2  0
 21 20  1  0
 21 22  1  0
 22 27  2  0
 23 22  1  0
 23 24  2  0
 24 25  1  0
 25 26  2  0
 27 26  1  0
 28 29  2  0
 28 30  1  0
M  END
$$$$
