ESW.pdb
     RDKit          3D

 30 31  0  0  1  0  0  0  0  0999 V2000
   24.3588   -5.3353  -19.8487 N   0  0  0  0  0  0  0  0  0  0  0  0
   23.7298   -4.6986  -18.7721 C   0  0  1  0  0  0  0  0  0  0  0  0
   22.8622   -3.5746  -19.1884 C   0  0  0  0  0  0  0  0  0  0  0  0
   23.4767   -2.4378  -19.9198 C   0  0  0  0  0  0  0  0  0  0  0  0
   22.6192   -1.3197  -20.2873 C   0  0  0  0  0  0  0  0  0  0  0  0
   22.1601   -1.0874  -21.4320 O   0  0  0  0  0  0  0  0  0  0  0  0
   23.0078   -5.6451  -17.8583 C   0  0  0  0  0  0  0  0  0  0  0  0
   22.5519   -6.7036  -18.3502 O   0  0  0  0  0  0  0  0  0  0  0  0
   22.2127   -0.3513  -19.3319 O   0  0  0  0  0  0  0  0  0  0  0  0
   21.9143   -4.5810  -13.6686 O   0  0  0  0  0  0  0  0  0  0  0  0
   22.3209   -5.8021  -14.1069 C   0  0  0  0  0  0  0  0  0  0  0  0
   22.1182   -6.1313  -15.5411 C   0  0  2  0  0  0  0  0  0  0  0  0
   22.8574   -5.3345  -16.4914 N   0  0  0  0  0  0  0  0  0  0  0  0
   20.7196   -6.3311  -15.9492 C   0  0  0  0  0  0  0  0  0  0  0  0
   20.0506   -5.4271  -16.5552 O   0  0  0  0  0  0  0  0  0  0  0  0
   20.0099   -7.5354  -15.7085 N   0  0  0  0  0  0  0  0  0  0  0  0
   18.6128   -7.6778  -16.2301 C   0  0  1  0  0  0  0  0  0  0  0  0
   18.6408   -8.9945  -16.9622 C   0  0  0  0  0  0  0  0  0  0  0  0
   18.7713  -10.1881  -16.1469 C   0  0  0  0  0  0  0  0  0  0  0  0
   18.6815  -10.4189  -14.8025 C   0  0  0  0  0  0  0  0  0  0  0  0
   18.8502  -11.7413  -14.5460 N   0  0  0  0  0  0  0  0  0  0  0  0
   19.0547  -12.4135  -15.7193 C   0  0  0  0  0  0  0  0  0  0  0  0
   19.2669  -13.7425  -16.0110 C   0  0  0  0  0  0  0  0  0  0  0  0
   19.4363  -14.1596  -17.3050 C   0  0  0  0  0  0  0  0  0  0  0  0
   19.3880  -13.2171  -18.2942 C   0  0  0  0  0  0  0  0  0  0  0  0
   19.1770  -11.8781  -18.0149 C   0  0  0  0  0  0  0  0  0  0  0  0
   19.0045  -11.4487  -16.7036 C   0  0  0  0  0  0  0  0  0  0  0  0
   17.6784   -7.7628  -15.1033 C   0  0  0  0  0  0  0  0  0  0  0  0
   18.0755   -7.7457  -13.9290 O   0  0  0  0  0  0  0  0  0  0  0  0
   16.3221   -7.8661  -15.3383 O   0  0  0  0  0  0  0  0  0  0  0  0
  2  1  1  6
  2  7  1  0
  2  3  1  0
  4  3  1  0
  5  4  1  0
  5  6  2  0
  7  8  2  0
  9  5  1  0
 10 11  1  0
 12 11  1  1
 13 12  1  0
 13  7  1  0
 14 12  1  0
 14 15  2  0
 16 14  1  0
 17 16  1  0
 17 28  1  0
 17 18  1  1
 19 27  1  0
 19 18  1  0
 20 19  2  0
 21 20  1  0
 21 22  1  0
 22 27  2  0
 23 22  1  0
 23 24  2  0
 24 25  1  0
 25 26  2  0
 27 26  1  0
 28 29  2  0
 28 30  1  0
M  END
$$$$
