ESW.pdb
     RDKit          3D

 30 31  0  0  1  0  0  0  0  0999 V2000
   20.8139  -10.9066  -20.6077 N   0  0  0  0  0  0  0  0  0  0  0  0
   20.1735   -9.9550  -19.8048 C   0  0  1  0  0  0  0  0  0  0  0  0
   19.5433  -10.5405  -18.6008 C   0  0  0  0  0  0  0  0  0  0  0  0
   18.5406  -11.6210  -18.7798 C   0  0  0  0  0  0  0  0  0  0  0  0
   17.9275  -12.1870  -17.5863 C   0  0  0  0  0  0  0  0  0  0  0  0
   17.0289  -13.0628  -17.5633 O   0  0  0  0  0  0  0  0  0  0  0  0
   21.0446   -8.7832  -19.4583 C   0  0  0  0  0  0  0  0  0  0  0  0
   22.0332   -8.5488  -20.1919 O   0  0  0  0  0  0  0  0  0  0  0  0
   18.3156  -11.7723  -16.2851 O   0  0  0  0  0  0  0  0  0  0  0  0
   22.0537   -4.5496  -18.9239 O   0  0  0  0  0  0  0  0  0  0  0  0
   21.5678   -5.7926  -19.1833 C   0  0  0  0  0  0  0  0  0  0  0  0
   21.3667   -6.7159  -18.0372 C   0  0  2  0  0  0  0  0  0  0  0  0
   20.7432   -7.9829  -18.3376 N   0  0  0  0  0  0  0  0  0  0  0  0
   20.8176   -6.0984  -16.8207 C   0  0  0  0  0  0  0  0  0  0  0  0
   19.5810   -5.7983  -16.7074 O   0  0  0  0  0  0  0  0  0  0  0  0
   21.6101   -5.7940  -15.6844 N   0  0  0  0  0  0  0  0  0  0  0  0
   20.9352   -5.4002  -14.4063 C   0  0  1  0  0  0  0  0  0  0  0  0
   20.8943   -6.6835  -13.6177 C   0  0  0  0  0  0  0  0  0  0  0  0
   20.1997   -6.6411  -12.3440 C   0  0  0  0  0  0  0  0  0  0  0  0
   20.2030   -5.7537  -11.3041 C   0  0  0  0  0  0  0  0  0  0  0  0
   19.3348   -6.1610  -10.3432 N   0  0  0  0  0  0  0  0  0  0  0  0
   18.7377   -7.3291  -10.7301 C   0  0  0  0  0  0  0  0  0  0  0  0
   17.7950   -8.1388  -10.1368 C   0  0  0  0  0  0  0  0  0  0  0  0
   17.3513   -9.2747  -10.7609 C   0  0  0  0  0  0  0  0  0  0  0  0
   17.8727   -9.5778  -11.9879 C   0  0  0  0  0  0  0  0  0  0  0  0
   18.8217   -8.7737  -12.5948 C   0  0  0  0  0  0  0  0  0  0  0  0
   19.2760   -7.6196  -11.9662 C   0  0  0  0  0  0  0  0  0  0  0  0
   21.7634   -4.4171  -13.7008 C   0  0  0  0  0  0  0  0  0  0  0  0
   22.9868   -4.3462  -13.8884 O   0  0  0  0  0  0  0  0  0  0  0  0
   21.1833   -3.5440  -12.8028 O   0  0  0  0  0  0  0  0  0  0  0  0
  2  1  1  1
  2  7  1  0
  2  3  1  0
  4  3  1  0
  5  4  1  0
  5  6  2  0
  7  8  2  0
  9  5  1  0
 10 11  1  0
 12 11  1  6
 13 12  1  0
 13  7  1  0
 14 12  1  0
 14 15  2  0
 16 14  1  0
 17 16  1  0
 17 28  1  0
 17 18  1  1
 19 27  1  0
 19 18  1  0
 20 19  2  0
 21 20  1  0
 21 22  1  0
 22 27  2  0
 23 22  1  0
 23 24  2  0
 24 25  1  0
 25 26  2  0
 27 26  1  0
 28 29  2  0
 28 30  1  0
M  END
$$$$
