ESW.pdb
     RDKit          3D

 30 31  0  0  1  0  0  0  0  0999 V2000
   27.8285  -22.8870  -16.1153 N   0  0  0  0  0  0  0  0  0  0  0  0
   28.4933  -21.8904  -15.3906 C   0  0  1  0  0  0  0  0  0  0  0  0
   29.2107  -20.9256  -16.2533 C   0  0  0  0  0  0  0  0  0  0  0  0
   30.1096  -21.4526  -17.3112 C   0  0  0  0  0  0  0  0  0  0  0  0
   29.5435  -21.6888  -18.6319 C   0  0  0  0  0  0  0  0  0  0  0  0
   28.6881  -20.9727  -19.2067 O   0  0  0  0  0  0  0  0  0  0  0  0
   27.6164  -21.1932  -14.3920 C   0  0  0  0  0  0  0  0  0  0  0  0
   28.1405  -20.3267  -13.6539 O   0  0  0  0  0  0  0  0  0  0  0  0
   29.9324  -22.8063  -19.4166 O   0  0  0  0  0  0  0  0  0  0  0  0
   23.2130  -21.9420  -14.0925 O   0  0  0  0  0  0  0  0  0  0  0  0
   23.8995  -20.7788  -13.9367 C   0  0  0  0  0  0  0  0  0  0  0  0
   25.2975  -20.8553  -13.4405 C   0  0  2  0  0  0  0  0  0  0  0  0
   26.2475  -21.5177  -14.3026 N   0  0  0  0  0  0  0  0  0  0  0  0
   25.4447  -21.2589  -12.0341 C   0  0  0  0  0  0  0  0  0  0  0  0
   25.7072  -22.4620  -11.6941 O   0  0  0  0  0  0  0  0  0  0  0  0
   25.3126  -20.3506  -10.9526 N   0  0  0  0  0  0  0  0  0  0  0  0
   25.2074  -20.8853   -9.5571 C   0  0  1  0  0  0  0  0  0  0  0  0
   26.0559  -19.9371   -8.7500 C   0  0  0  0  0  0  0  0  0  0  0  0
   27.3831  -20.4002   -8.3888 C   0  0  0  0  0  0  0  0  0  0  0  0
   28.3249  -21.1459   -9.0413 C   0  0  0  0  0  0  0  0  0  0  0  0
   29.4343  -21.2717   -8.2690 N   0  0  0  0  0  0  0  0  0  0  0  0
   29.2479  -20.6089   -7.0873 C   0  0  0  0  0  0  0  0  0  0  0  0
   30.0490  -20.4235   -5.9826 C   0  0  0  0  0  0  0  0  0  0  0  0
   29.6106  -19.6898   -4.9119 C   0  0  0  0  0  0  0  0  0  0  0  0
   28.3563  -19.1495   -4.9749 C   0  0  0  0  0  0  0  0  0  0  0  0
   27.5404  -19.3294   -6.0783 C   0  0  0  0  0  0  0  0  0  0  0  0
   27.9797  -20.0731   -7.1680 C   0  0  0  0  0  0  0  0  0  0  0  0
   23.8145  -20.8015   -9.1070 C   0  0  0  0  0  0  0  0  0  0  0  0
   22.9589  -20.1838   -9.7576 O   0  0  0  0  0  0  0  0  0  0  0  0
   23.4307  -21.4181   -7.9331 O   0  0  0  0  0  0  0  0  0  0  0  0
  2  1  1  6
  2  7  1  0
  2  3  1  0
  4  3  1  0
  5  4  1  0
  5  6  2  0
  7  8  2  0
  9  5  1  0
 10 11  1  0
 12 11  1  6
 13 12  1  0
 13  7  1  0
 14 12  1  0
 14 15  2  0
 16 14  1  0
 17 16  1  0
 17 28  1  0
 17 18  1  1
 19 27  1  0
 19 18  1  0
 20 19  2  0
 21 20  1  0
 21 22  1  0
 22 27  2  0
 23 22  1  0
 23 24  2  0
 24 25  1  0
 25 26  2  0
 27 26  1  0
 28 29  2  0
 28 30  1  0
M  END
$$$$
