ESW.pdb
     RDKit          3D

 30 31  0  0  1  0  0  0  0  0999 V2000
   24.1574  -18.4486  -16.2565 N   0  0  0  0  0  0  0  0  0  0  0  0
   23.9075  -19.6341  -15.5548 C   0  0  1  0  0  0  0  0  0  0  0  0
   24.7704  -20.7565  -15.9850 C   0  0  0  0  0  0  0  0  0  0  0  0
   26.1438  -20.8487  -15.4281 C   0  0  0  0  0  0  0  0  0  0  0  0
   26.9898  -21.9455  -15.8775 C   0  0  0  0  0  0  0  0  0  0  0  0
   27.7110  -21.9478  -16.9045 O   0  0  0  0  0  0  0  0  0  0  0  0
   23.9280  -19.4608  -14.0642 C   0  0  0  0  0  0  0  0  0  0  0  0
   24.7083  -18.6065  -13.5828 O   0  0  0  0  0  0  0  0  0  0  0  0
   27.0708  -23.1644  -15.1538 O   0  0  0  0  0  0  0  0  0  0  0  0
   21.5640  -20.4764   -9.8623 O   0  0  0  0  0  0  0  0  0  0  0  0
   21.6610  -20.4337  -11.2178 C   0  0  0  0  0  0  0  0  0  0  0  0
   22.9866  -20.1252  -11.8127 C   0  0  2  0  0  0  0  0  0  0  0  0
   23.0878  -20.2450  -13.2479 N   0  0  0  0  0  0  0  0  0  0  0  0
   24.1403  -20.7192  -11.1208 C   0  0  0  0  0  0  0  0  0  0  0  0
   24.6249  -21.8534  -11.4537 O   0  0  0  0  0  0  0  0  0  0  0  0
   24.8041  -20.0828  -10.0407 N   0  0  0  0  0  0  0  0  0  0  0  0
   25.8396  -20.8421   -9.2692 C   0  0  1  0  0  0  0  0  0  0  0  0
   26.8085  -19.7743   -8.8317 C   0  0  0  0  0  0  0  0  0  0  0  0
   27.9493  -20.2136   -8.0493 C   0  0  0  0  0  0  0  0  0  0  0  0
   28.9504  -21.1160   -8.2778 C   0  0  0  0  0  0  0  0  0  0  0  0
   29.8092  -21.1330   -7.2265 N   0  0  0  0  0  0  0  0  0  0  0  0
   29.3921  -20.2389   -6.2793 C   0  0  0  0  0  0  0  0  0  0  0  0
   29.8993  -19.8709   -5.0530 C   0  0  0  0  0  0  0  0  0  0  0  0
   29.2749  -18.9185   -4.2915 C   0  0  0  0  0  0  0  0  0  0  0  0
   28.1357  -18.3469   -4.7863 C   0  0  0  0  0  0  0  0  0  0  0  0
   27.6145  -18.7086   -6.0164 C   0  0  0  0  0  0  0  0  0  0  0  0
   28.2437  -19.6746   -6.7938 C   0  0  0  0  0  0  0  0  0  0  0  0
   25.2179  -21.4532   -8.0902 C   0  0  0  0  0  0  0  0  0  0  0  0
   25.7393  -22.4153   -7.5076 O   0  0  0  0  0  0  0  0  0  0  0  0
   24.0238  -20.9585   -7.6056 O   0  0  0  0  0  0  0  0  0  0  0  0
  2  1  1  6
  2  7  1  0
  2  3  1  0
  4  3  1  0
  5  4  1  0
  5  6  2  0
  7  8  2  0
  9  5  1  0
 10 11  1  0
 12 11  1  1
 13 12  1  0
 13  7  1  0
 14 12  1  0
 14 15  2  0
 16 14  1  0
 17 16  1  0
 17 28  1  0
 17 18  1  1
 19 27  1  0
 19 18  1  0
 20 19  2  0
 21 20  1  0
 21 22  1  0
 22 27  2  0
 23 22  1  0
 23 24  2  0
 24 25  1  0
 25 26  2  0
 27 26  1  0
 28 29  2  0
 28 30  1  0
M  END
$$$$
