ESW.pdb
     RDKit          3D

 30 31  0  0  1  0  0  0  0  0999 V2000
   19.9797  -11.7712  -16.7662 N   0  0  0  0  0  0  0  0  0  0  0  0
   19.0959  -10.8210  -16.2407 C   0  0  1  0  0  0  0  0  0  0  0  0
   18.7174  -11.0940  -14.8364 C   0  0  0  0  0  0  0  0  0  0  0  0
   17.9867  -12.3498  -14.5305 C   0  0  0  0  0  0  0  0  0  0  0  0
   16.7064  -12.5715  -15.1880 C   0  0  0  0  0  0  0  0  0  0  0  0
   16.5178  -13.2534  -16.2245 O   0  0  0  0  0  0  0  0  0  0  0  0
   19.5634   -9.4066  -16.4222 C   0  0  0  0  0  0  0  0  0  0  0  0
   20.7849   -9.1682  -16.2752 O   0  0  0  0  0  0  0  0  0  0  0  0
   15.5060  -12.0043  -14.6847 O   0  0  0  0  0  0  0  0  0  0  0  0
   16.7781   -6.0478  -17.3763 O   0  0  0  0  0  0  0  0  0  0  0  0
   18.0399   -6.2402  -17.8446 C   0  0  0  0  0  0  0  0  0  0  0  0
   18.9869   -7.0128  -17.0003 C   0  0  2  0  0  0  0  0  0  0  0  0
   18.6409   -8.3915  -16.7476 N   0  0  0  0  0  0  0  0  0  0  0  0
   19.4551   -6.3240  -15.7883 C   0  0  0  0  0  0  0  0  0  0  0  0
   18.9623   -6.5644  -14.6344 O   0  0  0  0  0  0  0  0  0  0  0  0
   20.4858   -5.3497  -15.8036 N   0  0  0  0  0  0  0  0  0  0  0  0
   20.9762   -4.7833  -14.5063 C   0  0  1  0  0  0  0  0  0  0  0  0
   21.7563   -5.9193  -13.8967 C   0  0  0  0  0  0  0  0  0  0  0  0
   22.9164   -6.3811  -14.6366 C   0  0  0  0  0  0  0  0  0  0  0  0
   23.8681   -5.7418  -15.3812 C   0  0  0  0  0  0  0  0  0  0  0  0
   24.7769   -6.6387  -15.8423 N   0  0  0  0  0  0  0  0  0  0  0  0
   24.4436   -7.8927  -15.4098 C   0  0  0  0  0  0  0  0  0  0  0  0
   25.0256   -9.1282  -15.5862 C   0  0  0  0  0  0  0  0  0  0  0  0
   24.4785  -10.2499  -15.0211 C   0  0  0  0  0  0  0  0  0  0  0  0
   23.3397  -10.1038  -14.2787 C   0  0  0  0  0  0  0  0  0  0  0  0
   22.7437   -8.8683  -14.0947 C   0  0  0  0  0  0  0  0  0  0  0  0
   23.2943   -7.7263  -14.6659 C   0  0  0  0  0  0  0  0  0  0  0  0
   21.8772   -3.6583  -14.7754 C   0  0  0  0  0  0  0  0  0  0  0  0
   22.1089   -3.2755  -15.9316 O   0  0  0  0  0  0  0  0  0  0  0  0
   22.4908   -3.0003  -13.7285 O   0  0  0  0  0  0  0  0  0  0  0  0
  2  1  1  1
  2  7  1  0
  2  3  1  0
  4  3  1  0
  5  4  1  0
  5  6  2  0
  7  8  2  0
  9  5  1  0
 10 11  1  0
 12 11  1  1
 13 12  1  0
 13  7  1  0
 14 12  1  0
 14 15  2  0
 16 14  1  0
 17 16  1  0
 17 28  1  0
 17 18  1  6
 19 27  1  0
 19 18  1  0
 20 19  2  0
 21 20  1  0
 21 22  1  0
 22 27  2  0
 23 22  1  0
 23 24  2  0
 24 25  1  0
 25 26  2  0
 27 26  1  0
 28 29  2  0
 28 30  1  0
M  END
$$$$
