ESW.pdb
     RDKit          3D

 30 31  0  0  1  0  0  0  0  0999 V2000
   21.4397  -30.0154  -11.3247 N   0  0  0  0  0  0  0  0  0  0  0  0
   21.0838  -30.4120  -10.0300 C   0  0  1  0  0  0  0  0  0  0  0  0
   22.2247  -30.4097   -9.0877 C   0  0  0  0  0  0  0  0  0  0  0  0
   23.3908  -31.2798   -9.3839 C   0  0  0  0  0  0  0  0  0  0  0  0
   23.3498  -32.6581   -8.9157 C   0  0  0  0  0  0  0  0  0  0  0  0
   22.4496  -33.1698   -8.2067 O   0  0  0  0  0  0  0  0  0  0  0  0
   19.9087  -29.6598   -9.4773 C   0  0  0  0  0  0  0  0  0  0  0  0
   19.9129  -28.4104   -9.5739 O   0  0  0  0  0  0  0  0  0  0  0  0
   24.3781  -33.5822   -9.2389 O   0  0  0  0  0  0  0  0  0  0  0  0
   16.7252  -31.4904   -6.8705 O   0  0  0  0  0  0  0  0  0  0  0  0
   16.5634  -30.6321   -7.9125 C   0  0  0  0  0  0  0  0  0  0  0  0
   17.6944  -29.7331   -8.2574 C   0  0  2  0  0  0  0  0  0  0  0  0
   18.8430  -30.3559   -8.8715 N   0  0  0  0  0  0  0  0  0  0  0  0
   18.0740  -28.7703   -7.2126 C   0  0  0  0  0  0  0  0  0  0  0  0
   19.0167  -29.0021   -6.3821 O   0  0  0  0  0  0  0  0  0  0  0  0
   17.4319  -27.5162   -7.0484 N   0  0  0  0  0  0  0  0  0  0  0  0
   17.9070  -26.5863   -5.9743 C   0  0  1  0  0  0  0  0  0  0  0  0
   18.7087  -25.5563   -6.7272 C   0  0  0  0  0  0  0  0  0  0  0  0
   18.0107  -24.8232   -7.7673 C   0  0  0  0  0  0  0  0  0  0  0  0
   17.0384  -23.8626   -7.7450 C   0  0  0  0  0  0  0  0  0  0  0  0
   16.7461  -23.4682   -9.0108 N   0  0  0  0  0  0  0  0  0  0  0  0
   17.5224  -24.1617   -9.8979 C   0  0  0  0  0  0  0  0  0  0  0  0
   17.6232  -24.1367  -11.2710 C   0  0  0  0  0  0  0  0  0  0  0  0
   18.5121  -24.9482  -11.9253 C   0  0  0  0  0  0  0  0  0  0  0  0
   19.2935  -25.7812  -11.1736 C   0  0  0  0  0  0  0  0  0  0  0  0
   19.2013  -25.8174   -9.7932 C   0  0  0  0  0  0  0  0  0  0  0  0
   18.3009  -24.9962   -9.1235 C   0  0  0  0  0  0  0  0  0  0  0  0
   16.7518  -25.9421   -5.3415 C   0  0  0  0  0  0  0  0  0  0  0  0
   16.8880  -25.1469   -4.4002 O   0  0  0  0  0  0  0  0  0  0  0  0
   15.4763  -26.2175   -5.7915 O   0  0  0  0  0  0  0  0  0  0  0  0
  2  1  1  6
  2  7  1  0
  2  3  1  0
  4  3  1  0
  5  4  1  0
  5  6  2  0
  7  8  2  0
  9  5  1  0
 10 11  1  0
 12 11  1  1
 13 12  1  0
 13  7  1  0
 14 12  1  0
 14 15  2  0
 16 14  1  0
 17 16  1  0
 17 28  1  0
 17 18  1  6
 19 27  1  0
 19 18  1  0
 20 19  2  0
 21 20  1  0
 21 22  1  0
 22 27  2  0
 23 22  1  0
 23 24  2  0
 24 25  1  0
 25 26  2  0
 27 26  1  0
 28 29  2  0
 28 30  1  0
M  END
$$$$
