ESW.pdb
     RDKit          3D

 30 31  0  0  1  0  0  0  0  0999 V2000
   19.1853  -19.9685  -14.4470 N   0  0  0  0  0  0  0  0  0  0  0  0
   20.1021  -19.7147  -15.4743 C   0  0  1  0  0  0  0  0  0  0  0  0
   20.3032  -18.2711  -15.7297 C   0  0  0  0  0  0  0  0  0  0  0  0
   19.1694  -17.4831  -16.2757 C   0  0  0  0  0  0  0  0  0  0  0  0
   18.6202  -17.8810  -17.5644 C   0  0  0  0  0  0  0  0  0  0  0  0
   19.2172  -17.8329  -18.6672 O   0  0  0  0  0  0  0  0  0  0  0  0
   21.4084  -20.4323  -15.2990 C   0  0  0  0  0  0  0  0  0  0  0  0
   22.0639  -20.2123  -14.2538 O   0  0  0  0  0  0  0  0  0  0  0  0
   17.2965  -18.3803  -17.6843 O   0  0  0  0  0  0  0  0  0  0  0  0
   23.2893  -23.1232  -18.4099 O   0  0  0  0  0  0  0  0  0  0  0  0
   23.1538  -23.3051  -17.0693 C   0  0  0  0  0  0  0  0  0  0  0  0
   23.0811  -22.0987  -16.2057 C   0  0  2  0  0  0  0  0  0  0  0  0
   21.8669  -21.3224  -16.2914 N   0  0  0  0  0  0  0  0  0  0  0  0
   24.2845  -21.2536  -16.2028 C   0  0  0  0  0  0  0  0  0  0  0  0
   24.2729  -20.0496  -16.6299 O   0  0  0  0  0  0  0  0  0  0  0  0
   25.5422  -21.7030  -15.7251 N   0  0  0  0  0  0  0  0  0  0  0  0
   26.7201  -20.7794  -15.7857 C   0  0  1  0  0  0  0  0  0  0  0  0
   26.4839  -19.8290  -14.6405 C   0  0  0  0  0  0  0  0  0  0  0  0
   26.7410  -20.3420  -13.3074 C   0  0  0  0  0  0  0  0  0  0  0  0
   27.8753  -20.7515  -12.6637 C   0  0  0  0  0  0  0  0  0  0  0  0
   27.5807  -21.1147  -11.3892 N   0  0  0  0  0  0  0  0  0  0  0  0
   26.2417  -20.9513  -11.1638 C   0  0  0  0  0  0  0  0  0  0  0  0
   25.4465  -21.1629  -10.0596 C   0  0  0  0  0  0  0  0  0  0  0  0
   24.1023  -20.9020  -10.1013 C   0  0  0  0  0  0  0  0  0  0  0  0
   23.5771  -20.4265  -11.2705 C   0  0  0  0  0  0  0  0  0  0  0  0
   24.3645  -20.2108  -12.3881 C   0  0  0  0  0  0  0  0  0  0  0  0
   25.7294  -20.4739  -12.3520 C   0  0  0  0  0  0  0  0  0  0  0  0
   27.9496  -21.5414  -15.5452 C   0  0  0  0  0  0  0  0  0  0  0  0
   29.0671  -21.0105  -15.6238 O   0  0  0  0  0  0  0  0  0  0  0  0
   27.8785  -22.8820  -15.2241 O   0  0  0  0  0  0  0  0  0  0  0  0
  2  1  1  1
  2  7  1  0
  2  3  1  0
  4  3  1  0
  5  4  1  0
  5  6  2  0
  7  8  2  0
  9  5  1  0
 10 11  1  0
 12 11  1  6
 13 12  1  0
 13  7  1  0
 14 12  1  0
 14 15  2  0
 16 14  1  0
 17 16  1  0
 17 28  1  0
 17 18  1  1
 19 27  1  0
 19 18  1  0
 20 19  2  0
 21 20  1  0
 21 22  1  0
 22 27  2  0
 23 22  1  0
 23 24  2  0
 24 25  1  0
 25 26  2  0
 27 26  1  0
 28 29  2  0
 28 30  1  0
M  END
$$$$
