ESW.pdb
     RDKit          3D

 30 31  0  0  1  0  0  0  0  0999 V2000
   27.9016  -23.7156  -18.8057 N   0  0  0  0  0  0  0  0  0  0  0  0
   27.3508  -22.4882  -18.4180 C   0  0  1  0  0  0  0  0  0  0  0  0
   25.9609  -22.3005  -18.8896 C   0  0  0  0  0  0  0  0  0  0  0  0
   25.7173  -22.1832  -20.3496 C   0  0  0  0  0  0  0  0  0  0  0  0
   26.7481  -21.5560  -21.1649 C   0  0  0  0  0  0  0  0  0  0  0  0
   27.1804  -20.3850  -21.0351 O   0  0  0  0  0  0  0  0  0  0  0  0
   27.4773  -22.2152  -16.9478 C   0  0  0  0  0  0  0  0  0  0  0  0
   27.6080  -23.1949  -16.1775 O   0  0  0  0  0  0  0  0  0  0  0  0
   27.3796  -22.2536  -22.2281 O   0  0  0  0  0  0  0  0  0  0  0  0
   27.3919  -18.0822  -15.1842 O   0  0  0  0  0  0  0  0  0  0  0  0
   28.1524  -19.1527  -14.8316 C   0  0  0  0  0  0  0  0  0  0  0  0
   27.6051  -20.5103  -15.0839 C   0  0  2  0  0  0  0  0  0  0  0  0
   27.4475  -20.8900  -16.4679 N   0  0  0  0  0  0  0  0  0  0  0  0
   26.4390  -20.8802  -14.2678 C   0  0  0  0  0  0  0  0  0  0  0  0
   25.2451  -20.8208  -14.7185 O   0  0  0  0  0  0  0  0  0  0  0  0
   26.5471  -21.3332  -12.9279 N   0  0  0  0  0  0  0  0  0  0  0  0
   25.2993  -21.5867  -12.1387 C   0  0  1  0  0  0  0  0  0  0  0  0
   25.8081  -22.1975  -10.8587 C   0  0  0  0  0  0  0  0  0  0  0  0
   26.3160  -21.2778   -9.8573 C   0  0  0  0  0  0  0  0  0  0  0  0
   25.7188  -20.3573   -9.0419 C   0  0  0  0  0  0  0  0  0  0  0  0
   26.6483  -19.7696   -8.2460 N   0  0  0  0  0  0  0  0  0  0  0  0
   27.8824  -20.2919   -8.5195 C   0  0  0  0  0  0  0  0  0  0  0  0
   29.1353  -20.0523   -8.0006 C   0  0  0  0  0  0  0  0  0  0  0  0
   30.2287  -20.7390   -8.4587 C   0  0  0  0  0  0  0  0  0  0  0  0
   30.0368  -21.6668   -9.4444 C   0  0  0  0  0  0  0  0  0  0  0  0
   28.7834  -21.9163   -9.9757 C   0  0  0  0  0  0  0  0  0  0  0  0
   27.6699  -21.2225   -9.5150 C   0  0  0  0  0  0  0  0  0  0  0  0
   24.6406  -20.3101  -11.8451 C   0  0  0  0  0  0  0  0  0  0  0  0
   25.2793  -19.2490  -11.7885 O   0  0  0  0  0  0  0  0  0  0  0  0
   23.2788  -20.2715  -11.6230 O   0  0  0  0  0  0  0  0  0  0  0  0
  2  1  1  1
  2  7  1  0
  2  3  1  0
  4  3  1  0
  5  4  1  0
  5  6  2  0
  7  8  2  0
  9  5  1  0
 10 11  1  0
 12 11  1  6
 13 12  1  0
 13  7  1  0
 14 12  1  0
 14 15  2  0
 16 14  1  0
 17 16  1  0
 17 28  1  0
 17 18  1  1
 19 27  1  0
 19 18  1  0
 20 19  2  0
 21 20  1  0
 21 22  1  0
 22 27  2  0
 23 22  1  0
 23 24  2  0
 24 25  1  0
 25 26  2  0
 27 26  1  0
 28 29  2  0
 28 30  1  0
M  END
$$$$
