ESW.pdb
     RDKit          3D

 30 31  0  0  1  0  0  0  0  0999 V2000
   16.3314  -31.9825    4.5962 N   0  0  0  0  0  0  0  0  0  0  0  0
   16.6756  -31.6792    5.9190 C   0  0  1  0  0  0  0  0  0  0  0  0
   17.8580  -32.4290    6.3979 C   0  0  0  0  0  0  0  0  0  0  0  0
   17.8213  -33.9128    6.3561 C   0  0  0  0  0  0  0  0  0  0  0  0
   19.0093  -34.6369    6.7862 C   0  0  0  0  0  0  0  0  0  0  0  0
   19.0653  -35.8569    7.0751 O   0  0  0  0  0  0  0  0  0  0  0  0
   16.8125  -30.2073    6.1775 C   0  0  0  0  0  0  0  0  0  0  0  0
   17.2956  -29.4936    5.2678 O   0  0  0  0  0  0  0  0  0  0  0  0
   20.2650  -33.9882    6.9216 O   0  0  0  0  0  0  0  0  0  0  0  0
   15.5100  -26.5073    9.1494 O   0  0  0  0  0  0  0  0  0  0  0  0
   15.6890  -27.8398    8.9467 C   0  0  0  0  0  0  0  0  0  0  0  0
   16.4790  -28.2652    7.7630 C   0  0  2  0  0  0  0  0  0  0  0  0
   16.4045  -29.6637    7.4126 N   0  0  0  0  0  0  0  0  0  0  0  0
   17.8545  -27.7483    7.7057 C   0  0  0  0  0  0  0  0  0  0  0  0
   18.8736  -28.5048    7.8520 O   0  0  0  0  0  0  0  0  0  0  0  0
   18.1565  -26.3807    7.4807 N   0  0  0  0  0  0  0  0  0  0  0  0
   19.5881  -25.9396    7.4720 C   0  0  1  0  0  0  0  0  0  0  0  0
   20.0931  -26.4036    6.1303 C   0  0  0  0  0  0  0  0  0  0  0  0
   19.4198  -25.8669    4.9620 C   0  0  0  0  0  0  0  0  0  0  0  0
   18.5341  -24.8417    4.7795 C   0  0  0  0  0  0  0  0  0  0  0  0
   18.2271  -24.7220    3.4625 N   0  0  0  0  0  0  0  0  0  0  0  0
   18.9063  -25.6682    2.7456 C   0  0  0  0  0  0  0  0  0  0  0  0
   18.9550  -25.9672    1.4023 C   0  0  0  0  0  0  0  0  0  0  0  0
   19.7455  -26.9848    0.9371 C   0  0  0  0  0  0  0  0  0  0  0  0
   20.4821  -27.6918    1.8463 C   0  0  0  0  0  0  0  0  0  0  0  0
   20.4413  -27.4029    3.1992 C   0  0  0  0  0  0  0  0  0  0  0  0
   19.6408  -26.3713    3.6774 C   0  0  0  0  0  0  0  0  0  0  0  0
   19.6475  -24.4761    7.5391 C   0  0  0  0  0  0  0  0  0  0  0  0
   20.7274  -23.8748    7.6344 O   0  0  0  0  0  0  0  0  0  0  0  0
   18.4831  -23.7359    7.4978 O   0  0  0  0  0  0  0  0  0  0  0  0
  2  1  1  6
  2  7  1  0
  2  3  1  0
  4  3  1  0
  5  4  1  0
  5  6  2  0
  7  8  2  0
  9  5  1  0
 10 11  1  0
 12 11  1  1
 13 12  1  0
 13  7  1  0
 14 12  1  0
 14 15  2  0
 16 14  1  0
 17 16  1  0
 17 28  1  0
 17 18  1  6
 19 27  1  0
 19 18  1  0
 20 19  2  0
 21 20  1  0
 21 22  1  0
 22 27  2  0
 23 22  1  0
 23 24  2  0
 24 25  1  0
 25 26  2  0
 27 26  1  0
 28 29  2  0
 28 30  1  0
M  END
$$$$
