ESW.pdb
     RDKit          3D

 30 31  0  0  1  0  0  0  0  0999 V2000
   29.1288  -23.1450  -17.6561 N   0  0  0  0  0  0  0  0  0  0  0  0
   28.0624  -22.3631  -17.1962 C   0  0  1  0  0  0  0  0  0  0  0  0
   26.7685  -23.0809  -17.2080 C   0  0  0  0  0  0  0  0  0  0  0  0
   26.6306  -24.3072  -16.3823 C   0  0  0  0  0  0  0  0  0  0  0  0
   26.7720  -25.5958  -17.0457 C   0  0  0  0  0  0  0  0  0  0  0  0
   27.5211  -26.5346  -16.6817 O   0  0  0  0  0  0  0  0  0  0  0  0
   28.3250  -21.7187  -15.8666 C   0  0  0  0  0  0  0  0  0  0  0  0
   29.2996  -22.1317  -15.1958 O   0  0  0  0  0  0  0  0  0  0  0  0
   26.0371  -25.9107  -18.2190 O   0  0  0  0  0  0  0  0  0  0  0  0
   27.6338  -17.7785  -13.0887 O   0  0  0  0  0  0  0  0  0  0  0  0
   27.6791  -18.4863  -14.2487 C   0  0  0  0  0  0  0  0  0  0  0  0
   27.6698  -19.9691  -14.1617 C   0  0  2  0  0  0  0  0  0  0  0  0
   27.4890  -20.6821  -15.4040 N   0  0  0  0  0  0  0  0  0  0  0  0
   26.8561  -20.5303  -13.0729 C   0  0  0  0  0  0  0  0  0  0  0  0
   25.6204  -20.8171  -13.2237 O   0  0  0  0  0  0  0  0  0  0  0  0
   27.3759  -20.7999  -11.7809 N   0  0  0  0  0  0  0  0  0  0  0  0
   26.4594  -21.3256  -10.7189 C   0  0  1  0  0  0  0  0  0  0  0  0
   27.3724  -21.5447   -9.5403 C   0  0  0  0  0  0  0  0  0  0  0  0
   27.2100  -20.6410   -8.4163 C   0  0  0  0  0  0  0  0  0  0  0  0
   26.3172  -19.6441   -8.1371 C   0  0  0  0  0  0  0  0  0  0  0  0
   26.5789  -19.1153   -6.9144 N   0  0  0  0  0  0  0  0  0  0  0  0
   27.6527  -19.7547   -6.3587 C   0  0  0  0  0  0  0  0  0  0  0  0
   28.3069  -19.6107   -5.1556 C   0  0  0  0  0  0  0  0  0  0  0  0
   29.3749  -20.4073   -4.8367 C   0  0  0  0  0  0  0  0  0  0  0  0
   29.7692  -21.3467   -5.7483 C   0  0  0  0  0  0  0  0  0  0  0  0
   29.1216  -21.5010   -6.9617 C   0  0  0  0  0  0  0  0  0  0  0  0
   28.0371  -20.6954   -7.2911 C   0  0  0  0  0  0  0  0  0  0  0  0
   25.4637  -20.3026  -10.3845 C   0  0  0  0  0  0  0  0  0  0  0  0
   25.6833  -19.0974  -10.5748 O   0  0  0  0  0  0  0  0  0  0  0  0
   24.2490  -20.6731   -9.8434 O   0  0  0  0  0  0  0  0  0  0  0  0
  2  1  1  1
  2  7  1  0
  2  3  1  0
  4  3  1  0
  5  4  1  0
  5  6  2  0
  7  8  2  0
  9  5  1  0
 10 11  1  0
 12 11  1  6
 13 12  1  0
 13  7  1  0
 14 12  1  0
 14 15  2  0
 16 14  1  0
 17 16  1  0
 17 28  1  0
 17 18  1  1
 19 27  1  0
 19 18  1  0
 20 19  2  0
 21 20  1  0
 21 22  1  0
 22 27  2  0
 23 22  1  0
 23 24  2  0
 24 25  1  0
 25 26  2  0
 27 26  1  0
 28 29  2  0
 28 30  1  0
M  END
$$$$
