RLS.pdb
     RDKit          3D

 26 25  0  0  1  0  0  0  0  0999 V2000
   19.8603  -25.9191  -14.8369 N   0  0  0  0  0  0  0  0  0  0  0  0
   18.6090  -25.3530  -15.1892 C   0  0  0  0  0  0  0  0  0  0  0  0
   17.5289  -26.0165  -15.0536 N   0  0  0  0  0  0  0  0  0  0  0  0
   18.5491  -24.0269  -15.7016 N   0  0  0  0  0  0  0  0  0  0  0  0
   19.7721  -23.2546  -15.6652 C   0  0  0  0  0  0  0  0  0  0  0  0
   20.0038  -22.8133  -14.2388 C   0  0  0  0  0  0  0  0  0  0  0  0
   21.1578  -21.8554  -14.1599 C   0  0  0  0  0  0  0  0  0  0  0  0
   21.4469  -21.3955  -12.7667 C   0  0  2  0  0  0  0  0  0  0  0  0
   20.2754  -20.8489  -12.1620 N   0  0  0  0  0  0  0  0  0  0  0  0
   22.6173  -20.4893  -12.6891 C   0  0  0  0  0  0  0  0  0  0  0  0
   22.4423  -19.2253  -12.6163 O   0  0  0  0  0  0  0  0  0  0  0  0
   16.6060  -25.6058  -15.3579 C   0  0  0  0  0  0  0  0  0  0  0  0
   26.7142  -21.5120   -9.3345 C   0  0  1  0  0  0  0  0  0  0  0  0
   25.7937  -20.8327  -10.2622 C   0  0  0  0  0  0  0  0  0  0  0  0
   25.6794  -19.3752   -9.7518 C   0  0  0  0  0  0  0  0  0  0  0  0
   26.0228  -20.8565  -11.7036 C   0  0  2  0  0  0  0  0  0  0  0  0
   25.1224  -20.1847  -12.6547 N   0  0  0  0  0  0  0  0  0  0  0  0
   23.9121  -21.0552  -12.6981 C   0  0  0  0  0  0  0  0  0  0  0  0
   25.5468  -20.0792  -14.0561 O   0  0  0  0  0  0  0  0  0  0  0  0
   25.3663  -21.0552  -14.8239 O   0  0  0  0  0  0  0  0  0  0  0  0
   27.7746  -17.6045  -17.6066 C   0  0  0  0  0  0  0  0  0  0  0  0
   27.2410  -17.5864  -16.3409 C   0  0  1  0  0  0  0  0  0  0  0  0
   26.5992  -18.9346  -15.9903 N   0  0  0  0  0  0  0  0  0  0  0  0
   26.1573  -18.9389  -14.6241 C   0  0  0  0  0  0  0  0  0  0  0  0
   27.5723  -20.0323  -16.2041 O   0  0  0  0  0  0  0  0  0  0  0  0
   27.6875  -20.7425  -17.3808 O   0  0  0  0  0  0  0  0  0  0  0  0
  2  4  1  0
  2  1  1  0
  3  2  2  0
  5  6  1  0
  5  4  1  0
  6  7  1  0
  8  7  1  0
  8  9  1  6
 10  8  1  0
 10 17  1  0
 11 10  2  0
 13 12  1  1
 14 13  1  0
 15 13  1  0
 16 15  1  1
 16 17  1  0
 18 16  1  0
 19 18  2  0
 20 21  1  0
 22 23  1  0
 22 21  1  6
 23 18  1  0
 24 22  1  0
 25 24  1  0
 26 24  2  0
M  END
$$$$
