RLS.pdb
     RDKit          3D

 26 25  0  0  1  0  0  0  0  0999 V2000
   20.3165  -22.6661   -9.2656 N   0  0  0  0  0  0  0  0  0  0  0  0
   20.7254  -22.1809   -7.9977 C   0  0  0  0  0  0  0  0  0  0  0  0
   20.3894  -22.7846   -6.9262 N   0  0  0  0  0  0  0  0  0  0  0  0
   21.5218  -21.0049   -7.9109 N   0  0  0  0  0  0  0  0  0  0  0  0
   22.4283  -20.7451   -9.0083 C   0  0  0  0  0  0  0  0  0  0  0  0
   23.8293  -21.0682   -8.5436 C   0  0  0  0  0  0  0  0  0  0  0  0
   24.8335  -20.7279   -9.6073 C   0  0  0  0  0  0  0  0  0  0  0  0
   24.4108  -21.1591  -10.9753 C   0  0  2  0  0  0  0  0  0  0  0  0
   24.7222  -22.5352  -11.1898 N   0  0  0  0  0  0  0  0  0  0  0  0
   24.9278  -20.2729  -12.0452 C   0  0  0  0  0  0  0  0  0  0  0  0
   24.7619  -19.0084  -11.9623 O   0  0  0  0  0  0  0  0  0  0  0  0
   20.6797  -22.4071   -5.9849 C   0  0  0  0  0  0  0  0  0  0  0  0
   29.9369  -20.9934  -13.5584 C   0  0  1  0  0  0  0  0  0  0  0  0
   28.5970  -20.4136  -13.3638 C   0  0  0  0  0  0  0  0  0  0  0  0
   28.8286  -18.9220  -13.0186 C   0  0  0  0  0  0  0  0  0  0  0  0
   27.5610  -20.5509  -14.3828 C   0  0  2  0  0  0  0  0  0  0  0  0
   26.2053  -20.0058  -14.2053 N   0  0  0  0  0  0  0  0  0  0  0  0
   25.5988  -20.8584  -13.1423 C   0  0  0  0  0  0  0  0  0  0  0  0
   25.2663  -20.1009  -15.3297 O   0  0  0  0  0  0  0  0  0  0  0  0
   24.9835  -21.2314  -15.7952 O   0  0  0  0  0  0  0  0  0  0  0  0
   21.8992  -18.2884  -15.9093 C   0  0  0  0  0  0  0  0  0  0  0  0
   22.6381  -18.1562  -17.0598 C   0  0  2  0  0  0  0  0  0  0  0  0
   23.7952  -19.1624  -17.0944 N   0  0  0  0  0  0  0  0  0  0  0  0
   24.6397  -18.9944  -15.9452 C   0  0  0  0  0  0  0  0  0  0  0  0
   24.5920  -18.9793  -18.3310 O   0  0  0  0  0  0  0  0  0  0  0  0
   24.2499  -19.5147  -19.5552 O   0  0  0  0  0  0  0  0  0  0  0  0
  2  4  1  0
  2  1  1  0
  3  2  2  0
  5  6  1  0
  5  4  1  0
  6  7  1  0
  8  7  1  0
  8  9  1  6
 10  8  1  0
 10 17  1  0
 11 10  2  0
 13 12  1  1
 14 13  1  0
 15 13  1  0
 16 15  1  1
 16 17  1  0
 18 16  1  0
 19 18  2  0
 20 21  1  0
 22 23  1  0
 22 21  1  1
 23 18  1  0
 24 22  1  0
 25 24  1  0
 26 24  2  0
M  END
$$$$
