RLS.pdb
     RDKit          3D

 26 25  0  0  1  0  0  0  0  0999 V2000
   19.8668  -17.4896  -17.9633 N   0  0  0  0  0  0  0  0  0  0  0  0
   21.0933  -16.7786  -17.9443 C   0  0  0  0  0  0  0  0  0  0  0  0
   22.1963  -17.3815  -17.7319 N   0  0  0  0  0  0  0  0  0  0  0  0
   21.1022  -15.3728  -18.1644 N   0  0  0  0  0  0  0  0  0  0  0  0
   19.8342  -14.7509  -18.4788 C   0  0  0  0  0  0  0  0  0  0  0  0
   20.0941  -13.2982  -18.8036 C   0  0  0  0  0  0  0  0  0  0  0  0
   20.1725  -12.4788  -17.5474 C   0  0  0  0  0  0  0  0  0  0  0  0
   20.5084  -11.0438  -17.8007 C   0  0  2  0  0  0  0  0  0  0  0  0
   21.1802  -10.8955  -19.0511 N   0  0  0  0  0  0  0  0  0  0  0  0
   21.2346  -10.4132  -16.6728 C   0  0  0  0  0  0  0  0  0  0  0  0
   20.7452  -10.4594  -15.4930 O   0  0  0  0  0  0  0  0  0  0  0  0
   23.1090  -16.8531  -17.7553 C   0  0  0  0  0  0  0  0  0  0  0  0
   26.6669  -10.7603  -16.4220 C   0  0  1  0  0  0  0  0  0  0  0  0
   25.2489  -10.5730  -16.0703 C   0  0  0  0  0  0  0  0  0  0  0  0
   25.0869  -11.1562  -14.6450 C   0  0  0  0  0  0  0  0  0  0  0  0
   24.6160   -9.2610  -16.1642 C   0  0  2  0  0  0  0  0  0  0  0  0
   23.1932   -9.0495  -15.8522 N   0  0  0  0  0  0  0  0  0  0  0  0
   22.4645   -9.7695  -16.9363 C   0  0  0  0  0  0  0  0  0  0  0  0
   22.6670   -7.6801  -15.9056 O   0  0  0  0  0  0  0  0  0  0  0  0
   22.5577   -7.1109  -17.0186 O   0  0  0  0  0  0  0  0  0  0  0  0
   19.7207   -4.3239  -14.9573 C   0  0  0  0  0  0  0  0  0  0  0  0
   20.2231   -5.5982  -14.8539 C   0  0  1  0  0  0  0  0  0  0  0  0
   21.7558   -5.5965  -14.9121 N   0  0  0  0  0  0  0  0  0  0  0  0
   22.2637   -6.9327  -14.7767 C   0  0  0  0  0  0  0  0  0  0  0  0
   22.3050   -4.7414  -13.8328 O   0  0  0  0  0  0  0  0  0  0  0  0
   22.5581   -3.3926  -13.9709 O   0  0  0  0  0  0  0  0  0  0  0  0
  2  4  1  0
  2  1  1  0
  3  2  2  0
  5  6  1  0
  5  4  1  0
  6  7  1  0
  8  7  1  0
  8  9  1  6
 10  8  1  0
 10 17  1  0
 11 10  2  0
 13 12  1  6
 14 13  1  0
 15 13  1  0
 16 15  1  1
 16 17  1  0
 18 16  1  0
 19 18  2  0
 20 21  1  0
 22 23  1  0
 22 21  1  6
 23 18  1  0
 24 22  1  0
 25 24  1  0
 26 24  2  0
M  END
$$$$
