RLS.pdb
     RDKit          3D

 26 25  0  0  1  0  0  0  0  0999 V2000
   19.5023  -24.2273  -13.1271 N   0  0  0  0  0  0  0  0  0  0  0  0
   19.9016  -24.9139  -14.3016 C   0  0  0  0  0  0  0  0  0  0  0  0
   19.0514  -25.2246  -15.1993 N   0  0  0  0  0  0  0  0  0  0  0  0
   21.2679  -25.2645  -14.4889 N   0  0  0  0  0  0  0  0  0  0  0  0
   22.2283  -24.6600  -13.5913 C   0  0  0  0  0  0  0  0  0  0  0  0
   22.4135  -23.2190  -14.0066 C   0  0  0  0  0  0  0  0  0  0  0  0
   23.4380  -22.5440  -13.1404 C   0  0  0  0  0  0  0  0  0  0  0  0
   24.6116  -22.0280  -13.9100 C   0  0  2  0  0  0  0  0  0  0  0  0
   25.8265  -22.5911  -13.4163 N   0  0  0  0  0  0  0  0  0  0  0  0
   24.6463  -20.5481  -13.9864 C   0  0  0  0  0  0  0  0  0  0  0  0
   24.6997  -19.8547  -12.9141 O   0  0  0  0  0  0  0  0  0  0  0  0
   19.3661  -25.6569  -16.1086 C   0  0  0  0  0  0  0  0  0  0  0  0
   27.4328  -18.1607  -14.1059 C   0  0  2  0  0  0  0  0  0  0  0  0
   27.0338  -17.6305  -15.4209 C   0  0  0  0  0  0  0  0  0  0  0  0
   28.2825  -17.7649  -16.3268 C   0  0  0  0  0  0  0  0  0  0  0  0
   25.8453  -18.1295  -16.1058 C   0  0  2  0  0  0  0  0  0  0  0  0
   24.6005  -18.4504  -15.3888 N   0  0  0  0  0  0  0  0  0  0  0  0
   24.6189  -19.9362  -15.2597 C   0  0  0  0  0  0  0  0  0  0  0  0
   23.3232  -18.1571  -16.0504 O   0  0  0  0  0  0  0  0  0  0  0  0
   23.0229  -16.9639  -16.2967 O   0  0  0  0  0  0  0  0  0  0  0  0
   21.5493  -20.2568  -18.8867 C   0  0  0  0  0  0  0  0  0  0  0  0
   20.6172  -19.9010  -17.9424 C   0  0  2  0  0  0  0  0  0  0  0  0
   21.1355  -18.7644  -17.0523 N   0  0  0  0  0  0  0  0  0  0  0  0
   22.3814  -19.1345  -16.4420 C   0  0  0  0  0  0  0  0  0  0  0  0
   20.1394  -18.4464  -16.0016 O   0  0  0  0  0  0  0  0  0  0  0  0
   19.1108  -17.5417  -16.1625 O   0  0  0  0  0  0  0  0  0  0  0  0
  2  4  1  0
  2  1  1  0
  3  2  2  0
  5  6  1  0
  5  4  1  0
  6  7  1  0
  8  7  1  0
  8  9  1  1
 10  8  1  0
 10 17  1  0
 11 10  2  0
 13 12  1  1
 14 13  1  0
 15 13  1  0
 16 15  1  1
 16 17  1  0
 18 16  1  0
 19 18  2  0
 20 21  1  0
 22 23  1  0
 22 21  1  6
 23 18  1  0
 24 22  1  0
 25 24  1  0
 26 24  2  0
M  END
$$$$
