RLS.pdb
     RDKit          3D

 26 25  0  0  1  0  0  0  0  0999 V2000
   28.5230  -26.8982  -17.8827 N   0  0  0  0  0  0  0  0  0  0  0  0
   27.3928  -27.5258  -17.3005 C   0  0  0  0  0  0  0  0  0  0  0  0
   27.4037  -28.7710  -17.0272 N   0  0  0  0  0  0  0  0  0  0  0  0
   26.2264  -26.7627  -17.0140 N   0  0  0  0  0  0  0  0  0  0  0  0
   26.2700  -25.3531  -17.3371 C   0  0  0  0  0  0  0  0  0  0  0  0
   27.3278  -24.7079  -16.4722 C   0  0  0  0  0  0  0  0  0  0  0  0
   26.7165  -24.1279  -15.2291 C   0  0  0  0  0  0  0  0  0  0  0  0
   25.9350  -22.8790  -15.4850 C   0  0  2  0  0  0  0  0  0  0  0  0
   26.8055  -21.7549  -15.6083 N   0  0  0  0  0  0  0  0  0  0  0  0
   24.8477  -22.6664  -14.5001 C   0  0  0  0  0  0  0  0  0  0  0  0
   23.9501  -23.5614  -14.3372 O   0  0  0  0  0  0  0  0  0  0  0  0
   26.5650  -29.2289  -16.5802 C   0  0  0  0  0  0  0  0  0  0  0  0
   25.9431  -20.0092   -9.6703 C   0  0  1  0  0  0  0  0  0  0  0  0
   25.2876  -20.9011  -10.6421 C   0  0  0  0  0  0  0  0  0  0  0  0
   24.4826  -21.9225   -9.8016 C   0  0  0  0  0  0  0  0  0  0  0  0
   24.4671  -20.3644  -11.7235 C   0  0  2  0  0  0  0  0  0  0  0  0
   23.7995  -21.2304  -12.7089 N   0  0  0  0  0  0  0  0  0  0  0  0
   24.8333  -21.4638  -13.7584 C   0  0  0  0  0  0  0  0  0  0  0  0
   22.6497  -20.6882  -13.4431 O   0  0  0  0  0  0  0  0  0  0  0  0
   22.8023  -19.6568  -14.1414 O   0  0  0  0  0  0  0  0  0  0  0  0
   19.1293  -22.8085  -14.1329 C   0  0  0  0  0  0  0  0  0  0  0  0
   19.5890  -21.8483  -15.0011 C   0  0  1  0  0  0  0  0  0  0  0  0
   20.3030  -20.7176  -14.2499 N   0  0  0  0  0  0  0  0  0  0  0  0
   21.3528  -21.2481  -13.4263 C   0  0  0  0  0  0  0  0  0  0  0  0
   19.3347  -19.9749  -13.4084 O   0  0  0  0  0  0  0  0  0  0  0  0
   18.2707  -19.2546  -13.9099 O   0  0  0  0  0  0  0  0  0  0  0  0
  2  4  1  0
  2  1  1  0
  3  2  2  0
  5  6  1  0
  5  4  1  0
  6  7  1  0
  8  7  1  0
  8  9  1  1
 10  8  1  0
 10 17  1  0
 11 10  2  0
 13 12  1  1
 14 13  1  0
 15 13  1  0
 16 15  1  1
 16 17  1  0
 18 16  1  0
 19 18  2  0
 20 21  1  0
 22 23  1  0
 22 21  1  6
 23 18  1  0
 24 22  1  0
 25 24  1  0
 26 24  2  0
M  END
$$$$
