RLS.pdb
     RDKit          3D

 26 25  0  0  1  0  0  0  0  0999 V2000
   15.6556  -16.0533  -14.5262 N   0  0  0  0  0  0  0  0  0  0  0  0
   16.1857  -16.2345  -15.8287 C   0  0  0  0  0  0  0  0  0  0  0  0
   16.1972  -17.3857  -16.3765 N   0  0  0  0  0  0  0  0  0  0  0  0
   16.7138  -15.1218  -16.5412 N   0  0  0  0  0  0  0  0  0  0  0  0
   16.4644  -13.8096  -15.9850 C   0  0  0  0  0  0  0  0  0  0  0  0
   17.3183  -12.8140  -16.7354 C   0  0  0  0  0  0  0  0  0  0  0  0
   17.0340  -11.4142  -16.2714 C   0  0  0  0  0  0  0  0  0  0  0  0
   17.9770  -10.4026  -16.8403 C   0  0  2  0  0  0  0  0  0  0  0  0
   18.5129  -10.8547  -18.0834 N   0  0  0  0  0  0  0  0  0  0  0  0
   19.0213   -9.9808  -15.8766 C   0  0  0  0  0  0  0  0  0  0  0  0
   18.6909   -9.6111  -14.6987 O   0  0  0  0  0  0  0  0  0  0  0  0
   16.5579  -17.5073  -17.3603 C   0  0  0  0  0  0  0  0  0  0  0  0
   24.1623  -10.2193  -13.6602 C   0  0  2  0  0  0  0  0  0  0  0  0
   23.9239  -10.1123  -15.1097 C   0  0  0  0  0  0  0  0  0  0  0  0
   24.9842  -11.0203  -15.7800 C   0  0  0  0  0  0  0  0  0  0  0  0
   22.6019  -10.3605  -15.6764 C   0  0  1  0  0  0  0  0  0  0  0  0
   21.4495   -9.4884  -15.3969 N   0  0  0  0  0  0  0  0  0  0  0  0
   20.3717   -9.9993  -16.2923 C   0  0  0  0  0  0  0  0  0  0  0  0
   21.5595   -8.0638  -15.7339 O   0  0  0  0  0  0  0  0  0  0  0  0
   21.8728   -7.7355  -16.9039 O   0  0  0  0  0  0  0  0  0  0  0  0
   19.5175   -5.0750  -13.9069 C   0  0  0  0  0  0  0  0  0  0  0  0
   20.0632   -4.9522  -15.1615 C   0  0  1  0  0  0  0  0  0  0  0  0
   21.4344   -5.6352  -15.2391 N   0  0  0  0  0  0  0  0  0  0  0  0
   21.3353   -7.0063  -14.8245 C   0  0  0  0  0  0  0  0  0  0  0  0
   22.4077   -4.9218  -14.3781 O   0  0  0  0  0  0  0  0  0  0  0  0
   22.8437   -3.6340  -14.6100 O   0  0  0  0  0  0  0  0  0  0  0  0
  2  4  1  0
  2  1  1  0
  3  2  2  0
  5  6  1  0
  5  4  1  0
  6  7  1  0
  8  7  1  0
  8  9  1  6
 10  8  1  0
 10 17  1  0
 11 10  2  0
 13 12  1  6
 14 13  1  0
 15 13  1  0
 16 15  1  1
 16 17  1  0
 18 16  1  0
 19 18  2  0
 20 21  1  0
 22 23  1  0
 22 21  1  6
 23 18  1  0
 24 22  1  0
 25 24  1  0
 26 24  2  0
M  END
$$$$
