RLS.pdb
     RDKit          3D

 26 25  0  0  1  0  0  0  0  0999 V2000
   26.3672  -16.0695  -19.7706 N   0  0  0  0  0  0  0  0  0  0  0  0
   24.9691  -15.8381  -19.7232 C   0  0  0  0  0  0  0  0  0  0  0  0
   24.3654  -15.2755  -20.6950 N   0  0  0  0  0  0  0  0  0  0  0  0
   24.2222  -16.2363  -18.5794 N   0  0  0  0  0  0  0  0  0  0  0  0
   24.9002  -17.0727  -17.6129 C   0  0  0  0  0  0  0  0  0  0  0  0
   25.0150  -18.4619  -18.1962 C   0  0  0  0  0  0  0  0  0  0  0  0
   24.4119  -19.4786  -17.2698 C   0  0  0  0  0  0  0  0  0  0  0  0
   25.2963  -19.8185  -16.1129 C   0  0  2  0  0  0  0  0  0  0  0  0
   26.5644  -20.2893  -16.5679 N   0  0  0  0  0  0  0  0  0  0  0  0
   24.6508  -20.7344  -15.1425 C   0  0  0  0  0  0  0  0  0  0  0  0
   24.5136  -21.9727  -15.4274 O   0  0  0  0  0  0  0  0  0  0  0  0
   23.3174  -15.1556  -20.6775 C   0  0  0  0  0  0  0  0  0  0  0  0
   25.8821  -20.0784   -9.8746 C   0  0  1  0  0  0  0  0  0  0  0  0
   25.4500  -20.6241  -11.1727 C   0  0  0  0  0  0  0  0  0  0  0  0
   25.9417  -22.0922  -11.1982 C   0  0  0  0  0  0  0  0  0  0  0  0
   24.0565  -20.5408  -11.5990 C   0  0  2  0  0  0  0  0  0  0  0  0
   23.5912  -21.0956  -12.8806 N   0  0  0  0  0  0  0  0  0  0  0  0
   24.1986  -20.2061  -13.9124 C   0  0  0  0  0  0  0  0  0  0  0  0
   22.1524  -21.0613  -13.1701 O   0  0  0  0  0  0  0  0  0  0  0  0
   21.5708  -19.9519  -13.2446 O   0  0  0  0  0  0  0  0  0  0  0  0
   18.0546  -23.3327  -14.4614 C   0  0  0  0  0  0  0  0  0  0  0  0
   19.4007  -23.4187  -14.2015 C   0  0  1  0  0  0  0  0  0  0  0  0
   19.9494  -22.0880  -13.6714 N   0  0  0  0  0  0  0  0  0  0  0  0
   21.3498  -22.2053  -13.3768 C   0  0  0  0  0  0  0  0  0  0  0  0
   19.2138  -21.6852  -12.4490 O   0  0  0  0  0  0  0  0  0  0  0  0
   18.0830  -20.8955  -12.4545 O   0  0  0  0  0  0  0  0  0  0  0  0
  2  4  1  0
  2  1  1  0
  3  2  2  0
  5  6  1  0
  5  4  1  0
  6  7  1  0
  8  7  1  0
  8  9  1  6
 10  8  1  0
 10 17  1  0
 11 10  2  0
 13 12  1  6
 14 13  1  0
 15 13  1  0
 16 15  1  6
 16 17  1  0
 18 16  1  0
 19 18  2  0
 20 21  1  0
 22 23  1  0
 22 21  1  6
 23 18  1  0
 24 22  1  0
 25 24  1  0
 26 24  2  0
M  END
$$$$
