RLS.pdb
     RDKit          3D

 26 25  0  0  1  0  0  0  0  0999 V2000
   18.3103  -24.8044   -8.4420 N   0  0  0  0  0  0  0  0  0  0  0  0
   17.2188  -23.9643   -8.7786 C   0  0  0  0  0  0  0  0  0  0  0  0
   17.1629  -23.3868   -9.9138 N   0  0  0  0  0  0  0  0  0  0  0  0
   16.1673  -23.7577   -7.8424 N   0  0  0  0  0  0  0  0  0  0  0  0
   16.2167  -24.5309   -6.6205 C   0  0  0  0  0  0  0  0  0  0  0  0
   15.7937  -25.9448   -6.9448 C   0  0  0  0  0  0  0  0  0  0  0  0
   15.8230  -26.8037   -5.7131 C   0  0  0  0  0  0  0  0  0  0  0  0
   17.1169  -27.5315   -5.5336 C   0  0  2  0  0  0  0  0  0  0  0  0
   17.3007  -28.4974   -6.5679 N   0  0  0  0  0  0  0  0  0  0  0  0
   17.2759  -28.0993   -4.1736 C   0  0  0  0  0  0  0  0  0  0  0  0
   16.7935  -29.2513   -3.9025 O   0  0  0  0  0  0  0  0  0  0  0  0
   16.3214  -22.8091  -10.1801 C   0  0  0  0  0  0  0  0  0  0  0  0
   21.9633  -26.9349   -1.4298 C   0  0  1  0  0  0  0  0  0  0  0  0
   20.7437  -27.6375   -1.8640 C   0  0  0  0  0  0  0  0  0  0  0  0
   20.9971  -29.1383   -1.5793 C   0  0  0  0  0  0  0  0  0  0  0  0
   19.4282  -27.2361   -1.3751 C   0  0  2  0  0  0  0  0  0  0  0  0
   18.1879  -27.8852   -1.8302 N   0  0  0  0  0  0  0  0  0  0  0  0
   17.9658  -27.3411   -3.2010 C   0  0  0  0  0  0  0  0  0  0  0  0
   16.9434  -27.5846   -1.1119 O   0  0  0  0  0  0  0  0  0  0  0  0
   16.3307  -26.5206   -1.3708 O   0  0  0  0  0  0  0  0  0  0  0  0
   15.0338  -30.1746    1.6347 C   0  0  0  0  0  0  0  0  0  0  0  0
   14.3198  -29.2594    0.9002 C   0  0  1  0  0  0  0  0  0  0  0  0
   15.1722  -28.0279    0.5689 N   0  0  0  0  0  0  0  0  0  0  0  0
   16.3657  -28.4176   -0.1280 C   0  0  0  0  0  0  0  0  0  0  0  0
   15.5329  -27.3088    1.8140 O   0  0  0  0  0  0  0  0  0  0  0  0
   14.6143  -26.7237    2.6603 O   0  0  0  0  0  0  0  0  0  0  0  0
  2  4  1  0
  2  1  1  0
  3  2  2  0
  5  6  1  0
  5  4  1  0
  6  7  1  0
  8  7  1  0
  8  9  1  6
 10  8  1  0
 10 17  1  0
 11 10  2  0
 13 12  1  6
 14 13  1  0
 15 13  1  0
 16 15  1  6
 16 17  1  0
 18 16  1  0
 19 18  2  0
 20 21  1  0
 22 23  1  0
 22 21  1  6
 23 18  1  0
 24 22  1  0
 25 24  1  0
 26 24  2  0
M  END
$$$$
