RLS.pdb
     RDKit          3D

 26 25  0  0  1  0  0  0  0  0999 V2000
   21.2513  -18.0331  -14.4078 N   0  0  0  0  0  0  0  0  0  0  0  0
   20.9371  -18.6180  -13.1550 C   0  0  0  0  0  0  0  0  0  0  0  0
   20.0328  -18.1188  -12.4078 N   0  0  0  0  0  0  0  0  0  0  0  0
   21.6357  -19.7782  -12.7183 N   0  0  0  0  0  0  0  0  0  0  0  0
   22.5516  -20.3847  -13.6599 C   0  0  0  0  0  0  0  0  0  0  0  0
   23.9551  -19.9795  -13.2737 C   0  0  0  0  0  0  0  0  0  0  0  0
   24.3166  -20.5352  -11.9260 C   0  0  0  0  0  0  0  0  0  0  0  0
   25.6987  -20.1677  -11.4893 C   0  0  2  0  0  0  0  0  0  0  0  0
   26.6548  -20.5221  -12.4877 N   0  0  0  0  0  0  0  0  0  0  0  0
   26.0389  -20.6947  -10.1462 C   0  0  0  0  0  0  0  0  0  0  0  0
   26.3872  -21.9167  -10.0094 O   0  0  0  0  0  0  0  0  0  0  0  0
   19.7983  -18.5635  -11.4803 C   0  0  0  0  0  0  0  0  0  0  0  0
   28.7682  -18.1838   -5.5638 C   0  0  2  0  0  0  0  0  0  0  0  0
   28.2588  -19.2160   -6.4828 C   0  0  0  0  0  0  0  0  0  0  0  0
   28.5351  -20.5725   -5.7890 C   0  0  0  0  0  0  0  0  0  0  0  0
   26.8904  -19.1660   -6.9884 C   0  0  2  0  0  0  0  0  0  0  0  0
   26.2578  -20.3122   -7.6613 N   0  0  0  0  0  0  0  0  0  0  0  0
   25.9676  -19.8198   -9.0389 C   0  0  0  0  0  0  0  0  0  0  0  0
   24.9602  -20.7814   -7.1602 O   0  0  0  0  0  0  0  0  0  0  0  0
   23.9466  -20.0589   -7.3197 O   0  0  0  0  0  0  0  0  0  0  0  0
   23.3008  -24.5478   -4.9845 C   0  0  0  0  0  0  0  0  0  0  0  0
   23.4359  -24.0493   -6.2574 C   0  0  1  0  0  0  0  0  0  0  0  0
   23.4326  -22.5155   -6.2556 N   0  0  0  0  0  0  0  0  0  0  0  0
   24.7554  -22.0115   -6.4964 C   0  0  0  0  0  0  0  0  0  0  0  0
   22.9343  -22.0092   -4.9545 O   0  0  0  0  0  0  0  0  0  0  0  0
   23.6772  -21.2260   -4.0960 O   0  0  0  0  0  0  0  0  0  0  0  0
  2  4  1  0
  2  1  1  0
  3  2  2  0
  5  6  1  0
  5  4  1  0
  6  7  1  0
  8  7  1  0
  8  9  1  6
 10  8  1  0
 10 17  1  0
 11 10  2  0
 13 12  1  6
 14 13  1  0
 15 13  1  0
 16 15  1  6
 16 17  1  0
 18 16  1  0
 19 18  2  0
 20 21  1  0
 22 23  1  0
 22 21  1  6
 23 18  1  0
 24 22  1  0
 25 24  1  0
 26 24  2  0
M  END
$$$$
