RLS.pdb
     RDKit          3D

 26 25  0  0  1  0  0  0  0  0999 V2000
   19.9013  -15.8272  -19.7477 N   0  0  0  0  0  0  0  0  0  0  0  0
   18.4852  -15.8329  -19.8180 C   0  0  0  0  0  0  0  0  0  0  0  0
   17.8817  -16.3279  -20.8260 N   0  0  0  0  0  0  0  0  0  0  0  0
   17.7196  -15.2807  -18.7532 N   0  0  0  0  0  0  0  0  0  0  0  0
   18.4383  -14.5150  -17.7580 C   0  0  0  0  0  0  0  0  0  0  0  0
   17.9973  -13.0739  -17.8690 C   0  0  0  0  0  0  0  0  0  0  0  0
   18.7327  -12.2157  -16.8799 C   0  0  0  0  0  0  0  0  0  0  0  0
   19.6022  -11.1853  -17.5267 C   0  0  2  0  0  0  0  0  0  0  0  0
   20.2773  -11.7327  -18.6587 N   0  0  0  0  0  0  0  0  0  0  0  0
   20.5181  -10.5200  -16.5698 C   0  0  0  0  0  0  0  0  0  0  0  0
   20.0737  -10.0999  -15.4477 O   0  0  0  0  0  0  0  0  0  0  0  0
   16.8282  -16.3156  -20.8790 C   0  0  0  0  0  0  0  0  0  0  0  0
   25.6634  -10.3516  -14.2800 C   0  0  2  0  0  0  0  0  0  0  0  0
   25.4114  -10.1546  -15.7178 C   0  0  0  0  0  0  0  0  0  0  0  0
   26.5772  -10.8620  -16.4515 C   0  0  0  0  0  0  0  0  0  0  0  0
   24.1306  -10.5194  -16.3154 C   0  0  1  0  0  0  0  0  0  0  0  0
   22.8707   -9.8562  -15.9421 N   0  0  0  0  0  0  0  0  0  0  0  0
   21.8760  -10.3664  -16.9294 C   0  0  0  0  0  0  0  0  0  0  0  0
   22.7921   -8.3955  -16.0661 O   0  0  0  0  0  0  0  0  0  0  0  0
   23.1771   -7.8513  -17.1293 O   0  0  0  0  0  0  0  0  0  0  0  0
   20.0533   -5.9911  -14.3624 C   0  0  0  0  0  0  0  0  0  0  0  0
   20.8388   -5.6170  -15.4254 C   0  0  1  0  0  0  0  0  0  0  0  0
   22.2810   -6.1085  -15.2493 N   0  0  0  0  0  0  0  0  0  0  0  0
   22.3056   -7.5316  -15.0597 C   0  0  0  0  0  0  0  0  0  0  0  0
   22.9084   -5.4384  -14.0853 O   0  0  0  0  0  0  0  0  0  0  0  0
   23.2963   -6.0934  -12.9352 O   0  0  0  0  0  0  0  0  0  0  0  0
  2  4  1  0
  2  1  1  0
  3  2  2  0
  5  6  1  0
  5  4  1  0
  6  7  1  0
  8  7  1  0
  8  9  1  6
 10  8  1  0
 10 17  1  0
 11 10  2  0
 13 12  1  1
 14 13  1  0
 15 13  1  0
 16 15  1  1
 16 17  1  0
 18 16  1  0
 19 18  2  0
 20 21  1  0
 22 23  1  0
 22 21  1  6
 23 18  1  0
 24 22  1  0
 25 24  1  0
 26 24  2  0
M  END
$$$$
