RLS.pdb
     RDKit          3D

 26 25  0  0  1  0  0  0  0  0999 V2000
   33.6794  -25.2689  -15.0053 N   0  0  0  0  0  0  0  0  0  0  0  0
   33.8141  -26.1021  -16.1445 C   0  0  0  0  0  0  0  0  0  0  0  0
   34.6923  -27.0256  -16.1801 N   0  0  0  0  0  0  0  0  0  0  0  0
   32.9616  -25.9117  -17.2678 N   0  0  0  0  0  0  0  0  0  0  0  0
   31.9562  -24.8769  -17.1592 C   0  0  0  0  0  0  0  0  0  0  0  0
   30.6273  -25.5431  -16.8883 C   0  0  0  0  0  0  0  0  0  0  0  0
   29.5267  -24.5236  -16.8174 C   0  0  0  0  0  0  0  0  0  0  0  0
   28.1924  -25.1190  -16.4993 C   0  0  2  0  0  0  0  0  0  0  0  0
   28.2147  -26.5344  -16.6809 N   0  0  0  0  0  0  0  0  0  0  0  0
   27.0788  -24.4584  -17.2208 C   0  0  0  0  0  0  0  0  0  0  0  0
   26.9063  -23.1968  -17.1107 O   0  0  0  0  0  0  0  0  0  0  0  0
   34.7388  -27.6896  -16.9985 C   0  0  0  0  0  0  0  0  0  0  0  0
   26.7953  -23.7988  -22.2256 C   0  0  1  0  0  0  0  0  0  0  0  0
   26.3741  -23.6866  -20.8187 C   0  0  0  0  0  0  0  0  0  0  0  0
   25.7089  -22.2945  -20.6870 C   0  0  0  0  0  0  0  0  0  0  0  0
   25.5451  -24.7139  -20.1959 C   0  0  2  0  0  0  0  0  0  0  0  0
   25.1112  -24.6307  -18.7918 N   0  0  0  0  0  0  0  0  0  0  0  0
   26.2268  -25.2521  -18.0212 C   0  0  0  0  0  0  0  0  0  0  0  0
   23.9210  -25.3888  -18.3871 O   0  0  0  0  0  0  0  0  0  0  0  0
   23.9877  -26.6402  -18.3203 O   0  0  0  0  0  0  0  0  0  0  0  0
   20.1881  -23.6666  -17.9218 C   0  0  0  0  0  0  0  0  0  0  0  0
   20.4327  -24.7410  -17.1015 C   0  0  1  0  0  0  0  0  0  0  0  0
   21.5597  -25.6193  -17.6592 N   0  0  0  0  0  0  0  0  0  0  0  0
   22.6756  -24.8086  -18.0585 C   0  0  0  0  0  0  0  0  0  0  0  0
   21.0692  -26.4006  -18.8196 O   0  0  0  0  0  0  0  0  0  0  0  0
   20.3953  -27.5993  -18.7128 O   0  0  0  0  0  0  0  0  0  0  0  0
  2  4  1  0
  2  1  1  0
  3  2  2  0
  5  6  1  0
  5  4  1  0
  6  7  1  0
  8  7  1  0
  8  9  1  6
 10  8  1  0
 10 17  1  0
 11 10  2  0
 13 12  1  1
 14 13  1  0
 15 13  1  0
 16 15  1  1
 16 17  1  0
 18 16  1  0
 19 18  2  0
 20 21  1  0
 22 23  1  0
 22 21  1  1
 23 18  1  0
 24 22  1  0
 25 24  1  0
 26 24  2  0
M  END
$$$$
