RLS.pdb
     RDKit          3D

 26 25  0  0  1  0  0  0  0  0999 V2000
   21.4276  -22.2251  -14.8920 N   0  0  0  0  0  0  0  0  0  0  0  0
   20.3739  -21.4669  -14.3217 C   0  0  0  0  0  0  0  0  0  0  0  0
   19.3100  -21.2253  -14.9813 N   0  0  0  0  0  0  0  0  0  0  0  0
   20.4974  -20.9653  -12.9959 N   0  0  0  0  0  0  0  0  0  0  0  0
   21.7069  -21.3034  -12.2775 C   0  0  0  0  0  0  0  0  0  0  0  0
   22.5241  -20.0423  -12.1189 C   0  0  0  0  0  0  0  0  0  0  0  0
   23.8916  -20.3592  -11.5847 C   0  0  0  0  0  0  0  0  0  0  0  0
   24.6014  -21.4137  -12.3723 C   0  0  2  0  0  0  0  0  0  0  0  0
   24.9923  -22.4965  -11.5290 N   0  0  0  0  0  0  0  0  0  0  0  0
   25.7200  -20.8746  -13.1817 C   0  0  0  0  0  0  0  0  0  0  0  0
   25.5506  -19.8188  -13.8817 O   0  0  0  0  0  0  0  0  0  0  0  0
   18.5138  -20.6938  -14.5379 C   0  0  0  0  0  0  0  0  0  0  0  0
   30.7218  -21.9782  -11.1079 C   0  0  1  0  0  0  0  0  0  0  0  0
   29.6177  -21.2928  -11.8010 C   0  0  0  0  0  0  0  0  0  0  0  0
   29.8775  -19.7778  -11.6138 C   0  0  0  0  0  0  0  0  0  0  0  0
   29.3009  -21.5921  -13.1941 C   0  0  2  0  0  0  0  0  0  0  0  0
   28.1414  -21.0014  -13.8819 N   0  0  0  0  0  0  0  0  0  0  0  0
   26.9599  -21.5520  -13.1570 C   0  0  0  0  0  0  0  0  0  0  0  0
   27.9093  -21.3624  -15.2858 O   0  0  0  0  0  0  0  0  0  0  0  0
   27.8414  -22.5750  -15.6013 O   0  0  0  0  0  0  0  0  0  0  0  0
   26.2342  -18.8705  -18.0584 C   0  0  0  0  0  0  0  0  0  0  0  0
   26.2329  -20.2328  -18.2348 C   0  0  1  0  0  0  0  0  0  0  0  0
   27.5182  -20.8643  -17.6854 N   0  0  0  0  0  0  0  0  0  0  0  0
   27.7522  -20.4312  -16.3365 C   0  0  0  0  0  0  0  0  0  0  0  0
   28.6727  -20.4917  -18.5372 O   0  0  0  0  0  0  0  0  0  0  0  0
   29.7337  -19.7235  -18.1052 O   0  0  0  0  0  0  0  0  0  0  0  0
  2  4  1  0
  2  1  1  0
  3  2  2  0
  5  6  1  0
  5  4  1  0
  6  7  1  0
  8  7  1  0
  8  9  1  1
 10  8  1  0
 10 17  1  0
 11 10  2  0
 13 12  1  1
 14 13  1  0
 15 13  1  0
 16 15  1  1
 16 17  1  0
 18 16  1  0
 19 18  2  0
 20 21  1  0
 22 23  1  0
 22 21  1  1
 23 18  1  0
 24 22  1  0
 25 24  1  0
 26 24  2  0
M  END
$$$$
