RLS.pdb
     RDKit          3D

 26 25  0  0  1  0  0  0  0  0999 V2000
   20.7224  -21.7080  -12.8071 N   0  0  0  0  0  0  0  0  0  0  0  0
   19.3239  -21.8725  -12.6416 C   0  0  0  0  0  0  0  0  0  0  0  0
   18.5110  -20.9544  -12.9903 N   0  0  0  0  0  0  0  0  0  0  0  0
   18.8124  -23.0754  -12.0795 N   0  0  0  0  0  0  0  0  0  0  0  0
   19.7727  -24.1094  -11.7600 C   0  0  0  0  0  0  0  0  0  0  0  0
   19.1890  -25.4367  -12.1854 C   0  0  0  0  0  0  0  0  0  0  0  0
   18.2352  -25.9547  -11.1474 C   0  0  0  0  0  0  0  0  0  0  0  0
   18.8476  -26.9754  -10.2423 C   0  0  2  0  0  0  0  0  0  0  0  0
   19.2063  -28.1478  -10.9728 N   0  0  0  0  0  0  0  0  0  0  0  0
   18.0138  -27.2653   -9.0515 C   0  0  0  0  0  0  0  0  0  0  0  0
   17.2153  -28.2631   -9.0590 O   0  0  0  0  0  0  0  0  0  0  0  0
   17.4694  -21.1057  -12.9194 C   0  0  0  0  0  0  0  0  0  0  0  0
   16.7940  -27.7454   -3.7266 C   0  0  2  0  0  0  0  0  0  0  0  0
   17.5381  -26.5771   -4.2275 C   0  0  0  0  0  0  0  0  0  0  0  0
   18.6667  -26.3226   -3.1983 C   0  0  0  0  0  0  0  0  0  0  0  0
   18.0659  -26.5464   -5.5880 C   0  0  1  0  0  0  0  0  0  0  0  0
   17.1914  -26.5608   -6.7719 N   0  0  0  0  0  0  0  0  0  0  0  0
   18.1262  -26.4191   -7.9255 C   0  0  0  0  0  0  0  0  0  0  0  0
   16.2337  -25.4611   -6.9407 O   0  0  0  0  0  0  0  0  0  0  0  0
   16.6629  -24.2849   -7.0236 O   0  0  0  0  0  0  0  0  0  0  0  0
   13.0785  -24.4467   -9.4619 C   0  0  0  0  0  0  0  0  0  0  0  0
   12.8225  -24.8797   -8.1836 C   0  0  2  0  0  0  0  0  0  0  0  0
   13.9636  -24.5013   -7.2310 N   0  0  0  0  0  0  0  0  0  0  0  0
   14.8327  -25.6246   -7.0193 C   0  0  0  0  0  0  0  0  0  0  0  0
   13.4124  -24.0444   -5.9330 O   0  0  0  0  0  0  0  0  0  0  0  0
   13.1661  -22.7235   -5.6218 O   0  0  0  0  0  0  0  0  0  0  0  0
  2  4  1  0
  2  1  1  0
  3  2  2  0
  5  6  1  0
  5  4  1  0
  6  7  1  0
  8  7  1  0
  8  9  1  6
 10  8  1  0
 10 17  1  0
 11 10  2  0
 13 12  1  1
 14 13  1  0
 15 13  1  0
 16 15  1  6
 16 17  1  0
 18 16  1  0
 19 18  2  0
 20 21  1  0
 22 23  1  0
 22 21  1  6
 23 18  1  0
 24 22  1  0
 25 24  1  0
 26 24  2  0
M  END
$$$$
