RLS.pdb
     RDKit          3D

 26 25  0  0  1  0  0  0  0  0999 V2000
   20.4943  -26.9404  -12.4621 N   0  0  0  0  0  0  0  0  0  0  0  0
   20.5529  -27.0432  -13.8750 C   0  0  0  0  0  0  0  0  0  0  0  0
   19.8182  -27.8753  -14.5018 N   0  0  0  0  0  0  0  0  0  0  0  0
   21.4411  -26.2100  -14.6109 N   0  0  0  0  0  0  0  0  0  0  0  0
   21.6829  -24.8841  -14.0848 C   0  0  0  0  0  0  0  0  0  0  0  0
   20.4099  -24.0835  -14.2325 C   0  0  0  0  0  0  0  0  0  0  0  0
   20.6182  -22.6663  -13.7810 C   0  0  0  0  0  0  0  0  0  0  0  0
   21.3875  -21.8426  -14.7637 C   0  0  2  0  0  0  0  0  0  0  0  0
   22.0262  -22.6756  -15.7306 N   0  0  0  0  0  0  0  0  0  0  0  0
   22.3174  -20.8884  -14.1142 C   0  0  0  0  0  0  0  0  0  0  0  0
   21.8680  -20.0164  -13.2950 O   0  0  0  0  0  0  0  0  0  0  0  0
   19.9304  -28.0119  -15.5418 C   0  0  0  0  0  0  0  0  0  0  0  0
   26.0881  -22.5212  -11.0531 C   0  0  1  0  0  0  0  0  0  0  0  0
   25.1665  -21.6295  -11.7776 C   0  0  0  0  0  0  0  0  0  0  0  0
   24.6909  -20.5818  -10.7413 C   0  0  0  0  0  0  0  0  0  0  0  0
   25.5691  -20.9780  -13.0202 C   0  0  2  0  0  0  0  0  0  0  0  0
   24.6770  -20.0677  -13.7564 N   0  0  0  0  0  0  0  0  0  0  0  0
   23.6940  -20.9699  -14.4227 C   0  0  0  0  0  0  0  0  0  0  0  0
   25.2461  -19.2744  -14.8527 O   0  0  0  0  0  0  0  0  0  0  0  0
   26.1832  -18.4769  -14.6069 O   0  0  0  0  0  0  0  0  0  0  0  0
   25.9770  -20.4685  -18.5518 C   0  0  0  0  0  0  0  0  0  0  0  0
   26.5171  -19.3629  -17.9412 C   0  0  1  0  0  0  0  0  0  0  0  0
   25.4387  -18.5468  -17.2175 N   0  0  0  0  0  0  0  0  0  0  0  0
   24.8129  -19.3382  -16.1958 C   0  0  0  0  0  0  0  0  0  0  0  0
   24.4168  -18.0822  -18.1857 O   0  0  0  0  0  0  0  0  0  0  0  0
   24.6987  -17.3109  -19.2939 O   0  0  0  0  0  0  0  0  0  0  0  0
  2  4  1  0
  2  1  1  0
  3  2  2  0
  5  6  1  0
  5  4  1  0
  6  7  1  0
  8  7  1  0
  8  9  1  6
 10  8  1  0
 10 17  1  0
 11 10  2  0
 13 12  1  1
 14 13  1  0
 15 13  1  0
 16 15  1  1
 16 17  1  0
 18 16  1  0
 19 18  2  0
 20 21  1  0
 22 23  1  0
 22 21  1  1
 23 18  1  0
 24 22  1  0
 25 24  1  0
 26 24  2  0
M  END
$$$$
