RLS.pdb
     RDKit          3D

 26 25  0  0  1  0  0  0  0  0999 V2000
   18.7867  -25.4866  -11.5527 N   0  0  0  0  0  0  0  0  0  0  0  0
   18.0512  -24.4448  -10.9331 C   0  0  0  0  0  0  0  0  0  0  0  0
   16.9260  -24.6768  -10.3806 N   0  0  0  0  0  0  0  0  0  0  0  0
   18.5688  -23.1194  -10.9233 N   0  0  0  0  0  0  0  0  0  0  0  0
   18.9197  -22.5436  -12.2035 C   0  0  0  0  0  0  0  0  0  0  0  0
   20.2930  -23.0478  -12.5819 C   0  0  0  0  0  0  0  0  0  0  0  0
   21.1262  -21.9386  -13.1572 C   0  0  0  0  0  0  0  0  0  0  0  0
   21.3962  -20.8382  -12.1812 C   0  0  2  0  0  0  0  0  0  0  0  0
   20.5692  -19.7075  -12.4536 N   0  0  0  0  0  0  0  0  0  0  0  0
   22.8348  -20.4952  -12.0816 C   0  0  0  0  0  0  0  0  0  0  0  0
   23.3645  -19.7093  -12.9390 O   0  0  0  0  0  0  0  0  0  0  0  0
   16.4072  -23.9080   -9.8778 C   0  0  0  0  0  0  0  0  0  0  0  0
   26.2834  -18.8600   -8.4752 C   0  0  2  0  0  0  0  0  0  0  0  0
   26.3532  -20.3153   -8.6910 C   0  0  0  0  0  0  0  0  0  0  0  0
   26.5196  -20.9430   -7.2852 C   0  0  0  0  0  0  0  0  0  0  0  0
   25.3201  -21.0155   -9.4479 C   0  0  2  0  0  0  0  0  0  0  0  0
   25.0319  -20.7065  -10.8579 N   0  0  0  0  0  0  0  0  0  0  0  0
   23.5914  -21.0541  -11.0271 C   0  0  0  0  0  0  0  0  0  0  0  0
   25.7199  -21.4865  -11.8939 O   0  0  0  0  0  0  0  0  0  0  0  0
   25.4148  -22.6932  -12.0533 O   0  0  0  0  0  0  0  0  0  0  0  0
   25.5920  -21.1653  -16.0998 C   0  0  0  0  0  0  0  0  0  0  0  0
   25.5078  -21.5487  -14.7834 C   0  0  1  0  0  0  0  0  0  0  0  0
   26.8735  -21.4584  -14.0910 N   0  0  0  0  0  0  0  0  0  0  0  0
   26.7229  -20.9751  -12.7473 C   0  0  0  0  0  0  0  0  0  0  0  0
   27.7699  -20.5538  -14.8498 O   0  0  0  0  0  0  0  0  0  0  0  0
   28.5666  -20.9603  -15.8998 O   0  0  0  0  0  0  0  0  0  0  0  0
  2  4  1  0
  2  1  1  0
  3  2  2  0
  5  6  1  0
  5  4  1  0
  6  7  1  0
  8  7  1  0
  8  9  1  6
 10  8  1  0
 10 17  1  0
 11 10  2  0
 13 12  1  6
 14 13  1  0
 15 13  1  0
 16 15  1  1
 16 17  1  0
 18 16  1  0
 19 18  2  0
 20 21  1  0
 22 23  1  0
 22 21  1  1
 23 18  1  0
 24 22  1  0
 25 24  1  0
 26 24  2  0
M  END
$$$$
