RLS.pdb
     RDKit          3D

 26 25  0  0  1  0  0  0  0  0999 V2000
   18.7783  -29.6517  -13.9732 N   0  0  0  0  0  0  0  0  0  0  0  0
   19.8176  -30.6110  -14.0731 C   0  0  0  0  0  0  0  0  0  0  0  0
   19.7988  -31.6726  -13.3674 N   0  0  0  0  0  0  0  0  0  0  0  0
   20.9000  -30.3937  -14.9708 N   0  0  0  0  0  0  0  0  0  0  0  0
   20.8468  -29.1982  -15.7841 C   0  0  0  0  0  0  0  0  0  0  0  0
   21.5718  -29.4814  -17.0792 C   0  0  0  0  0  0  0  0  0  0  0  0
   23.0217  -29.7774  -16.8226 C   0  0  0  0  0  0  0  0  0  0  0  0
   23.8003  -30.0343  -18.0732 C   0  0  2  0  0  0  0  0  0  0  0  0
   23.5916  -31.3693  -18.5327 N   0  0  0  0  0  0  0  0  0  0  0  0
   25.2343  -29.6823  -17.9429 C   0  0  0  0  0  0  0  0  0  0  0  0
   25.5717  -28.5106  -17.5598 O   0  0  0  0  0  0  0  0  0  0  0  0
   20.5618  -32.3945  -13.4651 C   0  0  0  0  0  0  0  0  0  0  0  0
   28.3138  -33.3632  -15.5378 C   0  0  1  0  0  0  0  0  0  0  0  0
   27.8395  -32.0747  -16.0708 C   0  0  0  0  0  0  0  0  0  0  0  0
   28.2972  -31.0022  -15.0520 C   0  0  0  0  0  0  0  0  0  0  0  0
   28.1586  -31.6593  -17.4333 C   0  0  2  0  0  0  0  0  0  0  0  0
   27.6514  -30.4048  -18.0126 N   0  0  0  0  0  0  0  0  0  0  0  0
   26.2021  -30.6650  -18.2500 C   0  0  0  0  0  0  0  0  0  0  0  0
   28.1667  -29.9870  -19.3222 O   0  0  0  0  0  0  0  0  0  0  0  0
   27.8212  -30.6249  -20.3462 O   0  0  0  0  0  0  0  0  0  0  0  0
   29.5776  -26.6314  -22.3355 C   0  0  0  0  0  0  0  0  0  0  0  0
   29.1669  -27.0236  -21.0848 C   0  0  1  0  0  0  0  0  0  0  0  0
   29.4525  -28.5120  -20.8486 N   0  0  0  0  0  0  0  0  0  0  0  0
   29.0420  -28.8974  -19.5277 C   0  0  0  0  0  0  0  0  0  0  0  0
   30.8989  -28.7863  -21.0223 O   0  0  0  0  0  0  0  0  0  0  0  0
   31.4648  -29.2232  -22.2018 O   0  0  0  0  0  0  0  0  0  0  0  0
  2  4  1  0
  2  1  1  0
  3  2  2  0
  5  6  1  0
  5  4  1  0
  6  7  1  0
  8  7  1  0
  8  9  1  1
 10  8  1  0
 10 17  1  0
 11 10  2  0
 13 12  1  1
 14 13  1  0
 15 13  1  0
 16 15  1  1
 16 17  1  0
 18 16  1  0
 19 18  2  0
 20 21  1  0
 22 23  1  0
 22 21  1  6
 23 18  1  0
 24 22  1  0
 25 24  1  0
 26 24  2  0
M  END
$$$$
