RLS.pdb
     RDKit          3D

 26 25  0  0  1  0  0  0  0  0999 V2000
   19.3588  -23.8684   -8.9020 N   0  0  0  0  0  0  0  0  0  0  0  0
   18.1248  -23.6504   -9.5654 C   0  0  0  0  0  0  0  0  0  0  0  0
   17.0388  -24.1322   -9.1028 N   0  0  0  0  0  0  0  0  0  0  0  0
   18.0890  -22.8847  -10.7641 N   0  0  0  0  0  0  0  0  0  0  0  0
   19.2838  -22.8888  -11.5801 C   0  0  0  0  0  0  0  0  0  0  0  0
   20.2591  -21.8995  -10.9856 C   0  0  0  0  0  0  0  0  0  0  0  0
   20.6151  -20.8378  -11.9864 C   0  0  0  0  0  0  0  0  0  0  0  0
   21.4306  -21.3550  -13.1282 C   0  0  2  0  0  0  0  0  0  0  0  0
   21.7637  -22.7284  -12.9297 N   0  0  0  0  0  0  0  0  0  0  0  0
   22.6104  -20.5082  -13.4251 C   0  0  0  0  0  0  0  0  0  0  0  0
   22.4654  -19.2507  -13.6016 O   0  0  0  0  0  0  0  0  0  0  0  0
   16.1272  -23.9851   -9.6129 C   0  0  0  0  0  0  0  0  0  0  0  0
   27.9715  -19.1208  -12.8655 C   0  0  2  0  0  0  0  0  0  0  0  0
   27.5563  -20.5091  -13.1294 C   0  0  0  0  0  0  0  0  0  0  0  0
   28.4602  -21.3966  -12.2389 C   0  0  0  0  0  0  0  0  0  0  0  0
   26.1591  -20.9139  -13.0090 C   0  0  1  0  0  0  0  0  0  0  0  0
   25.0938  -20.3196  -13.8328 N   0  0  0  0  0  0  0  0  0  0  0  0
   23.8802  -21.1227  -13.5060 C   0  0  0  0  0  0  0  0  0  0  0  0
   25.2117  -20.4137  -15.2931 O   0  0  0  0  0  0  0  0  0  0  0  0
   25.3340  -21.5441  -15.8242 O   0  0  0  0  0  0  0  0  0  0  0  0
   22.9810  -19.2067  -18.1760 C   0  0  0  0  0  0  0  0  0  0  0  0
   24.2272  -18.6442  -18.3082 C   0  0  2  0  0  0  0  0  0  0  0  0
   25.2932  -19.4833  -17.5923 N   0  0  0  0  0  0  0  0  0  0  0  0
   25.1981  -19.3066  -16.1705 C   0  0  0  0  0  0  0  0  0  0  0  0
   26.6455  -19.0905  -18.0553 O   0  0  0  0  0  0  0  0  0  0  0  0
   27.3568  -19.7691  -19.0227 O   0  0  0  0  0  0  0  0  0  0  0  0
  2  4  1  0
  2  1  1  0
  3  2  2  0
  5  6  1  0
  5  4  1  0
  6  7  1  0
  8  7  1  0
  8  9  1  1
 10  8  1  0
 10 17  1  0
 11 10  2  0
 13 12  1  6
 14 13  1  0
 15 13  1  0
 16 15  1  1
 16 17  1  0
 18 16  1  0
 19 18  2  0
 20 21  1  0
 22 23  1  0
 22 21  1  1
 23 18  1  0
 24 22  1  0
 25 24  1  0
 26 24  2  0
M  END
$$$$
