RLS.pdb
     RDKit          3D

 26 25  0  0  1  0  0  0  0  0999 V2000
   18.0790  -11.2256  -23.8775 N   0  0  0  0  0  0  0  0  0  0  0  0
   17.3486  -12.0683  -23.0019 C   0  0  0  0  0  0  0  0  0  0  0  0
   16.6387  -13.0253  -23.4551 N   0  0  0  0  0  0  0  0  0  0  0  0
   17.4034  -11.8500  -21.5969 N   0  0  0  0  0  0  0  0  0  0  0  0
   17.7541  -10.5180  -21.1541 C   0  0  0  0  0  0  0  0  0  0  0  0
   19.2610  -10.4310  -21.0824 C   0  0  0  0  0  0  0  0  0  0  0  0
   19.6903   -9.6211  -19.8927 C   0  0  0  0  0  0  0  0  0  0  0  0
   20.6845  -10.3276  -19.0275 C   0  0  2  0  0  0  0  0  0  0  0  0
   20.4917  -11.7404  -19.0868 N   0  0  0  0  0  0  0  0  0  0  0  0
   20.7185   -9.8036  -17.6413 C   0  0  0  0  0  0  0  0  0  0  0  0
   19.7122   -9.9698  -16.8712 O   0  0  0  0  0  0  0  0  0  0  0  0
   16.1468  -13.6863  -22.7963 C   0  0  0  0  0  0  0  0  0  0  0  0
   24.3277  -11.3876  -14.3257 C   0  0  1  0  0  0  0  0  0  0  0  0
   23.1185  -10.7077  -14.8207 C   0  0  0  0  0  0  0  0  0  0  0  0
   22.0438  -10.9060  -13.7237 C   0  0  0  0  0  0  0  0  0  0  0  0
   23.1610   -9.3142  -15.2532 C   0  0  2  0  0  0  0  0  0  0  0  0
   21.9824   -8.6244  -15.8024 N   0  0  0  0  0  0  0  0  0  0  0  0
   21.8783   -9.1256  -17.2033 C   0  0  0  0  0  0  0  0  0  0  0  0
   22.0346   -7.1638  -15.9400 O   0  0  0  0  0  0  0  0  0  0  0  0
   22.8680   -6.6541  -16.7276 O   0  0  0  0  0  0  0  0  0  0  0  0
   19.0844   -4.5976  -14.5112 C   0  0  0  0  0  0  0  0  0  0  0  0
   19.8545   -4.2610  -15.5977 C   0  0  1  0  0  0  0  0  0  0  0  0
   21.2662   -4.8492  -15.4804 N   0  0  0  0  0  0  0  0  0  0  0  0
   21.2013   -6.2633  -15.2397 C   0  0  0  0  0  0  0  0  0  0  0  0
   22.0030   -4.1879  -14.3771 O   0  0  0  0  0  0  0  0  0  0  0  0
   22.3277   -2.8475  -14.3612 O   0  0  0  0  0  0  0  0  0  0  0  0
  2  4  1  0
  2  1  1  0
  3  2  2  0
  5  6  1  0
  5  4  1  0
  6  7  1  0
  8  7  1  0
  8  9  1  1
 10  8  1  0
 10 17  1  0
 11 10  2  0
 13 12  1  6
 14 13  1  0
 15 13  1  0
 16 15  1  1
 16 17  1  0
 18 16  1  0
 19 18  2  0
 20 21  1  0
 22 23  1  0
 22 21  1  6
 23 18  1  0
 24 22  1  0
 25 24  1  0
 26 24  2  0
M  END
$$$$
