PLM.pdb
     RDKit          3D

 24 24  0  0  1  0  0  0  0  0999 V2000
   24.3496  -18.3084  -14.1209 N   0  0  0  0  0  0  0  0  0  0  0  0
   25.0194  -17.6591  -15.2065 C   0  0  0  0  0  0  0  0  0  0  0  0
   24.2218  -18.1359  -16.4104 C   0  0  0  0  0  0  0  0  0  0  0  0
   23.8803  -19.5584  -16.0207 C   0  0  0  0  0  0  0  0  0  0  0  0
   23.9720  -19.6250  -14.5283 C   0  0  1  0  0  0  0  0  0  0  0  0
   24.9773  -20.5950  -14.0516 C   0  0  0  0  0  0  0  0  0  0  0  0
   24.8672  -21.8247  -14.2956 O   0  0  0  0  0  0  0  0  0  0  0  0
   30.4846  -19.8692  -14.0354 C   0  0  0  0  0  0  0  0  0  0  0  0
   29.0169  -20.3447  -14.1586 C   0  0  1  0  0  0  0  0  0  0  0  0
   29.0620  -21.5360  -15.0911 C   0  0  0  0  0  0  0  0  0  0  0  0
   28.4946  -20.7286  -12.8211 C   0  0  0  0  0  0  0  0  0  0  0  0
   27.0539  -21.1231  -12.7309 C   0  0  2  0  0  0  0  0  0  0  0  0
   26.1282  -20.2046  -13.2904 N   0  0  0  0  0  0  0  0  0  0  0  0
   26.7510  -21.4764  -11.3153 C   0  0  0  0  0  0  0  0  0  0  0  0
   27.3640  -22.4490  -10.8240 O   0  0  0  0  0  0  0  0  0  0  0  0
   29.1914  -19.8484   -6.1667 C   0  0  0  0  0  0  0  0  0  0  0  0
   27.5836  -19.0342   -6.0718 S   0  0  0  0  0  0  0  0  0  0  0  0
   26.2968  -20.0741   -6.8583 C   0  0  0  0  0  0  0  0  0  0  0  0
   26.4962  -20.0786   -8.3370 C   0  0  0  0  0  0  0  0  0  0  0  0
   25.6108  -21.0148   -9.1000 C   0  0  2  0  0  0  0  0  0  0  0  0
   25.8189  -20.7731  -10.5202 N   0  0  0  0  0  0  0  0  0  0  0  0
   24.1827  -20.7816   -8.7600 C   0  0  0  0  0  0  0  0  0  0  0  0
   23.6819  -21.1472   -7.4976 O   0  0  0  0  0  0  0  0  0  0  0  0
   23.3583  -20.2587   -9.5582 O   0  0  0  0  0  0  0  0  0  0  0  0
  2  1  1  0
  3  2  1  0
  4  3  1  0
  4  5  1  0
  5  6  1  6
  5  1  1  0
  6  7  2  0
  9  8  1  1
  9 11  1  0
 10  9  1  0
 12 11  1  1
 13 12  1  0
 13  6  1  0
 14 15  2  0
 14 12  1  0
 16 17  1  0
 18 17  1  0
 18 19  1  0
 20 19  1  1
 20 22  1  0
 20 21  1  0
 21 14  1  0
 22 23  1  0
 24 22  2  0
M  END
$$$$
