PLM.pdb
     RDKit          3D

 24 24  0  0  1  0  0  0  0  0999 V2000
   24.7714  -21.8808  -14.2047 N   0  0  0  0  0  0  0  0  0  0  0  0
   26.1299  -21.9439  -13.7584 C   0  0  0  0  0  0  0  0  0  0  0  0
   25.9694  -22.2097  -12.2696 C   0  0  0  0  0  0  0  0  0  0  0  0
   24.7373  -21.3967  -11.9339 C   0  0  0  0  0  0  0  0  0  0  0  0
   23.9879  -21.2095  -13.2159 C   0  0  1  0  0  0  0  0  0  0  0  0
   23.8289  -19.7914  -13.5932 C   0  0  0  0  0  0  0  0  0  0  0  0
   23.3462  -18.9509  -12.7905 O   0  0  0  0  0  0  0  0  0  0  0  0
   27.2625  -16.6074  -16.8152 C   0  0  0  0  0  0  0  0  0  0  0  0
   26.3026  -17.0409  -15.6812 C   0  0  1  0  0  0  0  0  0  0  0  0
   26.2198  -15.8484  -14.7529 C   0  0  0  0  0  0  0  0  0  0  0  0
   24.9693  -17.3758  -16.2462 C   0  0  0  0  0  0  0  0  0  0  0  0
   23.9534  -17.9604  -15.3158 C   0  0  2  0  0  0  0  0  0  0  0  0
   24.2087  -19.2867  -14.8806 N   0  0  0  0  0  0  0  0  0  0  0  0
   22.6045  -17.7897  -15.9255 C   0  0  0  0  0  0  0  0  0  0  0  0
   22.2889  -18.5740  -16.8467 O   0  0  0  0  0  0  0  0  0  0  0  0
   17.8582  -15.9400  -12.3583 C   0  0  0  0  0  0  0  0  0  0  0  0
   17.1156  -15.2787  -13.8644 S   0  0  0  0  0  0  0  0  0  0  0  0
   18.0535  -15.8392  -15.3349 C   0  0  0  0  0  0  0  0  0  0  0  0
   19.4624  -16.1354  -14.9430 C   0  0  0  0  0  0  0  0  0  0  0  0
   20.3315  -16.6752  -16.0365 C   0  0  2  0  0  0  0  0  0  0  0  0
   21.6849  -16.7988  -15.5154 N   0  0  0  0  0  0  0  0  0  0  0  0
   20.3313  -15.7601  -17.2079 C   0  0  0  0  0  0  0  0  0  0  0  0
   21.3025  -14.7493  -17.3226 O   0  0  0  0  0  0  0  0  0  0  0  0
   19.4861  -15.8314  -18.1409 O   0  0  0  0  0  0  0  0  0  0  0  0
  2  1  1  0
  3  2  1  0
  4  3  1  0
  4  5  1  0
  5  6  1  6
  5  1  1  0
  6  7  2  0
  9  8  1  6
  9 11  1  0
 10  9  1  0
 12 11  1  6
 13 12  1  0
 13  6  1  0
 14 15  2  0
 14 12  1  0
 16 17  1  0
 18 17  1  0
 18 19  1  0
 20 19  1  1
 20 22  1  0
 20 21  1  0
 21 14  1  0
 22 23  1  0
 24 22  2  0
M  END
$$$$
