PLM.pdb
     RDKit          3D

 24 24  0  0  1  0  0  0  0  0999 V2000
   28.5137  -20.4111  -15.9272 N   0  0  0  0  0  0  0  0  0  0  0  0
   28.1436  -20.4051  -17.3098 C   0  0  0  0  0  0  0  0  0  0  0  0
   27.8575  -18.9329  -17.5618 C   0  0  0  0  0  0  0  0  0  0  0  0
   27.2300  -18.5037  -16.2526 C   0  0  0  0  0  0  0  0  0  0  0  0
   27.6842  -19.4871  -15.2199 C   0  0  1  0  0  0  0  0  0  0  0  0
   26.5697  -20.2148  -14.5819 C   0  0  0  0  0  0  0  0  0  0  0  0
   26.1638  -21.3169  -15.0341 O   0  0  0  0  0  0  0  0  0  0  0  0
   25.8499  -20.3080   -8.9855 C   0  0  0  0  0  0  0  0  0  0  0  0
   26.0474  -20.6385  -10.4845 C   0  0  1  0  0  0  0  0  0  0  0  0
   26.2742  -22.1341  -10.5354 C   0  0  0  0  0  0  0  0  0  0  0  0
   24.8351  -20.2523  -11.2527 C   0  0  0  0  0  0  0  0  0  0  0  0
   24.8716  -20.4373  -12.7372 C   0  0  2  0  0  0  0  0  0  0  0  0
   25.8868  -19.7202  -13.4219 N   0  0  0  0  0  0  0  0  0  0  0  0
   23.5057  -20.1840  -13.2762 C   0  0  0  0  0  0  0  0  0  0  0  0
   23.0789  -19.0099  -13.2263 O   0  0  0  0  0  0  0  0  0  0  0  0
   21.2697  -23.9560  -17.6515 C   0  0  0  0  0  0  0  0  0  0  0  0
   19.7326  -23.0154  -17.5526 S   0  0  0  0  0  0  0  0  0  0  0  0
   19.8331  -21.7722  -16.2108 C   0  0  0  0  0  0  0  0  0  0  0  0
   21.1542  -21.8846  -15.5266 C   0  0  0  0  0  0  0  0  0  0  0  0
   21.3534  -20.9636  -14.3627 C   0  0  2  0  0  0  0  0  0  0  0  0
   22.6881  -21.1942  -13.8302 N   0  0  0  0  0  0  0  0  0  0  0  0
   20.3433  -21.2280  -13.3047 C   0  0  0  0  0  0  0  0  0  0  0  0
   19.0695  -20.6357  -13.3715 O   0  0  0  0  0  0  0  0  0  0  0  0
   20.5604  -21.9760  -12.3129 O   0  0  0  0  0  0  0  0  0  0  0  0
  2  1  1  0
  3  2  1  0
  4  3  1  0
  4  5  1  0
  5  6  1  6
  5  1  1  0
  6  7  2  0
  9  8  1  1
  9 11  1  0
 10  9  1  0
 12 11  1  1
 13 12  1  0
 13  6  1  0
 14 15  2  0
 14 12  1  0
 16 17  1  0
 18 17  1  0
 18 19  1  0
 20 19  1  6
 20 22  1  0
 20 21  1  0
 21 14  1  0
 22 23  1  0
 24 22  2  0
M  END
$$$$
