PLM.pdb
     RDKit          3D

 24 24  0  0  1  0  0  0  0  0999 V2000
   27.6380  -20.0818  -16.5359 N   0  0  0  0  0  0  0  0  0  0  0  0
   28.9888  -20.1116  -16.0635 C   0  0  0  0  0  0  0  0  0  0  0  0
   29.5354  -21.3670  -16.7252 C   0  0  0  0  0  0  0  0  0  0  0  0
   28.3366  -22.2909  -16.6903 C   0  0  0  0  0  0  0  0  0  0  0  0
   27.1280  -21.4163  -16.5704 C   0  0  1  0  0  0  0  0  0  0  0  0
   26.3436  -21.6752  -15.3471 C   0  0  0  0  0  0  0  0  0  0  0  0
   25.6334  -22.7077  -15.2315 O   0  0  0  0  0  0  0  0  0  0  0  0
   25.2079  -21.9279  -10.1386 C   0  0  0  0  0  0  0  0  0  0  0  0
   25.1037  -20.4642  -10.6306 C   0  0  1  0  0  0  0  0  0  0  0  0
   25.6086  -19.6211   -9.4796 C   0  0  0  0  0  0  0  0  0  0  0  0
   25.9426  -20.2761  -11.8431 C   0  0  0  0  0  0  0  0  0  0  0  0
   25.4708  -20.9116  -13.1131 C   0  0  2  0  0  0  0  0  0  0  0  0
   26.3400  -20.7797  -14.2270 N   0  0  0  0  0  0  0  0  0  0  0  0
   24.0846  -20.4394  -13.3882 C   0  0  0  0  0  0  0  0  0  0  0  0
   23.9211  -19.2118  -13.5596 O   0  0  0  0  0  0  0  0  0  0  0  0
   18.3986  -24.3106  -15.0846 C   0  0  0  0  0  0  0  0  0  0  0  0
   18.8932  -22.8809  -16.0686 S   0  0  0  0  0  0  0  0  0  0  0  0
   19.5372  -21.5536  -14.9826 C   0  0  0  0  0  0  0  0  0  0  0  0
   20.9650  -21.8316  -14.6506 C   0  0  0  0  0  0  0  0  0  0  0  0
   21.6063  -20.8562  -13.7125 C   0  0  2  0  0  0  0  0  0  0  0  0
   22.9687  -21.3027  -13.4620 N   0  0  0  0  0  0  0  0  0  0  0  0
   20.8596  -20.7934  -12.4287 C   0  0  0  0  0  0  0  0  0  0  0  0
   21.1354  -21.7100  -11.3984 O   0  0  0  0  0  0  0  0  0  0  0  0
   19.9606  -19.9411  -12.1927 O   0  0  0  0  0  0  0  0  0  0  0  0
  2  1  1  0
  3  2  1  0
  4  3  1  0
  4  5  1  0
  5  6  1  1
  5  1  1  0
  6  7  2  0
  9  8  1  1
  9 11  1  0
 10  9  1  0
 12 11  1  1
 13 12  1  0
 13  6  1  0
 14 15  2  0
 14 12  1  0
 16 17  1  0
 18 17  1  0
 18 19  1  0
 20 19  1  6
 20 22  1  0
 20 21  1  0
 21 14  1  0
 22 23  1  0
 24 22  2  0
M  END
$$$$
