PLM.pdb
     RDKit          3D

 24 24  0  0  1  0  0  0  0  0999 V2000
   23.2538   -9.8760  -20.1022 N   0  0  0  0  0  0  0  0  0  0  0  0
   23.8461  -11.1266  -20.4680 C   0  0  0  0  0  0  0  0  0  0  0  0
   22.6690  -11.8785  -21.0696 C   0  0  0  0  0  0  0  0  0  0  0  0
   21.5203  -11.4181  -20.1977 C   0  0  0  0  0  0  0  0  0  0  0  0
   21.9403  -10.1152  -19.5926 C   0  0  1  0  0  0  0  0  0  0  0  0
   21.9829  -10.1476  -18.1175 C   0  0  0  0  0  0  0  0  0  0  0  0
   20.9531  -10.3972  -17.4385 O   0  0  0  0  0  0  0  0  0  0  0  0
   26.4788  -11.9303  -15.3239 C   0  0  0  0  0  0  0  0  0  0  0  0
   25.0756  -11.6639  -15.9199 C   0  0  1  0  0  0  0  0  0  0  0  0
   24.2401  -12.8609  -15.5201 C   0  0  0  0  0  0  0  0  0  0  0  0
   24.5166  -10.4065  -15.3580 C   0  0  0  0  0  0  0  0  0  0  0  0
   23.2458   -9.8896  -15.9556 C   0  0  2  0  0  0  0  0  0  0  0  0
   23.1834   -9.9002  -17.3732 N   0  0  0  0  0  0  0  0  0  0  0  0
   22.9574   -8.5531  -15.3631 C   0  0  0  0  0  0  0  0  0  0  0  0
   22.8271   -8.4932  -14.1210 O   0  0  0  0  0  0  0  0  0  0  0  0
   23.9858   -2.8979  -18.6031 C   0  0  0  0  0  0  0  0  0  0  0  0
   24.2672   -2.5463  -16.8554 S   0  0  0  0  0  0  0  0  0  0  0  0
   23.2411   -3.6481  -15.8119 C   0  0  0  0  0  0  0  0  0  0  0  0
   23.3954   -5.0578  -16.2755 C   0  0  0  0  0  0  0  0  0  0  0  0
   22.5392   -6.0623  -15.5678 C   0  0  2  0  0  0  0  0  0  0  0  0
   22.8272   -7.3737  -16.1298 N   0  0  0  0  0  0  0  0  0  0  0  0
   21.0983   -5.7476  -15.7526 C   0  0  0  0  0  0  0  0  0  0  0  0
   20.4834   -4.7450  -14.9815 O   0  0  0  0  0  0  0  0  0  0  0  0
   20.3619   -6.3424  -16.5857 O   0  0  0  0  0  0  0  0  0  0  0  0
  2  1  1  0
  3  2  1  0
  4  3  1  0
  4  5  1  0
  5  6  1  1
  5  1  1  0
  6  7  2  0
  9  8  1  1
  9 11  1  0
 10  9  1  0
 12 11  1  6
 13 12  1  0
 13  6  1  0
 14 15  2  0
 14 12  1  0
 16 17  1  0
 18 17  1  0
 18 19  1  0
 20 19  1  6
 20 22  1  0
 20 21  1  0
 21 14  1  0
 22 23  1  0
 24 22  2  0
M  END
$$$$
