PLM.pdb
     RDKit          3D

 24 24  0  0  1  0  0  0  0  0999 V2000
   27.6719  -20.1627  -15.9501 N   0  0  0  0  0  0  0  0  0  0  0  0
   29.0235  -20.1586  -15.4793 C   0  0  0  0  0  0  0  0  0  0  0  0
   29.5935  -21.4141  -16.1209 C   0  0  0  0  0  0  0  0  0  0  0  0
   28.4128  -22.3602  -16.0689 C   0  0  0  0  0  0  0  0  0  0  0  0
   27.1877  -21.5072  -15.9616 C   0  0  1  0  0  0  0  0  0  0  0  0
   26.4099  -21.7608  -14.7331 C   0  0  0  0  0  0  0  0  0  0  0  0
   25.5805  -22.7050  -14.6669 O   0  0  0  0  0  0  0  0  0  0  0  0
   25.1527  -21.9910   -9.4978 C   0  0  0  0  0  0  0  0  0  0  0  0
   25.2768  -20.5252   -9.9789 C   0  0  1  0  0  0  0  0  0  0  0  0
   25.8639  -19.7702   -8.8060 C   0  0  0  0  0  0  0  0  0  0  0  0
   26.1700  -20.4549  -11.1648 C   0  0  0  0  0  0  0  0  0  0  0  0
   25.6508  -21.0120  -12.4530 C   0  0  2  0  0  0  0  0  0  0  0  0
   26.5469  -20.9591  -13.5520 N   0  0  0  0  0  0  0  0  0  0  0  0
   24.3303  -20.3834  -12.7386 C   0  0  0  0  0  0  0  0  0  0  0  0
   24.3115  -19.1460  -12.9163 O   0  0  0  0  0  0  0  0  0  0  0  0
   20.9883  -22.4600  -17.0467 C   0  0  0  0  0  0  0  0  0  0  0  0
   19.7051  -21.2785  -16.5835 S   0  0  0  0  0  0  0  0  0  0  0  0
   20.0638  -20.5637  -14.9354 C   0  0  0  0  0  0  0  0  0  0  0  0
   21.4092  -21.0186  -14.4781 C   0  0  0  0  0  0  0  0  0  0  0  0
   21.8306  -20.5192  -13.1306 C   0  0  2  0  0  0  0  0  0  0  0  0
   23.1222  -21.1116  -12.8154 N   0  0  0  0  0  0  0  0  0  0  0  0
   20.8392  -20.9069  -12.0931 C   0  0  0  0  0  0  0  0  0  0  0  0
   20.9413  -22.1472  -11.4381 O   0  0  0  0  0  0  0  0  0  0  0  0
   19.8755  -20.1704  -11.7481 O   0  0  0  0  0  0  0  0  0  0  0  0
  2  1  1  0
  3  2  1  0
  4  3  1  0
  4  5  1  0
  5  6  1  1
  5  1  1  0
  6  7  2  0
  9  8  1  1
  9 11  1  0
 10  9  1  0
 12 11  1  1
 13 12  1  0
 13  6  1  0
 14 15  2  0
 14 12  1  0
 16 17  1  0
 18 17  1  0
 18 19  1  0
 20 19  1  6
 20 22  1  0
 20 21  1  0
 21 14  1  0
 22 23  1  0
 24 22  2  0
M  END
$$$$
