PLM.pdb
     RDKit          3D

 24 24  0  0  1  0  0  0  0  0999 V2000
   26.8961  -18.6995  -15.4128 N   0  0  0  0  0  0  0  0  0  0  0  0
   28.0439  -18.4619  -14.5914 C   0  0  0  0  0  0  0  0  0  0  0  0
   29.1000  -19.3353  -15.2506 C   0  0  0  0  0  0  0  0  0  0  0  0
   28.2893  -20.5368  -15.6879 C   0  0  0  0  0  0  0  0  0  0  0  0
   26.8675  -20.0793  -15.7837 C   0  0  1  0  0  0  0  0  0  0  0  0
   25.9599  -20.8131  -14.8801 C   0  0  0  0  0  0  0  0  0  0  0  0
   25.7805  -22.0532  -14.9984 O   0  0  0  0  0  0  0  0  0  0  0  0
   25.7107  -20.3709   -9.4295 C   0  0  0  0  0  0  0  0  0  0  0  0
   25.7441  -20.7927  -10.9182 C   0  0  1  0  0  0  0  0  0  0  0  0
   26.1180  -22.2592  -10.9076 C   0  0  0  0  0  0  0  0  0  0  0  0
   24.4079  -20.5831  -11.5345 C   0  0  0  0  0  0  0  0  0  0  0  0
   24.2808  -20.8290  -13.0050 C   0  0  2  0  0  0  0  0  0  0  0  0
   25.2340  -20.1698  -13.8239 N   0  0  0  0  0  0  0  0  0  0  0  0
   22.8715  -20.5584  -13.4067 C   0  0  0  0  0  0  0  0  0  0  0  0
   22.4947  -19.3663  -13.4066 O   0  0  0  0  0  0  0  0  0  0  0  0
   16.8535  -23.7100  -17.4887 C   0  0  0  0  0  0  0  0  0  0  0  0
   18.5542  -23.7311  -16.8851 S   0  0  0  0  0  0  0  0  0  0  0  0
   18.8369  -22.3366  -15.7313 C   0  0  0  0  0  0  0  0  0  0  0  0
   20.2284  -22.4069  -15.1975 C   0  0  0  0  0  0  0  0  0  0  0  0
   20.6021  -21.3199  -14.2376 C   0  0  2  0  0  0  0  0  0  0  0  0
   21.9607  -21.5717  -13.7801 N   0  0  0  0  0  0  0  0  0  0  0  0
   19.6792  -21.3079  -13.0724 C   0  0  0  0  0  0  0  0  0  0  0  0
   18.4888  -20.5601  -13.1139 O   0  0  0  0  0  0  0  0  0  0  0  0
   19.9008  -21.9471  -12.0082 O   0  0  0  0  0  0  0  0  0  0  0  0
  2  1  1  0
  3  2  1  0
  4  3  1  0
  4  5  1  0
  5  6  1  1
  5  1  1  0
  6  7  2  0
  9  8  1  1
  9 11  1  0
 10  9  1  0
 12 11  1  1
 13 12  1  0
 13  6  1  0
 14 15  2  0
 14 12  1  0
 16 17  1  0
 18 17  1  0
 18 19  1  0
 20 19  1  6
 20 22  1  0
 20 21  1  0
 21 14  1  0
 22 23  1  0
 24 22  2  0
M  END
$$$$
