PLM.pdb
     RDKit          3D

 24 24  0  0  1  0  0  0  0  0999 V2000
   26.7659  -19.8575  -17.9099 N   0  0  0  0  0  0  0  0  0  0  0  0
   25.8761  -20.0894  -19.0068 C   0  0  0  0  0  0  0  0  0  0  0  0
   25.1765  -18.7462  -19.1456 C   0  0  0  0  0  0  0  0  0  0  0  0
   25.0535  -18.3028  -17.7033 C   0  0  0  0  0  0  0  0  0  0  0  0
   26.1042  -19.0450  -16.9383 C   0  0  1  0  0  0  0  0  0  0  0  0
   25.5490  -19.9041  -15.8741 C   0  0  0  0  0  0  0  0  0  0  0  0
   25.1409  -21.0690  -16.1198 O   0  0  0  0  0  0  0  0  0  0  0  0
   25.6348  -22.2550  -11.0789 C   0  0  0  0  0  0  0  0  0  0  0  0
   24.9409  -20.8741  -10.9966 C   0  0  1  0  0  0  0  0  0  0  0  0
   25.3293  -20.3138   -9.6453 C   0  0  0  0  0  0  0  0  0  0  0  0
   25.4200  -19.9995  -12.0988 C   0  0  0  0  0  0  0  0  0  0  0  0
   24.8905  -20.2689  -13.4723 C   0  0  2  0  0  0  0  0  0  0  0  0
   25.4401  -19.4732  -14.5107 N   0  0  0  0  0  0  0  0  0  0  0  0
   23.4020  -20.2227  -13.4196 C   0  0  0  0  0  0  0  0  0  0  0  0
   22.8717  -19.1185  -13.1688 O   0  0  0  0  0  0  0  0  0  0  0  0
   19.9923  -25.2719  -15.4031 C   0  0  0  0  0  0  0  0  0  0  0  0
   18.7284  -24.5961  -14.3064 S   0  0  0  0  0  0  0  0  0  0  0  0
   19.1493  -22.8769  -13.8342 C   0  0  0  0  0  0  0  0  0  0  0  0
   20.6325  -22.7281  -13.7685 C   0  0  0  0  0  0  0  0  0  0  0  0
   21.1274  -21.3314  -13.5522 C   0  0  2  0  0  0  0  0  0  0  0  0
   22.5803  -21.3512  -13.6363 N   0  0  0  0  0  0  0  0  0  0  0  0
   20.7135  -20.8285  -12.2160 C   0  0  0  0  0  0  0  0  0  0  0  0
   21.3927  -21.2437  -11.0566 O   0  0  0  0  0  0  0  0  0  0  0  0
   19.7572  -20.0242  -12.0457 O   0  0  0  0  0  0  0  0  0  0  0  0
  2  1  1  0
  3  2  1  0
  4  3  1  0
  4  5  1  0
  5  6  1  1
  5  1  1  0
  6  7  2  0
  9  8  1  6
  9 11  1  0
 10  9  1  0
 12 11  1  1
 13 12  1  0
 13  6  1  0
 14 15  2  0
 14 12  1  0
 16 17  1  0
 18 17  1  0
 18 19  1  0
 20 19  1  1
 20 22  1  0
 20 21  1  0
 21 14  1  0
 22 23  1  0
 24 22  2  0
M  END
$$$$
