PLM.pdb
     RDKit          3D

 24 24  0  0  1  0  0  0  0  0999 V2000
   28.0897  -20.8569  -15.0975 N   0  0  0  0  0  0  0  0  0  0  0  0
   27.4292  -20.2489  -16.2123 C   0  0  0  0  0  0  0  0  0  0  0  0
   27.5931  -18.7663  -15.9163 C   0  0  0  0  0  0  0  0  0  0  0  0
   27.4672  -18.7287  -14.4081 C   0  0  0  0  0  0  0  0  0  0  0  0
   27.8009  -20.1031  -13.9183 C   0  0  1  0  0  0  0  0  0  0  0  0
   26.6913  -20.7428  -13.1846 C   0  0  0  0  0  0  0  0  0  0  0  0
   26.0729  -21.7289  -13.6632 O   0  0  0  0  0  0  0  0  0  0  0  0
   26.3038  -19.6936   -7.6565 C   0  0  0  0  0  0  0  0  0  0  0  0
   26.5358  -20.2784   -9.0706 C   0  0  1  0  0  0  0  0  0  0  0  0
   27.4219  -21.4872   -8.8605 C   0  0  0  0  0  0  0  0  0  0  0  0
   25.2358  -20.6642   -9.6791 C   0  0  0  0  0  0  0  0  0  0  0  0
   25.2098  -20.9031  -11.1560 C   0  0  2  0  0  0  0  0  0  0  0  0
   26.2522  -20.2886  -11.8973 N   0  0  0  0  0  0  0  0  0  0  0  0
   23.8494  -20.5670  -11.6627 C   0  0  0  0  0  0  0  0  0  0  0  0
   22.9729  -20.2954  -10.8135 O   0  0  0  0  0  0  0  0  0  0  0  0
   23.0438  -18.3012  -17.5529 C   0  0  0  0  0  0  0  0  0  0  0  0
   21.4033  -19.0407  -17.4149 S   0  0  0  0  0  0  0  0  0  0  0  0
   21.0502  -19.4841  -15.6729 C   0  0  0  0  0  0  0  0  0  0  0  0
   22.3287  -19.7973  -14.9704 C   0  0  0  0  0  0  0  0  0  0  0  0
   22.1863  -20.2351  -13.5454 C   0  0  2  0  0  0  0  0  0  0  0  0
   23.5141  -20.5428  -13.0348 N   0  0  0  0  0  0  0  0  0  0  0  0
   21.3247  -21.4427  -13.4504 C   0  0  0  0  0  0  0  0  0  0  0  0
   19.9424  -21.3158  -13.2250 O   0  0  0  0  0  0  0  0  0  0  0  0
   21.7672  -22.6182  -13.5621 O   0  0  0  0  0  0  0  0  0  0  0  0
  2  1  1  0
  3  2  1  0
  4  3  1  0
  4  5  1  0
  5  6  1  6
  5  1  1  0
  6  7  2  0
  9  8  1  1
  9 11  1  0
 10  9  1  0
 12 11  1  1
 13 12  1  0
 13  6  1  0
 14 15  2  0
 14 12  1  0
 16 17  1  0
 18 17  1  0
 18 19  1  0
 20 19  1  6
 20 22  1  0
 20 21  1  0
 21 14  1  0
 22 23  1  0
 24 22  2  0
M  END
$$$$
