PLM.pdb
     RDKit          3D

 24 24  0  0  1  0  0  0  0  0999 V2000
   26.3951  -17.8882  -19.7563 N   0  0  0  0  0  0  0  0  0  0  0  0
   27.2743  -18.5773  -18.8614 C   0  0  0  0  0  0  0  0  0  0  0  0
   26.4184  -19.7485  -18.4048 C   0  0  0  0  0  0  0  0  0  0  0  0
   25.0410  -19.1244  -18.3314 C   0  0  0  0  0  0  0  0  0  0  0  0
   25.0691  -17.9238  -19.2246 C   0  0  1  0  0  0  0  0  0  0  0  0
   24.7913  -16.6625  -18.5101 C   0  0  0  0  0  0  0  0  0  0  0  0
   23.7655  -16.5287  -17.7933 O   0  0  0  0  0  0  0  0  0  0  0  0
   28.6649  -13.3672  -16.2243 C   0  0  0  0  0  0  0  0  0  0  0  0
   27.3759  -14.1879  -16.4696 C   0  0  1  0  0  0  0  0  0  0  0  0
   26.6930  -14.2679  -15.1212 C   0  0  0  0  0  0  0  0  0  0  0  0
   26.5171  -13.4969  -17.4667 C   0  0  0  0  0  0  0  0  0  0  0  0
   25.3542  -14.2585  -18.0204 C   0  0  2  0  0  0  0  0  0  0  0  0
   25.6599  -15.5239  -18.5852 N   0  0  0  0  0  0  0  0  0  0  0  0
   24.6057  -13.3645  -18.9483 C   0  0  0  0  0  0  0  0  0  0  0  0
   25.0917  -13.1837  -20.0860 O   0  0  0  0  0  0  0  0  0  0  0  0
   18.3074  -12.1039  -17.9798 C   0  0  0  0  0  0  0  0  0  0  0  0
   18.4867  -12.0548  -19.7749 S   0  0  0  0  0  0  0  0  0  0  0  0
   20.1983  -11.5870  -20.2305 C   0  0  0  0  0  0  0  0  0  0  0  0
   21.1618  -12.2979  -19.3403 C   0  0  0  0  0  0  0  0  0  0  0  0
   22.6007  -11.9278  -19.5282 C   0  0  2  0  0  0  0  0  0  0  0  0
   23.3942  -12.7246  -18.6042 N   0  0  0  0  0  0  0  0  0  0  0  0
   22.8125  -10.4834  -19.2479 C   0  0  0  0  0  0  0  0  0  0  0  0
   22.5234   -9.5174  -20.2282 O   0  0  0  0  0  0  0  0  0  0  0  0
   23.2514  -10.0496  -18.1482 O   0  0  0  0  0  0  0  0  0  0  0  0
  2  1  1  0
  3  2  1  0
  4  3  1  0
  4  5  1  0
  5  6  1  1
  5  1  1  0
  6  7  2  0
  9  8  1  1
  9 11  1  0
 10  9  1  0
 12 11  1  6
 13 12  1  0
 13  6  1  0
 14 15  2  0
 14 12  1  0
 16 17  1  0
 18 17  1  0
 18 19  1  0
 20 19  1  1
 20 22  1  0
 20 21  1  0
 21 14  1  0
 22 23  1  0
 24 22  2  0
M  END
$$$$
