PLM.pdb
     RDKit          3D

 24 24  0  0  1  0  0  0  0  0999 V2000
   27.4639  -19.9362  -15.9751 N   0  0  0  0  0  0  0  0  0  0  0  0
   28.8284  -19.9233  -15.5428 C   0  0  0  0  0  0  0  0  0  0  0  0
   29.4015  -21.1453  -16.2437 C   0  0  0  0  0  0  0  0  0  0  0  0
   28.2395  -22.1143  -16.1913 C   0  0  0  0  0  0  0  0  0  0  0  0
   27.0033  -21.2883  -16.0198 C   0  0  1  0  0  0  0  0  0  0  0  0
   26.2658  -21.5983  -14.7793 C   0  0  0  0  0  0  0  0  0  0  0  0
   25.7032  -22.7117  -14.6134 O   0  0  0  0  0  0  0  0  0  0  0  0
   25.1952  -22.0848   -9.6527 C   0  0  0  0  0  0  0  0  0  0  0  0
   25.1090  -20.5852  -10.0255 C   0  0  1  0  0  0  0  0  0  0  0  0
   25.7025  -19.8473   -8.8448 C   0  0  0  0  0  0  0  0  0  0  0  0
   25.8848  -20.3260  -11.2664 C   0  0  0  0  0  0  0  0  0  0  0  0
   25.3490  -20.8896  -12.5449 C   0  0  2  0  0  0  0  0  0  0  0  0
   26.1444  -20.6641  -13.6981 N   0  0  0  0  0  0  0  0  0  0  0  0
   23.9386  -20.4358  -12.7039 C   0  0  0  0  0  0  0  0  0  0  0  0
   23.7452  -19.2101  -12.8574 O   0  0  0  0  0  0  0  0  0  0  0  0
   20.0971  -23.6465  -16.1992 C   0  0  0  0  0  0  0  0  0  0  0  0
   18.7407  -22.9237  -15.2531 S   0  0  0  0  0  0  0  0  0  0  0  0
   19.3715  -21.6191  -14.1324 C   0  0  0  0  0  0  0  0  0  0  0  0
   20.7952  -21.9043  -13.7887 C   0  0  0  0  0  0  0  0  0  0  0  0
   21.4544  -20.8949  -12.9003 C   0  0  2  0  0  0  0  0  0  0  0  0
   22.8321  -21.3140  -12.6889 N   0  0  0  0  0  0  0  0  0  0  0  0
   20.7541  -20.8098  -11.5919 C   0  0  0  0  0  0  0  0  0  0  0  0
   19.5996  -20.0191  -11.4517 O   0  0  0  0  0  0  0  0  0  0  0  0
   21.1410  -21.4219  -10.5595 O   0  0  0  0  0  0  0  0  0  0  0  0
  2  1  1  0
  3  2  1  0
  4  3  1  0
  4  5  1  0
  5  6  1  1
  5  1  1  0
  6  7  2  0
  9  8  1  1
  9 11  1  0
 10  9  1  0
 12 11  1  1
 13 12  1  0
 13  6  1  0
 14 15  2  0
 14 12  1  0
 16 17  1  0
 18 17  1  0
 18 19  1  0
 20 19  1  6
 20 22  1  0
 20 21  1  0
 21 14  1  0
 22 23  1  0
 24 22  2  0
M  END
$$$$
