PLM.pdb
     RDKit          3D

 24 24  0  0  1  0  0  0  0  0999 V2000
   27.5916  -19.6502  -16.1983 N   0  0  0  0  0  0  0  0  0  0  0  0
   28.9393  -19.5552  -15.7257 C   0  0  0  0  0  0  0  0  0  0  0  0
   29.6242  -20.6907  -16.4702 C   0  0  0  0  0  0  0  0  0  0  0  0
   28.5407  -21.7477  -16.5014 C   0  0  0  0  0  0  0  0  0  0  0  0
   27.2396  -21.0294  -16.3250 C   0  0  1  0  0  0  0  0  0  0  0  0
   26.4972  -21.4602  -15.1242 C   0  0  0  0  0  0  0  0  0  0  0  0
   25.9981  -22.6126  -15.0418 O   0  0  0  0  0  0  0  0  0  0  0  0
   25.2365  -22.3053  -10.1023 C   0  0  0  0  0  0  0  0  0  0  0  0
   25.0441  -20.7971  -10.3918 C   0  0  1  0  0  0  0  0  0  0  0  0
   25.5109  -20.0890   -9.1383 C   0  0  0  0  0  0  0  0  0  0  0  0
   25.8591  -20.3990  -11.5693 C   0  0  0  0  0  0  0  0  0  0  0  0
   25.4352  -20.9165  -12.9078 C   0  0  2  0  0  0  0  0  0  0  0  0
   26.2994  -20.6058  -13.9896 N   0  0  0  0  0  0  0  0  0  0  0  0
   24.0228  -20.5050  -13.1451 C   0  0  0  0  0  0  0  0  0  0  0  0
   23.7649  -19.2830  -13.0878 O   0  0  0  0  0  0  0  0  0  0  0  0
   20.5396  -23.8498  -16.9616 C   0  0  0  0  0  0  0  0  0  0  0  0
   19.0918  -23.0046  -16.2932 S   0  0  0  0  0  0  0  0  0  0  0  0
   19.5960  -21.7971  -15.0111 C   0  0  0  0  0  0  0  0  0  0  0  0
   21.0551  -21.9439  -14.7360 C   0  0  0  0  0  0  0  0  0  0  0  0
   21.6032  -21.0322  -13.6820 C   0  0  2  0  0  0  0  0  0  0  0  0
   22.9828  -21.4189  -13.4262 N   0  0  0  0  0  0  0  0  0  0  0  0
   20.8142  -21.1455  -12.4273 C   0  0  0  0  0  0  0  0  0  0  0  0
   19.6283  -20.4078  -12.2622 O   0  0  0  0  0  0  0  0  0  0  0  0
   21.1501  -21.8865  -11.4638 O   0  0  0  0  0  0  0  0  0  0  0  0
  2  1  1  0
  3  2  1  0
  4  3  1  0
  4  5  1  0
  5  6  1  1
  5  1  1  0
  6  7  2  0
  9  8  1  1
  9 11  1  0
 10  9  1  0
 12 11  1  1
 13 12  1  0
 13  6  1  0
 14 15  2  0
 14 12  1  0
 16 17  1  0
 18 17  1  0
 18 19  1  0
 20 19  1  6
 20 22  1  0
 20 21  1  0
 21 14  1  0
 22 23  1  0
 24 22  2  0
M  END
$$$$
