PLM.pdb
     RDKit          3D

 24 24  0  0  1  0  0  0  0  0999 V2000
   20.4658  -11.5946  -18.6410 N   0  0  0  0  0  0  0  0  0  0  0  0
   20.6626  -12.7645  -17.8403 C   0  0  0  0  0  0  0  0  0  0  0  0
   19.2791  -13.3958  -17.8440 C   0  0  0  0  0  0  0  0  0  0  0  0
   18.3766  -12.1807  -17.8140 C   0  0  0  0  0  0  0  0  0  0  0  0
   19.1846  -11.0367  -18.3419 C   0  0  1  0  0  0  0  0  0  0  0  0
   19.3410   -9.9388  -17.3679 C   0  0  0  0  0  0  0  0  0  0  0  0
   18.3414   -9.3657  -16.8617 O   0  0  0  0  0  0  0  0  0  0  0  0
   23.3712   -9.7767  -13.4535 C   0  0  0  0  0  0  0  0  0  0  0  0
   21.9781   -9.6451  -14.1146 C   0  0  1  0  0  0  0  0  0  0  0  0
   21.0239   -9.3537  -12.9765 C   0  0  0  0  0  0  0  0  0  0  0  0
   21.9893   -8.5360  -15.1040 C   0  0  0  0  0  0  0  0  0  0  0  0
   20.8039   -8.4069  -16.0082 C   0  0  2  0  0  0  0  0  0  0  0  0
   20.6239   -9.4607  -16.9413 N   0  0  0  0  0  0  0  0  0  0  0  0
   20.8409   -7.0587  -16.6418 C   0  0  0  0  0  0  0  0  0  0  0  0
   21.7924   -6.8153  -17.4155 O   0  0  0  0  0  0  0  0  0  0  0  0
   17.4256   -4.3145  -20.9031 C   0  0  0  0  0  0  0  0  0  0  0  0
   17.2333   -3.0881  -19.5931 S   0  0  0  0  0  0  0  0  0  0  0  0
   18.6684   -3.1421  -18.4558 C   0  0  0  0  0  0  0  0  0  0  0  0
   18.7795   -4.5053  -17.8596 C   0  0  0  0  0  0  0  0  0  0  0  0
   19.9414   -4.7083  -16.9368 C   0  0  2  0  0  0  0  0  0  0  0  0
   19.8658   -6.0630  -16.4102 N   0  0  0  0  0  0  0  0  0  0  0  0
   19.8967   -3.7351  -15.8140 C   0  0  0  0  0  0  0  0  0  0  0  0
   19.3862   -4.1165  -14.5603 O   0  0  0  0  0  0  0  0  0  0  0  0
   20.3007   -2.5448  -15.9143 O   0  0  0  0  0  0  0  0  0  0  0  0
  2  1  1  0
  3  2  1  0
  4  3  1  0
  4  5  1  0
  5  6  1  1
  5  1  1  0
  6  7  2  0
  9  8  1  1
  9 11  1  0
 10  9  1  0
 12 11  1  6
 13 12  1  0
 13  6  1  0
 14 15  2  0
 14 12  1  0
 16 17  1  0
 18 17  1  0
 18 19  1  0
 20 19  1  6
 20 22  1  0
 20 21  1  0
 21 14  1  0
 22 23  1  0
 24 22  2  0
M  END
$$$$
