PLM.pdb
     RDKit          3D

 24 24  0  0  1  0  0  0  0  0999 V2000
   15.4742  -18.4030    3.0203 N   0  0  0  0  0  0  0  0  0  0  0  0
   15.0761  -19.4715    3.8854 C   0  0  0  0  0  0  0  0  0  0  0  0
   13.8197  -18.9117    4.5341 C   0  0  0  0  0  0  0  0  0  0  0  0
   14.1668  -17.4458    4.6836 C   0  0  0  0  0  0  0  0  0  0  0  0
   15.2407  -17.1579    3.6816 C   0  0  1  0  0  0  0  0  0  0  0  0
   16.4961  -16.6842    4.2966 C   0  0  0  0  0  0  0  0  0  0  0  0
   17.5218  -17.4124    4.3343 O   0  0  0  0  0  0  0  0  0  0  0  0
   20.3965  -13.0923    4.9817 C   0  0  0  0  0  0  0  0  0  0  0  0
   19.2323  -12.8098    5.9615 C   0  0  1  0  0  0  0  0  0  0  0  0
   19.1509  -11.3016    6.0580 C   0  0  0  0  0  0  0  0  0  0  0  0
   17.9694  -13.3831    5.4269 C   0  0  0  0  0  0  0  0  0  0  0  0
   17.8392  -14.8738    5.4165 C   0  0  2  0  0  0  0  0  0  0  0  0
   16.6266  -15.3819    4.8826 N   0  0  0  0  0  0  0  0  0  0  0  0
   18.1387  -15.3813    6.7851 C   0  0  0  0  0  0  0  0  0  0  0  0
   17.2191  -15.3263    7.6304 O   0  0  0  0  0  0  0  0  0  0  0  0
   21.5543  -21.5716    7.3297 C   0  0  0  0  0  0  0  0  0  0  0  0
   21.9724  -19.8487    7.6672 S   0  0  0  0  0  0  0  0  0  0  0  0
   20.4499  -18.8647    7.9308 C   0  0  0  0  0  0  0  0  0  0  0  0
   20.8187  -17.4634    8.2865 C   0  0  0  0  0  0  0  0  0  0  0  0
   19.6672  -16.5208    8.4543 C   0  0  2  0  0  0  0  0  0  0  0  0
   19.3930  -15.9114    7.1612 N   0  0  0  0  0  0  0  0  0  0  0  0
   19.9955  -15.4612    9.4438 C   0  0  0  0  0  0  0  0  0  0  0  0
   19.7967  -15.6835   10.8182 O   0  0  0  0  0  0  0  0  0  0  0  0
   20.4574  -14.3331    9.1212 O   0  0  0  0  0  0  0  0  0  0  0  0
  2  1  1  0
  3  2  1  0
  4  3  1  0
  4  5  1  0
  5  6  1  1
  5  1  1  0
  6  7  2  0
  9  8  1  6
  9 11  1  0
 10  9  1  0
 12 11  1  1
 13 12  1  0
 13  6  1  0
 14 15  2  0
 14 12  1  0
 16 17  1  0
 18 17  1  0
 18 19  1  0
 20 19  1  6
 20 22  1  0
 20 21  1  0
 21 14  1  0
 22 23  1  0
 24 22  2  0
M  END
$$$$
