PLM.pdb
     RDKit          3D

 24 24  0  0  1  0  0  0  0  0999 V2000
   26.9322  -18.3139  -14.6528 N   0  0  0  0  0  0  0  0  0  0  0  0
   28.0873  -18.3001  -15.4979 C   0  0  0  0  0  0  0  0  0  0  0  0
   27.5833  -19.0076  -16.7462 C   0  0  0  0  0  0  0  0  0  0  0  0
   26.6576  -20.0548  -16.1647 C   0  0  0  0  0  0  0  0  0  0  0  0
   26.2568  -19.5636  -14.8089 C   0  0  1  0  0  0  0  0  0  0  0  0
   26.6542  -20.4773  -13.7199 C   0  0  0  0  0  0  0  0  0  0  0  0
   26.2429  -21.6660  -13.6803 O   0  0  0  0  0  0  0  0  0  0  0  0
   31.6602  -20.9711  -11.4640 C   0  0  0  0  0  0  0  0  0  0  0  0
   30.2529  -21.1463  -12.0836 C   0  0  1  0  0  0  0  0  0  0  0  0
   30.2109  -22.5766  -12.5768 C   0  0  0  0  0  0  0  0  0  0  0  0
   29.2110  -20.9027  -11.0519 C   0  0  0  0  0  0  0  0  0  0  0  0
   27.7855  -20.8703  -11.5060 C   0  0  2  0  0  0  0  0  0  0  0  0
   27.5225  -20.0754  -12.6517 N   0  0  0  0  0  0  0  0  0  0  0  0
   26.9280  -20.5225  -10.3381 C   0  0  0  0  0  0  0  0  0  0  0  0
   26.5183  -19.3438  -10.2591 O   0  0  0  0  0  0  0  0  0  0  0  0
   29.1781  -19.4020   -4.8095 C   0  0  0  0  0  0  0  0  0  0  0  0
   27.5234  -20.1144   -4.9178 S   0  0  0  0  0  0  0  0  0  0  0  0
   26.5662  -19.2995   -6.2503 C   0  0  0  0  0  0  0  0  0  0  0  0
   26.9462  -19.8886   -7.5674 C   0  0  0  0  0  0  0  0  0  0  0  0
   26.1405  -21.0766   -7.9943 C   0  0  2  0  0  0  0  0  0  0  0  0
   26.5653  -21.4493   -9.3355 N   0  0  0  0  0  0  0  0  0  0  0  0
   24.6901  -20.7515   -8.0044 C   0  0  0  0  0  0  0  0  0  0  0  0
   23.9055  -20.9577   -6.8555 O   0  0  0  0  0  0  0  0  0  0  0  0
   24.0928  -20.2859   -9.0127 O   0  0  0  0  0  0  0  0  0  0  0  0
  2  1  1  0
  3  2  1  0
  4  3  1  0
  4  5  1  0
  5  6  1  1
  5  1  1  0
  6  7  2  0
  9  8  1  1
  9 11  1  0
 10  9  1  0
 12 11  1  1
 13 12  1  0
 13  6  1  0
 14 15  2  0
 14 12  1  0
 16 17  1  0
 18 17  1  0
 18 19  1  0
 20 19  1  6
 20 22  1  0
 20 21  1  0
 21 14  1  0
 22 23  1  0
 24 22  2  0
M  END
$$$$
