ALG.pdb
     RDKit          3D

 18 17  0  0  1  0  0  0  0  0999 V2000
   21.8089   -9.8089  -20.5673 C   0  0  0  0  0  0  0  0  0  0  0  0
   22.7017  -10.7953  -19.8442 C   0  0  2  0  0  0  0  0  0  0  0  0
   22.1760  -12.1433  -19.9124 N   0  0  0  0  0  0  0  0  0  0  0  0
   22.7469  -10.3834  -18.4122 C   0  0  0  0  0  0  0  0  0  0  0  0
   21.7924  -10.5946  -17.6433 O   0  0  0  0  0  0  0  0  0  0  0  0
   24.9834  -11.9276  -15.0298 C   0  0  0  0  0  0  0  0  0  0  0  0
   25.8258  -11.1375  -16.0612 C   0  0  2  0  0  0  0  0  0  0  0  0
   27.2649  -11.3586  -15.6435 C   0  0  0  0  0  0  0  0  0  0  0  0
   25.4532   -9.6710  -15.9897 C   0  0  0  0  0  0  0  0  0  0  0  0
   24.0889   -9.3730  -16.5580 C   0  0  2  0  0  0  0  0  0  0  0  0
   23.8824   -9.7423  -17.9030 N   0  0  0  0  0  0  0  0  0  0  0  0
   23.8988   -7.9130  -16.4592 C   0  0  0  0  0  0  0  0  0  0  0  0
   24.4459   -7.1641  -17.3015 O   0  0  0  0  0  0  0  0  0  0  0  0
   23.1080   -7.3108  -15.4319 N   0  0  0  0  0  0  0  0  0  0  0  0
   22.9108   -5.8960  -15.4040 C   0  0  0  0  0  0  0  0  0  0  0  0
   21.9454   -5.5104  -14.3331 C   0  0  0  0  0  0  0  0  0  0  0  0
   21.0588   -6.4363  -13.8111 O   0  0  0  0  0  0  0  0  0  0  0  0
   21.9488   -4.3319  -13.9117 O   0  0  0  0  0  0  0  0  0  0  0  0
  2  3  1  0
  2  1  1  6
  4  2  1  0
  5  4  2  0
  7  6  1  1
  7  8  1  0
  9  7  1  0
 10  9  1  6
 10 12  1  0
 10 11  1  0
 11  4  1  0
 12 14  1  0
 13 12  2  0
 14 15  1  0
 15 16  1  0
 16 18  2  0
 16 17  1  0
M  END
$$$$
