ALG.pdb
     RDKit          3D

 18 17  0  0  1  0  0  0  0  0999 V2000
   23.8358    4.3242  -12.0304 C   0  0  0  0  0  0  0  0  0  0  0  0
   24.3436    2.9720  -11.5755 C   0  0  2  0  0  0  0  0  0  0  0  0
   23.7726    1.8948  -12.3576 N   0  0  0  0  0  0  0  0  0  0  0  0
   23.9200    2.7950  -10.1572 C   0  0  0  0  0  0  0  0  0  0  0  0
   22.8750    2.1895   -9.8603 O   0  0  0  0  0  0  0  0  0  0  0  0
   24.2065    1.2019   -5.3189 C   0  0  0  0  0  0  0  0  0  0  0  0
   25.2546    1.1882   -6.4586 C   0  0  2  0  0  0  0  0  0  0  0  0
   26.4866    0.5508   -5.8502 C   0  0  0  0  0  0  0  0  0  0  0  0
   25.5327    2.6114   -6.8963 C   0  0  0  0  0  0  0  0  0  0  0  0
   24.4334    3.2018   -7.7424 C   0  0  2  0  0  0  0  0  0  0  0  0
   24.7046    3.3159   -9.1214 N   0  0  0  0  0  0  0  0  0  0  0  0
   24.1802    4.5588   -7.2211 C   0  0  0  0  0  0  0  0  0  0  0  0
   24.8354    5.5243   -7.6777 O   0  0  0  0  0  0  0  0  0  0  0  0
   23.2084    4.8210   -6.2061 N   0  0  0  0  0  0  0  0  0  0  0  0
   22.9396    6.1606   -5.7883 C   0  0  0  0  0  0  0  0  0  0  0  0
   24.0932    6.7269   -5.0293 C   0  0  0  0  0  0  0  0  0  0  0  0
   24.4125    8.0704   -5.1230 O   0  0  0  0  0  0  0  0  0  0  0  0
   24.7714    5.9658   -4.3031 O   0  0  0  0  0  0  0  0  0  0  0  0
  2  3  1  0
  2  1  1  6
  4  2  1  0
  5  4  2  0
  7  6  1  1
  7  8  1  0
  9  7  1  0
 10  9  1  1
 10 12  1  0
 10 11  1  0
 11  4  1  0
 12 14  1  0
 13 12  2  0
 14 15  1  0
 15 16  1  0
 16 18  2  0
 16 17  1  0
M  END
$$$$
