ALG.pdb
     RDKit          3D

 18 17  0  0  1  0  0  0  0  0999 V2000
   17.4104   -8.9199  -17.1815 C   0  0  0  0  0  0  0  0  0  0  0  0
   18.9183   -8.9206  -17.3205 C   0  0  2  0  0  0  0  0  0  0  0  0
   19.3865  -10.0687  -18.0693 N   0  0  0  0  0  0  0  0  0  0  0  0
   19.4890   -8.9954  -15.9454 C   0  0  0  0  0  0  0  0  0  0  0  0
   18.7808   -9.2692  -14.9603 O   0  0  0  0  0  0  0  0  0  0  0  0
   21.9340  -11.8894  -13.9442 C   0  0  0  0  0  0  0  0  0  0  0  0
   22.6670  -11.0522  -15.0210 C   0  0  2  0  0  0  0  0  0  0  0  0
   24.0127  -11.7261  -15.1922 C   0  0  0  0  0  0  0  0  0  0  0  0
   22.8250   -9.6302  -14.5238 C   0  0  0  0  0  0  0  0  0  0  0  0
   21.5315   -8.8560  -14.5070 C   0  0  2  0  0  0  0  0  0  0  0  0
   20.8524   -8.7547  -15.7386 N   0  0  0  0  0  0  0  0  0  0  0  0
   21.8623   -7.4882  -14.0631 C   0  0  0  0  0  0  0  0  0  0  0  0
   22.3568   -7.3146  -12.9251 O   0  0  0  0  0  0  0  0  0  0  0  0
   21.6399   -6.3406  -14.8858 N   0  0  0  0  0  0  0  0  0  0  0  0
   22.0118   -5.0385  -14.4300 C   0  0  0  0  0  0  0  0  0  0  0  0
   20.8168   -4.2679  -13.9766 C   0  0  0  0  0  0  0  0  0  0  0  0
   20.9235   -2.9310  -13.6342 O   0  0  0  0  0  0  0  0  0  0  0  0
   19.7111   -4.8506  -13.9099 O   0  0  0  0  0  0  0  0  0  0  0  0
  2  3  1  0
  2  1  1  1
  4  2  1  0
  5  4  2  0
  7  6  1  1
  7  8  1  0
  9  7  1  0
 10  9  1  6
 10 12  1  0
 10 11  1  0
 11  4  1  0
 12 14  1  0
 13 12  2  0
 14 15  1  0
 15 16  1  0
 16 18  2  0
 16 17  1  0
M  END
$$$$
