ALG.pdb
     RDKit          3D

 18 17  0  0  1  0  0  0  0  0999 V2000
   19.3943   -9.2478  -19.8719 C   0  0  0  0  0  0  0  0  0  0  0  0
   20.2141  -10.4126  -19.3579 C   0  0  2  0  0  0  0  0  0  0  0  0
   19.5056  -11.6684  -19.4966 N   0  0  0  0  0  0  0  0  0  0  0  0
   20.4613  -10.1734  -17.9075 C   0  0  0  0  0  0  0  0  0  0  0  0
   19.5393  -10.2161  -17.0739 O   0  0  0  0  0  0  0  0  0  0  0  0
   21.9388  -12.2866  -14.5314 C   0  0  0  0  0  0  0  0  0  0  0  0
   23.0160  -11.9623  -15.5955 C   0  0  2  0  0  0  0  0  0  0  0  0
   24.2411  -12.7407  -15.1626 C   0  0  0  0  0  0  0  0  0  0  0  0
   23.2845  -10.4716  -15.5940 C   0  0  0  0  0  0  0  0  0  0  0  0
   22.1288   -9.6559  -16.1153 C   0  0  2  0  0  0  0  0  0  0  0  0
   21.7557   -9.8926  -17.4543 N   0  0  0  0  0  0  0  0  0  0  0  0
   22.5260   -8.2391  -16.0039 C   0  0  0  0  0  0  0  0  0  0  0  0
   23.3071   -7.7517  -16.8536 O   0  0  0  0  0  0  0  0  0  0  0  0
   22.0520   -7.3903  -14.9559 N   0  0  0  0  0  0  0  0  0  0  0  0
   22.3862   -6.0012  -14.9408 C   0  0  0  0  0  0  0  0  0  0  0  0
   21.8269   -5.3286  -13.7315 C   0  0  0  0  0  0  0  0  0  0  0  0
   20.9506   -5.9940  -12.8919 O   0  0  0  0  0  0  0  0  0  0  0  0
   22.1633   -4.1482  -13.4862 O   0  0  0  0  0  0  0  0  0  0  0  0
  2  3  1  0
  2  1  1  1
  4  2  1  0
  5  4  2  0
  7  6  1  1
  7  8  1  0
  9  7  1  0
 10  9  1  6
 10 12  1  0
 10 11  1  0
 11  4  1  0
 12 14  1  0
 13 12  2  0
 14 15  1  0
 15 16  1  0
 16 18  2  0
 16 17  1  0
M  END
$$$$
