ALG.pdb
     RDKit          3D

 18 17  0  0  1  0  0  0  0  0999 V2000
   21.5726   -9.7342  -20.9790 C   0  0  0  0  0  0  0  0  0  0  0  0
   22.6764  -10.5280  -20.3124 C   0  0  2  0  0  0  0  0  0  0  0  0
   22.5113  -11.9522  -20.5186 N   0  0  0  0  0  0  0  0  0  0  0  0
   22.5953  -10.2554  -18.8491 C   0  0  0  0  0  0  0  0  0  0  0  0
   21.6821  -10.7265  -18.1484 O   0  0  0  0  0  0  0  0  0  0  0  0
   27.0172  -10.6369  -15.6141 C   0  0  0  0  0  0  0  0  0  0  0  0
   25.4728  -10.5317  -15.6507 C   0  0  2  0  0  0  0  0  0  0  0  0
   25.0199  -11.7065  -16.4928 C   0  0  0  0  0  0  0  0  0  0  0  0
   25.0783   -9.2156  -16.2883 C   0  0  0  0  0  0  0  0  0  0  0  0
   23.6775   -9.2180  -16.8458 C   0  0  2  0  0  0  0  0  0  0  0  0
   23.5611   -9.4520  -18.2314 N   0  0  0  0  0  0  0  0  0  0  0  0
   23.1082   -7.8857  -16.5664 C   0  0  0  0  0  0  0  0  0  0  0  0
   23.4313   -6.9156  -17.2903 O   0  0  0  0  0  0  0  0  0  0  0  0
   22.1934   -7.6529  -15.4928 N   0  0  0  0  0  0  0  0  0  0  0  0
   21.5726   -6.3760  -15.3331 C   0  0  0  0  0  0  0  0  0  0  0  0
   22.3707   -5.5019  -14.4240 C   0  0  0  0  0  0  0  0  0  0  0  0
   23.0112   -4.3740  -14.9069 O   0  0  0  0  0  0  0  0  0  0  0  0
   22.4530   -5.8049  -13.2123 O   0  0  0  0  0  0  0  0  0  0  0  0
  2  3  1  0
  2  1  1  6
  4  2  1  0
  5  4  2  0
  7  6  1  6
  7  8  1  0
  9  7  1  0
 10  9  1  6
 10 12  1  0
 10 11  1  0
 11  4  1  0
 12 14  1  0
 13 12  2  0
 14 15  1  0
 15 16  1  0
 16 18  2  0
 16 17  1  0
M  END
$$$$
