ALG.pdb
     RDKit          3D

 18 17  0  0  1  0  0  0  0  0999 V2000
   20.0933  -14.8705  -17.8605 C   0  0  0  0  0  0  0  0  0  0  0  0
   21.5790  -15.0995  -17.6782 C   0  0  2  0  0  0  0  0  0  0  0  0
   21.8583  -16.4304  -17.1794 N   0  0  0  0  0  0  0  0  0  0  0  0
   22.0579  -14.1124  -16.6690 C   0  0  0  0  0  0  0  0  0  0  0  0
   21.8295  -14.2588  -15.4553 O   0  0  0  0  0  0  0  0  0  0  0  0
   26.5207   -9.8323  -16.2197 C   0  0  0  0  0  0  0  0  0  0  0  0
   25.3072  -10.5578  -15.5884 C   0  0  2  0  0  0  0  0  0  0  0  0
   25.8712  -11.2970  -14.3927 C   0  0  0  0  0  0  0  0  0  0  0  0
   24.7201  -11.5195  -16.6007 C   0  0  0  0  0  0  0  0  0  0  0  0
   23.3446  -12.0122  -16.2290 C   0  0  2  0  0  0  0  0  0  0  0  0
   22.7838  -12.9876  -17.0787 N   0  0  0  0  0  0  0  0  0  0  0  0
   22.4542  -10.8357  -16.2472 C   0  0  0  0  0  0  0  0  0  0  0  0
   22.2340  -10.2489  -17.3321 O   0  0  0  0  0  0  0  0  0  0  0  0
   21.8254  -10.3319  -15.0664 N   0  0  0  0  0  0  0  0  0  0  0  0
   20.9561   -9.2000  -15.1343 C   0  0  0  0  0  0  0  0  0  0  0  0
   21.6487   -7.9634  -14.6667 C   0  0  0  0  0  0  0  0  0  0  0  0
   21.3551   -7.4103  -13.4324 O   0  0  0  0  0  0  0  0  0  0  0  0
   22.5032   -7.4311  -15.4104 O   0  0  0  0  0  0  0  0  0  0  0  0
  2  3  1  0
  2  1  1  1
  4  2  1  0
  5  4  2  0
  7  6  1  6
  7  8  1  0
  9  7  1  0
 10  9  1  6
 10 12  1  0
 10 11  1  0
 11  4  1  0
 12 14  1  0
 13 12  2  0
 14 15  1  0
 15 16  1  0
 16 18  2  0
 16 17  1  0
M  END
$$$$
