ALG.pdb
     RDKit          3D

 18 17  0  0  1  0  0  0  0  0999 V2000
   26.3067  -28.0090  -17.3160 C   0  0  0  0  0  0  0  0  0  0  0  0
   27.7647  -27.8045  -17.6701 C   0  0  2  0  0  0  0  0  0  0  0  0
   28.5311  -29.0228  -17.5076 N   0  0  0  0  0  0  0  0  0  0  0  0
   28.3084  -26.7819  -16.7316 C   0  0  0  0  0  0  0  0  0  0  0  0
   28.1877  -26.8992  -15.4993 O   0  0  0  0  0  0  0  0  0  0  0  0
   32.2872  -25.5975  -15.2546 C   0  0  0  0  0  0  0  0  0  0  0  0
   32.0490  -25.3567  -16.7655 C   0  0  2  0  0  0  0  0  0  0  0  0
   33.3929  -24.9176  -17.3090 C   0  0  0  0  0  0  0  0  0  0  0  0
   31.0064  -24.2717  -16.9385 C   0  0  0  0  0  0  0  0  0  0  0  0
   29.6358  -24.6784  -16.4600 C   0  0  2  0  0  0  0  0  0  0  0  0
   28.9738  -25.6560  -17.2309 N   0  0  0  0  0  0  0  0  0  0  0  0
   28.8043  -23.4594  -16.4711 C   0  0  0  0  0  0  0  0  0  0  0  0
   29.1470  -22.4759  -15.7746 O   0  0  0  0  0  0  0  0  0  0  0  0
   27.6115  -23.3522  -17.2516 N   0  0  0  0  0  0  0  0  0  0  0  0
   26.8479  -22.1446  -17.2468 C   0  0  0  0  0  0  0  0  0  0  0  0
   27.4663  -21.1160  -18.1341 C   0  0  0  0  0  0  0  0  0  0  0  0
   26.9712  -19.8241  -18.1737 O   0  0  0  0  0  0  0  0  0  0  0  0
   28.4439  -21.4399  -18.8454 O   0  0  0  0  0  0  0  0  0  0  0  0
  2  3  1  0
  2  1  1  1
  4  2  1  0
  5  4  2  0
  7  6  1  1
  7  8  1  0
  9  7  1  0
 10  9  1  6
 10 12  1  0
 10 11  1  0
 11  4  1  0
 12 14  1  0
 13 12  2  0
 14 15  1  0
 15 16  1  0
 16 18  2  0
 16 17  1  0
M  END
$$$$
