ALG.pdb
     RDKit          3D

 18 17  0  0  1  0  0  0  0  0999 V2000
   19.1517   -9.1641  -19.3960 C   0  0  0  0  0  0  0  0  0  0  0  0
   20.1097  -10.2326  -18.9129 C   0  0  2  0  0  0  0  0  0  0  0  0
   19.4888  -11.5412  -18.8979 N   0  0  0  0  0  0  0  0  0  0  0  0
   20.4948   -9.8823  -17.5161 C   0  0  0  0  0  0  0  0  0  0  0  0
   19.6909   -9.9873  -16.5729 O   0  0  0  0  0  0  0  0  0  0  0  0
   22.4835  -11.7161  -14.3405 C   0  0  0  0  0  0  0  0  0  0  0  0
   23.4144  -11.3333  -15.5171 C   0  0  2  0  0  0  0  0  0  0  0  0
   24.7350  -12.0072  -15.2072 C   0  0  0  0  0  0  0  0  0  0  0  0
   23.5649   -9.8268  -15.5632 C   0  0  0  0  0  0  0  0  0  0  0  0
   22.2992   -9.1120  -15.9633 C   0  0  2  0  0  0  0  0  0  0  0  0
   21.7879   -9.4224  -17.2402 N   0  0  0  0  0  0  0  0  0  0  0  0
   22.6030   -7.6682  -15.9404 C   0  0  0  0  0  0  0  0  0  0  0  0
   23.3722   -7.1886  -16.8054 O   0  0  0  0  0  0  0  0  0  0  0  0
   22.0505   -6.7841  -14.9624 N   0  0  0  0  0  0  0  0  0  0  0  0
   22.3869   -5.3955  -14.9677 C   0  0  0  0  0  0  0  0  0  0  0  0
   21.6873   -4.6703  -13.8667 C   0  0  0  0  0  0  0  0  0  0  0  0
   22.1846   -4.6926  -12.5752 O   0  0  0  0  0  0  0  0  0  0  0  0
   20.6391   -4.0386  -14.1291 O   0  0  0  0  0  0  0  0  0  0  0  0
  2  3  1  0
  2  1  1  1
  4  2  1  0
  5  4  2  0
  7  6  1  1
  7  8  1  0
  9  7  1  0
 10  9  1  6
 10 12  1  0
 10 11  1  0
 11  4  1  0
 12 14  1  0
 13 12  2  0
 14 15  1  0
 15 16  1  0
 16 18  2  0
 16 17  1  0
M  END
$$$$
