ALG.pdb
     RDKit          3D

 18 17  0  0  1  0  0  0  0  0999 V2000
   19.7966  -10.8497  -19.8971 C   0  0  0  0  0  0  0  0  0  0  0  0
   20.8783  -11.4400  -19.0170 C   0  0  2  0  0  0  0  0  0  0  0  0
   20.5694  -12.8009  -18.6289 N   0  0  0  0  0  0  0  0  0  0  0  0
   20.9479  -10.6067  -17.7829 C   0  0  0  0  0  0  0  0  0  0  0  0
   20.0905  -10.6973  -16.8866 O   0  0  0  0  0  0  0  0  0  0  0  0
   23.5354  -10.2318  -14.0484 C   0  0  0  0  0  0  0  0  0  0  0  0
   24.1659   -9.9607  -15.4364 C   0  0  2  0  0  0  0  0  0  0  0  0
   25.6506   -9.8196  -15.1716 C   0  0  0  0  0  0  0  0  0  0  0  0
   23.5864   -8.6822  -16.0055 C   0  0  0  0  0  0  0  0  0  0  0  0
   22.1728   -8.8378  -16.5058 C   0  0  2  0  0  0  0  0  0  0  0  0
   21.9963   -9.6949  -17.6114 N   0  0  0  0  0  0  0  0  0  0  0  0
   21.7136   -7.4929  -16.9029 C   0  0  0  0  0  0  0  0  0  0  0  0
   22.2374   -6.9327  -17.8936 O   0  0  0  0  0  0  0  0  0  0  0  0
   20.6850   -6.7948  -16.1971 N   0  0  0  0  0  0  0  0  0  0  0  0
   20.2901   -5.4827  -16.6018 C   0  0  0  0  0  0  0  0  0  0  0  0
   20.6473   -4.4714  -15.5639 C   0  0  0  0  0  0  0  0  0  0  0  0
   21.9670   -4.2614  -15.2035 O   0  0  0  0  0  0  0  0  0  0  0  0
   19.7318   -3.8127  -15.0212 O   0  0  0  0  0  0  0  0  0  0  0  0
  2  3  1  0
  2  1  1  6
  4  2  1  0
  5  4  2  0
  7  6  1  1
  7  8  1  0
  9  7  1  0
 10  9  1  6
 10 12  1  0
 10 11  1  0
 11  4  1  0
 12 14  1  0
 13 12  2  0
 14 15  1  0
 15 16  1  0
 16 18  2  0
 16 17  1  0
M  END
$$$$
