ALG.pdb
     RDKit          3D

 18 17  0  0  1  0  0  0  0  0999 V2000
   17.5724  -10.3195  -19.1751 C   0  0  0  0  0  0  0  0  0  0  0  0
   18.8032  -10.8720  -18.4875 C   0  0  2  0  0  0  0  0  0  0  0  0
   18.6067  -12.2408  -18.0564 N   0  0  0  0  0  0  0  0  0  0  0  0
   19.0495  -10.0328  -17.2803 C   0  0  0  0  0  0  0  0  0  0  0  0
   18.2526  -10.0153  -16.3256 O   0  0  0  0  0  0  0  0  0  0  0  0
   21.5388  -10.0181  -13.5951 C   0  0  0  0  0  0  0  0  0  0  0  0
   22.2489   -9.9729  -14.9703 C   0  0  2  0  0  0  0  0  0  0  0  0
   23.7183  -10.1689  -14.6593 C   0  0  0  0  0  0  0  0  0  0  0  0
   21.9999   -8.6252  -15.6153 C   0  0  0  0  0  0  0  0  0  0  0  0
   20.5833   -8.4473  -16.0996 C   0  0  2  0  0  0  0  0  0  0  0  0
   20.1998   -9.2389  -17.2017 N   0  0  0  0  0  0  0  0  0  0  0  0
   20.4451   -7.0321  -16.4939 C   0  0  0  0  0  0  0  0  0  0  0  0
   21.0134   -6.6261  -17.5340 O   0  0  0  0  0  0  0  0  0  0  0  0
   19.6818   -6.0949  -15.7307 N   0  0  0  0  0  0  0  0  0  0  0  0
   19.4988   -4.7572  -16.1983 C   0  0  0  0  0  0  0  0  0  0  0  0
   20.6443   -3.8882  -15.7981 C   0  0  0  0  0  0  0  0  0  0  0  0
   20.6475   -2.5369  -16.0977 O   0  0  0  0  0  0  0  0  0  0  0  0
   21.6071   -4.4014  -15.1846 O   0  0  0  0  0  0  0  0  0  0  0  0
  2  3  1  0
  2  1  1  1
  4  2  1  0
  5  4  2  0
  7  6  1  1
  7  8  1  0
  9  7  1  0
 10  9  1  6
 10 12  1  0
 10 11  1  0
 11  4  1  0
 12 14  1  0
 13 12  2  0
 14 15  1  0
 15 16  1  0
 16 18  2  0
 16 17  1  0
M  END
$$$$
