ALG.pdb
     RDKit          3D

 18 17  0  0  1  0  0  0  0  0999 V2000
   20.2415  -10.3930  -19.1676 C   0  0  0  0  0  0  0  0  0  0  0  0
   21.5256  -11.1145  -18.8161 C   0  0  2  0  0  0  0  0  0  0  0  0
   21.3104  -12.5363  -18.6418 N   0  0  0  0  0  0  0  0  0  0  0  0
   22.0084  -10.5530  -17.5224 C   0  0  0  0  0  0  0  0  0  0  0  0
   21.4304  -10.7997  -16.4491 O   0  0  0  0  0  0  0  0  0  0  0  0
   25.3765  -11.2409  -14.8077 C   0  0  0  0  0  0  0  0  0  0  0  0
   25.7238  -10.6055  -16.1764 C   0  0  2  0  0  0  0  0  0  0  0  0
   27.2368  -10.6237  -16.2441 C   0  0  0  0  0  0  0  0  0  0  0  0
   25.1899   -9.1886  -16.2174 C   0  0  0  0  0  0  0  0  0  0  0  0
   23.6896   -9.1191  -16.3486 C   0  0  2  0  0  0  0  0  0  0  0  0
   23.1378   -9.7262  -17.4953 N   0  0  0  0  0  0  0  0  0  0  0  0
   23.3334   -7.6876  -16.3833 C   0  0  0  0  0  0  0  0  0  0  0  0
   23.5345   -7.0299  -17.4306 O   0  0  0  0  0  0  0  0  0  0  0  0
   22.7623   -7.0124  -15.2602 N   0  0  0  0  0  0  0  0  0  0  0  0
   22.3580   -5.6459  -15.3644 C   0  0  0  0  0  0  0  0  0  0  0  0
   21.7882   -5.1559  -14.0749 C   0  0  0  0  0  0  0  0  0  0  0  0
   21.4709   -3.8197  -13.9025 O   0  0  0  0  0  0  0  0  0  0  0  0
   21.6005   -5.9745  -13.1469 O   0  0  0  0  0  0  0  0  0  0  0  0
  2  3  1  0
  2  1  1  1
  4  2  1  0
  5  4  2  0
  7  6  1  1
  7  8  1  0
  9  7  1  0
 10  9  1  6
 10 12  1  0
 10 11  1  0
 11  4  1  0
 12 14  1  0
 13 12  2  0
 14 15  1  0
 15 16  1  0
 16 18  2  0
 16 17  1  0
M  END
$$$$
