ALG.pdb
     RDKit          3D

 18 17  0  0  1  0  0  0  0  0999 V2000
   19.9344  -10.8365  -20.3228 C   0  0  0  0  0  0  0  0  0  0  0  0
   21.3714  -11.2864  -20.1627 C   0  0  2  0  0  0  0  0  0  0  0  0
   21.5077  -12.7172  -20.3429 N   0  0  0  0  0  0  0  0  0  0  0  0
   21.7880  -10.9489  -18.7718 C   0  0  0  0  0  0  0  0  0  0  0  0
   21.1388  -11.3381  -17.7849 O   0  0  0  0  0  0  0  0  0  0  0  0
   27.0783  -10.2524  -15.8030 C   0  0  0  0  0  0  0  0  0  0  0  0
   25.5451  -10.0369  -15.7842 C   0  0  2  0  0  0  0  0  0  0  0  0
   25.0136  -11.0865  -14.8302 C   0  0  0  0  0  0  0  0  0  0  0  0
   24.9968  -10.2380  -17.1818 C   0  0  0  0  0  0  0  0  0  0  0  0
   23.5282   -9.9179  -17.2992 C   0  0  2  0  0  0  0  0  0  0  0  0
   22.9345  -10.1765  -18.5517 N   0  0  0  0  0  0  0  0  0  0  0  0
   23.3861   -8.4751  -17.0245 C   0  0  0  0  0  0  0  0  0  0  0  0
   23.7479   -7.6463  -17.8917 O   0  0  0  0  0  0  0  0  0  0  0  0
   22.8470   -7.9779  -15.7975 N   0  0  0  0  0  0  0  0  0  0  0  0
   22.7477   -6.5714  -15.5663 C   0  0  0  0  0  0  0  0  0  0  0  0
   21.6738   -6.2656  -14.5759 C   0  0  0  0  0  0  0  0  0  0  0  0
   20.8076   -7.2540  -14.1418 O   0  0  0  0  0  0  0  0  0  0  0  0
   21.5671   -5.0967  -14.1413 O   0  0  0  0  0  0  0  0  0  0  0  0
  2  3  1  0
  2  1  1  1
  4  2  1  0
  5  4  2  0
  7  6  1  6
  7  8  1  0
  9  7  1  0
 10  9  1  6
 10 12  1  0
 10 11  1  0
 11  4  1  0
 12 14  1  0
 13 12  2  0
 14 15  1  0
 15 16  1  0
 16 18  2  0
 16 17  1  0
M  END
$$$$
