ALG.pdb
     RDKit          3D

 18 17  0  0  1  0  0  0  0  0999 V2000
   23.9332   -5.3364  -20.4969 C   0  0  0  0  0  0  0  0  0  0  0  0
   25.1043   -6.2559  -20.2212 C   0  0  2  0  0  0  0  0  0  0  0  0
   25.6294   -6.8345  -21.4409 N   0  0  0  0  0  0  0  0  0  0  0  0
   24.6037   -7.3626  -19.3570 C   0  0  0  0  0  0  0  0  0  0  0  0
   23.8050   -8.2138  -19.7863 O   0  0  0  0  0  0  0  0  0  0  0  0
   26.9455  -10.7148  -14.9624 C   0  0  0  0  0  0  0  0  0  0  0  0
   25.8474  -10.3876  -16.0039 C   0  0  2  0  0  0  0  0  0  0  0  0
   26.3493  -10.9835  -17.3028 C   0  0  0  0  0  0  0  0  0  0  0  0
   25.6960   -8.8844  -16.1124 C   0  0  0  0  0  0  0  0  0  0  0  0
   24.6473   -8.4600  -17.1089 C   0  0  2  0  0  0  0  0  0  0  0  0
   25.0317   -7.4621  -18.0279 N   0  0  0  0  0  0  0  0  0  0  0  0
   23.5089   -7.9374  -16.3290 C   0  0  0  0  0  0  0  0  0  0  0  0
   23.6069   -6.8184  -15.7740 O   0  0  0  0  0  0  0  0  0  0  0  0
   22.2858   -8.6619  -16.1785 N   0  0  0  0  0  0  0  0  0  0  0  0
   21.2583   -8.1780  -15.3116 C   0  0  0  0  0  0  0  0  0  0  0  0
   20.0822   -9.0969  -15.3094 C   0  0  0  0  0  0  0  0  0  0  0  0
   20.2555  -10.4700  -15.3251 O   0  0  0  0  0  0  0  0  0  0  0  0
   18.9311   -8.6056  -15.2931 O   0  0  0  0  0  0  0  0  0  0  0  0
  2  3  1  0
  2  1  1  6
  4  2  1  0
  5  4  2  0
  7  6  1  1
  7  8  1  0
  9  7  1  0
 10  9  1  1
 10 12  1  0
 10 11  1  0
 11  4  1  0
 12 14  1  0
 13 12  2  0
 14 15  1  0
 15 16  1  0
 16 18  2  0
 16 17  1  0
M  END
$$$$
