ALG.pdb
     RDKit          3D

 18 17  0  0  1  0  0  0  0  0999 V2000
   17.7108  -12.1155  -15.4307 C   0  0  0  0  0  0  0  0  0  0  0  0
   17.7403  -10.7075  -15.9872 C   0  0  2  0  0  0  0  0  0  0  0  0
   18.2805  -10.6740  -17.3307 N   0  0  0  0  0  0  0  0  0  0  0  0
   18.6318   -9.9020  -15.1049 C   0  0  0  0  0  0  0  0  0  0  0  0
   18.4502   -9.8417  -13.8760 O   0  0  0  0  0  0  0  0  0  0  0  0
   22.6575  -10.1238  -13.2190 C   0  0  0  0  0  0  0  0  0  0  0  0
   22.5496  -10.1405  -14.7636 C   0  0  2  0  0  0  0  0  0  0  0  0
   23.9450  -10.4727  -15.2502 C   0  0  0  0  0  0  0  0  0  0  0  0
   22.1112   -8.7735  -15.2468 C   0  0  0  0  0  0  0  0  0  0  0  0
   20.6704   -8.4619  -14.9306 C   0  0  2  0  0  0  0  0  0  0  0  0
   19.7043   -9.1899  -15.6549 N   0  0  0  0  0  0  0  0  0  0  0  0
   20.4712   -7.0308  -15.2298 C   0  0  0  0  0  0  0  0  0  0  0  0
   21.2504   -6.1851  -14.7324 O   0  0  0  0  0  0  0  0  0  0  0  0
   19.4151   -6.5637  -16.0725 N   0  0  0  0  0  0  0  0  0  0  0  0
   19.3271   -5.1822  -16.4265 C   0  0  0  0  0  0  0  0  0  0  0  0
   18.3262   -4.4737  -15.5757 C   0  0  0  0  0  0  0  0  0  0  0  0
   17.6368   -5.1473  -14.5823 O   0  0  0  0  0  0  0  0  0  0  0  0
   18.1180   -3.2556  -15.7744 O   0  0  0  0  0  0  0  0  0  0  0  0
  2  3  1  0
  2  1  1  1
  4  2  1  0
  5  4  2  0
  7  6  1  1
  7  8  1  0
  9  7  1  0
 10  9  1  6
 10 12  1  0
 10 11  1  0
 11  4  1  0
 12 14  1  0
 13 12  2  0
 14 15  1  0
 15 16  1  0
 16 18  2  0
 16 17  1  0
M  END
$$$$
