ALG.pdb
     RDKit          3D

 18 17  0  0  1  0  0  0  0  0999 V2000
   19.9763  -18.1937  -17.4747 C   0  0  0  0  0  0  0  0  0  0  0  0
   21.4131  -18.4431  -17.0667 C   0  0  2  0  0  0  0  0  0  0  0  0
   21.5173  -19.5223  -16.1062 N   0  0  0  0  0  0  0  0  0  0  0  0
   21.9129  -17.1949  -16.4231 C   0  0  0  0  0  0  0  0  0  0  0  0
   21.5585  -16.8660  -15.2772 O   0  0  0  0  0  0  0  0  0  0  0  0
   25.4941  -15.3174  -14.3949 C   0  0  0  0  0  0  0  0  0  0  0  0
   25.6036  -15.8439  -15.8469 C   0  0  2  0  0  0  0  0  0  0  0  0
   27.0816  -15.7875  -16.1737 C   0  0  0  0  0  0  0  0  0  0  0  0
   24.8041  -14.9428  -16.7650 C   0  0  0  0  0  0  0  0  0  0  0  0
   23.3138  -15.1332  -16.6397 C   0  0  2  0  0  0  0  0  0  0  0  0
   22.8030  -16.3606  -17.1096 N   0  0  0  0  0  0  0  0  0  0  0  0
   22.6817  -14.0546  -17.4235 C   0  0  0  0  0  0  0  0  0  0  0  0
   22.9476  -13.9447  -18.6429 O   0  0  0  0  0  0  0  0  0  0  0  0
   21.7688  -13.1197  -16.8437 N   0  0  0  0  0  0  0  0  0  0  0  0
   21.2693  -12.0228  -17.6110 C   0  0  0  0  0  0  0  0  0  0  0  0
   20.2693  -11.2351  -16.8319 C   0  0  0  0  0  0  0  0  0  0  0  0
   19.7556  -10.0507  -17.3309 O   0  0  0  0  0  0  0  0  0  0  0  0
   19.9001  -11.6628  -15.7151 O   0  0  0  0  0  0  0  0  0  0  0  0
  2  3  1  0
  2  1  1  1
  4  2  1  0
  5  4  2  0
  7  6  1  1
  7  8  1  0
  9  7  1  0
 10  9  1  6
 10 12  1  0
 10 11  1  0
 11  4  1  0
 12 14  1  0
 13 12  2  0
 14 15  1  0
 15 16  1  0
 16 18  2  0
 16 17  1  0
M  END
$$$$
