ALG.pdb
     RDKit          3D

 18 17  0  0  1  0  0  0  0  0999 V2000
   20.5236   -9.6208  -20.7133 C   0  0  0  0  0  0  0  0  0  0  0  0
   20.9859  -10.7404  -19.8047 C   0  0  2  0  0  0  0  0  0  0  0  0
   20.2275  -11.9550  -20.0232 N   0  0  0  0  0  0  0  0  0  0  0  0
   20.7577  -10.2934  -18.4010 C   0  0  0  0  0  0  0  0  0  0  0  0
   19.6803  -10.5051  -17.8170 O   0  0  0  0  0  0  0  0  0  0  0  0
   21.5451  -11.6417  -14.4576 C   0  0  0  0  0  0  0  0  0  0  0  0
   22.7794  -11.2423  -15.3029 C   0  0  2  0  0  0  0  0  0  0  0  0
   23.9729  -11.7319  -14.5091 C   0  0  0  0  0  0  0  0  0  0  0  0
   22.8074   -9.7363  -15.4625 C   0  0  0  0  0  0  0  0  0  0  0  0
   21.7153   -9.2102  -16.3590 C   0  0  2  0  0  0  0  0  0  0  0  0
   21.7689   -9.6177  -17.7077 N   0  0  0  0  0  0  0  0  0  0  0  0
   21.8163   -7.7384  -16.3305 C   0  0  0  0  0  0  0  0  0  0  0  0
   22.7822   -7.1780  -16.8987 O   0  0  0  0  0  0  0  0  0  0  0  0
   20.8480   -6.9161  -15.6750 N   0  0  0  0  0  0  0  0  0  0  0  0
   20.9300   -5.4922  -15.7588 C   0  0  0  0  0  0  0  0  0  0  0  0
   21.6631   -4.9278  -14.5876 C   0  0  0  0  0  0  0  0  0  0  0  0
   21.8470   -3.5621  -14.4575 O   0  0  0  0  0  0  0  0  0  0  0  0
   22.1115   -5.7109  -13.7203 O   0  0  0  0  0  0  0  0  0  0  0  0
  2  3  1  0
  2  1  1  6
  4  2  1  0
  5  4  2  0
  7  6  1  1
  7  8  1  0
  9  7  1  0
 10  9  1  1
 10 12  1  0
 10 11  1  0
 11  4  1  0
 12 14  1  0
 13 12  2  0
 14 15  1  0
 15 16  1  0
 16 18  2  0
 16 17  1  0
M  END
$$$$
