ALG.pdb
     RDKit          3D

 18 17  0  0  1  0  0  0  0  0999 V2000
   17.9934  -12.6321  -16.3985 C   0  0  0  0  0  0  0  0  0  0  0  0
   18.5395  -11.2959  -16.8562 C   0  0  2  0  0  0  0  0  0  0  0  0
   19.2231  -11.4044  -18.1286 N   0  0  0  0  0  0  0  0  0  0  0  0
   19.5259  -10.8474  -15.8326 C   0  0  0  0  0  0  0  0  0  0  0  0
   19.2386  -10.8113  -14.6230 O   0  0  0  0  0  0  0  0  0  0  0  0
   23.0835  -12.3488  -13.7716 C   0  0  0  0  0  0  0  0  0  0  0  0
   23.2349  -12.1214  -15.2958 C   0  0  2  0  0  0  0  0  0  0  0  0
   24.5835  -12.7139  -15.6483 C   0  0  0  0  0  0  0  0  0  0  0  0
   23.1968  -10.6348  -15.5836 C   0  0  0  0  0  0  0  0  0  0  0  0
   21.8391  -10.0179  -15.3621 C   0  0  2  0  0  0  0  0  0  0  0  0
   20.8112  -10.4536  -16.2233 N   0  0  0  0  0  0  0  0  0  0  0  0
   21.9985   -8.5635  -15.5535 C   0  0  0  0  0  0  0  0  0  0  0  0
   22.1306   -8.1074  -16.7129 O   0  0  0  0  0  0  0  0  0  0  0  0
   22.0084   -7.6431  -14.4598 N   0  0  0  0  0  0  0  0  0  0  0  0
   22.1696   -6.2425  -14.6921 C   0  0  0  0  0  0  0  0  0  0  0  0
   22.1042   -5.4761  -13.4131 C   0  0  0  0  0  0  0  0  0  0  0  0
   21.7201   -6.0937  -12.2355 O   0  0  0  0  0  0  0  0  0  0  0  0
   22.4031   -4.2607  -13.4205 O   0  0  0  0  0  0  0  0  0  0  0  0
  2  3  1  0
  2  1  1  1
  4  2  1  0
  5  4  2  0
  7  6  1  1
  7  8  1  0
  9  7  1  0
 10  9  1  6
 10 12  1  0
 10 11  1  0
 11  4  1  0
 12 14  1  0
 13 12  2  0
 14 15  1  0
 15 16  1  0
 16 18  2  0
 16 17  1  0
M  END
$$$$
