ALG.pdb
     RDKit          3D

 18 17  0  0  1  0  0  0  0  0999 V2000
   26.7066  -19.0809  -14.9508 C   0  0  0  0  0  0  0  0  0  0  0  0
   27.4200  -20.0682  -14.0512 C   0  0  2  0  0  0  0  0  0  0  0  0
   28.0847  -21.1045  -14.8144 N   0  0  0  0  0  0  0  0  0  0  0  0
   26.3852  -20.7114  -13.1924 C   0  0  0  0  0  0  0  0  0  0  0  0
   25.7482  -21.7084  -13.5760 O   0  0  0  0  0  0  0  0  0  0  0  0
   27.4307  -21.5972   -9.0804 C   0  0  0  0  0  0  0  0  0  0  0  0
   26.8072  -20.1814   -9.1462 C   0  0  2  0  0  0  0  0  0  0  0  0
   26.9316  -19.6328   -7.7398 C   0  0  0  0  0  0  0  0  0  0  0  0
   25.3557  -20.2954   -9.5640 C   0  0  0  0  0  0  0  0  0  0  0  0
   25.1790  -20.7182  -11.0003 C   0  0  2  0  0  0  0  0  0  0  0  0
   26.1102  -20.1949  -11.9206 N   0  0  0  0  0  0  0  0  0  0  0  0
   23.8368  -20.2647  -11.4131 C   0  0  0  0  0  0  0  0  0  0  0  0
   23.7018  -19.1264  -11.9190 O   0  0  0  0  0  0  0  0  0  0  0  0
   22.6717  -21.0784  -11.2585 N   0  0  0  0  0  0  0  0  0  0  0  0
   21.3916  -20.5981  -11.6735 C   0  0  0  0  0  0  0  0  0  0  0  0
   21.0166  -21.1551  -13.0064 C   0  0  0  0  0  0  0  0  0  0  0  0
   19.9017  -21.9629  -13.1488 O   0  0  0  0  0  0  0  0  0  0  0  0
   21.7282  -20.8800  -13.9986 O   0  0  0  0  0  0  0  0  0  0  0  0
  2  3  1  0
  2  1  1  6
  4  2  1  0
  5  4  2  0
  7  6  1  1
  7  8  1  0
  9  7  1  0
 10  9  1  1
 10 12  1  0
 10 11  1  0
 11  4  1  0
 12 14  1  0
 13 12  2  0
 14 15  1  0
 15 16  1  0
 16 18  2  0
 16 17  1  0
M  END
$$$$
