NFE.pdb
     RDKit          3D

 29 29  0  0  1  0  0  0  0  0999 V2000
    8.6951  -20.5146   19.7041 N   0  0  0  0  0  0  0  0  0  0  0  0
    9.5090  -19.3791   19.5171 C   0  0  0  0  0  0  0  0  0  0  0  0
   10.0572  -19.2038   18.4009 O   0  0  0  0  0  0  0  0  0  0  0  0
    9.7097  -18.4143   20.6235 C   0  0  0  0  0  0  0  0  0  0  0  0
    8.6992  -17.3155   20.5042 C   0  0  2  0  0  0  0  0  0  0  0  0
    8.8146  -16.5779   19.2712 N   0  0  0  0  0  0  0  0  0  0  0  0
    8.8134  -16.4468   21.6955 C   0  0  0  0  0  0  0  0  0  0  0  0
    9.9132  -15.8945   21.9426 O   0  0  0  0  0  0  0  0  0  0  0  0
    7.7433  -16.1888   22.5971 N   0  0  0  0  0  0  0  0  0  0  0  0
    7.9539  -15.3244   23.7478 C   0  0  1  0  0  0  0  0  0  0  0  0
    6.6315  -14.8762   24.3393 C   0  0  0  0  0  0  0  0  0  0  0  0
    6.9062  -13.9717   25.4861 C   0  0  0  0  0  0  0  0  0  0  0  0
    7.4122  -12.6920   25.2930 C   0  0  0  0  0  0  0  0  0  0  0  0
    7.6687  -11.8411   26.3453 C   0  0  0  0  0  0  0  0  0  0  0  0
    7.4290  -12.2345   27.6502 C   0  0  0  0  0  0  0  0  0  0  0  0
    6.9270  -13.5033   27.8441 C   0  0  0  0  0  0  0  0  0  0  0  0
    6.6669  -14.3652   26.7824 C   0  0  0  0  0  0  0  0  0  0  0  0
    8.7943  -16.0166   24.7484 C   0  0  0  0  0  0  0  0  0  0  0  0
    8.4369  -17.1652   25.1740 O   0  0  0  0  0  0  0  0  0  0  0  0
    9.9909  -15.4775   25.2735 N   0  0  0  0  0  0  0  0  0  0  0  0
   10.8260  -16.1527   26.2751 C   0  0  1  0  0  0  0  0  0  0  0  0
   12.2562  -16.0518   25.9088 C   0  0  0  0  0  0  0  0  0  0  0  0
   12.7478  -16.7963   24.7387 C   0  0  0  0  0  0  0  0  0  0  0  0
   14.1643  -16.6179   24.3844 C   0  0  0  0  0  0  0  0  0  0  0  0
   15.0713  -17.3349   24.8699 O   0  0  0  0  0  0  0  0  0  0  0  0
   10.4854  -15.9011   27.6389 C   0  0  0  0  0  0  0  0  0  0  0  0
   10.9077  -16.6584   28.7192 O   0  0  0  0  0  0  0  0  0  0  0  0
   14.5396  -15.6297   23.4842 O   0  0  0  0  0  0  0  0  0  0  0  0
    9.7266  -14.9155   27.9265 O   0  0  0  0  0  0  0  0  0  0  0  0
  2  3  2  0
  2  1  1  0
  4  2  1  0
  5  6  1  6
  5  4  1  0
  7  5  1  0
  8  7  2  0
  9  7  1  0
 10 18  1  0
 10  9  1  0
 10 11  1  1
 12 11  1  0
 12 13  2  0
 14 13  1  0
 15 14  2  0
 16 17  2  0
 16 15  1  0
 17 12  1  0
 18 19  2  0
 20 21  1  0
 20 18  1  0
 21 22  1  1
 23 22  1  0
 24 23  1  0
 25 24  2  0
 26 27  1  0
 26 21  1  0
 28 24  1  0
 29 26  2  0
M  END
$$$$
