NFE.pdb
     RDKit          3D

 29 29  0  0  1  0  0  0  0  0999 V2000
   10.6709  -18.5795   17.5378 N   0  0  0  0  0  0  0  0  0  0  0  0
   10.0918  -18.7075   18.8165 C   0  0  0  0  0  0  0  0  0  0  0  0
    9.5491  -19.7959   19.1296 O   0  0  0  0  0  0  0  0  0  0  0  0
   10.1264  -17.5727   19.7685 C   0  0  0  0  0  0  0  0  0  0  0  0
    8.7680  -17.4010   20.3751 C   0  0  2  0  0  0  0  0  0  0  0  0
    7.7504  -17.1035   19.3986 N   0  0  0  0  0  0  0  0  0  0  0  0
    8.8569  -16.3697   21.4313 C   0  0  0  0  0  0  0  0  0  0  0  0
    9.6700  -15.4238   21.2910 O   0  0  0  0  0  0  0  0  0  0  0  0
    8.0700  -16.3756   22.6167 N   0  0  0  0  0  0  0  0  0  0  0  0
    8.1746  -15.2774   23.5647 C   0  0  1  0  0  0  0  0  0  0  0  0
    6.8893  -15.1168   24.3532 C   0  0  0  0  0  0  0  0  0  0  0  0
    7.0507  -13.9816   25.2988 C   0  0  0  0  0  0  0  0  0  0  0  0
    6.8302  -12.6695   24.8982 C   0  0  0  0  0  0  0  0  0  0  0  0
    6.9726  -11.6074   25.7637 C   0  0  0  0  0  0  0  0  0  0  0  0
    7.3452  -11.8108   27.0808 C   0  0  0  0  0  0  0  0  0  0  0  0
    7.5643  -13.1115   27.4804 C   0  0  0  0  0  0  0  0  0  0  0  0
    7.4212  -14.1866   26.6078 C   0  0  0  0  0  0  0  0  0  0  0  0
    9.3381  -15.4895   24.4522 C   0  0  0  0  0  0  0  0  0  0  0  0
    9.6332  -14.5976   25.3157 O   0  0  0  0  0  0  0  0  0  0  0  0
   10.1599  -16.6387   24.4047 N   0  0  0  0  0  0  0  0  0  0  0  0
   11.4018  -16.7929   25.1732 C   0  0  1  0  0  0  0  0  0  0  0  0
   11.3634  -18.0370   25.9735 C   0  0  0  0  0  0  0  0  0  0  0  0
   10.3387  -18.1818   27.0194 C   0  0  0  0  0  0  0  0  0  0  0  0
   10.7971  -18.6383   28.3405 C   0  0  0  0  0  0  0  0  0  0  0  0
   11.9763  -19.0111   28.5480 O   0  0  0  0  0  0  0  0  0  0  0  0
   12.6094  -16.5135   24.4640 C   0  0  0  0  0  0  0  0  0  0  0  0
   13.8516  -16.3257   25.0476 O   0  0  0  0  0  0  0  0  0  0  0  0
    9.9161  -18.6683   29.4132 O   0  0  0  0  0  0  0  0  0  0  0  0
   12.5830  -16.4120   23.1917 O   0  0  0  0  0  0  0  0  0  0  0  0
  2  3  2  0
  2  1  1  0
  4  2  1  0
  5  6  1  6
  5  4  1  0
  7  5  1  0
  8  7  2  0
  9  7  1  0
 10 18  1  0
 10  9  1  0
 10 11  1  1
 12 11  1  0
 12 13  2  0
 14 13  1  0
 15 14  2  0
 16 17  2  0
 16 15  1  0
 17 12  1  0
 18 19  2  0
 20 21  1  0
 20 18  1  0
 21 22  1  6
 23 22  1  0
 24 23  1  0
 25 24  2  0
 26 27  1  0
 26 21  1  0
 28 24  1  0
 29 26  2  0
M  END
$$$$
