NFE.pdb
     RDKit          3D

 29 29  0  0  1  0  0  0  0  0999 V2000
   10.8453  -19.7991   18.5992 N   0  0  0  0  0  0  0  0  0  0  0  0
    9.6915  -19.1348   19.0621 C   0  0  0  0  0  0  0  0  0  0  0  0
    8.6156  -19.2778   18.4302 O   0  0  0  0  0  0  0  0  0  0  0  0
    9.7555  -18.2841   20.2734 C   0  0  0  0  0  0  0  0  0  0  0  0
    9.2319  -16.9206   19.9423 C   0  0  2  0  0  0  0  0  0  0  0  0
    9.9514  -16.2892   18.8648 N   0  0  0  0  0  0  0  0  0  0  0  0
    9.2359  -16.1079   21.1777 C   0  0  0  0  0  0  0  0  0  0  0  0
   10.3298  -15.6820   21.6222 O   0  0  0  0  0  0  0  0  0  0  0  0
    8.0642  -15.7688   21.9103 N   0  0  0  0  0  0  0  0  0  0  0  0
    8.1725  -15.0007   23.1408 C   0  0  1  0  0  0  0  0  0  0  0  0
    6.8757  -14.2755   23.4439 C   0  0  0  0  0  0  0  0  0  0  0  0
    7.0085  -13.5935   24.7577 C   0  0  0  0  0  0  0  0  0  0  0  0
    7.7593  -12.4326   24.8974 C   0  0  0  0  0  0  0  0  0  0  0  0
    7.8891  -11.7875   26.1075 C   0  0  0  0  0  0  0  0  0  0  0  0
    7.2686  -12.2782   27.2430 C   0  0  0  0  0  0  0  0  0  0  0  0
    6.5233  -13.4294   27.1066 C   0  0  0  0  0  0  0  0  0  0  0  0
    6.3906  -14.0833   25.8850 C   0  0  0  0  0  0  0  0  0  0  0  0
    8.5758  -15.8882   24.2526 C   0  0  0  0  0  0  0  0  0  0  0  0
    7.8846  -16.9324   24.4978 O   0  0  0  0  0  0  0  0  0  0  0  0
    9.6994  -15.6499   25.0766 N   0  0  0  0  0  0  0  0  0  0  0  0
   10.1591  -16.5697   26.1251 C   0  0  1  0  0  0  0  0  0  0  0  0
   11.5437  -17.0147   25.8518 C   0  0  0  0  0  0  0  0  0  0  0  0
   11.7848  -17.9650   24.7546 C   0  0  0  0  0  0  0  0  0  0  0  0
   13.1625  -18.0594   24.2476 C   0  0  0  0  0  0  0  0  0  0  0  0
   13.4405  -18.6322   23.1673 O   0  0  0  0  0  0  0  0  0  0  0  0
    9.8529  -16.1855   27.4659 C   0  0  0  0  0  0  0  0  0  0  0  0
    9.7546  -17.0531   28.5414 O   0  0  0  0  0  0  0  0  0  0  0  0
   14.2113  -17.5047   24.9687 O   0  0  0  0  0  0  0  0  0  0  0  0
    9.6371  -14.9563   27.7347 O   0  0  0  0  0  0  0  0  0  0  0  0
  2  3  2  0
  2  1  1  0
  4  2  1  0
  5  6  1  6
  5  4  1  0
  7  5  1  0
  8  7  2  0
  9  7  1  0
 10 18  1  0
 10  9  1  0
 10 11  1  1
 12 11  1  0
 12 13  2  0
 14 13  1  0
 15 14  2  0
 16 17  2  0
 16 15  1  0
 17 12  1  0
 18 19  2  0
 20 21  1  0
 20 18  1  0
 21 22  1  1
 23 22  1  0
 24 23  1  0
 25 24  2  0
 26 27  1  0
 26 21  1  0
 28 24  1  0
 29 26  2  0
M  END
$$$$
