NFE.pdb
     RDKit          3D

 29 29  0  0  1  0  0  0  0  0999 V2000
    8.2447  -19.2217   18.1372 N   0  0  0  0  0  0  0  0  0  0  0  0
    9.0921  -19.5983   19.1987 C   0  0  0  0  0  0  0  0  0  0  0  0
    9.4501  -20.7985   19.2916 O   0  0  0  0  0  0  0  0  0  0  0  0
    9.5476  -18.5898   20.1840 C   0  0  0  0  0  0  0  0  0  0  0  0
    8.8525  -17.2914   19.9125 C   0  0  2  0  0  0  0  0  0  0  0  0
    9.3364  -16.6329   18.7252 N   0  0  0  0  0  0  0  0  0  0  0  0
    8.9671  -16.4414   21.1171 C   0  0  0  0  0  0  0  0  0  0  0  0
   10.0779  -15.9274   21.3956 O   0  0  0  0  0  0  0  0  0  0  0  0
    7.8856  -16.1606   21.9981 N   0  0  0  0  0  0  0  0  0  0  0  0
    8.0941  -15.3062   23.1567 C   0  0  1  0  0  0  0  0  0  0  0  0
    6.7773  -14.7556   23.6690 C   0  0  0  0  0  0  0  0  0  0  0  0
    7.0486  -13.9023   24.8552 C   0  0  0  0  0  0  0  0  0  0  0  0
    7.5595  -12.6171   24.7203 C   0  0  0  0  0  0  0  0  0  0  0  0
    7.8129  -11.8133   25.8097 C   0  0  0  0  0  0  0  0  0  0  0  0
    7.5649  -12.2620   27.0951 C   0  0  0  0  0  0  0  0  0  0  0  0
    7.0581  -13.5363   27.2314 C   0  0  0  0  0  0  0  0  0  0  0  0
    6.8011  -14.3506   26.1321 C   0  0  0  0  0  0  0  0  0  0  0  0
    8.8206  -16.0524   24.2063 C   0  0  0  0  0  0  0  0  0  0  0  0
    8.3757  -17.1868   24.5849 O   0  0  0  0  0  0  0  0  0  0  0  0
    9.9989  -15.5809   24.8290 N   0  0  0  0  0  0  0  0  0  0  0  0
   10.8520  -16.3998   25.6997 C   0  0  1  0  0  0  0  0  0  0  0  0
   12.2540  -16.3691   25.2271 C   0  0  0  0  0  0  0  0  0  0  0  0
   13.2662  -17.1619   25.9425 C   0  0  0  0  0  0  0  0  0  0  0  0
   14.6511  -17.0668   25.4557 C   0  0  0  0  0  0  0  0  0  0  0  0
   15.4210  -16.1403   25.8040 O   0  0  0  0  0  0  0  0  0  0  0  0
   10.6360  -16.2461   27.1029 C   0  0  0  0  0  0  0  0  0  0  0  0
   11.0019  -17.1663   28.0716 O   0  0  0  0  0  0  0  0  0  0  0  0
   15.1502  -18.0213   24.5796 O   0  0  0  0  0  0  0  0  0  0  0  0
   10.0550  -15.1963   27.5390 O   0  0  0  0  0  0  0  0  0  0  0  0
  2  3  2  0
  2  1  1  0
  4  2  1  0
  5  6  1  6
  5  4  1  0
  7  5  1  0
  8  7  2  0
  9  7  1  0
 10 18  1  0
 10  9  1  0
 10 11  1  1
 12 11  1  0
 12 13  2  0
 14 13  1  0
 15 14  2  0
 16 17  2  0
 16 15  1  0
 17 12  1  0
 18 19  2  0
 20 21  1  0
 20 18  1  0
 21 22  1  1
 23 22  1  0
 24 23  1  0
 25 24  2  0
 26 27  1  0
 26 21  1  0
 28 24  1  0
 29 26  2  0
M  END
$$$$
