NFE.pdb
     RDKit          3D

 29 29  0  0  1  0  0  0  0  0999 V2000
    9.2128  -15.3278   16.7618 N   0  0  0  0  0  0  0  0  0  0  0  0
    8.6718  -16.2451   17.6853 C   0  0  0  0  0  0  0  0  0  0  0  0
    8.6578  -17.4655   17.3895 O   0  0  0  0  0  0  0  0  0  0  0  0
    8.1307  -15.7694   18.9799 C   0  0  0  0  0  0  0  0  0  0  0  0
    8.6425  -16.6502   20.0777 C   0  0  2  0  0  0  0  0  0  0  0  0
    7.8862  -17.8692   20.2183 N   0  0  0  0  0  0  0  0  0  0  0  0
    8.6809  -15.8611   21.3278 C   0  0  0  0  0  0  0  0  0  0  0  0
    9.5220  -14.9359   21.4376 O   0  0  0  0  0  0  0  0  0  0  0  0
    7.8143  -16.0819   22.4345 N   0  0  0  0  0  0  0  0  0  0  0  0
    8.0116  -15.3430   23.6717 C   0  0  1  0  0  0  0  0  0  0  0  0
    6.6827  -14.9439   24.2835 C   0  0  0  0  0  0  0  0  0  0  0  0
    6.9429  -14.0621   25.4511 C   0  0  0  0  0  0  0  0  0  0  0  0
    7.0909  -14.5817   26.7313 C   0  0  0  0  0  0  0  0  0  0  0  0
    7.3356  -13.7776   27.8226 C   0  0  0  0  0  0  0  0  0  0  0  0
    7.4443  -12.4052   27.6822 C   0  0  0  0  0  0  0  0  0  0  0  0
    7.2981  -11.8877   26.4133 C   0  0  0  0  0  0  0  0  0  0  0  0
    7.0507  -12.6980   25.3089 C   0  0  0  0  0  0  0  0  0  0  0  0
    8.8275  -16.1434   24.6098 C   0  0  0  0  0  0  0  0  0  0  0  0
    8.4206  -17.3022   24.9561 O   0  0  0  0  0  0  0  0  0  0  0  0
   10.0525  -15.6992   25.1577 N   0  0  0  0  0  0  0  0  0  0  0  0
   10.9086  -16.5172   26.0264 C   0  0  1  0  0  0  0  0  0  0  0  0
   12.3259  -16.3948   25.6188 C   0  0  0  0  0  0  0  0  0  0  0  0
   12.7507  -16.9674   24.3317 C   0  0  0  0  0  0  0  0  0  0  0  0
   13.8457  -16.2818   23.6281 C   0  0  0  0  0  0  0  0  0  0  0  0
   13.7238  -15.8537   22.4558 O   0  0  0  0  0  0  0  0  0  0  0  0
   10.6259  -16.4433   27.4242 C   0  0  0  0  0  0  0  0  0  0  0  0
   10.9907  -17.3944   28.3629 O   0  0  0  0  0  0  0  0  0  0  0  0
   15.0673  -16.0878   24.2587 O   0  0  0  0  0  0  0  0  0  0  0  0
    9.9801  -15.4425   27.8836 O   0  0  0  0  0  0  0  0  0  0  0  0
  2  3  2  0
  2  1  1  0
  4  2  1  0
  5  6  1  1
  5  4  1  0
  7  5  1  0
  8  7  2  0
  9  7  1  0
 10 18  1  0
 10  9  1  0
 10 11  1  1
 12 11  1  0
 12 13  2  0
 14 13  1  0
 15 14  2  0
 16 17  2  0
 16 15  1  0
 17 12  1  0
 18 19  2  0
 20 21  1  0
 20 18  1  0
 21 22  1  1
 23 22  1  0
 24 23  1  0
 25 24  2  0
 26 27  1  0
 26 21  1  0
 28 24  1  0
 29 26  2  0
M  END
$$$$
