NFE.pdb
     RDKit          3D

 29 29  0  0  1  0  0  0  0  0999 V2000
   10.1665  -18.9332   18.5684 N   0  0  0  0  0  0  0  0  0  0  0  0
   11.3145  -18.4188   19.2044 C   0  0  0  0  0  0  0  0  0  0  0  0
   12.4446  -18.6990   18.7336 O   0  0  0  0  0  0  0  0  0  0  0  0
   11.1817  -17.5639   20.4071 C   0  0  0  0  0  0  0  0  0  0  0  0
    9.7943  -17.0023   20.4578 C   0  0  2  0  0  0  0  0  0  0  0  0
    9.4338  -16.2871   19.2594 N   0  0  0  0  0  0  0  0  0  0  0  0
    9.6742  -16.1673   21.6724 C   0  0  0  0  0  0  0  0  0  0  0  0
   10.6977  -15.9528   22.3667 O   0  0  0  0  0  0  0  0  0  0  0  0
    8.4569  -15.5794   22.1162 N   0  0  0  0  0  0  0  0  0  0  0  0
    8.4079  -14.8838   23.3926 C   0  0  1  0  0  0  0  0  0  0  0  0
    7.1595  -14.0294   23.4976 C   0  0  0  0  0  0  0  0  0  0  0  0
    7.1425  -13.3749   24.8318 C   0  0  0  0  0  0  0  0  0  0  0  0
    7.9637  -12.2907   25.1162 C   0  0  0  0  0  0  0  0  0  0  0  0
    7.9568  -11.6717   26.3467 C   0  0  0  0  0  0  0  0  0  0  0  0
    7.1212  -12.1126   27.3578 C   0  0  0  0  0  0  0  0  0  0  0  0
    6.3057  -13.1878   27.0779 C   0  0  0  0  0  0  0  0  0  0  0  0
    6.3107  -13.8151   25.8353 C   0  0  0  0  0  0  0  0  0  0  0  0
    8.4976  -15.8597   24.4998 C   0  0  0  0  0  0  0  0  0  0  0  0
    7.5979  -16.7574   24.6129 O   0  0  0  0  0  0  0  0  0  0  0  0
    9.5360  -15.8624   25.4591 N   0  0  0  0  0  0  0  0  0  0  0  0
    9.6588  -16.8553   26.5340 C   0  0  1  0  0  0  0  0  0  0  0  0
   10.5545  -17.9579   26.1195 C   0  0  0  0  0  0  0  0  0  0  0  0
   11.9663  -17.6607   25.8308 C   0  0  0  0  0  0  0  0  0  0  0  0
   12.6807  -18.6081   24.9613 C   0  0  0  0  0  0  0  0  0  0  0  0
   12.1211  -19.6150   24.4658 O   0  0  0  0  0  0  0  0  0  0  0  0
    9.8430  -16.3279   27.8483 C   0  0  0  0  0  0  0  0  0  0  0  0
    9.9730  -14.9838   28.1572 O   0  0  0  0  0  0  0  0  0  0  0  0
   14.0213  -18.4061   24.6615 O   0  0  0  0  0  0  0  0  0  0  0  0
    9.9072  -17.1253   28.8431 O   0  0  0  0  0  0  0  0  0  0  0  0
  2  3  2  0
  2  1  1  0
  4  2  1  0
  5  6  1  6
  5  4  1  0
  7  5  1  0
  8  7  2  0
  9  7  1  0
 10 18  1  0
 10  9  1  0
 10 11  1  1
 12 11  1  0
 12 13  2  0
 14 13  1  0
 15 14  2  0
 16 17  2  0
 16 15  1  0
 17 12  1  0
 18 19  2  0
 20 21  1  0
 20 18  1  0
 21 22  1  6
 23 22  1  0
 24 23  1  0
 25 24  2  0
 26 27  1  0
 26 21  1  0
 28 24  1  0
 29 26  2  0
M  END
$$$$
