NFE.pdb
     RDKit          3D

 29 29  0  0  1  0  0  0  0  0999 V2000
   11.8671  -18.9980   19.6960 N   0  0  0  0  0  0  0  0  0  0  0  0
   11.4486  -17.7687   19.1479 C   0  0  0  0  0  0  0  0  0  0  0  0
   11.4659  -17.6243   17.9004 O   0  0  0  0  0  0  0  0  0  0  0  0
   10.9980  -16.6708   20.0349 C   0  0  0  0  0  0  0  0  0  0  0  0
    9.9623  -17.1982   20.9793 C   0  0  2  0  0  0  0  0  0  0  0  0
    8.7204  -17.5257   20.3250 N   0  0  0  0  0  0  0  0  0  0  0  0
    9.7846  -16.2163   22.0708 C   0  0  0  0  0  0  0  0  0  0  0  0
   10.7440  -15.4671   22.3772 O   0  0  0  0  0  0  0  0  0  0  0  0
    8.5795  -16.0591   22.8106 N   0  0  0  0  0  0  0  0  0  0  0  0
    8.5548  -15.2057   23.9882 C   0  0  1  0  0  0  0  0  0  0  0  0
    7.1464  -14.7267   24.2821 C   0  0  0  0  0  0  0  0  0  0  0  0
    7.1830  -13.8516   25.4828 C   0  0  0  0  0  0  0  0  0  0  0  0
    6.8491  -14.3362   26.7416 C   0  0  0  0  0  0  0  0  0  0  0  0
    6.8815  -13.5384   27.8640 C   0  0  0  0  0  0  0  0  0  0  0  0
    7.2525  -12.2080   27.7781 C   0  0  0  0  0  0  0  0  0  0  0  0
    7.5842  -11.7253   26.5305 C   0  0  0  0  0  0  0  0  0  0  0  0
    7.5523  -12.5293   25.3947 C   0  0  0  0  0  0  0  0  0  0  0  0
    9.1403  -15.9237   25.1407 C   0  0  0  0  0  0  0  0  0  0  0  0
    8.5643  -16.9754   25.5768 O   0  0  0  0  0  0  0  0  0  0  0  0
   10.3195  -15.5121   25.8027 N   0  0  0  0  0  0  0  0  0  0  0  0
   10.9557  -16.2647   26.8915 C   0  0  1  0  0  0  0  0  0  0  0  0
   12.3487  -16.6133   26.5338 C   0  0  0  0  0  0  0  0  0  0  0  0
   12.7364  -16.6389   25.1146 C   0  0  0  0  0  0  0  0  0  0  0  0
   14.1193  -16.2517   24.7961 C   0  0  0  0  0  0  0  0  0  0  0  0
   14.7231  -16.6929   23.7895 O   0  0  0  0  0  0  0  0  0  0  0  0
   10.7298  -15.7615   28.2087 C   0  0  0  0  0  0  0  0  0  0  0  0
   10.0658  -14.5836   28.5094 O   0  0  0  0  0  0  0  0  0  0  0  0
   14.8046  -15.3692   25.6204 O   0  0  0  0  0  0  0  0  0  0  0  0
   11.1660  -16.4145   29.2152 O   0  0  0  0  0  0  0  0  0  0  0  0
  2  3  2  0
  2  1  1  0
  4  2  1  0
  5  6  1  6
  5  4  1  0
  7  5  1  0
  8  7  2  0
  9  7  1  0
 10 18  1  0
 10  9  1  0
 10 11  1  1
 12 11  1  0
 12 13  2  0
 14 13  1  0
 15 14  2  0
 16 17  2  0
 16 15  1  0
 17 12  1  0
 18 19  2  0
 20 21  1  0
 20 18  1  0
 21 22  1  6
 23 22  1  0
 24 23  1  0
 25 24  2  0
 26 27  1  0
 26 21  1  0
 28 24  1  0
 29 26  2  0
M  END
$$$$
