NFE.pdb
     RDKit          3D

 29 29  0  0  1  0  0  0  0  0999 V2000
    8.7823  -18.4939   18.0485 N   0  0  0  0  0  0  0  0  0  0  0  0
    8.8870  -19.1548   19.2890 C   0  0  0  0  0  0  0  0  0  0  0  0
    8.7302  -20.4003   19.3270 O   0  0  0  0  0  0  0  0  0  0  0  0
    9.1766  -18.3862   20.5222 C   0  0  0  0  0  0  0  0  0  0  0  0
    9.2860  -16.9327   20.1787 C   0  0  2  0  0  0  0  0  0  0  0  0
   10.4186  -16.6381   19.3373 N   0  0  0  0  0  0  0  0  0  0  0  0
    9.2998  -16.1568   21.4376 C   0  0  0  0  0  0  0  0  0  0  0  0
   10.4009  -15.9059   21.9855 O   0  0  0  0  0  0  0  0  0  0  0  0
    8.1301  -15.6659   22.0821 N   0  0  0  0  0  0  0  0  0  0  0  0
    8.2413  -14.9433   23.3395 C   0  0  1  0  0  0  0  0  0  0  0  0
    6.9716  -14.1683   23.6343 C   0  0  0  0  0  0  0  0  0  0  0  0
    7.1322  -13.4710   24.9368 C   0  0  0  0  0  0  0  0  0  0  0  0
    7.9481  -12.3532   25.0632 C   0  0  0  0  0  0  0  0  0  0  0  0
    8.1043  -11.6944   26.2627 C   0  0  0  0  0  0  0  0  0  0  0  0
    7.4463  -12.1271   27.4006 C   0  0  0  0  0  0  0  0  0  0  0  0
    6.6365  -13.2355   27.2775 C   0  0  0  0  0  0  0  0  0  0  0  0
    6.4768  -13.9031   26.0666 C   0  0  0  0  0  0  0  0  0  0  0  0
    8.5743  -15.8836   24.4310 C   0  0  0  0  0  0  0  0  0  0  0  0
    7.7880  -16.8588   24.6742 O   0  0  0  0  0  0  0  0  0  0  0  0
    9.7297  -15.7697   25.2375 N   0  0  0  0  0  0  0  0  0  0  0  0
   10.0743  -16.7051   26.3158 C   0  0  1  0  0  0  0  0  0  0  0  0
   11.2382  -17.5333   25.9294 C   0  0  0  0  0  0  0  0  0  0  0  0
   11.1341  -18.4040   24.7479 C   0  0  0  0  0  0  0  0  0  0  0  0
   12.3257  -19.1913   24.3952 C   0  0  0  0  0  0  0  0  0  0  0  0
   13.3558  -19.2033   25.1101 O   0  0  0  0  0  0  0  0  0  0  0  0
   10.0752  -16.1585   27.6351 C   0  0  0  0  0  0  0  0  0  0  0  0
   10.1296  -16.8986   28.8048 O   0  0  0  0  0  0  0  0  0  0  0  0
   12.3390  -19.9567   23.2369 O   0  0  0  0  0  0  0  0  0  0  0  0
   10.0130  -14.8931   27.7921 O   0  0  0  0  0  0  0  0  0  0  0  0
  2  3  2  0
  2  1  1  0
  4  2  1  0
  5  6  1  1
  5  4  1  0
  7  5  1  0
  8  7  2  0
  9  7  1  0
 10 18  1  0
 10  9  1  0
 10 11  1  1
 12 11  1  0
 12 13  2  0
 14 13  1  0
 15 14  2  0
 16 17  2  0
 16 15  1  0
 17 12  1  0
 18 19  2  0
 20 21  1  0
 20 18  1  0
 21 22  1  6
 23 22  1  0
 24 23  1  0
 25 24  2  0
 26 27  1  0
 26 21  1  0
 28 24  1  0
 29 26  2  0
M  END
$$$$
