NFE.pdb
     RDKit          3D

 29 29  0  0  1  0  0  0  0  0999 V2000
   11.0720  -18.7403   19.1010 N   0  0  0  0  0  0  0  0  0  0  0  0
   11.7718  -17.5194   19.1819 C   0  0  0  0  0  0  0  0  0  0  0  0
   12.6526  -17.2679   18.3227 O   0  0  0  0  0  0  0  0  0  0  0  0
   11.4680  -16.5553   20.2652 C   0  0  0  0  0  0  0  0  0  0  0  0
   10.4679  -17.1661   21.1978 C   0  0  2  0  0  0  0  0  0  0  0  0
    9.2433  -17.5444   20.5386 N   0  0  0  0  0  0  0  0  0  0  0  0
   10.2409  -16.2264   22.3169 C   0  0  0  0  0  0  0  0  0  0  0  0
   11.2313  -15.6933   22.8742 O   0  0  0  0  0  0  0  0  0  0  0  0
    8.9541  -15.8784   22.8145 N   0  0  0  0  0  0  0  0  0  0  0  0
    8.8333  -15.0120   23.9766 C   0  0  1  0  0  0  0  0  0  0  0  0
    7.4675  -14.3549   24.0241 C   0  0  0  0  0  0  0  0  0  0  0  0
    7.3888  -13.5104   25.2446 C   0  0  0  0  0  0  0  0  0  0  0  0
    8.1648  -12.3661   25.3837 C   0  0  0  0  0  0  0  0  0  0  0  0
    8.1005  -11.5717   26.5071 C   0  0  0  0  0  0  0  0  0  0  0  0
    7.2500  -11.8882   27.5519 C   0  0  0  0  0  0  0  0  0  0  0  0
    6.4793  -13.0227   27.4159 C   0  0  0  0  0  0  0  0  0  0  0  0
    6.5423  -13.8271   26.2817 C   0  0  0  0  0  0  0  0  0  0  0  0
    9.1133  -15.7817   25.2077 C   0  0  0  0  0  0  0  0  0  0  0  0
    8.3261  -16.7284   25.5426 O   0  0  0  0  0  0  0  0  0  0  0  0
   10.2182  -15.5315   26.0533 N   0  0  0  0  0  0  0  0  0  0  0  0
   10.4759  -16.2561   27.3043 C   0  0  1  0  0  0  0  0  0  0  0  0
   11.5713  -17.2337   27.1193 C   0  0  0  0  0  0  0  0  0  0  0  0
   11.4632  -18.2320   26.0438 C   0  0  0  0  0  0  0  0  0  0  0  0
   12.5879  -19.1675   25.8896 C   0  0  0  0  0  0  0  0  0  0  0  0
   13.5842  -19.1479   26.6509 O   0  0  0  0  0  0  0  0  0  0  0  0
   10.5103  -15.4582   28.4881 C   0  0  0  0  0  0  0  0  0  0  0  0
   10.4021  -14.0776   28.5227 O   0  0  0  0  0  0  0  0  0  0  0  0
   12.5735  -20.1156   24.8753 O   0  0  0  0  0  0  0  0  0  0  0  0
   10.6600  -16.0227   29.6234 O   0  0  0  0  0  0  0  0  0  0  0  0
  2  3  2  0
  2  1  1  0
  4  2  1  0
  5  6  1  6
  5  4  1  0
  7  5  1  0
  8  7  2  0
  9  7  1  0
 10 18  1  0
 10  9  1  0
 10 11  1  1
 12 11  1  0
 12 13  2  0
 14 13  1  0
 15 14  2  0
 16 17  2  0
 16 15  1  0
 17 12  1  0
 18 19  2  0
 20 21  1  0
 20 18  1  0
 21 22  1  6
 23 22  1  0
 24 23  1  0
 25 24  2  0
 26 27  1  0
 26 21  1  0
 28 24  1  0
 29 26  2  0
M  END
$$$$
