NFE.pdb
     RDKit          3D

 29 29  0  0  1  0  0  0  0  0999 V2000
   11.6550  -17.4254   17.3362 N   0  0  0  0  0  0  0  0  0  0  0  0
   10.5194  -17.4819   18.1693 C   0  0  0  0  0  0  0  0  0  0  0  0
    9.7084  -18.4298   18.0246 O   0  0  0  0  0  0  0  0  0  0  0  0
   10.2936  -16.4369   19.1952 C   0  0  0  0  0  0  0  0  0  0  0  0
   10.2562  -17.0787   20.5477 C   0  0  2  0  0  0  0  0  0  0  0  0
    9.3058  -18.1592   20.6306 N   0  0  0  0  0  0  0  0  0  0  0  0
   10.0049  -16.0260   21.5555 C   0  0  0  0  0  0  0  0  0  0  0  0
   10.8775  -15.1437   21.7442 O   0  0  0  0  0  0  0  0  0  0  0  0
    8.8207  -15.9425   22.3400 N   0  0  0  0  0  0  0  0  0  0  0  0
    8.7186  -14.9517   23.3999 C   0  0  1  0  0  0  0  0  0  0  0  0
    7.2780  -14.7715   23.8376 C   0  0  0  0  0  0  0  0  0  0  0  0
    7.2320  -13.7419   24.9084 C   0  0  0  0  0  0  0  0  0  0  0  0
    6.7613  -14.0422   26.1809 C   0  0  0  0  0  0  0  0  0  0  0  0
    6.7157  -13.0998   27.1844 C   0  0  0  0  0  0  0  0  0  0  0  0
    7.1424  -11.8028   26.9594 C   0  0  0  0  0  0  0  0  0  0  0  0
    7.6099  -11.5028   25.6980 C   0  0  0  0  0  0  0  0  0  0  0  0
    7.6570  -12.4532   24.6821 C   0  0  0  0  0  0  0  0  0  0  0  0
    9.5903  -15.3352   24.5311 C   0  0  0  0  0  0  0  0  0  0  0  0
    9.6344  -14.5878   25.5643 O   0  0  0  0  0  0  0  0  0  0  0  0
   10.3927  -16.4990   24.5417 N   0  0  0  0  0  0  0  0  0  0  0  0
   11.2411  -16.9015   25.6708 C   0  0  1  0  0  0  0  0  0  0  0  0
   10.4377  -17.6027   26.6969 C   0  0  0  0  0  0  0  0  0  0  0  0
   11.1079  -18.1099   27.9047 C   0  0  0  0  0  0  0  0  0  0  0  0
   10.2971  -18.9256   28.8218 C   0  0  0  0  0  0  0  0  0  0  0  0
   10.7439  -19.3484   29.9145 O   0  0  0  0  0  0  0  0  0  0  0  0
   12.5009  -17.4787   25.3259 C   0  0  0  0  0  0  0  0  0  0  0  0
   12.8464  -17.9462   24.0685 O   0  0  0  0  0  0  0  0  0  0  0  0
    8.9890  -19.2546   28.4926 O   0  0  0  0  0  0  0  0  0  0  0  0
   13.4038  -17.5996   26.2203 O   0  0  0  0  0  0  0  0  0  0  0  0
  2  3  2  0
  2  1  1  0
  4  2  1  0
  5  6  1  6
  5  4  1  0
  7  5  1  0
  8  7  2  0
  9  7  1  0
 10 18  1  0
 10  9  1  0
 10 11  1  1
 12 11  1  0
 12 13  2  0
 14 13  1  0
 15 14  2  0
 16 17  2  0
 16 15  1  0
 17 12  1  0
 18 19  2  0
 20 21  1  0
 20 18  1  0
 21 22  1  6
 23 22  1  0
 24 23  1  0
 25 24  2  0
 26 27  1  0
 26 21  1  0
 28 24  1  0
 29 26  2  0
M  END
$$$$
