MDK.pdb
     RDKit          3D

 26 25  0  0  1  0  0  0  0  0999 V2000
    7.4007  -11.9789   27.0473 C   0  0  0  0  0  0  0  0  0  0  0  0
    6.7943  -11.5547   25.3923 S   0  0  0  0  0  0  0  0  0  0  0  0
    6.3637  -13.0568   24.4894 C   0  0  0  0  0  0  0  0  0  0  0  0
    7.5152  -14.0479   24.4776 C   0  0  0  0  0  0  0  0  0  0  0  0
    7.2224  -15.2198   23.5743 C   0  0  2  0  0  0  0  0  0  0  0  0
    6.0638  -15.8911   24.1338 N   0  0  0  0  0  0  0  0  0  0  0  0
    8.3623  -16.1158   23.3891 C   0  0  0  0  0  0  0  0  0  0  0  0
    8.4783  -17.1024   24.1590 O   0  0  0  0  0  0  0  0  0  0  0  0
    9.3532  -15.9465   22.3898 N   0  0  0  0  0  0  0  0  0  0  0  0
   10.5389  -16.7642   22.2661 C   0  0  1  0  0  0  0  0  0  0  0  0
   11.1777  -16.4534   20.9097 C   0  0  0  0  0  0  0  0  0  0  0  0
   12.3237  -17.3104   20.6110 C   0  0  0  0  0  0  0  0  0  0  0  0
   12.5179  -18.4737   21.0059 O   0  0  0  0  0  0  0  0  0  0  0  0
   11.5137  -16.4894   23.3647 C   0  0  0  0  0  0  0  0  0  0  0  0
   11.7825  -15.3405   23.7590 O   0  0  0  0  0  0  0  0  0  0  0  0
   13.3157  -16.7683   19.7899 O   0  0  0  0  0  0  0  0  0  0  0  0
   12.1341  -17.6247   23.9524 N   0  0  0  0  0  0  0  0  0  0  0  0
   12.5617  -17.7294   25.3265 C   0  0  1  0  0  0  0  0  0  0  0  0
   11.3971  -17.4053   26.1851 C   0  0  0  0  0  0  0  0  0  0  0  0
   11.5360  -16.2748   27.1308 C   0  0  0  0  0  0  0  0  0  0  0  0
   10.3073  -15.9698   27.9346 C   0  0  0  0  0  0  0  0  0  0  0  0
   10.6269  -14.7869   28.8501 C   0  0  0  0  0  0  0  0  0  0  0  0
    9.3923  -14.4084   29.5123 N   0  0  0  0  0  0  0  0  0  0  0  0
   13.2260  -19.0222   25.6512 C   0  0  0  0  0  0  0  0  0  0  0  0
   12.5691  -20.2179   25.4101 O   0  0  0  0  0  0  0  0  0  0  0  0
   14.3591  -19.0609   26.1354 O   0  0  0  0  0  0  0  0  0  0  0  0
  2  1  1  0
  3  2  1  0
  4  3  1  0
  4  5  1  0
  5  6  1  1
  5  7  1  0
  7  8  2  0
  9  7  1  0
  9 10  1  0
 10 11  1  6
 11 12  1  0
 12 13  2  0
 14 10  1  0
 14 15  2  0
 16 12  1  0
 17 14  1  0
 18 17  1  0
 18 24  1  0
 18 19  1  1
 20 19  1  0
 21 20  1  0
 22 21  1  0
 23 22  1  0
 24 26  2  0
 24 25  1  0
M  END
$$$$
