MDK.pdb
     RDKit          3D

 26 25  0  0  1  0  0  0  0  0999 V2000
    7.5811  -11.1273   26.6779 C   0  0  0  0  0  0  0  0  0  0  0  0
    5.9271  -11.5760   26.0867 S   0  0  0  0  0  0  0  0  0  0  0  0
    5.6536  -13.3466   26.3037 C   0  0  0  0  0  0  0  0  0  0  0  0
    6.8387  -14.1572   25.8069 C   0  0  0  0  0  0  0  0  0  0  0  0
    6.4179  -15.1640   24.7654 C   0  0  2  0  0  0  0  0  0  0  0  0
    5.5169  -16.0890   25.4277 N   0  0  0  0  0  0  0  0  0  0  0  0
    7.5402  -15.8351   24.1124 C   0  0  0  0  0  0  0  0  0  0  0  0
    8.1021  -16.7839   24.7154 O   0  0  0  0  0  0  0  0  0  0  0  0
    8.0405  -15.4863   22.8329 N   0  0  0  0  0  0  0  0  0  0  0  0
    9.1743  -16.1187   22.1971 C   0  0  1  0  0  0  0  0  0  0  0  0
    9.3480  -15.4803   20.8162 C   0  0  0  0  0  0  0  0  0  0  0  0
   10.3174  -16.1869   19.9809 C   0  0  0  0  0  0  0  0  0  0  0  0
   10.0783  -16.9235   19.0077 O   0  0  0  0  0  0  0  0  0  0  0  0
   10.4223  -15.9461   23.0003 C   0  0  0  0  0  0  0  0  0  0  0  0
   10.8336  -14.8355   23.3812 O   0  0  0  0  0  0  0  0  0  0  0  0
   11.6659  -16.0201   20.3064 O   0  0  0  0  0  0  0  0  0  0  0  0
   11.1349  -17.1341   23.3168 N   0  0  0  0  0  0  0  0  0  0  0  0
   12.1136  -17.2701   24.3684 C   0  0  1  0  0  0  0  0  0  0  0  0
   11.6004  -18.2730   25.3324 C   0  0  0  0  0  0  0  0  0  0  0  0
   12.4598  -18.6155   26.4882 C   0  0  0  0  0  0  0  0  0  0  0  0
   11.9302  -19.7098   27.3661 C   0  0  0  0  0  0  0  0  0  0  0  0
   12.9409  -19.9399   28.4909 C   0  0  0  0  0  0  0  0  0  0  0  0
   12.3221  -20.8363   29.4498 N   0  0  0  0  0  0  0  0  0  0  0  0
   13.4921  -17.5398   23.8736 C   0  0  0  0  0  0  0  0  0  0  0  0
   13.6852  -18.0148   22.5865 O   0  0  0  0  0  0  0  0  0  0  0  0
   14.4809  -17.3510   24.5852 O   0  0  0  0  0  0  0  0  0  0  0  0
  2  1  1  0
  3  2  1  0
  4  3  1  0
  4  5  1  0
  5  6  1  1
  5  7  1  0
  7  8  2  0
  9  7  1  0
  9 10  1  0
 10 11  1  6
 11 12  1  0
 12 13  2  0
 14 10  1  0
 14 15  2  0
 16 12  1  0
 17 14  1  0
 18 17  1  0
 18 24  1  0
 18 19  1  1
 20 19  1  0
 21 20  1  0
 22 21  1  0
 23 22  1  0
 24 26  2  0
 24 25  1  0
M  END
$$$$
