MDK.pdb
     RDKit          3D

 26 25  0  0  1  0  0  0  0  0999 V2000
    8.2729  -11.6993   21.0300 C   0  0  0  0  0  0  0  0  0  0  0  0
    7.8627  -12.4759   19.4440 S   0  0  0  0  0  0  0  0  0  0  0  0
    7.4012  -14.2012   19.7031 C   0  0  0  0  0  0  0  0  0  0  0  0
    7.6808  -14.6434   21.1296 C   0  0  0  0  0  0  0  0  0  0  0  0
    8.8742  -15.5634   21.1958 C   0  0  2  0  0  0  0  0  0  0  0  0
    8.6501  -16.5999   20.2050 N   0  0  0  0  0  0  0  0  0  0  0  0
    9.1262  -16.1009   22.5315 C   0  0  0  0  0  0  0  0  0  0  0  0
    8.2702  -15.8975   23.4289 O   0  0  0  0  0  0  0  0  0  0  0  0
   10.2802  -16.8440   22.8854 N   0  0  0  0  0  0  0  0  0  0  0  0
   10.5504  -17.3545   24.2106 C   0  0  1  0  0  0  0  0  0  0  0  0
   11.7468  -18.3045   24.1072 C   0  0  0  0  0  0  0  0  0  0  0  0
   12.0114  -19.0234   25.3521 C   0  0  0  0  0  0  0  0  0  0  0  0
   11.2226  -19.2138   26.2947 O   0  0  0  0  0  0  0  0  0  0  0  0
   10.8546  -16.2528   25.1730 C   0  0  0  0  0  0  0  0  0  0  0  0
   11.8677  -15.5364   25.0830 O   0  0  0  0  0  0  0  0  0  0  0  0
   13.2921  -19.5601   25.5069 O   0  0  0  0  0  0  0  0  0  0  0  0
    9.9138  -16.0553   26.2195 N   0  0  0  0  0  0  0  0  0  0  0  0
   10.1126  -15.2204   27.3794 C   0  0  1  0  0  0  0  0  0  0  0  0
    8.8162  -14.5730   27.6941 C   0  0  0  0  0  0  0  0  0  0  0  0
    8.2176  -13.6987   26.6602 C   0  0  0  0  0  0  0  0  0  0  0  0
    6.8947  -13.0976   27.0308 C   0  0  0  0  0  0  0  0  0  0  0  0
    6.4600  -12.1787   25.8879 C   0  0  0  0  0  0  0  0  0  0  0  0
    5.1540  -11.6488   26.2337 N   0  0  0  0  0  0  0  0  0  0  0  0
   10.7424  -15.9291   28.5278 C   0  0  0  0  0  0  0  0  0  0  0  0
   11.2894  -15.2034   29.5736 O   0  0  0  0  0  0  0  0  0  0  0  0
   10.7930  -17.1599   28.5765 O   0  0  0  0  0  0  0  0  0  0  0  0
  2  1  1  0
  3  2  1  0
  4  3  1  0
  4  5  1  0
  5  6  1  6
  5  7  1  0
  7  8  2  0
  9  7  1  0
  9 10  1  0
 10 11  1  6
 11 12  1  0
 12 13  2  0
 14 10  1  0
 14 15  2  0
 16 12  1  0
 17 14  1  0
 18 17  1  0
 18 24  1  0
 18 19  1  1
 20 19  1  0
 21 20  1  0
 22 21  1  0
 23 22  1  0
 24 26  2  0
 24 25  1  0
M  END
$$$$
