MDK.pdb
     RDKit          3D

 26 25  0  0  1  0  0  0  0  0999 V2000
    6.1946  -11.8697   25.0407 C   0  0  0  0  0  0  0  0  0  0  0  0
    7.1136  -12.7862   26.3064 S   0  0  0  0  0  0  0  0  0  0  0  0
    6.4252  -14.4444   26.4891 C   0  0  0  0  0  0  0  0  0  0  0  0
    6.8807  -15.3622   25.3672 C   0  0  0  0  0  0  0  0  0  0  0  0
    8.2636  -14.9985   24.8869 C   0  0  2  0  0  0  0  0  0  0  0  0
    8.1078  -13.8455   24.0195 N   0  0  0  0  0  0  0  0  0  0  0  0
    8.9685  -16.1035   24.2400 C   0  0  0  0  0  0  0  0  0  0  0  0
    9.1317  -17.1686   24.8868 O   0  0  0  0  0  0  0  0  0  0  0  0
    9.4833  -16.0549   22.9202 N   0  0  0  0  0  0  0  0  0  0  0  0
   10.4153  -17.0129   22.3694 C   0  0  1  0  0  0  0  0  0  0  0  0
   10.4675  -16.7920   20.8551 C   0  0  0  0  0  0  0  0  0  0  0  0
    9.1678  -16.9679   20.2096 C   0  0  0  0  0  0  0  0  0  0  0  0
    8.3777  -17.9177   20.3525 O   0  0  0  0  0  0  0  0  0  0  0  0
   11.7800  -16.8528   22.9564 C   0  0  0  0  0  0  0  0  0  0  0  0
   12.2661  -15.7450   23.2462 O   0  0  0  0  0  0  0  0  0  0  0  0
    8.7610  -15.9590   19.3328 O   0  0  0  0  0  0  0  0  0  0  0  0
   12.5146  -18.0496   23.1736 N   0  0  0  0  0  0  0  0  0  0  0  0
   13.6293  -18.1970   24.0779 C   0  0  1  0  0  0  0  0  0  0  0  0
   13.0793  -18.3778   25.4430 C   0  0  0  0  0  0  0  0  0  0  0  0
   12.3650  -19.6418   25.7325 C   0  0  0  0  0  0  0  0  0  0  0  0
   12.0899  -19.8927   27.1852 C   0  0  0  0  0  0  0  0  0  0  0  0
   11.4304  -21.2673   27.3074 C   0  0  0  0  0  0  0  0  0  0  0  0
   11.2832  -21.5505   28.7231 N   0  0  0  0  0  0  0  0  0  0  0  0
   14.6043  -19.2434   23.6626 C   0  0  0  0  0  0  0  0  0  0  0  0
   14.3130  -20.0764   22.5947 O   0  0  0  0  0  0  0  0  0  0  0  0
   15.6781  -19.3932   24.2494 O   0  0  0  0  0  0  0  0  0  0  0  0
  2  1  1  0
  3  2  1  0
  4  3  1  0
  4  5  1  0
  5  6  1  6
  5  7  1  0
  7  8  2  0
  9  7  1  0
  9 10  1  0
 10 11  1  6
 11 12  1  0
 12 13  2  0
 14 10  1  0
 14 15  2  0
 16 12  1  0
 17 14  1  0
 18 17  1  0
 18 24  1  0
 18 19  1  1
 20 19  1  0
 21 20  1  0
 22 21  1  0
 23 22  1  0
 24 26  2  0
 24 25  1  0
M  END
$$$$
