MDK.pdb
     RDKit          3D

 26 25  0  0  1  0  0  0  0  0999 V2000
    8.1008  -12.1094   20.6557 C   0  0  0  0  0  0  0  0  0  0  0  0
    6.7325  -12.7527   19.6555 S   0  0  0  0  0  0  0  0  0  0  0  0
    7.1857  -14.3478   18.9433 C   0  0  0  0  0  0  0  0  0  0  0  0
    8.2299  -15.0575   19.7885 C   0  0  0  0  0  0  0  0  0  0  0  0
    8.6355  -16.3725   19.1708 C   0  0  2  0  0  0  0  0  0  0  0  0
    7.4363  -17.1878   19.1141 N   0  0  0  0  0  0  0  0  0  0  0  0
    9.7373  -17.0324   19.8687 C   0  0  0  0  0  0  0  0  0  0  0  0
    9.4676  -17.7637   20.8546 O   0  0  0  0  0  0  0  0  0  0  0  0
   11.1009  -16.9035   19.5042 N   0  0  0  0  0  0  0  0  0  0  0  0
   12.2058  -17.4445   20.2634 C   0  0  1  0  0  0  0  0  0  0  0  0
   13.3861  -17.6211   19.3040 C   0  0  0  0  0  0  0  0  0  0  0  0
   13.1024  -18.5600   18.2202 C   0  0  0  0  0  0  0  0  0  0  0  0
   13.2872  -18.3840   17.0029 O   0  0  0  0  0  0  0  0  0  0  0  0
   12.5934  -16.5423   21.3896 C   0  0  0  0  0  0  0  0  0  0  0  0
   13.0249  -15.3886   21.2144 O   0  0  0  0  0  0  0  0  0  0  0  0
   12.5633  -19.7962   18.5857 O   0  0  0  0  0  0  0  0  0  0  0  0
   12.4441  -17.0728   22.6993 N   0  0  0  0  0  0  0  0  0  0  0  0
   12.7807  -16.3890   23.9246 C   0  0  1  0  0  0  0  0  0  0  0  0
   12.0265  -17.0391   25.0233 C   0  0  0  0  0  0  0  0  0  0  0  0
   12.2904  -16.5751   26.4042 C   0  0  0  0  0  0  0  0  0  0  0  0
   11.4425  -17.2201   27.4596 C   0  0  0  0  0  0  0  0  0  0  0  0
   11.8858  -16.6728   28.8173 C   0  0  0  0  0  0  0  0  0  0  0  0
   10.9705  -17.1980   29.8135 N   0  0  0  0  0  0  0  0  0  0  0  0
   14.2460  -16.2761   24.1654 C   0  0  0  0  0  0  0  0  0  0  0  0
   15.0876  -17.3194   23.8153 O   0  0  0  0  0  0  0  0  0  0  0  0
   14.7397  -15.2678   24.6747 O   0  0  0  0  0  0  0  0  0  0  0  0
  2  1  1  0
  3  2  1  0
  4  3  1  0
  4  5  1  0
  5  6  1  1
  5  7  1  0
  7  8  2  0
  9  7  1  0
  9 10  1  0
 10 11  1  6
 11 12  1  0
 12 13  2  0
 14 10  1  0
 14 15  2  0
 16 12  1  0
 17 14  1  0
 18 17  1  0
 18 24  1  0
 18 19  1  1
 20 19  1  0
 21 20  1  0
 22 21  1  0
 23 22  1  0
 24 26  2  0
 24 25  1  0
M  END
$$$$
