MDK.pdb
     RDKit          3D

 26 25  0  0  1  0  0  0  0  0999 V2000
    7.4901  -11.6467   26.9736 C   0  0  0  0  0  0  0  0  0  0  0  0
    6.2651  -11.2911   25.6855 S   0  0  0  0  0  0  0  0  0  0  0  0
    6.6961  -12.1647   24.1663 C   0  0  0  0  0  0  0  0  0  0  0  0
    7.1393  -13.5898   24.4510 C   0  0  0  0  0  0  0  0  0  0  0  0
    7.6755  -14.2570   23.2090 C   0  0  2  0  0  0  0  0  0  0  0  0
    6.5676  -14.3397   22.2754 N   0  0  0  0  0  0  0  0  0  0  0  0
    8.3002  -15.5536   23.4639 C   0  0  0  0  0  0  0  0  0  0  0  0
    7.5811  -16.5832   23.4162 O   0  0  0  0  0  0  0  0  0  0  0  0
    9.6748  -15.7297   23.7619 N   0  0  0  0  0  0  0  0  0  0  0  0
   10.2653  -16.9762   24.1948 C   0  0  1  0  0  0  0  0  0  0  0  0
   11.7868  -16.8127   24.1404 C   0  0  0  0  0  0  0  0  0  0  0  0
   12.3019  -16.7348   22.7746 C   0  0  0  0  0  0  0  0  0  0  0  0
   11.9014  -17.3665   21.7809 O   0  0  0  0  0  0  0  0  0  0  0  0
    9.8393  -17.3344   25.5814 C   0  0  0  0  0  0  0  0  0  0  0  0
    9.9949  -16.5751   26.5544 O   0  0  0  0  0  0  0  0  0  0  0  0
   13.3632  -15.8533   22.5534 O   0  0  0  0  0  0  0  0  0  0  0  0
    9.2348  -18.6103   25.7428 N   0  0  0  0  0  0  0  0  0  0  0  0
    8.8162  -19.1874   26.9973 C   0  0  1  0  0  0  0  0  0  0  0  0
    7.9556  -20.3549   26.6896 C   0  0  0  0  0  0  0  0  0  0  0  0
    7.4916  -21.1832   27.8256 C   0  0  0  0  0  0  0  0  0  0  0  0
    6.5908  -22.3217   27.4501 C   0  0  0  0  0  0  0  0  0  0  0  0
    6.2265  -23.0742   28.7309 C   0  0  0  0  0  0  0  0  0  0  0  0
    5.4185  -24.2162   28.3450 N   0  0  0  0  0  0  0  0  0  0  0  0
    9.9413  -19.4793   27.9283 C   0  0  0  0  0  0  0  0  0  0  0  0
    9.8263  -19.1662   29.2730 O   0  0  0  0  0  0  0  0  0  0  0  0
   10.9873  -19.9982   27.5327 O   0  0  0  0  0  0  0  0  0  0  0  0
  2  1  1  0
  3  2  1  0
  4  3  1  0
  4  5  1  0
  5  6  1  6
  5  7  1  0
  7  8  2  0
  9  7  1  0
  9 10  1  0
 10 11  1  1
 11 12  1  0
 12 13  2  0
 14 10  1  0
 14 15  2  0
 16 12  1  0
 17 14  1  0
 18 17  1  0
 18 24  1  0
 18 19  1  6
 20 19  1  0
 21 20  1  0
 22 21  1  0
 23 22  1  0
 24 26  2  0
 24 25  1  0
M  END
$$$$
