MDK.pdb
     RDKit          3D

 26 25  0  0  1  0  0  0  0  0999 V2000
    7.3718  -12.4463   26.5617 C   0  0  0  0  0  0  0  0  0  0  0  0
    6.9946  -11.9281   24.8659 S   0  0  0  0  0  0  0  0  0  0  0  0
    6.8596  -13.3742   23.7946 C   0  0  0  0  0  0  0  0  0  0  0  0
    8.0970  -14.2512   23.8859 C   0  0  0  0  0  0  0  0  0  0  0  0
    8.3868  -14.9310   22.5709 C   0  0  2  0  0  0  0  0  0  0  0  0
    7.2584  -15.8027   22.3009 N   0  0  0  0  0  0  0  0  0  0  0  0
    9.6669  -15.6362   22.5457 C   0  0  0  0  0  0  0  0  0  0  0  0
   10.7181  -14.9736   22.7333 O   0  0  0  0  0  0  0  0  0  0  0  0
    9.8034  -17.0295   22.3239 N   0  0  0  0  0  0  0  0  0  0  0  0
   11.0682  -17.7220   22.2216 C   0  0  1  0  0  0  0  0  0  0  0  0
   11.8151  -17.1485   21.0141 C   0  0  0  0  0  0  0  0  0  0  0  0
   11.6235  -17.9385   19.7992 C   0  0  0  0  0  0  0  0  0  0  0  0
   11.4333  -19.1650   19.7200 O   0  0  0  0  0  0  0  0  0  0  0  0
   11.8898  -17.5525   23.4580 C   0  0  0  0  0  0  0  0  0  0  0  0
   12.8773  -16.7981   23.5160 O   0  0  0  0  0  0  0  0  0  0  0  0
   11.6561  -17.2440   18.5873 O   0  0  0  0  0  0  0  0  0  0  0  0
   11.4837  -18.3088   24.5904 N   0  0  0  0  0  0  0  0  0  0  0  0
   11.7319  -17.9560   25.9674 C   0  0  1  0  0  0  0  0  0  0  0  0
   10.7451  -16.9174   26.3498 C   0  0  0  0  0  0  0  0  0  0  0  0
   10.8246  -16.3682   27.7223 C   0  0  0  0  0  0  0  0  0  0  0  0
    9.8424  -15.2755   28.0227 C   0  0  0  0  0  0  0  0  0  0  0  0
    9.9729  -14.9215   29.5049 C   0  0  0  0  0  0  0  0  0  0  0  0
    9.0204  -13.8620   29.7806 N   0  0  0  0  0  0  0  0  0  0  0  0
   11.7825  -19.1264   26.8868 C   0  0  0  0  0  0  0  0  0  0  0  0
   11.0893  -20.2841   26.5726 O   0  0  0  0  0  0  0  0  0  0  0  0
   12.4315  -19.0957   27.9344 O   0  0  0  0  0  0  0  0  0  0  0  0
  2  1  1  0
  3  2  1  0
  4  3  1  0
  4  5  1  0
  5  6  1  1
  5  7  1  0
  7  8  2  0
  9  7  1  0
  9 10  1  0
 10 11  1  6
 11 12  1  0
 12 13  2  0
 14 10  1  0
 14 15  2  0
 16 12  1  0
 17 14  1  0
 18 17  1  0
 18 24  1  0
 18 19  1  1
 20 19  1  0
 21 20  1  0
 22 21  1  0
 23 22  1  0
 24 26  2  0
 24 25  1  0
M  END
$$$$
