MDK.pdb
     RDKit          3D

 26 25  0  0  1  0  0  0  0  0999 V2000
    8.6942  -12.0495   27.9386 C   0  0  0  0  0  0  0  0  0  0  0  0
    7.6027  -12.2350   26.5030 S   0  0  0  0  0  0  0  0  0  0  0  0
    7.5303  -13.9675   26.0028 C   0  0  0  0  0  0  0  0  0  0  0  0
    6.7281  -14.1441   24.7246 C   0  0  0  0  0  0  0  0  0  0  0  0
    6.6689  -15.5928   24.3088 C   0  0  2  0  0  0  0  0  0  0  0  0
    5.9593  -16.2946   25.3623 N   0  0  0  0  0  0  0  0  0  0  0  0
    7.9792  -16.1742   24.0229 C   0  0  0  0  0  0  0  0  0  0  0  0
    8.5136  -16.9021   24.8970 O   0  0  0  0  0  0  0  0  0  0  0  0
    8.6929  -15.9722   22.8151 N   0  0  0  0  0  0  0  0  0  0  0  0
    9.9356  -16.6297   22.4789 C   0  0  1  0  0  0  0  0  0  0  0  0
   10.2402  -16.3237   21.0098 C   0  0  0  0  0  0  0  0  0  0  0  0
   11.3496  -17.1159   20.4821 C   0  0  0  0  0  0  0  0  0  0  0  0
   12.0179  -16.8885   19.4581 O   0  0  0  0  0  0  0  0  0  0  0  0
   11.0593  -16.1568   23.3428 C   0  0  0  0  0  0  0  0  0  0  0  0
   11.4528  -14.9767   23.3552 O   0  0  0  0  0  0  0  0  0  0  0  0
   11.7047  -18.2580   21.2046 O   0  0  0  0  0  0  0  0  0  0  0  0
   11.6726  -17.1375   24.1682 N   0  0  0  0  0  0  0  0  0  0  0  0
   12.8133  -16.9187   25.0245 C   0  0  1  0  0  0  0  0  0  0  0  0
   12.8086  -17.9811   26.0589 C   0  0  0  0  0  0  0  0  0  0  0  0
   11.6490  -18.0385   26.9774 C   0  0  0  0  0  0  0  0  0  0  0  0
   11.6760  -19.1730   27.9578 C   0  0  0  0  0  0  0  0  0  0  0  0
   10.3563  -19.1571   28.7307 C   0  0  0  0  0  0  0  0  0  0  0  0
   10.3382  -20.3356   29.5774 N   0  0  0  0  0  0  0  0  0  0  0  0
   14.0997  -16.7824   24.2867 C   0  0  0  0  0  0  0  0  0  0  0  0
   15.1633  -16.1111   24.8677 O   0  0  0  0  0  0  0  0  0  0  0  0
   14.2488  -17.2553   23.1580 O   0  0  0  0  0  0  0  0  0  0  0  0
  2  1  1  0
  3  2  1  0
  4  3  1  0
  4  5  1  0
  5  6  1  1
  5  7  1  0
  7  8  2  0
  9  7  1  0
  9 10  1  0
 10 11  1  6
 11 12  1  0
 12 13  2  0
 14 10  1  0
 14 15  2  0
 16 12  1  0
 17 14  1  0
 18 17  1  0
 18 24  1  0
 18 19  1  1
 20 19  1  0
 21 20  1  0
 22 21  1  0
 23 22  1  0
 24 26  2  0
 24 25  1  0
M  END
$$$$
