MDK.pdb
     RDKit          3D

 26 25  0  0  1  0  0  0  0  0999 V2000
    8.2324  -12.2969   18.6245 C   0  0  0  0  0  0  0  0  0  0  0  0
    7.2044  -12.3802   20.1154 S   0  0  0  0  0  0  0  0  0  0  0  0
    6.9071  -14.1027   20.5643 C   0  0  0  0  0  0  0  0  0  0  0  0
    7.6205  -15.0547   19.6192 C   0  0  0  0  0  0  0  0  0  0  0  0
    7.5286  -16.4805   20.1027 C   0  0  2  0  0  0  0  0  0  0  0  0
    6.8841  -16.4336   21.4021 N   0  0  0  0  0  0  0  0  0  0  0  0
    8.8155  -17.1730   20.1328 C   0  0  0  0  0  0  0  0  0  0  0  0
    8.8260  -18.4214   19.9883 O   0  0  0  0  0  0  0  0  0  0  0  0
   10.0634  -16.5254   20.3136 N   0  0  0  0  0  0  0  0  0  0  0  0
   11.3158  -17.2107   20.5405 C   0  0  1  0  0  0  0  0  0  0  0  0
   12.2410  -16.8891   19.3635 C   0  0  0  0  0  0  0  0  0  0  0  0
   13.4997  -17.6307   19.4104 C   0  0  0  0  0  0  0  0  0  0  0  0
   13.7887  -18.5782   20.1625 O   0  0  0  0  0  0  0  0  0  0  0  0
   11.9526  -16.7827   21.8226 C   0  0  0  0  0  0  0  0  0  0  0  0
   12.3045  -15.6103   22.0449 O   0  0  0  0  0  0  0  0  0  0  0  0
   14.4942  -17.2366   18.5115 O   0  0  0  0  0  0  0  0  0  0  0  0
   12.1429  -17.7976   22.7988 N   0  0  0  0  0  0  0  0  0  0  0  0
   12.7210  -17.6052   24.1069 C   0  0  1  0  0  0  0  0  0  0  0  0
   12.2281  -18.6971   24.9806 C   0  0  0  0  0  0  0  0  0  0  0  0
   12.6920  -18.7126   26.3864 C   0  0  0  0  0  0  0  0  0  0  0  0
   12.2100  -19.8785   27.1972 C   0  0  0  0  0  0  0  0  0  0  0  0
   12.6245  -19.6430   28.6505 C   0  0  0  0  0  0  0  0  0  0  0  0
   12.2493  -20.8258   29.4029 N   0  0  0  0  0  0  0  0  0  0  0  0
   14.2020  -17.4492   24.0911 C   0  0  0  0  0  0  0  0  0  0  0  0
   14.8028  -16.4658   24.8600 O   0  0  0  0  0  0  0  0  0  0  0  0
   14.9197  -18.1790   23.4041 O   0  0  0  0  0  0  0  0  0  0  0  0
  2  1  1  0
  3  2  1  0
  4  3  1  0
  4  5  1  0
  5  6  1  1
  5  7  1  0
  7  8  2  0
  9  7  1  0
  9 10  1  0
 10 11  1  6
 11 12  1  0
 12 13  2  0
 14 10  1  0
 14 15  2  0
 16 12  1  0
 17 14  1  0
 18 17  1  0
 18 24  1  0
 18 19  1  1
 20 19  1  0
 21 20  1  0
 22 21  1  0
 23 22  1  0
 24 26  2  0
 24 25  1  0
M  END
$$$$
