MDK.pdb
     RDKit          3D

 26 25  0  0  1  0  0  0  0  0999 V2000
    7.8115  -12.6740   17.8830 C   0  0  0  0  0  0  0  0  0  0  0  0
    8.6042  -12.1317   19.4206 S   0  0  0  0  0  0  0  0  0  0  0  0
    8.1246  -13.2191   20.7787 C   0  0  0  0  0  0  0  0  0  0  0  0
    7.8888  -14.6404   20.2963 C   0  0  0  0  0  0  0  0  0  0  0  0
    7.4023  -15.5270   21.4154 C   0  0  2  0  0  0  0  0  0  0  0  0
    6.6931  -14.6660   22.3438 N   0  0  0  0  0  0  0  0  0  0  0  0
    8.4658  -16.2979   22.0566 C   0  0  0  0  0  0  0  0  0  0  0  0
    8.8826  -17.3346   21.4812 O   0  0  0  0  0  0  0  0  0  0  0  0
    9.0651  -15.9510   23.2933 N   0  0  0  0  0  0  0  0  0  0  0  0
    9.9290  -16.8227   24.0573 C   0  0  1  0  0  0  0  0  0  0  0  0
   11.3117  -16.1679   24.1194 C   0  0  0  0  0  0  0  0  0  0  0  0
   12.1702  -16.5446   22.9978 C   0  0  0  0  0  0  0  0  0  0  0  0
   12.3632  -17.6876   22.5472 O   0  0  0  0  0  0  0  0  0  0  0  0
    9.4054  -17.0426   25.4393 C   0  0  0  0  0  0  0  0  0  0  0  0
    9.3669  -16.1443   26.2991 O   0  0  0  0  0  0  0  0  0  0  0  0
   12.8533  -15.5091   22.3549 O   0  0  0  0  0  0  0  0  0  0  0  0
    8.9430  -18.3534   25.7346 N   0  0  0  0  0  0  0  0  0  0  0  0
    8.4558  -18.8019   27.0166 C   0  0  1  0  0  0  0  0  0  0  0  0
    7.7932  -20.1125   26.8117 C   0  0  0  0  0  0  0  0  0  0  0  0
    7.3322  -20.8432   28.0139 C   0  0  0  0  0  0  0  0  0  0  0  0
    6.7932  -22.2173   27.7492 C   0  0  0  0  0  0  0  0  0  0  0  0
    6.2459  -22.7687   29.0667 C   0  0  0  0  0  0  0  0  0  0  0  0
    5.7908  -24.1229   28.8115 N   0  0  0  0  0  0  0  0  0  0  0  0
    9.4908  -18.7953   28.0874 C   0  0  0  0  0  0  0  0  0  0  0  0
   10.8241  -18.9854   27.7627 O   0  0  0  0  0  0  0  0  0  0  0  0
    9.1925  -18.6237   29.2712 O   0  0  0  0  0  0  0  0  0  0  0  0
  2  1  1  0
  3  2  1  0
  4  3  1  0
  4  5  1  0
  5  6  1  1
  5  7  1  0
  7  8  2  0
  9  7  1  0
  9 10  1  0
 10 11  1  1
 11 12  1  0
 12 13  2  0
 14 10  1  0
 14 15  2  0
 16 12  1  0
 17 14  1  0
 18 17  1  0
 18 24  1  0
 18 19  1  6
 20 19  1  0
 21 20  1  0
 22 21  1  0
 23 22  1  0
 24 26  2  0
 24 25  1  0
M  END
$$$$
