MDK.pdb
     RDKit          3D

 26 25  0  0  1  0  0  0  0  0999 V2000
    7.5453  -11.1468   26.1571 C   0  0  0  0  0  0  0  0  0  0  0  0
    6.3180  -12.2222   26.9468 S   0  0  0  0  0  0  0  0  0  0  0  0
    5.9188  -13.6056   25.8588 C   0  0  0  0  0  0  0  0  0  0  0  0
    7.1413  -14.4631   25.5784 C   0  0  0  0  0  0  0  0  0  0  0  0
    6.8187  -15.5840   24.6219 C   0  0  2  0  0  0  0  0  0  0  0  0
    5.8471  -16.4291   25.2912 N   0  0  0  0  0  0  0  0  0  0  0  0
    7.9950  -16.3228   24.1671 C   0  0  0  0  0  0  0  0  0  0  0  0
    8.3617  -17.3275   24.8271 O   0  0  0  0  0  0  0  0  0  0  0  0
    8.7553  -15.9806   23.0208 N   0  0  0  0  0  0  0  0  0  0  0  0
    9.9707  -16.6499   22.6152 C   0  0  1  0  0  0  0  0  0  0  0  0
   10.3599  -16.1101   21.2361 C   0  0  0  0  0  0  0  0  0  0  0  0
   11.5175  -16.7947   20.6634 C   0  0  0  0  0  0  0  0  0  0  0  0
   12.5954  -16.2850   20.3094 O   0  0  0  0  0  0  0  0  0  0  0  0
   11.0799  -16.4134   23.5879 C   0  0  0  0  0  0  0  0  0  0  0  0
   11.5356  -15.2819   23.8324 O   0  0  0  0  0  0  0  0  0  0  0  0
   11.4079  -18.1771   20.4922 O   0  0  0  0  0  0  0  0  0  0  0  0
   11.6030  -17.5647   24.2361 N   0  0  0  0  0  0  0  0  0  0  0  0
   12.6095  -17.5604   25.2701 C   0  0  1  0  0  0  0  0  0  0  0  0
   12.1003  -18.3804   26.3957 C   0  0  0  0  0  0  0  0  0  0  0  0
   12.9816  -18.5516   27.5728 C   0  0  0  0  0  0  0  0  0  0  0  0
   12.4165  -19.4100   28.6648 C   0  0  0  0  0  0  0  0  0  0  0  0
   13.3607  -19.3249   29.8651 C   0  0  0  0  0  0  0  0  0  0  0  0
   12.7509  -20.0752   30.9474 N   0  0  0  0  0  0  0  0  0  0  0  0
   13.9649  -17.9472   24.7894 C   0  0  0  0  0  0  0  0  0  0  0  0
   14.1204  -19.0589   23.9774 O   0  0  0  0  0  0  0  0  0  0  0  0
   14.9673  -17.2990   25.0972 O   0  0  0  0  0  0  0  0  0  0  0  0
  2  1  1  0
  3  2  1  0
  4  3  1  0
  4  5  1  0
  5  6  1  1
  5  7  1  0
  7  8  2  0
  9  7  1  0
  9 10  1  0
 10 11  1  6
 11 12  1  0
 12 13  2  0
 14 10  1  0
 14 15  2  0
 16 12  1  0
 17 14  1  0
 18 17  1  0
 18 24  1  0
 18 19  1  1
 20 19  1  0
 21 20  1  0
 22 21  1  0
 23 22  1  0
 24 26  2  0
 24 25  1  0
M  END
$$$$
