WRK.pdb
     RDKit          3D

 35 36  0  0  1  0  0  0  0  0999 V2000
   26.6083  -19.3770  -12.8268 N   0  0  0  0  0  0  0  0  0  0  0  0
   26.0946  -20.6460  -12.4427 C   0  0  1  0  0  0  0  0  0  0  0  0
   25.2226  -20.6793  -11.2415 C   0  0  0  0  0  0  0  0  0  0  0  0
   25.8499  -19.9136  -10.1451 C   0  0  0  0  0  0  0  0  0  0  0  0
   26.3902  -18.6403  -10.2085 C   0  0  0  0  0  0  0  0  0  0  0  0
   26.8486  -18.2767   -9.0019 N   0  0  0  0  0  0  0  0  0  0  0  0
   26.6302  -19.2735   -8.1299 C   0  0  0  0  0  0  0  0  0  0  0  0
   26.8978  -19.4357   -6.7923 C   0  0  0  0  0  0  0  0  0  0  0  0
   26.5680  -20.5959   -6.1093 C   0  0  0  0  0  0  0  0  0  0  0  0
   25.9493  -21.6312   -6.7852 C   0  0  0  0  0  0  0  0  0  0  0  0
   25.6807  -21.4654   -8.1331 C   0  0  0  0  0  0  0  0  0  0  0  0
   26.0022  -20.3114   -8.8352 C   0  0  0  0  0  0  0  0  0  0  0  0
   25.4783  -21.3130  -13.6275 C   0  0  0  0  0  0  0  0  0  0  0  0
   25.1577  -20.6134  -14.6279 O   0  0  0  0  0  0  0  0  0  0  0  0
   29.0137  -26.7205  -15.9008 N   0  0  0  0  0  0  0  0  0  0  0  0
   28.8020  -26.6046  -17.3186 C   0  0  0  0  0  0  0  0  0  0  0  0
   28.7810  -27.6805  -18.0221 N   0  0  0  0  0  0  0  0  0  0  0  0
   28.6256  -25.3411  -17.8979 N   0  0  0  0  0  0  0  0  0  0  0  0
   28.4566  -24.1610  -16.9963 C   0  0  0  0  0  0  0  0  0  0  0  0
   27.1075  -24.2431  -16.4348 C   0  0  0  0  0  0  0  0  0  0  0  0
   26.5105  -23.2356  -15.5689 C   0  0  0  0  0  0  0  0  0  0  0  0
   25.1363  -23.3366  -15.0224 C   0  0  2  0  0  0  0  0  0  0  0  0
   25.2391  -22.6914  -13.6760 N   0  0  0  0  0  0  0  0  0  0  0  0
   24.7027  -24.7361  -14.7597 C   0  0  0  0  0  0  0  0  0  0  0  0
   24.8889  -25.3478  -13.7019 O   0  0  0  0  0  0  0  0  0  0  0  0
   28.6145  -27.6786  -19.0464 N   0  0  0  0  0  0  0  0  0  0  0  0
   24.0019  -25.5152  -15.7711 C   0  0  1  0  0  0  0  0  0  0  0  0
   22.6330  -25.9751  -15.5447 C   0  0  0  0  0  0  0  0  0  0  0  0
   21.7239  -24.8158  -15.1933 C   0  0  0  0  0  0  0  0  0  0  0  0
   21.1592  -25.0238  -13.8345 C   0  0  0  0  0  0  0  0  0  0  0  0
   20.1563  -23.9872  -13.4035 C   0  0  0  0  0  0  0  0  0  0  0  0
   19.6457  -24.1469  -12.0138 N   0  0  0  0  0  0  0  0  0  0  0  0
   18.6604  -23.0895  -11.7899 C   0  0  0  0  0  0  0  0  0  0  0  0
   22.1901  -26.6504  -16.7924 O   0  0  0  0  0  0  0  0  0  0  0  0
   21.5235  -27.8643  -16.7487 O   0  0  0  0  0  0  0  0  0  0  0  0
  2  1  1  6
  3  2  1  0
  4  3  1  0
  4  5  2  0
  6  5  1  0
  7 12  2  0
  7  6  1  0
  8  7  1  0
  9 10  1  0
  9  8  2  0
 10 11  2  0
 11 12  1  0
 12  4  1  0
 13  2  1  0
 14 13  2  0
 15 16  1  0
 16 17  2  0
 18 16  1  0
 18 19  1  0
 20 21  1  0
 20 19  1  0
 22 21  1  1
 22 23  1  0
 22 24  1  0
 23 13  1  0
 24 25  2  0
 26 24  1  0
 26 27  1  0
 27 33  1  0
 27 28  1  6
 29 28  1  0
 30 29  1  0
 31 30  1  0
 31 32  1  0
 33 34  1  0
 35 33  2  0
M  END
$$$$
