WRK.pdb
     RDKit          3D

 35 36  0  0  1  0  0  0  0  0999 V2000
   19.2733  -21.0432  -15.0231 N   0  0  0  0  0  0  0  0  0  0  0  0
   20.4302  -20.2524  -14.7820 C   0  0  1  0  0  0  0  0  0  0  0  0
   20.2201  -18.9488  -14.1029 C   0  0  0  0  0  0  0  0  0  0  0  0
   19.4941  -18.0272  -15.0003 C   0  0  0  0  0  0  0  0  0  0  0  0
   18.1344  -17.7661  -15.0188 C   0  0  0  0  0  0  0  0  0  0  0  0
   17.8555  -16.8564  -15.9637 N   0  0  0  0  0  0  0  0  0  0  0  0
   18.9931  -16.5003  -16.5805 C   0  0  0  0  0  0  0  0  0  0  0  0
   19.2822  -15.6296  -17.6031 C   0  0  0  0  0  0  0  0  0  0  0  0
   20.5735  -15.4444  -18.0716 C   0  0  0  0  0  0  0  0  0  0  0  0
   21.6135  -16.1534  -17.4995 C   0  0  0  0  0  0  0  0  0  0  0  0
   21.3197  -17.0301  -16.4691 C   0  0  0  0  0  0  0  0  0  0  0  0
   20.0337  -17.2294  -15.9850 C   0  0  0  0  0  0  0  0  0  0  0  0
   21.4769  -21.0890  -14.1241 C   0  0  0  0  0  0  0  0  0  0  0  0
   21.1842  -21.7240  -13.0732 O   0  0  0  0  0  0  0  0  0  0  0  0
   25.8571  -26.0472  -16.1916 N   0  0  0  0  0  0  0  0  0  0  0  0
   24.8119  -25.5961  -17.0706 C   0  0  0  0  0  0  0  0  0  0  0  0
   23.9408  -26.4522  -17.4719 N   0  0  0  0  0  0  0  0  0  0  0  0
   24.7635  -24.2532  -17.4672 N   0  0  0  0  0  0  0  0  0  0  0  0
   25.8251  -23.3249  -16.9720 C   0  0  0  0  0  0  0  0  0  0  0  0
   25.2017  -22.4605  -15.9690 C   0  0  0  0  0  0  0  0  0  0  0  0
   24.3360  -22.9309  -14.8964 C   0  0  0  0  0  0  0  0  0  0  0  0
   23.7540  -22.0403  -13.8643 C   0  0  2  0  0  0  0  0  0  0  0  0
   22.7787  -21.1995  -14.6268 N   0  0  0  0  0  0  0  0  0  0  0  0
   24.7350  -21.0827  -13.2843 C   0  0  0  0  0  0  0  0  0  0  0  0
   24.8051  -19.8820  -13.5694 O   0  0  0  0  0  0  0  0  0  0  0  0
   23.1731  -26.2078  -18.1262 N   0  0  0  0  0  0  0  0  0  0  0  0
   25.7215  -21.5098  -12.3018 C   0  0  2  0  0  0  0  0  0  0  0  0
   26.8791  -20.6728  -11.9921 C   0  0  0  0  0  0  0  0  0  0  0  0
   27.8579  -21.4108  -11.1025 C   0  0  0  0  0  0  0  0  0  0  0  0
   29.0245  -20.5354  -10.8172 C   0  0  0  0  0  0  0  0  0  0  0  0
   30.0674  -21.1478   -9.9207 C   0  0  0  0  0  0  0  0  0  0  0  0
   31.1795  -20.2351   -9.5364 N   0  0  0  0  0  0  0  0  0  0  0  0
   32.1373  -21.0221   -8.7602 C   0  0  0  0  0  0  0  0  0  0  0  0
   27.5029  -20.2982  -13.2879 O   0  0  0  0  0  0  0  0  0  0  0  0
   27.9310  -19.0019  -13.5255 O   0  0  0  0  0  0  0  0  0  0  0  0
  2  1  1  1
  3  2  1  0
  4  3  1  0
  4  5  2  0
  6  5  1  0
  7 12  2  0
  7  6  1  0
  8  7  1  0
  9 10  1  0
  9  8  2  0
 10 11  2  0
 11 12  1  0
 12  4  1  0
 13  2  1  0
 14 13  2  0
 15 16  1  0
 16 17  2  0
 18 16  1  0
 18 19  1  0
 20 21  1  0
 20 19  1  0
 22 21  1  6
 22 23  1  0
 22 24  1  0
 23 13  1  0
 24 25  2  0
 26 24  1  0
 26 27  1  0
 27 33  1  0
 27 28  1  1
 29 28  1  0
 30 29  1  0
 31 30  1  0
 31 32  1  0
 33 34  1  0
 35 33  2  0
M  END
$$$$
