WRK.pdb
     RDKit          3D

 35 36  0  0  1  0  0  0  0  0999 V2000
   27.7937  -16.5145  -21.9221 N   0  0  0  0  0  0  0  0  0  0  0  0
   26.6563  -16.4774  -21.0697 C   0  0  1  0  0  0  0  0  0  0  0  0
   25.3527  -16.1619  -21.7064 C   0  0  0  0  0  0  0  0  0  0  0  0
   25.3532  -14.7641  -22.1841 C   0  0  0  0  0  0  0  0  0  0  0  0
   26.1447  -14.2139  -23.1781 C   0  0  0  0  0  0  0  0  0  0  0  0
   25.8410  -12.9178  -23.3404 N   0  0  0  0  0  0  0  0  0  0  0  0
   24.8662  -12.5837  -22.4803 C   0  0  0  0  0  0  0  0  0  0  0  0
   24.1951  -11.4137  -22.2193 C   0  0  0  0  0  0  0  0  0  0  0  0
   23.2091  -11.3295  -21.2488 C   0  0  0  0  0  0  0  0  0  0  0  0
   22.8812  -12.4527  -20.5123 C   0  0  0  0  0  0  0  0  0  0  0  0
   23.5587  -13.6305  -20.7772 C   0  0  0  0  0  0  0  0  0  0  0  0
   24.5487  -13.7359  -21.7451 C   0  0  0  0  0  0  0  0  0  0  0  0
   26.6139  -17.7190  -20.2419 C   0  0  0  0  0  0  0  0  0  0  0  0
   26.9207  -18.8219  -20.7735 O   0  0  0  0  0  0  0  0  0  0  0  0
   29.0799  -23.9904  -16.9867 N   0  0  0  0  0  0  0  0  0  0  0  0
   27.7985  -23.7391  -16.3841 C   0  0  0  0  0  0  0  0  0  0  0  0
   27.1073  -24.7445  -15.9790 N   0  0  0  0  0  0  0  0  0  0  0  0
   27.3343  -22.4237  -16.2519 N   0  0  0  0  0  0  0  0  0  0  0  0
   28.2372  -21.3048  -16.6604 C   0  0  0  0  0  0  0  0  0  0  0  0
   27.5722  -20.0586  -16.2770 C   0  0  0  0  0  0  0  0  0  0  0  0
   27.2604  -18.9722  -17.1956 C   0  0  0  0  0  0  0  0  0  0  0  0
   26.1566  -19.0271  -18.1833 C   0  0  2  0  0  0  0  0  0  0  0  0
   26.2453  -17.7116  -18.8915 N   0  0  0  0  0  0  0  0  0  0  0  0
   24.8042  -19.0529  -17.5622 C   0  0  0  0  0  0  0  0  0  0  0  0
   24.3532  -18.1799  -16.8123 O   0  0  0  0  0  0  0  0  0  0  0  0
   26.2328  -24.6404  -15.4300 N   0  0  0  0  0  0  0  0  0  0  0  0
   23.8804  -20.1529  -17.8023 C   0  0  2  0  0  0  0  0  0  0  0  0
   22.5558  -20.1652  -17.1845 C   0  0  0  0  0  0  0  0  0  0  0  0
   21.6898  -21.2544  -17.7827 C   0  0  0  0  0  0  0  0  0  0  0  0
   20.3495  -21.2294  -17.1413 C   0  0  0  0  0  0  0  0  0  0  0  0
   19.3433  -22.1709  -17.7474 C   0  0  0  0  0  0  0  0  0  0  0  0
   17.9676  -22.0655  -17.1871 N   0  0  0  0  0  0  0  0  0  0  0  0
   17.1338  -23.0321  -17.9010 C   0  0  0  0  0  0  0  0  0  0  0  0
   22.7584  -20.3749  -15.7272 O   0  0  0  0  0  0  0  0  0  0  0  0
   21.8975  -19.8121  -14.7988 O   0  0  0  0  0  0  0  0  0  0  0  0
  2  1  1  6
  3  2  1  0
  4  3  1  0
  4  5  2  0
  6  5  1  0
  7 12  2  0
  7  6  1  0
  8  7  1  0
  9 10  1  0
  9  8  2  0
 10 11  2  0
 11 12  1  0
 12  4  1  0
 13  2  1  0
 14 13  2  0
 15 16  1  0
 16 17  2  0
 18 16  1  0
 18 19  1  0
 20 21  1  0
 20 19  1  0
 22 21  1  1
 22 23  1  0
 22 24  1  0
 23 13  1  0
 24 25  2  0
 26 24  1  0
 26 27  1  0
 27 33  1  0
 27 28  1  6
 29 28  1  0
 30 29  1  0
 31 30  1  0
 31 32  1  0
 33 34  1  0
 35 33  2  0
M  END
$$$$
