WRK.pdb
     RDKit          3D

 35 36  0  0  1  0  0  0  0  0999 V2000
   24.5157  -19.3872   -8.8311 N   0  0  0  0  0  0  0  0  0  0  0  0
   25.6892  -20.0800   -9.2371 C   0  0  1  0  0  0  0  0  0  0  0  0
   26.0702  -21.2744   -8.4417 C   0  0  0  0  0  0  0  0  0  0  0  0
   26.3473  -20.8796   -7.0456 C   0  0  0  0  0  0  0  0  0  0  0  0
   25.5146  -21.0225   -5.9486 C   0  0  0  0  0  0  0  0  0  0  0  0
   26.1258  -20.5636   -4.8467 N   0  0  0  0  0  0  0  0  0  0  0  0
   27.3475  -20.1158   -5.1759 C   0  0  0  0  0  0  0  0  0  0  0  0
   28.3727  -19.5496   -4.4578 C   0  0  0  0  0  0  0  0  0  0  0  0
   29.5618  -19.1579   -5.0527 C   0  0  0  0  0  0  0  0  0  0  0  0
   29.7340  -19.3374   -6.4127 C   0  0  0  0  0  0  0  0  0  0  0  0
   28.6996  -19.9082   -7.1342 C   0  0  0  0  0  0  0  0  0  0  0  0
   27.5014  -20.3079   -6.5574 C   0  0  0  0  0  0  0  0  0  0  0  0
   25.6234  -20.3542  -10.7030 C   0  0  0  0  0  0  0  0  0  0  0  0
   24.4994  -20.5598  -11.2392 O   0  0  0  0  0  0  0  0  0  0  0  0
   28.3605  -16.8749  -17.0901 N   0  0  0  0  0  0  0  0  0  0  0  0
   28.6385  -18.1681  -17.6547 C   0  0  0  0  0  0  0  0  0  0  0  0
   29.5701  -18.2614  -18.5357 N   0  0  0  0  0  0  0  0  0  0  0  0
   27.9002  -19.2847  -17.2408 N   0  0  0  0  0  0  0  0  0  0  0  0
   27.1800  -19.2180  -15.9328 C   0  0  0  0  0  0  0  0  0  0  0  0
   28.1581  -19.5336  -14.8908 C   0  0  0  0  0  0  0  0  0  0  0  0
   27.8369  -19.7026  -13.4803 C   0  0  0  0  0  0  0  0  0  0  0  0
   26.5723  -20.3049  -12.9954 C   0  0  2  0  0  0  0  0  0  0  0  0
   26.7639  -20.3934  -11.5138 N   0  0  0  0  0  0  0  0  0  0  0  0
   26.3678  -21.7063  -13.4535 C   0  0  0  0  0  0  0  0  0  0  0  0
   27.1020  -22.6586  -13.1672 O   0  0  0  0  0  0  0  0  0  0  0  0
   29.8007  -19.1514  -19.0172 N   0  0  0  0  0  0  0  0  0  0  0  0
   25.2443  -22.0689  -14.3063 C   0  0  2  0  0  0  0  0  0  0  0  0
   25.0650  -23.4464  -14.7611 C   0  0  0  0  0  0  0  0  0  0  0  0
   23.6380  -23.6874  -15.2079 C   0  0  0  0  0  0  0  0  0  0  0  0
   22.7056  -23.2974  -14.1183 C   0  0  0  0  0  0  0  0  0  0  0  0
   21.2491  -23.5238  -14.4242 C   0  0  0  0  0  0  0  0  0  0  0  0
   20.3035  -23.0005  -13.3999 N   0  0  0  0  0  0  0  0  0  0  0  0
   18.9504  -23.3095  -13.8612 C   0  0  0  0  0  0  0  0  0  0  0  0
   26.0242  -23.6640  -15.8753 O   0  0  0  0  0  0  0  0  0  0  0  0
   26.5814  -24.9119  -16.1037 O   0  0  0  0  0  0  0  0  0  0  0  0
  2  1  1  1
  3  2  1  0
  4  3  1  0
  4  5  2  0
  6  5  1  0
  7 12  2  0
  7  6  1  0
  8  7  1  0
  9 10  1  0
  9  8  2  0
 10 11  2  0
 11 12  1  0
 12  4  1  0
 13  2  1  0
 14 13  2  0
 15 16  1  0
 16 17  2  0
 18 16  1  0
 18 19  1  0
 20 21  1  0
 20 19  1  0
 22 21  1  6
 22 23  1  0
 22 24  1  0
 23 13  1  0
 24 25  2  0
 26 24  1  0
 26 27  1  0
 27 33  1  0
 27 28  1  1
 29 28  1  0
 30 29  1  0
 31 30  1  0
 31 32  1  0
 33 34  1  0
 35 33  2  0
M  END
$$$$
