WRK.pdb
     RDKit          3D

 35 36  0  0  1  0  0  0  0  0999 V2000
   23.8383  -19.8590  -14.3616 N   0  0  0  0  0  0  0  0  0  0  0  0
   24.0275  -21.2005  -13.9298 C   0  0  1  0  0  0  0  0  0  0  0  0
   22.9568  -21.7895  -13.0866 C   0  0  0  0  0  0  0  0  0  0  0  0
   23.0097  -21.2077  -11.7299 C   0  0  0  0  0  0  0  0  0  0  0  0
   21.9650  -20.6541  -11.0093 C   0  0  0  0  0  0  0  0  0  0  0  0
   22.4012  -20.2496   -9.8075 N   0  0  0  0  0  0  0  0  0  0  0  0
   23.7124  -20.5170   -9.7029 C   0  0  0  0  0  0  0  0  0  0  0  0
   24.6433  -20.3136   -8.7133 C   0  0  0  0  0  0  0  0  0  0  0  0
   25.9705  -20.6847   -8.8613 C   0  0  0  0  0  0  0  0  0  0  0  0
   26.3837  -21.2799  -10.0388 C   0  0  0  0  0  0  0  0  0  0  0  0
   25.4439  -21.4839  -11.0345 C   0  0  0  0  0  0  0  0  0  0  0  0
   24.1100  -21.1201  -10.9059 C   0  0  0  0  0  0  0  0  0  0  0  0
   24.3818  -22.0552  -15.1012 C   0  0  0  0  0  0  0  0  0  0  0  0
   23.8018  -21.8558  -16.2044 O   0  0  0  0  0  0  0  0  0  0  0  0
   29.2583  -28.2670  -16.4761 N   0  0  0  0  0  0  0  0  0  0  0  0
   28.3099  -28.4563  -17.5405 C   0  0  0  0  0  0  0  0  0  0  0  0
   27.8167  -29.6305  -17.7162 N   0  0  0  0  0  0  0  0  0  0  0  0
   27.9468  -27.3745  -18.3536 N   0  0  0  0  0  0  0  0  0  0  0  0
   28.0121  -25.9967  -17.7779 C   0  0  0  0  0  0  0  0  0  0  0  0
   27.0881  -25.9645  -16.6434 C   0  0  0  0  0  0  0  0  0  0  0  0
   26.7010  -24.7566  -15.9275 C   0  0  0  0  0  0  0  0  0  0  0  0
   25.4364  -24.0256  -16.1797 C   0  0  2  0  0  0  0  0  0  0  0  0
   25.3367  -23.0762  -15.0272 N   0  0  0  0  0  0  0  0  0  0  0  0
   24.2250  -24.8860  -16.0910 C   0  0  0  0  0  0  0  0  0  0  0  0
   23.6436  -25.1832  -15.0415 O   0  0  0  0  0  0  0  0  0  0  0  0
   27.1664  -29.8561  -18.4930 N   0  0  0  0  0  0  0  0  0  0  0  0
   23.6155  -25.4623  -17.2816 C   0  0  1  0  0  0  0  0  0  0  0  0
   22.3580  -26.2023  -17.1941 C   0  0  0  0  0  0  0  0  0  0  0  0
   21.2364  -25.3078  -16.7085 C   0  0  0  0  0  0  0  0  0  0  0  0
   19.9417  -26.0271  -16.8299 C   0  0  0  0  0  0  0  0  0  0  0  0
   19.2731  -26.3466  -15.5195 C   0  0  0  0  0  0  0  0  0  0  0  0
   18.3069  -27.4788  -15.5670 N   0  0  0  0  0  0  0  0  0  0  0  0
   17.7259  -27.6089  -14.2311 C   0  0  0  0  0  0  0  0  0  0  0  0
   22.0738  -26.7369  -18.5514 O   0  0  0  0  0  0  0  0  0  0  0  0
   22.7686  -26.2781  -19.6589 O   0  0  0  0  0  0  0  0  0  0  0  0
  2  1  1  6
  3  2  1  0
  4  3  1  0
  4  5  2  0
  6  5  1  0
  7 12  2  0
  7  6  1  0
  8  7  1  0
  9 10  1  0
  9  8  2  0
 10 11  2  0
 11 12  1  0
 12  4  1  0
 13  2  1  0
 14 13  2  0
 15 16  1  0
 16 17  2  0
 18 16  1  0
 18 19  1  0
 20 21  1  0
 20 19  1  0
 22 21  1  1
 22 23  1  0
 22 24  1  0
 23 13  1  0
 24 25  2  0
 26 24  1  0
 26 27  1  0
 27 33  1  0
 27 28  1  6
 29 28  1  0
 30 29  1  0
 31 30  1  0
 31 32  1  0
 33 34  1  0
 35 33  2  0
M  END
$$$$
