WRK.pdb
     RDKit          3D

 35 36  0  0  1  0  0  0  0  0999 V2000
   26.3868  -21.4519  -10.0127 N   0  0  0  0  0  0  0  0  0  0  0  0
   25.2485  -21.2094   -9.1958 C   0  0  1  0  0  0  0  0  0  0  0  0
   25.5057  -20.8639   -7.7749 C   0  0  0  0  0  0  0  0  0  0  0  0
   26.9610  -20.7984   -7.5303 C   0  0  0  0  0  0  0  0  0  0  0  0
   27.9783  -21.1485   -8.4020 C   0  0  0  0  0  0  0  0  0  0  0  0
   29.1698  -20.9311   -7.8262 N   0  0  0  0  0  0  0  0  0  0  0  0
   28.9784  -20.4445   -6.5901 C   0  0  0  0  0  0  0  0  0  0  0  0
   29.8295  -20.0609   -5.5822 C   0  0  0  0  0  0  0  0  0  0  0  0
   29.3656  -19.5864   -4.3653 C   0  0  0  0  0  0  0  0  0  0  0  0
   28.0039  -19.4914   -4.1461 C   0  0  0  0  0  0  0  0  0  0  0  0
   27.1482  -19.8784   -5.1632 C   0  0  0  0  0  0  0  0  0  0  0  0
   27.5925  -20.3556   -6.3892 C   0  0  0  0  0  0  0  0  0  0  0  0
   24.3454  -20.2352   -9.8769 C   0  0  0  0  0  0  0  0  0  0  0  0
   24.6853  -19.0211   -9.9365 O   0  0  0  0  0  0  0  0  0  0  0  0
   25.8090  -24.0089  -14.8947 N   0  0  0  0  0  0  0  0  0  0  0  0
   26.5794  -22.9152  -15.4227 C   0  0  0  0  0  0  0  0  0  0  0  0
   27.8160  -23.1217  -15.7073 N   0  0  0  0  0  0  0  0  0  0  0  0
   25.9773  -21.6646  -15.6139 N   0  0  0  0  0  0  0  0  0  0  0  0
   24.6319  -21.4213  -15.0099 C   0  0  0  0  0  0  0  0  0  0  0  0
   24.8562  -20.9850  -13.6310 C   0  0  0  0  0  0  0  0  0  0  0  0
   24.0086  -21.3449  -12.5026 C   0  0  0  0  0  0  0  0  0  0  0  0
   22.9757  -20.4457  -11.9354 C   0  0  2  0  0  0  0  0  0  0  0  0
   23.1287  -20.6142  -10.4563 N   0  0  0  0  0  0  0  0  0  0  0  0
   21.5830  -20.8730  -12.2415 C   0  0  0  0  0  0  0  0  0  0  0  0
   20.9213  -20.4863  -13.2112 O   0  0  0  0  0  0  0  0  0  0  0  0
   28.4209  -22.3982  -16.1405 N   0  0  0  0  0  0  0  0  0  0  0  0
   20.8729  -21.8131  -11.3853 C   0  0  1  0  0  0  0  0  0  0  0  0
   19.4757  -22.1538  -11.6467 C   0  0  0  0  0  0  0  0  0  0  0  0
   19.0427  -23.3404  -10.8109 C   0  0  0  0  0  0  0  0  0  0  0  0
   19.2742  -23.0440   -9.3732 C   0  0  0  0  0  0  0  0  0  0  0  0
   18.9965  -24.1925   -8.4404 C   0  0  0  0  0  0  0  0  0  0  0  0
   19.1495  -23.8773   -6.9931 N   0  0  0  0  0  0  0  0  0  0  0  0
   18.9369  -25.1213   -6.2539 C   0  0  0  0  0  0  0  0  0  0  0  0
   18.6682  -20.9468  -11.3308 O   0  0  0  0  0  0  0  0  0  0  0  0
   19.1773  -19.9373  -10.5297 O   0  0  0  0  0  0  0  0  0  0  0  0
  2  1  1  6
  3  2  1  0
  4  3  1  0
  4  5  2  0
  6  5  1  0
  7 12  2  0
  7  6  1  0
  8  7  1  0
  9 10  1  0
  9  8  2  0
 10 11  2  0
 11 12  1  0
 12  4  1  0
 13  2  1  0
 14 13  2  0
 15 16  1  0
 16 17  2  0
 18 16  1  0
 18 19  1  0
 20 21  1  0
 20 19  1  0
 22 21  1  6
 22 23  1  0
 22 24  1  0
 23 13  1  0
 24 25  2  0
 26 24  1  0
 26 27  1  0
 27 33  1  0
 27 28  1  6
 29 28  1  0
 30 29  1  0
 31 30  1  0
 31 32  1  0
 33 34  1  0
 35 33  2  0
M  END
$$$$
