WRK.pdb
     RDKit          3D

 35 36  0  0  1  0  0  0  0  0999 V2000
   18.4058  -17.9228  -19.4098 N   0  0  0  0  0  0  0  0  0  0  0  0
   19.3717  -17.9321  -18.3663 C   0  0  1  0  0  0  0  0  0  0  0  0
   19.1098  -17.0458  -17.2041 C   0  0  0  0  0  0  0  0  0  0  0  0
   18.9686  -15.6483  -17.6611 C   0  0  0  0  0  0  0  0  0  0  0  0
   17.8372  -14.8524  -17.6004 C   0  0  0  0  0  0  0  0  0  0  0  0
   18.1060  -13.6356  -18.0959 N   0  0  0  0  0  0  0  0  0  0  0  0
   19.3890  -13.5943  -18.4881 C   0  0  0  0  0  0  0  0  0  0  0  0
   20.1730  -12.6209  -19.0582 C   0  0  0  0  0  0  0  0  0  0  0  0
   21.5028  -12.8401  -19.3818 C   0  0  0  0  0  0  0  0  0  0  0  0
   22.0706  -14.0749  -19.1277 C   0  0  0  0  0  0  0  0  0  0  0  0
   21.2786  -15.0542  -18.5531 C   0  0  0  0  0  0  0  0  0  0  0  0
   19.9452  -14.8546  -18.2209 C   0  0  0  0  0  0  0  0  0  0  0  0
   19.6621  -19.3414  -17.9692 C   0  0  0  0  0  0  0  0  0  0  0  0
   18.7039  -20.1531  -17.8416 O   0  0  0  0  0  0  0  0  0  0  0  0
   25.6388  -23.5424  -15.4162 N   0  0  0  0  0  0  0  0  0  0  0  0
   25.3637  -24.6769  -16.2562 C   0  0  0  0  0  0  0  0  0  0  0  0
   25.5568  -25.8532  -15.7748 N   0  0  0  0  0  0  0  0  0  0  0  0
   24.8977  -24.4821  -17.5632 N   0  0  0  0  0  0  0  0  0  0  0  0
   24.6015  -23.0882  -18.0140 C   0  0  0  0  0  0  0  0  0  0  0  0
   23.2433  -22.7752  -17.5675 C   0  0  0  0  0  0  0  0  0  0  0  0
   22.5518  -21.5229  -17.8412 C   0  0  0  0  0  0  0  0  0  0  0  0
   21.1448  -21.2634  -17.4538 C   0  0  2  0  0  0  0  0  0  0  0  0
   20.9616  -19.8041  -17.7304 N   0  0  0  0  0  0  0  0  0  0  0  0
   20.8902  -21.4261  -15.9964 C   0  0  0  0  0  0  0  0  0  0  0  0
   21.2427  -20.6257  -15.1229 O   0  0  0  0  0  0  0  0  0  0  0  0
   25.4438  -26.7167  -16.3395 N   0  0  0  0  0  0  0  0  0  0  0  0
   20.1807  -22.5865  -15.4755 C   0  0  2  0  0  0  0  0  0  0  0  0
   19.9279  -22.7270  -14.0427 C   0  0  0  0  0  0  0  0  0  0  0  0
   18.5279  -23.2463  -13.7888 C   0  0  0  0  0  0  0  0  0  0  0  0
   18.3434  -23.4805  -12.3329 C   0  0  0  0  0  0  0  0  0  0  0  0
   16.9999  -24.0417  -11.9503 C   0  0  0  0  0  0  0  0  0  0  0  0
   16.8548  -24.3986  -10.5119 N   0  0  0  0  0  0  0  0  0  0  0  0
   15.5383  -25.0144  -10.3488 C   0  0  0  0  0  0  0  0  0  0  0  0
   20.9551  -23.6597  -13.5102 O   0  0  0  0  0  0  0  0  0  0  0  0
   21.4204  -23.5419  -12.2103 O   0  0  0  0  0  0  0  0  0  0  0  0
  2  1  1  6
  3  2  1  0
  4  3  1  0
  4  5  2  0
  6  5  1  0
  7 12  2  0
  7  6  1  0
  8  7  1  0
  9 10  1  0
  9  8  2  0
 10 11  2  0
 11 12  1  0
 12  4  1  0
 13  2  1  0
 14 13  2  0
 15 16  1  0
 16 17  2  0
 18 16  1  0
 18 19  1  0
 20 21  1  0
 20 19  1  0
 22 21  1  1
 22 23  1  0
 22 24  1  0
 23 13  1  0
 24 25  2  0
 26 24  1  0
 26 27  1  0
 27 33  1  0
 27 28  1  6
 29 28  1  0
 30 29  1  0
 31 30  1  0
 31 32  1  0
 33 34  1  0
 35 33  2  0
M  END
$$$$
