WRK.pdb
     RDKit          3D

 35 36  0  0  1  0  0  0  0  0999 V2000
   27.6042  -20.0235  -10.5059 N   0  0  0  0  0  0  0  0  0  0  0  0
   26.4878  -20.7872  -10.0674 C   0  0  1  0  0  0  0  0  0  0  0  0
   25.9905  -20.5181   -8.6945 C   0  0  0  0  0  0  0  0  0  0  0  0
   27.0120  -19.7762   -7.9276 C   0  0  0  0  0  0  0  0  0  0  0  0
   27.5743  -18.5501   -8.2401 C   0  0  0  0  0  0  0  0  0  0  0  0
   28.4517  -18.1934   -7.2908 N   0  0  0  0  0  0  0  0  0  0  0  0
   28.4932  -19.1489   -6.3491 C   0  0  0  0  0  0  0  0  0  0  0  0
   29.2056  -19.2985   -5.1840 C   0  0  0  0  0  0  0  0  0  0  0  0
   29.0660  -20.4129   -4.3718 C   0  0  0  0  0  0  0  0  0  0  0  0
   28.1842  -21.4139   -4.7350 C   0  0  0  0  0  0  0  0  0  0  0  0
   27.4674  -21.2609   -5.9094 C   0  0  0  0  0  0  0  0  0  0  0  0
   27.5921  -20.1524   -6.7364 C   0  0  0  0  0  0  0  0  0  0  0  0
   25.4096  -20.7299  -11.0982 C   0  0  0  0  0  0  0  0  0  0  0  0
   24.8092  -19.6378  -11.2984 O   0  0  0  0  0  0  0  0  0  0  0  0
   28.1843  -23.6979  -16.3617 N   0  0  0  0  0  0  0  0  0  0  0  0
   27.2627  -24.7769  -16.1274 C   0  0  0  0  0  0  0  0  0  0  0  0
   27.7371  -25.9622  -15.9764 N   0  0  0  0  0  0  0  0  0  0  0  0
   25.8865  -24.5202  -16.0692 N   0  0  0  0  0  0  0  0  0  0  0  0
   25.4197  -23.1051  -16.1853 C   0  0  0  0  0  0  0  0  0  0  0  0
   25.3919  -22.5527  -14.8303 C   0  0  0  0  0  0  0  0  0  0  0  0
   24.2674  -22.6725  -13.9124 C   0  0  0  0  0  0  0  0  0  0  0  0
   23.9488  -21.6650  -12.8729 C   0  0  2  0  0  0  0  0  0  0  0  0
   25.0336  -21.8442  -11.8575 N   0  0  0  0  0  0  0  0  0  0  0  0
   22.6779  -21.9403  -12.1485 C   0  0  0  0  0  0  0  0  0  0  0  0
   22.5099  -21.7919  -10.9330 O   0  0  0  0  0  0  0  0  0  0  0  0
   27.1350  -26.7914  -15.8120 N   0  0  0  0  0  0  0  0  0  0  0  0
   21.4960  -22.4244  -12.8483 C   0  0  2  0  0  0  0  0  0  0  0  0
   20.1554  -22.0968  -12.3665 C   0  0  0  0  0  0  0  0  0  0  0  0
   19.9271  -20.5995  -12.3783 C   0  0  0  0  0  0  0  0  0  0  0  0
   19.8481  -20.1219  -13.7833 C   0  0  0  0  0  0  0  0  0  0  0  0
   19.6746  -18.6342  -13.9342 C   0  0  0  0  0  0  0  0  0  0  0  0
   19.5634  -18.1541  -15.3394 N   0  0  0  0  0  0  0  0  0  0  0  0
   19.2885  -16.7186  -15.2864 C   0  0  0  0  0  0  0  0  0  0  0  0
   19.1917  -22.7974  -13.2549 O   0  0  0  0  0  0  0  0  0  0  0  0
   17.8648  -22.9524  -12.8870 O   0  0  0  0  0  0  0  0  0  0  0  0
  2  1  1  6
  3  2  1  0
  4  3  1  0
  4  5  2  0
  6  5  1  0
  7 12  2  0
  7  6  1  0
  8  7  1  0
  9 10  1  0
  9  8  2  0
 10 11  2  0
 11 12  1  0
 12  4  1  0
 13  2  1  0
 14 13  2  0
 15 16  1  0
 16 17  2  0
 18 16  1  0
 18 19  1  0
 20 21  1  0
 20 19  1  0
 22 21  1  6
 22 23  1  0
 22 24  1  0
 23 13  1  0
 24 25  2  0
 26 24  1  0
 26 27  1  0
 27 33  1  0
 27 28  1  1
 29 28  1  0
 30 29  1  0
 31 30  1  0
 31 32  1  0
 33 34  1  0
 35 33  2  0
M  END
$$$$
