WRK.pdb
     RDKit          3D

 35 36  0  0  1  0  0  0  0  0999 V2000
   26.0914  -22.7786  -12.0792 N   0  0  0  0  0  0  0  0  0  0  0  0
   25.5879  -21.4492  -12.1085 C   0  0  1  0  0  0  0  0  0  0  0  0
   26.5899  -20.3535  -12.0952 C   0  0  0  0  0  0  0  0  0  0  0  0
   27.5583  -20.5729  -11.0015 C   0  0  0  0  0  0  0  0  0  0  0  0
   28.8456  -21.0725  -11.1038 C   0  0  0  0  0  0  0  0  0  0  0  0
   29.4211  -21.1065   -9.8930 N   0  0  0  0  0  0  0  0  0  0  0  0
   28.5529  -20.6430   -8.9804 C   0  0  0  0  0  0  0  0  0  0  0  0
   28.6150  -20.4674   -7.6193 C   0  0  0  0  0  0  0  0  0  0  0  0
   27.5488  -19.9638   -6.8909 C   0  0  0  0  0  0  0  0  0  0  0  0
   26.3786  -19.6233   -7.5439 C   0  0  0  0  0  0  0  0  0  0  0  0
   26.3184  -19.8011   -8.9154 C   0  0  0  0  0  0  0  0  0  0  0  0
   27.3751  -20.3032   -9.6633 C   0  0  0  0  0  0  0  0  0  0  0  0
   24.5960  -21.3168  -13.2162 C   0  0  0  0  0  0  0  0  0  0  0  0
   24.4365  -22.2804  -14.0157 O   0  0  0  0  0  0  0  0  0  0  0  0
   20.2465  -22.6149   -9.8582 N   0  0  0  0  0  0  0  0  0  0  0  0
   19.5622  -21.3988  -10.2063 C   0  0  0  0  0  0  0  0  0  0  0  0
   19.3895  -20.5127   -9.2910 N   0  0  0  0  0  0  0  0  0  0  0  0
   19.1035  -21.2053  -11.5161 N   0  0  0  0  0  0  0  0  0  0  0  0
   19.8559  -21.8470  -12.6369 C   0  0  0  0  0  0  0  0  0  0  0  0
   20.9118  -20.9134  -13.0311 C   0  0  0  0  0  0  0  0  0  0  0  0
   21.8240  -21.1216  -14.1473 C   0  0  0  0  0  0  0  0  0  0  0  0
   22.8626  -20.1432  -14.5488 C   0  0  2  0  0  0  0  0  0  0  0  0
   23.8302  -20.1607  -13.4072 N   0  0  0  0  0  0  0  0  0  0  0  0
   22.3627  -18.7432  -14.6239 C   0  0  0  0  0  0  0  0  0  0  0  0
   21.9526  -18.0857  -13.6609 O   0  0  0  0  0  0  0  0  0  0  0  0
   18.9169  -19.6061   -9.4689 N   0  0  0  0  0  0  0  0  0  0  0  0
   22.3181  -18.0208  -15.8877 C   0  0  1  0  0  0  0  0  0  0  0  0
   21.8530  -16.6361  -15.9412 C   0  0  0  0  0  0  0  0  0  0  0  0
   22.3291  -15.9540  -17.2070 C   0  0  0  0  0  0  0  0  0  0  0  0
   23.7887  -16.1792  -17.3717 C   0  0  0  0  0  0  0  0  0  0  0  0
   24.3557  -15.7034  -18.6826 C   0  0  0  0  0  0  0  0  0  0  0  0
   25.8087  -15.9686  -18.8717 N   0  0  0  0  0  0  0  0  0  0  0  0
   26.5310  -15.1197  -17.9248 C   0  0  0  0  0  0  0  0  0  0  0  0
   20.3689  -16.6738  -15.8729 O   0  0  0  0  0  0  0  0  0  0  0  0
   19.6480  -15.5850  -15.4095 O   0  0  0  0  0  0  0  0  0  0  0  0
  2  1  1  6
  3  2  1  0
  4  3  1  0
  4  5  2  0
  6  5  1  0
  7 12  2  0
  7  6  1  0
  8  7  1  0
  9 10  1  0
  9  8  2  0
 10 11  2  0
 11 12  1  0
 12  4  1  0
 13  2  1  0
 14 13  2  0
 15 16  1  0
 16 17  2  0
 18 16  1  0
 18 19  1  0
 20 21  1  0
 20 19  1  0
 22 21  1  1
 22 23  1  0
 22 24  1  0
 23 13  1  0
 24 25  2  0
 26 24  1  0
 26 27  1  0
 27 33  1  0
 27 28  1  6
 29 28  1  0
 30 29  1  0
 31 30  1  0
 31 32  1  0
 33 34  1  0
 35 33  2  0
M  END
$$$$
