WRK.pdb
     RDKit          3D

 35 36  0  0  1  0  0  0  0  0999 V2000
   25.0180  -19.2385   -9.0592 N   0  0  0  0  0  0  0  0  0  0  0  0
   26.0564  -20.1108   -9.4863 C   0  0  1  0  0  0  0  0  0  0  0  0
   26.2151  -21.3811   -8.7343 C   0  0  0  0  0  0  0  0  0  0  0  0
   26.4529  -21.0916   -7.3055 C   0  0  0  0  0  0  0  0  0  0  0  0
   25.6102  -21.3596   -6.2400 C   0  0  0  0  0  0  0  0  0  0  0  0
   26.1836  -20.9679   -5.0928 N   0  0  0  0  0  0  0  0  0  0  0  0
   27.3896  -20.4433   -5.3608 C   0  0  0  0  0  0  0  0  0  0  0  0
   28.3779  -19.8956   -4.5793 C   0  0  0  0  0  0  0  0  0  0  0  0
   29.5579  -19.4064   -5.1173 C   0  0  0  0  0  0  0  0  0  0  0  0
   29.7589  -19.4656   -6.4839 C   0  0  0  0  0  0  0  0  0  0  0  0
   28.7617  -20.0180   -7.2694 C   0  0  0  0  0  0  0  0  0  0  0  0
   27.5733  -20.5140   -6.7502 C   0  0  0  0  0  0  0  0  0  0  0  0
   25.9584  -20.3166  -10.9616 C   0  0  0  0  0  0  0  0  0  0  0  0
   24.8544  -20.1114  -11.5380 O   0  0  0  0  0  0  0  0  0  0  0  0
   27.4699  -23.1696  -17.1490 N   0  0  0  0  0  0  0  0  0  0  0  0
   28.8542  -22.9469  -17.4693 C   0  0  0  0  0  0  0  0  0  0  0  0
   29.1870  -22.8588  -18.7080 N   0  0  0  0  0  0  0  0  0  0  0  0
   29.7996  -22.8319  -16.4416 N   0  0  0  0  0  0  0  0  0  0  0  0
   29.8644  -21.5519  -15.6726 C   0  0  0  0  0  0  0  0  0  0  0  0
   28.5226  -21.3040  -15.1433 C   0  0  0  0  0  0  0  0  0  0  0  0
   28.2034  -21.1772  -13.7279 C   0  0  0  0  0  0  0  0  0  0  0  0
   26.8641  -20.7928  -13.2223 C   0  0  2  0  0  0  0  0  0  0  0  0
   27.0469  -20.7308  -11.7382 N   0  0  0  0  0  0  0  0  0  0  0  0
   25.8223  -21.8310  -13.4508 C   0  0  0  0  0  0  0  0  0  0  0  0
   25.4470  -22.6542  -12.6085 O   0  0  0  0  0  0  0  0  0  0  0  0
   30.1713  -22.7512  -19.0188 N   0  0  0  0  0  0  0  0  0  0  0  0
   25.1455  -21.9564  -14.7342 C   0  0  2  0  0  0  0  0  0  0  0  0
   23.7697  -22.4445  -14.8093 C   0  0  0  0  0  0  0  0  0  0  0  0
   22.8616  -21.6454  -13.8979 C   0  0  0  0  0  0  0  0  0  0  0  0
   21.4607  -22.1143  -14.0601 C   0  0  0  0  0  0  0  0  0  0  0  0
   20.4614  -21.4366  -13.1610 C   0  0  0  0  0  0  0  0  0  0  0  0
   19.0652  -21.9400  -13.2818 N   0  0  0  0  0  0  0  0  0  0  0  0
   18.2332  -21.1269  -12.3954 C   0  0  0  0  0  0  0  0  0  0  0  0
   23.3459  -22.3311  -16.2293 O   0  0  0  0  0  0  0  0  0  0  0  0
   23.8038  -21.2973  -17.0302 O   0  0  0  0  0  0  0  0  0  0  0  0
  2  1  1  1
  3  2  1  0
  4  3  1  0
  4  5  2  0
  6  5  1  0
  7 12  2  0
  7  6  1  0
  8  7  1  0
  9 10  1  0
  9  8  2  0
 10 11  2  0
 11 12  1  0
 12  4  1  0
 13  2  1  0
 14 13  2  0
 15 16  1  0
 16 17  2  0
 18 16  1  0
 18 19  1  0
 20 21  1  0
 20 19  1  0
 22 21  1  6
 22 23  1  0
 22 24  1  0
 23 13  1  0
 24 25  2  0
 26 24  1  0
 26 27  1  0
 27 33  1  0
 27 28  1  6
 29 28  1  0
 30 29  1  0
 31 30  1  0
 31 32  1  0
 33 34  1  0
 35 33  2  0
M  END
$$$$
