WRK.pdb
     RDKit          3D

 35 36  0  0  1  0  0  0  0  0999 V2000
   25.6144  -17.9115  -17.8476 N   0  0  0  0  0  0  0  0  0  0  0  0
   25.3459  -17.5129  -16.5094 C   0  0  1  0  0  0  0  0  0  0  0  0
   24.3693  -16.4102  -16.3226 C   0  0  0  0  0  0  0  0  0  0  0  0
   24.9390  -15.1448  -16.8285 C   0  0  0  0  0  0  0  0  0  0  0  0
   24.3284  -14.2172  -17.6556 C   0  0  0  0  0  0  0  0  0  0  0  0
   25.1579  -13.1876  -17.8800 N   0  0  0  0  0  0  0  0  0  0  0  0
   26.3100  -13.4005  -17.2250 C   0  0  0  0  0  0  0  0  0  0  0  0
   27.4797  -12.6888  -17.1128 C   0  0  0  0  0  0  0  0  0  0  0  0
   28.5509  -13.1439  -16.3601 C   0  0  0  0  0  0  0  0  0  0  0  0
   28.4515  -14.3524  -15.6959 C   0  0  0  0  0  0  0  0  0  0  0  0
   27.2719  -15.0677  -15.8104 C   0  0  0  0  0  0  0  0  0  0  0  0
   26.1874  -14.6292  -16.5585 C   0  0  0  0  0  0  0  0  0  0  0  0
   25.0285  -18.7166  -15.6856 C   0  0  0  0  0  0  0  0  0  0  0  0
   24.4680  -19.7056  -16.2342 O   0  0  0  0  0  0  0  0  0  0  0  0
   29.3676  -20.7824   -9.3032 N   0  0  0  0  0  0  0  0  0  0  0  0
   29.8097  -21.5031  -10.4666 C   0  0  0  0  0  0  0  0  0  0  0  0
   30.6981  -22.4199  -10.3149 N   0  0  0  0  0  0  0  0  0  0  0  0
   29.2726  -21.1974  -11.7240 N   0  0  0  0  0  0  0  0  0  0  0  0
   28.2795  -20.0847  -11.8235 C   0  0  0  0  0  0  0  0  0  0  0  0
   26.9714  -20.6999  -12.0523 C   0  0  0  0  0  0  0  0  0  0  0  0
   25.7479  -19.9602  -12.3298 C   0  0  0  0  0  0  0  0  0  0  0  0
   24.9981  -20.0671  -13.6039 C   0  0  2  0  0  0  0  0  0  0  0  0
   25.3282  -18.7954  -14.3204 N   0  0  0  0  0  0  0  0  0  0  0  0
   23.5202  -20.0507  -13.4268 C   0  0  0  0  0  0  0  0  0  0  0  0
   22.8829  -19.1420  -12.8828 O   0  0  0  0  0  0  0  0  0  0  0  0
   31.0222  -23.0226  -11.0952 N   0  0  0  0  0  0  0  0  0  0  0  0
   22.6877  -21.1482  -13.8995 C   0  0  2  0  0  0  0  0  0  0  0  0
   21.2655  -21.2046  -13.5669 C   0  0  0  0  0  0  0  0  0  0  0  0
   20.5298  -22.1486  -14.4952 C   0  0  0  0  0  0  0  0  0  0  0  0
   21.1015  -22.0435  -15.8629 C   0  0  0  0  0  0  0  0  0  0  0  0
   20.5168  -23.0021  -16.8656 C   0  0  0  0  0  0  0  0  0  0  0  0
   21.0432  -22.8600  -18.2513 N   0  0  0  0  0  0  0  0  0  0  0  0
   20.4042  -23.8933  -19.0657 C   0  0  0  0  0  0  0  0  0  0  0  0
   21.1678  -21.6517  -12.1530 O   0  0  0  0  0  0  0  0  0  0  0  0
   22.2708  -22.1634  -11.4886 O   0  0  0  0  0  0  0  0  0  0  0  0
  2  1  1  6
  3  2  1  0
  4  3  1  0
  4  5  2  0
  6  5  1  0
  7 12  2  0
  7  6  1  0
  8  7  1  0
  9 10  1  0
  9  8  2  0
 10 11  2  0
 11 12  1  0
 12  4  1  0
 13  2  1  0
 14 13  2  0
 15 16  1  0
 16 17  2  0
 18 16  1  0
 18 19  1  0
 20 21  1  0
 20 19  1  0
 22 21  1  1
 22 23  1  0
 22 24  1  0
 23 13  1  0
 24 25  2  0
 26 24  1  0
 26 27  1  0
 27 33  1  0
 27 28  1  6
 29 28  1  0
 30 29  1  0
 31 30  1  0
 31 32  1  0
 33 34  1  0
 35 33  2  0
M  END
$$$$
