WRK.pdb
     RDKit          3D

 35 36  0  0  1  0  0  0  0  0999 V2000
   28.9179  -20.8244   -9.1853 N   0  0  0  0  0  0  0  0  0  0  0  0
   27.5158  -20.5950   -9.1257 C   0  0  1  0  0  0  0  0  0  0  0  0
   27.0716  -19.3242   -8.4995 C   0  0  0  0  0  0  0  0  0  0  0  0
   27.8285  -19.0878   -7.2533 C   0  0  0  0  0  0  0  0  0  0  0  0
   28.6591  -18.0189   -6.9619 C   0  0  0  0  0  0  0  0  0  0  0  0
   29.1525  -18.1471   -5.7216 N   0  0  0  0  0  0  0  0  0  0  0  0
   28.6748  -19.2751   -5.1729 C   0  0  0  0  0  0  0  0  0  0  0  0
   28.8533  -19.8834   -3.9541 C   0  0  0  0  0  0  0  0  0  0  0  0
   28.2345  -21.0803   -3.6292 C   0  0  0  0  0  0  0  0  0  0  0  0
   27.4082  -21.6923   -4.5535 C   0  0  0  0  0  0  0  0  0  0  0  0
   27.2298  -21.0774   -5.7809 C   0  0  0  0  0  0  0  0  0  0  0  0
   27.8398  -19.8785   -6.1255 C   0  0  0  0  0  0  0  0  0  0  0  0
   26.9169  -20.8192  -10.4746 C   0  0  0  0  0  0  0  0  0  0  0  0
   27.6282  -20.6334  -11.5006 O   0  0  0  0  0  0  0  0  0  0  0  0
   24.7586  -26.4529  -15.2064 N   0  0  0  0  0  0  0  0  0  0  0  0
   23.8016  -25.4206  -15.5013 C   0  0  0  0  0  0  0  0  0  0  0  0
   22.5601  -25.7447  -15.5815 N   0  0  0  0  0  0  0  0  0  0  0  0
   24.2333  -24.1014  -15.6928 N   0  0  0  0  0  0  0  0  0  0  0  0
   25.1554  -23.4993  -14.6822 C   0  0  0  0  0  0  0  0  0  0  0  0
   24.4556  -23.5264  -13.3971 C   0  0  0  0  0  0  0  0  0  0  0  0
   24.9313  -22.8764  -12.1836 C   0  0  0  0  0  0  0  0  0  0  0  0
   25.0936  -21.4090  -12.0511 C   0  0  2  0  0  0  0  0  0  0  0  0
   25.5902  -21.2295  -10.6508 N   0  0  0  0  0  0  0  0  0  0  0  0
   23.8083  -20.6609  -12.1152 C   0  0  0  0  0  0  0  0  0  0  0  0
   22.9655  -20.6236  -11.2118 O   0  0  0  0  0  0  0  0  0  0  0  0
   21.8118  -25.0555  -15.7864 N   0  0  0  0  0  0  0  0  0  0  0  0
   23.4375  -19.8904  -13.2942 C   0  0  2  0  0  0  0  0  0  0  0  0
   22.1525  -19.1969  -13.3603 C   0  0  0  0  0  0  0  0  0  0  0  0
   22.1167  -18.2342  -14.5290 C   0  0  0  0  0  0  0  0  0  0  0  0
   20.8460  -17.4643  -14.4973 C   0  0  0  0  0  0  0  0  0  0  0  0
   20.6847  -16.4683  -15.6147 C   0  0  0  0  0  0  0  0  0  0  0  0
   19.5006  -15.5736  -15.4924 N   0  0  0  0  0  0  0  0  0  0  0  0
   19.4537  -14.7496  -16.6999 C   0  0  0  0  0  0  0  0  0  0  0  0
   21.1021  -20.2406  -13.4874 O   0  0  0  0  0  0  0  0  0  0  0  0
   19.8864  -20.1126  -12.8350 O   0  0  0  0  0  0  0  0  0  0  0  0
  2  1  1  6
  3  2  1  0
  4  3  1  0
  4  5  2  0
  6  5  1  0
  7 12  2  0
  7  6  1  0
  8  7  1  0
  9 10  1  0
  9  8  2  0
 10 11  2  0
 11 12  1  0
 12  4  1  0
 13  2  1  0
 14 13  2  0
 15 16  1  0
 16 17  2  0
 18 16  1  0
 18 19  1  0
 20 21  1  0
 20 19  1  0
 22 21  1  1
 22 23  1  0
 22 24  1  0
 23 13  1  0
 24 25  2  0
 26 24  1  0
 26 27  1  0
 27 33  1  0
 27 28  1  6
 29 28  1  0
 30 29  1  0
 31 30  1  0
 31 32  1  0
 33 34  1  0
 35 33  2  0
M  END
$$$$
