WRK.pdb
     RDKit          3D

 35 36  0  0  1  0  0  0  0  0999 V2000
   26.9223  -22.7002  -12.1280 N   0  0  0  0  0  0  0  0  0  0  0  0
   26.1267  -21.5529  -11.8584 C   0  0  1  0  0  0  0  0  0  0  0  0
   26.8382  -20.2536  -11.7583 C   0  0  0  0  0  0  0  0  0  0  0  0
   27.8728  -20.3282  -10.7066 C   0  0  0  0  0  0  0  0  0  0  0  0
   29.2335  -20.5209  -10.8757 C   0  0  0  0  0  0  0  0  0  0  0  0
   29.8491  -20.5108   -9.6844 N   0  0  0  0  0  0  0  0  0  0  0  0
   28.9363  -20.3167   -8.7196 C   0  0  0  0  0  0  0  0  0  0  0  0
   29.0111  -20.2274   -7.3508 C   0  0  0  0  0  0  0  0  0  0  0  0
   27.8893  -20.0255   -6.5622 C   0  0  0  0  0  0  0  0  0  0  0  0
   26.6485  -19.9087   -7.1607 C   0  0  0  0  0  0  0  0  0  0  0  0
   26.5756  -19.9990   -8.5402 C   0  0  0  0  0  0  0  0  0  0  0  0
   27.6870  -20.2003   -9.3479 C   0  0  0  0  0  0  0  0  0  0  0  0
   24.9735  -21.5130  -12.8055 C   0  0  0  0  0  0  0  0  0  0  0  0
   25.0522  -22.1447  -13.8954 O   0  0  0  0  0  0  0  0  0  0  0  0
   17.5608  -23.1911   -9.7288 N   0  0  0  0  0  0  0  0  0  0  0  0
   18.5297  -24.0210  -10.3930 C   0  0  0  0  0  0  0  0  0  0  0  0
   18.5962  -25.2624  -10.0654 N   0  0  0  0  0  0  0  0  0  0  0  0
   19.3700  -23.4697  -11.3692 N   0  0  0  0  0  0  0  0  0  0  0  0
   19.1127  -22.0689  -11.8226 C   0  0  0  0  0  0  0  0  0  0  0  0
   20.1713  -21.7274  -12.7738 C   0  0  0  0  0  0  0  0  0  0  0  0
   21.5586  -21.4739  -12.4098 C   0  0  0  0  0  0  0  0  0  0  0  0
   22.6008  -21.0749  -13.3854 C   0  0  2  0  0  0  0  0  0  0  0  0
   23.8003  -20.7993  -12.5339 N   0  0  0  0  0  0  0  0  0  0  0  0
   22.3043  -19.7925  -14.0804 C   0  0  0  0  0  0  0  0  0  0  0  0
   22.3868  -18.6724  -13.5641 O   0  0  0  0  0  0  0  0  0  0  0  0
   19.2543  -25.9273  -10.5147 N   0  0  0  0  0  0  0  0  0  0  0  0
   21.8779  -19.7656  -15.4727 C   0  0  2  0  0  0  0  0  0  0  0  0
   21.5523  -18.5015  -16.1305 C   0  0  0  0  0  0  0  0  0  0  0  0
   20.1480  -18.0552  -15.7801 C   0  0  0  0  0  0  0  0  0  0  0  0
   19.4184  -17.6947  -17.0235 C   0  0  0  0  0  0  0  0  0  0  0  0
   18.0114  -17.2042  -16.8088 C   0  0  0  0  0  0  0  0  0  0  0  0
   17.2729  -16.8506  -18.0526 N   0  0  0  0  0  0  0  0  0  0  0  0
   15.9450  -16.3874  -17.6512 C   0  0  0  0  0  0  0  0  0  0  0  0
   22.5626  -17.5071  -15.6842 O   0  0  0  0  0  0  0  0  0  0  0  0
   23.9033  -17.6621  -15.9980 O   0  0  0  0  0  0  0  0  0  0  0  0
  2  1  1  6
  3  2  1  0
  4  3  1  0
  4  5  2  0
  6  5  1  0
  7 12  2  0
  7  6  1  0
  8  7  1  0
  9 10  1  0
  9  8  2  0
 10 11  2  0
 11 12  1  0
 12  4  1  0
 13  2  1  0
 14 13  2  0
 15 16  1  0
 16 17  2  0
 18 16  1  0
 18 19  1  0
 20 21  1  0
 20 19  1  0
 22 21  1  1
 22 23  1  0
 22 24  1  0
 23 13  1  0
 24 25  2  0
 26 24  1  0
 26 27  1  0
 27 33  1  0
 27 28  1  6
 29 28  1  0
 30 29  1  0
 31 30  1  0
 31 32  1  0
 33 34  1  0
 35 33  2  0
M  END
$$$$
