WRK.pdb
     RDKit          3D

 35 36  0  0  1  0  0  0  0  0999 V2000
   20.3866  -28.5316  -12.1776 N   0  0  0  0  0  0  0  0  0  0  0  0
   20.1395  -28.6426  -10.7818 C   0  0  1  0  0  0  0  0  0  0  0  0
   18.8169  -28.1734  -10.2968 C   0  0  0  0  0  0  0  0  0  0  0  0
   18.6930  -26.7168  -10.5090 C   0  0  0  0  0  0  0  0  0  0  0  0
   18.6149  -26.0451  -11.7173 C   0  0  0  0  0  0  0  0  0  0  0  0
   18.4906  -24.7274  -11.5016 N   0  0  0  0  0  0  0  0  0  0  0  0
   18.4836  -24.4972  -10.1793 C   0  0  0  0  0  0  0  0  0  0  0  0
   18.3882  -23.3575   -9.4181 C   0  0  0  0  0  0  0  0  0  0  0  0
   18.4135  -23.3914   -8.0327 C   0  0  0  0  0  0  0  0  0  0  0  0
   18.5387  -24.6057   -7.3836 C   0  0  0  0  0  0  0  0  0  0  0  0
   18.6346  -25.7527   -8.1528 C   0  0  0  0  0  0  0  0  0  0  0  0
   18.6106  -25.7403   -9.5411 C   0  0  0  0  0  0  0  0  0  0  0  0
   20.4687  -30.0256  -10.3263 C   0  0  0  0  0  0  0  0  0  0  0  0
   20.4007  -30.9767  -11.1533 O   0  0  0  0  0  0  0  0  0  0  0  0
   25.9130  -34.1296  -11.4205 N   0  0  0  0  0  0  0  0  0  0  0  0
   25.0666  -33.2498  -12.1806 C   0  0  0  0  0  0  0  0  0  0  0  0
   24.8868  -33.5035  -13.4280 N   0  0  0  0  0  0  0  0  0  0  0  0
   24.4632  -32.1495  -11.5573 N   0  0  0  0  0  0  0  0  0  0  0  0
   24.8070  -31.8608  -10.1317 C   0  0  0  0  0  0  0  0  0  0  0  0
   23.5820  -31.3889   -9.4848 C   0  0  0  0  0  0  0  0  0  0  0  0
   22.3012  -32.0804   -9.5372 C   0  0  0  0  0  0  0  0  0  0  0  0
   21.1509  -31.7395   -8.6665 C   0  0  2  0  0  0  0  0  0  0  0  0
   20.8521  -30.3142   -9.0113 N   0  0  0  0  0  0  0  0  0  0  0  0
   21.4845  -31.7353   -7.2159 C   0  0  0  0  0  0  0  0  0  0  0  0
   21.8622  -30.7453   -6.5796 O   0  0  0  0  0  0  0  0  0  0  0  0
   24.3593  -32.8711  -14.0595 N   0  0  0  0  0  0  0  0  0  0  0  0
   21.3870  -32.9458   -6.4120 C   0  0  1  0  0  0  0  0  0  0  0  0
   20.9813  -32.8810   -5.0093 C   0  0  0  0  0  0  0  0  0  0  0  0
   19.6132  -32.2461   -4.8704 C   0  0  0  0  0  0  0  0  0  0  0  0
   19.7024  -31.0713   -3.9647 C   0  0  0  0  0  0  0  0  0  0  0  0
   18.3942  -30.3711   -3.7103 C   0  0  0  0  0  0  0  0  0  0  0  0
   18.4543  -29.2734   -2.7058 N   0  0  0  0  0  0  0  0  0  0  0  0
   17.1056  -28.7203   -2.5873 C   0  0  0  0  0  0  0  0  0  0  0  0
   20.9857  -34.2741   -4.4914 O   0  0  0  0  0  0  0  0  0  0  0  0
   20.3950  -35.3032   -5.2069 O   0  0  0  0  0  0  0  0  0  0  0  0
  2  1  1  6
  3  2  1  0
  4  3  1  0
  4  5  2  0
  6  5  1  0
  7 12  2  0
  7  6  1  0
  8  7  1  0
  9 10  1  0
  9  8  2  0
 10 11  2  0
 11 12  1  0
 12  4  1  0
 13  2  1  0
 14 13  2  0
 15 16  1  0
 16 17  2  0
 18 16  1  0
 18 19  1  0
 20 21  1  0
 20 19  1  0
 22 21  1  6
 22 23  1  0
 22 24  1  0
 23 13  1  0
 24 25  2  0
 26 24  1  0
 26 27  1  0
 27 33  1  0
 27 28  1  1
 29 28  1  0
 30 29  1  0
 31 30  1  0
 31 32  1  0
 33 34  1  0
 35 33  2  0
M  END
$$$$
