WRK.pdb
     RDKit          3D

 35 36  0  0  1  0  0  0  0  0999 V2000
   28.2231  -21.3072  -10.9397 N   0  0  0  0  0  0  0  0  0  0  0  0
   26.8802  -21.1886  -10.4877 C   0  0  1  0  0  0  0  0  0  0  0  0
   26.6577  -20.3983   -9.2506 C   0  0  0  0  0  0  0  0  0  0  0  0
   27.8189  -20.5409   -8.3489 C   0  0  0  0  0  0  0  0  0  0  0  0
   29.0477  -21.1084   -8.6410 C   0  0  0  0  0  0  0  0  0  0  0  0
   29.8519  -21.0357   -7.5704 N   0  0  0  0  0  0  0  0  0  0  0  0
   29.1943  -20.4342   -6.5667 C   0  0  0  0  0  0  0  0  0  0  0  0
   29.5304  -20.1129   -5.2740 C   0  0  0  0  0  0  0  0  0  0  0  0
   28.6430  -19.4827   -4.4157 C   0  0  0  0  0  0  0  0  0  0  0  0
   27.3748  -19.1619   -4.8632 C   0  0  0  0  0  0  0  0  0  0  0  0
   27.0384  -19.4867   -6.1662 C   0  0  0  0  0  0  0  0  0  0  0  0
   27.9126  -20.1171   -7.0417 C   0  0  0  0  0  0  0  0  0  0  0  0
   26.0103  -20.7536  -11.6202 C   0  0  0  0  0  0  0  0  0  0  0  0
   26.5404  -20.2049  -12.6257 O   0  0  0  0  0  0  0  0  0  0  0  0
   26.5544  -25.4546  -15.0555 N   0  0  0  0  0  0  0  0  0  0  0  0
   25.1746  -25.0723  -15.1916 C   0  0  0  0  0  0  0  0  0  0  0  0
   24.2731  -25.9747  -15.0316 N   0  0  0  0  0  0  0  0  0  0  0  0
   24.8438  -23.7442  -15.4916 N   0  0  0  0  0  0  0  0  0  0  0  0
   25.9145  -22.7052  -15.4019 C   0  0  0  0  0  0  0  0  0  0  0  0
   25.5654  -21.8286  -14.2832 C   0  0  0  0  0  0  0  0  0  0  0  0
   24.2057  -21.5686  -13.8306 C   0  0  0  0  0  0  0  0  0  0  0  0
   23.8595  -20.5249  -12.8366 C   0  0  2  0  0  0  0  0  0  0  0  0
   24.6215  -20.9295  -11.6138 N   0  0  0  0  0  0  0  0  0  0  0  0
   22.4265  -20.5397  -12.4342 C   0  0  0  0  0  0  0  0  0  0  0  0
   21.9306  -21.3179  -11.6118 O   0  0  0  0  0  0  0  0  0  0  0  0
   23.2579  -25.7752  -15.1135 N   0  0  0  0  0  0  0  0  0  0  0  0
   21.4691  -19.6021  -13.0044 C   0  0  2  0  0  0  0  0  0  0  0  0
   20.0618  -19.6386  -12.6110 C   0  0  0  0  0  0  0  0  0  0  0  0
   19.2812  -18.5326  -13.2904 C   0  0  0  0  0  0  0  0  0  0  0  0
   17.8743  -18.5542  -12.8124 C   0  0  0  0  0  0  0  0  0  0  0  0
   16.9556  -17.5898  -13.5141 C   0  0  0  0  0  0  0  0  0  0  0  0
   17.0331  -16.1836  -13.0304 N   0  0  0  0  0  0  0  0  0  0  0  0
   15.9412  -15.4462  -13.6652 C   0  0  0  0  0  0  0  0  0  0  0  0
   19.5404  -20.9783  -12.9879 O   0  0  0  0  0  0  0  0  0  0  0  0
   18.5430  -21.5904  -12.2460 O   0  0  0  0  0  0  0  0  0  0  0  0
  2  1  1  6
  3  2  1  0
  4  3  1  0
  4  5  2  0
  6  5  1  0
  7 12  2  0
  7  6  1  0
  8  7  1  0
  9 10  1  0
  9  8  2  0
 10 11  2  0
 11 12  1  0
 12  4  1  0
 13  2  1  0
 14 13  2  0
 15 16  1  0
 16 17  2  0
 18 16  1  0
 18 19  1  0
 20 21  1  0
 20 19  1  0
 22 21  1  6
 22 23  1  0
 22 24  1  0
 23 13  1  0
 24 25  2  0
 26 24  1  0
 26 27  1  0
 27 33  1  0
 27 28  1  6
 29 28  1  0
 30 29  1  0
 31 30  1  0
 31 32  1  0
 33 34  1  0
 35 33  2  0
M  END
$$$$
