WRK.pdb
     RDKit          3D

 35 36  0  0  1  0  0  0  0  0999 V2000
   22.0618  -17.5206  -18.0413 N   0  0  0  0  0  0  0  0  0  0  0  0
   22.6428  -17.9297  -16.8097 C   0  0  1  0  0  0  0  0  0  0  0  0
   22.3317  -17.1036  -15.6158 C   0  0  0  0  0  0  0  0  0  0  0  0
   23.0232  -15.8019  -15.7127 C   0  0  0  0  0  0  0  0  0  0  0  0
   22.4531  -14.5595  -15.9331 C   0  0  0  0  0  0  0  0  0  0  0  0
   23.4036  -13.6136  -15.9368 N   0  0  0  0  0  0  0  0  0  0  0  0
   24.5975  -14.1892  -15.7249 C   0  0  0  0  0  0  0  0  0  0  0  0
   25.8797  -13.7038  -15.6385 C   0  0  0  0  0  0  0  0  0  0  0  0
   26.9686  -14.5316  -15.4143 C   0  0  0  0  0  0  0  0  0  0  0  0
   26.7710  -15.8925  -15.2716 C   0  0  0  0  0  0  0  0  0  0  0  0
   25.4780  -16.3794  -15.3590 C   0  0  0  0  0  0  0  0  0  0  0  0
   24.3741  -15.5672  -15.5823 C   0  0  0  0  0  0  0  0  0  0  0  0
   22.3820  -19.3837  -16.5949 C   0  0  0  0  0  0  0  0  0  0  0  0
   21.2396  -19.8486  -16.8632 O   0  0  0  0  0  0  0  0  0  0  0  0
   24.3849  -27.0297  -15.3769 N   0  0  0  0  0  0  0  0  0  0  0  0
   25.1161  -26.5477  -16.5178 C   0  0  0  0  0  0  0  0  0  0  0  0
   25.1332  -27.2703  -17.5809 N   0  0  0  0  0  0  0  0  0  0  0  0
   25.7860  -25.3189  -16.4503 N   0  0  0  0  0  0  0  0  0  0  0  0
   25.6562  -24.5038  -15.2041 C   0  0  0  0  0  0  0  0  0  0  0  0
   24.3923  -23.7725  -15.3026 C   0  0  0  0  0  0  0  0  0  0  0  0
   24.2715  -22.3860  -15.7318 C   0  0  0  0  0  0  0  0  0  0  0  0
   22.9729  -21.6910  -15.8982 C   0  0  2  0  0  0  0  0  0  0  0  0
   23.3578  -20.2595  -16.1046 N   0  0  0  0  0  0  0  0  0  0  0  0
   22.1313  -21.7025  -14.6705 C   0  0  0  0  0  0  0  0  0  0  0  0
   22.2582  -20.9247  -13.7183 O   0  0  0  0  0  0  0  0  0  0  0  0
   25.6426  -26.9918  -18.4412 N   0  0  0  0  0  0  0  0  0  0  0  0
   21.0570  -22.6704  -14.4968 C   0  0  2  0  0  0  0  0  0  0  0  0
   20.2581  -22.6889  -13.2729 C   0  0  0  0  0  0  0  0  0  0  0  0
   19.4733  -21.4025  -13.1196 C   0  0  0  0  0  0  0  0  0  0  0  0
   18.1759  -21.5261  -13.8336 C   0  0  0  0  0  0  0  0  0  0  0  0
   17.2993  -20.3042  -13.7635 C   0  0  0  0  0  0  0  0  0  0  0  0
   16.0753  -20.3601  -14.6098 N   0  0  0  0  0  0  0  0  0  0  0  0
   15.3417  -19.1134  -14.3935 C   0  0  0  0  0  0  0  0  0  0  0  0
   19.3548  -23.8657  -13.3620 O   0  0  0  0  0  0  0  0  0  0  0  0
   18.6366  -24.2990  -12.2591 O   0  0  0  0  0  0  0  0  0  0  0  0
  2  1  1  6
  3  2  1  0
  4  3  1  0
  4  5  2  0
  6  5  1  0
  7 12  2  0
  7  6  1  0
  8  7  1  0
  9 10  1  0
  9  8  2  0
 10 11  2  0
 11 12  1  0
 12  4  1  0
 13  2  1  0
 14 13  2  0
 15 16  1  0
 16 17  2  0
 18 16  1  0
 18 19  1  0
 20 21  1  0
 20 19  1  0
 22 21  1  1
 22 23  1  0
 22 24  1  0
 23 13  1  0
 24 25  2  0
 26 24  1  0
 26 27  1  0
 27 33  1  0
 27 28  1  6
 29 28  1  0
 30 29  1  0
 31 30  1  0
 31 32  1  0
 33 34  1  0
 35 33  2  0
M  END
$$$$
