EDA.pdb
     RDKit          3D

 23 22  0  0  1  0  0  0  0  0999 V2000
   14.4637  -16.4858   17.6182 N   0  0  0  0  0  0  0  0  0  0  0  0
   14.5753  -15.0162   17.7877 C   0  0  1  0  0  0  0  0  0  0  0  0
   14.8525  -14.4707   16.4484 C   0  0  0  0  0  0  0  0  0  0  0  0
   16.1321  -14.8295   15.7767 C   0  0  0  0  0  0  0  0  0  0  0  0
   16.3236  -14.2921   14.4276 C   0  0  0  0  0  0  0  0  0  0  0  0
   17.4014  -13.8360   13.9898 O   0  0  0  0  0  0  0  0  0  0  0  0
   13.4658  -14.5585   18.5761 C   0  0  0  0  0  0  0  0  0  0  0  0
   13.4400  -13.3825   19.0876 O   0  0  0  0  0  0  0  0  0  0  0  0
   15.1949  -14.3000   13.5769 O   0  0  0  0  0  0  0  0  0  0  0  0
   12.2852  -15.3396   18.8713 N   0  0  0  0  0  0  0  0  0  0  0  0
   11.1782  -14.7949   19.6106 C   0  0  1  0  0  0  0  0  0  0  0  0
    9.8998  -15.3302   19.0076 C   0  0  0  0  0  0  0  0  0  0  0  0
    9.6561  -14.9306   17.6269 C   0  0  0  0  0  0  0  0  0  0  0  0
   10.4009  -14.0621   17.1099 O   0  0  0  0  0  0  0  0  0  0  0  0
   11.2260  -15.1640   21.0528 C   0  0  0  0  0  0  0  0  0  0  0  0
   10.3120  -14.7786   21.8262 O   0  0  0  0  0  0  0  0  0  0  0  0
    8.6444  -15.4527   16.8394 O   0  0  0  0  0  0  0  0  0  0  0  0
   12.1114  -17.7697   23.2452 C   0  0  0  0  0  0  0  0  0  0  0  0
   12.3630  -16.3272   22.9849 C   0  0  2  0  0  0  0  0  0  0  0  0
   12.2645  -15.9402   21.6131 N   0  0  0  0  0  0  0  0  0  0  0  0
   13.6395  -15.8501   23.5599 C   0  0  0  0  0  0  0  0  0  0  0  0
   13.8383  -15.9349   24.9212 O   0  0  0  0  0  0  0  0  0  0  0  0
   14.5193  -15.3766   22.8015 O   0  0  0  0  0  0  0  0  0  0  0  0
  2  1  1  6
  2  3  1  0
  3  4  1  0
  4  5  1  0
  5  6  2  0
  5  9  1  0
  7 10  1  0
  7  2  1  0
  8  7  2  0
 11 10  1  0
 11 15  1  0
 11 12  1  6
 13 14  2  0
 13 12  1  0
 15 20  1  0
 16 15  2  0
 17 13  1  0
 19 18  1  6
 19 21  1  0
 20 19  1  0
 21 23  2  0
 21 22  1  0
M  END
$$$$
