EDA.pdb
     RDKit          3D

 23 22  0  0  1  0  0  0  0  0999 V2000
   12.9411  -20.0530   19.8996 N   0  0  0  0  0  0  0  0  0  0  0  0
   13.9981  -19.9973   20.9392 C   0  0  1  0  0  0  0  0  0  0  0  0
   15.2088  -19.5004   20.2643 C   0  0  0  0  0  0  0  0  0  0  0  0
   15.0747  -18.4135   19.2553 C   0  0  0  0  0  0  0  0  0  0  0  0
   16.3184  -17.9604   18.6282 C   0  0  0  0  0  0  0  0  0  0  0  0
   16.6687  -18.2373   17.4611 O   0  0  0  0  0  0  0  0  0  0  0  0
   13.4631  -19.3516   22.1051 C   0  0  0  0  0  0  0  0  0  0  0  0
   14.1890  -19.1037   23.1330 O   0  0  0  0  0  0  0  0  0  0  0  0
   17.1679  -17.1529   19.4180 O   0  0  0  0  0  0  0  0  0  0  0  0
   12.0924  -18.9148   22.2506 N   0  0  0  0  0  0  0  0  0  0  0  0
   11.6303  -18.2417   23.4348 C   0  0  1  0  0  0  0  0  0  0  0  0
   10.3422  -17.5264   23.0980 C   0  0  0  0  0  0  0  0  0  0  0  0
   10.4703  -16.4592   22.1131 C   0  0  0  0  0  0  0  0  0  0  0  0
   11.6160  -16.1525   21.7016 O   0  0  0  0  0  0  0  0  0  0  0  0
   11.3813  -19.1855   24.5598 C   0  0  0  0  0  0  0  0  0  0  0  0
   10.6695  -20.2055   24.3727 O   0  0  0  0  0  0  0  0  0  0  0  0
    9.3976  -15.7532   21.5961 O   0  0  0  0  0  0  0  0  0  0  0  0
   12.7075  -20.9535   27.1047 C   0  0  0  0  0  0  0  0  0  0  0  0
   11.7066  -19.8616   26.9715 C   0  0  2  0  0  0  0  0  0  0  0  0
   11.9118  -18.9942   25.8548 N   0  0  0  0  0  0  0  0  0  0  0  0
   11.5463  -19.0699   28.2105 C   0  0  0  0  0  0  0  0  0  0  0  0
   11.2032  -19.7126   29.3806 O   0  0  0  0  0  0  0  0  0  0  0  0
   11.7245  -17.8288   28.1773 O   0  0  0  0  0  0  0  0  0  0  0  0
  2  1  1  6
  2  3  1  0
  3  4  1  0
  4  5  1  0
  5  6  2  0
  5  9  1  0
  7 10  1  0
  7  2  1  0
  8  7  2  0
 11 10  1  0
 11 15  1  0
 11 12  1  6
 13 14  2  0
 13 12  1  0
 15 20  1  0
 16 15  2  0
 17 13  1  0
 19 18  1  1
 19 21  1  0
 20 19  1  0
 21 23  2  0
 21 22  1  0
M  END
$$$$
