EDA.pdb
     RDKit          3D

 23 22  0  0  1  0  0  0  0  0999 V2000
   10.1533  -13.5100   19.8005 N   0  0  0  0  0  0  0  0  0  0  0  0
    8.8036  -13.1564   20.3047 C   0  0  1  0  0  0  0  0  0  0  0  0
    7.9004  -13.2372   19.1446 C   0  0  0  0  0  0  0  0  0  0  0  0
    7.5851  -14.5746   18.5707 C   0  0  0  0  0  0  0  0  0  0  0  0
    7.7147  -14.6980   17.1170 C   0  0  0  0  0  0  0  0  0  0  0  0
    8.1765  -13.8124   16.3661 O   0  0  0  0  0  0  0  0  0  0  0  0
    8.5545  -13.8958   21.5102 C   0  0  0  0  0  0  0  0  0  0  0  0
    7.4785  -13.7370   22.1901 O   0  0  0  0  0  0  0  0  0  0  0  0
    7.2804  -15.9147   16.5438 O   0  0  0  0  0  0  0  0  0  0  0  0
    9.4530  -14.8767   22.0772 N   0  0  0  0  0  0  0  0  0  0  0  0
    9.0833  -15.6814   23.2107 C   0  0  1  0  0  0  0  0  0  0  0  0
    9.8373  -16.9886   23.1266 C   0  0  0  0  0  0  0  0  0  0  0  0
    9.3031  -17.9465   22.1661 C   0  0  0  0  0  0  0  0  0  0  0  0
    8.0589  -18.0972   22.0930 O   0  0  0  0  0  0  0  0  0  0  0  0
    9.4065  -15.0173   24.5041 C   0  0  0  0  0  0  0  0  0  0  0  0
   10.6054  -14.9147   24.8704 O   0  0  0  0  0  0  0  0  0  0  0  0
   10.0882  -18.7101   21.3195 O   0  0  0  0  0  0  0  0  0  0  0  0
    7.5885  -12.8222   26.9687 C   0  0  0  0  0  0  0  0  0  0  0  0
    8.6709  -13.7598   26.5673 C   0  0  2  0  0  0  0  0  0  0  0  0
    8.4190  -14.4843   25.3618 N   0  0  0  0  0  0  0  0  0  0  0  0
    9.0615  -14.6892   27.6496 C   0  0  0  0  0  0  0  0  0  0  0  0
    8.9546  -16.0476   27.4419 O   0  0  0  0  0  0  0  0  0  0  0  0
    9.4827  -14.2279   28.7373 O   0  0  0  0  0  0  0  0  0  0  0  0
  2  1  1  6
  2  3  1  0
  3  4  1  0
  4  5  1  0
  5  6  2  0
  5  9  1  0
  7 10  1  0
  7  2  1  0
  8  7  2  0
 11 10  1  0
 11 15  1  0
 11 12  1  6
 13 14  2  0
 13 12  1  0
 15 20  1  0
 16 15  2  0
 17 13  1  0
 19 18  1  1
 19 21  1  0
 20 19  1  0
 21 23  2  0
 21 22  1  0
M  END
$$$$
