EDA.pdb
     RDKit          3D

 23 22  0  0  1  0  0  0  0  0999 V2000
    9.9975  -18.3872   21.1392 N   0  0  0  0  0  0  0  0  0  0  0  0
   11.0893  -18.4156   22.1431 C   0  0  1  0  0  0  0  0  0  0  0  0
   12.1745  -17.5885   21.5896 C   0  0  0  0  0  0  0  0  0  0  0  0
   13.0357  -18.1569   20.5161 C   0  0  0  0  0  0  0  0  0  0  0  0
   14.1771  -17.3364   20.1044 C   0  0  0  0  0  0  0  0  0  0  0  0
   15.3632  -17.5506   20.4341 O   0  0  0  0  0  0  0  0  0  0  0  0
   10.5286  -18.1587   23.4400 C   0  0  0  0  0  0  0  0  0  0  0  0
    9.3387  -17.7017   23.5831 O   0  0  0  0  0  0  0  0  0  0  0  0
   13.8932  -16.2280   19.2746 O   0  0  0  0  0  0  0  0  0  0  0  0
   11.2129  -18.3824   24.6940 N   0  0  0  0  0  0  0  0  0  0  0  0
   10.5828  -18.1241   25.9609 C   0  0  1  0  0  0  0  0  0  0  0  0
   11.1769  -19.0654   26.9833 C   0  0  0  0  0  0  0  0  0  0  0  0
   10.6811  -18.8897   28.3430 C   0  0  0  0  0  0  0  0  0  0  0  0
    9.4932  -18.5189   28.5086 O   0  0  0  0  0  0  0  0  0  0  0  0
   10.7866  -16.7210   26.4172 C   0  0  0  0  0  0  0  0  0  0  0  0
   11.9523  -16.2568   26.5060 O   0  0  0  0  0  0  0  0  0  0  0  0
   11.4444  -19.1076   29.4771 O   0  0  0  0  0  0  0  0  0  0  0  0
    8.6581  -13.6625   27.0182 C   0  0  0  0  0  0  0  0  0  0  0  0
    9.8536  -14.5205   27.2335 C   0  0  2  0  0  0  0  0  0  0  0  0
    9.7194  -15.8632   26.7639 N   0  0  0  0  0  0  0  0  0  0  0  0
   10.3246  -14.5143   28.6356 C   0  0  0  0  0  0  0  0  0  0  0  0
   10.4638  -15.7115   29.3044 O   0  0  0  0  0  0  0  0  0  0  0  0
   10.5893  -13.4224   29.1930 O   0  0  0  0  0  0  0  0  0  0  0  0
  2  1  1  6
  2  3  1  0
  3  4  1  0
  4  5  1  0
  5  6  2  0
  5  9  1  0
  7 10  1  0
  7  2  1  0
  8  7  2  0
 11 10  1  0
 11 15  1  0
 11 12  1  1
 13 14  2  0
 13 12  1  0
 15 20  1  0
 16 15  2  0
 17 13  1  0
 19 18  1  1
 19 21  1  0
 20 19  1  0
 21 23  2  0
 21 22  1  0
M  END
$$$$
