EDA.pdb
     RDKit          3D

 23 22  0  0  1  0  0  0  0  0999 V2000
   15.6885  -21.0642   19.3439 N   0  0  0  0  0  0  0  0  0  0  0  0
   16.0224  -19.6278   19.5059 C   0  0  1  0  0  0  0  0  0  0  0  0
   16.5991  -19.1955   18.2218 C   0  0  0  0  0  0  0  0  0  0  0  0
   15.7151  -19.1193   17.0260 C   0  0  0  0  0  0  0  0  0  0  0  0
   16.3651  -18.7453   15.7678 C   0  0  0  0  0  0  0  0  0  0  0  0
   15.7837  -18.6572   14.6653 O   0  0  0  0  0  0  0  0  0  0  0  0
   14.8967  -18.9572   20.0935 C   0  0  0  0  0  0  0  0  0  0  0  0
   14.9518  -17.7243   20.4428 O   0  0  0  0  0  0  0  0  0  0  0  0
   17.7498  -18.4683   15.8286 O   0  0  0  0  0  0  0  0  0  0  0  0
   13.6114  -19.5694   20.3466 N   0  0  0  0  0  0  0  0  0  0  0  0
   12.5275  -18.8409   20.9493 C   0  0  1  0  0  0  0  0  0  0  0  0
   11.2656  -19.1489   20.1766 C   0  0  0  0  0  0  0  0  0  0  0  0
   10.0653  -18.4827   20.6674 C   0  0  0  0  0  0  0  0  0  0  0  0
   10.1803  -17.6275   21.5793 O   0  0  0  0  0  0  0  0  0  0  0  0
   12.3241  -19.2104   22.3778 C   0  0  0  0  0  0  0  0  0  0  0  0
   11.3814  -18.6909   23.0285 O   0  0  0  0  0  0  0  0  0  0  0  0
    8.7916  -18.7350   20.1876 O   0  0  0  0  0  0  0  0  0  0  0  0
   12.4006  -21.7939   24.7048 C   0  0  0  0  0  0  0  0  0  0  0  0
   13.0432  -20.4791   24.4398 C   0  0  2  0  0  0  0  0  0  0  0  0
   13.1500  -20.1326   23.0579 N   0  0  0  0  0  0  0  0  0  0  0  0
   14.3556  -20.3324   25.1061 C   0  0  0  0  0  0  0  0  0  0  0  0
   14.4415  -20.5085   26.4705 O   0  0  0  0  0  0  0  0  0  0  0  0
   15.3676  -20.0503   24.4209 O   0  0  0  0  0  0  0  0  0  0  0  0
  2  1  1  6
  2  3  1  0
  3  4  1  0
  4  5  1  0
  5  6  2  0
  5  9  1  0
  7 10  1  0
  7  2  1  0
  8  7  2  0
 11 10  1  0
 11 15  1  0
 11 12  1  6
 13 14  2  0
 13 12  1  0
 15 20  1  0
 16 15  2  0
 17 13  1  0
 19 18  1  6
 19 21  1  0
 20 19  1  0
 21 23  2  0
 21 22  1  0
M  END
$$$$
