EDA.pdb
     RDKit          3D

 23 22  0  0  1  0  0  0  0  0999 V2000
   12.0788  -18.6593   16.2908 N   0  0  0  0  0  0  0  0  0  0  0  0
   11.7257  -17.3276   16.8411 C   0  0  1  0  0  0  0  0  0  0  0  0
   10.2685  -17.3461   17.0519 C   0  0  0  0  0  0  0  0  0  0  0  0
    9.7139  -18.1606   18.1683 C   0  0  0  0  0  0  0  0  0  0  0  0
    8.2604  -18.1099   18.3417 C   0  0  0  0  0  0  0  0  0  0  0  0
    7.6263  -18.7339   19.2191 O   0  0  0  0  0  0  0  0  0  0  0  0
   12.6396  -17.0115   17.9028 C   0  0  0  0  0  0  0  0  0  0  0  0
   13.2760  -17.9245   18.5406 O   0  0  0  0  0  0  0  0  0  0  0  0
    7.5437  -17.2897   17.4409 O   0  0  0  0  0  0  0  0  0  0  0  0
   12.9443  -15.6734   18.3584 N   0  0  0  0  0  0  0  0  0  0  0  0
   13.9068  -15.4247   19.3979 C   0  0  1  0  0  0  0  0  0  0  0  0
   14.5823  -14.1040   19.1084 C   0  0  0  0  0  0  0  0  0  0  0  0
   15.5508  -14.1337   18.0192 C   0  0  0  0  0  0  0  0  0  0  0  0
   16.1690  -15.2023   17.7908 O   0  0  0  0  0  0  0  0  0  0  0  0
   13.2780  -15.3626   20.7467 C   0  0  0  0  0  0  0  0  0  0  0  0
   13.9996  -15.2062   21.7650 O   0  0  0  0  0  0  0  0  0  0  0  0
   15.8368  -13.0470   17.2107 O   0  0  0  0  0  0  0  0  0  0  0  0
    9.8296  -14.9393   22.1863 C   0  0  0  0  0  0  0  0  0  0  0  0
   11.2275  -15.4462   22.2189 C   0  0  2  0  0  0  0  0  0  0  0  0
   11.8846  -15.4722   20.9505 N   0  0  0  0  0  0  0  0  0  0  0  0
   11.3501  -16.7612   22.8848 C   0  0  0  0  0  0  0  0  0  0  0  0
   10.9518  -16.8908   24.1980 O   0  0  0  0  0  0  0  0  0  0  0  0
   11.8139  -17.7358   22.2458 O   0  0  0  0  0  0  0  0  0  0  0  0
  2  1  1  1
  2  3  1  0
  3  4  1  0
  4  5  1  0
  5  6  2  0
  5  9  1  0
  7 10  1  0
  7  2  1  0
  8  7  2  0
 11 10  1  0
 11 15  1  0
 11 12  1  6
 13 14  2  0
 13 12  1  0
 15 20  1  0
 16 15  2  0
 17 13  1  0
 19 18  1  6
 19 21  1  0
 20 19  1  0
 21 23  2  0
 21 22  1  0
M  END
$$$$
