EDA.pdb
     RDKit          3D

 23 22  0  0  1  0  0  0  0  0999 V2000
    8.3219  -18.2430   18.8106 N   0  0  0  0  0  0  0  0  0  0  0  0
    9.4123  -17.2437   18.9260 C   0  0  1  0  0  0  0  0  0  0  0  0
    8.8525  -15.9707   18.4420 C   0  0  0  0  0  0  0  0  0  0  0  0
    8.1171  -15.0986   19.3991 C   0  0  0  0  0  0  0  0  0  0  0  0
    7.7471  -13.7700   18.9056 C   0  0  0  0  0  0  0  0  0  0  0  0
    7.2263  -13.5440   17.7925 O   0  0  0  0  0  0  0  0  0  0  0  0
   10.0086  -17.3617   20.2272 C   0  0  0  0  0  0  0  0  0  0  0  0
    9.3625  -17.8430   21.2252 O   0  0  0  0  0  0  0  0  0  0  0  0
    8.0067  -12.6800   19.7671 O   0  0  0  0  0  0  0  0  0  0  0  0
   11.3621  -16.9710   20.5531 N   0  0  0  0  0  0  0  0  0  0  0  0
   11.9111  -17.1567   21.8695 C   0  0  1  0  0  0  0  0  0  0  0  0
   13.3554  -16.7120   21.8447 C   0  0  0  0  0  0  0  0  0  0  0  0
   14.0712  -16.8746   23.1043 C   0  0  0  0  0  0  0  0  0  0  0  0
   13.9098  -17.9347   23.7572 O   0  0  0  0  0  0  0  0  0  0  0  0
   11.1795  -16.3716   22.9024 C   0  0  0  0  0  0  0  0  0  0  0  0
   11.1671  -15.1155   22.8386 O   0  0  0  0  0  0  0  0  0  0  0  0
   14.9274  -15.9244   23.6338 O   0  0  0  0  0  0  0  0  0  0  0  0
    8.3561  -16.4003   25.0611 C   0  0  0  0  0  0  0  0  0  0  0  0
    9.8378  -16.2738   25.0399 C   0  0  2  0  0  0  0  0  0  0  0  0
   10.4832  -16.9730   23.9741 N   0  0  0  0  0  0  0  0  0  0  0  0
   10.4662  -16.6214   26.3331 C   0  0  0  0  0  0  0  0  0  0  0  0
   10.0603  -15.9672   27.4764 O   0  0  0  0  0  0  0  0  0  0  0  0
   11.3567  -17.5040   26.3691 O   0  0  0  0  0  0  0  0  0  0  0  0
  2  1  1  1
  2  3  1  0
  3  4  1  0
  4  5  1  0
  5  6  2  0
  5  9  1  0
  7 10  1  0
  7  2  1  0
  8  7  2  0
 11 10  1  0
 11 15  1  0
 11 12  1  6
 13 14  2  0
 13 12  1  0
 15 20  1  0
 16 15  2  0
 17 13  1  0
 19 18  1  1
 19 21  1  0
 20 19  1  0
 21 23  2  0
 21 22  1  0
M  END
$$$$
