EDA.pdb
     RDKit          3D

 23 22  0  0  1  0  0  0  0  0999 V2000
    7.8729  -13.3483   19.0193 N   0  0  0  0  0  0  0  0  0  0  0  0
    8.7699  -14.2142   19.8235 C   0  0  1  0  0  0  0  0  0  0  0  0
   10.1179  -13.6356   19.6960 C   0  0  0  0  0  0  0  0  0  0  0  0
   11.2335  -14.2322   20.4814 C   0  0  0  0  0  0  0  0  0  0  0  0
   12.4925  -14.4337   19.7604 C   0  0  0  0  0  0  0  0  0  0  0  0
   13.2456  -13.5148   19.3731 O   0  0  0  0  0  0  0  0  0  0  0  0
    8.1624  -14.4417   21.1047 C   0  0  0  0  0  0  0  0  0  0  0  0
    7.5207  -13.5182   21.7217 O   0  0  0  0  0  0  0  0  0  0  0  0
   12.8626  -15.7716   19.4947 O   0  0  0  0  0  0  0  0  0  0  0  0
    8.1962  -15.6963   21.8228 N   0  0  0  0  0  0  0  0  0  0  0  0
    7.5286  -15.8681   23.0853 C   0  0  1  0  0  0  0  0  0  0  0  0
    7.3703  -17.3501   23.3366 C   0  0  0  0  0  0  0  0  0  0  0  0
    6.7269  -17.6949   24.5986 C   0  0  0  0  0  0  0  0  0  0  0  0
    6.1542  -16.7882   25.2512 O   0  0  0  0  0  0  0  0  0  0  0  0
    8.2900  -15.2634   24.2135 C   0  0  0  0  0  0  0  0  0  0  0  0
    9.5462  -15.3251   24.2226 O   0  0  0  0  0  0  0  0  0  0  0  0
    6.7064  -18.9728   25.1306 O   0  0  0  0  0  0  0  0  0  0  0  0
    7.5948  -12.8160   26.9756 C   0  0  0  0  0  0  0  0  0  0  0  0
    8.3423  -13.9504   26.3704 C   0  0  2  0  0  0  0  0  0  0  0  0
    7.6655  -14.6097   25.2987 N   0  0  0  0  0  0  0  0  0  0  0  0
    8.8009  -14.9393   27.3701 C   0  0  0  0  0  0  0  0  0  0  0  0
    9.6168  -14.5257   28.4013 O   0  0  0  0  0  0  0  0  0  0  0  0
    8.4413  -16.1362   27.2642 O   0  0  0  0  0  0  0  0  0  0  0  0
  2  1  1  6
  2  3  1  0
  3  4  1  0
  4  5  1  0
  5  6  2  0
  5  9  1  0
  7 10  1  0
  7  2  1  0
  8  7  2  0
 11 10  1  0
 11 15  1  0
 11 12  1  1
 13 14  2  0
 13 12  1  0
 15 20  1  0
 16 15  2  0
 17 13  1  0
 19 18  1  1
 19 21  1  0
 20 19  1  0
 21 23  2  0
 21 22  1  0
M  END
$$$$
