EDA.pdb
     RDKit          3D

 23 22  0  0  1  0  0  0  0  0999 V2000
   10.0504  -18.3685   17.7896 N   0  0  0  0  0  0  0  0  0  0  0  0
   10.7722  -19.6546   17.9502 C   0  0  1  0  0  0  0  0  0  0  0  0
   11.3343  -19.9752   16.6275 C   0  0  0  0  0  0  0  0  0  0  0  0
   12.4441  -19.1370   16.0956 C   0  0  0  0  0  0  0  0  0  0  0  0
   12.9827  -19.5337   14.7925 C   0  0  0  0  0  0  0  0  0  0  0  0
   12.8241  -20.6572   14.2691 O   0  0  0  0  0  0  0  0  0  0  0  0
   11.5965  -19.5762   19.1235 C   0  0  0  0  0  0  0  0  0  0  0  0
   11.2456  -20.1156   20.2330 O   0  0  0  0  0  0  0  0  0  0  0  0
   13.7323  -18.5598   14.0944 O   0  0  0  0  0  0  0  0  0  0  0  0
   12.8774  -18.9083   19.1890 N   0  0  0  0  0  0  0  0  0  0  0  0
   13.6869  -18.9308   20.3776 C   0  0  1  0  0  0  0  0  0  0  0  0
   15.1238  -19.1537   19.9651 C   0  0  0  0  0  0  0  0  0  0  0  0
   16.0547  -19.3657   21.0669 C   0  0  0  0  0  0  0  0  0  0  0  0
   15.5929  -19.5473   22.2201 O   0  0  0  0  0  0  0  0  0  0  0  0
   13.5950  -17.6591   21.1476 C   0  0  0  0  0  0  0  0  0  0  0  0
   14.0982  -16.6069   20.6768 O   0  0  0  0  0  0  0  0  0  0  0  0
   17.4313  -19.3797   20.9223 O   0  0  0  0  0  0  0  0  0  0  0  0
   11.4478  -16.2692   23.8423 C   0  0  0  0  0  0  0  0  0  0  0  0
   12.7594  -16.3623   23.1474 C   0  0  2  0  0  0  0  0  0  0  0  0
   12.9599  -17.5671   22.4059 N   0  0  0  0  0  0  0  0  0  0  0  0
   13.9085  -16.1186   24.0463 C   0  0  0  0  0  0  0  0  0  0  0  0
   14.0909  -14.8610   24.5801 O   0  0  0  0  0  0  0  0  0  0  0  0
   14.6974  -17.0579   24.3081 O   0  0  0  0  0  0  0  0  0  0  0  0
  2  1  1  6
  2  3  1  0
  3  4  1  0
  4  5  1  0
  5  6  2  0
  5  9  1  0
  7 10  1  0
  7  2  1  0
  8  7  2  0
 11 10  1  0
 11 15  1  0
 11 12  1  6
 13 14  2  0
 13 12  1  0
 15 20  1  0
 16 15  2  0
 17 13  1  0
 19 18  1  1
 19 21  1  0
 20 19  1  0
 21 23  2  0
 21 22  1  0
M  END
$$$$
