EDA.pdb
     RDKit          3D

 23 22  0  0  1  0  0  0  0  0999 V2000
    8.2002  -16.7304   19.8697 N   0  0  0  0  0  0  0  0  0  0  0  0
    8.8126  -17.4889   20.9880 C   0  0  1  0  0  0  0  0  0  0  0  0
   10.2697  -17.3798   20.8056 C   0  0  0  0  0  0  0  0  0  0  0  0
   11.0084  -16.3152   21.5392 C   0  0  0  0  0  0  0  0  0  0  0  0
   12.4613  -16.2956   21.3543 C   0  0  0  0  0  0  0  0  0  0  0  0
   13.2354  -15.4724   21.8878 O   0  0  0  0  0  0  0  0  0  0  0  0
    8.1724  -17.0994   22.2130 C   0  0  0  0  0  0  0  0  0  0  0  0
    7.3859  -16.0880   22.2723 O   0  0  0  0  0  0  0  0  0  0  0  0
   13.0051  -17.2883   20.5078 O   0  0  0  0  0  0  0  0  0  0  0  0
    8.3286  -17.7810   23.4787 N   0  0  0  0  0  0  0  0  0  0  0  0
    7.6357  -17.3523   24.6639 C   0  0  1  0  0  0  0  0  0  0  0  0
    7.5747  -18.5194   25.6223 C   0  0  0  0  0  0  0  0  0  0  0  0
    6.8184  -18.2736   26.8442 C   0  0  0  0  0  0  0  0  0  0  0  0
    6.1617  -17.2082   26.9430 O   0  0  0  0  0  0  0  0  0  0  0  0
    8.3166  -16.2095   25.3339 C   0  0  0  0  0  0  0  0  0  0  0  0
    9.5680  -16.2161   25.4606 O   0  0  0  0  0  0  0  0  0  0  0  0
    6.7771  -19.1491   27.9157 O   0  0  0  0  0  0  0  0  0  0  0  0
    7.2823  -12.8250   26.7273 C   0  0  0  0  0  0  0  0  0  0  0  0
    8.2200  -13.9454   26.4490 C   0  0  2  0  0  0  0  0  0  0  0  0
    7.6193  -15.0934   25.8468 N   0  0  0  0  0  0  0  0  0  0  0  0
    9.0110  -14.3448   27.6333 C   0  0  0  0  0  0  0  0  0  0  0  0
    9.8425  -13.4217   28.2303 O   0  0  0  0  0  0  0  0  0  0  0  0
    8.9134  -15.5148   28.0748 O   0  0  0  0  0  0  0  0  0  0  0  0
  2  1  1  6
  2  3  1  0
  3  4  1  0
  4  5  1  0
  5  6  2  0
  5  9  1  0
  7 10  1  0
  7  2  1  0
  8  7  2  0
 11 10  1  0
 11 15  1  0
 11 12  1  1
 13 14  2  0
 13 12  1  0
 15 20  1  0
 16 15  2  0
 17 13  1  0
 19 18  1  1
 19 21  1  0
 20 19  1  0
 21 23  2  0
 21 22  1  0
M  END
$$$$
