EDA.pdb
     RDKit          3D

 23 22  0  0  1  0  0  0  0  0999 V2000
    7.0260  -14.3769   19.5818 N   0  0  0  0  0  0  0  0  0  0  0  0
    8.1140  -14.2000   20.5748 C   0  0  1  0  0  0  0  0  0  0  0  0
    8.5646  -12.8044   20.4426 C   0  0  0  0  0  0  0  0  0  0  0  0
    9.4496  -12.4396   19.3021 C   0  0  0  0  0  0  0  0  0  0  0  0
   10.7600  -13.0934   19.2695 C   0  0  0  0  0  0  0  0  0  0  0  0
   10.9699  -14.2453   18.8333 O   0  0  0  0  0  0  0  0  0  0  0  0
    7.6803  -14.7389   21.8332 C   0  0  0  0  0  0  0  0  0  0  0  0
    6.5482  -14.4253   22.3483 O   0  0  0  0  0  0  0  0  0  0  0  0
   11.8513  -12.3491   19.7725 O   0  0  0  0  0  0  0  0  0  0  0  0
    8.4393  -15.6706   22.6375 N   0  0  0  0  0  0  0  0  0  0  0  0
    8.0283  -16.0393   23.9656 C   0  0  1  0  0  0  0  0  0  0  0  0
    8.1750  -17.5370   24.1056 C   0  0  0  0  0  0  0  0  0  0  0  0
    7.7898  -18.0744   25.4049 C   0  0  0  0  0  0  0  0  0  0  0  0
    7.1421  -17.3421   26.1925 O   0  0  0  0  0  0  0  0  0  0  0  0
    8.8465  -15.3714   25.0158 C   0  0  0  0  0  0  0  0  0  0  0  0
   10.0810  -15.6021   25.0855 O   0  0  0  0  0  0  0  0  0  0  0  0
    8.0959  -19.3551   25.8320 O   0  0  0  0  0  0  0  0  0  0  0  0
    8.3913  -12.4855   27.3999 C   0  0  0  0  0  0  0  0  0  0  0  0
    9.0464  -13.7348   26.9291 C   0  0  2  0  0  0  0  0  0  0  0  0
    8.3008  -14.4732   25.9594 N   0  0  0  0  0  0  0  0  0  0  0  0
    9.4629  -14.6220   28.0369 C   0  0  0  0  0  0  0  0  0  0  0  0
   10.3946  -14.1709   28.9470 O   0  0  0  0  0  0  0  0  0  0  0  0
    8.9632  -15.7686   28.1306 O   0  0  0  0  0  0  0  0  0  0  0  0
  2  1  1  6
  2  3  1  0
  3  4  1  0
  4  5  1  0
  5  6  2  0
  5  9  1  0
  7 10  1  0
  7  2  1  0
  8  7  2  0
 11 10  1  0
 11 15  1  0
 11 12  1  6
 13 14  2  0
 13 12  1  0
 15 20  1  0
 16 15  2  0
 17 13  1  0
 19 18  1  1
 19 21  1  0
 20 19  1  0
 21 23  2  0
 21 22  1  0
M  END
$$$$
