EDA.pdb
     RDKit          3D

 23 22  0  0  1  0  0  0  0  0999 V2000
    9.8509  -14.0011   17.2189 N   0  0  0  0  0  0  0  0  0  0  0  0
    9.9974  -15.4768   17.2616 C   0  0  1  0  0  0  0  0  0  0  0  0
    9.9231  -15.9351   15.8642 C   0  0  0  0  0  0  0  0  0  0  0  0
   11.0919  -15.7079   14.9700 C   0  0  0  0  0  0  0  0  0  0  0  0
   10.9900  -16.2715   13.6219 C   0  0  0  0  0  0  0  0  0  0  0  0
   10.0379  -16.9696   13.2126 O   0  0  0  0  0  0  0  0  0  0  0  0
   11.1112  -15.8042   18.1068 C   0  0  0  0  0  0  0  0  0  0  0  0
   11.3287  -17.0046   18.5030 O   0  0  0  0  0  0  0  0  0  0  0  0
   12.0563  -15.9927   12.7371 O   0  0  0  0  0  0  0  0  0  0  0  0
   12.0884  -14.8538   18.5894 N   0  0  0  0  0  0  0  0  0  0  0  0
   13.2337  -15.2639   19.3568 C   0  0  1  0  0  0  0  0  0  0  0  0
   14.3897  -14.3588   18.9983 C   0  0  0  0  0  0  0  0  0  0  0  0
   15.0116  -14.6360   17.7092 C   0  0  0  0  0  0  0  0  0  0  0  0
   14.9552  -15.8034   17.2509 O   0  0  0  0  0  0  0  0  0  0  0  0
   12.9895  -15.1811   20.8238 C   0  0  0  0  0  0  0  0  0  0  0  0
   13.5994  -14.3215   21.5103 O   0  0  0  0  0  0  0  0  0  0  0  0
   15.6685  -13.6841   16.9485 O   0  0  0  0  0  0  0  0  0  0  0  0
   10.3470  -15.7185   23.2034 C   0  0  0  0  0  0  0  0  0  0  0  0
   11.7799  -15.9709   22.8955 C   0  0  2  0  0  0  0  0  0  0  0  0
   12.0909  -16.0337   21.5024 N   0  0  0  0  0  0  0  0  0  0  0  0
   12.3208  -17.1574   23.5936 C   0  0  0  0  0  0  0  0  0  0  0  0
   12.3725  -17.1629   24.9710 O   0  0  0  0  0  0  0  0  0  0  0  0
   12.7234  -18.1379   22.9229 O   0  0  0  0  0  0  0  0  0  0  0  0
  2  1  1  6
  2  3  1  0
  3  4  1  0
  4  5  1  0
  5  6  2  0
  5  9  1  0
  7 10  1  0
  7  2  1  0
  8  7  2  0
 11 10  1  0
 11 15  1  0
 11 12  1  1
 13 14  2  0
 13 12  1  0
 15 20  1  0
 16 15  2  0
 17 13  1  0
 19 18  1  6
 19 21  1  0
 20 19  1  0
 21 23  2  0
 21 22  1  0
M  END
$$$$
