EDA.pdb
     RDKit          3D

 23 22  0  0  1  0  0  0  0  0999 V2000
   10.1489  -16.6221   20.2411 N   0  0  0  0  0  0  0  0  0  0  0  0
    8.9090  -15.8188   20.3762 C   0  0  1  0  0  0  0  0  0  0  0  0
    8.0231  -16.2482   19.2811 C   0  0  0  0  0  0  0  0  0  0  0  0
    8.5003  -17.2993   18.3405 C   0  0  0  0  0  0  0  0  0  0  0  0
    8.2304  -17.0628   16.9204 C   0  0  0  0  0  0  0  0  0  0  0  0
    9.0522  -16.5839   16.1101 O   0  0  0  0  0  0  0  0  0  0  0  0
    8.4864  -15.8522   21.7483 C   0  0  0  0  0  0  0  0  0  0  0  0
    7.3877  -15.3115   22.1301 O   0  0  0  0  0  0  0  0  0  0  0  0
    6.9415  -17.4087   16.4549 O   0  0  0  0  0  0  0  0  0  0  0  0
    9.2207  -16.4822   22.8228 N   0  0  0  0  0  0  0  0  0  0  0  0
    8.7068  -16.5374   24.1651 C   0  0  1  0  0  0  0  0  0  0  0  0
    9.3809  -17.6852   24.8809 C   0  0  0  0  0  0  0  0  0  0  0  0
    8.9960  -17.8508   26.2773 C   0  0  0  0  0  0  0  0  0  0  0  0
    7.8061  -17.6227   26.6061 O   0  0  0  0  0  0  0  0  0  0  0  0
    8.9615  -15.2786   24.9194 C   0  0  0  0  0  0  0  0  0  0  0  0
   10.1409  -14.8666   25.0658 O   0  0  0  0  0  0  0  0  0  0  0  0
    9.8681  -18.2478   27.2764 O   0  0  0  0  0  0  0  0  0  0  0  0
    7.0017  -12.3432   26.2032 C   0  0  0  0  0  0  0  0  0  0  0  0
    8.1148  -13.3265   26.2801 C   0  0  2  0  0  0  0  0  0  0  0  0
    7.9288  -14.5043   25.4929 N   0  0  0  0  0  0  0  0  0  0  0  0
    8.4690  -13.6912   27.6691 C   0  0  0  0  0  0  0  0  0  0  0  0
    8.8773  -12.7048   28.5410 O   0  0  0  0  0  0  0  0  0  0  0  0
    8.3928  -14.8896   28.0311 O   0  0  0  0  0  0  0  0  0  0  0  0
  2  1  1  1
  2  3  1  0
  3  4  1  0
  4  5  1  0
  5  6  2  0
  5  9  1  0
  7 10  1  0
  7  2  1  0
  8  7  2  0
 11 10  1  0
 11 15  1  0
 11 12  1  1
 13 14  2  0
 13 12  1  0
 15 20  1  0
 16 15  2  0
 17 13  1  0
 19 18  1  1
 19 21  1  0
 20 19  1  0
 21 23  2  0
 21 22  1  0
M  END
$$$$
