DRG.pdb
     RDKit          3D

 24 23  0  0  1  0  0  0  0  0999 V2000
   15.5057  -21.0877    1.2680 N   0  0  0  0  0  0  0  0  0  0  0  0
   15.1143  -20.6542    2.5933 C   0  0  1  0  0  0  0  0  0  0  0  0
   14.8798  -21.8597    3.4782 C   0  0  0  0  0  0  0  0  0  0  0  0
   13.7016  -22.6185    2.9913 C   0  0  0  0  0  0  0  0  0  0  0  0
   12.7873  -22.0692    2.3462 O   0  0  0  0  0  0  0  0  0  0  0  0
   16.1747  -19.7743    3.1257 C   0  0  0  0  0  0  0  0  0  0  0  0
   17.3781  -20.0555    2.9122 O   0  0  0  0  0  0  0  0  0  0  0  0
   13.5900  -23.9818    3.2485 O   0  0  0  0  0  0  0  0  0  0  0  0
   17.5549  -12.4156    5.9662 N   0  0  0  0  0  0  0  0  0  0  0  0
   18.5107  -12.3573    4.9216 C   0  0  0  0  0  0  0  0  0  0  0  0
   19.6666  -11.7623    5.0564 N   0  0  0  0  0  0  0  0  0  0  0  0
   18.2739  -12.9479    3.6370 N   0  0  0  0  0  0  0  0  0  0  0  0
   17.3661  -14.0285    3.4685 C   0  0  0  0  0  0  0  0  0  0  0  0
   17.7373  -15.3059    4.1501 C   0  0  0  0  0  0  0  0  0  0  0  0
   16.6236  -16.3112    3.8230 C   0  0  0  0  0  0  0  0  0  0  0  0
   16.9764  -17.7044    4.3183 C   0  0  2  0  0  0  0  0  0  0  0  0
   15.9340  -18.5962    3.8845 N   0  0  0  0  0  0  0  0  0  0  0  0
   17.1078  -17.6179    5.7720 C   0  0  0  0  0  0  0  0  0  0  0  0
   16.1343  -17.2270    6.4578 O   0  0  0  0  0  0  0  0  0  0  0  0
   20.3037  -11.8232    4.2340 N   0  0  0  0  0  0  0  0  0  0  0  0
   18.3091  -17.9650    6.4410 C   0  0  0  0  0  0  0  0  0  0  0  0
   18.5091  -17.7957    7.8646 C   0  0  0  0  0  0  0  0  0  0  0  0
   18.0147  -18.9772    8.6203 O   0  0  0  0  0  0  0  0  0  0  0  0
   17.4638  -19.9337    8.0236 O   0  0  0  0  0  0  0  0  0  0  0  0
  2  1  1  6
  2  3  1  0
  3  4  1  0
  4  8  1  0
  4  5  2  0
  6  2  1  0
  6  7  2  0
  9 10  1  0
 10 11  2  0
 10 12  1  0
 12 13  1  0
 13 14  1  0
 14 15  1  0
 16 15  1  1
 16 17  1  0
 17  6  1  0
 18 16  1  0
 19 18  2  0
 20 18  1  0
 21 22  1  0
 21 20  1  0
 22 24  1  0
 23 22  2  0
M  END
$$$$
