DRG.pdb
     RDKit          3D

 24 23  0  0  1  0  0  0  0  0999 V2000
   18.3650  -23.5542  -10.2357 N   0  0  0  0  0  0  0  0  0  0  0  0
   18.6488  -23.4514  -11.6522 C   0  0  1  0  0  0  0  0  0  0  0  0
   17.4270  -23.8534  -12.4501 C   0  0  0  0  0  0  0  0  0  0  0  0
   17.2643  -25.3276  -12.4108 C   0  0  0  0  0  0  0  0  0  0  0  0
   18.2451  -26.0958  -12.3682 O   0  0  0  0  0  0  0  0  0  0  0  0
   19.0678  -22.0647  -11.9420 C   0  0  0  0  0  0  0  0  0  0  0  0
   18.3848  -21.1075  -11.5064 O   0  0  0  0  0  0  0  0  0  0  0  0
   15.9927  -25.8936  -12.4209 O   0  0  0  0  0  0  0  0  0  0  0  0
   26.9992  -20.6985  -14.6382 N   0  0  0  0  0  0  0  0  0  0  0  0
   26.2671  -21.7487  -15.2460 C   0  0  0  0  0  0  0  0  0  0  0  0
   26.8273  -22.6457  -16.0141 N   0  0  0  0  0  0  0  0  0  0  0  0
   24.8535  -21.8995  -15.0616 N   0  0  0  0  0  0  0  0  0  0  0  0
   24.1349  -21.1095  -14.1237 C   0  0  0  0  0  0  0  0  0  0  0  0
   22.6489  -21.2691  -14.1377 C   0  0  0  0  0  0  0  0  0  0  0  0
   22.0982  -20.2940  -13.0869 C   0  0  0  0  0  0  0  0  0  0  0  0
   20.5812  -20.3601  -13.0158 C   0  0  2  0  0  0  0  0  0  0  0  0
   20.2201  -21.7162  -12.6984 N   0  0  0  0  0  0  0  0  0  0  0  0
   20.0750  -19.9053  -14.3101 C   0  0  0  0  0  0  0  0  0  0  0  0
   20.1926  -20.6463  -15.3141 O   0  0  0  0  0  0  0  0  0  0  0  0
   26.1805  -23.3455  -16.4359 N   0  0  0  0  0  0  0  0  0  0  0  0
   19.4484  -18.6435  -14.4719 C   0  0  0  0  0  0  0  0  0  0  0  0
   20.1685  -17.4271  -14.7834 C   0  0  0  0  0  0  0  0  0  0  0  0
   20.6795  -17.4484  -16.1798 O   0  0  0  0  0  0  0  0  0  0  0  0
   21.6629  -18.1632  -16.4903 O   0  0  0  0  0  0  0  0  0  0  0  0
  2  1  1  1
  2  3  1  0
  3  4  1  0
  4  8  1  0
  4  5  2  0
  6  2  1  0
  6  7  2  0
  9 10  1  0
 10 11  2  0
 10 12  1  0
 12 13  1  0
 13 14  1  0
 14 15  1  0
 16 15  1  6
 16 17  1  0
 17  6  1  0
 18 16  1  0
 19 18  2  0
 20 18  1  0
 21 22  1  0
 21 20  1  0
 22 24  1  0
 23 22  2  0
M  END
$$$$
