DRG.pdb
     RDKit          3D

 24 23  0  0  1  0  0  0  0  0999 V2000
   25.3705  -18.0172  -16.0313 N   0  0  0  0  0  0  0  0  0  0  0  0
   24.7395  -18.9597  -16.9320 C   0  0  1  0  0  0  0  0  0  0  0  0
   25.7875  -19.6112  -17.8086 C   0  0  0  0  0  0  0  0  0  0  0  0
   26.4618  -18.5804  -18.6355 C   0  0  0  0  0  0  0  0  0  0  0  0
   27.3688  -18.8729  -19.4391 O   0  0  0  0  0  0  0  0  0  0  0  0
   24.0001  -19.9504  -16.1234 C   0  0  0  0  0  0  0  0  0  0  0  0
   23.6931  -21.0567  -16.6280 O   0  0  0  0  0  0  0  0  0  0  0  0
   26.0902  -17.2431  -18.5303 O   0  0  0  0  0  0  0  0  0  0  0  0
   27.8154  -21.4714  -14.0553 N   0  0  0  0  0  0  0  0  0  0  0  0
   27.4775  -20.2375  -13.4458 C   0  0  0  0  0  0  0  0  0  0  0  0
   27.9979  -19.0993  -13.8230 N   0  0  0  0  0  0  0  0  0  0  0  0
   26.5383  -20.1517  -12.3662 N   0  0  0  0  0  0  0  0  0  0  0  0
   25.8036  -21.2854  -11.9246 C   0  0  0  0  0  0  0  0  0  0  0  0
   24.7746  -21.8077  -12.8746 C   0  0  0  0  0  0  0  0  0  0  0  0
   23.5330  -20.9215  -12.6989 C   0  0  0  0  0  0  0  0  0  0  0  0
   22.8233  -20.6988  -14.0247 C   0  0  2  0  0  0  0  0  0  0  0  0
   23.5958  -19.7453  -14.7757 N   0  0  0  0  0  0  0  0  0  0  0  0
   21.4704  -20.2413  -13.7108 C   0  0  0  0  0  0  0  0  0  0  0  0
   21.3042  -19.1075  -13.2030 O   0  0  0  0  0  0  0  0  0  0  0  0
   27.6869  -18.2617  -13.2867 N   0  0  0  0  0  0  0  0  0  0  0  0
   20.3276  -21.0420  -13.9637 C   0  0  0  0  0  0  0  0  0  0  0  0
   20.0216  -21.6127  -15.2582 C   0  0  0  0  0  0  0  0  0  0  0  0
   18.9821  -20.8168  -15.9636 O   0  0  0  0  0  0  0  0  0  0  0  0
   18.6049  -19.7102  -15.5080 O   0  0  0  0  0  0  0  0  0  0  0  0
  2  1  1  1
  2  3  1  0
  3  4  1  0
  4  8  1  0
  4  5  2  0
  6  2  1  0
  6  7  2  0
  9 10  1  0
 10 11  2  0
 10 12  1  0
 12 13  1  0
 13 14  1  0
 14 15  1  0
 16 15  1  1
 16 17  1  0
 17  6  1  0
 18 16  1  0
 19 18  2  0
 20 18  1  0
 21 22  1  0
 21 20  1  0
 22 24  1  0
 23 22  2  0
M  END
$$$$
