DRG.pdb
     RDKit          3D

 24 23  0  0  1  0  0  0  0  0999 V2000
   22.9389  -17.9764  -17.5013 N   0  0  0  0  0  0  0  0  0  0  0  0
   21.8033  -17.8398  -16.6127 C   0  0  1  0  0  0  0  0  0  0  0  0
   20.5269  -17.7548  -17.4219 C   0  0  0  0  0  0  0  0  0  0  0  0
   19.3670  -17.5815  -16.5133 C   0  0  0  0  0  0  0  0  0  0  0  0
   18.3098  -18.2236  -16.6677 O   0  0  0  0  0  0  0  0  0  0  0  0
   21.7969  -18.9916  -15.6877 C   0  0  0  0  0  0  0  0  0  0  0  0
   21.9704  -20.1489  -16.1383 O   0  0  0  0  0  0  0  0  0  0  0  0
   19.4354  -16.6838  -15.4517 O   0  0  0  0  0  0  0  0  0  0  0  0
   25.4870  -23.0377  -12.0651 N   0  0  0  0  0  0  0  0  0  0  0  0
   26.0202  -21.7282  -11.9692 C   0  0  0  0  0  0  0  0  0  0  0  0
   27.1907  -21.4066  -12.4538 N   0  0  0  0  0  0  0  0  0  0  0  0
   25.3100  -20.6604  -11.3286 N   0  0  0  0  0  0  0  0  0  0  0  0
   24.0728  -20.8800  -10.6643 C   0  0  0  0  0  0  0  0  0  0  0  0
   22.8921  -21.1268  -11.5469 C   0  0  0  0  0  0  0  0  0  0  0  0
   22.7501  -19.8845  -12.4383 C   0  0  0  0  0  0  0  0  0  0  0  0
   21.5824  -20.0279  -13.4009 C   0  0  2  0  0  0  0  0  0  0  0  0
   21.6044  -18.8911  -14.2825 N   0  0  0  0  0  0  0  0  0  0  0  0
   20.3702  -20.1171  -12.5880 C   0  0  0  0  0  0  0  0  0  0  0  0
   19.9465  -19.0962  -11.9972 O   0  0  0  0  0  0  0  0  0  0  0  0
   27.5058  -20.4320  -12.2620 N   0  0  0  0  0  0  0  0  0  0  0  0
   19.6485  -21.3293  -12.4434 C   0  0  0  0  0  0  0  0  0  0  0  0
   18.9034  -21.9494  -13.5183 C   0  0  0  0  0  0  0  0  0  0  0  0
   17.5709  -21.3108  -13.6859 O   0  0  0  0  0  0  0  0  0  0  0  0
   17.2547  -20.3029  -13.0089 O   0  0  0  0  0  0  0  0  0  0  0  0
  2  1  1  6
  2  3  1  0
  3  4  1  0
  4  8  1  0
  4  5  2  0
  6  2  1  0
  6  7  2  0
  9 10  1  0
 10 11  2  0
 10 12  1  0
 12 13  1  0
 13 14  1  0
 14 15  1  0
 16 15  1  1
 16 17  1  0
 17  6  1  0
 18 16  1  0
 19 18  2  0
 20 18  1  0
 21 22  1  0
 21 20  1  0
 22 24  1  0
 23 22  2  0
M  END
$$$$
