DRG.pdb
     RDKit          3D

 24 23  0  0  1  0  0  0  0  0999 V2000
   26.0868  -22.6059  -15.2371 N   0  0  0  0  0  0  0  0  0  0  0  0
   25.3400  -21.3925  -14.9772 C   0  0  1  0  0  0  0  0  0  0  0  0
   25.8253  -20.2868  -15.8898 C   0  0  0  0  0  0  0  0  0  0  0  0
   27.2459  -19.9783  -15.5934 C   0  0  0  0  0  0  0  0  0  0  0  0
   27.6661  -19.8774  -14.4242 O   0  0  0  0  0  0  0  0  0  0  0  0
   23.9042  -21.6808  -15.1715 C   0  0  0  0  0  0  0  0  0  0  0  0
   23.5448  -22.4336  -16.1078 O   0  0  0  0  0  0  0  0  0  0  0  0
   28.1546  -19.7919  -16.6312 O   0  0  0  0  0  0  0  0  0  0  0  0
   22.1898  -26.7269  -13.5123 N   0  0  0  0  0  0  0  0  0  0  0  0
   21.5302  -26.5498  -12.2705 C   0  0  0  0  0  0  0  0  0  0  0  0
   21.4075  -27.5118  -11.3942 N   0  0  0  0  0  0  0  0  0  0  0  0
   20.9469  -25.2973  -11.8883 N   0  0  0  0  0  0  0  0  0  0  0  0
   20.3218  -24.4446  -12.8382 C   0  0  0  0  0  0  0  0  0  0  0  0
   21.2417  -23.6664  -13.7226 C   0  0  0  0  0  0  0  0  0  0  0  0
   20.8696  -22.1877  -13.5412 C   0  0  0  0  0  0  0  0  0  0  0  0
   21.4647  -21.3305  -14.6466 C   0  0  2  0  0  0  0  0  0  0  0  0
   22.8633  -21.1575  -14.3565 N   0  0  0  0  0  0  0  0  0  0  0  0
   20.7099  -20.0783  -14.6662 C   0  0  0  0  0  0  0  0  0  0  0  0
   20.8675  -19.2478  -13.7408 O   0  0  0  0  0  0  0  0  0  0  0  0
   20.8137  -27.2941  -10.5659 N   0  0  0  0  0  0  0  0  0  0  0  0
   19.7973  -19.7658  -15.7057 C   0  0  0  0  0  0  0  0  0  0  0  0
   19.1034  -18.4995  -15.8067 C   0  0  0  0  0  0  0  0  0  0  0  0
   17.8920  -18.4809  -14.9442 O   0  0  0  0  0  0  0  0  0  0  0  0
   17.6098  -19.4630  -14.2162 O   0  0  0  0  0  0  0  0  0  0  0  0
  2  1  1  6
  2  3  1  0
  3  4  1  0
  4  8  1  0
  4  5  2  0
  6  2  1  0
  6  7  2  0
  9 10  1  0
 10 11  2  0
 10 12  1  0
 12 13  1  0
 13 14  1  0
 14 15  1  0
 16 15  1  1
 16 17  1  0
 17  6  1  0
 18 16  1  0
 19 18  2  0
 20 18  1  0
 21 22  1  0
 21 20  1  0
 22 24  1  0
 23 22  2  0
M  END
$$$$
