DRG.pdb
     RDKit          3D

 24 23  0  0  1  0  0  0  0  0999 V2000
   24.5929  -11.7634  -16.9805 N   0  0  0  0  0  0  0  0  0  0  0  0
   24.8579  -10.7635  -15.9668 C   0  0  1  0  0  0  0  0  0  0  0  0
   26.2347  -10.1714  -16.1787 C   0  0  0  0  0  0  0  0  0  0  0  0
   27.2673  -11.2181  -15.9807 C   0  0  0  0  0  0  0  0  0  0  0  0
   26.9653  -12.3927  -15.6930 O   0  0  0  0  0  0  0  0  0  0  0  0
   23.7970   -9.7379  -16.0383 C   0  0  0  0  0  0  0  0  0  0  0  0
   23.3986   -9.3359  -17.1574 O   0  0  0  0  0  0  0  0  0  0  0  0
   28.6172  -10.9059  -16.1141 O   0  0  0  0  0  0  0  0  0  0  0  0
   16.8125  -12.2824  -14.5043 N   0  0  0  0  0  0  0  0  0  0  0  0
   17.5216  -12.5058  -15.7108 C   0  0  0  0  0  0  0  0  0  0  0  0
   17.1462  -13.3921  -16.5951 N   0  0  0  0  0  0  0  0  0  0  0  0
   18.7073  -11.7731  -16.0457 N   0  0  0  0  0  0  0  0  0  0  0  0
   19.2035  -10.7350  -15.2113 C   0  0  0  0  0  0  0  0  0  0  0  0
   20.4605  -10.0707  -15.6724 C   0  0  0  0  0  0  0  0  0  0  0  0
   20.8046   -9.0121  -14.6146 C   0  0  0  0  0  0  0  0  0  0  0  0
   22.0591   -8.2419  -14.9940 C   0  0  2  0  0  0  0  0  0  0  0  0
   23.1704   -9.1513  -14.9048 N   0  0  0  0  0  0  0  0  0  0  0  0
   22.1543   -7.1068  -14.0771 C   0  0  0  0  0  0  0  0  0  0  0  0
   22.5053   -7.3001  -12.8895 O   0  0  0  0  0  0  0  0  0  0  0  0
   17.7389  -13.4551  -17.4499 N   0  0  0  0  0  0  0  0  0  0  0  0
   21.8618   -5.7813  -14.4875 C   0  0  0  0  0  0  0  0  0  0  0  0
   22.0032   -4.6275  -13.6249 C   0  0  0  0  0  0  0  0  0  0  0  0
   21.7875   -3.3640  -14.3789 O   0  0  0  0  0  0  0  0  0  0  0  0
   21.8896   -2.2520  -13.8066 O   0  0  0  0  0  0  0  0  0  0  0  0
  2  1  1  6
  2  3  1  0
  3  4  1  0
  4  8  1  0
  4  5  2  0
  6  2  1  0
  6  7  2  0
  9 10  1  0
 10 11  2  0
 10 12  1  0
 12 13  1  0
 13 14  1  0
 14 15  1  0
 16 15  1  1
 16 17  1  0
 17  6  1  0
 18 16  1  0
 19 18  2  0
 20 18  1  0
 21 22  1  0
 21 20  1  0
 22 24  1  0
 23 22  2  0
M  END
$$$$
