DRG.pdb
     RDKit          3D

 24 23  0  0  1  0  0  0  0  0999 V2000
   23.8343  -17.5916  -18.8588 N   0  0  0  0  0  0  0  0  0  0  0  0
   22.8613  -18.5116  -19.4104 C   0  0  1  0  0  0  0  0  0  0  0  0
   23.4633  -19.2496  -20.5869 C   0  0  0  0  0  0  0  0  0  0  0  0
   24.0219  -18.2765  -21.5576 C   0  0  0  0  0  0  0  0  0  0  0  0
   24.4920  -18.6383  -22.6538 O   0  0  0  0  0  0  0  0  0  0  0  0
   22.4344  -19.4336  -18.3380 C   0  0  0  0  0  0  0  0  0  0  0  0
   21.6243  -20.3546  -18.5991 O   0  0  0  0  0  0  0  0  0  0  0  0
   24.0331  -16.9168  -21.2601 O   0  0  0  0  0  0  0  0  0  0  0  0
   23.8277  -24.8436  -14.3402 N   0  0  0  0  0  0  0  0  0  0  0  0
   25.0082  -24.1575  -14.7197 C   0  0  0  0  0  0  0  0  0  0  0  0
   25.8833  -24.6654  -15.5472 N   0  0  0  0  0  0  0  0  0  0  0  0
   25.3272  -22.8531  -14.2180 N   0  0  0  0  0  0  0  0  0  0  0  0
   24.4295  -22.1351  -13.3821 C   0  0  0  0  0  0  0  0  0  0  0  0
   23.1682  -21.6636  -14.0308 C   0  0  0  0  0  0  0  0  0  0  0  0
   23.5880  -20.6706  -15.1243 C   0  0  0  0  0  0  0  0  0  0  0  0
   22.3910  -20.2139  -15.9425 C   0  0  2  0  0  0  0  0  0  0  0  0
   22.8823  -19.3594  -16.9907 N   0  0  0  0  0  0  0  0  0  0  0  0
   21.4760  -19.5441  -15.0194 C   0  0  0  0  0  0  0  0  0  0  0  0
   21.7917  -18.4319  -14.5355 O   0  0  0  0  0  0  0  0  0  0  0  0
   26.6904  -24.0499  -15.7834 N   0  0  0  0  0  0  0  0  0  0  0  0
   20.2309  -20.1128  -14.6488 C   0  0  0  0  0  0  0  0  0  0  0  0
   19.3356  -19.5158  -13.6808 C   0  0  0  0  0  0  0  0  0  0  0  0
   18.1107  -20.3401  -13.5026 O   0  0  0  0  0  0  0  0  0  0  0  0
   17.9564  -21.4047  -14.1485 O   0  0  0  0  0  0  0  0  0  0  0  0
  2  1  1  1
  2  3  1  0
  3  4  1  0
  4  8  1  0
  4  5  2  0
  6  2  1  0
  6  7  2  0
  9 10  1  0
 10 11  2  0
 10 12  1  0
 12 13  1  0
 13 14  1  0
 14 15  1  0
 16 15  1  1
 16 17  1  0
 17  6  1  0
 18 16  1  0
 19 18  2  0
 20 18  1  0
 21 22  1  0
 21 20  1  0
 22 24  1  0
 23 22  2  0
M  END
$$$$
