DRG.pdb
     RDKit          3D

 24 23  0  0  1  0  0  0  0  0999 V2000
   25.5332  -21.0543   -7.9360 N   0  0  0  0  0  0  0  0  0  0  0  0
   26.0289  -19.8295   -8.5292 C   0  0  1  0  0  0  0  0  0  0  0  0
   27.5272  -19.7362   -8.3356 C   0  0  0  0  0  0  0  0  0  0  0  0
   27.8424  -19.6555   -6.8881 C   0  0  0  0  0  0  0  0  0  0  0  0
   28.5406  -20.5170   -6.3188 O   0  0  0  0  0  0  0  0  0  0  0  0
   25.6535  -19.8208   -9.9579 C   0  0  0  0  0  0  0  0  0  0  0  0
   26.1207  -18.9376  -10.7157 O   0  0  0  0  0  0  0  0  0  0  0  0
   27.3575  -18.5990   -6.1224 O   0  0  0  0  0  0  0  0  0  0  0  0
   25.9984  -24.1224  -16.9264 N   0  0  0  0  0  0  0  0  0  0  0  0
   25.5074  -24.6154  -15.6918 C   0  0  0  0  0  0  0  0  0  0  0  0
   24.9552  -25.7942  -15.5732 N   0  0  0  0  0  0  0  0  0  0  0  0
   25.5806  -23.8506  -14.4816 N   0  0  0  0  0  0  0  0  0  0  0  0
   26.1617  -22.5538  -14.4525 C   0  0  0  0  0  0  0  0  0  0  0  0
   26.1223  -21.8497  -13.1346 C   0  0  0  0  0  0  0  0  0  0  0  0
   24.6636  -21.9032  -12.6580 C   0  0  0  0  0  0  0  0  0  0  0  0
   24.2824  -20.6370  -11.9081 C   0  0  2  0  0  0  0  0  0  0  0  0
   24.7778  -20.7633  -10.5632 N   0  0  0  0  0  0  0  0  0  0  0  0
   22.8274  -20.5170  -11.9891 C   0  0  0  0  0  0  0  0  0  0  0  0
   22.1087  -21.1758  -11.2014 O   0  0  0  0  0  0  0  0  0  0  0  0
   24.6834  -26.0694  -14.6055 N   0  0  0  0  0  0  0  0  0  0  0  0
   22.1934  -19.6726  -12.9356 C   0  0  0  0  0  0  0  0  0  0  0  0
   20.7913  -19.3176  -12.8778 C   0  0  0  0  0  0  0  0  0  0  0  0
   19.9421  -20.3868  -13.4670 O   0  0  0  0  0  0  0  0  0  0  0  0
   20.4443  -21.4812  -13.8198 O   0  0  0  0  0  0  0  0  0  0  0  0
  2  1  1  6
  2  3  1  0
  3  4  1  0
  4  8  1  0
  4  5  2  0
  6  2  1  0
  6  7  2  0
  9 10  1  0
 10 11  2  0
 10 12  1  0
 12 13  1  0
 13 14  1  0
 14 15  1  0
 16 15  1  6
 16 17  1  0
 17  6  1  0
 18 16  1  0
 19 18  2  0
 20 18  1  0
 21 22  1  0
 21 20  1  0
 22 24  1  0
 23 22  2  0
M  END
$$$$
