DRG.pdb
     RDKit          3D

 24 23  0  0  1  0  0  0  0  0999 V2000
   23.8089  -14.4782  -17.3912 N   0  0  0  0  0  0  0  0  0  0  0  0
   22.9660  -15.4643  -18.0353 C   0  0  1  0  0  0  0  0  0  0  0  0
   23.2930  -15.5321  -19.5116 C   0  0  0  0  0  0  0  0  0  0  0  0
   23.0154  -14.2211  -20.1482 C   0  0  0  0  0  0  0  0  0  0  0  0
   22.6236  -13.2397  -19.4871 O   0  0  0  0  0  0  0  0  0  0  0  0
   23.1733  -16.7627  -17.3619 C   0  0  0  0  0  0  0  0  0  0  0  0
   22.6828  -17.8039  -17.8599 O   0  0  0  0  0  0  0  0  0  0  0  0
   23.1894  -14.0562  -21.5193 O   0  0  0  0  0  0  0  0  0  0  0  0
   25.6581  -20.5507  -10.8346 N   0  0  0  0  0  0  0  0  0  0  0  0
   26.8255  -21.0481  -11.4656 C   0  0  0  0  0  0  0  0  0  0  0  0
   27.3928  -22.1716  -11.1132 N   0  0  0  0  0  0  0  0  0  0  0  0
   27.4697  -20.3487  -12.5385 N   0  0  0  0  0  0  0  0  0  0  0  0
   26.8902  -19.1939  -13.1306 C   0  0  0  0  0  0  0  0  0  0  0  0
   25.6638  -19.4268  -13.9527 C   0  0  0  0  0  0  0  0  0  0  0  0
   25.3418  -18.0913  -14.6388 C   0  0  0  0  0  0  0  0  0  0  0  0
   24.1128  -18.2100  -15.5256 C   0  0  2  0  0  0  0  0  0  0  0  0
   23.9079  -16.9333  -16.1566 N   0  0  0  0  0  0  0  0  0  0  0  0
   23.0059  -18.6237  -14.6644 C   0  0  0  0  0  0  0  0  0  0  0  0
   22.4728  -17.7865  -13.8990 O   0  0  0  0  0  0  0  0  0  0  0  0
   28.2210  -22.4552  -11.6785 N   0  0  0  0  0  0  0  0  0  0  0  0
   22.5077  -19.9514  -14.6647 C   0  0  0  0  0  0  0  0  0  0  0  0
   21.4482  -20.4081  -13.7906 C   0  0  0  0  0  0  0  0  0  0  0  0
   20.1408  -20.4322  -14.4989 O   0  0  0  0  0  0  0  0  0  0  0  0
   19.7769  -19.4599  -15.2035 O   0  0  0  0  0  0  0  0  0  0  0  0
  2  1  1  1
  2  3  1  0
  3  4  1  0
  4  8  1  0
  4  5  2  0
  6  2  1  0
  6  7  2  0
  9 10  1  0
 10 11  2  0
 10 12  1  0
 12 13  1  0
 13 14  1  0
 14 15  1  0
 16 15  1  1
 16 17  1  0
 17  6  1  0
 18 16  1  0
 19 18  2  0
 20 18  1  0
 21 22  1  0
 21 20  1  0
 22 24  1  0
 23 22  2  0
M  END
$$$$
