DRG.pdb
     RDKit          3D

 24 23  0  0  1  0  0  0  0  0999 V2000
   14.6231  -10.5028  -12.8331 N   0  0  0  0  0  0  0  0  0  0  0  0
   15.9221  -10.4057  -12.2001 C   0  0  1  0  0  0  0  0  0  0  0  0
   16.9942  -10.8869  -13.1542 C   0  0  0  0  0  0  0  0  0  0  0  0
   16.9389  -12.3652  -13.2674 C   0  0  0  0  0  0  0  0  0  0  0  0
   16.0908  -13.0399  -12.6516 O   0  0  0  0  0  0  0  0  0  0  0  0
   16.1349   -9.0025  -11.7902 C   0  0  0  0  0  0  0  0  0  0  0  0
   15.7912   -8.0736  -12.5595 O   0  0  0  0  0  0  0  0  0  0  0  0
   17.8475  -13.0412  -14.0766 O   0  0  0  0  0  0  0  0  0  0  0  0
   12.1863   -5.6543   -8.4302 N   0  0  0  0  0  0  0  0  0  0  0  0
   11.9980   -6.8593   -7.7085 C   0  0  0  0  0  0  0  0  0  0  0  0
   10.8322   -7.4401   -7.5984 N   0  0  0  0  0  0  0  0  0  0  0  0
   13.0782   -7.5272   -7.0436 N   0  0  0  0  0  0  0  0  0  0  0  0
   14.4356   -7.2122   -7.3240 C   0  0  0  0  0  0  0  0  0  0  0  0
   14.8854   -7.4528   -8.7289 C   0  0  0  0  0  0  0  0  0  0  0  0
   16.3632   -7.0399   -8.7877 C   0  0  0  0  0  0  0  0  0  0  0  0
   16.9342   -7.2340  -10.1831 C   0  0  2  0  0  0  0  0  0  0  0  0
   16.7158   -8.6068  -10.5543 N   0  0  0  0  0  0  0  0  0  0  0  0
   18.3464   -6.8604  -10.1200 C   0  0  0  0  0  0  0  0  0  0  0  0
   18.8899   -6.6863   -9.0041 O   0  0  0  0  0  0  0  0  0  0  0  0
   10.8206   -8.3283   -7.0536 N   0  0  0  0  0  0  0  0  0  0  0  0
   19.1320   -6.6871  -11.2879 C   0  0  0  0  0  0  0  0  0  0  0  0
   20.5333   -6.3256  -11.2627 C   0  0  0  0  0  0  0  0  0  0  0  0
   20.8234   -5.2335  -12.2295 O   0  0  0  0  0  0  0  0  0  0  0  0
   19.9090   -4.7449  -12.9362 O   0  0  0  0  0  0  0  0  0  0  0  0
  2  1  1  6
  2  3  1  0
  3  4  1  0
  4  8  1  0
  4  5  2  0
  6  2  1  0
  6  7  2  0
  9 10  1  0
 10 11  2  0
 10 12  1  0
 12 13  1  0
 13 14  1  0
 14 15  1  0
 16 15  1  1
 16 17  1  0
 17  6  1  0
 18 16  1  0
 19 18  2  0
 20 18  1  0
 21 22  1  0
 21 20  1  0
 22 24  1  0
 23 22  2  0
M  END
$$$$
