DRG.pdb
     RDKit          3D

 24 23  0  0  1  0  0  0  0  0999 V2000
   21.6563  -20.7557  -12.9876 N   0  0  0  0  0  0  0  0  0  0  0  0
   21.9206  -20.1713  -14.2861 C   0  0  1  0  0  0  0  0  0  0  0  0
   20.7331  -19.3420  -14.7261 C   0  0  0  0  0  0  0  0  0  0  0  0
   19.5072  -20.1776  -14.7199 C   0  0  0  0  0  0  0  0  0  0  0  0
   18.4460  -19.7831  -14.1985 O   0  0  0  0  0  0  0  0  0  0  0  0
   23.1542  -19.3643  -14.1893 C   0  0  0  0  0  0  0  0  0  0  0  0
   23.1404  -18.2862  -13.5488 O   0  0  0  0  0  0  0  0  0  0  0  0
   19.5159  -21.4403  -15.3056 O   0  0  0  0  0  0  0  0  0  0  0  0
   25.8904  -20.6980   -9.2274 N   0  0  0  0  0  0  0  0  0  0  0  0
   24.8674  -21.0093  -10.1574 C   0  0  0  0  0  0  0  0  0  0  0  0
   23.6031  -21.0480   -9.8276 N   0  0  0  0  0  0  0  0  0  0  0  0
   25.1497  -21.3072  -11.5309 N   0  0  0  0  0  0  0  0  0  0  0  0
   26.4582  -21.1737  -12.0696 C   0  0  0  0  0  0  0  0  0  0  0  0
   26.8150  -19.8190  -12.5908 C   0  0  0  0  0  0  0  0  0  0  0  0
   26.6832  -19.8940  -14.1189 C   0  0  0  0  0  0  0  0  0  0  0  0
   25.6017  -18.9533  -14.6252 C   0  0  2  0  0  0  0  0  0  0  0  0
   24.3959  -19.7225  -14.7819 N   0  0  0  0  0  0  0  0  0  0  0  0
   26.0941  -18.3726  -15.8735 C   0  0  0  0  0  0  0  0  0  0  0  0
   26.4712  -19.1282  -16.7996 O   0  0  0  0  0  0  0  0  0  0  0  0
   23.3977  -20.9239   -8.8136 N   0  0  0  0  0  0  0  0  0  0  0  0
   26.1600  -16.9706  -16.0769 C   0  0  0  0  0  0  0  0  0  0  0  0
   26.6301  -16.3617  -17.3030 C   0  0  0  0  0  0  0  0  0  0  0  0
   26.7317  -14.8845  -17.1641 O   0  0  0  0  0  0  0  0  0  0  0  0
   26.2957  -14.3068  -16.1391 O   0  0  0  0  0  0  0  0  0  0  0  0
  2  1  1  1
  2  3  1  0
  3  4  1  0
  4  8  1  0
  4  5  2  0
  6  2  1  0
  6  7  2  0
  9 10  1  0
 10 11  2  0
 10 12  1  0
 12 13  1  0
 13 14  1  0
 14 15  1  0
 16 15  1  6
 16 17  1  0
 17  6  1  0
 18 16  1  0
 19 18  2  0
 20 18  1  0
 21 22  1  0
 21 20  1  0
 22 24  1  0
 23 22  2  0
M  END
$$$$
