LWM.pdb
     RDKit          3D

 31 32  0  0  1  0  0  0  0  0999 V2000
   13.9728  -22.2117    4.3768 C   0  0  0  0  0  0  0  0  0  0  0  0
   14.3347  -20.8176    3.9588 C   0  0  1  0  0  0  0  0  0  0  0  0
   13.1869  -19.8970    4.2789 C   0  0  0  0  0  0  0  0  0  0  0  0
   15.6360  -20.3461    4.5303 C   0  0  0  0  0  0  0  0  0  0  0  0
   15.9908  -19.0046    3.9641 C   0  0  2  0  0  0  0  0  0  0  0  0
   16.3716  -19.0975    2.5681 N   0  0  0  0  0  0  0  0  0  0  0  0
   16.9837  -18.2817    4.7743 C   0  0  0  0  0  0  0  0  0  0  0  0
   18.1988  -18.4573    4.5066 O   0  0  0  0  0  0  0  0  0  0  0  0
   16.6702  -17.3963    5.8411 N   0  0  0  0  0  0  0  0  0  0  0  0
   17.6736  -16.7155    6.5917 C   0  0  1  0  0  0  0  0  0  0  0  0
   17.1214  -15.3758    7.0219 C   0  0  0  0  0  0  0  0  0  0  0  0
   17.5177  -14.2912    6.0626 C   0  0  0  0  0  0  0  0  0  0  0  0
   16.8289  -13.8563    4.9492 C   0  0  0  0  0  0  0  0  0  0  0  0
   17.5196  -12.8670    4.3554 N   0  0  0  0  0  0  0  0  0  0  0  0
   18.6590  -12.6154    5.0319 C   0  0  0  0  0  0  0  0  0  0  0  0
   19.6871  -11.7170    4.8378 C   0  0  0  0  0  0  0  0  0  0  0  0
   20.7412  -11.7002    5.7239 C   0  0  0  0  0  0  0  0  0  0  0  0
   20.7284  -12.5960    6.7878 C   0  0  0  0  0  0  0  0  0  0  0  0
   19.7011  -13.4945    6.9827 C   0  0  0  0  0  0  0  0  0  0  0  0
   18.6549  -13.5076    6.0990 C   0  0  0  0  0  0  0  0  0  0  0  0
   18.2313  -17.5062    7.6992 C   0  0  0  0  0  0  0  0  0  0  0  0
   17.4932  -18.3633    8.2932 O   0  0  0  0  0  0  0  0  0  0  0  0
   24.0426  -21.1986   11.3494 C   0  0  0  0  0  0  0  0  0  0  0  0
   23.5132  -20.2703    9.8736 S   0  0  0  0  0  0  0  0  0  0  0  0
   21.8602  -19.5805   10.2485 C   0  0  0  0  0  0  0  0  0  0  0  0
   21.3828  -18.7818    9.0559 C   0  0  0  0  0  0  0  0  0  0  0  0
   20.0041  -18.2003    9.3060 C   0  0  2  0  0  0  0  0  0  0  0  0
   19.5634  -17.3970    8.1823 N   0  0  0  0  0  0  0  0  0  0  0  0
   20.1135  -17.2941   10.4808 C   0  0  0  0  0  0  0  0  0  0  0  0
   20.0252  -17.7628   11.7860 O   0  0  0  0  0  0  0  0  0  0  0  0
   20.2920  -16.0563   10.3473 O   0  0  0  0  0  0  0  0  0  0  0  0
  2  1  1  1
  2  3  1  0
  4  2  1  0
  5  4  1  0
  5  6  1  6
  7  8  2  0
  7  5  1  0
  9  7  1  0
 10  9  1  0
 10 11  1  1
 12 11  1  0
 12 13  2  0
 14 13  1  0
 15 20  2  0
 15 14  1  0
 16 15  1  0
 17 18  1  0
 17 16  2  0
 18 19  2  0
 19 20  1  0
 20 12  1  0
 21 10  1  0
 21 28  1  0
 22 21  2  0
 23 24  1  0
 25 24  1  0
 25 26  1  0
 27 26  1  6
 27 28  1  0
 27 29  1  0
 29 31  2  0
 29 30  1  0
M  END
$$$$
