LWM.pdb
     RDKit          3D

 31 32  0  0  1  0  0  0  0  0999 V2000
   29.2991  -23.1030  -17.6538 C   0  0  0  0  0  0  0  0  0  0  0  0
   28.8724  -21.8629  -16.9264 C   0  0  1  0  0  0  0  0  0  0  0  0
   28.2014  -20.9305  -17.8999 C   0  0  0  0  0  0  0  0  0  0  0  0
   28.0350  -22.1432  -15.7171 C   0  0  0  0  0  0  0  0  0  0  0  0
   27.7063  -20.8629  -15.0105 C   0  0  2  0  0  0  0  0  0  0  0  0
   28.8654  -19.9982  -14.9049 N   0  0  0  0  0  0  0  0  0  0  0  0
   27.0383  -21.0740  -13.7168 C   0  0  0  0  0  0  0  0  0  0  0  0
   26.1162  -21.9262  -13.6652 O   0  0  0  0  0  0  0  0  0  0  0  0
   27.3590  -20.3838  -12.5164 N   0  0  0  0  0  0  0  0  0  0  0  0
   26.7002  -20.6502  -11.2799 C   0  0  1  0  0  0  0  0  0  0  0  0
   27.4986  -20.0122  -10.1663 C   0  0  0  0  0  0  0  0  0  0  0  0
   26.9221  -20.3496   -8.8220 C   0  0  0  0  0  0  0  0  0  0  0  0
   25.6792  -20.8809   -8.5461 C   0  0  0  0  0  0  0  0  0  0  0  0
   25.5447  -21.0344   -7.2168 N   0  0  0  0  0  0  0  0  0  0  0  0
   26.6598  -20.6231   -6.5793 C   0  0  0  0  0  0  0  0  0  0  0  0
   27.0165  -20.5753   -5.2480 C   0  0  0  0  0  0  0  0  0  0  0  0
   28.2583  -20.0909   -4.9019 C   0  0  0  0  0  0  0  0  0  0  0  0
   29.1109  -19.6656   -5.9152 C   0  0  0  0  0  0  0  0  0  0  0  0
   28.7553  -19.7129   -7.2463 C   0  0  0  0  0  0  0  0  0  0  0  0
   27.5193  -20.1954   -7.5858 C   0  0  0  0  0  0  0  0  0  0  0  0
   25.2764  -20.2825  -11.2698 C   0  0  0  0  0  0  0  0  0  0  0  0
   24.9408  -19.0640  -11.4565 O   0  0  0  0  0  0  0  0  0  0  0  0
   20.6448  -23.3488  -14.6479 C   0  0  0  0  0  0  0  0  0  0  0  0
   19.8274  -23.1066  -13.0376 S   0  0  0  0  0  0  0  0  0  0  0  0
   20.6446  -21.6764  -12.2404 C   0  0  0  0  0  0  0  0  0  0  0  0
   22.0935  -22.0247  -11.9805 C   0  0  0  0  0  0  0  0  0  0  0  0
   22.8515  -20.8301  -11.4331 C   0  0  2  0  0  0  0  0  0  0  0  0
   24.2056  -21.1940  -11.0640 N   0  0  0  0  0  0  0  0  0  0  0  0
   22.1562  -20.3975  -10.1908 C   0  0  0  0  0  0  0  0  0  0  0  0
   21.0229  -19.5938  -10.2203 O   0  0  0  0  0  0  0  0  0  0  0  0
   22.5632  -20.7403   -9.0513 O   0  0  0  0  0  0  0  0  0  0  0  0
  2  1  1  6
  2  3  1  0
  4  2  1  0
  5  4  1  0
  5  6  1  1
  7  8  2  0
  7  5  1  0
  9  7  1  0
 10  9  1  0
 10 11  1  1
 12 11  1  0
 12 13  2  0
 14 13  1  0
 15 20  2  0
 15 14  1  0
 16 15  1  0
 17 18  1  0
 17 16  2  0
 18 19  2  0
 19 20  1  0
 20 12  1  0
 21 10  1  0
 21 28  1  0
 22 21  2  0
 23 24  1  0
 25 24  1  0
 25 26  1  0
 27 26  1  1
 27 28  1  0
 27 29  1  0
 29 31  2  0
 29 30  1  0
M  END
$$$$
