LWM.pdb
     RDKit          3D

 31 32  0  0  1  0  0  0  0  0999 V2000
   29.9305  -20.6697  -17.1323 C   0  0  0  0  0  0  0  0  0  0  0  0
   28.9485  -19.8488  -16.3507 C   0  0  1  0  0  0  0  0  0  0  0  0
   28.0860  -19.0724  -17.3101 C   0  0  0  0  0  0  0  0  0  0  0  0
   28.1511  -20.6525  -15.3706 C   0  0  0  0  0  0  0  0  0  0  0  0
   27.2165  -19.7595  -14.6123 C   0  0  2  0  0  0  0  0  0  0  0  0
   27.9106  -18.6222  -14.0402 N   0  0  0  0  0  0  0  0  0  0  0  0
   26.4046  -20.4836  -13.6217 C   0  0  0  0  0  0  0  0  0  0  0  0
   25.9949  -21.6318  -13.9260 O   0  0  0  0  0  0  0  0  0  0  0  0
   26.0478  -19.9796  -12.3414 N   0  0  0  0  0  0  0  0  0  0  0  0
   25.1801  -20.6839  -11.4555 C   0  0  1  0  0  0  0  0  0  0  0  0
   25.4494  -20.2094  -10.0459 C   0  0  0  0  0  0  0  0  0  0  0  0
   26.7700  -20.7172   -9.5444 C   0  0  0  0  0  0  0  0  0  0  0  0
   27.6198  -21.6116  -10.1618 C   0  0  0  0  0  0  0  0  0  0  0  0
   28.7008  -21.8082   -9.3863 N   0  0  0  0  0  0  0  0  0  0  0  0
   28.6121  -21.0737   -8.2586 C   0  0  0  0  0  0  0  0  0  0  0  0
   29.4421  -20.9251   -7.1673 C   0  0  0  0  0  0  0  0  0  0  0  0
   29.0667  -20.0789   -6.1477 C   0  0  0  0  0  0  0  0  0  0  0  0
   27.8567  -19.4020   -6.2584 C   0  0  0  0  0  0  0  0  0  0  0  0
   27.0262  -19.5499   -7.3488 C   0  0  0  0  0  0  0  0  0  0  0  0
   27.4036  -20.3925   -8.3604 C   0  0  0  0  0  0  0  0  0  0  0  0
   23.7609  -20.6249  -11.8362 C   0  0  0  0  0  0  0  0  0  0  0  0
   23.1960  -19.4882  -11.9812 O   0  0  0  0  0  0  0  0  0  0  0  0
   17.1727  -24.0240  -14.5182 C   0  0  0  0  0  0  0  0  0  0  0  0
   18.7892  -24.3492  -13.7429 S   0  0  0  0  0  0  0  0  0  0  0  0
   19.4761  -22.7252  -13.2530 C   0  0  0  0  0  0  0  0  0  0  0  0
   20.9185  -22.9109  -12.8368 C   0  0  0  0  0  0  0  0  0  0  0  0
   21.5406  -21.5907  -12.4230 C   0  0  2  0  0  0  0  0  0  0  0  0
   22.9354  -21.7590  -12.0647 N   0  0  0  0  0  0  0  0  0  0  0  0
   20.8241  -21.1278  -11.2040 C   0  0  0  0  0  0  0  0  0  0  0  0
   19.7691  -20.2254  -11.2652 O   0  0  0  0  0  0  0  0  0  0  0  0
   21.1409  -21.5331  -10.0564 O   0  0  0  0  0  0  0  0  0  0  0  0
  2  1  1  6
  2  3  1  0
  4  2  1  0
  5  4  1  0
  5  6  1  1
  7  8  2  0
  7  5  1  0
  9  7  1  0
 10  9  1  0
 10 11  1  1
 12 11  1  0
 12 13  2  0
 14 13  1  0
 15 20  2  0
 15 14  1  0
 16 15  1  0
 17 18  1  0
 17 16  2  0
 18 19  2  0
 19 20  1  0
 20 12  1  0
 21 10  1  0
 21 28  1  0
 22 21  2  0
 23 24  1  0
 25 24  1  0
 25 26  1  0
 27 26  1  1
 27 28  1  0
 27 29  1  0
 29 31  2  0
 29 30  1  0
M  END
$$$$
