LWM.pdb
     RDKit          3D

 31 32  0  0  1  0  0  0  0  0999 V2000
   30.3636  -23.0443  -18.5709 C   0  0  0  0  0  0  0  0  0  0  0  0
   29.0289  -22.3862  -18.3849 C   0  0  1  0  0  0  0  0  0  0  0  0
   28.2480  -22.4914  -19.6680 C   0  0  0  0  0  0  0  0  0  0  0  0
   28.2733  -22.9022  -17.1995 C   0  0  0  0  0  0  0  0  0  0  0  0
   27.0271  -22.0958  -16.9927 C   0  0  2  0  0  0  0  0  0  0  0  0
   27.1638  -20.7546  -17.5263 N   0  0  0  0  0  0  0  0  0  0  0  0
   26.5602  -22.1046  -15.5974 C   0  0  0  0  0  0  0  0  0  0  0  0
   26.5449  -23.2052  -14.9912 O   0  0  0  0  0  0  0  0  0  0  0  0
   26.1236  -20.9571  -14.8812 N   0  0  0  0  0  0  0  0  0  0  0  0
   25.7119  -21.0162  -13.5171 C   0  0  1  0  0  0  0  0  0  0  0  0
   26.4825  -19.9735  -12.7401 C   0  0  0  0  0  0  0  0  0  0  0  0
   26.0928  -19.9779  -11.2905 C   0  0  0  0  0  0  0  0  0  0  0  0
   24.8921  -19.5824  -10.7382 C   0  0  0  0  0  0  0  0  0  0  0  0
   24.9416  -19.7395   -9.4034 N   0  0  0  0  0  0  0  0  0  0  0  0
   26.1412  -20.2305   -9.0305 C   0  0  0  0  0  0  0  0  0  0  0  0
   26.6803  -20.5613   -7.8051 C   0  0  0  0  0  0  0  0  0  0  0  0
   27.9654  -21.0527   -7.7468 C   0  0  0  0  0  0  0  0  0  0  0  0
   28.6753  -21.1973   -8.9341 C   0  0  0  0  0  0  0  0  0  0  0  0
   28.1374  -20.8668  -10.1596 C   0  0  0  0  0  0  0  0  0  0  0  0
   26.8589  -20.3786  -10.2128 C   0  0  0  0  0  0  0  0  0  0  0  0
   24.2557  -20.9352  -13.3282 C   0  0  0  0  0  0  0  0  0  0  0  0
   23.5599  -20.2052  -14.1127 O   0  0  0  0  0  0  0  0  0  0  0  0
   17.6874  -24.2105  -10.4120 C   0  0  0  0  0  0  0  0  0  0  0  0
   19.4909  -24.0478  -10.2093 S   0  0  0  0  0  0  0  0  0  0  0  0
   20.0477  -22.7956  -11.4221 C   0  0  0  0  0  0  0  0  0  0  0  0
   21.5460  -22.6287  -11.2982 C   0  0  0  0  0  0  0  0  0  0  0  0
   22.0873  -21.7334  -12.3967 C   0  0  2  0  0  0  0  0  0  0  0  0
   23.5306  -21.6205  -12.3161 N   0  0  0  0  0  0  0  0  0  0  0  0
   21.5250  -20.3738  -12.1755 C   0  0  0  0  0  0  0  0  0  0  0  0
   22.1522  -19.4385  -11.3613 O   0  0  0  0  0  0  0  0  0  0  0  0
   20.4513  -20.0057  -12.7171 O   0  0  0  0  0  0  0  0  0  0  0  0
  2  1  1  6
  2  3  1  0
  4  2  1  0
  5  4  1  0
  5  6  1  1
  7  8  2  0
  7  5  1  0
  9  7  1  0
 10  9  1  0
 10 11  1  1
 12 11  1  0
 12 13  2  0
 14 13  1  0
 15 20  2  0
 15 14  1  0
 16 15  1  0
 17 18  1  0
 17 16  2  0
 18 19  2  0
 19 20  1  0
 20 12  1  0
 21 10  1  0
 21 28  1  0
 22 21  2  0
 23 24  1  0
 25 24  1  0
 25 26  1  0
 27 26  1  1
 27 28  1  0
 27 29  1  0
 29 31  2  0
 29 30  1  0
M  END
$$$$
