LWM.pdb
     RDKit          3D

 31 32  0  0  1  0  0  0  0  0999 V2000
   30.5445  -24.1191  -18.5227 C   0  0  0  0  0  0  0  0  0  0  0  0
   29.5716  -23.0150  -18.2340 C   0  0  1  0  0  0  0  0  0  0  0  0
   28.7458  -22.7555  -19.4660 C   0  0  0  0  0  0  0  0  0  0  0  0
   28.7373  -23.2633  -17.0155 C   0  0  0  0  0  0  0  0  0  0  0  0
   27.8478  -22.0861  -16.7521 C   0  0  2  0  0  0  0  0  0  0  0  0
   28.5203  -20.8338  -17.0381 N   0  0  0  0  0  0  0  0  0  0  0  0
   27.2426  -22.1100  -15.4112 C   0  0  0  0  0  0  0  0  0  0  0  0
   26.6181  -23.1450  -15.0682 O   0  0  0  0  0  0  0  0  0  0  0  0
   27.3119  -21.0460  -14.4713 N   0  0  0  0  0  0  0  0  0  0  0  0
   26.6593  -21.0992  -13.2044 C   0  0  1  0  0  0  0  0  0  0  0  0
   27.4634  -20.2831  -12.2184 C   0  0  0  0  0  0  0  0  0  0  0  0
   26.7939  -20.2392  -10.8756 C   0  0  0  0  0  0  0  0  0  0  0  0
   25.4737  -19.9489  -10.5999 C   0  0  0  0  0  0  0  0  0  0  0  0
   25.2704  -20.0136   -9.2721 N   0  0  0  0  0  0  0  0  0  0  0  0
   26.4138  -20.3395   -8.6353 C   0  0  0  0  0  0  0  0  0  0  0  0
   26.7269  -20.5275   -7.3055 C   0  0  0  0  0  0  0  0  0  0  0  0
   28.0167  -20.8642   -6.9598 C   0  0  0  0  0  0  0  0  0  0  0  0
   28.9606  -21.0025   -7.9720 C   0  0  0  0  0  0  0  0  0  0  0  0
   28.6487  -20.8147   -9.3016 C   0  0  0  0  0  0  0  0  0  0  0  0
   27.3647  -20.4800   -9.6407 C   0  0  0  0  0  0  0  0  0  0  0  0
   25.2356  -20.7336  -13.2495 C   0  0  0  0  0  0  0  0  0  0  0  0
   24.8909  -19.6103  -13.7512 O   0  0  0  0  0  0  0  0  0  0  0  0
   19.9008  -21.5191  -17.3071 C   0  0  0  0  0  0  0  0  0  0  0  0
   21.0135  -22.4511  -16.2057 S   0  0  0  0  0  0  0  0  0  0  0  0
   20.9410  -21.6358  -14.5690 C   0  0  0  0  0  0  0  0  0  0  0  0
   22.0083  -22.2329  -13.6786 C   0  0  0  0  0  0  0  0  0  0  0  0
   22.7951  -21.1478  -12.9681 C   0  0  2  0  0  0  0  0  0  0  0  0
   24.1744  -21.5474  -12.7682 N   0  0  0  0  0  0  0  0  0  0  0  0
   22.1869  -20.9710  -11.6219 C   0  0  0  0  0  0  0  0  0  0  0  0
   21.0853  -20.1506  -11.4110 O   0  0  0  0  0  0  0  0  0  0  0  0
   22.6430  -21.5580  -10.6075 O   0  0  0  0  0  0  0  0  0  0  0  0
  2  1  1  6
  2  3  1  0
  4  2  1  0
  5  4  1  0
  5  6  1  1
  7  8  2  0
  7  5  1  0
  9  7  1  0
 10  9  1  0
 10 11  1  1
 12 11  1  0
 12 13  2  0
 14 13  1  0
 15 20  2  0
 15 14  1  0
 16 15  1  0
 17 18  1  0
 17 16  2  0
 18 19  2  0
 19 20  1  0
 20 12  1  0
 21 10  1  0
 21 28  1  0
 22 21  2  0
 23 24  1  0
 25 24  1  0
 25 26  1  0
 27 26  1  1
 27 28  1  0
 27 29  1  0
 29 31  2  0
 29 30  1  0
M  END
$$$$
