LWM.pdb
     RDKit          3D

 31 32  0  0  1  0  0  0  0  0999 V2000
   29.4675  -19.3826  -13.3700 C   0  0  0  0  0  0  0  0  0  0  0  0
   28.2865  -20.2986  -13.4930 C   0  0  1  0  0  0  0  0  0  0  0  0
   28.6789  -21.6707  -13.0128 C   0  0  0  0  0  0  0  0  0  0  0  0
   27.0570  -19.7749  -12.8175 C   0  0  0  0  0  0  0  0  0  0  0  0
   25.8998  -20.6931  -13.0709 C   0  0  2  0  0  0  0  0  0  0  0  0
   26.2390  -21.7287  -14.0274 N   0  0  0  0  0  0  0  0  0  0  0  0
   24.6640  -19.9780  -13.4259 C   0  0  0  0  0  0  0  0  0  0  0  0
   24.1054  -19.2935  -12.5323 O   0  0  0  0  0  0  0  0  0  0  0  0
   24.0524  -20.0035  -14.7087 N   0  0  0  0  0  0  0  0  0  0  0  0
   22.8328  -19.3198  -14.9897 C   0  0  1  0  0  0  0  0  0  0  0  0
   22.7827  -19.0218  -16.4707 C   0  0  0  0  0  0  0  0  0  0  0  0
   21.6457  -18.0991  -16.8013 C   0  0  0  0  0  0  0  0  0  0  0  0
   21.3636  -16.8719  -16.2379 C   0  0  0  0  0  0  0  0  0  0  0  0
   20.2577  -16.3623  -16.8088 N   0  0  0  0  0  0  0  0  0  0  0  0
   19.7782  -17.2069  -17.7447 C   0  0  0  0  0  0  0  0  0  0  0  0
   18.6920  -17.1500  -18.5925 C   0  0  0  0  0  0  0  0  0  0  0  0
   18.4595  -18.1955  -19.4581 C   0  0  0  0  0  0  0  0  0  0  0  0
   19.3350  -19.2762  -19.4439 C   0  0  0  0  0  0  0  0  0  0  0  0
   20.4210  -19.3342  -18.5968 C   0  0  0  0  0  0  0  0  0  0  0  0
   20.6483  -18.2921  -17.7377 C   0  0  0  0  0  0  0  0  0  0  0  0
   21.6333  -20.0052  -14.4855 C   0  0  0  0  0  0  0  0  0  0  0  0
   21.5803  -21.2814  -14.5140 O   0  0  0  0  0  0  0  0  0  0  0  0
   20.5844  -22.1103   -8.5121 C   0  0  0  0  0  0  0  0  0  0  0  0
   19.6092  -20.8340   -9.3724 S   0  0  0  0  0  0  0  0  0  0  0  0
   19.8703  -21.0895  -11.1656 C   0  0  0  0  0  0  0  0  0  0  0  0
   19.2568  -19.9296  -11.9182 C   0  0  0  0  0  0  0  0  0  0  0  0
   19.3858  -20.1233  -13.4172 C   0  0  2  0  0  0  0  0  0  0  0  0
   20.4903  -19.3508  -13.9515 N   0  0  0  0  0  0  0  0  0  0  0  0
   18.1394  -19.6001  -14.0389 C   0  0  0  0  0  0  0  0  0  0  0  0
   16.9702  -20.3492  -14.0932 O   0  0  0  0  0  0  0  0  0  0  0  0
   18.0852  -18.4506  -14.5464 O   0  0  0  0  0  0  0  0  0  0  0  0
  2  1  1  1
  2  3  1  0
  4  2  1  0
  5  4  1  0
  5  6  1  6
  7  8  2  0
  7  5  1  0
  9  7  1  0
 10  9  1  0
 10 11  1  6
 12 11  1  0
 12 13  2  0
 14 13  1  0
 15 20  2  0
 15 14  1  0
 16 15  1  0
 17 18  1  0
 17 16  2  0
 18 19  2  0
 19 20  1  0
 20 12  1  0
 21 10  1  0
 21 28  1  0
 22 21  2  0
 23 24  1  0
 25 24  1  0
 25 26  1  0
 27 26  1  1
 27 28  1  0
 27 29  1  0
 29 31  2  0
 29 30  1  0
M  END
$$$$
