LWM.pdb
     RDKit          3D

 31 32  0  0  1  0  0  0  0  0999 V2000
   31.7079  -23.0973  -19.6667 C   0  0  0  0  0  0  0  0  0  0  0  0
   30.6785  -23.5799  -18.6886 C   0  0  1  0  0  0  0  0  0  0  0  0
   31.2863  -24.6568  -17.8295 C   0  0  0  0  0  0  0  0  0  0  0  0
   30.0585  -22.4769  -17.8878 C   0  0  0  0  0  0  0  0  0  0  0  0
   29.1540  -23.0487  -16.8383 C   0  0  2  0  0  0  0  0  0  0  0  0
   28.2259  -24.0111  -17.3994 N   0  0  0  0  0  0  0  0  0  0  0  0
   28.4814  -22.0171  -16.0332 C   0  0  0  0  0  0  0  0  0  0  0  0
   29.1298  -20.9783  -15.7512 O   0  0  0  0  0  0  0  0  0  0  0  0
   27.1482  -22.1078  -15.5489 N   0  0  0  0  0  0  0  0  0  0  0  0
   26.5146  -21.0417  -14.8448 C   0  0  1  0  0  0  0  0  0  0  0  0
   25.3847  -20.5115  -15.6973 C   0  0  0  0  0  0  0  0  0  0  0  0
   24.9181  -19.1710  -15.2087 C   0  0  0  0  0  0  0  0  0  0  0  0
   23.6698  -18.8364  -14.7261 C   0  0  0  0  0  0  0  0  0  0  0  0
   23.6548  -17.5338  -14.3921 N   0  0  0  0  0  0  0  0  0  0  0  0
   24.8568  -16.9713  -14.6333 C   0  0  0  0  0  0  0  0  0  0  0  0
   25.3455  -15.6927  -14.4656 C   0  0  0  0  0  0  0  0  0  0  0  0
   26.6503  -15.4211  -14.8123 C   0  0  0  0  0  0  0  0  0  0  0  0
   27.4304  -16.4537  -15.3220 C   0  0  0  0  0  0  0  0  0  0  0  0
   26.9428  -17.7321  -15.4901 C   0  0  0  0  0  0  0  0  0  0  0  0
   25.6446  -17.9977  -15.1439 C   0  0  0  0  0  0  0  0  0  0  0  0
   26.1069  -21.3890  -13.4752 C   0  0  0  0  0  0  0  0  0  0  0  0
   25.3974  -22.4327  -13.2764 O   0  0  0  0  0  0  0  0  0  0  0  0
   28.0825  -18.4867   -8.1190 C   0  0  0  0  0  0  0  0  0  0  0  0
   27.2891  -19.8924   -7.2737 S   0  0  0  0  0  0  0  0  0  0  0  0
   26.3092  -20.7833   -8.5367 C   0  0  0  0  0  0  0  0  0  0  0  0
   26.7207  -20.2945   -9.9078 C   0  0  0  0  0  0  0  0  0  0  0  0
   26.0579  -21.1128  -10.9997 C   0  0  2  0  0  0  0  0  0  0  0  0
   26.4442  -20.6406  -12.3150 N   0  0  0  0  0  0  0  0  0  0  0  0
   24.5892  -20.9120  -10.8721 C   0  0  0  0  0  0  0  0  0  0  0  0
   23.8213  -21.6321   -9.9650 O   0  0  0  0  0  0  0  0  0  0  0  0
   23.9713  -20.0778  -11.5820 O   0  0  0  0  0  0  0  0  0  0  0  0
  2  1  1  6
  2  3  1  0
  4  2  1  0
  5  4  1  0
  5  6  1  6
  7  8  2  0
  7  5  1  0
  9  7  1  0
 10  9  1  0
 10 11  1  6
 12 11  1  0
 12 13  2  0
 14 13  1  0
 15 20  2  0
 15 14  1  0
 16 15  1  0
 17 18  1  0
 17 16  2  0
 18 19  2  0
 19 20  1  0
 20 12  1  0
 21 10  1  0
 21 28  1  0
 22 21  2  0
 23 24  1  0
 25 24  1  0
 25 26  1  0
 27 26  1  1
 27 28  1  0
 27 29  1  0
 29 31  2  0
 29 30  1  0
M  END
$$$$
