LWM.pdb
     RDKit          3D

 31 32  0  0  1  0  0  0  0  0999 V2000
   26.9686  -20.3732  -18.6165 C   0  0  0  0  0  0  0  0  0  0  0  0
   27.6738  -20.7827  -17.3579 C   0  0  1  0  0  0  0  0  0  0  0  0
   28.7091  -19.7440  -17.0166 C   0  0  0  0  0  0  0  0  0  0  0  0
   26.7411  -21.0702  -16.2222 C   0  0  0  0  0  0  0  0  0  0  0  0
   27.5206  -21.4461  -14.9985 C   0  0  2  0  0  0  0  0  0  0  0  0
   28.3548  -22.6087  -15.2326 N   0  0  0  0  0  0  0  0  0  0  0  0
   26.6791  -21.5856  -13.7997 C   0  0  0  0  0  0  0  0  0  0  0  0
   25.9041  -22.5730  -13.7392 O   0  0  0  0  0  0  0  0  0  0  0  0
   26.6771  -20.6840  -12.7010 N   0  0  0  0  0  0  0  0  0  0  0  0
   25.7320  -20.7751  -11.6369 C   0  0  1  0  0  0  0  0  0  0  0  0
   26.2036  -19.8944  -10.5026 C   0  0  0  0  0  0  0  0  0  0  0  0
   27.4156  -20.4736   -9.8325 C   0  0  0  0  0  0  0  0  0  0  0  0
   28.3470  -21.3363  -10.3723 C   0  0  0  0  0  0  0  0  0  0  0  0
   29.2802  -21.6214   -9.4469 N   0  0  0  0  0  0  0  0  0  0  0  0
   29.0116  -20.9779   -8.2924 C   0  0  0  0  0  0  0  0  0  0  0  0
   29.6482  -20.9382   -7.0697 C   0  0  0  0  0  0  0  0  0  0  0  0
   29.1165  -20.1675   -6.0599 C   0  0  0  0  0  0  0  0  0  0  0  0
   27.9497  -19.4541   -6.3135 C   0  0  0  0  0  0  0  0  0  0  0  0
   27.3125  -19.4931   -7.5353 C   0  0  0  0  0  0  0  0  0  0  0  0
   27.8450  -20.2609   -8.5367 C   0  0  0  0  0  0  0  0  0  0  0  0
   24.3436  -20.5156  -12.0465 C   0  0  0  0  0  0  0  0  0  0  0  0
   24.1158  -19.7609  -13.0519 O   0  0  0  0  0  0  0  0  0  0  0  0
   18.3632  -22.7146  -15.6845 C   0  0  0  0  0  0  0  0  0  0  0  0
   19.9479  -23.0878  -14.8664 S   0  0  0  0  0  0  0  0  0  0  0  0
   20.2140  -21.7833  -13.6107 C   0  0  0  0  0  0  0  0  0  0  0  0
   21.6099  -21.9270  -13.0460 C   0  0  0  0  0  0  0  0  0  0  0  0
   21.8794  -20.8767  -11.9851 C   0  0  2  0  0  0  0  0  0  0  0  0
   23.1952  -21.0486  -11.4009 N   0  0  0  0  0  0  0  0  0  0  0  0
   20.8836  -21.0808  -10.8986 C   0  0  0  0  0  0  0  0  0  0  0  0
   19.5867  -20.5889  -10.9833 O   0  0  0  0  0  0  0  0  0  0  0  0
   21.1701  -21.7107   -9.8484 O   0  0  0  0  0  0  0  0  0  0  0  0
  2  1  1  6
  2  3  1  0
  4  2  1  0
  5  4  1  0
  5  6  1  6
  7  8  2  0
  7  5  1  0
  9  7  1  0
 10  9  1  0
 10 11  1  1
 12 11  1  0
 12 13  2  0
 14 13  1  0
 15 20  2  0
 15 14  1  0
 16 15  1  0
 17 18  1  0
 17 16  2  0
 18 19  2  0
 19 20  1  0
 20 12  1  0
 21 10  1  0
 21 28  1  0
 22 21  2  0
 23 24  1  0
 25 24  1  0
 25 26  1  0
 27 26  1  6
 27 28  1  0
 27 29  1  0
 29 31  2  0
 29 30  1  0
M  END
$$$$
