LWM.pdb
     RDKit          3D

 31 32  0  0  1  0  0  0  0  0999 V2000
   27.8077  -23.8572  -17.7886 C   0  0  0  0  0  0  0  0  0  0  0  0
   28.2748  -22.7897  -16.8446 C   0  0  1  0  0  0  0  0  0  0  0  0
   28.7882  -21.6207  -17.6426 C   0  0  0  0  0  0  0  0  0  0  0  0
   27.2407  -22.3966  -15.8354 C   0  0  0  0  0  0  0  0  0  0  0  0
   27.8366  -21.4647  -14.8240 C   0  0  2  0  0  0  0  0  0  0  0  0
   29.2676  -21.6601  -14.6954 N   0  0  0  0  0  0  0  0  0  0  0  0
   27.1419  -21.5011  -13.5276 C   0  0  0  0  0  0  0  0  0  0  0  0
   25.9328  -21.8433  -13.5198 O   0  0  0  0  0  0  0  0  0  0  0  0
   27.7382  -21.1769  -12.2788 N   0  0  0  0  0  0  0  0  0  0  0  0
   26.9983  -21.1521  -11.0599 C   0  0  1  0  0  0  0  0  0  0  0  0
   27.9297  -20.7372   -9.9442 C   0  0  0  0  0  0  0  0  0  0  0  0
   27.1777  -20.5072   -8.6655 C   0  0  0  0  0  0  0  0  0  0  0  0
   25.8158  -20.5886   -8.4612 C   0  0  0  0  0  0  0  0  0  0  0  0
   25.5401  -20.3104   -7.1746 N   0  0  0  0  0  0  0  0  0  0  0  0
   26.6748  -20.0418   -6.4967 C   0  0  0  0  0  0  0  0  0  0  0  0
   26.9263  -19.7073   -5.1827 C   0  0  0  0  0  0  0  0  0  0  0  0
   28.2256  -19.4893   -4.7816 C   0  0  0  0  0  0  0  0  0  0  0  0
   29.2412  -19.6155   -5.7236 C   0  0  0  0  0  0  0  0  0  0  0  0
   28.9908  -19.9498   -7.0373 C   0  0  0  0  0  0  0  0  0  0  0  0
   27.6971  -20.1658   -7.4317 C   0  0  0  0  0  0  0  0  0  0  0  0
   25.7648  -20.3540  -11.1255 C   0  0  0  0  0  0  0  0  0  0  0  0
   25.8360  -19.1094  -11.4052 O   0  0  0  0  0  0  0  0  0  0  0  0
   23.6007  -18.2764  -15.6911 C   0  0  0  0  0  0  0  0  0  0  0  0
   22.1681  -19.3193  -15.2667 S   0  0  0  0  0  0  0  0  0  0  0  0
   22.0808  -19.3786  -13.4398 C   0  0  0  0  0  0  0  0  0  0  0  0
   23.2890  -20.1238  -12.9174 C   0  0  0  0  0  0  0  0  0  0  0  0
   23.2969  -20.1541  -11.4007 C   0  0  2  0  0  0  0  0  0  0  0  0
   24.4575  -20.8626  -10.8975 N   0  0  0  0  0  0  0  0  0  0  0  0
   22.0934  -20.9144  -10.9680 C   0  0  0  0  0  0  0  0  0  0  0  0
   22.1855  -22.1662  -10.3717 O   0  0  0  0  0  0  0  0  0  0  0  0
   20.9317  -20.4580  -11.1222 O   0  0  0  0  0  0  0  0  0  0  0  0
  2  1  1  6
  2  3  1  0
  4  2  1  0
  5  4  1  0
  5  6  1  1
  7  8  2  0
  7  5  1  0
  9  7  1  0
 10  9  1  0
 10 11  1  1
 12 11  1  0
 12 13  2  0
 14 13  1  0
 15 20  2  0
 15 14  1  0
 16 15  1  0
 17 18  1  0
 17 16  2  0
 18 19  2  0
 19 20  1  0
 20 12  1  0
 21 10  1  0
 21 28  1  0
 22 21  2  0
 23 24  1  0
 25 24  1  0
 25 26  1  0
 27 26  1  6
 27 28  1  0
 27 29  1  0
 29 31  2  0
 29 30  1  0
M  END
$$$$
