LWM.pdb
     RDKit          3D

 31 32  0  0  1  0  0  0  0  0999 V2000
   30.3347  -23.4424  -16.3746 C   0  0  0  0  0  0  0  0  0  0  0  0
   29.7088  -22.3306  -17.1630 C   0  0  1  0  0  0  0  0  0  0  0  0
   29.2618  -22.8676  -18.4968 C   0  0  0  0  0  0  0  0  0  0  0  0
   28.6155  -21.6224  -16.4244 C   0  0  0  0  0  0  0  0  0  0  0  0
   28.1175  -20.4617  -17.2312 C   0  0  2  0  0  0  0  0  0  0  0  0
   29.1606  -19.4797  -17.4549 N   0  0  0  0  0  0  0  0  0  0  0  0
   26.8877  -19.8662  -16.6855 C   0  0  0  0  0  0  0  0  0  0  0  0
   26.9583  -19.2959  -15.5680 O   0  0  0  0  0  0  0  0  0  0  0  0
   25.6211  -19.8879  -17.3301 N   0  0  0  0  0  0  0  0  0  0  0  0
   24.4242  -19.4621  -16.6821 C   0  0  1  0  0  0  0  0  0  0  0  0
   23.4382  -19.0234  -17.7404 C   0  0  0  0  0  0  0  0  0  0  0  0
   22.1663  -18.5193  -17.1227 C   0  0  0  0  0  0  0  0  0  0  0  0
   21.9377  -17.2855  -16.5496 C   0  0  0  0  0  0  0  0  0  0  0  0
   20.6678  -17.2256  -16.1110 N   0  0  0  0  0  0  0  0  0  0  0  0
   20.0247  -18.3828  -16.3688 C   0  0  0  0  0  0  0  0  0  0  0  0
   18.7386  -18.8166  -16.1249 C   0  0  0  0  0  0  0  0  0  0  0  0
   18.3709  -20.0842  -16.5179 C   0  0  0  0  0  0  0  0  0  0  0  0
   19.3174  -20.8839  -17.1499 C   0  0  0  0  0  0  0  0  0  0  0  0
   20.6033  -20.4513  -17.3941 C   0  0  0  0  0  0  0  0  0  0  0  0
   20.9644  -19.1899  -17.0016 C   0  0  0  0  0  0  0  0  0  0  0  0
   23.8748  -20.4445  -15.7357 C   0  0  0  0  0  0  0  0  0  0  0  0
   24.2038  -21.6742  -15.8449 O   0  0  0  0  0  0  0  0  0  0  0  0
   26.4758  -21.6425   -9.6479 C   0  0  0  0  0  0  0  0  0  0  0  0
   24.8401  -20.9706  -10.0873 S   0  0  0  0  0  0  0  0  0  0  0  0
   24.2819  -21.8728  -11.5784 C   0  0  0  0  0  0  0  0  0  0  0  0
   24.2775  -20.9191  -12.7527 C   0  0  0  0  0  0  0  0  0  0  0  0
   22.9474  -20.9576  -13.4810 C   0  0  2  0  0  0  0  0  0  0  0  0
   22.9807  -20.1357  -14.6750 N   0  0  0  0  0  0  0  0  0  0  0  0
   21.9278  -20.3715  -12.5697 C   0  0  0  0  0  0  0  0  0  0  0  0
   21.0667  -21.1624  -11.8186 O   0  0  0  0  0  0  0  0  0  0  0  0
   21.7969  -19.1279  -12.4357 O   0  0  0  0  0  0  0  0  0  0  0  0
  2  1  1  1
  2  3  1  0
  4  2  1  0
  5  4  1  0
  5  6  1  1
  7  8  2  0
  7  5  1  0
  9  7  1  0
 10  9  1  0
 10 11  1  6
 12 11  1  0
 12 13  2  0
 14 13  1  0
 15 20  2  0
 15 14  1  0
 16 15  1  0
 17 18  1  0
 17 16  2  0
 18 19  2  0
 19 20  1  0
 20 12  1  0
 21 10  1  0
 21 28  1  0
 22 21  2  0
 23 24  1  0
 25 24  1  0
 25 26  1  0
 27 26  1  1
 27 28  1  0
 27 29  1  0
 29 31  2  0
 29 30  1  0
M  END
$$$$
