LWM.pdb
     RDKit          3D

 31 32  0  0  1  0  0  0  0  0999 V2000
   24.3775  -27.4270  -17.0024 C   0  0  0  0  0  0  0  0  0  0  0  0
   22.9203  -27.4289  -16.6478 C   0  0  1  0  0  0  0  0  0  0  0  0
   22.5192  -28.8195  -16.2326 C   0  0  0  0  0  0  0  0  0  0  0  0
   22.5556  -26.3902  -15.6327 C   0  0  0  0  0  0  0  0  0  0  0  0
   21.1361  -26.5788  -15.1904 C   0  0  2  0  0  0  0  0  0  0  0  0
   20.2039  -26.3638  -16.2800 N   0  0  0  0  0  0  0  0  0  0  0  0
   20.7969  -25.7946  -13.9927 C   0  0  0  0  0  0  0  0  0  0  0  0
   21.5549  -25.8905  -12.9950 O   0  0  0  0  0  0  0  0  0  0  0  0
   19.6718  -24.9333  -13.8791 N   0  0  0  0  0  0  0  0  0  0  0  0
   19.4951  -24.0449  -12.7777 C   0  0  1  0  0  0  0  0  0  0  0  0
   19.1082  -22.6869  -13.3169 C   0  0  0  0  0  0  0  0  0  0  0  0
   20.3139  -21.9229  -13.7816 C   0  0  0  0  0  0  0  0  0  0  0  0
   21.1496  -21.1251  -13.0278 C   0  0  0  0  0  0  0  0  0  0  0  0
   22.1131  -20.6174  -13.8167 N   0  0  0  0  0  0  0  0  0  0  0  0
   21.9581  -21.0462  -15.0860 C   0  0  0  0  0  0  0  0  0  0  0  0
   22.6663  -20.8181  -16.2471 C   0  0  0  0  0  0  0  0  0  0  0  0
   22.2496  -21.4140  -17.4166 C   0  0  0  0  0  0  0  0  0  0  0  0
   21.1227  -22.2285  -17.3817 C   0  0  0  0  0  0  0  0  0  0  0  0
   20.4140  -22.4572  -16.2216 C   0  0  0  0  0  0  0  0  0  0  0  0
   20.8321  -21.8625  -15.0609 C   0  0  0  0  0  0  0  0  0  0  0  0
   18.5809  -24.5505  -11.7426 C   0  0  0  0  0  0  0  0  0  0  0  0
   17.5465  -25.2158  -12.0884 O   0  0  0  0  0  0  0  0  0  0  0  0
   19.3783  -26.5364   -5.3278 C   0  0  0  0  0  0  0  0  0  0  0  0
   18.0293  -25.3116   -5.3192 S   0  0  0  0  0  0  0  0  0  0  0  0
   17.2909  -25.3277   -6.9935 C   0  0  0  0  0  0  0  0  0  0  0  0
   18.2973  -24.7710   -7.9761 C   0  0  0  0  0  0  0  0  0  0  0  0
   17.8109  -24.9311   -9.4040 C   0  0  2  0  0  0  0  0  0  0  0  0
   18.7531  -24.3575  -10.3451 N   0  0  0  0  0  0  0  0  0  0  0  0
   16.5418  -24.1644   -9.5268 C   0  0  0  0  0  0  0  0  0  0  0  0
   15.2997  -24.7556   -9.3299 O   0  0  0  0  0  0  0  0  0  0  0  0
   16.5335  -22.9404   -9.8155 O   0  0  0  0  0  0  0  0  0  0  0  0
  2  1  1  1
  2  3  1  0
  4  2  1  0
  5  4  1  0
  5  6  1  6
  7  8  2  0
  7  5  1  0
  9  7  1  0
 10  9  1  0
 10 11  1  6
 12 11  1  0
 12 13  2  0
 14 13  1  0
 15 20  2  0
 15 14  1  0
 16 15  1  0
 17 18  1  0
 17 16  2  0
 18 19  2  0
 19 20  1  0
 20 12  1  0
 21 10  1  0
 21 28  1  0
 22 21  2  0
 23 24  1  0
 25 24  1  0
 25 26  1  0
 27 26  1  1
 27 28  1  0
 27 29  1  0
 29 31  2  0
 29 30  1  0
M  END
$$$$
