LWM.pdb
     RDKit          3D

 31 32  0  0  1  0  0  0  0  0999 V2000
   26.3493  -19.4918  -18.2635 C   0  0  0  0  0  0  0  0  0  0  0  0
   27.0860  -19.9442  -17.0380 C   0  0  1  0  0  0  0  0  0  0  0  0
   27.5965  -18.7354  -16.2994 C   0  0  0  0  0  0  0  0  0  0  0  0
   26.2833  -20.8617  -16.1685 C   0  0  0  0  0  0  0  0  0  0  0  0
   26.9937  -21.0916  -14.8690 C   0  0  2  0  0  0  0  0  0  0  0  0
   28.0454  -22.0808  -15.0027 N   0  0  0  0  0  0  0  0  0  0  0  0
   26.0777  -21.3868  -13.7561 C   0  0  0  0  0  0  0  0  0  0  0  0
   25.5016  -22.5035  -13.7514 O   0  0  0  0  0  0  0  0  0  0  0  0
   25.7947  -20.5001  -12.6818 N   0  0  0  0  0  0  0  0  0  0  0  0
   24.8814  -20.8291  -11.6371 C   0  0  1  0  0  0  0  0  0  0  0  0
   25.3093  -20.1029  -10.3825 C   0  0  0  0  0  0  0  0  0  0  0  0
   26.6415  -20.5955   -9.8968 C   0  0  0  0  0  0  0  0  0  0  0  0
   27.4743  -21.5129  -10.5035 C   0  0  0  0  0  0  0  0  0  0  0  0
   28.5743  -21.6844   -9.7490 N   0  0  0  0  0  0  0  0  0  0  0  0
   28.5149  -20.9105   -8.6460 C   0  0  0  0  0  0  0  0  0  0  0  0
   29.3723  -20.7253   -7.5819 C   0  0  0  0  0  0  0  0  0  0  0  0
   29.0238  -19.8430   -6.5836 C   0  0  0  0  0  0  0  0  0  0  0  0
   27.8122  -19.1679   -6.6875 C   0  0  0  0  0  0  0  0  0  0  0  0
   26.9544  -19.3523   -7.7508 C   0  0  0  0  0  0  0  0  0  0  0  0
   27.3051  -20.2307   -8.7413 C   0  0  0  0  0  0  0  0  0  0  0  0
   23.4693  -20.6167  -11.9886 C   0  0  0  0  0  0  0  0  0  0  0  0
   23.1024  -19.4876  -12.4608 O   0  0  0  0  0  0  0  0  0  0  0  0
   19.4957  -25.3808  -11.9587 C   0  0  0  0  0  0  0  0  0  0  0  0
   19.0897  -24.5890  -13.5488 S   0  0  0  0  0  0  0  0  0  0  0  0
   20.0170  -23.0124  -13.6055 C   0  0  0  0  0  0  0  0  0  0  0  0
   20.1990  -22.5022  -12.1931 C   0  0  0  0  0  0  0  0  0  0  0  0
   21.0693  -21.2599  -12.1703 C   0  0  2  0  0  0  0  0  0  0  0  0
   22.4432  -21.5894  -11.8446 N   0  0  0  0  0  0  0  0  0  0  0  0
   20.5565  -20.3814  -11.0845 C   0  0  0  0  0  0  0  0  0  0  0  0
   20.9165  -20.5638   -9.7547 O   0  0  0  0  0  0  0  0  0  0  0  0
   19.7700  -19.4287  -11.3201 O   0  0  0  0  0  0  0  0  0  0  0  0
  2  1  1  6
  2  3  1  0
  4  2  1  0
  5  4  1  0
  5  6  1  6
  7  8  2  0
  7  5  1  0
  9  7  1  0
 10  9  1  0
 10 11  1  1
 12 11  1  0
 12 13  2  0
 14 13  1  0
 15 20  2  0
 15 14  1  0
 16 15  1  0
 17 18  1  0
 17 16  2  0
 18 19  2  0
 19 20  1  0
 20 12  1  0
 21 10  1  0
 21 28  1  0
 22 21  2  0
 23 24  1  0
 25 24  1  0
 25 26  1  0
 27 26  1  1
 27 28  1  0
 27 29  1  0
 29 31  2  0
 29 30  1  0
M  END
$$$$
