LWM.pdb
     RDKit          3D

 31 32  0  0  1  0  0  0  0  0999 V2000
   29.6245  -23.3075  -17.3418 C   0  0  0  0  0  0  0  0  0  0  0  0
   28.9516  -22.1100  -16.7400 C   0  0  1  0  0  0  0  0  0  0  0  0
   28.0049  -21.5203  -17.7516 C   0  0  0  0  0  0  0  0  0  0  0  0
   28.2942  -22.3972  -15.4256 C   0  0  0  0  0  0  0  0  0  0  0  0
   27.6554  -21.1531  -14.8868 C   0  0  2  0  0  0  0  0  0  0  0  0
   28.5735  -20.0310  -14.9032 N   0  0  0  0  0  0  0  0  0  0  0  0
   27.0277  -21.3513  -13.5709 C   0  0  0  0  0  0  0  0  0  0  0  0
   26.0968  -22.1910  -13.4859 O   0  0  0  0  0  0  0  0  0  0  0  0
   27.3969  -20.6615  -12.3843 N   0  0  0  0  0  0  0  0  0  0  0  0
   26.7275  -20.8629  -11.1412 C   0  0  1  0  0  0  0  0  0  0  0  0
   27.5880  -20.2919  -10.0375 C   0  0  0  0  0  0  0  0  0  0  0  0
   26.9564  -20.5020   -8.6920 C   0  0  0  0  0  0  0  0  0  0  0  0
   25.6537  -20.8645   -8.4187 C   0  0  0  0  0  0  0  0  0  0  0  0
   25.4836  -20.9475   -7.0872 N   0  0  0  0  0  0  0  0  0  0  0  0
   26.6326  -20.6520   -6.4457 C   0  0  0  0  0  0  0  0  0  0  0  0
   26.9748  -20.5959   -5.1109 C   0  0  0  0  0  0  0  0  0  0  0  0
   28.2625  -20.2553   -4.7610 C   0  0  0  0  0  0  0  0  0  0  0  0
   29.1746  -19.9789   -5.7741 C   0  0  0  0  0  0  0  0  0  0  0  0
   28.8335  -20.0346   -7.1086 C   0  0  0  0  0  0  0  0  0  0  0  0
   27.5518  -20.3739   -7.4519 C   0  0  0  0  0  0  0  0  0  0  0  0
   25.3416  -20.3714  -11.1221 C   0  0  0  0  0  0  0  0  0  0  0  0
   25.1087  -19.1387  -11.3638 O   0  0  0  0  0  0  0  0  0  0  0  0
   21.7223  -23.8066  -14.4198 C   0  0  0  0  0  0  0  0  0  0  0  0
   20.2739  -22.9831  -13.6822 S   0  0  0  0  0  0  0  0  0  0  0  0
   20.9123  -21.5995  -12.6689 C   0  0  0  0  0  0  0  0  0  0  0  0
   22.3046  -21.9469  -12.1904 C   0  0  0  0  0  0  0  0  0  0  0  0
   22.9032  -20.8100  -11.3838 C   0  0  2  0  0  0  0  0  0  0  0  0
   24.2009  -21.1742  -10.8495 N   0  0  0  0  0  0  0  0  0  0  0  0
   22.0011  -20.5673  -10.2259 C   0  0  0  0  0  0  0  0  0  0  0  0
   22.2526  -21.1031   -8.9686 O   0  0  0  0  0  0  0  0  0  0  0  0
   20.9644  -19.8630  -10.3310 O   0  0  0  0  0  0  0  0  0  0  0  0
  2  1  1  6
  2  3  1  0
  4  2  1  0
  5  4  1  0
  5  6  1  1
  7  8  2  0
  7  5  1  0
  9  7  1  0
 10  9  1  0
 10 11  1  1
 12 11  1  0
 12 13  2  0
 14 13  1  0
 15 20  2  0
 15 14  1  0
 16 15  1  0
 17 18  1  0
 17 16  2  0
 18 19  2  0
 19 20  1  0
 20 12  1  0
 21 10  1  0
 21 28  1  0
 22 21  2  0
 23 24  1  0
 25 24  1  0
 25 26  1  0
 27 26  1  6
 27 28  1  0
 27 29  1  0
 29 31  2  0
 29 30  1  0
M  END
$$$$
