WSD.pdb
     RDKit          3D

 29 30  0  0  1  0  0  0  0  0999 V2000
   30.1733  -30.6292  -18.2364 N   0  0  0  0  0  0  0  0  0  0  0  0
   29.2024  -29.6982  -18.6909 C   0  0  1  0  0  0  0  0  0  0  0  0
   28.1602  -30.3826  -19.5440 C   0  0  0  0  0  0  0  0  0  0  0  0
   28.6163  -30.7938  -20.8676 C   0  0  0  0  0  0  0  0  0  0  0  0
   29.3791  -31.9191  -21.1086 C   0  0  0  0  0  0  0  0  0  0  0  0
   29.5828  -31.9961  -22.4328 N   0  0  0  0  0  0  0  0  0  0  0  0
   28.9658  -30.9439  -23.0302 C   0  0  0  0  0  0  0  0  0  0  0  0
   28.8691  -30.5517  -24.3412 C   0  0  0  0  0  0  0  0  0  0  0  0
   28.1674  -29.4041  -24.6765 C   0  0  0  0  0  0  0  0  0  0  0  0
   27.5514  -28.6273  -23.7222 C   0  0  0  0  0  0  0  0  0  0  0  0
   27.6506  -29.0249  -22.4048 C   0  0  0  0  0  0  0  0  0  0  0  0
   28.3472  -30.1677  -22.0618 C   0  0  0  0  0  0  0  0  0  0  0  0
   28.4382  -29.0694  -17.5645 C   0  0  0  0  0  0  0  0  0  0  0  0
   28.9485  -29.1770  -16.4232 O   0  0  0  0  0  0  0  0  0  0  0  0
   27.0256  -25.5652  -15.3713 O   0  0  0  0  0  0  0  0  0  0  0  0
   27.5820  -26.4259  -16.2922 C   0  0  0  0  0  0  0  0  0  0  0  0
   26.6354  -27.5282  -16.7163 C   0  0  2  0  0  0  0  0  0  0  0  0
   27.2147  -28.3864  -17.7240 N   0  0  0  0  0  0  0  0  0  0  0  0
   25.3605  -26.9800  -17.2361 C   0  0  0  0  0  0  0  0  0  0  0  0
   25.2934  -26.3480  -18.3330 O   0  0  0  0  0  0  0  0  0  0  0  0
   24.1243  -27.1236  -16.5433 N   0  0  0  0  0  0  0  0  0  0  0  0
   22.8779  -26.5220  -17.0946 C   0  0  1  0  0  0  0  0  0  0  0  0
   21.7759  -27.2223  -16.3364 C   0  0  0  0  0  0  0  0  0  0  0  0
   20.4207  -26.8196  -16.6635 C   0  0  0  0  0  0  0  0  0  0  0  0
   20.1514  -25.8862  -17.4315 O   0  0  0  0  0  0  0  0  0  0  0  0
   22.9054  -25.0625  -16.8360 C   0  0  0  0  0  0  0  0  0  0  0  0
   23.3808  -24.6536  -15.7164 O   0  0  0  0  0  0  0  0  0  0  0  0
   19.3673  -27.5192  -16.0831 O   0  0  0  0  0  0  0  0  0  0  0  0
   22.4369  -24.1600  -17.7661 O   0  0  0  0  0  0  0  0  0  0  0  0
  2  1  1  1
  2  3  1  0
  2 13  1  0
  3  4  1  0
  4 12  1  0
  5  6  1  0
  5  4  2  0
  6  7  1  0
  7 12  2  0
  7  8  1  0
  8  9  2  0
  9 10  1  0
 11 10  2  0
 12 11  1  0
 13 18  1  0
 14 13  2  0
 16 15  1  0
 17 16  1  6
 18 17  1  0
 19 17  1  0
 19 21  1  0
 20 19  2  0
 22 21  1  0
 22 26  1  0
 22 23  1  1
 23 24  1  0
 24 25  2  0
 26 29  1  0
 27 26  2  0
 28 24  1  0
M  END
$$$$
