WSD.pdb
     RDKit          3D

 29 30  0  0  1  0  0  0  0  0999 V2000
   28.3668  -22.1792  -10.2457 N   0  0  0  0  0  0  0  0  0  0  0  0
   27.2890  -21.3233   -9.8966 C   0  0  1  0  0  0  0  0  0  0  0  0
   27.7893  -20.1027   -9.1605 C   0  0  0  0  0  0  0  0  0  0  0  0
   28.6409  -20.3802   -8.0086 C   0  0  0  0  0  0  0  0  0  0  0  0
   29.8972  -20.9466   -8.0932 C   0  0  0  0  0  0  0  0  0  0  0  0
   30.3926  -21.0245   -6.8483 N   0  0  0  0  0  0  0  0  0  0  0  0
   29.4757  -20.5202   -5.9825 C   0  0  0  0  0  0  0  0  0  0  0  0
   29.4757  -20.3719   -4.6187 C   0  0  0  0  0  0  0  0  0  0  0  0
   28.3779  -19.8203   -3.9765 C   0  0  0  0  0  0  0  0  0  0  0  0
   27.2643  -19.4076   -4.6716 C   0  0  0  0  0  0  0  0  0  0  0  0
   27.2679  -19.5582   -6.0430 C   0  0  0  0  0  0  0  0  0  0  0  0
   28.3581  -20.1061   -6.6913 C   0  0  0  0  0  0  0  0  0  0  0  0
   26.5667  -20.7903  -11.0976 C   0  0  0  0  0  0  0  0  0  0  0  0
   27.2852  -20.2942  -11.9989 O   0  0  0  0  0  0  0  0  0  0  0  0
   24.4496  -22.9179  -13.1465 O   0  0  0  0  0  0  0  0  0  0  0  0
   24.8263  -21.6522  -13.5397 C   0  0  0  0  0  0  0  0  0  0  0  0
   24.4923  -20.5917  -12.5126 C   0  0  2  0  0  0  0  0  0  0  0  0
   25.1655  -20.8200  -11.2548 N   0  0  0  0  0  0  0  0  0  0  0  0
   23.0335  -20.5169  -12.2629 C   0  0  0  0  0  0  0  0  0  0  0  0
   22.4672  -21.1958  -11.3543 O   0  0  0  0  0  0  0  0  0  0  0  0
   22.1668  -19.6801  -13.0228 N   0  0  0  0  0  0  0  0  0  0  0  0
   20.7080  -19.6379  -12.7238 C   0  0  1  0  0  0  0  0  0  0  0  0
   20.1707  -18.6210  -13.7021 C   0  0  0  0  0  0  0  0  0  0  0  0
   19.0449  -17.8280  -13.2444 C   0  0  0  0  0  0  0  0  0  0  0  0
   18.4964  -17.9897  -12.1460 O   0  0  0  0  0  0  0  0  0  0  0  0
   20.1429  -20.9906  -12.9442 C   0  0  0  0  0  0  0  0  0  0  0  0
   19.2040  -21.3900  -12.1661 O   0  0  0  0  0  0  0  0  0  0  0  0
   18.5553  -16.8328  -14.0845 O   0  0  0  0  0  0  0  0  0  0  0  0
   20.6050  -21.8054  -13.9550 O   0  0  0  0  0  0  0  0  0  0  0  0
  2  1  1  6
  2  3  1  0
  2 13  1  0
  3  4  1  0
  4 12  1  0
  5  6  1  0
  5  4  2  0
  6  7  1  0
  7 12  2  0
  7  8  1  0
  8  9  2  0
  9 10  1  0
 11 10  2  0
 12 11  1  0
 13 18  1  0
 14 13  2  0
 16 15  1  0
 17 16  1  6
 18 17  1  0
 19 17  1  0
 19 21  1  0
 20 19  2  0
 22 21  1  0
 22 26  1  0
 22 23  1  6
 23 24  1  0
 24 25  2  0
 26 29  1  0
 27 26  2  0
 28 24  1  0
M  END
$$$$
