WSD.pdb
     RDKit          3D

 29 30  0  0  1  0  0  0  0  0999 V2000
   23.4097   -7.9019  -18.0129 N   0  0  0  0  0  0  0  0  0  0  0  0
   23.1383   -6.8007  -17.1587 C   0  0  1  0  0  0  0  0  0  0  0  0
   22.7241   -5.5888  -17.9600 C   0  0  0  0  0  0  0  0  0  0  0  0
   23.7837   -4.9843  -18.7605 C   0  0  0  0  0  0  0  0  0  0  0  0
   24.2419   -5.5017  -19.9558 C   0  0  0  0  0  0  0  0  0  0  0  0
   25.1903   -4.6735  -20.4202 N   0  0  0  0  0  0  0  0  0  0  0  0
   25.3394   -3.6469  -19.5435 C   0  0  0  0  0  0  0  0  0  0  0  0
   26.1635   -2.5502  -19.5355 C   0  0  0  0  0  0  0  0  0  0  0  0
   26.1103   -1.6447  -18.4872 C   0  0  0  0  0  0  0  0  0  0  0  0
   25.2428   -1.8092  -17.4317 C   0  0  0  0  0  0  0  0  0  0  0  0
   24.4155   -2.9131  -17.4431 C   0  0  0  0  0  0  0  0  0  0  0  0
   24.4612   -3.8202  -18.4843 C   0  0  0  0  0  0  0  0  0  0  0  0
   21.9947   -7.0656  -16.2259 C   0  0  0  0  0  0  0  0  0  0  0  0
   20.9526   -7.5305  -16.7479 O   0  0  0  0  0  0  0  0  0  0  0  0
   22.0459   -5.7419  -12.2327 O   0  0  0  0  0  0  0  0  0  0  0  0
   21.2767   -6.8529  -12.5021 C   0  0  0  0  0  0  0  0  0  0  0  0
   20.8943   -6.9655  -13.9622 C   0  0  2  0  0  0  0  0  0  0  0  0
   22.0356   -6.8242  -14.8370 N   0  0  0  0  0  0  0  0  0  0  0  0
   19.8803   -5.9525  -14.3384 C   0  0  0  0  0  0  0  0  0  0  0  0
   20.1797   -4.9027  -14.9830 O   0  0  0  0  0  0  0  0  0  0  0  0
   18.5020   -6.0854  -14.0042 N   0  0  0  0  0  0  0  0  0  0  0  0
   17.5193   -5.0529  -14.4371 C   0  0  1  0  0  0  0  0  0  0  0  0
   17.5545   -5.1338  -15.9444 C   0  0  0  0  0  0  0  0  0  0  0  0
   17.0179   -3.9898  -16.6576 C   0  0  0  0  0  0  0  0  0  0  0  0
   16.5645   -2.9843  -16.0945 O   0  0  0  0  0  0  0  0  0  0  0  0
   16.1909   -5.4050  -13.8811 C   0  0  0  0  0  0  0  0  0  0  0  0
   15.6473   -4.5939  -13.0485 O   0  0  0  0  0  0  0  0  0  0  0  0
   17.0121   -4.0240  -18.0485 O   0  0  0  0  0  0  0  0  0  0  0  0
   15.5473   -6.5688  -14.2425 O   0  0  0  0  0  0  0  0  0  0  0  0
  2  1  1  6
  2  3  1  0
  2 13  1  0
  3  4  1  0
  4 12  1  0
  5  6  1  0
  5  4  2  0
  6  7  1  0
  7 12  2  0
  7  8  1  0
  8  9  2  0
  9 10  1  0
 11 10  2  0
 12 11  1  0
 13 18  1  0
 14 13  2  0
 16 15  1  0
 17 16  1  1
 18 17  1  0
 19 17  1  0
 19 21  1  0
 20 19  2  0
 22 21  1  0
 22 26  1  0
 22 23  1  6
 23 24  1  0
 24 25  2  0
 26 29  1  0
 27 26  2  0
 28 24  1  0
M  END
$$$$
