WSD.pdb
     RDKit          3D

 29 30  0  0  1  0  0  0  0  0999 V2000
   27.4925  -22.1168  -14.6659 N   0  0  0  0  0  0  0  0  0  0  0  0
   26.3871  -21.7965  -13.8343 C   0  0  1  0  0  0  0  0  0  0  0  0
   26.6073  -20.4766  -13.1332 C   0  0  0  0  0  0  0  0  0  0  0  0
   27.4910  -20.5315  -11.9735 C   0  0  0  0  0  0  0  0  0  0  0  0
   28.8638  -20.3992  -12.0392 C   0  0  0  0  0  0  0  0  0  0  0  0
   29.3395  -20.4715  -10.7864 N   0  0  0  0  0  0  0  0  0  0  0  0
   28.2968  -20.6470   -9.9340 C   0  0  0  0  0  0  0  0  0  0  0  0
   28.2302  -20.7857   -8.5708 C   0  0  0  0  0  0  0  0  0  0  0  0
   27.0055  -20.9636   -7.9462 C   0  0  0  0  0  0  0  0  0  0  0  0
   25.8290  -21.0073   -8.6587 C   0  0  0  0  0  0  0  0  0  0  0  0
   25.8997  -20.8674  -10.0293 C   0  0  0  0  0  0  0  0  0  0  0  0
   27.1160  -20.6888  -10.6600 C   0  0  0  0  0  0  0  0  0  0  0  0
   25.1160  -21.6230  -14.6103 C   0  0  0  0  0  0  0  0  0  0  0  0
   25.1898  -20.9069  -15.6381 O   0  0  0  0  0  0  0  0  0  0  0  0
   22.1773  -24.5016  -14.4492 O   0  0  0  0  0  0  0  0  0  0  0  0
   22.3773  -23.6663  -15.5266 C   0  0  0  0  0  0  0  0  0  0  0  0
   22.7305  -22.2521  -15.1189 C   0  0  2  0  0  0  0  0  0  0  0  0
   23.8841  -22.2074  -14.2501 N   0  0  0  0  0  0  0  0  0  0  0  0
   21.5972  -21.5837  -14.4370 C   0  0  0  0  0  0  0  0  0  0  0  0
   21.5471  -21.4547  -13.1769 O   0  0  0  0  0  0  0  0  0  0  0  0
   20.4878  -21.0402  -15.1460 N   0  0  0  0  0  0  0  0  0  0  0  0
   19.3294  -20.4660  -14.4059 C   0  0  1  0  0  0  0  0  0  0  0  0
   18.9000  -19.2986  -15.2618 C   0  0  0  0  0  0  0  0  0  0  0  0
   19.6074  -18.0511  -15.0410 C   0  0  0  0  0  0  0  0  0  0  0  0
   20.1037  -17.7299  -13.9528 O   0  0  0  0  0  0  0  0  0  0  0  0
   18.2785  -21.5059  -14.2965 C   0  0  0  0  0  0  0  0  0  0  0  0
   18.3468  -22.5220  -15.0772 O   0  0  0  0  0  0  0  0  0  0  0  0
   19.7351  -17.1682  -16.1087 O   0  0  0  0  0  0  0  0  0  0  0  0
   17.2518  -21.3954  -13.3838 O   0  0  0  0  0  0  0  0  0  0  0  0
  2  1  1  6
  2  3  1  0
  2 13  1  0
  3  4  1  0
  4 12  1  0
  5  6  1  0
  5  4  2  0
  6  7  1  0
  7 12  2  0
  7  8  1  0
  8  9  2  0
  9 10  1  0
 11 10  2  0
 12 11  1  0
 13 18  1  0
 14 13  2  0
 16 15  1  0
 17 16  1  1
 18 17  1  0
 19 17  1  0
 19 21  1  0
 20 19  2  0
 22 21  1  0
 22 26  1  0
 22 23  1  6
 23 24  1  0
 24 25  2  0
 26 29  1  0
 27 26  2  0
 28 24  1  0
M  END
$$$$
