WSD.pdb
     RDKit          3D

 29 30  0  0  1  0  0  0  0  0999 V2000
   27.0338  -18.4530  -12.9843 N   0  0  0  0  0  0  0  0  0  0  0  0
   27.2394  -19.8332  -13.2466 C   0  0  1  0  0  0  0  0  0  0  0  0
   26.3064  -20.6825  -12.4157 C   0  0  0  0  0  0  0  0  0  0  0  0
   26.4372  -20.5150  -10.9721 C   0  0  0  0  0  0  0  0  0  0  0  0
   25.3809  -20.2434  -10.1254 C   0  0  0  0  0  0  0  0  0  0  0  0
   25.8664  -20.1860   -8.8756 N   0  0  0  0  0  0  0  0  0  0  0  0
   27.2045  -20.4147   -8.9171 C   0  0  0  0  0  0  0  0  0  0  0  0
   28.1653  -20.4610   -7.9391 C   0  0  0  0  0  0  0  0  0  0  0  0
   29.4876  -20.7125   -8.2709 C   0  0  0  0  0  0  0  0  0  0  0  0
   29.8801  -20.9216   -9.5731 C   0  0  0  0  0  0  0  0  0  0  0  0
   28.9112  -20.8745  -10.5541 C   0  0  0  0  0  0  0  0  0  0  0  0
   27.5908  -20.6253  -10.2322 C   0  0  0  0  0  0  0  0  0  0  0  0
   26.9411  -20.1979  -14.6701 C   0  0  0  0  0  0  0  0  0  0  0  0
   26.1427  -19.4441  -15.2775 O   0  0  0  0  0  0  0  0  0  0  0  0
   28.2376  -23.8020  -16.4962 O   0  0  0  0  0  0  0  0  0  0  0  0
   28.2512  -22.6486  -17.2499 C   0  0  0  0  0  0  0  0  0  0  0  0
   27.2924  -21.5965  -16.7353 C   0  0  2  0  0  0  0  0  0  0  0  0
   27.4977  -21.3107  -15.3340 N   0  0  0  0  0  0  0  0  0  0  0  0
   25.8813  -22.0028  -16.9346 C   0  0  0  0  0  0  0  0  0  0  0  0
   25.3909  -22.2015  -18.0866 O   0  0  0  0  0  0  0  0  0  0  0  0
   24.9786  -22.1984  -15.8503 N   0  0  0  0  0  0  0  0  0  0  0  0
   23.5569  -22.5595  -16.1099 C   0  0  1  0  0  0  0  0  0  0  0  0
   23.2903  -23.6864  -15.1410 C   0  0  0  0  0  0  0  0  0  0  0  0
   21.9295  -24.1891  -15.1054 C   0  0  0  0  0  0  0  0  0  0  0  0
   21.0066  -23.7115  -15.7790 O   0  0  0  0  0  0  0  0  0  0  0  0
   22.7128  -21.3704  -15.8429 C   0  0  0  0  0  0  0  0  0  0  0  0
   23.0590  -20.5820  -14.8914 O   0  0  0  0  0  0  0  0  0  0  0  0
   21.6462  -25.2649  -14.2698 O   0  0  0  0  0  0  0  0  0  0  0  0
   21.5853  -21.1081  -16.5906 O   0  0  0  0  0  0  0  0  0  0  0  0
  2  1  1  6
  2  3  1  0
  2 13  1  0
  3  4  1  0
  4 12  1  0
  5  6  1  0
  5  4  2  0
  6  7  1  0
  7 12  2  0
  7  8  1  0
  8  9  2  0
  9 10  1  0
 11 10  2  0
 12 11  1  0
 13 18  1  0
 14 13  2  0
 16 15  1  0
 17 16  1  1
 18 17  1  0
 19 17  1  0
 19 21  1  0
 20 19  2  0
 22 21  1  0
 22 26  1  0
 22 23  1  1
 23 24  1  0
 24 25  2  0
 26 29  1  0
 27 26  2  0
 28 24  1  0
M  END
$$$$
