WSD.pdb
     RDKit          3D

 29 30  0  0  1  0  0  0  0  0999 V2000
   26.6957  -22.6987  -12.2474 N   0  0  0  0  0  0  0  0  0  0  0  0
   25.9474  -21.7937  -11.4492 C   0  0  1  0  0  0  0  0  0  0  0  0
   26.6749  -20.4776  -11.3041 C   0  0  0  0  0  0  0  0  0  0  0  0
   27.7870  -20.4858  -10.3597 C   0  0  0  0  0  0  0  0  0  0  0  0
   29.0984  -20.7385  -10.7100 C   0  0  0  0  0  0  0  0  0  0  0  0
   29.8434  -20.6337   -9.5987 N   0  0  0  0  0  0  0  0  0  0  0  0
   29.0300  -20.3214   -8.5569 C   0  0  0  0  0  0  0  0  0  0  0  0
   29.2749  -20.1099   -7.2238 C   0  0  0  0  0  0  0  0  0  0  0  0
   28.2323  -19.8060   -6.3621 C   0  0  0  0  0  0  0  0  0  0  0  0
   26.9330  -19.7069   -6.8044 C   0  0  0  0  0  0  0  0  0  0  0  0
   26.6904  -19.9200   -8.1456 C   0  0  0  0  0  0  0  0  0  0  0  0
   27.7236  -20.2225   -9.0116 C   0  0  0  0  0  0  0  0  0  0  0  0
   24.6238  -21.4465  -12.0620 C   0  0  0  0  0  0  0  0  0  0  0  0
   24.5277  -21.6161  -13.3016 O   0  0  0  0  0  0  0  0  0  0  0  0
   21.2971  -19.4900  -10.1167 O   0  0  0  0  0  0  0  0  0  0  0  0
   21.1502  -20.7086  -10.7427 C   0  0  0  0  0  0  0  0  0  0  0  0
   22.1675  -20.9341  -11.8405 C   0  0  2  0  0  0  0  0  0  0  0  0
   23.5204  -20.9550  -11.3339 N   0  0  0  0  0  0  0  0  0  0  0  0
   22.0712  -19.8953  -12.8929 C   0  0  0  0  0  0  0  0  0  0  0  0
   22.7918  -18.8523  -12.8817 O   0  0  0  0  0  0  0  0  0  0  0  0
   21.1657  -19.9940  -13.9880 N   0  0  0  0  0  0  0  0  0  0  0  0
   21.0522  -18.8827  -14.9737 C   0  0  1  0  0  0  0  0  0  0  0  0
   20.7421  -19.5862  -16.2732 C   0  0  0  0  0  0  0  0  0  0  0  0
   20.4552  -18.7305  -17.4094 C   0  0  0  0  0  0  0  0  0  0  0  0
   19.6433  -19.0229  -18.2977 O   0  0  0  0  0  0  0  0  0  0  0  0
   19.9580  -17.9806  -14.5420 C   0  0  0  0  0  0  0  0  0  0  0  0
   18.9963  -18.4792  -13.8541 O   0  0  0  0  0  0  0  0  0  0  0  0
   21.1281  -17.5165  -17.5065 O   0  0  0  0  0  0  0  0  0  0  0  0
   19.9636  -16.6405  -14.8639 O   0  0  0  0  0  0  0  0  0  0  0  0
  2  1  1  6
  2  3  1  0
  2 13  1  0
  3  4  1  0
  4 12  1  0
  5  6  1  0
  5  4  2  0
  6  7  1  0
  7 12  2  0
  7  8  1  0
  8  9  2  0
  9 10  1  0
 11 10  2  0
 12 11  1  0
 13 18  1  0
 14 13  2  0
 16 15  1  0
 17 16  1  1
 18 17  1  0
 19 17  1  0
 19 21  1  0
 20 19  2  0
 22 21  1  0
 22 26  1  0
 22 23  1  6
 23 24  1  0
 24 25  2  0
 26 29  1  0
 27 26  2  0
 28 24  1  0
M  END
$$$$
