WSD.pdb
     RDKit          3D

 29 30  0  0  1  0  0  0  0  0999 V2000
   25.9728  -21.6870   -8.8170 N   0  0  0  0  0  0  0  0  0  0  0  0
   26.3871  -20.5113   -9.4966 C   0  0  1  0  0  0  0  0  0  0  0  0
   27.8909  -20.4735   -9.6364 C   0  0  0  0  0  0  0  0  0  0  0  0
   28.6335  -20.7238   -8.4056 C   0  0  0  0  0  0  0  0  0  0  0  0
   29.7432  -21.5413   -8.3236 C   0  0  0  0  0  0  0  0  0  0  0  0
   30.1776  -21.5107   -7.0542 N   0  0  0  0  0  0  0  0  0  0  0  0
   29.3656  -20.6927   -6.3356 C   0  0  0  0  0  0  0  0  0  0  0  0
   29.3609  -20.3228   -5.0146 C   0  0  0  0  0  0  0  0  0  0  0  0
   28.3881  -19.4594   -4.5350 C   0  0  0  0  0  0  0  0  0  0  0  0
   27.4060  -18.9492   -5.3527 C   0  0  0  0  0  0  0  0  0  0  0  0
   27.4139  -19.3232   -6.6806 C   0  0  0  0  0  0  0  0  0  0  0  0
   28.3802  -20.1825   -7.1673 C   0  0  0  0  0  0  0  0  0  0  0  0
   25.8595  -20.4422  -10.8984 C   0  0  0  0  0  0  0  0  0  0  0  0
   26.3717  -19.5680  -11.6387 O   0  0  0  0  0  0  0  0  0  0  0  0
   24.0814  -23.5590  -12.9263 O   0  0  0  0  0  0  0  0  0  0  0  0
   24.5104  -22.4129  -13.5596 C   0  0  0  0  0  0  0  0  0  0  0  0
   24.2911  -21.1646  -12.7323 C   0  0  2  0  0  0  0  0  0  0  0  0
   24.8490  -21.2855  -11.4050 N   0  0  0  0  0  0  0  0  0  0  0  0
   22.8507  -20.8373  -12.6131 C   0  0  0  0  0  0  0  0  0  0  0  0
   22.1856  -21.0842  -11.5625 O   0  0  0  0  0  0  0  0  0  0  0  0
   22.1135  -20.2241  -13.6664 N   0  0  0  0  0  0  0  0  0  0  0  0
   20.6315  -20.1018  -13.5762 C   0  0  1  0  0  0  0  0  0  0  0  0
   20.2730  -19.2156  -14.7448 C   0  0  0  0  0  0  0  0  0  0  0  0
   19.2448  -18.2213  -14.4999 C   0  0  0  0  0  0  0  0  0  0  0  0
   18.8848  -17.3884  -15.3427 O   0  0  0  0  0  0  0  0  0  0  0  0
   20.0397  -21.4563  -13.6891 C   0  0  0  0  0  0  0  0  0  0  0  0
   18.8906  -21.6627  -13.1564 O   0  0  0  0  0  0  0  0  0  0  0  0
   18.6308  -18.2023  -13.2516 O   0  0  0  0  0  0  0  0  0  0  0  0
   20.6964  -22.4738  -14.3470 O   0  0  0  0  0  0  0  0  0  0  0  0
  2  1  1  6
  2  3  1  0
  2 13  1  0
  3  4  1  0
  4 12  1  0
  5  6  1  0
  5  4  2  0
  6  7  1  0
  7 12  2  0
  7  8  1  0
  8  9  2  0
  9 10  1  0
 11 10  2  0
 12 11  1  0
 13 18  1  0
 14 13  2  0
 16 15  1  0
 17 16  1  1
 18 17  1  0
 19 17  1  0
 19 21  1  0
 20 19  2  0
 22 21  1  0
 22 26  1  0
 22 23  1  6
 23 24  1  0
 24 25  2  0
 26 29  1  0
 27 26  2  0
 28 24  1  0
M  END
$$$$
