WSD.pdb
     RDKit          3D

 29 30  0  0  1  0  0  0  0  0999 V2000
   28.0641  -21.4103  -12.6148 N   0  0  0  0  0  0  0  0  0  0  0  0
   26.8428  -21.5870  -11.9126 C   0  0  1  0  0  0  0  0  0  0  0  0
   26.7808  -20.6795  -10.7064 C   0  0  0  0  0  0  0  0  0  0  0  0
   27.8851  -20.8261   -9.7640 C   0  0  0  0  0  0  0  0  0  0  0  0
   29.1436  -21.2764  -10.1100 C   0  0  0  0  0  0  0  0  0  0  0  0
   29.9020  -21.2535   -9.0031 N   0  0  0  0  0  0  0  0  0  0  0  0
   29.1486  -20.7994   -7.9683 C   0  0  0  0  0  0  0  0  0  0  0  0
   29.4291  -20.5924   -6.6415 C   0  0  0  0  0  0  0  0  0  0  0  0
   28.4468  -20.1178   -5.7861 C   0  0  0  0  0  0  0  0  0  0  0  0
   27.1735  -19.8411   -6.2285 C   0  0  0  0  0  0  0  0  0  0  0  0
   26.8950  -20.0504   -7.5634 C   0  0  0  0  0  0  0  0  0  0  0  0
   27.8682  -20.5223   -8.4231 C   0  0  0  0  0  0  0  0  0  0  0  0
   25.6466  -21.2237  -12.7404 C   0  0  0  0  0  0  0  0  0  0  0  0
   25.6619  -20.0825  -13.2620 O   0  0  0  0  0  0  0  0  0  0  0  0
   22.2190  -23.7486  -13.2292 O   0  0  0  0  0  0  0  0  0  0  0  0
   22.7176  -23.0260  -14.2912 C   0  0  0  0  0  0  0  0  0  0  0  0
   23.4594  -21.7792  -13.8597 C   0  0  2  0  0  0  0  0  0  0  0  0
   24.5434  -22.0766  -12.9520 N   0  0  0  0  0  0  0  0  0  0  0  0
   22.5519  -20.8037  -13.2110 C   0  0  0  0  0  0  0  0  0  0  0  0
   22.4786  -20.6822  -11.9512 O   0  0  0  0  0  0  0  0  0  0  0  0
   21.7006  -19.9361  -13.9536 N   0  0  0  0  0  0  0  0  0  0  0  0
   20.7839  -18.9965  -13.2492 C   0  0  1  0  0  0  0  0  0  0  0  0
   20.8557  -17.7364  -14.0781 C   0  0  0  0  0  0  0  0  0  0  0  0
   20.5735  -17.8866  -15.4935 C   0  0  0  0  0  0  0  0  0  0  0  0
   20.3445  -18.9776  -16.0328 O   0  0  0  0  0  0  0  0  0  0  0  0
   19.4247  -19.5881  -13.2333 C   0  0  0  0  0  0  0  0  0  0  0  0
   18.5005  -18.9678  -12.5949 O   0  0  0  0  0  0  0  0  0  0  0  0
   20.5598  -16.7441  -16.2874 O   0  0  0  0  0  0  0  0  0  0  0  0
   19.1494  -20.7713  -13.8842 O   0  0  0  0  0  0  0  0  0  0  0  0
  2  1  1  6
  2  3  1  0
  2 13  1  0
  3  4  1  0
  4 12  1  0
  5  6  1  0
  5  4  2  0
  6  7  1  0
  7 12  2  0
  7  8  1  0
  8  9  2  0
  9 10  1  0
 11 10  2  0
 12 11  1  0
 13 18  1  0
 14 13  2  0
 16 15  1  0
 17 16  1  1
 18 17  1  0
 19 17  1  0
 19 21  1  0
 20 19  2  0
 22 21  1  0
 22 26  1  0
 22 23  1  6
 23 24  1  0
 24 25  2  0
 26 29  1  0
 27 26  2  0
 28 24  1  0
M  END
$$$$
