WSD.pdb
     RDKit          3D

 29 30  0  0  1  0  0  0  0  0999 V2000
   23.4678  -18.6370  -18.8291 N   0  0  0  0  0  0  0  0  0  0  0  0
   23.4804  -18.1816  -17.4844 C   0  0  1  0  0  0  0  0  0  0  0  0
   22.1213  -18.3516  -16.8471 C   0  0  0  0  0  0  0  0  0  0  0  0
   21.1272  -17.3561  -17.2341 C   0  0  0  0  0  0  0  0  0  0  0  0
   21.2174  -16.0126  -16.9290 C   0  0  0  0  0  0  0  0  0  0  0  0
   20.1501  -15.4013  -17.4659 N   0  0  0  0  0  0  0  0  0  0  0  0
   19.3901  -16.3303  -18.1015 C   0  0  0  0  0  0  0  0  0  0  0  0
   18.2108  -16.2416  -18.7966 C   0  0  0  0  0  0  0  0  0  0  0  0
   17.6384  -17.3774  -19.3482 C   0  0  0  0  0  0  0  0  0  0  0  0
   18.2222  -18.6170  -19.2211 C   0  0  0  0  0  0  0  0  0  0  0  0
   19.4082  -18.7024  -18.5216 C   0  0  0  0  0  0  0  0  0  0  0  0
   19.9861  -17.5754  -17.9693 C   0  0  0  0  0  0  0  0  0  0  0  0
   24.4212  -18.9672  -16.6207 C   0  0  0  0  0  0  0  0  0  0  0  0
   24.2905  -20.2148  -16.6545 O   0  0  0  0  0  0  0  0  0  0  0  0
   27.2331  -17.0777  -14.1471 O   0  0  0  0  0  0  0  0  0  0  0  0
   27.5353  -18.3541  -14.5689 C   0  0  0  0  0  0  0  0  0  0  0  0
   26.3102  -19.1500  -14.9644 C   0  0  2  0  0  0  0  0  0  0  0  0
   25.4117  -18.3879  -15.8008 N   0  0  0  0  0  0  0  0  0  0  0  0
   25.5633  -19.6251  -13.7759 C   0  0  0  0  0  0  0  0  0  0  0  0
   24.5806  -18.9852  -13.2943 O   0  0  0  0  0  0  0  0  0  0  0  0
   25.8948  -20.8301  -13.0924 N   0  0  0  0  0  0  0  0  0  0  0  0
   25.1578  -21.2232  -11.8589 C   0  0  1  0  0  0  0  0  0  0  0  0
   25.2510  -22.7302  -11.8504 C   0  0  0  0  0  0  0  0  0  0  0  0
   24.4228  -23.4263  -12.8174 C   0  0  0  0  0  0  0  0  0  0  0  0
   23.5799  -22.8618  -13.5277 O   0  0  0  0  0  0  0  0  0  0  0  0
   25.8317  -20.6067  -10.6913 C   0  0  0  0  0  0  0  0  0  0  0  0
   27.0893  -20.3651  -10.7744 O   0  0  0  0  0  0  0  0  0  0  0  0
   24.5839  -24.8015  -12.9540 O   0  0  0  0  0  0  0  0  0  0  0  0
   25.1362  -20.2960   -9.5428 O   0  0  0  0  0  0  0  0  0  0  0  0
  2  1  1  6
  2  3  1  0
  2 13  1  0
  3  4  1  0
  4 12  1  0
  5  6  1  0
  5  4  2  0
  6  7  1  0
  7 12  2  0
  7  8  1  0
  8  9  2  0
  9 10  1  0
 11 10  2  0
 12 11  1  0
 13 18  1  0
 14 13  2  0
 16 15  1  0
 17 16  1  1
 18 17  1  0
 19 17  1  0
 19 21  1  0
 20 19  2  0
 22 21  1  0
 22 26  1  0
 22 23  1  1
 23 24  1  0
 24 25  2  0
 26 29  1  0
 27 26  2  0
 28 24  1  0
M  END
$$$$
