WSD.pdb
     RDKit          3D

 29 30  0  0  1  0  0  0  0  0999 V2000
   28.3383  -20.4082   -9.6777 N   0  0  0  0  0  0  0  0  0  0  0  0
   27.1839  -21.2338   -9.6374 C   0  0  1  0  0  0  0  0  0  0  0  0
   26.4407  -21.0545   -8.3344 C   0  0  0  0  0  0  0  0  0  0  0  0
   27.0440  -20.1071   -7.4030 C   0  0  0  0  0  0  0  0  0  0  0  0
   27.1339  -18.7483   -7.6306 C   0  0  0  0  0  0  0  0  0  0  0  0
   27.7158  -18.1938   -6.5558 N   0  0  0  0  0  0  0  0  0  0  0  0
   27.9944  -19.1736   -5.6574 C   0  0  0  0  0  0  0  0  0  0  0  0
   28.5829  -19.1517   -4.4184 C   0  0  0  0  0  0  0  0  0  0  0  0
   28.7538  -20.3285   -3.7059 C   0  0  0  0  0  0  0  0  0  0  0  0
   28.3463  -21.5437   -4.2066 C   0  0  0  0  0  0  0  0  0  0  0  0
   27.7547  -21.5620   -5.4528 C   0  0  0  0  0  0  0  0  0  0  0  0
   27.5797  -20.3937   -6.1695 C   0  0  0  0  0  0  0  0  0  0  0  0
   26.1922  -20.8870  -10.7072 C   0  0  0  0  0  0  0  0  0  0  0  0
   25.9318  -19.6671  -10.8444 O   0  0  0  0  0  0  0  0  0  0  0  0
   24.5273  -23.8174  -13.3161 O   0  0  0  0  0  0  0  0  0  0  0  0
   24.9175  -22.5824  -13.7862 C   0  0  0  0  0  0  0  0  0  0  0  0
   24.8287  -21.4965  -12.7356 C   0  0  2  0  0  0  0  0  0  0  0  0
   25.5606  -21.8364  -11.5372 N   0  0  0  0  0  0  0  0  0  0  0  0
   23.4222  -21.2102  -12.3671 C   0  0  0  0  0  0  0  0  0  0  0  0
   22.9046  -21.6371  -11.2915 O   0  0  0  0  0  0  0  0  0  0  0  0
   22.5548  -20.4377  -13.1916 N   0  0  0  0  0  0  0  0  0  0  0  0
   21.1455  -20.1898  -12.7775 C   0  0  1  0  0  0  0  0  0  0  0  0
   20.7126  -19.0368  -13.6509 C   0  0  0  0  0  0  0  0  0  0  0  0
   19.3787  -18.5190  -13.4095 C   0  0  0  0  0  0  0  0  0  0  0  0
   18.6530  -18.9047  -12.4832 O   0  0  0  0  0  0  0  0  0  0  0  0
   20.3573  -21.4197  -13.0300 C   0  0  0  0  0  0  0  0  0  0  0  0
   20.5994  -22.0865  -14.0993 O   0  0  0  0  0  0  0  0  0  0  0  0
   18.8886  -17.5368  -14.2644 O   0  0  0  0  0  0  0  0  0  0  0  0
   19.3891  -21.8456  -12.1466 O   0  0  0  0  0  0  0  0  0  0  0  0
  2  1  1  1
  2  3  1  0
  2 13  1  0
  3  4  1  0
  4 12  1  0
  5  6  1  0
  5  4  2  0
  6  7  1  0
  7 12  2  0
  7  8  1  0
  8  9  2  0
  9 10  1  0
 11 10  2  0
 12 11  1  0
 13 18  1  0
 14 13  2  0
 16 15  1  0
 17 16  1  6
 18 17  1  0
 19 17  1  0
 19 21  1  0
 20 19  2  0
 22 21  1  0
 22 26  1  0
 22 23  1  6
 23 24  1  0
 24 25  2  0
 26 29  1  0
 27 26  2  0
 28 24  1  0
M  END
$$$$
