WSD.pdb
     RDKit          3D

 29 30  0  0  1  0  0  0  0  0999 V2000
   28.3153  -20.6316   -9.3722 N   0  0  0  0  0  0  0  0  0  0  0  0
   27.0145  -21.1995   -9.4069 C   0  0  1  0  0  0  0  0  0  0  0  0
   26.1643  -20.6635   -8.2789 C   0  0  0  0  0  0  0  0  0  0  0  0
   26.8747  -19.8412   -7.3051 C   0  0  0  0  0  0  0  0  0  0  0  0
   26.9456  -18.4634   -7.3602 C   0  0  0  0  0  0  0  0  0  0  0  0
   27.6488  -18.0498   -6.2946 N   0  0  0  0  0  0  0  0  0  0  0  0
   28.0225  -19.1366   -5.5708 C   0  0  0  0  0  0  0  0  0  0  0  0
   28.7481  -19.2724   -4.4145 C   0  0  0  0  0  0  0  0  0  0  0  0
   28.9924  -20.5311   -3.8875 C   0  0  0  0  0  0  0  0  0  0  0  0
   28.5241  -21.6737   -4.4948 C   0  0  0  0  0  0  0  0  0  0  0  0
   27.7946  -21.5333   -5.6573 C   0  0  0  0  0  0  0  0  0  0  0  0
   27.5456  -20.2826   -6.1890 C   0  0  0  0  0  0  0  0  0  0  0  0
   26.2694  -20.8521  -10.6608 C   0  0  0  0  0  0  0  0  0  0  0  0
   26.1628  -19.6288  -10.9189 O   0  0  0  0  0  0  0  0  0  0  0  0
   24.6176  -23.7799  -13.3145 O   0  0  0  0  0  0  0  0  0  0  0  0
   25.1759  -22.6135  -13.7904 C   0  0  0  0  0  0  0  0  0  0  0  0
   25.0920  -21.4725  -12.7995 C   0  0  2  0  0  0  0  0  0  0  0  0
   25.7025  -21.8047  -11.5328 N   0  0  0  0  0  0  0  0  0  0  0  0
   23.6880  -21.0651  -12.5568 C   0  0  0  0  0  0  0  0  0  0  0  0
   23.0858  -21.3263  -11.4722 O   0  0  0  0  0  0  0  0  0  0  0  0
   22.9178  -20.3537  -13.5209 N   0  0  0  0  0  0  0  0  0  0  0  0
   21.5158  -19.9522  -13.2170 C   0  0  1  0  0  0  0  0  0  0  0  0
   21.3235  -18.6868  -14.0179 C   0  0  0  0  0  0  0  0  0  0  0  0
   20.0054  -18.0836  -13.9514 C   0  0  0  0  0  0  0  0  0  0  0  0
   19.0791  -18.3786  -14.7185 O   0  0  0  0  0  0  0  0  0  0  0  0
   20.6094  -21.0418  -13.6518 C   0  0  0  0  0  0  0  0  0  0  0  0
   20.9891  -21.7981  -14.6165 O   0  0  0  0  0  0  0  0  0  0  0  0
   19.7694  -17.1221  -12.9738 O   0  0  0  0  0  0  0  0  0  0  0  0
   19.3902  -21.2470  -13.0429 O   0  0  0  0  0  0  0  0  0  0  0  0
  2  1  1  6
  2  3  1  0
  2 13  1  0
  3  4  1  0
  4 12  1  0
  5  6  1  0
  5  4  2  0
  6  7  1  0
  7 12  2  0
  7  8  1  0
  8  9  2  0
  9 10  1  0
 11 10  2  0
 12 11  1  0
 13 18  1  0
 14 13  2  0
 16 15  1  0
 17 16  1  6
 18 17  1  0
 19 17  1  0
 19 21  1  0
 20 19  2  0
 22 21  1  0
 22 26  1  0
 22 23  1  6
 23 24  1  0
 24 25  2  0
 26 29  1  0
 27 26  2  0
 28 24  1  0
M  END
$$$$
