WSD.pdb
     RDKit          3D

 29 30  0  0  1  0  0  0  0  0999 V2000
   15.5147  -15.1649    5.4964 N   0  0  0  0  0  0  0  0  0  0  0  0
   16.1155  -16.1242    4.6393 C   0  0  1  0  0  0  0  0  0  0  0  0
   17.6218  -16.0624    4.7365 C   0  0  0  0  0  0  0  0  0  0  0  0
   18.2341  -14.8889    4.1225 C   0  0  0  0  0  0  0  0  0  0  0  0
   18.0277  -13.5933    4.5528 C   0  0  0  0  0  0  0  0  0  0  0  0
   18.7679  -12.7850    3.7784 N   0  0  0  0  0  0  0  0  0  0  0  0
   19.4349  -13.5431    2.8700 C   0  0  0  0  0  0  0  0  0  0  0  0
   20.3060  -13.2225    1.8599 C   0  0  0  0  0  0  0  0  0  0  0  0
   20.8453  -14.2188    1.0608 C   0  0  0  0  0  0  0  0  0  0  0  0
   20.5318  -15.5456    1.2475 C   0  0  0  0  0  0  0  0  0  0  0  0
   19.6556  -15.8643    2.2643 C   0  0  0  0  0  0  0  0  0  0  0  0
   19.1141  -14.8778    3.0660 C   0  0  0  0  0  0  0  0  0  0  0  0
   15.7545  -17.5315    5.0100 C   0  0  0  0  0  0  0  0  0  0  0  0
   15.6082  -17.7597    6.2352 O   0  0  0  0  0  0  0  0  0  0  0  0
   16.2240  -20.9068    2.4033 O   0  0  0  0  0  0  0  0  0  0  0  0
   15.1292  -20.8372    3.2371 C   0  0  0  0  0  0  0  0  0  0  0  0
   15.3625  -19.9546    4.4443 C   0  0  2  0  0  0  0  0  0  0  0  0
   15.5782  -18.5741    4.0767 N   0  0  0  0  0  0  0  0  0  0  0  0
   16.5217  -20.4195    5.2419 C   0  0  0  0  0  0  0  0  0  0  0  0
   17.5402  -19.6918    5.4426 O   0  0  0  0  0  0  0  0  0  0  0  0
   16.5742  -21.7122    5.8379 N   0  0  0  0  0  0  0  0  0  0  0  0
   17.7130  -22.0882    6.7216 C   0  0  1  0  0  0  0  0  0  0  0  0
   17.5934  -21.1347    7.8862 C   0  0  0  0  0  0  0  0  0  0  0  0
   18.4110  -21.4380    9.0460 C   0  0  0  0  0  0  0  0  0  0  0  0
   19.2306  -22.3657    9.0808 O   0  0  0  0  0  0  0  0  0  0  0  0
   17.5457  -23.5039    7.1284 C   0  0  0  0  0  0  0  0  0  0  0  0
   16.3625  -24.0007    7.1241 O   0  0  0  0  0  0  0  0  0  0  0  0
   18.2664  -20.6445   10.1797 O   0  0  0  0  0  0  0  0  0  0  0  0
   18.6247  -24.2756    7.5018 O   0  0  0  0  0  0  0  0  0  0  0  0
  2  1  1  1
  2  3  1  0
  2 13  1  0
  3  4  1  0
  4 12  1  0
  5  6  1  0
  5  4  2  0
  6  7  1  0
  7 12  2  0
  7  8  1  0
  8  9  2  0
  9 10  1  0
 11 10  2  0
 12 11  1  0
 13 18  1  0
 14 13  2  0
 16 15  1  0
 17 16  1  6
 18 17  1  0
 19 17  1  0
 19 21  1  0
 20 19  2  0
 22 21  1  0
 22 26  1  0
 22 23  1  1
 23 24  1  0
 24 25  2  0
 26 29  1  0
 27 26  2  0
 28 24  1  0
M  END
$$$$
