WKY.pdb
     RDKit          3D

 36 38  0  0  1  0  0  0  0  0999 V2000
   25.9992  -19.1176  -11.6837 N   0  0  0  0  0  0  0  0  0  0  0  0
   26.1808  -20.5873  -11.8023 C   0  0  1  0  0  0  0  0  0  0  0  0
   25.5701  -21.2076  -10.6022 C   0  0  0  0  0  0  0  0  0  0  0  0
   26.0760  -20.7315   -9.3065 C   0  0  0  0  0  0  0  0  0  0  0  0
   25.4625  -20.0112   -8.2981 C   0  0  0  0  0  0  0  0  0  0  0  0
   26.3462  -19.7875   -7.3108 N   0  0  0  0  0  0  0  0  0  0  0  0
   27.5472  -20.3443   -7.6331 C   0  0  0  0  0  0  0  0  0  0  0  0
   28.7475  -20.3873   -6.9710 C   0  0  0  0  0  0  0  0  0  0  0  0
   29.8325  -21.0383   -7.5606 C   0  0  0  0  0  0  0  0  0  0  0  0
   29.6907  -21.6266   -8.7858 C   0  0  0  0  0  0  0  0  0  0  0  0
   28.4863  -21.5759   -9.4332 C   0  0  0  0  0  0  0  0  0  0  0  0
   27.3753  -20.9294   -8.8714 C   0  0  0  0  0  0  0  0  0  0  0  0
   25.4851  -21.0165  -13.0769 C   0  0  0  0  0  0  0  0  0  0  0  0
   24.4527  -20.4023  -13.4326 O   0  0  0  0  0  0  0  0  0  0  0  0
   25.9768  -22.0675  -13.8434 N   0  0  0  0  0  0  0  0  0  0  0  0
   25.6056  -22.3251  -15.2723 C   0  0  1  0  0  0  0  0  0  0  0  0
   26.6340  -23.2475  -15.8252 C   0  0  0  0  0  0  0  0  0  0  0  0
   26.5184  -23.7231  -17.2280 C   0  0  0  0  0  0  0  0  0  0  0  0
   27.8417  -23.4954  -17.9825 C   0  0  0  0  0  0  0  0  0  0  0  0
   27.6561  -23.8875  -19.4215 C   0  0  0  0  0  0  0  0  0  0  0  0
   28.9074  -23.7346  -20.1686 N   0  0  0  0  0  0  0  0  0  0  0  0
   24.2242  -22.8021  -15.1797 C   0  0  0  0  0  0  0  0  0  0  0  0
   23.9886  -23.7657  -14.3138 O   0  0  0  0  0  0  0  0  0  0  0  0
   20.8599  -21.4444   -9.6781 O   0  0  0  0  0  0  0  0  0  0  0  0
   20.7761  -21.7300  -11.0473 C   0  0  0  0  0  0  0  0  0  0  0  0
   21.3883  -20.8494  -11.9306 C   0  0  0  0  0  0  0  0  0  0  0  0
   21.3615  -21.0428  -13.2845 C   0  0  0  0  0  0  0  0  0  0  0  0
   20.7095  -22.1418  -13.8140 C   0  0  0  0  0  0  0  0  0  0  0  0
   20.6910  -22.3165  -15.2831 C   0  0  0  0  0  0  0  0  0  0  0  0
   21.8224  -23.1899  -15.7168 C   0  0  2  0  0  0  0  0  0  0  0  0
   23.0702  -22.4084  -15.8693 N   0  0  0  0  0  0  0  0  0  0  0  0
   21.5969  -23.8853  -16.9981 C   0  0  0  0  0  0  0  0  0  0  0  0
   20.5477  -24.8232  -17.0912 O   0  0  0  0  0  0  0  0  0  0  0  0
   20.0949  -23.0222  -12.9160 C   0  0  0  0  0  0  0  0  0  0  0  0
   20.1208  -22.8306  -11.5513 C   0  0  0  0  0  0  0  0  0  0  0  0
   22.3079  -23.6694  -18.0135 O   0  0  0  0  0  0  0  0  0  0  0  0
  2  1  1  1
  3  2  1  0
  4  5  2  0
  4  3  1  0
  6  5  1  0
  7 12  2  0
  7  6  1  0
  8  7  1  0
  9 10  1  0
  9  8  2  0
 10 11  2  0
 11 12  1  0
 12  4  1  0
 13  2  1  0
 14 13  2  0
 15 13  1  0
 16 22  1  0
 16 15  1  0
 16 17  1  1
 18 17  1  0
 19 18  1  0
 20 19  1  0
 21 20  1  0
 22 23  2  0
 24 25  1  0
 25 35  2  0
 26 25  1  0
 26 27  2  0
 27 28  1  0
 28 34  2  0
 28 29  1  0
 30 32  1  0
 30 29  1  6
 31 30  1  0
 31 22  1  0
 32 33  1  0
 35 34  1  0
 36 32  2  0
M  END
$$$$
