WKY.pdb
     RDKit          3D

 36 38  0  0  1  0  0  0  0  0999 V2000
   27.2048  -19.2576   -9.8895 N   0  0  0  0  0  0  0  0  0  0  0  0
   26.4812  -20.4912   -9.4877 C   0  0  1  0  0  0  0  0  0  0  0  0
   26.3362  -20.4595   -8.0125 C   0  0  0  0  0  0  0  0  0  0  0  0
   27.3885  -19.7399   -7.2802 C   0  0  0  0  0  0  0  0  0  0  0  0
   28.1205  -18.6140   -7.6098 C   0  0  0  0  0  0  0  0  0  0  0  0
   28.9943  -18.3477   -6.6242 N   0  0  0  0  0  0  0  0  0  0  0  0
   28.8662  -19.2736   -5.6330 C   0  0  0  0  0  0  0  0  0  0  0  0
   29.5200  -19.4376   -4.4386 C   0  0  0  0  0  0  0  0  0  0  0  0
   29.1739  -20.5054   -3.6087 C   0  0  0  0  0  0  0  0  0  0  0  0
   28.1898  -21.3735   -3.9897 C   0  0  0  0  0  0  0  0  0  0  0  0
   27.5460  -21.1958   -5.1840 C   0  0  0  0  0  0  0  0  0  0  0  0
   27.8687  -20.1349   -6.0433 C   0  0  0  0  0  0  0  0  0  0  0  0
   25.1391  -20.4637  -10.1886 C   0  0  0  0  0  0  0  0  0  0  0  0
   24.2488  -19.6996   -9.7493 O   0  0  0  0  0  0  0  0  0  0  0  0
   24.8930  -21.2648  -11.2984 N   0  0  0  0  0  0  0  0  0  0  0  0
   24.0231  -20.8735  -12.4542 C   0  0  1  0  0  0  0  0  0  0  0  0
   24.8177  -21.1076  -13.6903 C   0  0  0  0  0  0  0  0  0  0  0  0
   24.2121  -20.8301  -15.0183 C   0  0  0  0  0  0  0  0  0  0  0  0
   25.2091  -21.1654  -16.1434 C   0  0  0  0  0  0  0  0  0  0  0  0
   24.5559  -20.8959  -17.4698 C   0  0  0  0  0  0  0  0  0  0  0  0
   25.4419  -21.2760  -18.5734 N   0  0  0  0  0  0  0  0  0  0  0  0
   22.8117  -21.6699  -12.2474 C   0  0  0  0  0  0  0  0  0  0  0  0
   22.8161  -22.4972  -11.2231 O   0  0  0  0  0  0  0  0  0  0  0  0
   15.6300  -24.2791   -8.6432 O   0  0  0  0  0  0  0  0  0  0  0  0
   16.6962  -23.6122   -9.2611 C   0  0  0  0  0  0  0  0  0  0  0  0
   17.9799  -24.0911   -9.0303 C   0  0  0  0  0  0  0  0  0  0  0  0
   19.0840  -23.5079   -9.5889 C   0  0  0  0  0  0  0  0  0  0  0  0
   18.9429  -22.4051  -10.4118 C   0  0  0  0  0  0  0  0  0  0  0  0
   20.1581  -21.7923  -10.9922 C   0  0  0  0  0  0  0  0  0  0  0  0
   20.4146  -22.3402  -12.3579 C   0  0  2  0  0  0  0  0  0  0  0  0
   21.6104  -21.7148  -12.9664 N   0  0  0  0  0  0  0  0  0  0  0  0
   19.3034  -22.1472  -13.3088 C   0  0  0  0  0  0  0  0  0  0  0  0
   19.5034  -21.3222  -14.4352 O   0  0  0  0  0  0  0  0  0  0  0  0
   17.6459  -21.9296  -10.6370 C   0  0  0  0  0  0  0  0  0  0  0  0
   16.5312  -22.5154  -10.0764 C   0  0  0  0  0  0  0  0  0  0  0  0
   18.1819  -22.6951  -13.1511 O   0  0  0  0  0  0  0  0  0  0  0  0
  2  1  1  6
  3  2  1  0
  4  5  2  0
  4  3  1  0
  6  5  1  0
  7 12  2  0
  7  6  1  0
  8  7  1  0
  9 10  1  0
  9  8  2  0
 10 11  2  0
 11 12  1  0
 12  4  1  0
 13  2  1  0
 14 13  2  0
 15 13  1  0
 16 22  1  0
 16 15  1  0
 16 17  1  6
 18 17  1  0
 19 18  1  0
 20 19  1  0
 21 20  1  0
 22 23  2  0
 24 25  1  0
 25 35  2  0
 26 25  1  0
 26 27  2  0
 27 28  1  0
 28 34  2  0
 28 29  1  0
 30 32  1  0
 30 29  1  1
 31 30  1  0
 31 22  1  0
 32 33  1  0
 35 34  1  0
 36 32  2  0
M  END
$$$$
