WKY.pdb
     RDKit          3D

 36 38  0  0  1  0  0  0  0  0999 V2000
   25.7390  -19.5243  -12.1459 N   0  0  0  0  0  0  0  0  0  0  0  0
   26.4740  -20.8010  -12.3378 C   0  0  1  0  0  0  0  0  0  0  0  0
   26.1223  -21.6896  -11.2043 C   0  0  0  0  0  0  0  0  0  0  0  0
   26.3320  -21.1292   -9.8613 C   0  0  0  0  0  0  0  0  0  0  0  0
   25.4366  -20.6359   -8.9302 C   0  0  0  0  0  0  0  0  0  0  0  0
   26.1105  -20.2047   -7.8505 N   0  0  0  0  0  0  0  0  0  0  0  0
   27.4466  -20.3979   -8.0345 C   0  0  0  0  0  0  0  0  0  0  0  0
   28.5322  -20.1259   -7.2417 C   0  0  0  0  0  0  0  0  0  0  0  0
   29.8128  -20.4341   -7.7039 C   0  0  0  0  0  0  0  0  0  0  0  0
   29.9742  -21.0034   -8.9357 C   0  0  0  0  0  0  0  0  0  0  0  0
   28.8810  -21.2696   -9.7143 C   0  0  0  0  0  0  0  0  0  0  0  0
   27.5798  -20.9722   -9.2825 C   0  0  0  0  0  0  0  0  0  0  0  0
   26.0248  -21.3735  -13.6657 C   0  0  0  0  0  0  0  0  0  0  0  0
   24.9225  -21.0067  -14.1348 O   0  0  0  0  0  0  0  0  0  0  0  0
   26.8144  -22.2856  -14.3574 N   0  0  0  0  0  0  0  0  0  0  0  0
   26.4265  -22.9394  -15.6489 C   0  0  1  0  0  0  0  0  0  0  0  0
   27.6688  -23.5170  -16.2297 C   0  0  0  0  0  0  0  0  0  0  0  0
   27.6161  -24.2023  -17.5469 C   0  0  0  0  0  0  0  0  0  0  0  0
   27.8438  -25.7157  -17.3739 C   0  0  0  0  0  0  0  0  0  0  0  0
   27.8771  -26.3619  -18.7304 C   0  0  0  0  0  0  0  0  0  0  0  0
   28.1700  -27.7933  -18.6185 N   0  0  0  0  0  0  0  0  0  0  0  0
   25.3550  -23.8557  -15.2530 C   0  0  0  0  0  0  0  0  0  0  0  0
   25.6244  -24.6909  -14.2713 O   0  0  0  0  0  0  0  0  0  0  0  0
   19.6198  -19.8837  -13.3102 O   0  0  0  0  0  0  0  0  0  0  0  0
   20.3664  -21.0662  -13.3965 C   0  0  0  0  0  0  0  0  0  0  0  0
   21.7467  -20.9706  -13.2698 C   0  0  0  0  0  0  0  0  0  0  0  0
   22.5603  -22.0681  -13.3396 C   0  0  0  0  0  0  0  0  0  0  0  0
   22.0145  -23.3227  -13.5432 C   0  0  0  0  0  0  0  0  0  0  0  0
   22.9231  -24.4877  -13.6233 C   0  0  0  0  0  0  0  0  0  0  0  0
   23.1059  -24.9071  -15.0452 C   0  0  2  0  0  0  0  0  0  0  0  0
   24.0535  -24.0121  -15.7467 N   0  0  0  0  0  0  0  0  0  0  0  0
   21.8633  -24.9179  -15.8403 C   0  0  0  0  0  0  0  0  0  0  0  0
   21.7824  -24.1087  -16.9926 O   0  0  0  0  0  0  0  0  0  0  0  0
   20.6232  -23.4082  -13.6708 C   0  0  0  0  0  0  0  0  0  0  0  0
   19.8006  -22.3045  -13.6001 C   0  0  0  0  0  0  0  0  0  0  0  0
   20.8718  -25.6262  -15.5270 O   0  0  0  0  0  0  0  0  0  0  0  0
  2  1  1  1
  3  2  1  0
  4  5  2  0
  4  3  1  0
  6  5  1  0
  7 12  2  0
  7  6  1  0
  8  7  1  0
  9 10  1  0
  9  8  2  0
 10 11  2  0
 11 12  1  0
 12  4  1  0
 13  2  1  0
 14 13  2  0
 15 13  1  0
 16 22  1  0
 16 15  1  0
 16 17  1  1
 18 17  1  0
 19 18  1  0
 20 19  1  0
 21 20  1  0
 22 23  2  0
 24 25  1  0
 25 35  2  0
 26 25  1  0
 26 27  2  0
 27 28  1  0
 28 34  2  0
 28 29  1  0
 30 32  1  0
 30 29  1  1
 31 30  1  0
 31 22  1  0
 32 33  1  0
 35 34  1  0
 36 32  2  0
M  END
$$$$
