WKY.pdb
     RDKit          3D

 36 38  0  0  1  0  0  0  0  0999 V2000
   28.6886  -20.2109  -10.9939 N   0  0  0  0  0  0  0  0  0  0  0  0
   27.5278  -20.9632  -10.4520 C   0  0  1  0  0  0  0  0  0  0  0  0
   27.2877  -20.4746   -9.0729 C   0  0  0  0  0  0  0  0  0  0  0  0
   28.4201  -20.5965   -8.1433 C   0  0  0  0  0  0  0  0  0  0  0  0
   29.7184  -21.0295   -8.3410 C   0  0  0  0  0  0  0  0  0  0  0  0
   30.3834  -20.9878   -7.1740 N   0  0  0  0  0  0  0  0  0  0  0  0
   29.5580  -20.5338   -6.1898 C   0  0  0  0  0  0  0  0  0  0  0  0
   29.7567  -20.3193   -4.8498 C   0  0  0  0  0  0  0  0  0  0  0  0
   28.7025  -19.8440   -4.0680 C   0  0  0  0  0  0  0  0  0  0  0  0
   27.4872  -19.5952   -4.6410 C   0  0  0  0  0  0  0  0  0  0  0  0
   27.3049  -19.8133   -5.9795 C   0  0  0  0  0  0  0  0  0  0  0  0
   28.3414  -20.2916   -6.7951 C   0  0  0  0  0  0  0  0  0  0  0  0
   26.3533  -20.6801  -11.3648 C   0  0  0  0  0  0  0  0  0  0  0  0
   25.9828  -19.4927  -11.5145 O   0  0  0  0  0  0  0  0  0  0  0  0
   25.6960  -21.7103  -12.0284 N   0  0  0  0  0  0  0  0  0  0  0  0
   24.6620  -21.5124  -13.0949 C   0  0  1  0  0  0  0  0  0  0  0  0
   24.7809  -22.6641  -14.0295 C   0  0  0  0  0  0  0  0  0  0  0  0
   23.7727  -22.8460  -15.1057 C   0  0  0  0  0  0  0  0  0  0  0  0
   24.3024  -22.2831  -16.4379 C   0  0  0  0  0  0  0  0  0  0  0  0
   23.2334  -22.4218  -17.4851 C   0  0  0  0  0  0  0  0  0  0  0  0
   23.7205  -21.9669  -18.7901 N   0  0  0  0  0  0  0  0  0  0  0  0
   23.4197  -21.3618  -12.3344 C   0  0  0  0  0  0  0  0  0  0  0  0
   23.3346  -22.0305  -11.2033 O   0  0  0  0  0  0  0  0  0  0  0  0
   18.1087  -16.0634  -14.8634 O   0  0  0  0  0  0  0  0  0  0  0  0
   18.8612  -16.8381  -13.9707 C   0  0  0  0  0  0  0  0  0  0  0  0
   18.1767  -17.5334  -12.9815 C   0  0  0  0  0  0  0  0  0  0  0  0
   18.8228  -18.3161  -12.0644 C   0  0  0  0  0  0  0  0  0  0  0  0
   20.2006  -18.4334  -12.1025 C   0  0  0  0  0  0  0  0  0  0  0  0
   20.8692  -19.2802  -11.0901 C   0  0  0  0  0  0  0  0  0  0  0  0
   21.1366  -20.6407  -11.6455 C   0  0  2  0  0  0  0  0  0  0  0  0
   22.2664  -20.6130  -12.6015 N   0  0  0  0  0  0  0  0  0  0  0  0
   19.9926  -21.2426  -12.3565 C   0  0  0  0  0  0  0  0  0  0  0  0
   20.0937  -21.4693  -13.7449 O   0  0  0  0  0  0  0  0  0  0  0  0
   20.8809  -17.7281  -13.1019 C   0  0  0  0  0  0  0  0  0  0  0  0
   20.2328  -16.9393  -14.0280 C   0  0  0  0  0  0  0  0  0  0  0  0
   18.9286  -21.5629  -11.7666 O   0  0  0  0  0  0  0  0  0  0  0  0
  2  1  1  6
  3  2  1  0
  4  5  2  0
  4  3  1  0
  6  5  1  0
  7 12  2  0
  7  6  1  0
  8  7  1  0
  9 10  1  0
  9  8  2  0
 10 11  2  0
 11 12  1  0
 12  4  1  0
 13  2  1  0
 14 13  2  0
 15 13  1  0
 16 22  1  0
 16 15  1  0
 16 17  1  6
 18 17  1  0
 19 18  1  0
 20 19  1  0
 21 20  1  0
 22 23  2  0
 24 25  1  0
 25 35  2  0
 26 25  1  0
 26 27  2  0
 27 28  1  0
 28 34  2  0
 28 29  1  0
 30 32  1  0
 30 29  1  6
 31 30  1  0
 31 22  1  0
 32 33  1  0
 35 34  1  0
 36 32  2  0
M  END
$$$$
