WKY.pdb
     RDKit          3D

 36 38  0  0  1  0  0  0  0  0999 V2000
   16.2702  -18.6572    4.6002 N   0  0  0  0  0  0  0  0  0  0  0  0
   16.2147  -19.9961    5.2415 C   0  0  1  0  0  0  0  0  0  0  0  0
   16.6751  -20.9870    4.2393 C   0  0  0  0  0  0  0  0  0  0  0  0
   15.6955  -21.3582    3.2078 C   0  0  0  0  0  0  0  0  0  0  0  0
   14.7980  -20.5926    2.4864 C   0  0  0  0  0  0  0  0  0  0  0  0
   14.0873  -21.3908    1.6717 N   0  0  0  0  0  0  0  0  0  0  0  0
   14.4883  -22.6833    1.8289 C   0  0  0  0  0  0  0  0  0  0  0  0
   14.0766  -23.8514    1.2398 C   0  0  0  0  0  0  0  0  0  0  0  0
   14.6782  -25.0552    1.6106 C   0  0  0  0  0  0  0  0  0  0  0  0
   15.6692  -25.0605    2.5515 C   0  0  0  0  0  0  0  0  0  0  0  0
   16.0695  -23.8866    3.1294 C   0  0  0  0  0  0  0  0  0  0  0  0
   15.4864  -22.6588    2.7820 C   0  0  0  0  0  0  0  0  0  0  0  0
   17.1283  -19.9457    6.4481 C   0  0  0  0  0  0  0  0  0  0  0  0
   18.1149  -19.1740    6.4214 O   0  0  0  0  0  0  0  0  0  0  0  0
   16.8829  -20.7343    7.5669 N   0  0  0  0  0  0  0  0  0  0  0  0
   17.7333  -20.7489    8.8008 C   0  0  1  0  0  0  0  0  0  0  0  0
   16.8817  -20.2561    9.9170 C   0  0  0  0  0  0  0  0  0  0  0  0
   16.9559  -18.8294   10.3251 C   0  0  0  0  0  0  0  0  0  0  0  0
   16.0519  -18.5727   11.5454 C   0  0  0  0  0  0  0  0  0  0  0  0
   16.2412  -17.1535   12.0023 C   0  0  0  0  0  0  0  0  0  0  0  0
   15.3063  -16.8247   13.0817 N   0  0  0  0  0  0  0  0  0  0  0  0
   18.2199  -22.1290    8.8569 C   0  0  0  0  0  0  0  0  0  0  0  0
   17.5305  -23.0264    8.1838 O   0  0  0  0  0  0  0  0  0  0  0  0
   20.7186  -30.0815    7.3992 O   0  0  0  0  0  0  0  0  0  0  0  0
   20.5676  -28.6983    7.5647 C   0  0  0  0  0  0  0  0  0  0  0  0
   19.3373  -28.1386    7.2431 C   0  0  0  0  0  0  0  0  0  0  0  0
   19.0931  -26.7988    7.3712 C   0  0  0  0  0  0  0  0  0  0  0  0
   20.0873  -25.9549    7.8324 C   0  0  0  0  0  0  0  0  0  0  0  0
   19.7935  -24.5096    7.9502 C   0  0  0  0  0  0  0  0  0  0  0  0
   19.6032  -24.1332    9.3831 C   0  0  2  0  0  0  0  0  0  0  0  0
   19.3202  -22.6867    9.5205 N   0  0  0  0  0  0  0  0  0  0  0  0
   20.7633  -24.4234   10.2469 C   0  0  0  0  0  0  0  0  0  0  0  0
   21.0222  -25.7595   10.6172 O   0  0  0  0  0  0  0  0  0  0  0  0
   21.3234  -26.5282    8.1526 C   0  0  0  0  0  0  0  0  0  0  0  0
   21.5724  -27.8779    8.0255 C   0  0  0  0  0  0  0  0  0  0  0  0
   21.5324  -23.5195   10.6645 O   0  0  0  0  0  0  0  0  0  0  0  0
  2  1  1  6
  3  2  1  0
  4  5  2  0
  4  3  1  0
  6  5  1  0
  7 12  2  0
  7  6  1  0
  8  7  1  0
  9 10  1  0
  9  8  2  0
 10 11  2  0
 11 12  1  0
 12  4  1  0
 13  2  1  0
 14 13  2  0
 15 13  1  0
 16 22  1  0
 16 15  1  0
 16 17  1  1
 18 17  1  0
 19 18  1  0
 20 19  1  0
 21 20  1  0
 22 23  2  0
 24 25  1  0
 25 35  2  0
 26 25  1  0
 26 27  2  0
 27 28  1  0
 28 34  2  0
 28 29  1  0
 30 32  1  0
 30 29  1  6
 31 30  1  0
 31 22  1  0
 32 33  1  0
 35 34  1  0
 36 32  2  0
M  END
$$$$
