WKY.pdb
     RDKit          3D

 36 38  0  0  1  0  0  0  0  0999 V2000
   36.7724  -30.1644  -21.1512 N   0  0  0  0  0  0  0  0  0  0  0  0
   36.2373  -30.1097  -19.7664 C   0  0  1  0  0  0  0  0  0  0  0  0
   34.9705  -29.3407  -19.8107 C   0  0  0  0  0  0  0  0  0  0  0  0
   35.0653  -27.9802  -20.3598 C   0  0  0  0  0  0  0  0  0  0  0  0
   36.0306  -27.0018  -20.2078 C   0  0  0  0  0  0  0  0  0  0  0  0
   35.6605  -25.9031  -20.8873 N   0  0  0  0  0  0  0  0  0  0  0  0
   34.4617  -26.1208  -21.4969 C   0  0  0  0  0  0  0  0  0  0  0  0
   33.6750  -25.3237  -22.2885 C   0  0  0  0  0  0  0  0  0  0  0  0
   32.4669  -25.8230  -22.7782 C   0  0  0  0  0  0  0  0  0  0  0  0
   32.0802  -27.0965  -22.4685 C   0  0  0  0  0  0  0  0  0  0  0  0
   32.8766  -27.8798  -21.6784 C   0  0  0  0  0  0  0  0  0  0  0  0
   34.0962  -27.4105  -21.1679 C   0  0  0  0  0  0  0  0  0  0  0  0
   36.0152  -31.5403  -19.3224 C   0  0  0  0  0  0  0  0  0  0  0  0
   35.4592  -32.3349  -20.1155 O   0  0  0  0  0  0  0  0  0  0  0  0
   36.4191  -31.9715  -18.0635 N   0  0  0  0  0  0  0  0  0  0  0  0
   36.3223  -33.3855  -17.5767 C   0  0  1  0  0  0  0  0  0  0  0  0
   37.4784  -33.6083  -16.6669 C   0  0  0  0  0  0  0  0  0  0  0  0
   38.7965  -33.9957  -17.2326 C   0  0  0  0  0  0  0  0  0  0  0  0
   39.8404  -34.1416  -16.1097 C   0  0  0  0  0  0  0  0  0  0  0  0
   41.1476  -34.5736  -16.7125 C   0  0  0  0  0  0  0  0  0  0  0  0
   42.1504  -34.8066  -15.6696 N   0  0  0  0  0  0  0  0  0  0  0  0
   34.9726  -33.4548  -17.0127 C   0  0  0  0  0  0  0  0  0  0  0  0
   34.4697  -32.3318  -16.5438 O   0  0  0  0  0  0  0  0  0  0  0  0
   26.6966  -32.9815  -14.9689 O   0  0  0  0  0  0  0  0  0  0  0  0
   28.0276  -32.9920  -15.4068 C   0  0  0  0  0  0  0  0  0  0  0  0
   28.3517  -33.8227  -16.4724 C   0  0  0  0  0  0  0  0  0  0  0  0
   29.6230  -33.9018  -16.9711 C   0  0  0  0  0  0  0  0  0  0  0  0
   30.6344  -33.1412  -16.4126 C   0  0  0  0  0  0  0  0  0  0  0  0
   32.0002  -33.2574  -16.9694 C   0  0  0  0  0  0  0  0  0  0  0  0
   32.7640  -34.3230  -16.2539 C   0  0  2  0  0  0  0  0  0  0  0  0
   34.0911  -34.5347  -16.8745 N   0  0  0  0  0  0  0  0  0  0  0  0
   32.0934  -35.6367  -16.2257 C   0  0  0  0  0  0  0  0  0  0  0  0
   31.0737  -35.8632  -15.2780 O   0  0  0  0  0  0  0  0  0  0  0  0
   30.2979  -32.3086  -15.3389 C   0  0  0  0  0  0  0  0  0  0  0  0
   29.0178  -32.2259  -14.8346 C   0  0  0  0  0  0  0  0  0  0  0  0
   32.3985  -36.5635  -17.0200 O   0  0  0  0  0  0  0  0  0  0  0  0
  2  1  1  6
  3  2  1  0
  4  5  2  0
  4  3  1  0
  6  5  1  0
  7 12  2  0
  7  6  1  0
  8  7  1  0
  9 10  1  0
  9  8  2  0
 10 11  2  0
 11 12  1  0
 12  4  1  0
 13  2  1  0
 14 13  2  0
 15 13  1  0
 16 22  1  0
 16 15  1  0
 16 17  1  1
 18 17  1  0
 19 18  1  0
 20 19  1  0
 21 20  1  0
 22 23  2  0
 24 25  1  0
 25 35  2  0
 26 25  1  0
 26 27  2  0
 27 28  1  0
 28 34  2  0
 28 29  1  0
 30 32  1  0
 30 29  1  6
 31 30  1  0
 31 22  1  0
 32 33  1  0
 35 34  1  0
 36 32  2  0
M  END
$$$$
