WKY.pdb
     RDKit          3D

 36 38  0  0  1  0  0  0  0  0999 V2000
   21.4845  -18.9929  -21.3562 N   0  0  0  0  0  0  0  0  0  0  0  0
   21.5551  -18.8028  -19.8845 C   0  0  1  0  0  0  0  0  0  0  0  0
   20.2064  -18.3926  -19.4253 C   0  0  0  0  0  0  0  0  0  0  0  0
   19.7653  -17.0547  -19.8458 C   0  0  0  0  0  0  0  0  0  0  0  0
   19.0693  -16.6348  -20.9645 C   0  0  0  0  0  0  0  0  0  0  0  0
   18.9237  -15.2996  -20.9221 N   0  0  0  0  0  0  0  0  0  0  0  0
   19.5086  -14.8083  -19.7940 C   0  0  0  0  0  0  0  0  0  0  0  0
   19.6323  -13.5336  -19.3033 C   0  0  0  0  0  0  0  0  0  0  0  0
   20.3042  -13.3255  -18.0975 C   0  0  0  0  0  0  0  0  0  0  0  0
   20.8291  -14.3882  -17.4175 C   0  0  0  0  0  0  0  0  0  0  0  0
   20.6965  -15.6541  -17.9196 C   0  0  0  0  0  0  0  0  0  0  0  0
   20.0289  -15.9001  -19.1287 C   0  0  0  0  0  0  0  0  0  0  0  0
   21.9766  -20.1292  -19.2879 C   0  0  0  0  0  0  0  0  0  0  0  0
   21.5728  -21.1850  -19.8280 O   0  0  0  0  0  0  0  0  0  0  0  0
   22.7964  -20.1829  -18.1658 N   0  0  0  0  0  0  0  0  0  0  0  0
   23.2128  -21.4463  -17.4758 C   0  0  1  0  0  0  0  0  0  0  0  0
   24.7004  -21.4758  -17.4916 C   0  0  0  0  0  0  0  0  0  0  0  0
   25.4154  -22.7333  -17.1525 C   0  0  0  0  0  0  0  0  0  0  0  0
   26.9378  -22.5349  -17.2758 C   0  0  0  0  0  0  0  0  0  0  0  0
   27.6171  -23.8664  -17.1198 C   0  0  0  0  0  0  0  0  0  0  0  0
   29.0742  -23.7154  -17.1579 N   0  0  0  0  0  0  0  0  0  0  0  0
   22.5347  -21.3608  -16.1807 C   0  0  0  0  0  0  0  0  0  0  0  0
   22.7926  -20.2979  -15.4476 O   0  0  0  0  0  0  0  0  0  0  0  0
   23.4406  -28.0671  -15.4789 O   0  0  0  0  0  0  0  0  0  0  0  0
   23.3415  -26.7610  -14.9812 C   0  0  0  0  0  0  0  0  0  0  0  0
   22.0851  -26.3082  -14.5983 C   0  0  0  0  0  0  0  0  0  0  0  0
   21.8873  -25.0494  -14.1008 C   0  0  0  0  0  0  0  0  0  0  0  0
   22.9564  -24.1821  -13.9665 C   0  0  0  0  0  0  0  0  0  0  0  0
   22.7067  -22.8244  -13.4341 C   0  0  0  0  0  0  0  0  0  0  0  0
   21.5029  -22.2248  -14.0839 C   0  0  2  0  0  0  0  0  0  0  0  0
   21.6336  -22.2343  -15.5584 N   0  0  0  0  0  0  0  0  0  0  0  0
   21.2314  -20.8292  -13.6902 C   0  0  0  0  0  0  0  0  0  0  0  0
   21.1273  -20.5139  -12.3194 O   0  0  0  0  0  0  0  0  0  0  0  0
   24.2177  -24.6473  -14.3562 C   0  0  0  0  0  0  0  0  0  0  0  0
   24.4206  -25.9154  -14.8571 C   0  0  0  0  0  0  0  0  0  0  0  0
   21.0908  -19.9082  -14.5357 O   0  0  0  0  0  0  0  0  0  0  0  0
  2  1  1  6
  3  2  1  0
  4  5  2  0
  4  3  1  0
  6  5  1  0
  7 12  2  0
  7  6  1  0
  8  7  1  0
  9 10  1  0
  9  8  2  0
 10 11  2  0
 11 12  1  0
 12  4  1  0
 13  2  1  0
 14 13  2  0
 15 13  1  0
 16 22  1  0
 16 15  1  0
 16 17  1  1
 18 17  1  0
 19 18  1  0
 20 19  1  0
 21 20  1  0
 22 23  2  0
 24 25  1  0
 25 35  2  0
 26 25  1  0
 26 27  2  0
 27 28  1  0
 28 34  2  0
 28 29  1  0
 30 32  1  0
 30 29  1  1
 31 30  1  0
 31 22  1  0
 32 33  1  0
 35 34  1  0
 36 32  2  0
M  END
$$$$
