WKY.pdb
     RDKit          3D

 36 38  0  0  1  0  0  0  0  0999 V2000
   28.5964  -21.0506  -10.5306 N   0  0  0  0  0  0  0  0  0  0  0  0
   27.2493  -21.3588   -9.9853 C   0  0  1  0  0  0  0  0  0  0  0  0
   27.1299  -20.6649   -8.6805 C   0  0  0  0  0  0  0  0  0  0  0  0
   28.2147  -20.9142   -7.7201 C   0  0  0  0  0  0  0  0  0  0  0  0
   29.3564  -21.6884   -7.8163 C   0  0  0  0  0  0  0  0  0  0  0  0
   30.0358  -21.6242   -6.6587 N   0  0  0  0  0  0  0  0  0  0  0  0
   29.3741  -20.8197   -5.7806 C   0  0  0  0  0  0  0  0  0  0  0  0
   29.6501  -20.4441   -4.4907 C   0  0  0  0  0  0  0  0  0  0  0  0
   28.7681  -19.5948   -3.8205 C   0  0  0  0  0  0  0  0  0  0  0  0
   27.6430  -19.1446   -4.4520 C   0  0  0  0  0  0  0  0  0  0  0  0
   27.3820  -19.5276   -5.7394 C   0  0  0  0  0  0  0  0  0  0  0  0
   28.2454  -20.3807   -6.4429 C   0  0  0  0  0  0  0  0  0  0  0  0
   26.2388  -20.8492  -10.9913 C   0  0  0  0  0  0  0  0  0  0  0  0
   25.8148  -19.6762  -10.8739 O   0  0  0  0  0  0  0  0  0  0  0  0
   25.7878  -21.6590  -12.0280 N   0  0  0  0  0  0  0  0  0  0  0  0
   25.1004  -21.1581  -13.2618 C   0  0  1  0  0  0  0  0  0  0  0  0
   25.4902  -22.0687  -14.3722 C   0  0  0  0  0  0  0  0  0  0  0  0
   25.8737  -21.5003  -15.6903 C   0  0  0  0  0  0  0  0  0  0  0  0
   26.9503  -20.4131  -15.5131 C   0  0  0  0  0  0  0  0  0  0  0  0
   27.2566  -19.8073  -16.8539 C   0  0  0  0  0  0  0  0  0  0  0  0
   28.2604  -18.7470  -16.7293 N   0  0  0  0  0  0  0  0  0  0  0  0
   23.6914  -21.1113  -12.8656 C   0  0  0  0  0  0  0  0  0  0  0  0
   23.2647  -22.0814  -12.0843 O   0  0  0  0  0  0  0  0  0  0  0  0
   15.1744  -19.9106  -11.0570 O   0  0  0  0  0  0  0  0  0  0  0  0
   16.5071  -19.7158  -11.4433 C   0  0  0  0  0  0  0  0  0  0  0  0
   17.4716  -19.6777  -10.4440 C   0  0  0  0  0  0  0  0  0  0  0  0
   18.7982  -19.4927  -10.7215 C   0  0  0  0  0  0  0  0  0  0  0  0
   19.2162  -19.3353  -12.0306 C   0  0  0  0  0  0  0  0  0  0  0  0
   20.6570  -19.1275  -12.2957 C   0  0  0  0  0  0  0  0  0  0  0  0
   21.3059  -20.4170  -12.6791 C   0  0  2  0  0  0  0  0  0  0  0  0
   22.6810  -20.1931  -13.1792 N   0  0  0  0  0  0  0  0  0  0  0  0
   20.5900  -21.1699  -13.7264 C   0  0  0  0  0  0  0  0  0  0  0  0
   19.6308  -22.1302  -13.3429 O   0  0  0  0  0  0  0  0  0  0  0  0
   18.2369  -19.3740  -13.0299 C   0  0  0  0  0  0  0  0  0  0  0  0
   16.8995  -19.5611  -12.7537 C   0  0  0  0  0  0  0  0  0  0  0  0
   20.8040  -20.9841  -14.9522 O   0  0  0  0  0  0  0  0  0  0  0  0
  2  1  1  6
  3  2  1  0
  4  5  2  0
  4  3  1  0
  6  5  1  0
  7 12  2  0
  7  6  1  0
  8  7  1  0
  9 10  1  0
  9  8  2  0
 10 11  2  0
 11 12  1  0
 12  4  1  0
 13  2  1  0
 14 13  2  0
 15 13  1  0
 16 22  1  0
 16 15  1  0
 16 17  1  6
 18 17  1  0
 19 18  1  0
 20 19  1  0
 21 20  1  0
 22 23  2  0
 24 25  1  0
 25 35  2  0
 26 25  1  0
 26 27  2  0
 27 28  1  0
 28 34  2  0
 28 29  1  0
 30 32  1  0
 30 29  1  6
 31 30  1  0
 31 22  1  0
 32 33  1  0
 35 34  1  0
 36 32  2  0
M  END
$$$$
