WKY.pdb
     RDKit          3D

 36 38  0  0  1  0  0  0  0  0999 V2000
   26.0882  -25.6962  -21.3094 N   0  0  0  0  0  0  0  0  0  0  0  0
   25.1619  -25.8023  -20.1528 C   0  0  1  0  0  0  0  0  0  0  0  0
   23.9046  -25.1115  -20.5269 C   0  0  0  0  0  0  0  0  0  0  0  0
   23.9613  -23.6425  -20.5457 C   0  0  0  0  0  0  0  0  0  0  0  0
   24.9154  -22.7740  -21.0433 C   0  0  0  0  0  0  0  0  0  0  0  0
   24.5347  -21.5085  -20.7997 N   0  0  0  0  0  0  0  0  0  0  0  0
   23.3392  -21.5052  -20.1462 C   0  0  0  0  0  0  0  0  0  0  0  0
   22.5488  -20.4853  -19.6814 C   0  0  0  0  0  0  0  0  0  0  0  0
   21.3520  -20.7881  -19.0297 C   0  0  0  0  0  0  0  0  0  0  0  0
   20.9779  -22.0917  -18.8625 C   0  0  0  0  0  0  0  0  0  0  0  0
   21.7770  -23.0980  -19.3328 C   0  0  0  0  0  0  0  0  0  0  0  0
   22.9866  -22.8306  -19.9912 C   0  0  0  0  0  0  0  0  0  0  0  0
   24.9417  -27.2786  -19.8977 C   0  0  0  0  0  0  0  0  0  0  0  0
   24.6784  -28.0225  -20.8708 O   0  0  0  0  0  0  0  0  0  0  0  0
   25.0306  -27.8057  -18.6139 N   0  0  0  0  0  0  0  0  0  0  0  0
   24.8736  -29.2576  -18.2774 C   0  0  1  0  0  0  0  0  0  0  0  0
   25.9780  -29.6053  -17.3428 C   0  0  0  0  0  0  0  0  0  0  0  0
   26.0485  -30.9710  -16.7621 C   0  0  0  0  0  0  0  0  0  0  0  0
   27.3290  -31.1311  -15.9212 C   0  0  0  0  0  0  0  0  0  0  0  0
   27.4070  -32.5446  -15.4164 C   0  0  0  0  0  0  0  0  0  0  0  0
   28.6546  -32.7667  -14.6805 N   0  0  0  0  0  0  0  0  0  0  0  0
   23.4968  -29.3412  -17.7854 C   0  0  0  0  0  0  0  0  0  0  0  0
   23.1666  -28.5199  -16.8106 O   0  0  0  0  0  0  0  0  0  0  0  0
   20.1274  -34.9495  -21.3965 O   0  0  0  0  0  0  0  0  0  0  0  0
   20.0568  -33.7719  -20.6407 C   0  0  0  0  0  0  0  0  0  0  0  0
   20.6361  -32.6263  -21.1720 C   0  0  0  0  0  0  0  0  0  0  0  0
   20.6184  -31.4293  -20.5100 C   0  0  0  0  0  0  0  0  0  0  0  0
   20.0113  -31.3324  -19.2709 C   0  0  0  0  0  0  0  0  0  0  0  0
   20.0181  -30.0255  -18.5773 C   0  0  0  0  0  0  0  0  0  0  0  0
   21.1022  -29.9878  -17.5506 C   0  0  2  0  0  0  0  0  0  0  0  0
   22.4328  -30.1651  -18.1745 N   0  0  0  0  0  0  0  0  0  0  0  0
   20.9831  -31.0195  -16.5028 C   0  0  0  0  0  0  0  0  0  0  0  0
   19.8813  -30.9762  -15.6234 O   0  0  0  0  0  0  0  0  0  0  0  0
   19.4317  -32.4923  -18.7438 C   0  0  0  0  0  0  0  0  0  0  0  0
   19.4471  -33.6997  -19.4086 C   0  0  0  0  0  0  0  0  0  0  0  0
   21.8306  -31.9393  -16.3667 O   0  0  0  0  0  0  0  0  0  0  0  0
  2  1  1  6
  3  2  1  0
  4  5  2  0
  4  3  1  0
  6  5  1  0
  7 12  2  0
  7  6  1  0
  8  7  1  0
  9 10  1  0
  9  8  2  0
 10 11  2  0
 11 12  1  0
 12  4  1  0
 13  2  1  0
 14 13  2  0
 15 13  1  0
 16 22  1  0
 16 15  1  0
 16 17  1  1
 18 17  1  0
 19 18  1  0
 20 19  1  0
 21 20  1  0
 22 23  2  0
 24 25  1  0
 25 35  2  0
 26 25  1  0
 26 27  2  0
 27 28  1  0
 28 34  2  0
 28 29  1  0
 30 32  1  0
 30 29  1  6
 31 30  1  0
 31 22  1  0
 32 33  1  0
 35 34  1  0
 36 32  2  0
M  END
$$$$
