WKY.pdb
     RDKit          3D

 36 38  0  0  1  0  0  0  0  0999 V2000
   15.3185  -15.2569    5.6578 N   0  0  0  0  0  0  0  0  0  0  0  0
   16.4435  -16.2125    5.4903 C   0  0  1  0  0  0  0  0  0  0  0  0
   17.6944  -15.4860    5.8155 C   0  0  0  0  0  0  0  0  0  0  0  0
   18.1475  -14.5097    4.8141 C   0  0  0  0  0  0  0  0  0  0  0  0
   18.0687  -13.1294    4.7869 C   0  0  0  0  0  0  0  0  0  0  0  0
   18.6005  -12.6764    3.6389 N   0  0  0  0  0  0  0  0  0  0  0  0
   19.0384  -13.7260    2.8887 C   0  0  0  0  0  0  0  0  0  0  0  0
   19.6410  -13.7881    1.6583 C   0  0  0  0  0  0  0  0  0  0  0  0
   19.9805  -15.0319    1.1234 C   0  0  0  0  0  0  0  0  0  0  0  0
   19.7131  -16.1724    1.8270 C   0  0  0  0  0  0  0  0  0  0  0  0
   19.1123  -16.0938    3.0538 C   0  0  0  0  0  0  0  0  0  0  0  0
   18.7563  -14.8613    3.6214 C   0  0  0  0  0  0  0  0  0  0  0  0
   16.1924  -17.3614    6.4443 C   0  0  0  0  0  0  0  0  0  0  0  0
   15.8279  -17.1006    7.6142 O   0  0  0  0  0  0  0  0  0  0  0  0
   16.3583  -18.6808    6.0375 N   0  0  0  0  0  0  0  0  0  0  0  0
   16.5663  -19.8380    6.9667 C   0  0  1  0  0  0  0  0  0  0  0  0
   15.8152  -20.9890    6.3964 C   0  0  0  0  0  0  0  0  0  0  0  0
   15.8446  -22.3031    7.0890 C   0  0  0  0  0  0  0  0  0  0  0  0
   14.9544  -23.3195    6.3495 C   0  0  0  0  0  0  0  0  0  0  0  0
   15.0256  -24.6400    7.0636 C   0  0  0  0  0  0  0  0  0  0  0  0
   14.0188  -25.5687    6.5427 N   0  0  0  0  0  0  0  0  0  0  0  0
   18.0245  -19.9380    7.0574 C   0  0  0  0  0  0  0  0  0  0  0  0
   18.6969  -19.8056    5.9331 O   0  0  0  0  0  0  0  0  0  0  0  0
   20.3594  -16.7840   13.2792 O   0  0  0  0  0  0  0  0  0  0  0  0
   20.5710  -17.3642   12.0215 C   0  0  0  0  0  0  0  0  0  0  0  0
   19.8367  -16.8714   10.9498 C   0  0  0  0  0  0  0  0  0  0  0  0
   19.9732  -17.3723    9.6843 C   0  0  0  0  0  0  0  0  0  0  0  0
   20.8633  -18.4025    9.4397 C   0  0  0  0  0  0  0  0  0  0  0  0
   20.9799  -18.9278    8.0615 C   0  0  0  0  0  0  0  0  0  0  0  0
   20.3241  -20.2658    7.9582 C   0  0  2  0  0  0  0  0  0  0  0  0
   18.8614  -20.1588    8.1588 N   0  0  0  0  0  0  0  0  0  0  0  0
   20.8150  -21.2600    8.9313 C   0  0  0  0  0  0  0  0  0  0  0  0
   22.1717  -21.6435    8.8909 O   0  0  0  0  0  0  0  0  0  0  0  0
   21.5973  -18.8927   10.5260 C   0  0  0  0  0  0  0  0  0  0  0  0
   21.4627  -18.3896   11.8022 C   0  0  0  0  0  0  0  0  0  0  0  0
   20.0651  -21.7776    9.7988 O   0  0  0  0  0  0  0  0  0  0  0  0
  2  1  1  1
  3  2  1  0
  4  5  2  0
  4  3  1  0
  6  5  1  0
  7 12  2  0
  7  6  1  0
  8  7  1  0
  9 10  1  0
  9  8  2  0
 10 11  2  0
 11 12  1  0
 12  4  1  0
 13  2  1  0
 14 13  2  0
 15 13  1  0
 16 22  1  0
 16 15  1  0
 16 17  1  6
 18 17  1  0
 19 18  1  0
 20 19  1  0
 21 20  1  0
 22 23  2  0
 24 25  1  0
 25 35  2  0
 26 25  1  0
 26 27  2  0
 27 28  1  0
 28 34  2  0
 28 29  1  0
 30 32  1  0
 30 29  1  1
 31 30  1  0
 31 22  1  0
 32 33  1  0
 35 34  1  0
 36 32  2  0
M  END
$$$$
