WKY.pdb
     RDKit          3D

 36 38  0  0  1  0  0  0  0  0999 V2000
   27.3549  -18.8710  -10.0171 N   0  0  0  0  0  0  0  0  0  0  0  0
   26.7914  -20.2146   -9.7272 C   0  0  1  0  0  0  0  0  0  0  0  0
   26.1862  -20.1591   -8.3748 C   0  0  0  0  0  0  0  0  0  0  0  0
   27.0150  -19.5469   -7.3261 C   0  0  0  0  0  0  0  0  0  0  0  0
   27.3198  -18.2242   -7.0622 C   0  0  0  0  0  0  0  0  0  0  0  0
   28.1462  -18.1611   -6.0044 N   0  0  0  0  0  0  0  0  0  0  0  0
   28.4059  -19.4181   -5.5475 C   0  0  0  0  0  0  0  0  0  0  0  0
   29.1795  -19.8782   -4.5127 C   0  0  0  0  0  0  0  0  0  0  0  0
   29.2641  -21.2518   -4.2784 C   0  0  0  0  0  0  0  0  0  0  0  0
   28.5775  -22.1230   -5.0764 C   0  0  0  0  0  0  0  0  0  0  0  0
   27.8091  -21.6482   -6.1042 C   0  0  0  0  0  0  0  0  0  0  0  0
   27.7018  -20.2747   -6.3695 C   0  0  0  0  0  0  0  0  0  0  0  0
   25.7590  -20.5005  -10.7974 C   0  0  0  0  0  0  0  0  0  0  0  0
   24.8773  -19.6401  -11.0251 O   0  0  0  0  0  0  0  0  0  0  0  0
   25.7837  -21.6893  -11.5185 N   0  0  0  0  0  0  0  0  0  0  0  0
   25.2922  -21.8413  -12.9260 C   0  0  1  0  0  0  0  0  0  0  0  0
   26.1572  -22.8623  -13.5767 C   0  0  0  0  0  0  0  0  0  0  0  0
   25.8933  -23.2626  -14.9829 C   0  0  0  0  0  0  0  0  0  0  0  0
   26.5846  -22.2898  -15.9566 C   0  0  0  0  0  0  0  0  0  0  0  0
   26.2881  -22.7183  -17.3663 C   0  0  0  0  0  0  0  0  0  0  0  0
   26.8557  -21.7705  -18.3290 N   0  0  0  0  0  0  0  0  0  0  0  0
   23.8700  -22.1451  -12.7541 C   0  0  0  0  0  0  0  0  0  0  0  0
   23.4855  -22.5117  -11.5494 O   0  0  0  0  0  0  0  0  0  0  0  0
   16.0529  -19.5697  -10.6901 O   0  0  0  0  0  0  0  0  0  0  0  0
   17.3496  -19.7913  -11.1726 C   0  0  0  0  0  0  0  0  0  0  0  0
   18.2251  -20.5104  -10.3684 C   0  0  0  0  0  0  0  0  0  0  0  0
   19.5105  -20.7780  -10.7523 C   0  0  0  0  0  0  0  0  0  0  0  0
   19.9760  -20.3280  -11.9747 C   0  0  0  0  0  0  0  0  0  0  0  0
   21.3742  -20.6263  -12.3555 C   0  0  0  0  0  0  0  0  0  0  0  0
   21.4329  -21.8645  -13.1887 C   0  0  2  0  0  0  0  0  0  0  0  0
   22.8098  -22.1182  -13.6692 N   0  0  0  0  0  0  0  0  0  0  0  0
   20.5648  -21.8363  -14.3812 C   0  0  0  0  0  0  0  0  0  0  0  0
   21.1556  -21.6845  -15.6529 O   0  0  0  0  0  0  0  0  0  0  0  0
   19.0867  -19.6035  -12.7768 C   0  0  0  0  0  0  0  0  0  0  0  0
   17.7907  -19.3329  -12.3934 C   0  0  0  0  0  0  0  0  0  0  0  0
   19.3138  -21.9449  -14.3038 O   0  0  0  0  0  0  0  0  0  0  0  0
  2  1  1  6
  3  2  1  0
  4  5  2  0
  4  3  1  0
  6  5  1  0
  7 12  2  0
  7  6  1  0
  8  7  1  0
  9 10  1  0
  9  8  2  0
 10 11  2  0
 11 12  1  0
 12  4  1  0
 13  2  1  0
 14 13  2  0
 15 13  1  0
 16 22  1  0
 16 15  1  0
 16 17  1  1
 18 17  1  0
 19 18  1  0
 20 19  1  0
 21 20  1  0
 22 23  2  0
 24 25  1  0
 25 35  2  0
 26 25  1  0
 26 27  2  0
 27 28  1  0
 28 34  2  0
 28 29  1  0
 30 32  1  0
 30 29  1  6
 31 30  1  0
 31 22  1  0
 32 33  1  0
 35 34  1  0
 36 32  2  0
M  END
$$$$
