WKY.pdb
     RDKit          3D

 36 38  0  0  1  0  0  0  0  0999 V2000
   22.5416  -14.4446  -24.2395 N   0  0  0  0  0  0  0  0  0  0  0  0
   23.4456  -15.1666  -23.3076 C   0  0  1  0  0  0  0  0  0  0  0  0
   23.7813  -14.2347  -22.2045 C   0  0  0  0  0  0  0  0  0  0  0  0
   24.4072  -12.9661  -22.6049 C   0  0  0  0  0  0  0  0  0  0  0  0
   23.9865  -11.6569  -22.4591 C   0  0  0  0  0  0  0  0  0  0  0  0
   24.8930  -10.8345  -23.0137 N   0  0  0  0  0  0  0  0  0  0  0  0
   25.9202  -11.5641  -23.5322 C   0  0  0  0  0  0  0  0  0  0  0  0
   27.0653  -11.1988  -24.1925 C   0  0  0  0  0  0  0  0  0  0  0  0
   27.9531  -12.1864  -24.6230 C   0  0  0  0  0  0  0  0  0  0  0  0
   27.6767  -13.5029  -24.3826 C   0  0  0  0  0  0  0  0  0  0  0  0
   26.5305  -13.8513  -23.7216 C   0  0  0  0  0  0  0  0  0  0  0  0
   25.6155  -12.8857  -23.2759 C   0  0  0  0  0  0  0  0  0  0  0  0
   22.6894  -16.3812  -22.8116 C   0  0  0  0  0  0  0  0  0  0  0  0
   21.4419  -16.3141  -22.7187 O   0  0  0  0  0  0  0  0  0  0  0  0
   23.3580  -17.5509  -22.4670 N   0  0  0  0  0  0  0  0  0  0  0  0
   22.6866  -18.8179  -22.0315 C   0  0  1  0  0  0  0  0  0  0  0  0
   23.5661  -19.9400  -22.4574 C   0  0  0  0  0  0  0  0  0  0  0  0
   23.1341  -21.3427  -22.2261 C   0  0  0  0  0  0  0  0  0  0  0  0
   23.3490  -21.7343  -20.7521 C   0  0  0  0  0  0  0  0  0  0  0  0
   23.0090  -23.1880  -20.5795 C   0  0  0  0  0  0  0  0  0  0  0  0
   23.2390  -23.6161  -19.1970 N   0  0  0  0  0  0  0  0  0  0  0  0
   22.4738  -18.6095  -20.5977 C   0  0  0  0  0  0  0  0  0  0  0  0
   23.0636  -17.5629  -20.0587 O   0  0  0  0  0  0  0  0  0  0  0  0
   15.5640  -17.1178  -19.5663 O   0  0  0  0  0  0  0  0  0  0  0  0
   16.9455  -17.1780  -19.3400 C   0  0  0  0  0  0  0  0  0  0  0  0
   17.3793  -17.3762  -18.0350 C   0  0  0  0  0  0  0  0  0  0  0  0
   18.7071  -17.4493  -17.7142 C   0  0  0  0  0  0  0  0  0  0  0  0
   19.6662  -17.3237  -18.7031 C   0  0  0  0  0  0  0  0  0  0  0  0
   21.0937  -17.3979  -18.3211 C   0  0  0  0  0  0  0  0  0  0  0  0
   21.5507  -18.8196  -18.2931 C   0  0  2  0  0  0  0  0  0  0  0  0
   21.7343  -19.3469  -19.6640 N   0  0  0  0  0  0  0  0  0  0  0  0
   20.6283  -19.7412  -17.6031 C   0  0  0  0  0  0  0  0  0  0  0  0
   20.2394  -19.4538  -16.2782 O   0  0  0  0  0  0  0  0  0  0  0  0
   19.2189  -17.1231  -20.0141 C   0  0  0  0  0  0  0  0  0  0  0  0
   17.8818  -17.0498  -20.3408 C   0  0  0  0  0  0  0  0  0  0  0  0
   20.1738  -20.7756  -18.1566 O   0  0  0  0  0  0  0  0  0  0  0  0
  2  1  1  6
  3  2  1  0
  4  5  2  0
  4  3  1  0
  6  5  1  0
  7 12  2  0
  7  6  1  0
  8  7  1  0
  9 10  1  0
  9  8  2  0
 10 11  2  0
 11 12  1  0
 12  4  1  0
 13  2  1  0
 14 13  2  0
 15 13  1  0
 16 22  1  0
 16 15  1  0
 16 17  1  1
 18 17  1  0
 19 18  1  0
 20 19  1  0
 21 20  1  0
 22 23  2  0
 24 25  1  0
 25 35  2  0
 26 25  1  0
 26 27  2  0
 27 28  1  0
 28 34  2  0
 28 29  1  0
 30 32  1  0
 30 29  1  6
 31 30  1  0
 31 22  1  0
 32 33  1  0
 35 34  1  0
 36 32  2  0
M  END
$$$$
