DSG.pdb
     RDKit          3D

 19 18  0  0  1  0  0  0  0  0999 V2000
    8.3822  -18.4880   19.1742 N   0  0  0  0  0  0  0  0  0  0  0  0
    9.6864  -17.7246   19.1612 C   0  0  1  0  0  0  0  0  0  0  0  0
    9.8687  -17.4072   17.6946 C   0  0  0  0  0  0  0  0  0  0  0  0
   10.1580  -18.5597   16.8467 C   0  0  0  0  0  0  0  0  0  0  0  0
    9.4108  -19.0414   15.9776 O   0  0  0  0  0  0  0  0  0  0  0  0
    9.4067  -16.4631   19.8838 C   0  0  0  0  0  0  0  0  0  0  0  0
   10.3316  -15.5694   19.9085 O   0  0  0  0  0  0  0  0  0  0  0  0
   11.3948  -19.2081   17.0066 O   0  0  0  0  0  0  0  0  0  0  0  0
    5.8690  -15.5777   21.6838 O   0  0  0  0  0  0  0  0  0  0  0  0
    6.6065  -14.5079   21.1947 C   0  0  0  0  0  0  0  0  0  0  0  0
    8.1092  -14.8371   21.2885 C   0  0  2  0  0  0  0  0  0  0  0  0
    8.2360  -16.0979   20.5594 N   0  0  0  0  0  0  0  0  0  0  0  0
    8.4993  -14.9069   22.6889 C   0  0  0  0  0  0  0  0  0  0  0  0
    8.3670  -13.8514   23.3722 O   0  0  0  0  0  0  0  0  0  0  0  0
    9.0128  -16.0375   23.3674 N   0  0  0  0  0  0  0  0  0  0  0  0
    9.3186  -15.9970   24.7893 C   0  0  0  0  0  0  0  0  0  0  0  0
   10.7648  -15.8921   25.0052 C   0  0  0  0  0  0  0  0  0  0  0  0
   11.5369  -15.8679   24.0177 O   0  0  0  0  0  0  0  0  0  0  0  0
   11.3335  -15.8160   26.2764 O   0  0  0  0  0  0  0  0  0  0  0  0
  2  1  1  6
  2  3  1  0
  3  4  1  0
  4  5  2  0
  6  7  2  0
  6  2  1  0
  8  4  1  0
  9 10  1  0
 11 10  1  1
 11 12  1  0
 12  6  1  0
 13 11  1  0
 13 15  1  0
 14 13  2  0
 16 15  1  0
 16 17  1  0
 17 19  1  0
 18 17  2  0
M  END
$$$$
