DSG.pdb
     RDKit          3D

 19 18  0  0  1  0  0  0  0  0999 V2000
   12.0598  -17.4151   17.1991 N   0  0  0  0  0  0  0  0  0  0  0  0
   12.6357  -18.1890   18.3625 C   0  0  1  0  0  0  0  0  0  0  0  0
   13.9363  -18.7138   17.7986 C   0  0  0  0  0  0  0  0  0  0  0  0
   13.7922  -19.6601   16.6967 C   0  0  0  0  0  0  0  0  0  0  0  0
   13.0512  -20.6582   16.6744 O   0  0  0  0  0  0  0  0  0  0  0  0
   12.9462  -17.1714   19.3919 C   0  0  0  0  0  0  0  0  0  0  0  0
   13.7753  -16.2384   19.0807 O   0  0  0  0  0  0  0  0  0  0  0  0
   14.5534  -19.4471   15.5344 O   0  0  0  0  0  0  0  0  0  0  0  0
   10.9293  -16.7007   22.9018 O   0  0  0  0  0  0  0  0  0  0  0  0
   11.4925  -15.5987   22.2725 C   0  0  0  0  0  0  0  0  0  0  0  0
   12.8237  -16.0107   21.6141 C   0  0  2  0  0  0  0  0  0  0  0  0
   12.4413  -17.0810   20.6947 N   0  0  0  0  0  0  0  0  0  0  0  0
   13.7676  -16.4101   22.6475 C   0  0  0  0  0  0  0  0  0  0  0  0
   13.5000  -17.4666   23.2882 O   0  0  0  0  0  0  0  0  0  0  0  0
   14.9578  -15.7364   23.0104 N   0  0  0  0  0  0  0  0  0  0  0  0
   15.7696  -16.1788   24.1340 C   0  0  0  0  0  0  0  0  0  0  0  0
   16.9890  -15.3722   24.2411 C   0  0  0  0  0  0  0  0  0  0  0  0
   17.2229  -14.4885   23.3831 O   0  0  0  0  0  0  0  0  0  0  0  0
   17.9171  -15.5421   25.2683 O   0  0  0  0  0  0  0  0  0  0  0  0
  2  1  1  6
  2  3  1  0
  3  4  1  0
  4  5  2  0
  6  7  2  0
  6  2  1  0
  8  4  1  0
  9 10  1  0
 11 10  1  1
 11 12  1  0
 12  6  1  0
 13 11  1  0
 13 15  1  0
 14 13  2  0
 16 15  1  0
 16 17  1  0
 17 19  1  0
 18 17  2  0
M  END
$$$$
