DSG.pdb
     RDKit          3D

 19 18  0  0  1  0  0  0  0  0999 V2000
    8.1181  -12.8359   17.5416 N   0  0  0  0  0  0  0  0  0  0  0  0
    7.7942  -14.1284   18.2547 C   0  0  1  0  0  0  0  0  0  0  0  0
    8.5795  -15.1486   17.4625 C   0  0  0  0  0  0  0  0  0  0  0  0
    8.0374  -15.4522   16.1416 C   0  0  0  0  0  0  0  0  0  0  0  0
    8.4018  -16.3723   15.3890 O   0  0  0  0  0  0  0  0  0  0  0  0
    8.4097  -13.9990   19.5948 C   0  0  0  0  0  0  0  0  0  0  0  0
    9.5893  -13.4905   19.6656 O   0  0  0  0  0  0  0  0  0  0  0  0
    7.0013  -14.6416   15.6466 O   0  0  0  0  0  0  0  0  0  0  0  0
    6.5014  -14.0779   23.1854 O   0  0  0  0  0  0  0  0  0  0  0  0
    7.7062  -13.4153   22.9933 C   0  0  0  0  0  0  0  0  0  0  0  0
    8.6163  -14.2623   22.0825 C   0  0  2  0  0  0  0  0  0  0  0  0
    7.8643  -14.3606   20.8327 N   0  0  0  0  0  0  0  0  0  0  0  0
    8.8867  -15.5390   22.7271 C   0  0  0  0  0  0  0  0  0  0  0  0
    8.0390  -16.4599   22.5491 O   0  0  0  0  0  0  0  0  0  0  0  0
   10.0041  -15.8575   23.5347 N   0  0  0  0  0  0  0  0  0  0  0  0
   10.1376  -17.1605   24.1684 C   0  0  0  0  0  0  0  0  0  0  0  0
   11.3906  -17.2425   24.9248 C   0  0  0  0  0  0  0  0  0  0  0  0
   11.6347  -18.2654   25.6073 O   0  0  0  0  0  0  0  0  0  0  0  0
   12.3409  -16.2215   24.9219 O   0  0  0  0  0  0  0  0  0  0  0  0
  2  1  1  6
  2  3  1  0
  3  4  1  0
  4  5  2  0
  6  7  2  0
  6  2  1  0
  8  4  1  0
  9 10  1  0
 11 10  1  1
 11 12  1  0
 12  6  1  0
 13 11  1  0
 13 15  1  0
 14 13  2  0
 16 15  1  0
 16 17  1  0
 17 19  1  0
 18 17  2  0
M  END
$$$$
