DSG.pdb
     RDKit          3D

 19 18  0  0  1  0  0  0  0  0999 V2000
    9.3720  -17.0698   16.6340 N   0  0  0  0  0  0  0  0  0  0  0  0
    9.1464  -17.8006   17.9374 C   0  0  1  0  0  0  0  0  0  0  0  0
   10.2295  -18.8548   17.9168 C   0  0  0  0  0  0  0  0  0  0  0  0
    9.9425  -20.0159   17.0800 C   0  0  0  0  0  0  0  0  0  0  0  0
    8.9010  -20.2178   16.4317 O   0  0  0  0  0  0  0  0  0  0  0  0
    9.4679  -16.8171   18.9963 C   0  0  0  0  0  0  0  0  0  0  0  0
   10.4934  -16.0608   18.8199 O   0  0  0  0  0  0  0  0  0  0  0  0
   10.9211  -21.0198   16.9787 O   0  0  0  0  0  0  0  0  0  0  0  0
    7.1174  -16.0536   22.2274 O   0  0  0  0  0  0  0  0  0  0  0  0
    7.8714  -15.0123   21.7033 C   0  0  0  0  0  0  0  0  0  0  0  0
    9.2011  -15.5680   21.1571 C   0  0  2  0  0  0  0  0  0  0  0  0
    8.7841  -16.5881   20.1966 N   0  0  0  0  0  0  0  0  0  0  0  0
   10.0023  -16.0709   22.2633 C   0  0  0  0  0  0  0  0  0  0  0  0
   10.0158  -17.3233   22.4358 O   0  0  0  0  0  0  0  0  0  0  0  0
   10.7704  -15.3009   23.1684 N   0  0  0  0  0  0  0  0  0  0  0  0
   11.6207  -15.9279   24.1689 C   0  0  0  0  0  0  0  0  0  0  0  0
   10.9011  -16.0824   25.4367 C   0  0  0  0  0  0  0  0  0  0  0  0
    9.6848  -15.7845   25.4973 O   0  0  0  0  0  0  0  0  0  0  0  0
   11.5133  -16.5529   26.5982 O   0  0  0  0  0  0  0  0  0  0  0  0
  2  1  1  6
  2  3  1  0
  3  4  1  0
  4  5  2  0
  6  7  2  0
  6  2  1  0
  8  4  1  0
  9 10  1  0
 11 10  1  1
 11 12  1  0
 12  6  1  0
 13 11  1  0
 13 15  1  0
 14 13  2  0
 16 15  1  0
 16 17  1  0
 17 19  1  0
 18 17  2  0
M  END
$$$$
