DSG.pdb
     RDKit          3D

 19 18  0  0  1  0  0  0  0  0999 V2000
    8.1310  -16.8389   16.7241 N   0  0  0  0  0  0  0  0  0  0  0  0
    8.1013  -17.5725   18.0450 C   0  0  1  0  0  0  0  0  0  0  0  0
    9.0819  -18.7004   17.8185 C   0  0  0  0  0  0  0  0  0  0  0  0
    8.6577  -19.6979   16.8408 C   0  0  0  0  0  0  0  0  0  0  0  0
    7.6117  -20.3688   16.8786 O   0  0  0  0  0  0  0  0  0  0  0  0
    8.6861  -16.6314   19.0267 C   0  0  0  0  0  0  0  0  0  0  0  0
    9.7965  -16.0591   18.7198 O   0  0  0  0  0  0  0  0  0  0  0  0
    9.4940  -19.9448   15.7383 O   0  0  0  0  0  0  0  0  0  0  0  0
    6.9465  -15.5464   22.5810 O   0  0  0  0  0  0  0  0  0  0  0  0
    7.6800  -14.5988   21.8799 C   0  0  0  0  0  0  0  0  0  0  0  0
    8.8429  -15.2936   21.1448 C   0  0  2  0  0  0  0  0  0  0  0  0
    8.1770  -16.2649   20.2786 N   0  0  0  0  0  0  0  0  0  0  0  0
    9.7491  -15.8774   22.1228 C   0  0  0  0  0  0  0  0  0  0  0  0
    9.6163  -17.1122   22.3590 O   0  0  0  0  0  0  0  0  0  0  0  0
   10.7671  -15.2039   22.8386 N   0  0  0  0  0  0  0  0  0  0  0  0
   11.5607  -15.8828   23.8517 C   0  0  0  0  0  0  0  0  0  0  0  0
   12.9190  -16.1357   23.3619 C   0  0  0  0  0  0  0  0  0  0  0  0
   13.1367  -16.1584   22.1274 O   0  0  0  0  0  0  0  0  0  0  0  0
   13.9995  -16.3555   24.2160 O   0  0  0  0  0  0  0  0  0  0  0  0
  2  1  1  6
  2  3  1  0
  3  4  1  0
  4  5  2  0
  6  7  2  0
  6  2  1  0
  8  4  1  0
  9 10  1  0
 11 10  1  1
 11 12  1  0
 12  6  1  0
 13 11  1  0
 13 15  1  0
 14 13  2  0
 16 15  1  0
 16 17  1  0
 17 19  1  0
 18 17  2  0
M  END
$$$$
