DSG.pdb
     RDKit          3D

 19 18  0  0  1  0  0  0  0  0999 V2000
   11.2286  -18.1863   18.1711 N   0  0  0  0  0  0  0  0  0  0  0  0
   11.2414  -18.7225   19.5840 C   0  0  1  0  0  0  0  0  0  0  0  0
   12.2905  -19.8086   19.5157 C   0  0  0  0  0  0  0  0  0  0  0  0
   11.8587  -21.0413   18.8640 C   0  0  0  0  0  0  0  0  0  0  0  0
   10.8598  -21.1798   18.1368 O   0  0  0  0  0  0  0  0  0  0  0  0
   11.7645  -17.6155   20.4162 C   0  0  0  0  0  0  0  0  0  0  0  0
   12.5942  -16.7971   19.8715 O   0  0  0  0  0  0  0  0  0  0  0  0
   12.6283  -22.2010   19.0601 O   0  0  0  0  0  0  0  0  0  0  0  0
   10.4336  -16.6486   24.1644 O   0  0  0  0  0  0  0  0  0  0  0  0
   10.8848  -15.6488   23.3133 C   0  0  0  0  0  0  0  0  0  0  0  0
   12.0502  -16.1891   22.4618 C   0  0  2  0  0  0  0  0  0  0  0  0
   11.4660  -17.3267   21.7534 N   0  0  0  0  0  0  0  0  0  0  0  0
   13.1654  -16.5280   23.3335 C   0  0  0  0  0  0  0  0  0  0  0  0
   13.2744  -17.7398   23.6769 O   0  0  0  0  0  0  0  0  0  0  0  0
   14.1437  -15.6388   23.8379 N   0  0  0  0  0  0  0  0  0  0  0  0
   15.2324  -16.1057   24.6828 C   0  0  0  0  0  0  0  0  0  0  0  0
   16.5151  -15.5689   24.2186 C   0  0  0  0  0  0  0  0  0  0  0  0
   16.9156  -15.8385   23.0616 O   0  0  0  0  0  0  0  0  0  0  0  0
   17.3252  -14.7587   25.0141 O   0  0  0  0  0  0  0  0  0  0  0  0
  2  1  1  6
  2  3  1  0
  3  4  1  0
  4  5  2  0
  6  7  2  0
  6  2  1  0
  8  4  1  0
  9 10  1  0
 11 10  1  1
 11 12  1  0
 12  6  1  0
 13 11  1  0
 13 15  1  0
 14 13  2  0
 16 15  1  0
 16 17  1  0
 17 19  1  0
 18 17  2  0
M  END
$$$$
