DSG.pdb
     RDKit          3D

 19 18  0  0  1  0  0  0  0  0999 V2000
   11.0911  -19.1153   22.2999 N   0  0  0  0  0  0  0  0  0  0  0  0
   10.3917  -20.1446   23.1574 C   0  0  1  0  0  0  0  0  0  0  0  0
   11.2892  -21.3533   23.0207 C   0  0  0  0  0  0  0  0  0  0  0  0
   11.2835  -21.9781   21.7016 C   0  0  0  0  0  0  0  0  0  0  0  0
   10.4690  -21.7624   20.7873 O   0  0  0  0  0  0  0  0  0  0  0  0
   10.4980  -19.6346   24.5431 C   0  0  0  0  0  0  0  0  0  0  0  0
   11.5528  -18.9684   24.8569 O   0  0  0  0  0  0  0  0  0  0  0  0
   12.2850  -22.9197   21.4084 O   0  0  0  0  0  0  0  0  0  0  0  0
    7.4561  -19.2479   27.1070 O   0  0  0  0  0  0  0  0  0  0  0  0
    8.5902  -18.4680   27.2894 C   0  0  0  0  0  0  0  0  0  0  0  0
    9.8422  -19.2969   26.9424 C   0  0  2  0  0  0  0  0  0  0  0  0
    9.5770  -19.7786   25.5879 N   0  0  0  0  0  0  0  0  0  0  0  0
   10.0131  -20.3477   27.9349 C   0  0  0  0  0  0  0  0  0  0  0  0
    9.4196  -21.4424   27.7159 O   0  0  0  0  0  0  0  0  0  0  0  0
   10.7773  -20.2711   29.1233 N   0  0  0  0  0  0  0  0  0  0  0  0
   10.9020  -21.4086   30.0219 C   0  0  0  0  0  0  0  0  0  0  0  0
   11.7788  -21.0831   31.1507 C   0  0  0  0  0  0  0  0  0  0  0  0
   12.3111  -19.9498   31.2131 O   0  0  0  0  0  0  0  0  0  0  0  0
   12.0540  -21.9874   32.1764 O   0  0  0  0  0  0  0  0  0  0  0  0
  2  1  1  6
  2  3  1  0
  3  4  1  0
  4  5  2  0
  6  7  2  0
  6  2  1  0
  8  4  1  0
  9 10  1  0
 11 10  1  1
 11 12  1  0
 12  6  1  0
 13 11  1  0
 13 15  1  0
 14 13  2  0
 16 15  1  0
 16 17  1  0
 17 19  1  0
 18 17  2  0
M  END
$$$$
