DSG.pdb
     RDKit          3D

 19 18  0  0  1  0  0  0  0  0999 V2000
    7.9803  -15.9492   16.8950 N   0  0  0  0  0  0  0  0  0  0  0  0
    8.8342  -14.7075   17.0095 C   0  0  1  0  0  0  0  0  0  0  0  0
    8.0557  -13.6956   16.2002 C   0  0  0  0  0  0  0  0  0  0  0  0
    7.8640  -14.0463   14.7963 C   0  0  0  0  0  0  0  0  0  0  0  0
    8.2557  -15.0847   14.2359 O   0  0  0  0  0  0  0  0  0  0  0  0
    8.7679  -14.3192   18.4366 C   0  0  0  0  0  0  0  0  0  0  0  0
    9.4025  -13.2607   18.7993 O   0  0  0  0  0  0  0  0  0  0  0  0
    7.1723  -13.1404   13.9739 O   0  0  0  0  0  0  0  0  0  0  0  0
    6.4156  -16.0052   21.3571 O   0  0  0  0  0  0  0  0  0  0  0  0
    6.9708  -14.7472   21.5484 C   0  0  0  0  0  0  0  0  0  0  0  0
    8.3608  -14.6952   20.8847 C   0  0  2  0  0  0  0  0  0  0  0  0
    8.0840  -14.9637   19.4746 N   0  0  0  0  0  0  0  0  0  0  0  0
    9.2353  -15.6669   21.5246 C   0  0  0  0  0  0  0  0  0  0  0  0
    9.5574  -16.6818   20.8429 O   0  0  0  0  0  0  0  0  0  0  0  0
    9.7646  -15.5930   22.8348 N   0  0  0  0  0  0  0  0  0  0  0  0
   10.6297  -16.6357   23.3654 C   0  0  0  0  0  0  0  0  0  0  0  0
   10.9614  -16.3692   24.7682 C   0  0  0  0  0  0  0  0  0  0  0  0
   10.5131  -15.3390   25.3244 O   0  0  0  0  0  0  0  0  0  0  0  0
   11.7644  -17.2201   25.5275 O   0  0  0  0  0  0  0  0  0  0  0  0
  2  1  1  1
  2  3  1  0
  3  4  1  0
  4  5  2  0
  6  7  2  0
  6  2  1  0
  8  4  1  0
  9 10  1  0
 11 10  1  1
 11 12  1  0
 12  6  1  0
 13 11  1  0
 13 15  1  0
 14 13  2  0
 16 15  1  0
 16 17  1  0
 17 19  1  0
 18 17  2  0
M  END
$$$$
