DMF.pdb
     RDKit          3D

 28 28  0  0  1  0  0  0  0  0999 V2000
   26.4074  -16.5821  -18.9926 N   0  0  0  0  0  0  0  0  0  0  0  0
   25.1324  -17.2316  -19.2084 C   0  0  1  0  0  0  0  0  0  0  0  0
   24.6491  -16.9642  -20.6143 C   0  0  0  0  0  0  0  0  0  0  0  0
   24.4420  -15.5092  -20.8313 C   0  0  0  0  0  0  0  0  0  0  0  0
   23.2749  -15.0715  -20.9660 O   0  0  0  0  0  0  0  0  0  0  0  0
   25.2759  -18.6722  -18.9280 C   0  0  0  0  0  0  0  0  0  0  0  0
   24.2812  -19.4601  -19.0897 O   0  0  0  0  0  0  0  0  0  0  0  0
   25.4771  -14.6042  -20.8931 O   0  0  0  0  0  0  0  0  0  0  0  0
   31.9668  -20.8285  -18.8291 C   0  0  0  0  0  0  0  0  0  0  0  0
   30.3864  -21.4416  -19.4120 S   0  0  0  0  0  0  0  0  0  0  0  0
   28.9822  -20.6902  -18.5239 C   0  0  0  0  0  0  0  0  0  0  0  0
   27.6855  -21.3232  -18.9104 C   0  0  0  0  0  0  0  0  0  0  0  0
   26.5424  -20.7275  -18.1397 C   0  0  2  0  0  0  0  0  0  0  0  0
   26.4736  -19.2735  -18.4767 N   0  0  0  0  0  0  0  0  0  0  0  0
   26.5800  -20.8878  -16.6946 C   0  0  0  0  0  0  0  0  0  0  0  0
   27.1862  -19.9874  -16.0082 O   0  0  0  0  0  0  0  0  0  0  0  0
   26.0013  -21.9483  -15.9782 N   0  0  0  0  0  0  0  0  0  0  0  0
   25.8814  -21.9478  -14.5204 C   0  0  1  0  0  0  0  0  0  0  0  0
   25.3143  -20.6369  -14.0428 C   0  0  0  0  0  0  0  0  0  0  0  0
   25.0437  -20.6528  -12.5912 C   0  0  0  0  0  0  0  0  0  0  0  0
   23.7879  -20.3624  -12.0602 C   0  0  0  0  0  0  0  0  0  0  0  0
   23.5707  -20.3860  -10.7047 C   0  0  0  0  0  0  0  0  0  0  0  0
   24.5876  -20.6981   -9.8135 C   0  0  0  0  0  0  0  0  0  0  0  0
   25.8428  -20.9904  -10.3088 C   0  0  0  0  0  0  0  0  0  0  0  0
   26.0416  -20.9622  -11.6646 C   0  0  0  0  0  0  0  0  0  0  0  0
   25.1440  -23.1133  -14.0359 C   0  0  0  0  0  0  0  0  0  0  0  0
   23.9196  -23.5199  -14.5625 O   0  0  0  0  0  0  0  0  0  0  0  0
   25.6226  -23.7960  -13.0972 O   0  0  0  0  0  0  0  0  0  0  0  0
  2  1  1  6
  2  3  1  0
  3  4  1  0
  4  5  2  0
  4  8  1  0
  6 14  1  0
  6  2  1  0
  7  6  2  0
  9 10  1  0
 10 11  1  0
 12 11  1  0
 13 12  1  6
 13 14  1  0
 15 17  1  0
 15 13  1  0
 16 15  2  0
 18 17  1  0
 18 26  1  0
 19 20  1  0
 18 19  1  6
 20 25  2  0
 21 20  1  0
 21 22  2  0
 22 23  1  0
 23 24  2  0
 25 24  1  0
 26 27  1  0
 28 26  2  0
M  END
$$$$
