DMF.pdb
     RDKit          3D

 28 28  0  0  1  0  0  0  0  0999 V2000
   35.9074  -32.5566  -18.3981 N   0  0  0  0  0  0  0  0  0  0  0  0
   34.5493  -33.0209  -18.5823 C   0  0  1  0  0  0  0  0  0  0  0  0
   34.3197  -34.2766  -17.7748 C   0  0  0  0  0  0  0  0  0  0  0  0
   35.1623  -35.3897  -18.2826 C   0  0  0  0  0  0  0  0  0  0  0  0
   35.9765  -35.1661  -19.2094 O   0  0  0  0  0  0  0  0  0  0  0  0
   33.6193  -31.9376  -18.2133 C   0  0  0  0  0  0  0  0  0  0  0  0
   34.0431  -30.9214  -17.5622 O   0  0  0  0  0  0  0  0  0  0  0  0
   35.0957  -36.6705  -17.7831 O   0  0  0  0  0  0  0  0  0  0  0  0
   31.8475  -25.3706  -19.4157 C   0  0  0  0  0  0  0  0  0  0  0  0
   32.1148  -27.0346  -20.0262 S   0  0  0  0  0  0  0  0  0  0  0  0
   31.6666  -28.3036  -18.7959 C   0  0  0  0  0  0  0  0  0  0  0  0
   31.8562  -29.6836  -19.3358 C   0  0  0  0  0  0  0  0  0  0  0  0
   31.3958  -30.7179  -18.3491 C   0  0  2  0  0  0  0  0  0  0  0  0
   32.2423  -31.9349  -18.5354 N   0  0  0  0  0  0  0  0  0  0  0  0
   29.9915  -31.0920  -18.4079 C   0  0  0  0  0  0  0  0  0  0  0  0
   29.6799  -32.1443  -19.0748 O   0  0  0  0  0  0  0  0  0  0  0  0
   28.9382  -30.3989  -17.7890 N   0  0  0  0  0  0  0  0  0  0  0  0
   27.5388  -30.8047  -17.9176 C   0  0  1  0  0  0  0  0  0  0  0  0
   27.3560  -32.2157  -17.4239 C   0  0  0  0  0  0  0  0  0  0  0  0
   25.9605  -32.6738  -17.5766 C   0  0  0  0  0  0  0  0  0  0  0  0
   25.0645  -32.7143  -16.5095 C   0  0  0  0  0  0  0  0  0  0  0  0
   23.7733  -33.1462  -16.6864 C   0  0  0  0  0  0  0  0  0  0  0  0
   23.3109  -33.5577  -17.9284 C   0  0  0  0  0  0  0  0  0  0  0  0
   24.1746  -33.5291  -19.0051 C   0  0  0  0  0  0  0  0  0  0  0  0
   25.4600  -33.0950  -18.8103 C   0  0  0  0  0  0  0  0  0  0  0  0
   26.6350  -29.8445  -17.2867 C   0  0  0  0  0  0  0  0  0  0  0  0
   25.3584  -29.5615  -17.7682 O   0  0  0  0  0  0  0  0  0  0  0  0
   27.0107  -29.2330  -16.2565 O   0  0  0  0  0  0  0  0  0  0  0  0
  2  1  1  1
  2  3  1  0
  3  4  1  0
  4  5  2  0
  4  8  1  0
  6 14  1  0
  6  2  1  0
  7  6  2  0
  9 10  1  0
 10 11  1  0
 12 11  1  0
 13 12  1  6
 13 14  1  0
 15 17  1  0
 15 13  1  0
 16 15  2  0
 18 17  1  0
 18 26  1  0
 19 20  1  0
 18 19  1  1
 20 25  2  0
 21 20  1  0
 21 22  2  0
 22 23  1  0
 23 24  2  0
 25 24  1  0
 26 27  1  0
 28 26  2  0
M  END
$$$$
