DMF.pdb
     RDKit          3D

 28 28  0  0  1  0  0  0  0  0999 V2000
   25.9813  -33.5685   -9.7984 N   0  0  0  0  0  0  0  0  0  0  0  0
   25.8410  -33.4794   -8.3609 C   0  0  1  0  0  0  0  0  0  0  0  0
   24.6679  -34.3146   -7.9047 C   0  0  0  0  0  0  0  0  0  0  0  0
   23.4819  -33.4583   -7.6458 C   0  0  0  0  0  0  0  0  0  0  0  0
   23.1928  -32.5517   -8.4621 O   0  0  0  0  0  0  0  0  0  0  0  0
   27.1068  -33.8965   -7.7299 C   0  0  0  0  0  0  0  0  0  0  0  0
   27.7825  -34.8638   -8.2241 O   0  0  0  0  0  0  0  0  0  0  0  0
   22.6729  -33.6094   -6.5426 O   0  0  0  0  0  0  0  0  0  0  0  0
   34.3224  -32.9396   -5.9314 C   0  0  0  0  0  0  0  0  0  0  0  0
   32.7410  -32.4291   -6.6036 S   0  0  0  0  0  0  0  0  0  0  0  0
   31.3468  -33.3399   -5.8608 C   0  0  0  0  0  0  0  0  0  0  0  0
   30.0376  -32.9004   -6.4306 C   0  0  0  0  0  0  0  0  0  0  0  0
   28.9180  -33.7803   -5.9534 C   0  0  2  0  0  0  0  0  0  0  0  0
   27.6528  -33.2871   -6.5765 N   0  0  0  0  0  0  0  0  0  0  0  0
   28.7403  -33.8818   -4.5134 C   0  0  0  0  0  0  0  0  0  0  0  0
   27.8518  -33.1334   -3.9658 O   0  0  0  0  0  0  0  0  0  0  0  0
   29.4589  -34.7383   -3.6632 N   0  0  0  0  0  0  0  0  0  0  0  0
   28.8289  -35.4878   -2.5765 C   0  0  1  0  0  0  0  0  0  0  0  0
   27.6329  -36.2461   -3.0890 C   0  0  0  0  0  0  0  0  0  0  0  0
   26.9818  -37.0305   -2.0206 C   0  0  0  0  0  0  0  0  0  0  0  0
   26.9876  -38.4245   -2.0053 C   0  0  0  0  0  0  0  0  0  0  0  0
   26.3720  -39.1230   -0.9964 C   0  0  0  0  0  0  0  0  0  0  0  0
   25.7225  -38.4726    0.0433 C   0  0  0  0  0  0  0  0  0  0  0  0
   25.6994  -37.0922    0.0562 C   0  0  0  0  0  0  0  0  0  0  0  0
   26.3191  -36.4111   -0.9589 C   0  0  0  0  0  0  0  0  0  0  0  0
   29.7920  -36.3281   -1.8671 C   0  0  0  0  0  0  0  0  0  0  0  0
   30.8977  -36.9135   -2.4804 O   0  0  0  0  0  0  0  0  0  0  0  0
   29.6313  -36.5452   -0.6409 O   0  0  0  0  0  0  0  0  0  0  0  0
  2  1  1  6
  2  3  1  0
  3  4  1  0
  4  5  2  0
  4  8  1  0
  6 14  1  0
  6  2  1  0
  7  6  2  0
  9 10  1  0
 10 11  1  0
 12 11  1  0
 13 12  1  1
 13 14  1  0
 15 17  1  0
 15 13  1  0
 16 15  2  0
 18 17  1  0
 18 26  1  0
 19 20  1  0
 18 19  1  6
 20 25  2  0
 21 20  1  0
 21 22  2  0
 22 23  1  0
 23 24  2  0
 25 24  1  0
 26 27  1  0
 28 26  2  0
M  END
$$$$
