DMF.pdb
     RDKit          3D

 28 28  0  0  1  0  0  0  0  0999 V2000
   27.6575  -20.6790  -16.5565 N   0  0  0  0  0  0  0  0  0  0  0  0
   26.5556  -19.8965  -16.0391 C   0  0  1  0  0  0  0  0  0  0  0  0
   25.7307  -19.3501  -17.1804 C   0  0  0  0  0  0  0  0  0  0  0  0
   26.5520  -18.4653  -18.0463 C   0  0  0  0  0  0  0  0  0  0  0  0
   26.9069  -18.8751  -19.1768 O   0  0  0  0  0  0  0  0  0  0  0  0
   25.7613  -20.7358  -15.1231 C   0  0  0  0  0  0  0  0  0  0  0  0
   24.7482  -21.3827  -15.5607 O   0  0  0  0  0  0  0  0  0  0  0  0
   26.9492  -17.2029  -17.6683 O   0  0  0  0  0  0  0  0  0  0  0  0
   25.2714  -20.3119   -8.1787 C   0  0  0  0  0  0  0  0  0  0  0  0
   26.6957  -20.7453   -9.1770 S   0  0  0  0  0  0  0  0  0  0  0  0
   26.3635  -20.5866  -10.9629 C   0  0  0  0  0  0  0  0  0  0  0  0
   25.8384  -21.8609  -11.5394 C   0  0  0  0  0  0  0  0  0  0  0  0
   25.1112  -21.6110  -12.8294 C   0  0  2  0  0  0  0  0  0  0  0  0
   26.0430  -20.8868  -13.7456 N   0  0  0  0  0  0  0  0  0  0  0  0
   23.8577  -20.8791  -12.7371 C   0  0  0  0  0  0  0  0  0  0  0  0
   23.8983  -19.6772  -12.2865 O   0  0  0  0  0  0  0  0  0  0  0  0
   22.5966  -21.3754  -13.1060 N   0  0  0  0  0  0  0  0  0  0  0  0
   21.3605  -20.6157  -12.9198 C   0  0  1  0  0  0  0  0  0  0  0  0
   21.4744  -19.2634  -13.5729 C   0  0  0  0  0  0  0  0  0  0  0  0
   21.4250  -19.3596  -15.0456 C   0  0  0  0  0  0  0  0  0  0  0  0
   20.2479  -19.6371  -15.7389 C   0  0  0  0  0  0  0  0  0  0  0  0
   20.2372  -19.7199  -17.1093 C   0  0  0  0  0  0  0  0  0  0  0  0
   21.3921  -19.5316  -17.8553 C   0  0  0  0  0  0  0  0  0  0  0  0
   22.5741  -19.2553  -17.1974 C   0  0  0  0  0  0  0  0  0  0  0  0
   22.5663  -19.1763  -15.8291 C   0  0  0  0  0  0  0  0  0  0  0  0
   20.1872  -21.3741  -13.3503 C   0  0  0  0  0  0  0  0  0  0  0  0
   20.2627  -22.6287  -13.9519 O   0  0  0  0  0  0  0  0  0  0  0  0
   19.0434  -20.8860  -13.1773 O   0  0  0  0  0  0  0  0  0  0  0  0
  2  1  1  6
  2  3  1  0
  3  4  1  0
  4  5  2  0
  4  8  1  0
  6 14  1  0
  6  2  1  0
  7  6  2  0
  9 10  1  0
 10 11  1  0
 12 11  1  0
 13 12  1  1
 13 14  1  0
 15 17  1  0
 15 13  1  0
 16 15  2  0
 18 17  1  0
 18 26  1  0
 19 20  1  0
 18 19  1  6
 20 25  2  0
 21 20  1  0
 21 22  2  0
 22 23  1  0
 23 24  2  0
 25 24  1  0
 26 27  1  0
 28 26  2  0
M  END
$$$$
