DMF.pdb
     RDKit          3D

 28 28  0  0  1  0  0  0  0  0999 V2000
   25.8930  -19.6883  -15.3595 N   0  0  0  0  0  0  0  0  0  0  0  0
   26.7873  -20.8246  -15.4169 C   0  0  1  0  0  0  0  0  0  0  0  0
   28.0604  -20.4429  -16.1347 C   0  0  0  0  0  0  0  0  0  0  0  0
   28.1705  -18.9668  -16.2610 C   0  0  0  0  0  0  0  0  0  0  0  0
   28.6719  -18.3086  -15.3190 O   0  0  0  0  0  0  0  0  0  0  0  0
   27.0380  -21.3059  -14.0458 C   0  0  0  0  0  0  0  0  0  0  0  0
   27.5222  -22.4742  -13.8538 O   0  0  0  0  0  0  0  0  0  0  0  0
   27.7455  -18.2742  -17.3719 O   0  0  0  0  0  0  0  0  0  0  0  0
   29.4058  -20.6744   -7.9086 C   0  0  0  0  0  0  0  0  0  0  0  0
   27.6529  -20.3151   -7.8000 S   0  0  0  0  0  0  0  0  0  0  0  0
   26.7049  -21.0760   -9.1591 C   0  0  0  0  0  0  0  0  0  0  0  0
   27.1557  -20.5739  -10.4919 C   0  0  0  0  0  0  0  0  0  0  0  0
   26.3568  -21.1947  -11.6017 C   0  0  2  0  0  0  0  0  0  0  0  0
   26.7743  -20.5473  -12.8819 N   0  0  0  0  0  0  0  0  0  0  0  0
   24.9093  -21.1283  -11.4758 C   0  0  0  0  0  0  0  0  0  0  0  0
   24.4158  -21.0162  -10.2954 O   0  0  0  0  0  0  0  0  0  0  0  0
   23.9969  -21.1712  -12.5428 N   0  0  0  0  0  0  0  0  0  0  0  0
   22.5570  -20.9872  -12.3622 C   0  0  1  0  0  0  0  0  0  0  0  0
   22.2824  -19.7033  -11.6243 C   0  0  0  0  0  0  0  0  0  0  0  0
   20.8344  -19.4547  -11.4764 C   0  0  0  0  0  0  0  0  0  0  0  0
   20.1085  -19.8926  -10.3698 C   0  0  0  0  0  0  0  0  0  0  0  0
   18.7623  -19.6445  -10.2641 C   0  0  0  0  0  0  0  0  0  0  0  0
   18.0738  -18.9515  -11.2497 C   0  0  0  0  0  0  0  0  0  0  0  0
   18.7652  -18.5047  -12.3581 C   0  0  0  0  0  0  0  0  0  0  0  0
   20.1086  -18.7612  -12.4472 C   0  0  0  0  0  0  0  0  0  0  0  0
   21.8326  -21.0992  -13.6269 C   0  0  0  0  0  0  0  0  0  0  0  0
   20.5344  -21.5955  -13.7263 O   0  0  0  0  0  0  0  0  0  0  0  0
   22.3928  -20.7343  -14.6897 O   0  0  0  0  0  0  0  0  0  0  0  0
  2  1  1  1
  2  3  1  0
  3  4  1  0
  4  5  2  0
  4  8  1  0
  6 14  1  0
  6  2  1  0
  7  6  2  0
  9 10  1  0
 10 11  1  0
 12 11  1  0
 13 12  1  1
 13 14  1  0
 15 17  1  0
 15 13  1  0
 16 15  2  0
 18 17  1  0
 18 26  1  0
 19 20  1  0
 18 19  1  6
 20 25  2  0
 21 20  1  0
 21 22  2  0
 22 23  1  0
 23 24  2  0
 25 24  1  0
 26 27  1  0
 28 26  2  0
M  END
$$$$
