DMF.pdb
     RDKit          3D

 28 28  0  0  1  0  0  0  0  0999 V2000
   12.8119   -9.9531  -13.0676 N   0  0  0  0  0  0  0  0  0  0  0  0
   14.0610  -10.0414  -12.3422 C   0  0  1  0  0  0  0  0  0  0  0  0
   15.0743  -10.8146  -13.1526 C   0  0  0  0  0  0  0  0  0  0  0  0
   14.7709  -12.2687  -13.1246 C   0  0  0  0  0  0  0  0  0  0  0  0
   13.8056  -12.6784  -12.4373 O   0  0  0  0  0  0  0  0  0  0  0  0
   14.5228   -8.6791  -12.0174 C   0  0  0  0  0  0  0  0  0  0  0  0
   14.4055   -7.7392  -12.8771 O   0  0  0  0  0  0  0  0  0  0  0  0
   15.5029  -13.2023  -13.8223 O   0  0  0  0  0  0  0  0  0  0  0  0
   15.4649   -2.8800   -6.8626 C   0  0  0  0  0  0  0  0  0  0  0  0
   14.7656   -4.4477   -7.3788 S   0  0  0  0  0  0  0  0  0  0  0  0
   15.5823   -5.1134   -8.8670 C   0  0  0  0  0  0  0  0  0  0  0  0
   15.0547   -6.4643   -9.2255 C   0  0  0  0  0  0  0  0  0  0  0  0
   15.6231   -6.9370  -10.5327 C   0  0  2  0  0  0  0  0  0  0  0  0
   15.1079   -8.3171  -10.7819 N   0  0  0  0  0  0  0  0  0  0  0  0
   17.0728   -6.9335  -10.6498 C   0  0  0  0  0  0  0  0  0  0  0  0
   17.7423   -7.6443   -9.8157 O   0  0  0  0  0  0  0  0  0  0  0  0
   17.8101   -6.2179  -11.6076 N   0  0  0  0  0  0  0  0  0  0  0  0
   19.1433   -6.6270  -12.0492 C   0  0  1  0  0  0  0  0  0  0  0  0
   19.1638   -8.1020  -12.3529 C   0  0  0  0  0  0  0  0  0  0  0  0
   20.5011   -8.5541  -12.7864 C   0  0  0  0  0  0  0  0  0  0  0  0
   21.4882   -8.9462  -11.8835 C   0  0  0  0  0  0  0  0  0  0  0  0
   22.7218   -9.3611  -12.3208 C   0  0  0  0  0  0  0  0  0  0  0  0
   23.0337   -9.4063  -13.6723 C   0  0  0  0  0  0  0  0  0  0  0  0
   22.0769   -9.0241  -14.5912 C   0  0  0  0  0  0  0  0  0  0  0  0
   20.8509   -8.6127  -14.1370 C   0  0  0  0  0  0  0  0  0  0  0  0
   19.6282   -5.7980  -13.1512 C   0  0  0  0  0  0  0  0  0  0  0  0
   20.9562   -5.3974  -13.2835 O   0  0  0  0  0  0  0  0  0  0  0  0
   18.8209   -5.4171  -14.0343 O   0  0  0  0  0  0  0  0  0  0  0  0
  2  1  1  6
  2  3  1  0
  3  4  1  0
  4  5  2  0
  4  8  1  0
  6 14  1  0
  6  2  1  0
  7  6  2  0
  9 10  1  0
 10 11  1  0
 12 11  1  0
 13 12  1  1
 13 14  1  0
 15 17  1  0
 15 13  1  0
 16 15  2  0
 18 17  1  0
 18 26  1  0
 19 20  1  0
 18 19  1  6
 20 25  2  0
 21 20  1  0
 21 22  2  0
 22 23  1  0
 23 24  2  0
 25 24  1  0
 26 27  1  0
 28 26  2  0
M  END
$$$$
