DMF.pdb
     RDKit          3D

 28 28  0  0  1  0  0  0  0  0999 V2000
   24.4175   -8.8501  -19.1906 N   0  0  0  0  0  0  0  0  0  0  0  0
   22.9965   -8.8219  -19.4626 C   0  0  1  0  0  0  0  0  0  0  0  0
   22.5236  -10.1952  -19.8775 C   0  0  0  0  0  0  0  0  0  0  0  0
   22.9133  -10.4833  -21.2819 C   0  0  0  0  0  0  0  0  0  0  0  0
   23.4645   -9.5842  -21.9598 O   0  0  0  0  0  0  0  0  0  0  0  0
   22.2906   -8.3216  -18.2684 C   0  0  0  0  0  0  0  0  0  0  0  0
   21.0485   -8.0233  -18.3346 O   0  0  0  0  0  0  0  0  0  0  0  0
   22.6985  -11.7011  -21.8861 O   0  0  0  0  0  0  0  0  0  0  0  0
   22.3712  -12.4844  -13.2525 C   0  0  0  0  0  0  0  0  0  0  0  0
   22.7195  -10.7288  -13.1530 S   0  0  0  0  0  0  0  0  0  0  0  0
   22.2040   -9.8346  -14.6561 C   0  0  0  0  0  0  0  0  0  0  0  0
   22.6297   -8.4031  -14.6171 C   0  0  0  0  0  0  0  0  0  0  0  0
   22.1314   -7.6581  -15.8221 C   0  0  2  0  0  0  0  0  0  0  0  0
   22.9038   -8.1388  -17.0073 N   0  0  0  0  0  0  0  0  0  0  0  0
   22.1945   -6.2064  -15.7601 C   0  0  0  0  0  0  0  0  0  0  0  0
   23.2075   -5.6279  -16.2972 O   0  0  0  0  0  0  0  0  0  0  0  0
   21.2327   -5.3749  -15.1631 N   0  0  0  0  0  0  0  0  0  0  0  0
   21.2627   -3.9171  -15.2805 C   0  0  1  0  0  0  0  0  0  0  0  0
   21.3435   -3.5107  -16.7284 C   0  0  0  0  0  0  0  0  0  0  0  0
   21.3440   -2.0425  -16.8866 C   0  0  0  0  0  0  0  0  0  0  0  0
   20.1848   -1.3183  -17.1610 C   0  0  0  0  0  0  0  0  0  0  0  0
   20.2209    0.0468  -17.3025 C   0  0  0  0  0  0  0  0  0  0  0  0
   21.4068    0.7568  -17.1787 C   0  0  0  0  0  0  0  0  0  0  0  0
   22.5720    0.0678  -16.9071 C   0  0  0  0  0  0  0  0  0  0  0  0
   22.5175   -1.2947  -16.7690 C   0  0  0  0  0  0  0  0  0  0  0  0
   20.1552   -3.2916  -14.5601 C   0  0  0  0  0  0  0  0  0  0  0  0
   20.2696   -2.0826  -13.8768 O   0  0  0  0  0  0  0  0  0  0  0  0
   19.0348   -3.8582  -14.5449 O   0  0  0  0  0  0  0  0  0  0  0  0
  2  1  1  1
  2  3  1  0
  3  4  1  0
  4  5  2  0
  4  8  1  0
  6 14  1  0
  6  2  1  0
  7  6  2  0
  9 10  1  0
 10 11  1  0
 12 11  1  0
 13 12  1  1
 13 14  1  0
 15 17  1  0
 15 13  1  0
 16 15  2  0
 18 17  1  0
 18 26  1  0
 19 20  1  0
 18 19  1  6
 20 25  2  0
 21 20  1  0
 21 22  2  0
 22 23  1  0
 23 24  2  0
 25 24  1  0
 26 27  1  0
 28 26  2  0
M  END
$$$$
