DMF.pdb
     RDKit          3D

 28 28  0  0  1  0  0  0  0  0999 V2000
   25.7535  -19.0194  -18.7369 N   0  0  0  0  0  0  0  0  0  0  0  0
   26.5726  -19.5887  -17.6886 C   0  0  1  0  0  0  0  0  0  0  0  0
   27.3924  -18.5049  -17.0289 C   0  0  0  0  0  0  0  0  0  0  0  0
   28.7818  -18.5031  -17.5548 C   0  0  0  0  0  0  0  0  0  0  0  0
   29.1029  -19.3353  -18.4358 O   0  0  0  0  0  0  0  0  0  0  0  0
   25.7015  -20.2955  -16.7314 C   0  0  0  0  0  0  0  0  0  0  0  0
   24.6517  -19.7241  -16.2756 O   0  0  0  0  0  0  0  0  0  0  0  0
   29.7481  -17.6245  -17.1204 O   0  0  0  0  0  0  0  0  0  0  0  0
   24.5025  -26.5703  -16.7135 C   0  0  0  0  0  0  0  0  0  0  0  0
   23.9880  -26.2246  -15.0315 S   0  0  0  0  0  0  0  0  0  0  0  0
   24.1086  -24.4520  -14.6212 C   0  0  0  0  0  0  0  0  0  0  0  0
   24.9879  -23.7236  -15.5845 C   0  0  0  0  0  0  0  0  0  0  0  0
   25.0499  -22.2590  -15.2584 C   0  0  2  0  0  0  0  0  0  0  0  0
   25.9460  -21.6061  -16.2600 N   0  0  0  0  0  0  0  0  0  0  0  0
   25.4895  -21.9104  -13.9165 C   0  0  0  0  0  0  0  0  0  0  0  0
   26.7296  -22.0812  -13.6297 O   0  0  0  0  0  0  0  0  0  0  0  0
   24.6692  -21.3940  -12.9000 N   0  0  0  0  0  0  0  0  0  0  0  0
   25.1003  -21.2985  -11.5054 C   0  0  1  0  0  0  0  0  0  0  0  0
   26.3320  -20.4388  -11.3965 C   0  0  0  0  0  0  0  0  0  0  0  0
   26.7483  -20.2524   -9.9920 C   0  0  0  0  0  0  0  0  0  0  0  0
   27.6469  -21.1085   -9.3573 C   0  0  0  0  0  0  0  0  0  0  0  0
   28.0125  -20.9064   -8.0495 C   0  0  0  0  0  0  0  0  0  0  0  0
   27.5047  -19.8471   -7.3108 C   0  0  0  0  0  0  0  0  0  0  0  0
   26.6124  -18.9816   -7.9116 C   0  0  0  0  0  0  0  0  0  0  0  0
   26.2586  -19.1984   -9.2179 C   0  0  0  0  0  0  0  0  0  0  0  0
   24.0115  -20.8712  -10.6287 C   0  0  0  0  0  0  0  0  0  0  0  0
   22.9438  -20.0855  -11.0581 O   0  0  0  0  0  0  0  0  0  0  0  0
   24.0213  -21.2203   -9.4226 O   0  0  0  0  0  0  0  0  0  0  0  0
  2  1  1  6
  2  3  1  0
  3  4  1  0
  4  5  2  0
  4  8  1  0
  6 14  1  0
  6  2  1  0
  7  6  2  0
  9 10  1  0
 10 11  1  0
 12 11  1  0
 13 12  1  1
 13 14  1  0
 15 17  1  0
 15 13  1  0
 16 15  2  0
 18 17  1  0
 18 26  1  0
 19 20  1  0
 18 19  1  6
 20 25  2  0
 21 20  1  0
 21 22  2  0
 22 23  1  0
 23 24  2  0
 25 24  1  0
 26 27  1  0
 28 26  2  0
M  END
$$$$
