DMF.pdb
     RDKit          3D

 28 28  0  0  1  0  0  0  0  0999 V2000
   26.5589  -26.3194  -17.1163 N   0  0  0  0  0  0  0  0  0  0  0  0
   25.6163  -25.2242  -17.1945 C   0  0  1  0  0  0  0  0  0  0  0  0
   24.2032  -25.7565  -17.1559 C   0  0  0  0  0  0  0  0  0  0  0  0
   23.8505  -26.4058  -18.4447 C   0  0  0  0  0  0  0  0  0  0  0  0
   23.6960  -25.6942  -19.4653 O   0  0  0  0  0  0  0  0  0  0  0  0
   25.8905  -24.2778  -16.0974 C   0  0  0  0  0  0  0  0  0  0  0  0
   26.3794  -24.6992  -14.9930 O   0  0  0  0  0  0  0  0  0  0  0  0
   23.6822  -27.7651  -18.5796 O   0  0  0  0  0  0  0  0  0  0  0  0
   28.6430  -18.5601  -16.7459 C   0  0  0  0  0  0  0  0  0  0  0  0
   27.6035  -18.1876  -15.3338 S   0  0  0  0  0  0  0  0  0  0  0  0
   26.8449  -19.6838  -14.6190 C   0  0  0  0  0  0  0  0  0  0  0  0
   26.6388  -20.7427  -15.6524 C   0  0  0  0  0  0  0  0  0  0  0  0
   26.0031  -21.9649  -15.0544 C   0  0  2  0  0  0  0  0  0  0  0  0
   25.6453  -22.8872  -16.1741 N   0  0  0  0  0  0  0  0  0  0  0  0
   24.8347  -21.7454  -14.2165 C   0  0  0  0  0  0  0  0  0  0  0  0
   23.7164  -21.5049  -14.8002 O   0  0  0  0  0  0  0  0  0  0  0  0
   24.8225  -21.7789  -12.8124 N   0  0  0  0  0  0  0  0  0  0  0  0
   23.6117  -21.5482  -12.0247 C   0  0  1  0  0  0  0  0  0  0  0  0
   23.8059  -22.0349  -10.6127 C   0  0  0  0  0  0  0  0  0  0  0  0
   24.8462  -21.2623   -9.9045 C   0  0  0  0  0  0  0  0  0  0  0  0
   26.2081  -21.4989  -10.0853 C   0  0  0  0  0  0  0  0  0  0  0  0
   27.1494  -20.7619   -9.4103 C   0  0  0  0  0  0  0  0  0  0  0  0
   26.7846  -19.7570   -8.5255 C   0  0  0  0  0  0  0  0  0  0  0  0
   25.4433  -19.4987   -8.3251 C   0  0  0  0  0  0  0  0  0  0  0  0
   24.5173  -20.2442   -9.0072 C   0  0  0  0  0  0  0  0  0  0  0  0
   23.1676  -20.1580  -12.1063 C   0  0  0  0  0  0  0  0  0  0  0  0
   21.8794  -19.7431  -11.7745 O   0  0  0  0  0  0  0  0  0  0  0  0
   23.9746  -19.2774  -12.4936 O   0  0  0  0  0  0  0  0  0  0  0  0
  2  1  1  1
  2  3  1  0
  3  4  1  0
  4  5  2  0
  4  8  1  0
  6 14  1  0
  6  2  1  0
  7  6  2  0
  9 10  1  0
 10 11  1  0
 12 11  1  0
 13 12  1  6
 13 14  1  0
 15 17  1  0
 15 13  1  0
 16 15  2  0
 18 17  1  0
 18 26  1  0
 19 20  1  0
 18 19  1  1
 20 25  2  0
 21 20  1  0
 21 22  2  0
 22 23  1  0
 23 24  2  0
 25 24  1  0
 26 27  1  0
 28 26  2  0
M  END
$$$$
