DMF.pdb
     RDKit          3D

 28 28  0  0  1  0  0  0  0  0999 V2000
   20.2107  -15.4413  -17.7588 N   0  0  0  0  0  0  0  0  0  0  0  0
   20.1419  -14.0295  -18.0690 C   0  0  1  0  0  0  0  0  0  0  0  0
   18.7483  -13.5108  -17.8040 C   0  0  0  0  0  0  0  0  0  0  0  0
   17.7522  -14.2286  -18.6405 C   0  0  0  0  0  0  0  0  0  0  0  0
   17.9485  -14.3274  -19.8748 O   0  0  0  0  0  0  0  0  0  0  0  0
   21.1658  -13.3165  -17.2830 C   0  0  0  0  0  0  0  0  0  0  0  0
   21.2817  -13.5379  -16.0284 O   0  0  0  0  0  0  0  0  0  0  0  0
   16.6101  -14.7984  -18.1254 O   0  0  0  0  0  0  0  0  0  0  0  0
   27.8032  -11.5743  -14.9356 C   0  0  0  0  0  0  0  0  0  0  0  0
   26.6989  -12.3127  -16.1392 S   0  0  0  0  0  0  0  0  0  0  0  0
   25.4485  -11.1328  -16.7469 C   0  0  0  0  0  0  0  0  0  0  0  0
   24.4051  -11.8138  -17.5710 C   0  0  0  0  0  0  0  0  0  0  0  0
   23.0396  -11.6305  -16.9733 C   0  0  2  0  0  0  0  0  0  0  0  0
   22.0638  -12.3705  -17.8292 N   0  0  0  0  0  0  0  0  0  0  0  0
   22.5863  -10.2598  -16.7974 C   0  0  0  0  0  0  0  0  0  0  0  0
   22.3258   -9.5755  -17.8525 O   0  0  0  0  0  0  0  0  0  0  0  0
   22.4024   -9.6156  -15.5629 N   0  0  0  0  0  0  0  0  0  0  0  0
   21.8310   -8.2741  -15.4463 C   0  0  1  0  0  0  0  0  0  0  0  0
   20.4896   -8.2159  -16.1285 C   0  0  0  0  0  0  0  0  0  0  0  0
   19.4782   -9.0252  -15.4194 C   0  0  0  0  0  0  0  0  0  0  0  0
   18.9729   -8.6664  -14.1708 C   0  0  0  0  0  0  0  0  0  0  0  0
   18.0329   -9.4423  -13.5389 C   0  0  0  0  0  0  0  0  0  0  0  0
   17.5507  -10.6091  -14.1151 C   0  0  0  0  0  0  0  0  0  0  0  0
   18.0318  -10.9912  -15.3514 C   0  0  0  0  0  0  0  0  0  0  0  0
   18.9699  -10.2047  -15.9678 C   0  0  0  0  0  0  0  0  0  0  0  0
   21.7997   -7.8162  -14.0584 C   0  0  0  0  0  0  0  0  0  0  0  0
   22.1720   -8.6142  -12.9784 O   0  0  0  0  0  0  0  0  0  0  0  0
   21.4206   -6.6460  -13.8064 O   0  0  0  0  0  0  0  0  0  0  0  0
  2  1  1  1
  2  3  1  0
  3  4  1  0
  4  5  2  0
  4  8  1  0
  6 14  1  0
  6  2  1  0
  7  6  2  0
  9 10  1  0
 10 11  1  0
 12 11  1  0
 13 12  1  6
 13 14  1  0
 15 17  1  0
 15 13  1  0
 16 15  2  0
 18 17  1  0
 18 26  1  0
 19 20  1  0
 18 19  1  1
 20 25  2  0
 21 20  1  0
 21 22  2  0
 22 23  1  0
 23 24  2  0
 25 24  1  0
 26 27  1  0
 28 26  2  0
M  END
$$$$
