FWY.pdb
     RDKit          3D

 38 41  0  0  1  0  0  0  0  0999 V2000
   22.2247  -14.0349  -17.4277 N   0  0  0  0  0  0  0  0  0  0  0  0
   21.6347  -12.7167  -17.6764 C   0  0  1  0  0  0  0  0  0  0  0  0
   20.2331  -12.7717  -17.1284 C   0  0  0  0  0  0  0  0  0  0  0  0
   19.3478  -13.7152  -17.8035 C   0  0  0  0  0  0  0  0  0  0  0  0
   18.8349  -13.4402  -19.0409 C   0  0  0  0  0  0  0  0  0  0  0  0
   17.9896  -14.3315  -19.7038 C   0  0  0  0  0  0  0  0  0  0  0  0
   17.6563  -15.5331  -19.0947 C   0  0  0  0  0  0  0  0  0  0  0  0
   18.1674  -15.8239  -17.8444 C   0  0  0  0  0  0  0  0  0  0  0  0
   19.0111  -14.9109  -17.2067 C   0  0  0  0  0  0  0  0  0  0  0  0
   22.4738  -11.6867  -17.0190 C   0  0  0  0  0  0  0  0  0  0  0  0
   23.1018  -11.9287  -15.9640 O   0  0  0  0  0  0  0  0  0  0  0  0
   22.5859  -10.3720  -17.5847 N   0  0  0  0  0  0  0  0  0  0  0  0
   23.4854   -9.3616  -17.0511 C   0  0  1  0  0  0  0  0  0  0  0  0
   24.7396   -9.3778  -17.8958 C   0  0  0  0  0  0  0  0  0  0  0  0
   25.4921  -10.6323  -17.8269 C   0  0  0  0  0  0  0  0  0  0  0  0
   25.5225  -11.6001  -18.7898 C   0  0  0  0  0  0  0  0  0  0  0  0
   26.3225  -12.5932  -18.3589 N   0  0  0  0  0  0  0  0  0  0  0  0
   26.8088  -12.2808  -17.1328 C   0  0  0  0  0  0  0  0  0  0  0  0
   27.6564  -12.9098  -16.2329 C   0  0  0  0  0  0  0  0  0  0  0  0
   27.9575  -12.2979  -15.0351 C   0  0  0  0  0  0  0  0  0  0  0  0
   27.4457  -11.0652  -14.6817 C   0  0  0  0  0  0  0  0  0  0  0  0
   26.6096  -10.4419  -15.5658 C   0  0  0  0  0  0  0  0  0  0  0  0
   26.2867  -11.0348  -16.7842 C   0  0  0  0  0  0  0  0  0  0  0  0
   22.8867   -7.9896  -17.2229 C   0  0  0  0  0  0  0  0  0  0  0  0
   22.8758   -7.4034  -18.3208 O   0  0  0  0  0  0  0  0  0  0  0  0
   17.5390   -1.4898  -17.7045 O   0  0  0  0  0  0  0  0  0  0  0  0
   18.2776   -2.6779  -17.5744 C   0  0  0  0  0  0  0  0  0  0  0  0
   19.5664   -2.7505  -18.0428 C   0  0  0  0  0  0  0  0  0  0  0  0
   20.3025   -3.9005  -17.9247 C   0  0  0  0  0  0  0  0  0  0  0  0
   19.7626   -5.0196  -17.3286 C   0  0  0  0  0  0  0  0  0  0  0  0
   20.5742   -6.2334  -17.2239 C   0  0  0  0  0  0  0  0  0  0  0  0
   21.5966   -6.0922  -16.1448 C   0  0  2  0  0  0  0  0  0  0  0  0
   22.3227   -7.3680  -16.0781 N   0  0  0  0  0  0  0  0  0  0  0  0
   21.0489   -5.8303  -14.8016 C   0  0  0  0  0  0  0  0  0  0  0  0
   20.8701   -4.5249  -14.3070 O   0  0  0  0  0  0  0  0  0  0  0  0
   18.4759   -4.9744  -16.8517 C   0  0  0  0  0  0  0  0  0  0  0  0
   17.7381   -3.7954  -16.9790 C   0  0  0  0  0  0  0  0  0  0  0  0
   20.7074   -6.7478  -14.0139 O   0  0  0  0  0  0  0  0  0  0  0  0
  2  1  1  1
  2  3  1  0
  3  4  1  0
  4  5  2  0
  5  6  1  0
  7  6  2  0
  8  7  1  0
  9  8  2  0
  9  4  1  0
 10  2  1  0
 11 10  2  0
 12 10  1  0
 13 12  1  0
 14 15  1  0
 13 14  1  6
 15 23  1  0
 16 17  1  0
 16 15  2  0
 17 18  1  0
 18 23  2  0
 18 19  1  0
 19 20  2  0
 20 21  1  0
 22 21  2  0
 23 22  1  0
 24 13  1  0
 24 25  2  0
 27 37  2  0
 27 26  1  0
 28 27  1  0
 29 30  1  0
 29 28  2  0
 30 36  2  0
 31 30  1  0
 32 31  1  6
 32 33  1  0
 33 24  1  0
 34 32  1  0
 35 34  1  0
 36 37  1  0
 38 34  2  0
M  END
$$$$
