FWY.pdb
     RDKit          3D

 38 41  0  0  1  0  0  0  0  0999 V2000
   28.7802  -20.7048   -8.8733 N   0  0  0  0  0  0  0  0  0  0  0  0
   27.3450  -20.5861   -8.6015 C   0  0  1  0  0  0  0  0  0  0  0  0
   27.1955  -19.4669   -7.6051 C   0  0  0  0  0  0  0  0  0  0  0  0
   27.9036  -19.6697   -6.3451 C   0  0  0  0  0  0  0  0  0  0  0  0
   27.6357  -20.7503   -5.5511 C   0  0  0  0  0  0  0  0  0  0  0  0
   28.3048  -20.9631   -4.3447 C   0  0  0  0  0  0  0  0  0  0  0  0
   29.2707  -20.0553   -3.9337 C   0  0  0  0  0  0  0  0  0  0  0  0
   29.5514  -18.9589   -4.7262 C   0  0  0  0  0  0  0  0  0  0  0  0
   28.8643  -18.7738   -5.9286 C   0  0  0  0  0  0  0  0  0  0  0  0
   26.6379  -20.3238   -9.8777 C   0  0  0  0  0  0  0  0  0  0  0  0
   26.8275  -19.2713  -10.5276 O   0  0  0  0  0  0  0  0  0  0  0  0
   25.7079  -21.2830  -10.4030 N   0  0  0  0  0  0  0  0  0  0  0  0
   24.9677  -21.0657  -11.6357 C   0  0  1  0  0  0  0  0  0  0  0  0
   25.1922  -22.2722  -12.5194 C   0  0  0  0  0  0  0  0  0  0  0  0
   24.5605  -22.1756  -13.8370 C   0  0  0  0  0  0  0  0  0  0  0  0
   24.4876  -21.0509  -14.6080 C   0  0  0  0  0  0  0  0  0  0  0  0
   23.8340  -21.3637  -15.7425 N   0  0  0  0  0  0  0  0  0  0  0  0
   23.4843  -22.6730  -15.7152 C   0  0  0  0  0  0  0  0  0  0  0  0
   22.8152  -23.5199  -16.5864 C   0  0  0  0  0  0  0  0  0  0  0  0
   22.6215  -24.8404  -16.2423 C   0  0  0  0  0  0  0  0  0  0  0  0
   23.0704  -25.3705  -15.0490 C   0  0  0  0  0  0  0  0  0  0  0  0
   23.7303  -24.5390  -14.1873 C   0  0  0  0  0  0  0  0  0  0  0  0
   23.9416  -23.1998  -14.5069 C   0  0  0  0  0  0  0  0  0  0  0  0
   23.4881  -21.0269  -11.3537 C   0  0  0  0  0  0  0  0  0  0  0  0
   22.9695  -21.6931  -10.4392 O   0  0  0  0  0  0  0  0  0  0  0  0
   21.4546  -18.6277  -18.1261 O   0  0  0  0  0  0  0  0  0  0  0  0
   21.2888  -18.6454  -16.7310 C   0  0  0  0  0  0  0  0  0  0  0  0
   22.3617  -18.4340  -15.9004 C   0  0  0  0  0  0  0  0  0  0  0  0
   22.2194  -18.4472  -14.5374 C   0  0  0  0  0  0  0  0  0  0  0  0
   20.9871  -18.6746  -13.9638 C   0  0  0  0  0  0  0  0  0  0  0  0
   20.8712  -18.6879  -12.5047 C   0  0  0  0  0  0  0  0  0  0  0  0
   21.2377  -20.0288  -11.9592 C   0  0  2  0  0  0  0  0  0  0  0  0
   22.6821  -20.1942  -12.1735 N   0  0  0  0  0  0  0  0  0  0  0  0
   20.5661  -21.1681  -12.6100 C   0  0  0  0  0  0  0  0  0  0  0  0
   21.2530  -22.0593  -13.4554 O   0  0  0  0  0  0  0  0  0  0  0  0
   19.8976  -18.8891  -14.7714 C   0  0  0  0  0  0  0  0  0  0  0  0
   20.0580  -18.8726  -16.1586 C   0  0  0  0  0  0  0  0  0  0  0  0
   19.3445  -21.4185  -12.4550 O   0  0  0  0  0  0  0  0  0  0  0  0
  2  1  1  6
  2  3  1  0
  3  4  1  0
  4  5  2  0
  5  6  1  0
  7  6  2  0
  8  7  1  0
  9  8  2  0
  9  4  1  0
 10  2  1  0
 11 10  2  0
 12 10  1  0
 13 12  1  0
 14 15  1  0
 13 14  1  6
 15 23  1  0
 16 17  1  0
 16 15  2  0
 17 18  1  0
 18 23  2  0
 18 19  1  0
 19 20  2  0
 20 21  1  0
 22 21  2  0
 23 22  1  0
 24 13  1  0
 24 25  2  0
 27 37  2  0
 27 26  1  0
 28 27  1  0
 29 30  1  0
 29 28  2  0
 30 36  2  0
 31 30  1  0
 32 31  1  6
 32 33  1  0
 33 24  1  0
 34 32  1  0
 35 34  1  0
 36 37  1  0
 38 34  2  0
M  END
$$$$
