FWY.pdb
     RDKit          3D

 38 41  0  0  1  0  0  0  0  0999 V2000
   28.1752  -23.2203  -16.7059 N   0  0  0  0  0  0  0  0  0  0  0  0
   27.8139  -21.9071  -16.1650 C   0  0  1  0  0  0  0  0  0  0  0  0
   26.9113  -21.2645  -17.1848 C   0  0  0  0  0  0  0  0  0  0  0  0
   27.5810  -20.8226  -18.4039 C   0  0  0  0  0  0  0  0  0  0  0  0
   27.4217  -21.4991  -19.5815 C   0  0  0  0  0  0  0  0  0  0  0  0
   28.0510  -21.0897  -20.7583 C   0  0  0  0  0  0  0  0  0  0  0  0
   28.8632  -19.9645  -20.7390 C   0  0  0  0  0  0  0  0  0  0  0  0
   29.0330  -19.2714  -19.5558 C   0  0  0  0  0  0  0  0  0  0  0  0
   28.3893  -19.7065  -18.3946 C   0  0  0  0  0  0  0  0  0  0  0  0
   27.1585  -22.0971  -14.8491 C   0  0  0  0  0  0  0  0  0  0  0  0
   26.3560  -23.0357  -14.6462 O   0  0  0  0  0  0  0  0  0  0  0  0
   27.4325  -21.1972  -13.7647 N   0  0  0  0  0  0  0  0  0  0  0  0
   26.7515  -21.2819  -12.4825 C   0  0  1  0  0  0  0  0  0  0  0  0
   27.6202  -20.5849  -11.4596 C   0  0  0  0  0  0  0  0  0  0  0  0
   26.9723  -20.3819  -10.1620 C   0  0  0  0  0  0  0  0  0  0  0  0
   25.6384  -20.1717   -9.9588 C   0  0  0  0  0  0  0  0  0  0  0  0
   25.4344  -20.0310   -8.6357 N   0  0  0  0  0  0  0  0  0  0  0  0
   26.6163  -20.1473   -7.9823 C   0  0  0  0  0  0  0  0  0  0  0  0
   27.0017  -20.0923   -6.6510 C   0  0  0  0  0  0  0  0  0  0  0  0
   28.3285  -20.2572   -6.3161 C   0  0  0  0  0  0  0  0  0  0  0  0
   29.3109  -20.4786   -7.2607 C   0  0  0  0  0  0  0  0  0  0  0  0
   28.9352  -20.5334   -8.5741 C   0  0  0  0  0  0  0  0  0  0  0  0
   27.6021  -20.3707   -8.9439 C   0  0  0  0  0  0  0  0  0  0  0  0
   25.4599  -20.5073  -12.5276 C   0  0  0  0  0  0  0  0  0  0  0  0
   25.4290  -19.2810  -12.7379 O   0  0  0  0  0  0  0  0  0  0  0  0
   21.9542  -24.2975  -17.3570 O   0  0  0  0  0  0  0  0  0  0  0  0
   22.1224  -23.2430  -16.4439 C   0  0  0  0  0  0  0  0  0  0  0  0
   23.3406  -22.6223  -16.3150 C   0  0  0  0  0  0  0  0  0  0  0  0
   23.5237  -21.5920  -15.4300 C   0  0  0  0  0  0  0  0  0  0  0  0
   22.4821  -21.1512  -14.6426 C   0  0  0  0  0  0  0  0  0  0  0  0
   22.7135  -20.0524  -13.7036 C   0  0  0  0  0  0  0  0  0  0  0  0
   22.9341  -20.5769  -12.3229 C   0  0  2  0  0  0  0  0  0  0  0  0
   24.2529  -21.2250  -12.3205 N   0  0  0  0  0  0  0  0  0  0  0  0
   21.9524  -21.5817  -11.8768 C   0  0  0  0  0  0  0  0  0  0  0  0
   20.6177  -21.2459  -11.5822 O   0  0  0  0  0  0  0  0  0  0  0  0
   21.2536  -21.7545  -14.7513 C   0  0  0  0  0  0  0  0  0  0  0  0
   21.0819  -22.8031  -15.6577 C   0  0  0  0  0  0  0  0  0  0  0  0
   22.2387  -22.7965  -11.7305 O   0  0  0  0  0  0  0  0  0  0  0  0
  2  1  1  6
  2  3  1  0
  3  4  1  0
  4  5  2  0
  5  6  1  0
  7  6  2  0
  8  7  1  0
  9  8  2  0
  9  4  1  0
 10  2  1  0
 11 10  2  0
 12 10  1  0
 13 12  1  0
 14 15  1  0
 13 14  1  1
 15 23  1  0
 16 17  1  0
 16 15  2  0
 17 18  1  0
 18 23  2  0
 18 19  1  0
 19 20  2  0
 20 21  1  0
 22 21  2  0
 23 22  1  0
 24 13  1  0
 24 25  2  0
 27 37  2  0
 27 26  1  0
 28 27  1  0
 29 30  1  0
 29 28  2  0
 30 36  2  0
 31 30  1  0
 32 31  1  6
 32 33  1  0
 33 24  1  0
 34 32  1  0
 35 34  1  0
 36 37  1  0
 38 34  2  0
M  END
$$$$
