FWY.pdb
     RDKit          3D

 38 41  0  0  1  0  0  0  0  0999 V2000
   26.4939  -24.3787  -15.4034 N   0  0  0  0  0  0  0  0  0  0  0  0
   25.9379  -23.0380  -15.2012 C   0  0  1  0  0  0  0  0  0  0  0  0
   24.7181  -22.9502  -16.0800 C   0  0  0  0  0  0  0  0  0  0  0  0
   24.9977  -22.8739  -17.5104 C   0  0  0  0  0  0  0  0  0  0  0  0
   24.7071  -23.9190  -18.3429 C   0  0  0  0  0  0  0  0  0  0  0  0
   24.9639  -23.8633  -19.7139 C   0  0  0  0  0  0  0  0  0  0  0  0
   25.5304  -22.7170  -20.2535 C   0  0  0  0  0  0  0  0  0  0  0  0
   25.8292  -21.6535  -19.4236 C   0  0  0  0  0  0  0  0  0  0  0  0
   25.5601  -21.7400  -18.0554 C   0  0  0  0  0  0  0  0  0  0  0  0
   25.6290  -22.8616  -13.7622 C   0  0  0  0  0  0  0  0  0  0  0  0
   25.2576  -23.8208  -13.0494 O   0  0  0  0  0  0  0  0  0  0  0  0
   25.7501  -21.5705  -13.1464 N   0  0  0  0  0  0  0  0  0  0  0  0
   25.4341  -21.3352  -11.7465 C   0  0  1  0  0  0  0  0  0  0  0  0
   26.2748  -20.1677  -11.2808 C   0  0  0  0  0  0  0  0  0  0  0  0
   27.4157  -20.5466  -10.4445 C   0  0  0  0  0  0  0  0  0  0  0  0
   28.5874  -21.0890  -10.8891 C   0  0  0  0  0  0  0  0  0  0  0  0
   29.3828  -21.2962   -9.8231 N   0  0  0  0  0  0  0  0  0  0  0  0
   28.7423  -20.8956   -8.6977 C   0  0  0  0  0  0  0  0  0  0  0  0
   29.0670  -20.8715   -7.3494 C   0  0  0  0  0  0  0  0  0  0  0  0
   28.1579  -20.3828   -6.4360 C   0  0  0  0  0  0  0  0  0  0  0  0
   26.9157  -19.9070   -6.8062 C   0  0  0  0  0  0  0  0  0  0  0  0
   26.5917  -19.9291   -8.1343 C   0  0  0  0  0  0  0  0  0  0  0  0
   27.4892  -20.4168   -9.0813 C   0  0  0  0  0  0  0  0  0  0  0  0
   23.9995  -20.8973  -11.6038 C   0  0  0  0  0  0  0  0  0  0  0  0
   23.5145  -20.5613  -10.5079 O   0  0  0  0  0  0  0  0  0  0  0  0
   21.7453  -21.6757  -18.9802 O   0  0  0  0  0  0  0  0  0  0  0  0
   21.7535  -21.0979  -17.6995 C   0  0  0  0  0  0  0  0  0  0  0  0
   20.5928  -21.0031  -16.9718 C   0  0  0  0  0  0  0  0  0  0  0  0
   20.5812  -20.4430  -15.7211 C   0  0  0  0  0  0  0  0  0  0  0  0
   21.7426  -19.9580  -15.1598 C   0  0  0  0  0  0  0  0  0  0  0  0
   21.6940  -19.3606  -13.8244 C   0  0  0  0  0  0  0  0  0  0  0  0
   21.8018  -20.4141  -12.7716 C   0  0  2  0  0  0  0  0  0  0  0  0
   23.1968  -20.8761  -12.7744 N   0  0  0  0  0  0  0  0  0  0  0  0
   20.9493  -21.5969  -12.9878 C   0  0  0  0  0  0  0  0  0  0  0  0
   21.4843  -22.8546  -13.3238 O   0  0  0  0  0  0  0  0  0  0  0  0
   22.9173  -20.0401  -15.8660 C   0  0  0  0  0  0  0  0  0  0  0  0
   22.9136  -20.6136  -17.1394 C   0  0  0  0  0  0  0  0  0  0  0  0
   19.6972  -21.5623  -12.8874 O   0  0  0  0  0  0  0  0  0  0  0  0
  2  1  1  1
  2  3  1  0
  3  4  1  0
  4  5  2  0
  5  6  1  0
  7  6  2  0
  8  7  1  0
  9  8  2  0
  9  4  1  0
 10  2  1  0
 11 10  2  0
 12 10  1  0
 13 12  1  0
 14 15  1  0
 13 14  1  6
 15 23  1  0
 16 17  1  0
 16 15  2  0
 17 18  1  0
 18 23  2  0
 18 19  1  0
 19 20  2  0
 20 21  1  0
 22 21  2  0
 23 22  1  0
 24 13  1  0
 24 25  2  0
 27 37  2  0
 27 26  1  0
 28 27  1  0
 29 30  1  0
 29 28  2  0
 30 36  2  0
 31 30  1  0
 32 31  1  6
 32 33  1  0
 33 24  1  0
 34 32  1  0
 35 34  1  0
 36 37  1  0
 38 34  2  0
M  END
$$$$
