FWY.pdb
     RDKit          3D

 38 41  0  0  1  0  0  0  0  0999 V2000
   14.2317  -18.6773    5.0944 N   0  0  0  0  0  0  0  0  0  0  0  0
   14.4677  -18.1104    6.4250 C   0  0  1  0  0  0  0  0  0  0  0  0
   13.6399  -18.9250    7.3835 C   0  0  0  0  0  0  0  0  0  0  0  0
   12.1987  -18.7237    7.2726 C   0  0  0  0  0  0  0  0  0  0  0  0
   11.5993  -17.6110    7.7945 C   0  0  0  0  0  0  0  0  0  0  0  0
   10.2232  -17.3992    7.6952 C   0  0  0  0  0  0  0  0  0  0  0  0
    9.4351  -18.3415    7.0495 C   0  0  0  0  0  0  0  0  0  0  0  0
   10.0277  -19.4707    6.5175 C   0  0  0  0  0  0  0  0  0  0  0  0
   11.4079  -19.6538    6.6333 C   0  0  0  0  0  0  0  0  0  0  0  0
   15.9195  -18.1696    6.7183 C   0  0  0  0  0  0  0  0  0  0  0  0
   16.6439  -19.0811    6.2595 O   0  0  0  0  0  0  0  0  0  0  0  0
   16.5346  -17.1707    7.5456 N   0  0  0  0  0  0  0  0  0  0  0  0
   17.9619  -17.1508    7.8232 C   0  0  1  0  0  0  0  0  0  0  0  0
   18.3516  -15.7156    8.0976 C   0  0  0  0  0  0  0  0  0  0  0  0
   18.1282  -14.8080    6.9703 C   0  0  0  0  0  0  0  0  0  0  0  0
   17.1345  -14.9183    6.0401 C   0  0  0  0  0  0  0  0  0  0  0  0
   17.2617  -13.8991    5.1700 N   0  0  0  0  0  0  0  0  0  0  0  0
   18.3222  -13.1331    5.5246 C   0  0  0  0  0  0  0  0  0  0  0  0
   18.9092  -11.9861    5.0109 C   0  0  0  0  0  0  0  0  0  0  0  0
   20.0132  -11.4453    5.6342 C   0  0  0  0  0  0  0  0  0  0  0  0
   20.5734  -12.0016    6.7670 C   0  0  0  0  0  0  0  0  0  0  0  0
   19.9979  -13.1323    7.2764 C   0  0  0  0  0  0  0  0  0  0  0  0
   18.8814  -13.7023    6.6691 C   0  0  0  0  0  0  0  0  0  0  0  0
   18.2557  -17.9106    9.0908 C   0  0  0  0  0  0  0  0  0  0  0  0
   17.6585  -17.6773   10.1575 O   0  0  0  0  0  0  0  0  0  0  0  0
   19.7354  -24.0427    5.5018 O   0  0  0  0  0  0  0  0  0  0  0  0
   19.4512  -23.2653    6.6371 C   0  0  0  0  0  0  0  0  0  0  0  0
   20.1955  -23.4085    7.7822 C   0  0  0  0  0  0  0  0  0  0  0  0
   19.9334  -22.6591    8.8993 C   0  0  0  0  0  0  0  0  0  0  0  0
   18.9091  -21.7372    8.8999 C   0  0  0  0  0  0  0  0  0  0  0  0
   18.6523  -20.9574   10.1118 C   0  0  0  0  0  0  0  0  0  0  0  0
   19.5697  -19.7815   10.1861 C   0  0  2  0  0  0  0  0  0  0  0  0
   19.2513  -18.9211    9.0382 N   0  0  0  0  0  0  0  0  0  0  0  0
   21.0047  -20.1080   10.1028 C   0  0  0  0  0  0  0  0  0  0  0  0
   21.8290  -19.6057    9.0786 O   0  0  0  0  0  0  0  0  0  0  0  0
   18.1491  -21.5740    7.7681 C   0  0  0  0  0  0  0  0  0  0  0  0
   18.4281  -22.3447    6.6374 C   0  0  0  0  0  0  0  0  0  0  0  0
   21.5842  -20.8509   10.9342 O   0  0  0  0  0  0  0  0  0  0  0  0
  2  1  1  6
  2  3  1  0
  3  4  1  0
  4  5  2  0
  5  6  1  0
  7  6  2  0
  8  7  1  0
  9  8  2  0
  9  4  1  0
 10  2  1  0
 11 10  2  0
 12 10  1  0
 13 12  1  0
 14 15  1  0
 13 14  1  1
 15 23  1  0
 16 17  1  0
 16 15  2  0
 17 18  1  0
 18 23  2  0
 18 19  1  0
 19 20  2  0
 20 21  1  0
 22 21  2  0
 23 22  1  0
 24 13  1  0
 24 25  2  0
 27 37  2  0
 27 26  1  0
 28 27  1  0
 29 30  1  0
 29 28  2  0
 30 36  2  0
 31 30  1  0
 32 31  1  6
 32 33  1  0
 33 24  1  0
 34 32  1  0
 35 34  1  0
 36 37  1  0
 38 34  2  0
M  END
$$$$
