FWY.pdb
     RDKit          3D

 38 41  0  0  1  0  0  0  0  0999 V2000
   28.3472  -20.5227  -14.1566 N   0  0  0  0  0  0  0  0  0  0  0  0
   27.4573  -19.7406  -13.2942 C   0  0  1  0  0  0  0  0  0  0  0  0
   26.4705  -19.0643  -14.2089 C   0  0  0  0  0  0  0  0  0  0  0  0
   27.0299  -17.9965  -15.0316 C   0  0  0  0  0  0  0  0  0  0  0  0
   27.3378  -18.2069  -16.3471 C   0  0  0  0  0  0  0  0  0  0  0  0
   27.8701  -17.1973  -17.1507 C   0  0  0  0  0  0  0  0  0  0  0  0
   28.0956  -15.9416  -16.6046 C   0  0  0  0  0  0  0  0  0  0  0  0
   27.7890  -15.7151  -15.2765 C   0  0  0  0  0  0  0  0  0  0  0  0
   27.2573  -16.7464  -14.4982 C   0  0  0  0  0  0  0  0  0  0  0  0
   26.8129  -20.6536  -12.3203 C   0  0  0  0  0  0  0  0  0  0  0  0
   26.4670  -21.8133  -12.6391 O   0  0  0  0  0  0  0  0  0  0  0  0
   26.5677  -20.2226  -10.9731 N   0  0  0  0  0  0  0  0  0  0  0  0
   25.7044  -20.9538  -10.0594 C   0  0  1  0  0  0  0  0  0  0  0  0
   26.0568  -20.5184   -8.6547 C   0  0  0  0  0  0  0  0  0  0  0  0
   27.4666  -20.7053   -8.3054 C   0  0  0  0  0  0  0  0  0  0  0  0
   28.4250  -21.2479   -9.1127 C   0  0  0  0  0  0  0  0  0  0  0  0
   29.5894  -21.2479   -8.4371 N   0  0  0  0  0  0  0  0  0  0  0  0
   29.3967  -20.7135   -7.2064 C   0  0  0  0  0  0  0  0  0  0  0  0
   30.2148  -20.4666   -6.1139 C   0  0  0  0  0  0  0  0  0  0  0  0
   29.6846  -19.8915   -4.9790 C   0  0  0  0  0  0  0  0  0  0  0  0
   28.3526  -19.5430   -4.8760 C   0  0  0  0  0  0  0  0  0  0  0  0
   27.5427  -19.7849   -5.9507 C   0  0  0  0  0  0  0  0  0  0  0  0
   28.0492  -20.3647   -7.1115 C   0  0  0  0  0  0  0  0  0  0  0  0
   24.2670  -20.5540  -10.2699 C   0  0  0  0  0  0  0  0  0  0  0  0
   23.8313  -19.4399   -9.9265 O   0  0  0  0  0  0  0  0  0  0  0  0
   17.9529  -18.3944  -15.4390 O   0  0  0  0  0  0  0  0  0  0  0  0
   19.0879  -18.7998  -14.7169 C   0  0  0  0  0  0  0  0  0  0  0  0
   19.8502  -19.8550  -15.1541 C   0  0  0  0  0  0  0  0  0  0  0  0
   20.9607  -20.2646  -14.4634 C   0  0  0  0  0  0  0  0  0  0  0  0
   21.3416  -19.6225  -13.3050 C   0  0  0  0  0  0  0  0  0  0  0  0
   22.5297  -20.0892  -12.5886 C   0  0  0  0  0  0  0  0  0  0  0  0
   22.1599  -21.1113  -11.5646 C   0  0  2  0  0  0  0  0  0  0  0  0
   23.4028  -21.4986  -10.8830 N   0  0  0  0  0  0  0  0  0  0  0  0
   21.5567  -22.3422  -12.1064 C   0  0  0  0  0  0  0  0  0  0  0  0
   20.1709  -22.5827  -12.0552 O   0  0  0  0  0  0  0  0  0  0  0  0
   20.5971  -18.5644  -12.8454 C   0  0  0  0  0  0  0  0  0  0  0  0
   19.4680  -18.1582  -13.5601 C   0  0  0  0  0  0  0  0  0  0  0  0
   22.2338  -23.2527  -12.6463 O   0  0  0  0  0  0  0  0  0  0  0  0
  2  1  1  6
  2  3  1  0
  3  4  1  0
  4  5  2  0
  5  6  1  0
  7  6  2  0
  8  7  1  0
  9  8  2  0
  9  4  1  0
 10  2  1  0
 11 10  2  0
 12 10  1  0
 13 12  1  0
 14 15  1  0
 13 14  1  1
 15 23  1  0
 16 17  1  0
 16 15  2  0
 17 18  1  0
 18 23  2  0
 18 19  1  0
 19 20  2  0
 20 21  1  0
 22 21  2  0
 23 22  1  0
 24 13  1  0
 24 25  2  0
 27 37  2  0
 27 26  1  0
 28 27  1  0
 29 30  1  0
 29 28  2  0
 30 36  2  0
 31 30  1  0
 32 31  1  6
 32 33  1  0
 33 24  1  0
 34 32  1  0
 35 34  1  0
 36 37  1  0
 38 34  2  0
M  END
$$$$
