FWY.pdb
     RDKit          3D

 38 41  0  0  1  0  0  0  0  0999 V2000
   31.0219  -31.0465  -17.7582 N   0  0  0  0  0  0  0  0  0  0  0  0
   30.5894  -30.8059  -19.1376 C   0  0  1  0  0  0  0  0  0  0  0  0
   29.3507  -31.6373  -19.3425 C   0  0  0  0  0  0  0  0  0  0  0  0
   29.5924  -33.0676  -19.5034 C   0  0  0  0  0  0  0  0  0  0  0  0
   29.3231  -33.9470  -18.4916 C   0  0  0  0  0  0  0  0  0  0  0  0
   29.5443  -35.3185  -18.6279 C   0  0  0  0  0  0  0  0  0  0  0  0
   30.0522  -35.8098  -19.8223 C   0  0  0  0  0  0  0  0  0  0  0  0
   30.3290  -34.9323  -20.8531 C   0  0  0  0  0  0  0  0  0  0  0  0
   30.0966  -33.5648  -20.6856 C   0  0  0  0  0  0  0  0  0  0  0  0
   30.3487  -29.3541  -19.3157 C   0  0  0  0  0  0  0  0  0  0  0  0
   30.1347  -28.6008  -18.3396 O   0  0  0  0  0  0  0  0  0  0  0  0
   30.3552  -28.7726  -20.6282 N   0  0  0  0  0  0  0  0  0  0  0  0
   30.0653  -27.3676  -20.8662 C   0  0  1  0  0  0  0  0  0  0  0  0
   30.5887  -27.0223  -22.2423 C   0  0  0  0  0  0  0  0  0  0  0  0
   30.8251  -25.5923  -22.4520 C   0  0  0  0  0  0  0  0  0  0  0  0
   31.6071  -24.7887  -21.6725 C   0  0  0  0  0  0  0  0  0  0  0  0
   31.5724  -23.5455  -22.1875 N   0  0  0  0  0  0  0  0  0  0  0  0
   30.7801  -23.5348  -23.2873 C   0  0  0  0  0  0  0  0  0  0  0  0
   30.3889  -22.5621  -24.1953 C   0  0  0  0  0  0  0  0  0  0  0  0
   29.5476  -22.8960  -25.2348 C   0  0  0  0  0  0  0  0  0  0  0  0
   29.0666  -24.1771  -25.4186 C   0  0  0  0  0  0  0  0  0  0  0  0
   29.4496  -25.1389  -24.5256 C   0  0  0  0  0  0  0  0  0  0  0  0
   30.2990  -24.8323  -23.4650 C   0  0  0  0  0  0  0  0  0  0  0  0
   28.5760  -27.1459  -20.9205 C   0  0  0  0  0  0  0  0  0  0  0  0
   27.7900  -28.0190  -21.3314 O   0  0  0  0  0  0  0  0  0  0  0  0
   20.3659  -25.3585  -19.9112 O   0  0  0  0  0  0  0  0  0  0  0  0
   21.7423  -25.6358  -19.8583 C   0  0  0  0  0  0  0  0  0  0  0  0
   22.3632  -26.2769  -20.9020 C   0  0  0  0  0  0  0  0  0  0  0  0
   23.7046  -26.5556  -20.8687 C   0  0  0  0  0  0  0  0  0  0  0  0
   24.4678  -26.1965  -19.7788 C   0  0  0  0  0  0  0  0  0  0  0  0
   25.8967  -26.5145  -19.7730 C   0  0  0  0  0  0  0  0  0  0  0  0
   26.6613  -25.5191  -20.5819 C   0  0  2  0  0  0  0  0  0  0  0  0
   28.0797  -25.8903  -20.4820 N   0  0  0  0  0  0  0  0  0  0  0  0
   26.5415  -24.1235  -20.1231 C   0  0  0  0  0  0  0  0  0  0  0  0
   25.5633  -23.2490  -20.6323 O   0  0  0  0  0  0  0  0  0  0  0  0
   23.8721  -25.5545  -18.7214 C   0  0  0  0  0  0  0  0  0  0  0  0
   22.5042  -25.2770  -18.7697 C   0  0  0  0  0  0  0  0  0  0  0  0
   27.2986  -23.6244  -19.2533 O   0  0  0  0  0  0  0  0  0  0  0  0
  2  1  1  1
  2  3  1  0
  3  4  1  0
  4  5  2  0
  5  6  1  0
  7  6  2  0
  8  7  1  0
  9  8  2  0
  9  4  1  0
 10  2  1  0
 11 10  2  0
 12 10  1  0
 13 12  1  0
 14 15  1  0
 13 14  1  6
 15 23  1  0
 16 17  1  0
 16 15  2  0
 17 18  1  0
 18 23  2  0
 18 19  1  0
 19 20  2  0
 20 21  1  0
 22 21  2  0
 23 22  1  0
 24 13  1  0
 24 25  2  0
 27 37  2  0
 27 26  1  0
 28 27  1  0
 29 30  1  0
 29 28  2  0
 30 36  2  0
 31 30  1  0
 32 31  1  1
 32 33  1  0
 33 24  1  0
 34 32  1  0
 35 34  1  0
 36 37  1  0
 38 34  2  0
M  END
$$$$
