FWY.pdb
     RDKit          3D

 38 41  0  0  1  0  0  0  0  0999 V2000
   30.5719  -30.0447  -17.0417 N   0  0  0  0  0  0  0  0  0  0  0  0
   29.6905  -30.5622  -18.0919 C   0  0  1  0  0  0  0  0  0  0  0  0
   29.8005  -32.0630  -18.0334 C   0  0  0  0  0  0  0  0  0  0  0  0
   31.0694  -32.6034  -18.5106 C   0  0  0  0  0  0  0  0  0  0  0  0
   31.9781  -33.1420  -17.6424 C   0  0  0  0  0  0  0  0  0  0  0  0
   33.1952  -33.6669  -18.0801 C   0  0  0  0  0  0  0  0  0  0  0  0
   33.4976  -33.6442  -19.4344 C   0  0  0  0  0  0  0  0  0  0  0  0
   32.5884  -33.1029  -20.3229 C   0  0  0  0  0  0  0  0  0  0  0  0
   31.3785  -32.5854  -19.8534 C   0  0  0  0  0  0  0  0  0  0  0  0
   28.3137  -30.0721  -17.8437 C   0  0  0  0  0  0  0  0  0  0  0  0
   27.9459  -29.6990  -16.7072 O   0  0  0  0  0  0  0  0  0  0  0  0
   27.3594  -30.0142  -18.9146 N   0  0  0  0  0  0  0  0  0  0  0  0
   26.0199  -29.4741  -18.7446 C   0  0  1  0  0  0  0  0  0  0  0  0
   25.5900  -28.8977  -20.0749 C   0  0  0  0  0  0  0  0  0  0  0  0
   26.1464  -27.5738  -20.3622 C   0  0  0  0  0  0  0  0  0  0  0  0
   26.7886  -26.7655  -19.4683 C   0  0  0  0  0  0  0  0  0  0  0  0
   27.1504  -25.6384  -20.1092 N   0  0  0  0  0  0  0  0  0  0  0  0
   26.7515  -25.7073  -21.4028 C   0  0  0  0  0  0  0  0  0  0  0  0
   26.8504  -24.8617  -22.4978 C   0  0  0  0  0  0  0  0  0  0  0  0
   26.3219  -25.2490  -23.7104 C   0  0  0  0  0  0  0  0  0  0  0  0
   25.6866  -26.4617  -23.8903 C   0  0  0  0  0  0  0  0  0  0  0  0
   25.5869  -27.2980  -22.8134 C   0  0  0  0  0  0  0  0  0  0  0  0
   26.1112  -26.9348  -21.5750 C   0  0  0  0  0  0  0  0  0  0  0  0
   25.0471  -30.5833  -18.4387 C   0  0  0  0  0  0  0  0  0  0  0  0
   25.0339  -31.6497  -19.0803 O   0  0  0  0  0  0  0  0  0  0  0  0
   27.7871  -35.2339  -14.9332 O   0  0  0  0  0  0  0  0  0  0  0  0
   26.7184  -34.3318  -15.0687 C   0  0  0  0  0  0  0  0  0  0  0  0
   25.4648  -34.7837  -15.4006 C   0  0  0  0  0  0  0  0  0  0  0  0
   24.4102  -33.9191  -15.5370 C   0  0  0  0  0  0  0  0  0  0  0  0
   24.5840  -32.5658  -15.3429 C   0  0  0  0  0  0  0  0  0  0  0  0
   23.4378  -31.6695  -15.5023 C   0  0  0  0  0  0  0  0  0  0  0  0
   23.1699  -31.4086  -16.9480 C   0  0  2  0  0  0  0  0  0  0  0  0
   24.1261  -30.3789  -17.3780 N   0  0  0  0  0  0  0  0  0  0  0  0
   21.8184  -30.9022  -17.2471 C   0  0  0  0  0  0  0  0  0  0  0  0
   21.6002  -29.6158  -17.7748 O   0  0  0  0  0  0  0  0  0  0  0  0
   25.8273  -32.0874  -15.0105 C   0  0  0  0  0  0  0  0  0  0  0  0
   26.8924  -32.9804  -14.8748 C   0  0  0  0  0  0  0  0  0  0  0  0
   20.7781  -31.5796  -17.0526 O   0  0  0  0  0  0  0  0  0  0  0  0
  2  1  1  1
  2  3  1  0
  3  4  1  0
  4  5  2  0
  5  6  1  0
  7  6  2  0
  8  7  1  0
  9  8  2  0
  9  4  1  0
 10  2  1  0
 11 10  2  0
 12 10  1  0
 13 12  1  0
 14 15  1  0
 13 14  1  6
 15 23  1  0
 16 17  1  0
 16 15  2  0
 17 18  1  0
 18 23  2  0
 18 19  1  0
 19 20  2  0
 20 21  1  0
 22 21  2  0
 23 22  1  0
 24 13  1  0
 24 25  2  0
 27 37  2  0
 27 26  1  0
 28 27  1  0
 29 30  1  0
 29 28  2  0
 30 36  2  0
 31 30  1  0
 32 31  1  1
 32 33  1  0
 33 24  1  0
 34 32  1  0
 35 34  1  0
 36 37  1  0
 38 34  2  0
M  END
$$$$
