FWY.pdb
     RDKit          3D

 38 41  0  0  1  0  0  0  0  0999 V2000
   27.7570  -20.8502  -15.1291 N   0  0  0  0  0  0  0  0  0  0  0  0
   27.4658  -19.8804  -14.0696 C   0  0  1  0  0  0  0  0  0  0  0  0
   26.5296  -18.8662  -14.6717 C   0  0  0  0  0  0  0  0  0  0  0  0
   27.1394  -17.9778  -15.6560 C   0  0  0  0  0  0  0  0  0  0  0  0
   28.0873  -17.0630  -15.2893 C   0  0  0  0  0  0  0  0  0  0  0  0
   28.6843  -16.2074  -16.2167 C   0  0  0  0  0  0  0  0  0  0  0  0
   28.3093  -16.2824  -17.5507 C   0  0  0  0  0  0  0  0  0  0  0  0
   27.3526  -17.2022  -17.9351 C   0  0  0  0  0  0  0  0  0  0  0  0
   26.7735  -18.0448  -16.9829 C   0  0  0  0  0  0  0  0  0  0  0  0
   26.8768  -20.5985  -12.9144 C   0  0  0  0  0  0  0  0  0  0  0  0
   26.0773  -21.5483  -13.0716 O   0  0  0  0  0  0  0  0  0  0  0  0
   27.2141  -20.2155  -11.5726 N   0  0  0  0  0  0  0  0  0  0  0  0
   26.5972  -20.8225  -10.4039 C   0  0  1  0  0  0  0  0  0  0  0  0
   27.4710  -20.5037   -9.2115 C   0  0  0  0  0  0  0  0  0  0  0  0
   26.8312  -20.7491   -7.9172 C   0  0  0  0  0  0  0  0  0  0  0  0
   25.6289  -21.3671   -7.7242 C   0  0  0  0  0  0  0  0  0  0  0  0
   25.3852  -21.4028   -6.4009 N   0  0  0  0  0  0  0  0  0  0  0  0
   26.4119  -20.8173   -5.7372 C   0  0  0  0  0  0  0  0  0  0  0  0
   26.6954  -20.5762   -4.4010 C   0  0  0  0  0  0  0  0  0  0  0  0
   27.8669  -19.9377   -4.0552 C   0  0  0  0  0  0  0  0  0  0  0  0
   28.7892  -19.5186   -4.9934 C   0  0  0  0  0  0  0  0  0  0  0  0
   28.5135  -19.7542   -6.3116 C   0  0  0  0  0  0  0  0  0  0  0  0
   27.3380  -20.3974   -6.6924 C   0  0  0  0  0  0  0  0  0  0  0  0
   25.2639  -20.1780  -10.1260 C   0  0  0  0  0  0  0  0  0  0  0  0
   25.1614  -18.9833   -9.7922 O   0  0  0  0  0  0  0  0  0  0  0  0
   17.9115  -17.4398  -13.2992 O   0  0  0  0  0  0  0  0  0  0  0  0
   19.1534  -17.9763  -12.9199 C   0  0  0  0  0  0  0  0  0  0  0  0
   19.9306  -17.3378  -11.9850 C   0  0  0  0  0  0  0  0  0  0  0  0
   21.1445  -17.8459  -11.6023 C   0  0  0  0  0  0  0  0  0  0  0  0
   21.6174  -19.0185  -12.1506 C   0  0  0  0  0  0  0  0  0  0  0  0
   22.9207  -19.5304  -11.7239 C   0  0  0  0  0  0  0  0  0  0  0  0
   22.7734  -20.4194  -10.5332 C   0  0  2  0  0  0  0  0  0  0  0  0
   24.1021  -20.9830  -10.2570 N   0  0  0  0  0  0  0  0  0  0  0  0
   21.8476  -21.5518  -10.7151 C   0  0  0  0  0  0  0  0  0  0  0  0
   22.1988  -22.6948  -11.4576 O   0  0  0  0  0  0  0  0  0  0  0  0
   20.8604  -19.6772  -13.0878 C   0  0  0  0  0  0  0  0  0  0  0  0
   19.6254  -19.1473  -13.4678 C   0  0  0  0  0  0  0  0  0  0  0  0
   20.6914  -21.5729  -10.2234 O   0  0  0  0  0  0  0  0  0  0  0  0
  2  1  1  6
  2  3  1  0
  3  4  1  0
  4  5  2  0
  5  6  1  0
  7  6  2  0
  8  7  1  0
  9  8  2  0
  9  4  1  0
 10  2  1  0
 11 10  2  0
 12 10  1  0
 13 12  1  0
 14 15  1  0
 13 14  1  1
 15 23  1  0
 16 17  1  0
 16 15  2  0
 17 18  1  0
 18 23  2  0
 18 19  1  0
 19 20  2  0
 20 21  1  0
 22 21  2  0
 23 22  1  0
 24 13  1  0
 24 25  2  0
 27 37  2  0
 27 26  1  0
 28 27  1  0
 29 30  1  0
 29 28  2  0
 30 36  2  0
 31 30  1  0
 32 31  1  6
 32 33  1  0
 33 24  1  0
 34 32  1  0
 35 34  1  0
 36 37  1  0
 38 34  2  0
M  END
$$$$
