FWY.pdb
     RDKit          3D

 38 41  0  0  1  0  0  0  0  0999 V2000
   28.7527  -19.9830   -8.3899 N   0  0  0  0  0  0  0  0  0  0  0  0
   27.3695  -20.4227   -8.1872 C   0  0  1  0  0  0  0  0  0  0  0  0
   26.8541  -19.6583   -6.9964 C   0  0  0  0  0  0  0  0  0  0  0  0
   27.6915  -19.7436   -5.8042 C   0  0  0  0  0  0  0  0  0  0  0  0
   27.7425  -20.8884   -5.0581 C   0  0  0  0  0  0  0  0  0  0  0  0
   28.5400  -20.9902   -3.9170 C   0  0  0  0  0  0  0  0  0  0  0  0
   29.3055  -19.9016   -3.5232 C   0  0  0  0  0  0  0  0  0  0  0  0
   29.2634  -18.7386   -4.2679 C   0  0  0  0  0  0  0  0  0  0  0  0
   28.4551  -18.6680   -5.4053 C   0  0  0  0  0  0  0  0  0  0  0  0
   26.5980  -20.1566   -9.4246 C   0  0  0  0  0  0  0  0  0  0  0  0
   25.9490  -19.0975   -9.5772 O   0  0  0  0  0  0  0  0  0  0  0  0
   26.5774  -21.1199  -10.4888 N   0  0  0  0  0  0  0  0  0  0  0  0
   26.1440  -20.7913  -11.8374 C   0  0  1  0  0  0  0  0  0  0  0  0
   27.2472  -21.2084  -12.7838 C   0  0  0  0  0  0  0  0  0  0  0  0
   27.3922  -20.3408  -13.9547 C   0  0  0  0  0  0  0  0  0  0  0  0
   28.1200  -19.1867  -14.0092 C   0  0  0  0  0  0  0  0  0  0  0  0
   28.0068  -18.6796  -15.2510 N   0  0  0  0  0  0  0  0  0  0  0  0
   27.2171  -19.4890  -15.9984 C   0  0  0  0  0  0  0  0  0  0  0  0
   26.7659  -19.4673  -17.3098 C   0  0  0  0  0  0  0  0  0  0  0  0
   25.9493  -20.4785  -17.7685 C   0  0  0  0  0  0  0  0  0  0  0  0
   25.5513  -21.5319  -16.9695 C   0  0  0  0  0  0  0  0  0  0  0  0
   25.9937  -21.5568  -15.6761 C   0  0  0  0  0  0  0  0  0  0  0  0
   26.8201  -20.5495  -15.1834 C   0  0  0  0  0  0  0  0  0  0  0  0
   24.9407  -21.6168  -12.2125 C   0  0  0  0  0  0  0  0  0  0  0  0
   24.6719  -22.6926  -11.6471 O   0  0  0  0  0  0  0  0  0  0  0  0
   16.5293  -20.8362  -11.6253 O   0  0  0  0  0  0  0  0  0  0  0  0
   17.9326  -20.8188  -11.6911 C   0  0  0  0  0  0  0  0  0  0  0  0
   18.5907  -19.7363  -12.2211 C   0  0  0  0  0  0  0  0  0  0  0  0
   19.9588  -19.7010  -12.2934 C   0  0  0  0  0  0  0  0  0  0  0  0
   20.7122  -20.7590  -11.8325 C   0  0  0  0  0  0  0  0  0  0  0  0
   22.1711  -20.6915  -11.9301 C   0  0  0  0  0  0  0  0  0  0  0  0
   22.6404  -21.2752  -13.2220 C   0  0  2  0  0  0  0  0  0  0  0  0
   24.1023  -21.1279  -13.2484 N   0  0  0  0  0  0  0  0  0  0  0  0
   22.1127  -20.6145  -14.4293 C   0  0  0  0  0  0  0  0  0  0  0  0
   22.5311  -19.3300  -14.8238 O   0  0  0  0  0  0  0  0  0  0  0  0
   20.0795  -21.8540  -11.2979 C   0  0  0  0  0  0  0  0  0  0  0  0
   18.6846  -21.8756  -11.2307 C   0  0  0  0  0  0  0  0  0  0  0  0
   21.2604  -21.1496  -15.1818 O   0  0  0  0  0  0  0  0  0  0  0  0
  2  1  1  6
  2  3  1  0
  3  4  1  0
  4  5  2  0
  5  6  1  0
  7  6  2  0
  8  7  1  0
  9  8  2  0
  9  4  1  0
 10  2  1  0
 11 10  2  0
 12 10  1  0
 13 12  1  0
 14 15  1  0
 13 14  1  6
 15 23  1  0
 16 17  1  0
 16 15  2  0
 17 18  1  0
 18 23  2  0
 18 19  1  0
 19 20  2  0
 20 21  1  0
 22 21  2  0
 23 22  1  0
 24 13  1  0
 24 25  2  0
 27 37  2  0
 27 26  1  0
 28 27  1  0
 29 30  1  0
 29 28  2  0
 30 36  2  0
 31 30  1  0
 32 31  1  1
 32 33  1  0
 33 24  1  0
 34 32  1  0
 35 34  1  0
 36 37  1  0
 38 34  2  0
M  END
$$$$
