PWE.pdb
     RDKit          3D

 31 33  0  0  1  0  0  0  0  0999 V2000
    7.1859  -15.2675   20.0502 N   0  0  0  0  0  0  0  0  0  0  0  0
    6.3282  -14.1077   20.0250 C   0  0  0  0  0  0  0  0  0  0  0  0
    7.1899  -12.8965   19.8113 C   0  0  0  0  0  0  0  0  0  0  0  0
    8.4997  -13.4596   19.3761 C   0  0  0  0  0  0  0  0  0  0  0  0
    8.5514  -14.8090   20.0096 C   0  0  1  0  0  0  0  0  0  0  0  0
    9.1335  -14.8201   21.3667 C   0  0  0  0  0  0  0  0  0  0  0  0
   10.3240  -14.4325   21.5182 O   0  0  0  0  0  0  0  0  0  0  0  0
    8.4582  -15.2348   22.5245 N   0  0  0  0  0  0  0  0  0  0  0  0
    9.1333  -15.6182   23.7805 C   0  0  1  0  0  0  0  0  0  0  0  0
    8.0225  -16.1136   24.6536 C   0  0  0  0  0  0  0  0  0  0  0  0
    7.2404  -15.1158   25.3752 C   0  0  0  0  0  0  0  0  0  0  0  0
    6.0778  -15.3788   26.1036 C   0  0  0  0  0  0  0  0  0  0  0  0
    5.5860  -14.2418   26.6189 N   0  0  0  0  0  0  0  0  0  0  0  0
    6.3907  -13.2248   26.2541 C   0  0  0  0  0  0  0  0  0  0  0  0
    6.3032  -11.8658   26.5555 C   0  0  0  0  0  0  0  0  0  0  0  0
    7.2588  -11.0083   26.0834 C   0  0  0  0  0  0  0  0  0  0  0  0
    8.2763  -11.5428   25.3208 C   0  0  0  0  0  0  0  0  0  0  0  0
    8.3647  -12.8698   25.0237 C   0  0  0  0  0  0  0  0  0  0  0  0
    7.4115  -13.7532   25.4887 C   0  0  0  0  0  0  0  0  0  0  0  0
   10.1976  -16.5893   23.5423 C   0  0  0  0  0  0  0  0  0  0  0  0
   10.0132  -17.6653   22.9235 O   0  0  0  0  0  0  0  0  0  0  0  0
   11.5366  -16.3429   24.0231 N   0  0  0  0  0  0  0  0  0  0  0  0
   12.5967  -17.3250   23.8827 C   0  0  1  0  0  0  0  0  0  0  0  0
   13.8714  -16.6831   23.3716 C   0  0  0  0  0  0  0  0  0  0  0  0
   15.0367  -17.6470   23.4369 C   0  0  0  0  0  0  0  0  0  0  0  0
   16.2521  -16.9359   22.9833 C   0  0  0  0  0  0  0  0  0  0  0  0
   16.2254  -15.7096   22.7345 O   0  0  0  0  0  0  0  0  0  0  0  0
   12.8273  -17.9777   25.2039 C   0  0  0  0  0  0  0  0  0  0  0  0
   13.5049  -19.1773   25.3443 O   0  0  0  0  0  0  0  0  0  0  0  0
   17.4761  -17.5808   22.8097 O   0  0  0  0  0  0  0  0  0  0  0  0
   12.3911  -17.4208   26.2358 O   0  0  0  0  0  0  0  0  0  0  0  0
  1  2  1  0
  3  2  1  0
  4  3  1  0
  5  4  1  0
  5  1  1  0
  5  6  1  1
  6  8  1  0
  7  6  2  0
  9  8  1  0
  9 10  1  1
 11 10  1  0
 11 19  1  0
 12 11  2  0
 13 12  1  0
 13 14  1  0
 14 15  1  0
 14 19  2  0
 15 16  2  0
 16 17  1  0
 18 17  2  0
 19 18  1  0
 20  9  1  0
 21 20  2  0
 22 20  1  0
 23 22  1  0
 23 24  1  1
 24 25  1  0
 25 26  1  0
 26 30  1  0
 27 26  2  0
 28 23  1  0
 29 28  1  0
 31 28  2  0
M  END
$$$$
