PWE.pdb
     RDKit          3D

 31 33  0  0  1  0  0  0  0  0999 V2000
    7.1416  -15.5487   20.5628 N   0  0  0  0  0  0  0  0  0  0  0  0
    6.1998  -14.4620   20.6778 C   0  0  0  0  0  0  0  0  0  0  0  0
    6.9479  -13.1751   20.4794 C   0  0  0  0  0  0  0  0  0  0  0  0
    8.2573  -13.6045   19.9111 C   0  0  0  0  0  0  0  0  0  0  0  0
    8.4611  -14.9806   20.4495 C   0  0  1  0  0  0  0  0  0  0  0  0
    9.1492  -15.0253   21.7553 C   0  0  0  0  0  0  0  0  0  0  0  0
   10.2010  -14.3467   21.9091 O   0  0  0  0  0  0  0  0  0  0  0  0
    8.7210  -15.7753   22.8611 N   0  0  0  0  0  0  0  0  0  0  0  0
    9.4926  -15.9140   24.1124 C   0  0  1  0  0  0  0  0  0  0  0  0
    8.4622  -16.2760   25.1365 C   0  0  0  0  0  0  0  0  0  0  0  0
    7.4908  -15.2510   25.5023 C   0  0  0  0  0  0  0  0  0  0  0  0
    6.1037  -15.3881   25.4085 C   0  0  0  0  0  0  0  0  0  0  0  0
    5.4985  -14.2540   25.7930 N   0  0  0  0  0  0  0  0  0  0  0  0
    6.4456  -13.3619   26.1422 C   0  0  0  0  0  0  0  0  0  0  0  0
    6.3107  -12.0578   26.6181 C   0  0  0  0  0  0  0  0  0  0  0  0
    7.4298  -11.3353   26.9296 C   0  0  0  0  0  0  0  0  0  0  0  0
    8.6540  -11.9458   26.7533 C   0  0  0  0  0  0  0  0  0  0  0  0
    8.7898  -13.2194   26.2880 C   0  0  0  0  0  0  0  0  0  0  0  0
    7.6746  -13.9667   25.9668 C   0  0  0  0  0  0  0  0  0  0  0  0
   10.5746  -16.8844   23.9703 C   0  0  0  0  0  0  0  0  0  0  0  0
   10.4816  -17.9095   23.2524 O   0  0  0  0  0  0  0  0  0  0  0  0
   11.8241  -16.6975   24.6694 N   0  0  0  0  0  0  0  0  0  0  0  0
   12.9446  -17.6046   24.4969 C   0  0  1  0  0  0  0  0  0  0  0  0
   14.2111  -16.8478   24.1487 C   0  0  0  0  0  0  0  0  0  0  0  0
   15.3791  -17.7908   23.9547 C   0  0  0  0  0  0  0  0  0  0  0  0
   16.6078  -16.9810   23.8017 C   0  0  0  0  0  0  0  0  0  0  0  0
   16.5765  -15.7353   23.9185 O   0  0  0  0  0  0  0  0  0  0  0  0
   13.1269  -18.3896   25.7520 C   0  0  0  0  0  0  0  0  0  0  0  0
   13.8246  -19.5851   25.7991 O   0  0  0  0  0  0  0  0  0  0  0  0
   17.8498  -17.5501   23.5229 O   0  0  0  0  0  0  0  0  0  0  0  0
   12.6291  -17.9534   26.8137 O   0  0  0  0  0  0  0  0  0  0  0  0
  1  2  1  0
  3  2  1  0
  4  3  1  0
  5  4  1  0
  5  1  1  0
  5  6  1  1
  6  8  1  0
  7  6  2  0
  9  8  1  0
  9 10  1  1
 11 10  1  0
 11 19  1  0
 12 11  2  0
 13 12  1  0
 13 14  1  0
 14 15  1  0
 14 19  2  0
 15 16  2  0
 16 17  1  0
 18 17  2  0
 19 18  1  0
 20  9  1  0
 21 20  2  0
 22 20  1  0
 23 22  1  0
 23 24  1  1
 24 25  1  0
 25 26  1  0
 26 30  1  0
 27 26  2  0
 28 23  1  0
 29 28  1  0
 31 28  2  0
M  END
$$$$
