PWE.pdb
     RDKit          3D

 31 33  0  0  1  0  0  0  0  0999 V2000
    7.8031  -18.6328   20.5715 N   0  0  0  0  0  0  0  0  0  0  0  0
    6.7768  -18.2713   19.6242 C   0  0  0  0  0  0  0  0  0  0  0  0
    7.4463  -17.6885   18.4129 C   0  0  0  0  0  0  0  0  0  0  0  0
    8.8803  -18.0592   18.5816 C   0  0  0  0  0  0  0  0  0  0  0  0
    9.0647  -18.1624   20.0582 C   0  0  1  0  0  0  0  0  0  0  0  0
    9.4400  -16.8930   20.7128 C   0  0  0  0  0  0  0  0  0  0  0  0
   10.5348  -16.3507   20.3998 O   0  0  0  0  0  0  0  0  0  0  0  0
    8.6640  -16.2272   21.6735 N   0  0  0  0  0  0  0  0  0  0  0  0
    9.0695  -14.9709   22.3351 C   0  0  1  0  0  0  0  0  0  0  0  0
    7.7758  -14.2650   22.5987 C   0  0  0  0  0  0  0  0  0  0  0  0
    7.2405  -14.3290   23.9542 C   0  0  0  0  0  0  0  0  0  0  0  0
    6.7520  -15.4829   24.5718 C   0  0  0  0  0  0  0  0  0  0  0  0
    6.3056  -15.1959   25.8041 N   0  0  0  0  0  0  0  0  0  0  0  0
    6.4837  -13.8793   26.0267 C   0  0  0  0  0  0  0  0  0  0  0  0
    6.1913  -13.1183   27.1585 C   0  0  0  0  0  0  0  0  0  0  0  0
    6.4801  -11.7813   27.1642 C   0  0  0  0  0  0  0  0  0  0  0  0
    7.0555  -11.2471   26.0301 C   0  0  0  0  0  0  0  0  0  0  0  0
    7.3420  -11.9871   24.9224 C   0  0  0  0  0  0  0  0  0  0  0  0
    7.0586  -13.3377   24.8940 C   0  0  0  0  0  0  0  0  0  0  0  0
    9.8748  -15.2278   23.5259 C   0  0  0  0  0  0  0  0  0  0  0  0
   10.4607  -14.3187   24.1622 O   0  0  0  0  0  0  0  0  0  0  0  0
   10.0327  -16.5721   24.0287 N   0  0  0  0  0  0  0  0  0  0  0  0
   10.8114  -16.8609   25.2197 C   0  0  1  0  0  0  0  0  0  0  0  0
   10.0596  -17.7913   26.1510 C   0  0  0  0  0  0  0  0  0  0  0  0
   10.9015  -18.1646   27.3523 C   0  0  0  0  0  0  0  0  0  0  0  0
   10.1191  -19.0951   28.1953 C   0  0  0  0  0  0  0  0  0  0  0  0
   10.5629  -19.4955   29.2950 O   0  0  0  0  0  0  0  0  0  0  0  0
   12.1134  -17.4624   24.8104 C   0  0  0  0  0  0  0  0  0  0  0  0
   13.2899  -17.2638   25.5135 O   0  0  0  0  0  0  0  0  0  0  0  0
    8.8638  -19.5713   27.8189 O   0  0  0  0  0  0  0  0  0  0  0  0
   12.1507  -18.1798   23.7861 O   0  0  0  0  0  0  0  0  0  0  0  0
  1  2  1  0
  3  2  1  0
  4  3  1  0
  5  4  1  0
  5  1  1  0
  5  6  1  1
  6  8  1  0
  7  6  2  0
  9  8  1  0
  9 10  1  1
 11 10  1  0
 11 19  1  0
 12 11  2  0
 13 12  1  0
 13 14  1  0
 14 15  1  0
 14 19  2  0
 15 16  2  0
 16 17  1  0
 18 17  2  0
 19 18  1  0
 20  9  1  0
 21 20  2  0
 22 20  1  0
 23 22  1  0
 23 24  1  1
 24 25  1  0
 25 26  1  0
 26 30  1  0
 27 26  2  0
 28 23  1  0
 29 28  1  0
 31 28  2  0
M  END
$$$$
