PWE.pdb
     RDKit          3D

 31 33  0  0  1  0  0  0  0  0999 V2000
    7.2087  -15.5726   20.3304 N   0  0  0  0  0  0  0  0  0  0  0  0
    6.2789  -14.4713   20.3924 C   0  0  0  0  0  0  0  0  0  0  0  0
    7.0483  -13.2001   20.1749 C   0  0  0  0  0  0  0  0  0  0  0  0
    8.3647  -13.6622   19.6498 C   0  0  0  0  0  0  0  0  0  0  0  0
    8.5378  -15.0246   20.2318 C   0  0  1  0  0  0  0  0  0  0  0  0
    9.1950  -15.0403   21.5541 C   0  0  0  0  0  0  0  0  0  0  0  0
   10.3023  -14.4513   21.6871 O   0  0  0  0  0  0  0  0  0  0  0  0
    8.6794  -15.6691   22.6974 N   0  0  0  0  0  0  0  0  0  0  0  0
    9.4230  -15.8152   23.9647 C   0  0  1  0  0  0  0  0  0  0  0  0
    8.3823  -16.2517   24.9485 C   0  0  0  0  0  0  0  0  0  0  0  0
    7.3426  -15.2895   25.2967 C   0  0  0  0  0  0  0  0  0  0  0  0
    5.9683  -15.5255   25.2127 C   0  0  0  0  0  0  0  0  0  0  0  0
    5.2863  -14.4285   25.5754 N   0  0  0  0  0  0  0  0  0  0  0  0
    6.1696  -13.4647   25.9005 C   0  0  0  0  0  0  0  0  0  0  0  0
    5.9451  -12.1631   26.3486 C   0  0  0  0  0  0  0  0  0  0  0  0
    7.0117  -11.3572   26.6389 C   0  0  0  0  0  0  0  0  0  0  0  0
    8.2751  -11.8842   26.4699 C   0  0  0  0  0  0  0  0  0  0  0  0
    8.4984  -13.1550   26.0317 C   0  0  0  0  0  0  0  0  0  0  0  0
    7.4374  -13.9855   25.7323 C   0  0  0  0  0  0  0  0  0  0  0  0
   10.5484  -16.7349   23.8230 C   0  0  0  0  0  0  0  0  0  0  0  0
   10.4575  -17.8379   23.2315 O   0  0  0  0  0  0  0  0  0  0  0  0
   11.8413  -16.4025   24.3732 N   0  0  0  0  0  0  0  0  0  0  0  0
   12.9922  -17.2729   24.2121 C   0  0  1  0  0  0  0  0  0  0  0  0
   14.1661  -16.5211   23.6164 C   0  0  0  0  0  0  0  0  0  0  0  0
   15.4006  -17.3944   23.5483 C   0  0  0  0  0  0  0  0  0  0  0  0
   16.4494  -16.6573   22.8098 C   0  0  0  0  0  0  0  0  0  0  0  0
   16.3667  -15.4204   22.6374 O   0  0  0  0  0  0  0  0  0  0  0  0
   13.3523  -17.8469   25.5409 C   0  0  0  0  0  0  0  0  0  0  0  0
   14.1228  -18.9885   25.6854 O   0  0  0  0  0  0  0  0  0  0  0  0
   17.5708  -17.2881   22.2725 O   0  0  0  0  0  0  0  0  0  0  0  0
   12.9424  -17.2754   26.5756 O   0  0  0  0  0  0  0  0  0  0  0  0
  1  2  1  0
  3  2  1  0
  4  3  1  0
  5  4  1  0
  5  1  1  0
  5  6  1  1
  6  8  1  0
  7  6  2  0
  9  8  1  0
  9 10  1  1
 11 10  1  0
 11 19  1  0
 12 11  2  0
 13 12  1  0
 13 14  1  0
 14 15  1  0
 14 19  2  0
 15 16  2  0
 16 17  1  0
 18 17  2  0
 19 18  1  0
 20  9  1  0
 21 20  2  0
 22 20  1  0
 23 22  1  0
 23 24  1  1
 24 25  1  0
 25 26  1  0
 26 30  1  0
 27 26  2  0
 28 23  1  0
 29 28  1  0
 31 28  2  0
M  END
$$$$
