PWE.pdb
     RDKit          3D

 31 33  0  0  1  0  0  0  0  0999 V2000
    7.8662  -15.3507   18.3112 N   0  0  0  0  0  0  0  0  0  0  0  0
    6.7201  -14.5182   18.0377 C   0  0  0  0  0  0  0  0  0  0  0  0
    7.1654  -13.0847   18.0816 C   0  0  0  0  0  0  0  0  0  0  0  0
    8.6532  -13.1692   18.0448 C   0  0  0  0  0  0  0  0  0  0  0  0
    8.9645  -14.4885   18.6673 C   0  0  1  0  0  0  0  0  0  0  0  0
    9.1230  -14.4445   20.1348 C   0  0  0  0  0  0  0  0  0  0  0  0
   10.0588  -13.7538   20.6224 O   0  0  0  0  0  0  0  0  0  0  0  0
    8.3024  -15.1213   21.0498 N   0  0  0  0  0  0  0  0  0  0  0  0
    8.4891  -15.0783   22.5139 C   0  0  1  0  0  0  0  0  0  0  0  0
    7.0943  -15.0466   23.0573 C   0  0  0  0  0  0  0  0  0  0  0  0
    6.9368  -14.8077   24.4877 C   0  0  0  0  0  0  0  0  0  0  0  0
    6.6825  -15.7936   25.4441 C   0  0  0  0  0  0  0  0  0  0  0  0
    6.5617  -15.2399   26.6603 N   0  0  0  0  0  0  0  0  0  0  0  0
    6.7293  -13.9084   26.5417 C   0  0  0  0  0  0  0  0  0  0  0  0
    6.7081  -12.9159   27.5214 C   0  0  0  0  0  0  0  0  0  0  0  0
    6.9246  -11.6130   27.1650 C   0  0  0  0  0  0  0  0  0  0  0  0
    7.1565  -11.3454   25.8319 C   0  0  0  0  0  0  0  0  0  0  0  0
    7.1773  -12.3123   24.8719 C   0  0  0  0  0  0  0  0  0  0  0  0
    6.9608  -13.6333   25.2084 C   0  0  0  0  0  0  0  0  0  0  0  0
    9.2987  -16.1989   22.9842 C   0  0  0  0  0  0  0  0  0  0  0  0
    9.0694  -17.3894   22.6603 O   0  0  0  0  0  0  0  0  0  0  0  0
   10.4218  -15.9744   23.8635 N   0  0  0  0  0  0  0  0  0  0  0  0
   11.3355  -17.0412   24.2312 C   0  0  1  0  0  0  0  0  0  0  0  0
   12.7781  -16.5997   24.0830 C   0  0  0  0  0  0  0  0  0  0  0  0
   13.7337  -17.6829   24.5355 C   0  0  0  0  0  0  0  0  0  0  0  0
   15.1154  -17.2105   24.2982 C   0  0  0  0  0  0  0  0  0  0  0  0
   15.3352  -16.0636   23.8478 O   0  0  0  0  0  0  0  0  0  0  0  0
   11.0520  -17.4560   25.6356 C   0  0  0  0  0  0  0  0  0  0  0  0
   11.5171  -18.6414   26.1802 O   0  0  0  0  0  0  0  0  0  0  0  0
   16.2328  -18.0029   24.5583 O   0  0  0  0  0  0  0  0  0  0  0  0
   10.3632  -16.7030   26.3593 O   0  0  0  0  0  0  0  0  0  0  0  0
  1  2  1  0
  3  2  1  0
  4  3  1  0
  5  4  1  0
  5  1  1  0
  5  6  1  1
  6  8  1  0
  7  6  2  0
  9  8  1  0
  9 10  1  1
 11 10  1  0
 11 19  1  0
 12 11  2  0
 13 12  1  0
 13 14  1  0
 14 15  1  0
 14 19  2  0
 15 16  2  0
 16 17  1  0
 18 17  2  0
 19 18  1  0
 20  9  1  0
 21 20  2  0
 22 20  1  0
 23 22  1  0
 23 24  1  1
 24 25  1  0
 25 26  1  0
 26 30  1  0
 27 26  2  0
 28 23  1  0
 29 28  1  0
 31 28  2  0
M  END
$$$$
