PWE.pdb
     RDKit          3D

 31 33  0  0  1  0  0  0  0  0999 V2000
    7.2379  -15.4240   19.7819 N   0  0  0  0  0  0  0  0  0  0  0  0
    7.9150  -15.5590   18.5151 C   0  0  0  0  0  0  0  0  0  0  0  0
    8.7772  -16.7869   18.5771 C   0  0  0  0  0  0  0  0  0  0  0  0
    8.2885  -17.5085   19.7864 C   0  0  0  0  0  0  0  0  0  0  0  0
    7.7584  -16.4311   20.6714 C   0  0  1  0  0  0  0  0  0  0  0  0
    8.7641  -15.8407   21.5773 C   0  0  0  0  0  0  0  0  0  0  0  0
    9.9720  -15.8273   21.2149 O   0  0  0  0  0  0  0  0  0  0  0  0
    8.4812  -15.2824   22.8330 N   0  0  0  0  0  0  0  0  0  0  0  0
    9.0559  -15.7722   24.1019 C   0  0  1  0  0  0  0  0  0  0  0  0
    7.8610  -16.1621   24.9155 C   0  0  0  0  0  0  0  0  0  0  0  0
    7.1059  -15.0903   25.5549 C   0  0  0  0  0  0  0  0  0  0  0  0
    5.7998  -15.2042   26.0372 C   0  0  0  0  0  0  0  0  0  0  0  0
    5.3860  -14.0302   26.5378 N   0  0  0  0  0  0  0  0  0  0  0  0
    6.3826  -13.1337   26.4030 C   0  0  0  0  0  0  0  0  0  0  0  0
    6.4341  -11.7930   26.7841 C   0  0  0  0  0  0  0  0  0  0  0  0
    7.5750  -11.0723   26.5598 C   0  0  0  0  0  0  0  0  0  0  0  0
    8.6327  -11.7215   25.9578 C   0  0  0  0  0  0  0  0  0  0  0  0
    8.5858  -13.0309   25.5834 C   0  0  0  0  0  0  0  0  0  0  0  0
    7.4449  -13.7771   25.7993 C   0  0  0  0  0  0  0  0  0  0  0  0
   10.0144  -16.8504   23.8755 C   0  0  0  0  0  0  0  0  0  0  0  0
    9.6857  -17.9690   23.4114 O   0  0  0  0  0  0  0  0  0  0  0  0
   11.4124  -16.6663   24.1862 N   0  0  0  0  0  0  0  0  0  0  0  0
   12.3613  -17.7644   24.1397 C   0  0  1  0  0  0  0  0  0  0  0  0
   13.6825  -17.3194   23.5444 C   0  0  0  0  0  0  0  0  0  0  0  0
   14.3042  -16.2046   24.3580 C   0  0  0  0  0  0  0  0  0  0  0  0
   15.5527  -15.7815   23.6863 C   0  0  0  0  0  0  0  0  0  0  0  0
   15.5401  -14.8931   22.8047 O   0  0  0  0  0  0  0  0  0  0  0  0
   12.5558  -18.2922   25.5211 C   0  0  0  0  0  0  0  0  0  0  0  0
   13.2990  -19.4279   25.7967 O   0  0  0  0  0  0  0  0  0  0  0  0
   16.7935  -16.3393   23.9918 O   0  0  0  0  0  0  0  0  0  0  0  0
   12.0258  -17.6858   26.4785 O   0  0  0  0  0  0  0  0  0  0  0  0
  1  2  1  0
  3  2  1  0
  4  3  1  0
  5  4  1  0
  5  1  1  0
  5  6  1  6
  6  8  1  0
  7  6  2  0
  9  8  1  0
  9 10  1  1
 11 10  1  0
 11 19  1  0
 12 11  2  0
 13 12  1  0
 13 14  1  0
 14 15  1  0
 14 19  2  0
 15 16  2  0
 16 17  1  0
 18 17  2  0
 19 18  1  0
 20  9  1  0
 21 20  2  0
 22 20  1  0
 23 22  1  0
 23 24  1  1
 24 25  1  0
 25 26  1  0
 26 30  1  0
 27 26  2  0
 28 23  1  0
 29 28  1  0
 31 28  2  0
M  END
$$$$
