PWE.pdb
     RDKit          3D

 31 33  0  0  1  0  0  0  0  0999 V2000
    7.2573  -15.6900   20.8810 N   0  0  0  0  0  0  0  0  0  0  0  0
    6.1401  -14.7905   21.0363 C   0  0  0  0  0  0  0  0  0  0  0  0
    6.6633  -13.3842   20.9752 C   0  0  0  0  0  0  0  0  0  0  0  0
    8.0452  -13.5379   20.4376 C   0  0  0  0  0  0  0  0  0  0  0  0
    8.4632  -14.9012   20.8753 C   0  0  1  0  0  0  0  0  0  0  0  0
    9.1048  -14.9413   22.2048 C   0  0  0  0  0  0  0  0  0  0  0  0
    9.9886  -14.0837   22.4768 O   0  0  0  0  0  0  0  0  0  0  0  0
    8.8067  -15.8734   23.2102 N   0  0  0  0  0  0  0  0  0  0  0  0
    9.5809  -16.0149   24.4596 C   0  0  1  0  0  0  0  0  0  0  0  0
    8.5365  -16.2155   25.5135 C   0  0  0  0  0  0  0  0  0  0  0  0
    7.5247  -15.1753   25.6620 C   0  0  0  0  0  0  0  0  0  0  0  0
    6.1563  -15.3474   25.4398 C   0  0  0  0  0  0  0  0  0  0  0  0
    5.5057  -14.1899   25.6330 N   0  0  0  0  0  0  0  0  0  0  0  0
    6.4044  -13.2479   25.9796 C   0  0  0  0  0  0  0  0  0  0  0  0
    6.2106  -11.9028   26.2936 C   0  0  0  0  0  0  0  0  0  0  0  0
    7.2854  -11.1303   26.6392 C   0  0  0  0  0  0  0  0  0  0  0  0
    8.5257  -11.7335   26.6591 C   0  0  0  0  0  0  0  0  0  0  0  0
    8.7189  -13.0470   26.3523 C   0  0  0  0  0  0  0  0  0  0  0  0
    7.6493  -13.8452   26.0002 C   0  0  0  0  0  0  0  0  0  0  0  0
   10.5615  -17.0926   24.3636 C   0  0  0  0  0  0  0  0  0  0  0  0
   10.2450  -18.2838   24.1279 O   0  0  0  0  0  0  0  0  0  0  0  0
   11.9686  -16.8221   24.5420 N   0  0  0  0  0  0  0  0  0  0  0  0
   12.9422  -17.8876   24.7007 C   0  0  1  0  0  0  0  0  0  0  0  0
   14.3454  -17.3926   24.4104 C   0  0  0  0  0  0  0  0  0  0  0  0
   14.3938  -16.6033   23.1198 C   0  0  0  0  0  0  0  0  0  0  0  0
   15.7766  -16.1139   22.9276 C   0  0  0  0  0  0  0  0  0  0  0  0
   16.1713  -15.7238   21.8057 O   0  0  0  0  0  0  0  0  0  0  0  0
   12.8482  -18.4237   26.0893 C   0  0  0  0  0  0  0  0  0  0  0  0
   12.0540  -17.8488   27.0674 O   0  0  0  0  0  0  0  0  0  0  0  0
   16.7034  -16.0604   23.9679 O   0  0  0  0  0  0  0  0  0  0  0  0
   13.5148  -19.4387   26.3902 O   0  0  0  0  0  0  0  0  0  0  0  0
  1  2  1  0
  3  2  1  0
  4  3  1  0
  5  4  1  0
  5  1  1  0
  5  6  1  1
  6  8  1  0
  7  6  2  0
  9  8  1  0
  9 10  1  1
 11 10  1  0
 11 19  1  0
 12 11  2  0
 13 12  1  0
 13 14  1  0
 14 15  1  0
 14 19  2  0
 15 16  2  0
 16 17  1  0
 18 17  2  0
 19 18  1  0
 20  9  1  0
 21 20  2  0
 22 20  1  0
 23 22  1  0
 23 24  1  1
 24 25  1  0
 25 26  1  0
 26 30  1  0
 27 26  2  0
 28 23  1  0
 29 28  1  0
 31 28  2  0
M  END
$$$$
