PWE.pdb
     RDKit          3D

 31 33  0  0  1  0  0  0  0  0999 V2000
    7.3317  -15.7172   20.6067 N   0  0  0  0  0  0  0  0  0  0  0  0
    6.3687  -14.6430   20.6246 C   0  0  0  0  0  0  0  0  0  0  0  0
    7.0964  -13.3612   20.3375 C   0  0  0  0  0  0  0  0  0  0  0  0
    8.4217  -13.8080   19.8218 C   0  0  0  0  0  0  0  0  0  0  0  0
    8.6422  -15.1344   20.4676 C   0  0  1  0  0  0  0  0  0  0  0  0
    9.3114  -15.0652   21.7822 C   0  0  0  0  0  0  0  0  0  0  0  0
   10.3838  -14.4091   21.8820 O   0  0  0  0  0  0  0  0  0  0  0  0
    8.8436  -15.6815   22.9526 N   0  0  0  0  0  0  0  0  0  0  0  0
    9.6057  -15.7386   24.2160 C   0  0  1  0  0  0  0  0  0  0  0  0
    8.5700  -16.0500   25.2514 C   0  0  0  0  0  0  0  0  0  0  0  0
    7.5483  -15.0398   25.5035 C   0  0  0  0  0  0  0  0  0  0  0  0
    6.1722  -15.2364   25.3652 C   0  0  0  0  0  0  0  0  0  0  0  0
    5.5113  -14.1021   25.6425 N   0  0  0  0  0  0  0  0  0  0  0  0
    6.4107  -13.1517   25.9634 C   0  0  0  0  0  0  0  0  0  0  0  0
    6.2096  -11.8233   26.3380 C   0  0  0  0  0  0  0  0  0  0  0  0
    7.2881  -11.0381   26.6403 C   0  0  0  0  0  0  0  0  0  0  0  0
    8.5396  -11.6121   26.5570 C   0  0  0  0  0  0  0  0  0  0  0  0
    8.7400  -12.9092   26.1908 C   0  0  0  0  0  0  0  0  0  0  0  0
    7.6667  -13.7197   25.8807 C   0  0  0  0  0  0  0  0  0  0  0  0
   10.6981  -16.7047   24.1400 C   0  0  0  0  0  0  0  0  0  0  0  0
   10.5160  -17.9225   23.8978 O   0  0  0  0  0  0  0  0  0  0  0  0
   12.0641  -16.2853   24.3473 N   0  0  0  0  0  0  0  0  0  0  0  0
   13.1785  -17.2080   24.2249 C   0  0  1  0  0  0  0  0  0  0  0  0
   14.4703  -16.4686   23.9369 C   0  0  0  0  0  0  0  0  0  0  0  0
   15.6331  -17.4275   23.7977 C   0  0  0  0  0  0  0  0  0  0  0  0
   16.8108  -16.6631   23.3315 C   0  0  0  0  0  0  0  0  0  0  0  0
   17.8786  -17.2440   23.0333 O   0  0  0  0  0  0  0  0  0  0  0  0
   13.2917  -17.9970   25.4855 C   0  0  0  0  0  0  0  0  0  0  0  0
   13.7967  -19.2860   25.5255 O   0  0  0  0  0  0  0  0  0  0  0  0
   16.7985  -15.2750   23.2001 O   0  0  0  0  0  0  0  0  0  0  0  0
   12.9149  -17.4761   26.5588 O   0  0  0  0  0  0  0  0  0  0  0  0
  1  2  1  0
  3  2  1  0
  4  3  1  0
  5  4  1  0
  5  1  1  0
  5  6  1  1
  6  8  1  0
  7  6  2  0
  9  8  1  0
  9 10  1  1
 11 10  1  0
 11 19  1  0
 12 11  2  0
 13 12  1  0
 13 14  1  0
 14 15  1  0
 14 19  2  0
 15 16  2  0
 16 17  1  0
 18 17  2  0
 19 18  1  0
 20  9  1  0
 21 20  2  0
 22 20  1  0
 23 22  1  0
 23 24  1  1
 24 25  1  0
 25 26  1  0
 26 30  1  0
 27 26  2  0
 28 23  1  0
 29 28  1  0
 31 28  2  0
M  END
$$$$
