PWE.pdb
     RDKit          3D

 31 33  0  0  1  0  0  0  0  0999 V2000
    7.3512  -15.9806   20.6912 N   0  0  0  0  0  0  0  0  0  0  0  0
    6.2789  -15.0174   20.7527 C   0  0  0  0  0  0  0  0  0  0  0  0
    6.8706  -13.6499   20.5659 C   0  0  0  0  0  0  0  0  0  0  0  0
    8.2454  -13.9197   20.0568 C   0  0  0  0  0  0  0  0  0  0  0  0
    8.5943  -15.2549   20.6227 C   0  0  1  0  0  0  0  0  0  0  0  0
    9.2278  -15.2021   21.9556 C   0  0  0  0  0  0  0  0  0  0  0  0
   10.2042  -14.4236   22.1316 O   0  0  0  0  0  0  0  0  0  0  0  0
    8.8253  -15.9617   23.0645 N   0  0  0  0  0  0  0  0  0  0  0  0
    9.5689  -16.0190   24.3389 C   0  0  1  0  0  0  0  0  0  0  0  0
    8.5041  -16.2186   25.3723 C   0  0  0  0  0  0  0  0  0  0  0  0
    7.4764  -15.1894   25.4842 C   0  0  0  0  0  0  0  0  0  0  0  0
    6.1212  -15.3723   25.1984 C   0  0  0  0  0  0  0  0  0  0  0  0
    5.4512  -14.2230   25.3724 N   0  0  0  0  0  0  0  0  0  0  0  0
    6.3238  -13.2759   25.7680 C   0  0  0  0  0  0  0  0  0  0  0  0
    6.1028  -11.9357   26.0852 C   0  0  0  0  0  0  0  0  0  0  0  0
    7.1531  -11.1564   26.4863 C   0  0  0  0  0  0  0  0  0  0  0  0
    8.3971  -11.7480   26.5570 C   0  0  0  0  0  0  0  0  0  0  0  0
    8.6170  -13.0566   26.2473 C   0  0  0  0  0  0  0  0  0  0  0  0
    7.5724  -13.8615   25.8397 C   0  0  0  0  0  0  0  0  0  0  0  0
   10.5944  -17.0583   24.3149 C   0  0  0  0  0  0  0  0  0  0  0  0
   10.3387  -18.2634   24.0758 O   0  0  0  0  0  0  0  0  0  0  0  0
   11.9768  -16.7311   24.5735 N   0  0  0  0  0  0  0  0  0  0  0  0
   12.9901  -17.7565   24.7467 C   0  0  1  0  0  0  0  0  0  0  0  0
   14.3807  -17.1910   24.5354 C   0  0  0  0  0  0  0  0  0  0  0  0
   14.4975  -16.5079   23.1897 C   0  0  0  0  0  0  0  0  0  0  0  0
   15.8486  -15.9140   23.0873 C   0  0  0  0  0  0  0  0  0  0  0  0
   16.5505  -16.0836   22.0650 O   0  0  0  0  0  0  0  0  0  0  0  0
   12.8588  -18.3378   26.1140 C   0  0  0  0  0  0  0  0  0  0  0  0
   13.5510  -19.4652   26.5237 O   0  0  0  0  0  0  0  0  0  0  0  0
   16.4078  -15.1448   24.1069 O   0  0  0  0  0  0  0  0  0  0  0  0
   12.0898  -17.7863   26.9324 O   0  0  0  0  0  0  0  0  0  0  0  0
  1  2  1  0
  3  2  1  0
  4  3  1  0
  5  4  1  0
  5  1  1  0
  5  6  1  1
  6  8  1  0
  7  6  2  0
  9  8  1  0
  9 10  1  1
 11 10  1  0
 11 19  1  0
 12 11  2  0
 13 12  1  0
 13 14  1  0
 14 15  1  0
 14 19  2  0
 15 16  2  0
 16 17  1  0
 18 17  2  0
 19 18  1  0
 20  9  1  0
 21 20  2  0
 22 20  1  0
 23 22  1  0
 23 24  1  1
 24 25  1  0
 25 26  1  0
 26 30  1  0
 27 26  2  0
 28 23  1  0
 29 28  1  0
 31 28  2  0
M  END
$$$$
