CCM.pdb
     RDKit          3D

 21 20  0  0  1  0  0  0  0  0999 V2000
   25.0999  -15.9989  -16.9012 N   0  0  0  0  0  0  0  0  0  0  0  0
   24.9745  -14.8831  -15.9853 C   0  0  1  0  0  0  0  0  0  0  0  0
   26.3426  -14.4094  -15.6163 C   0  0  0  0  0  0  0  0  0  0  0  0
   27.0978  -15.6993  -14.5614 S   0  0  0  0  0  0  0  0  0  0  0  0
   24.1016  -13.8245  -16.5361 C   0  0  0  0  0  0  0  0  0  0  0  0
   24.0831  -13.6457  -17.7814 O   0  0  0  0  0  0  0  0  0  0  0  0
   23.2891  -13.0047  -15.7402 N   0  0  0  0  0  0  0  0  0  0  0  0
   22.4135  -11.9986  -16.3604 C   0  0  1  0  0  0  0  0  0  0  0  0
   20.9870  -12.5397  -16.3325 C   0  0  0  0  0  0  0  0  0  0  0  0
   20.7586  -13.6489  -14.9477 S   0  0  0  0  0  0  0  0  0  0  0  0
   22.5632  -10.7610  -15.5808 C   0  0  0  0  0  0  0  0  0  0  0  0
   22.7473  -10.8021  -14.3230 O   0  0  0  0  0  0  0  0  0  0  0  0
   25.3284   -5.2611  -17.4119 C   0  0  0  0  0  0  0  0  0  0  0  0
   23.8297   -4.6017  -16.6566 S   0  0  0  0  0  0  0  0  0  0  0  0
   23.1794   -5.8581  -15.5141 C   0  0  0  0  0  0  0  0  0  0  0  0
   23.0493   -7.1843  -16.2194 C   0  0  0  0  0  0  0  0  0  0  0  0
   22.5821   -8.2976  -15.3124 C   0  0  2  0  0  0  0  0  0  0  0  0
   22.5118   -9.4951  -16.1891 N   0  0  0  0  0  0  0  0  0  0  0  0
   21.2218   -7.9937  -14.8032 C   0  0  0  0  0  0  0  0  0  0  0  0
   20.9545   -7.3633  -13.6066 O   0  0  0  0  0  0  0  0  0  0  0  0
   20.2026   -8.3292  -15.5018 O   0  0  0  0  0  0  0  0  0  0  0  0
  2  1  1  6
  3  2  1  0
  4  3  1  0
  5  2  1  0
  5  6  2  0
  7  5  1  0
  8  7  1  0
  8  9  1  1
 10  9  1  0
 11  8  1  0
 12 11  2  0
 13 14  1  0
 15 14  1  0
 16 15  1  0
 17 18  1  0
 17 16  1  6
 18 11  1  0
 19 17  1  0
 20 19  1  0
 21 19  2  0
M  END
$$$$
