CCM.pdb
     RDKit          3D

 21 20  0  0  1  0  0  0  0  0999 V2000
   18.6420  -10.2864  -15.0751 N   0  0  0  0  0  0  0  0  0  0  0  0
   18.8995   -9.0732  -15.8245 C   0  0  1  0  0  0  0  0  0  0  0  0
   17.7077   -8.7721  -16.6737 C   0  0  0  0  0  0  0  0  0  0  0  0
   17.8135   -9.8392  -18.1560 S   0  0  0  0  0  0  0  0  0  0  0  0
   19.2991   -7.9611  -14.9359 C   0  0  0  0  0  0  0  0  0  0  0  0
   18.5257   -7.6288  -14.0008 O   0  0  0  0  0  0  0  0  0  0  0  0
   20.5005   -7.2531  -15.0809 N   0  0  0  0  0  0  0  0  0  0  0  0
   20.8360   -6.1602  -14.1552 C   0  0  1  0  0  0  0  0  0  0  0  0
   22.1295   -6.5358  -13.4382 C   0  0  0  0  0  0  0  0  0  0  0  0
   22.7610   -5.1469  -12.5043 S   0  0  0  0  0  0  0  0  0  0  0  0
   20.9727   -4.9401  -14.9641 C   0  0  0  0  0  0  0  0  0  0  0  0
   21.6152   -4.9550  -16.0617 O   0  0  0  0  0  0  0  0  0  0  0  0
   17.6012    1.5173  -17.4940 C   0  0  0  0  0  0  0  0  0  0  0  0
   17.5347   -0.0005  -16.5228 S   0  0  0  0  0  0  0  0  0  0  0  0
   19.2290   -0.6436  -16.3729 C   0  0  0  0  0  0  0  0  0  0  0  0
   19.2306   -1.9232  -15.5755 C   0  0  0  0  0  0  0  0  0  0  0  0
   20.6040   -2.5351  -15.4347 C   0  0  2  0  0  0  0  0  0  0  0  0
   20.4020   -3.7204  -14.5616 N   0  0  0  0  0  0  0  0  0  0  0  0
   21.5112   -1.5817  -14.7491 C   0  0  0  0  0  0  0  0  0  0  0  0
   22.2759   -0.6288  -15.3878 O   0  0  0  0  0  0  0  0  0  0  0  0
   21.6137   -1.6225  -13.4735 O   0  0  0  0  0  0  0  0  0  0  0  0
  2  1  1  1
  3  2  1  0
  4  3  1  0
  5  2  1  0
  5  6  2  0
  7  5  1  0
  8  7  1  0
  8  9  1  6
 10  9  1  0
 11  8  1  0
 12 11  2  0
 13 14  1  0
 15 14  1  0
 16 15  1  0
 17 18  1  0
 17 16  1  1
 18 11  1  0
 19 17  1  0
 20 19  1  0
 21 19  2  0
M  END
$$$$
