CCM.pdb
     RDKit          3D

 21 20  0  0  1  0  0  0  0  0999 V2000
   13.2231  -12.7248  -13.4060 N   0  0  0  0  0  0  0  0  0  0  0  0
   13.8191  -11.5007  -12.9101 C   0  0  1  0  0  0  0  0  0  0  0  0
   14.4265  -11.7707  -11.5721 C   0  0  0  0  0  0  0  0  0  0  0  0
   13.0574  -11.8577  -10.3617 S   0  0  0  0  0  0  0  0  0  0  0  0
   14.7615  -10.9202  -13.8904 C   0  0  0  0  0  0  0  0  0  0  0  0
   15.3570  -11.6931  -14.6848 O   0  0  0  0  0  0  0  0  0  0  0  0
   15.0286   -9.5469  -13.9821 N   0  0  0  0  0  0  0  0  0  0  0  0
   15.8535   -9.0215  -15.0808 C   0  0  1  0  0  0  0  0  0  0  0  0
   15.0012   -8.0362  -15.8751 C   0  0  0  0  0  0  0  0  0  0  0  0
   14.2883   -6.8021  -14.7940 S   0  0  0  0  0  0  0  0  0  0  0  0
   17.0287   -8.3851  -14.4679 C   0  0  0  0  0  0  0  0  0  0  0  0
   16.9740   -7.9176  -13.2864 O   0  0  0  0  0  0  0  0  0  0  0  0
   22.7598  -10.8573  -13.2516 C   0  0  0  0  0  0  0  0  0  0  0  0
   23.1282   -9.4048  -14.2545 S   0  0  0  0  0  0  0  0  0  0  0  0
   21.8145   -8.1802  -13.9695 C   0  0  0  0  0  0  0  0  0  0  0  0
   20.5380   -8.6220  -14.6393 C   0  0  0  0  0  0  0  0  0  0  0  0
   19.3962   -7.6535  -14.4421 C   0  0  2  0  0  0  0  0  0  0  0  0
   18.2489   -8.2713  -15.1560 N   0  0  0  0  0  0  0  0  0  0  0  0
   19.7207   -6.3562  -15.0852 C   0  0  0  0  0  0  0  0  0  0  0  0
   20.3530   -5.3049  -14.4560 O   0  0  0  0  0  0  0  0  0  0  0  0
   19.4028   -6.1686  -16.3112 O   0  0  0  0  0  0  0  0  0  0  0  0
  2  1  1  6
  3  2  1  0
  4  3  1  0
  5  2  1  0
  5  6  2  0
  7  5  1  0
  8  7  1  0
  8  9  1  1
 10  9  1  0
 11  8  1  0
 12 11  2  0
 13 14  1  0
 15 14  1  0
 16 15  1  0
 17 18  1  0
 17 16  1  6
 18 11  1  0
 19 17  1  0
 20 19  1  0
 21 19  2  0
M  END
$$$$
