CCM.pdb
     RDKit          3D

 21 20  0  0  1  0  0  0  0  0999 V2000
   23.1718  -18.3360  -15.8327 N   0  0  0  0  0  0  0  0  0  0  0  0
   24.4737  -18.5700  -15.2411 C   0  0  1  0  0  0  0  0  0  0  0  0
   25.3146  -17.3504  -15.4345 C   0  0  0  0  0  0  0  0  0  0  0  0
   24.4181  -15.9468  -14.6774 S   0  0  0  0  0  0  0  0  0  0  0  0
   24.3595  -19.0024  -13.8319 C   0  0  0  0  0  0  0  0  0  0  0  0
   23.3559  -18.6348  -13.1679 O   0  0  0  0  0  0  0  0  0  0  0  0
   25.3153  -19.8045  -13.1925 N   0  0  0  0  0  0  0  0  0  0  0  0
   25.1112  -20.2392  -11.8021 C   0  0  1  0  0  0  0  0  0  0  0  0
   24.7503  -21.7217  -11.8243 C   0  0  0  0  0  0  0  0  0  0  0  0
   23.0193  -21.9569  -11.4392 S   0  0  0  0  0  0  0  0  0  0  0  0
   26.3652  -19.9742  -11.0817 C   0  0  0  0  0  0  0  0  0  0  0  0
   27.4466  -19.7573  -11.7150 O   0  0  0  0  0  0  0  0  0  0  0  0
   26.8324  -18.9737   -4.7707 C   0  0  0  0  0  0  0  0  0  0  0  0
   28.2638  -20.0578   -4.9360 S   0  0  0  0  0  0  0  0  0  0  0  0
   28.6978  -20.1463   -6.6997 C   0  0  0  0  0  0  0  0  0  0  0  0
   27.4642  -19.9685   -7.5481 C   0  0  0  0  0  0  0  0  0  0  0  0
   27.7549  -19.9750   -9.0300 C   0  0  2  0  0  0  0  0  0  0  0  0
   26.4178  -19.9477   -9.6775 N   0  0  0  0  0  0  0  0  0  0  0  0
   28.4438  -21.2356   -9.4016 C   0  0  0  0  0  0  0  0  0  0  0  0
   29.7914  -21.3431   -9.6724 O   0  0  0  0  0  0  0  0  0  0  0  0
   27.7653  -22.3181   -9.4861 O   0  0  0  0  0  0  0  0  0  0  0  0
  2  1  1  1
  3  2  1  0
  4  3  1  0
  5  2  1  0
  5  6  2  0
  7  5  1  0
  8  7  1  0
  8  9  1  6
 10  9  1  0
 11  8  1  0
 12 11  2  0
 13 14  1  0
 15 14  1  0
 16 15  1  0
 17 18  1  0
 17 16  1  1
 18 11  1  0
 19 17  1  0
 20 19  1  0
 21 19  2  0
M  END
$$$$
