CCM.pdb
     RDKit          3D

 21 20  0  0  1  0  0  0  0  0999 V2000
   20.7806  -23.0452  -13.6748 N   0  0  0  0  0  0  0  0  0  0  0  0
   19.8655  -22.2872  -14.5041 C   0  0  1  0  0  0  0  0  0  0  0  0
   18.4912  -22.8498  -14.3399 C   0  0  0  0  0  0  0  0  0  0  0  0
   18.6148  -24.6607  -14.5684 S   0  0  0  0  0  0  0  0  0  0  0  0
   19.9570  -20.8376  -14.2279 C   0  0  0  0  0  0  0  0  0  0  0  0
   19.9649  -20.4512  -13.0305 O   0  0  0  0  0  0  0  0  0  0  0  0
   20.0357  -19.8652  -15.2349 N   0  0  0  0  0  0  0  0  0  0  0  0
   20.2588  -18.4529  -14.8892 C   0  0  1  0  0  0  0  0  0  0  0  0
   21.5271  -17.9922  -15.6016 C   0  0  0  0  0  0  0  0  0  0  0  0
   22.9816  -18.6334  -14.7811 S   0  0  0  0  0  0  0  0  0  0  0  0
   19.0659  -17.7116  -15.3242 C   0  0  0  0  0  0  0  0  0  0  0  0
   18.5820  -17.8818  -16.4880 O   0  0  0  0  0  0  0  0  0  0  0  0
   12.0127  -15.3008  -13.7428 C   0  0  0  0  0  0  0  0  0  0  0  0
   13.5721  -15.9853  -13.1502 S   0  0  0  0  0  0  0  0  0  0  0  0
   14.8561  -15.5972  -14.3781 C   0  0  0  0  0  0  0  0  0  0  0  0
   16.1529  -16.2694  -14.0042 C   0  0  0  0  0  0  0  0  0  0  0  0
   17.2495  -16.0535  -15.0197 C   0  0  2  0  0  0  0  0  0  0  0  0
   18.4174  -16.7956  -14.4782 N   0  0  0  0  0  0  0  0  0  0  0  0
   17.5888  -14.6109  -15.0942 C   0  0  0  0  0  0  0  0  0  0  0  0
   17.0024  -13.7105  -15.9581 O   0  0  0  0  0  0  0  0  0  0  0  0
   18.4871  -14.1381  -14.3140 O   0  0  0  0  0  0  0  0  0  0  0  0
  2  1  1  1
  3  2  1  0
  4  3  1  0
  5  2  1  0
  5  6  2  0
  7  5  1  0
  8  7  1  0
  8  9  1  6
 10  9  1  0
 11  8  1  0
 12 11  2  0
 13 14  1  0
 15 14  1  0
 16 15  1  0
 17 18  1  0
 17 16  1  1
 18 11  1  0
 19 17  1  0
 20 19  1  0
 21 19  2  0
M  END
$$$$
