CCM.pdb
     RDKit          3D

 21 20  0  0  1  0  0  0  0  0999 V2000
   26.8706  -17.9831  -18.3887 N   0  0  0  0  0  0  0  0  0  0  0  0
   26.6835  -18.2224  -16.9719 C   0  0  1  0  0  0  0  0  0  0  0  0
   27.5610  -17.2857  -16.2072 C   0  0  0  0  0  0  0  0  0  0  0  0
   27.4347  -17.7434  -14.4405 S   0  0  0  0  0  0  0  0  0  0  0  0
   25.2560  -18.1507  -16.5935 C   0  0  0  0  0  0  0  0  0  0  0  0
   24.6803  -17.0323  -16.6220 O   0  0  0  0  0  0  0  0  0  0  0  0
   24.5059  -19.2686  -16.2022 N   0  0  0  0  0  0  0  0  0  0  0  0
   23.0959  -19.1182  -15.8109 C   0  0  1  0  0  0  0  0  0  0  0  0
   22.2350  -19.4788  -17.0180 C   0  0  0  0  0  0  0  0  0  0  0  0
   22.5899  -21.1417  -17.5737 S   0  0  0  0  0  0  0  0  0  0  0  0
   22.8701  -20.0154  -14.6682 C   0  0  0  0  0  0  0  0  0  0  0  0
   23.5857  -21.0540  -14.5045 O   0  0  0  0  0  0  0  0  0  0  0  0
   24.2461  -20.0021   -9.4739 C   0  0  0  0  0  0  0  0  0  0  0  0
   23.0288  -21.2412   -8.9899 S   0  0  0  0  0  0  0  0  0  0  0  0
   21.8968  -21.4907  -10.3909 C   0  0  0  0  0  0  0  0  0  0  0  0
   22.3123  -20.6272  -11.5550 C   0  0  0  0  0  0  0  0  0  0  0  0
   21.4851  -20.8631  -12.7962 C   0  0  2  0  0  0  0  0  0  0  0  0
   21.8654  -19.7620  -13.7187 N   0  0  0  0  0  0  0  0  0  0  0  0
   20.0427  -20.7406  -12.4698 C   0  0  0  0  0  0  0  0  0  0  0  0
   19.2354  -19.6944  -12.8626 O   0  0  0  0  0  0  0  0  0  0  0  0
   19.4787  -21.6556  -11.7742 O   0  0  0  0  0  0  0  0  0  0  0  0
  2  1  1  6
  3  2  1  0
  4  3  1  0
  5  2  1  0
  5  6  2  0
  7  5  1  0
  8  7  1  0
  8  9  1  6
 10  9  1  0
 11  8  1  0
 12 11  2  0
 13 14  1  0
 15 14  1  0
 16 15  1  0
 17 18  1  0
 17 16  1  1
 18 11  1  0
 19 17  1  0
 20 19  1  0
 21 19  2  0
M  END
$$$$
