CCM.pdb
     RDKit          3D

 21 20  0  0  1  0  0  0  0  0999 V2000
   19.5245  -15.5413  -17.8725 N   0  0  0  0  0  0  0  0  0  0  0  0
   19.2054  -14.6678  -16.7613 C   0  0  1  0  0  0  0  0  0  0  0  0
   19.7994  -15.2401  -15.5155 C   0  0  0  0  0  0  0  0  0  0  0  0
   18.7340  -16.6337  -14.9963 S   0  0  0  0  0  0  0  0  0  0  0  0
   19.6123  -13.2727  -17.0336 C   0  0  0  0  0  0  0  0  0  0  0  0
   20.6623  -13.0693  -17.6964 O   0  0  0  0  0  0  0  0  0  0  0  0
   18.8864  -12.1583  -16.5900 N   0  0  0  0  0  0  0  0  0  0  0  0
   19.2605  -10.8047  -17.0279 C   0  0  1  0  0  0  0  0  0  0  0  0
   17.9919   -9.9576  -17.0628 C   0  0  0  0  0  0  0  0  0  0  0  0
   18.3904   -8.2323  -17.3171 S   0  0  0  0  0  0  0  0  0  0  0  0
   20.2497  -10.3005  -16.0640 C   0  0  0  0  0  0  0  0  0  0  0  0
   20.0910  -10.4787  -14.8148 O   0  0  0  0  0  0  0  0  0  0  0  0
   26.4338  -11.5421  -15.1564 C   0  0  0  0  0  0  0  0  0  0  0  0
   26.4044   -9.7860  -15.5645 S   0  0  0  0  0  0  0  0  0  0  0  0
   24.8160   -9.1063  -14.9972 C   0  0  0  0  0  0  0  0  0  0  0  0
   23.6976   -9.5868  -15.8868 C   0  0  0  0  0  0  0  0  0  0  0  0
   22.3348   -9.1180  -15.4357 C   0  0  2  0  0  0  0  0  0  0  0  0
   21.4006   -9.6101  -16.4811 N   0  0  0  0  0  0  0  0  0  0  0  0
   22.2951   -7.6347  -15.4146 C   0  0  0  0  0  0  0  0  0  0  0  0
   21.9382   -6.8440  -16.4861 O   0  0  0  0  0  0  0  0  0  0  0  0
   22.6103   -7.0155  -14.3392 O   0  0  0  0  0  0  0  0  0  0  0  0
  2  1  1  6
  3  2  1  0
  4  3  1  0
  5  2  1  0
  5  6  2  0
  7  5  1  0
  8  7  1  0
  8  9  1  1
 10  9  1  0
 11  8  1  0
 12 11  2  0
 13 14  1  0
 15 14  1  0
 16 15  1  0
 17 18  1  0
 17 16  1  6
 18 11  1  0
 19 17  1  0
 20 19  1  0
 21 19  2  0
M  END
$$$$
