CCM.pdb
     RDKit          3D

 21 20  0  0  1  0  0  0  0  0999 V2000
   18.1796  -13.8150  -17.0482 N   0  0  0  0  0  0  0  0  0  0  0  0
   18.3928  -12.7352  -16.1056 C   0  0  1  0  0  0  0  0  0  0  0  0
   18.9058  -13.3102  -14.8256 C   0  0  0  0  0  0  0  0  0  0  0  0
   17.4948  -14.1219  -13.9907 S   0  0  0  0  0  0  0  0  0  0  0  0
   19.2552  -11.6789  -16.6768 C   0  0  0  0  0  0  0  0  0  0  0  0
   20.2239  -12.0192  -17.4041 O   0  0  0  0  0  0  0  0  0  0  0  0
   19.0501  -10.3107  -16.4495 N   0  0  0  0  0  0  0  0  0  0  0  0
   19.8457   -9.3088  -17.1756 C   0  0  1  0  0  0  0  0  0  0  0  0
   19.0289   -8.0215  -17.2408 C   0  0  0  0  0  0  0  0  0  0  0  0
   18.7442   -7.3696  -15.5995 S   0  0  0  0  0  0  0  0  0  0  0  0
   21.1044   -9.1418  -16.4345 C   0  0  0  0  0  0  0  0  0  0  0  0
   21.3077   -9.7688  -15.3468 O   0  0  0  0  0  0  0  0  0  0  0  0
   27.8405  -11.2484  -15.3387 C   0  0  0  0  0  0  0  0  0  0  0  0
   26.2610  -11.1665  -16.2046 S   0  0  0  0  0  0  0  0  0  0  0  0
   25.4520   -9.6038  -15.7462 C   0  0  0  0  0  0  0  0  0  0  0  0
   24.0776   -9.5300  -16.3617 C   0  0  0  0  0  0  0  0  0  0  0  0
   23.3792   -8.2163  -16.1027 C   0  0  2  0  0  0  0  0  0  0  0  0
   22.1248   -8.2924  -16.8956 N   0  0  0  0  0  0  0  0  0  0  0  0
   24.2065   -7.0971  -16.6173 C   0  0  0  0  0  0  0  0  0  0  0  0
   25.1235   -6.3903  -15.8688 O   0  0  0  0  0  0  0  0  0  0  0  0
   24.0821   -6.7377  -17.8399 O   0  0  0  0  0  0  0  0  0  0  0  0
  2  1  1  6
  3  2  1  0
  4  3  1  0
  5  2  1  0
  5  6  2  0
  7  5  1  0
  8  7  1  0
  8  9  1  1
 10  9  1  0
 11  8  1  0
 12 11  2  0
 13 14  1  0
 15 14  1  0
 16 15  1  0
 17 18  1  0
 17 16  1  6
 18 11  1  0
 19 17  1  0
 20 19  1  0
 21 19  2  0
M  END
$$$$
