CCM.pdb
     RDKit          3D

 21 20  0  0  1  0  0  0  0  0999 V2000
   20.0850  -12.0202  -16.7739 N   0  0  0  0  0  0  0  0  0  0  0  0
   18.6829  -11.7954  -16.4851 C   0  0  1  0  0  0  0  0  0  0  0  0
   17.9692  -13.1074  -16.5225 C   0  0  0  0  0  0  0  0  0  0  0  0
   16.1973  -12.7707  -16.2159 S   0  0  0  0  0  0  0  0  0  0  0  0
   18.5020  -11.0501  -15.2211 C   0  0  0  0  0  0  0  0  0  0  0  0
   19.1235  -11.4381  -14.1982 O   0  0  0  0  0  0  0  0  0  0  0  0
   17.6701   -9.9280  -15.1010 N   0  0  0  0  0  0  0  0  0  0  0  0
   17.4905   -9.2716  -13.7969 C   0  0  1  0  0  0  0  0  0  0  0  0
   18.1156   -7.8823  -13.8830 C   0  0  0  0  0  0  0  0  0  0  0  0
   17.3042   -6.9006  -15.1392 S   0  0  0  0  0  0  0  0  0  0  0  0
   16.0443   -9.2247  -13.5362 C   0  0  0  0  0  0  0  0  0  0  0  0
   15.2130   -9.1236  -14.4934 O   0  0  0  0  0  0  0  0  0  0  0  0
   10.1867  -10.7357   -8.5905 C   0  0  0  0  0  0  0  0  0  0  0  0
   11.9620  -10.7505   -8.9055 S   0  0  0  0  0  0  0  0  0  0  0  0
   12.2661   -9.8212  -10.4387 C   0  0  0  0  0  0  0  0  0  0  0  0
   13.7246   -9.8987  -10.8128 C   0  0  0  0  0  0  0  0  0  0  0  0
   14.0647   -9.1029  -12.0504 C   0  0  2  0  0  0  0  0  0  0  0  0
   15.5275   -9.2916  -12.2309 N   0  0  0  0  0  0  0  0  0  0  0  0
   13.7909   -7.6638  -11.8137 C   0  0  0  0  0  0  0  0  0  0  0  0
   14.7507   -6.7221  -11.5091 O   0  0  0  0  0  0  0  0  0  0  0  0
   12.5868   -7.2351  -11.8898 O   0  0  0  0  0  0  0  0  0  0  0  0
  2  1  1  1
  3  2  1  0
  4  3  1  0
  5  2  1  0
  5  6  2  0
  7  5  1  0
  8  7  1  0
  8  9  1  6
 10  9  1  0
 11  8  1  0
 12 11  2  0
 13 14  1  0
 15 14  1  0
 16 15  1  0
 17 18  1  0
 17 16  1  1
 18 11  1  0
 19 17  1  0
 20 19  1  0
 21 19  2  0
M  END
$$$$
