CCM.pdb
     RDKit          3D

 21 20  0  0  1  0  0  0  0  0999 V2000
   25.9269  -15.7437  -16.1471 N   0  0  0  0  0  0  0  0  0  0  0  0
   25.9211  -14.5652  -16.9901 C   0  0  1  0  0  0  0  0  0  0  0  0
   24.9825  -14.7953  -18.1296 C   0  0  0  0  0  0  0  0  0  0  0  0
   25.1508  -13.3726  -19.2675 S   0  0  0  0  0  0  0  0  0  0  0  0
   25.6305  -13.3425  -16.2114 C   0  0  0  0  0  0  0  0  0  0  0  0
   24.7166  -13.3809  -15.3474 O   0  0  0  0  0  0  0  0  0  0  0  0
   26.3229  -12.1358  -16.3855 N   0  0  0  0  0  0  0  0  0  0  0  0
   25.9812  -10.9584  -15.5727 C   0  0  1  0  0  0  0  0  0  0  0  0
   27.2848  -10.3333  -15.0847 C   0  0  0  0  0  0  0  0  0  0  0  0
   28.2712   -9.7686  -16.4661 S   0  0  0  0  0  0  0  0  0  0  0  0
   25.2084  -10.0520  -16.4346 C   0  0  0  0  0  0  0  0  0  0  0  0
   25.3928  -10.0353  -17.6929 O   0  0  0  0  0  0  0  0  0  0  0  0
   18.7928   -8.7578  -16.7313 C   0  0  0  0  0  0  0  0  0  0  0  0
   19.5980   -7.1706  -16.4422 S   0  0  0  0  0  0  0  0  0  0  0  0
   21.2674   -7.2513  -17.1588 C   0  0  0  0  0  0  0  0  0  0  0  0
   22.1308   -8.1945  -16.3600 C   0  0  0  0  0  0  0  0  0  0  0  0
   23.5604   -8.2472  -16.8438 C   0  0  2  0  0  0  0  0  0  0  0  0
   24.2422   -9.1780  -15.9076 N   0  0  0  0  0  0  0  0  0  0  0  0
   24.1812   -6.9046  -16.7247 C   0  0  0  0  0  0  0  0  0  0  0  0
   25.0128   -6.5131  -15.6971 O   0  0  0  0  0  0  0  0  0  0  0  0
   23.9462   -6.0244  -17.6243 O   0  0  0  0  0  0  0  0  0  0  0  0
  2  1  1  1
  3  2  1  0
  4  3  1  0
  5  2  1  0
  5  6  2  0
  7  5  1  0
  8  7  1  0
  8  9  1  6
 10  9  1  0
 11  8  1  0
 12 11  2  0
 13 14  1  0
 15 14  1  0
 16 15  1  0
 17 18  1  0
 17 16  1  1
 18 11  1  0
 19 17  1  0
 20 19  1  0
 21 19  2  0
M  END
$$$$
