CCM.pdb
     RDKit          3D

 21 20  0  0  1  0  0  0  0  0999 V2000
   16.0869  -10.6886   -9.9967 N   0  0  0  0  0  0  0  0  0  0  0  0
   15.1388  -10.1054  -10.9243 C   0  0  1  0  0  0  0  0  0  0  0  0
   13.7738  -10.1724  -10.3205 C   0  0  0  0  0  0  0  0  0  0  0  0
   13.8600   -9.3468   -8.6902 S   0  0  0  0  0  0  0  0  0  0  0  0
   15.5472   -8.7447  -11.3338 C   0  0  0  0  0  0  0  0  0  0  0  0
   14.8357   -8.1269  -12.1675 O   0  0  0  0  0  0  0  0  0  0  0  0
   16.6916   -8.1027  -10.8398 N   0  0  0  0  0  0  0  0  0  0  0  0
   17.0097   -6.7273  -11.2533 C   0  0  1  0  0  0  0  0  0  0  0  0
   16.4866   -5.7826  -10.1753 C   0  0  0  0  0  0  0  0  0  0  0  0
   17.3152   -6.0797   -8.6179 S   0  0  0  0  0  0  0  0  0  0  0  0
   18.4698   -6.6533  -11.4088 C   0  0  0  0  0  0  0  0  0  0  0  0
   19.2369   -7.3922  -10.7137 O   0  0  0  0  0  0  0  0  0  0  0  0
   22.6165  -10.2202  -13.3117 C   0  0  0  0  0  0  0  0  0  0  0  0
   22.3492   -8.9548  -14.5682 S   0  0  0  0  0  0  0  0  0  0  0  0
   22.1806   -7.3537  -13.7228 C   0  0  0  0  0  0  0  0  0  0  0  0
   20.7396   -7.1115  -13.3511 C   0  0  0  0  0  0  0  0  0  0  0  0
   20.5405   -5.8665  -12.5198 C   0  0  2  0  0  0  0  0  0  0  0  0
   19.0704   -5.7731  -12.3253 N   0  0  0  0  0  0  0  0  0  0  0  0
   21.0020   -4.6770  -13.2775 C   0  0  0  0  0  0  0  0  0  0  0  0
   22.2989   -4.2094  -13.2903 O   0  0  0  0  0  0  0  0  0  0  0  0
   20.1590   -4.0157  -13.9784 O   0  0  0  0  0  0  0  0  0  0  0  0
  2  1  1  1
  3  2  1  0
  4  3  1  0
  5  2  1  0
  5  6  2  0
  7  5  1  0
  8  7  1  0
  8  9  1  1
 10  9  1  0
 11  8  1  0
 12 11  2  0
 13 14  1  0
 15 14  1  0
 16 15  1  0
 17 18  1  0
 17 16  1  6
 18 11  1  0
 19 17  1  0
 20 19  1  0
 21 19  2  0
M  END
$$$$
