CCM.pdb
     RDKit          3D

 21 20  0  0  1  0  0  0  0  0999 V2000
   18.9251  -11.7843  -15.2242 N   0  0  0  0  0  0  0  0  0  0  0  0
   18.4073  -10.4311  -15.2020 C   0  0  1  0  0  0  0  0  0  0  0  0
   16.9640  -10.4635  -15.5869 C   0  0  0  0  0  0  0  0  0  0  0  0
   16.0971  -11.5039  -14.3569 S   0  0  0  0  0  0  0  0  0  0  0  0
   18.6673   -9.7719  -13.9044 C   0  0  0  0  0  0  0  0  0  0  0  0
   18.8128  -10.4902  -12.8817 O   0  0  0  0  0  0  0  0  0  0  0  0
   18.7605   -8.3813  -13.7521 N   0  0  0  0  0  0  0  0  0  0  0  0
   19.0608   -7.7958  -12.4364 C   0  0  1  0  0  0  0  0  0  0  0  0
   20.2017   -6.7990  -12.6180 C   0  0  0  0  0  0  0  0  0  0  0  0
   20.5246   -5.9227  -11.0923 S   0  0  0  0  0  0  0  0  0  0  0  0
   17.8249   -7.1583  -11.9588 C   0  0  0  0  0  0  0  0  0  0  0  0
   17.0851   -6.4956  -12.7532 O   0  0  0  0  0  0  0  0  0  0  0  0
   12.0058   -7.5096   -6.8077 C   0  0  0  0  0  0  0  0  0  0  0  0
   13.6166   -8.1192   -7.3414 S   0  0  0  0  0  0  0  0  0  0  0  0
   14.2764   -6.9538   -8.5715 C   0  0  0  0  0  0  0  0  0  0  0  0
   15.5737   -7.4741   -9.1369 C   0  0  0  0  0  0  0  0  0  0  0  0
   16.1401   -6.5992  -10.2297 C   0  0  2  0  0  0  0  0  0  0  0  0
   17.4144   -7.2572  -10.6183 N   0  0  0  0  0  0  0  0  0  0  0  0
   16.4405   -5.2504   -9.6889 C   0  0  0  0  0  0  0  0  0  0  0  0
   17.7000   -4.8034   -9.3504 O   0  0  0  0  0  0  0  0  0  0  0  0
   15.4826   -4.4196   -9.5116 O   0  0  0  0  0  0  0  0  0  0  0  0
  2  1  1  1
  3  2  1  0
  4  3  1  0
  5  2  1  0
  5  6  2  0
  7  5  1  0
  8  7  1  0
  8  9  1  6
 10  9  1  0
 11  8  1  0
 12 11  2  0
 13 14  1  0
 15 14  1  0
 16 15  1  0
 17 18  1  0
 17 16  1  1
 18 11  1  0
 19 17  1  0
 20 19  1  0
 21 19  2  0
M  END
$$$$
