CCM.pdb
     RDKit          3D

 21 20  0  0  1  0  0  0  0  0999 V2000
   41.4830  -27.0283    2.8435 N   0  0  0  0  0  0  0  0  0  0  0  0
   40.7775  -26.4377    3.9629 C   0  0  1  0  0  0  0  0  0  0  0  0
   41.4681  -25.1708    4.3506 C   0  0  0  0  0  0  0  0  0  0  0  0
   40.4895  -24.4083    5.6952 S   0  0  0  0  0  0  0  0  0  0  0  0
   39.3380  -26.2704    3.6697 C   0  0  0  0  0  0  0  0  0  0  0  0
   39.0025  -25.7411    2.5786 O   0  0  0  0  0  0  0  0  0  0  0  0
   38.3215  -26.6723    4.5477 N   0  0  0  0  0  0  0  0  0  0  0  0
   36.9099  -26.4330    4.2103 C   0  0  1  0  0  0  0  0  0  0  0  0
   36.1640  -27.7563    4.3553 C   0  0  0  0  0  0  0  0  0  0  0  0
   34.4921  -27.6110    3.7360 S   0  0  0  0  0  0  0  0  0  0  0  0
   36.4166  -25.4026    5.1358 C   0  0  0  0  0  0  0  0  0  0  0  0
   36.8869  -25.3064    6.3136 O   0  0  0  0  0  0  0  0  0  0  0  0
   31.1122  -19.6606    6.1760 C   0  0  0  0  0  0  0  0  0  0  0  0
   31.8037  -20.9236    5.0905 S   0  0  0  0  0  0  0  0  0  0  0  0
   33.1452  -21.7602    5.9890 C   0  0  0  0  0  0  0  0  0  0  0  0
   33.8369  -22.7501    5.0864 C   0  0  0  0  0  0  0  0  0  0  0  0
   34.9179  -23.5392    5.7859 C   0  0  2  0  0  0  0  0  0  0  0  0
   35.4169  -24.4897    4.7585 N   0  0  0  0  0  0  0  0  0  0  0  0
   34.3303  -24.3101    6.9095 C   0  0  0  0  0  0  0  0  0  0  0  0
   34.3039  -23.8879    8.2217 O   0  0  0  0  0  0  0  0  0  0  0  0
   33.8033  -25.4534    6.6760 O   0  0  0  0  0  0  0  0  0  0  0  0
  2  1  1  6
  3  2  1  0
  4  3  1  0
  5  2  1  0
  5  6  2  0
  7  5  1  0
  8  7  1  0
  8  9  1  1
 10  9  1  0
 11  8  1  0
 12 11  2  0
 13 14  1  0
 15 14  1  0
 16 15  1  0
 17 18  1  0
 17 16  1  6
 18 11  1  0
 19 17  1  0
 20 19  1  0
 21 19  2  0
M  END
$$$$
