CCM.pdb
     RDKit          3D

 21 20  0  0  1  0  0  0  0  0999 V2000
   14.4626  -13.3748  -16.3800 N   0  0  0  0  0  0  0  0  0  0  0  0
   15.4408  -12.8275  -15.4617 C   0  0  1  0  0  0  0  0  0  0  0  0
   16.3779  -13.9173  -15.0537 C   0  0  0  0  0  0  0  0  0  0  0  0
   15.4845  -14.9861  -13.8677 S   0  0  0  0  0  0  0  0  0  0  0  0
   16.1134  -11.6398  -16.0300 C   0  0  0  0  0  0  0  0  0  0  0  0
   16.5268  -11.6915  -17.2172 O   0  0  0  0  0  0  0  0  0  0  0  0
   16.3162  -10.4526  -15.3123 N   0  0  0  0  0  0  0  0  0  0  0  0
   17.0224   -9.3206  -15.9317 C   0  0  1  0  0  0  0  0  0  0  0  0
   16.0799   -8.1206  -15.9226 C   0  0  0  0  0  0  0  0  0  0  0  0
   16.9528   -6.6275  -16.3795 S   0  0  0  0  0  0  0  0  0  0  0  0
   18.2390   -9.0889  -15.1392 C   0  0  0  0  0  0  0  0  0  0  0  0
   18.2216   -9.1990  -13.8723 O   0  0  0  0  0  0  0  0  0  0  0  0
   23.0008  -12.5629  -13.8559 C   0  0  0  0  0  0  0  0  0  0  0  0
   23.8026  -11.1617  -14.6591 S   0  0  0  0  0  0  0  0  0  0  0  0
   22.8086   -9.6775  -14.3185 C   0  0  0  0  0  0  0  0  0  0  0  0
   21.5416   -9.7020  -15.1354 C   0  0  0  0  0  0  0  0  0  0  0  0
   20.6362   -8.5240  -14.8649 C   0  0  2  0  0  0  0  0  0  0  0  0
   19.4589   -8.7423  -15.7449 N   0  0  0  0  0  0  0  0  0  0  0  0
   21.3126   -7.2667  -15.2695 C   0  0  0  0  0  0  0  0  0  0  0  0
   22.1249   -6.5135  -14.4488 O   0  0  0  0  0  0  0  0  0  0  0  0
   21.1492   -6.8231  -16.4594 O   0  0  0  0  0  0  0  0  0  0  0  0
  2  1  1  6
  3  2  1  0
  4  3  1  0
  5  2  1  0
  5  6  2  0
  7  5  1  0
  8  7  1  0
  8  9  1  1
 10  9  1  0
 11  8  1  0
 12 11  2  0
 13 14  1  0
 15 14  1  0
 16 15  1  0
 17 18  1  0
 17 16  1  6
 18 11  1  0
 19 17  1  0
 20 19  1  0
 21 19  2  0
M  END
$$$$
