CCM.pdb
     RDKit          3D

 21 20  0  0  1  0  0  0  0  0999 V2000
   22.8243  -15.2411  -20.2826 N   0  0  0  0  0  0  0  0  0  0  0  0
   23.2064  -13.8611  -20.0610 C   0  0  1  0  0  0  0  0  0  0  0  0
   22.7365  -13.0415  -21.2184 C   0  0  0  0  0  0  0  0  0  0  0  0
   23.7729  -13.4901  -22.6578 S   0  0  0  0  0  0  0  0  0  0  0  0
   22.7338  -13.3714  -18.7484 C   0  0  0  0  0  0  0  0  0  0  0  0
   21.5467  -13.6111  -18.4072 O   0  0  0  0  0  0  0  0  0  0  0  0
   23.5426  -12.6502  -17.8588 N   0  0  0  0  0  0  0  0  0  0  0  0
   23.0096  -12.2071  -16.5613 C   0  0  1  0  0  0  0  0  0  0  0  0
   23.9970  -12.6356  -15.4797 C   0  0  0  0  0  0  0  0  0  0  0  0
   23.1315  -13.2804  -14.0531 S   0  0  0  0  0  0  0  0  0  0  0  0
   22.8543  -10.7471  -16.6377 C   0  0  0  0  0  0  0  0  0  0  0  0
   23.7316  -10.0282  -17.2132 O   0  0  0  0  0  0  0  0  0  0  0  0
   17.4203   -7.6780  -17.4489 C   0  0  0  0  0  0  0  0  0  0  0  0
   18.6788   -6.5504  -18.0785 S   0  0  0  0  0  0  0  0  0  0  0  0
   20.2033   -6.8253  -17.1261 C   0  0  0  0  0  0  0  0  0  0  0  0
   20.4609   -8.3029  -16.9726 C   0  0  0  0  0  0  0  0  0  0  0  0
   21.6944   -8.6105  -16.1575 C   0  0  2  0  0  0  0  0  0  0  0  0
   21.7393  -10.0939  -16.0851 N   0  0  0  0  0  0  0  0  0  0  0  0
   21.5391   -8.0664  -14.7857 C   0  0  0  0  0  0  0  0  0  0  0  0
   21.8768   -6.7844  -14.4071 O   0  0  0  0  0  0  0  0  0  0  0  0
   21.0609   -8.8169  -13.8652 O   0  0  0  0  0  0  0  0  0  0  0  0
  2  1  1  6
  3  2  1  0
  4  3  1  0
  5  2  1  0
  5  6  2  0
  7  5  1  0
  8  7  1  0
  8  9  1  1
 10  9  1  0
 11  8  1  0
 12 11  2  0
 13 14  1  0
 15 14  1  0
 16 15  1  0
 17 18  1  0
 17 16  1  6
 18 11  1  0
 19 17  1  0
 20 19  1  0
 21 19  2  0
M  END
$$$$
