CCM.pdb
     RDKit          3D

 21 20  0  0  1  0  0  0  0  0999 V2000
   15.4393  -11.4763  -20.4677 N   0  0  0  0  0  0  0  0  0  0  0  0
   15.7224  -11.1972  -19.0743 C   0  0  1  0  0  0  0  0  0  0  0  0
   16.0057  -12.4867  -18.3748 C   0  0  0  0  0  0  0  0  0  0  0  0
   14.5194  -12.9119  -17.3966 S   0  0  0  0  0  0  0  0  0  0  0  0
   16.7937  -10.1886  -18.9297 C   0  0  0  0  0  0  0  0  0  0  0  0
   17.8064  -10.2742  -19.6714 O   0  0  0  0  0  0  0  0  0  0  0  0
   16.7409   -9.1362  -18.0049 N   0  0  0  0  0  0  0  0  0  0  0  0
   17.8246   -8.1432  -17.9456 C   0  0  1  0  0  0  0  0  0  0  0  0
   17.1865   -6.7598  -17.8593 C   0  0  0  0  0  0  0  0  0  0  0  0
   18.4135   -5.5214  -17.4581 S   0  0  0  0  0  0  0  0  0  0  0  0
   18.6367   -8.4651  -16.7629 C   0  0  0  0  0  0  0  0  0  0  0  0
   18.0861   -8.8028  -15.6673 O   0  0  0  0  0  0  0  0  0  0  0  0
   24.7839  -11.9132  -13.7786 C   0  0  0  0  0  0  0  0  0  0  0  0
   23.8557  -11.4024  -15.2377 S   0  0  0  0  0  0  0  0  0  0  0  0
   22.6948  -10.0967  -14.7336 C   0  0  0  0  0  0  0  0  0  0  0  0
   21.7935   -9.7296  -15.8851 C   0  0  0  0  0  0  0  0  0  0  0  0
   20.7773   -8.6700  -15.5314 C   0  0  2  0  0  0  0  0  0  0  0  0
   20.0408   -8.4152  -16.7965 N   0  0  0  0  0  0  0  0  0  0  0  0
   21.4718   -7.4249  -15.1199 C   0  0  0  0  0  0  0  0  0  0  0  0
   21.9032   -6.4437  -15.9871 O   0  0  0  0  0  0  0  0  0  0  0  0
   21.7023   -7.2182  -13.8776 O   0  0  0  0  0  0  0  0  0  0  0  0
  2  1  1  6
  3  2  1  0
  4  3  1  0
  5  2  1  0
  5  6  2  0
  7  5  1  0
  8  7  1  0
  8  9  1  1
 10  9  1  0
 11  8  1  0
 12 11  2  0
 13 14  1  0
 15 14  1  0
 16 15  1  0
 17 18  1  0
 17 16  1  6
 18 11  1  0
 19 17  1  0
 20 19  1  0
 21 19  2  0
M  END
$$$$
