KEP.pdb
     RDKit          3D

 26 26  0  0  1  0  0  0  0  0999 V2000
    6.3386  -17.2045   20.3137 N   0  0  0  0  0  0  0  0  0  0  0  0
    7.5275  -16.9341   21.0640 C   0  0  1  0  0  0  0  0  0  0  0  0
    8.4664  -15.9948   20.3989 C   0  0  0  0  0  0  0  0  0  0  0  0
    7.7778  -14.8001   19.8357 C   0  0  0  0  0  0  0  0  0  0  0  0
    8.6042  -13.8852   19.0053 C   0  0  0  0  0  0  0  0  0  0  0  0
    7.8407  -12.6690   18.5289 C   0  0  0  0  0  0  0  0  0  0  0  0
    8.6897  -11.8566   17.6936 N   0  0  0  0  0  0  0  0  0  0  0  0
    7.1661  -16.5519   22.4405 C   0  0  0  0  0  0  0  0  0  0  0  0
    6.1055  -15.9098   22.6370 O   0  0  0  0  0  0  0  0  0  0  0  0
    7.9486  -16.8650   23.5833 N   0  0  0  0  0  0  0  0  0  0  0  0
    7.4350  -16.5489   24.9549 C   0  0  1  0  0  0  0  0  0  0  0  0
    7.7509  -17.8178   25.7036 C   0  0  0  0  0  0  0  0  0  0  0  0
    7.4733  -17.8638   27.1442 C   0  0  0  0  0  0  0  0  0  0  0  0
    7.9438  -19.1997   27.6468 C   0  0  0  0  0  0  0  0  0  0  0  0
    8.8069  -19.3337   28.5394 O   0  0  0  0  0  0  0  0  0  0  0  0
    8.1345  -15.3523   25.4491 C   0  0  0  0  0  0  0  0  0  0  0  0
    9.4148  -15.3019   25.2901 O   0  0  0  0  0  0  0  0  0  0  0  0
    7.3866  -20.3302   27.0860 O   0  0  0  0  0  0  0  0  0  0  0  0
    7.5443  -14.2315   26.0852 N   0  0  0  0  0  0  0  0  0  0  0  0
    6.0861  -14.1192   26.2277 C   0  0  0  0  0  0  0  0  0  0  0  0
    5.9808  -13.3208   27.5096 C   0  0  0  0  0  0  0  0  0  0  0  0
    7.0095  -12.2271   27.1936 C   0  0  0  0  0  0  0  0  0  0  0  0
    8.1726  -13.1031   26.7234 C   0  0  1  0  0  0  0  0  0  0  0  0
    8.8285  -13.5800   28.0016 C   0  0  0  0  0  0  0  0  0  0  0  0
    8.5537  -14.8655   28.3978 O   0  0  0  0  0  0  0  0  0  0  0  0
    9.5786  -12.8624   28.6708 O   0  0  0  0  0  0  0  0  0  0  0  0
  2  1  1  6
  3  2  1  0
  3  4  1  0
  4  5  1  0
  5  6  1  0
  6  7  1  0
  8  2  1  0
  8  9  2  0
 10  8  1  0
 11 16  1  0
 11 10  1  0
 11 12  1  1
 13 12  1  0
 13 14  1  0
 14 18  1  0
 15 14  2  0
 16 19  1  0
 17 16  2  0
 19 20  1  0
 19 23  1  0
 20 21  1  0
 21 22  1  0
 23 22  1  0
 24 25  1  0
 23 24  1  1
 26 24  2  0
M  END
$$$$
