KEP.pdb
     RDKit          3D

 26 26  0  0  1  0  0  0  0  0999 V2000
    7.8085  -18.9236   20.6814 N   0  0  0  0  0  0  0  0  0  0  0  0
    7.2384  -17.6236   20.8671 C   0  0  1  0  0  0  0  0  0  0  0  0
    5.9027  -17.4498   20.2412 C   0  0  0  0  0  0  0  0  0  0  0  0
    5.8420  -18.0016   18.8591 C   0  0  0  0  0  0  0  0  0  0  0  0
    4.6816  -18.8745   18.5410 C   0  0  0  0  0  0  0  0  0  0  0  0
    4.5516  -19.1682   17.0626 C   0  0  0  0  0  0  0  0  0  0  0  0
    3.4370  -20.0545   16.8376 N   0  0  0  0  0  0  0  0  0  0  0  0
    7.2869  -17.2629   22.2950 C   0  0  0  0  0  0  0  0  0  0  0  0
    6.3509  -17.6265   23.0483 O   0  0  0  0  0  0  0  0  0  0  0  0
    8.3387  -16.5180   22.8910 N   0  0  0  0  0  0  0  0  0  0  0  0
    8.3114  -16.2227   24.3597 C   0  0  1  0  0  0  0  0  0  0  0  0
    9.4931  -17.0146   24.8565 C   0  0  0  0  0  0  0  0  0  0  0  0
    9.8620  -16.9007   26.2727 C   0  0  0  0  0  0  0  0  0  0  0  0
   11.1311  -17.6817   26.4674 C   0  0  0  0  0  0  0  0  0  0  0  0
   12.2199  -17.1573   26.7824 O   0  0  0  0  0  0  0  0  0  0  0  0
    8.4248  -14.7671   24.5435 C   0  0  0  0  0  0  0  0  0  0  0  0
    9.5027  -14.1951   24.1215 O   0  0  0  0  0  0  0  0  0  0  0  0
   11.0794  -19.0482   26.2862 O   0  0  0  0  0  0  0  0  0  0  0  0
    7.4620  -13.9134   25.1378 N   0  0  0  0  0  0  0  0  0  0  0  0
    6.0922  -14.3777   25.3979 C   0  0  0  0  0  0  0  0  0  0  0  0
    5.7337  -13.5543   26.6167 C   0  0  0  0  0  0  0  0  0  0  0  0
    6.2139  -12.1821   26.1262 C   0  0  0  0  0  0  0  0  0  0  0  0
    7.6083  -12.5664   25.6271 C   0  0  1  0  0  0  0  0  0  0  0  0
    8.4618  -12.6010   26.8768 C   0  0  0  0  0  0  0  0  0  0  0  0
    8.9183  -11.3956   27.3499 O   0  0  0  0  0  0  0  0  0  0  0  0
    8.7454  -13.6530   27.4583 O   0  0  0  0  0  0  0  0  0  0  0  0
  2  1  1  1
  3  2  1  0
  3  4  1  0
  4  5  1  0
  5  6  1  0
  6  7  1  0
  8  2  1  0
  8  9  2  0
 10  8  1  0
 11 16  1  0
 11 10  1  0
 11 12  1  1
 13 12  1  0
 13 14  1  0
 14 18  1  0
 15 14  2  0
 16 19  1  0
 17 16  2  0
 19 20  1  0
 19 23  1  0
 20 21  1  0
 21 22  1  0
 23 22  1  0
 24 25  1  0
 23 24  1  1
 26 24  2  0
M  END
$$$$
