KEP.pdb
     RDKit          3D

 26 26  0  0  1  0  0  0  0  0999 V2000
    6.6885  -15.8740   19.6187 N   0  0  0  0  0  0  0  0  0  0  0  0
    7.3588  -14.8875   20.4106 C   0  0  1  0  0  0  0  0  0  0  0  0
    7.1945  -13.4964   19.9168 C   0  0  0  0  0  0  0  0  0  0  0  0
    8.1436  -13.1630   18.8183 C   0  0  0  0  0  0  0  0  0  0  0  0
    8.4199  -14.2368   17.8283 C   0  0  0  0  0  0  0  0  0  0  0  0
    9.3868  -13.8078   16.7466 C   0  0  0  0  0  0  0  0  0  0  0  0
    9.6999  -14.9311   15.8989 N   0  0  0  0  0  0  0  0  0  0  0  0
    7.0046  -15.0697   21.8294 C   0  0  0  0  0  0  0  0  0  0  0  0
    5.8211  -14.8644   22.1940 O   0  0  0  0  0  0  0  0  0  0  0  0
    7.9260  -15.4690   22.8332 N   0  0  0  0  0  0  0  0  0  0  0  0
    7.4669  -15.6396   24.2492 C   0  0  1  0  0  0  0  0  0  0  0  0
    7.2619  -17.1302   24.3306 C   0  0  0  0  0  0  0  0  0  0  0  0
    6.8609  -17.7087   25.6186 C   0  0  0  0  0  0  0  0  0  0  0  0
    6.7674  -19.1967   25.4296 C   0  0  0  0  0  0  0  0  0  0  0  0
    7.4117  -20.0188   26.1142 O   0  0  0  0  0  0  0  0  0  0  0  0
    8.5100  -15.1121   25.1431 C   0  0  0  0  0  0  0  0  0  0  0  0
    9.6865  -15.6379   25.0619 O   0  0  0  0  0  0  0  0  0  0  0  0
    5.9229  -19.6681   24.4460 O   0  0  0  0  0  0  0  0  0  0  0  0
    8.3607  -14.0708   26.0931 N   0  0  0  0  0  0  0  0  0  0  0  0
    7.1145  -13.2974   26.1833 C   0  0  0  0  0  0  0  0  0  0  0  0
    7.1016  -12.9390   27.6542 C   0  0  0  0  0  0  0  0  0  0  0  0
    8.5518  -12.4577   27.7942 C   0  0  0  0  0  0  0  0  0  0  0  0
    9.2717  -13.6255   27.1164 C   0  0  1  0  0  0  0  0  0  0  0  0
    9.3503  -14.6941   28.1856 C   0  0  0  0  0  0  0  0  0  0  0  0
   10.3849  -14.5987   29.0832 O   0  0  0  0  0  0  0  0  0  0  0  0
    8.5325  -15.6162   28.2641 O   0  0  0  0  0  0  0  0  0  0  0  0
  2  1  1  6
  3  2  1  0
  3  4  1  0
  4  5  1  0
  5  6  1  0
  6  7  1  0
  8  2  1  0
  8  9  2  0
 10  8  1  0
 11 16  1  0
 11 10  1  0
 11 12  1  1
 13 12  1  0
 13 14  1  0
 14 18  1  0
 15 14  2  0
 16 19  1  0
 17 16  2  0
 19 20  1  0
 19 23  1  0
 20 21  1  0
 21 22  1  0
 23 22  1  0
 24 25  1  0
 23 24  1  1
 26 24  2  0
M  END
$$$$
