KEP.pdb
     RDKit          3D

 26 26  0  0  1  0  0  0  0  0999 V2000
    6.2804  -15.9353   19.8135 N   0  0  0  0  0  0  0  0  0  0  0  0
    7.1125  -15.0874   20.6125 C   0  0  1  0  0  0  0  0  0  0  0  0
    7.1294  -13.6671   20.1780 C   0  0  0  0  0  0  0  0  0  0  0  0
    7.9859  -13.4451   18.9798 C   0  0  0  0  0  0  0  0  0  0  0  0
    9.4234  -13.7983   19.1143 C   0  0  0  0  0  0  0  0  0  0  0  0
   10.2251  -13.4944   17.8677 C   0  0  0  0  0  0  0  0  0  0  0  0
   11.5980  -13.8889   18.0625 N   0  0  0  0  0  0  0  0  0  0  0  0
    6.7884  -15.2785   22.0372 C   0  0  0  0  0  0  0  0  0  0  0  0
    5.6165  -15.0606   22.4309 O   0  0  0  0  0  0  0  0  0  0  0  0
    7.7270  -15.7000   23.0158 N   0  0  0  0  0  0  0  0  0  0  0  0
    7.3128  -15.8214   24.4506 C   0  0  1  0  0  0  0  0  0  0  0  0
    7.3406  -17.3139   24.6555 C   0  0  0  0  0  0  0  0  0  0  0  0
    6.8263  -17.8529   25.9202 C   0  0  0  0  0  0  0  0  0  0  0  0
    7.2841  -19.2812   26.0155 C   0  0  0  0  0  0  0  0  0  0  0  0
    6.6327  -20.2441   25.5593 O   0  0  0  0  0  0  0  0  0  0  0  0
    8.2706  -15.0689   25.2763 C   0  0  0  0  0  0  0  0  0  0  0  0
    9.5185  -15.3858   25.1801 O   0  0  0  0  0  0  0  0  0  0  0  0
    8.4879  -19.5301   26.6415 O   0  0  0  0  0  0  0  0  0  0  0  0
    7.9661  -14.0155   26.1746 N   0  0  0  0  0  0  0  0  0  0  0  0
    6.5919  -13.5166   26.3227 C   0  0  0  0  0  0  0  0  0  0  0  0
    6.6026  -13.0622   27.7668 C   0  0  0  0  0  0  0  0  0  0  0  0
    7.9215  -12.2782   27.7595 C   0  0  0  0  0  0  0  0  0  0  0  0
    8.8277  -13.3152   27.0924 C   0  0  1  0  0  0  0  0  0  0  0  0
    9.2069  -14.2623   28.2107 C   0  0  0  0  0  0  0  0  0  0  0  0
   10.2483  -13.8812   29.0202 O   0  0  0  0  0  0  0  0  0  0  0  0
    8.6198  -15.3318   28.4027 O   0  0  0  0  0  0  0  0  0  0  0  0
  2  1  1  6
  3  2  1  0
  3  4  1  0
  4  5  1  0
  5  6  1  0
  6  7  1  0
  8  2  1  0
  8  9  2  0
 10  8  1  0
 11 16  1  0
 11 10  1  0
 11 12  1  1
 13 12  1  0
 13 14  1  0
 14 18  1  0
 15 14  2  0
 16 19  1  0
 17 16  2  0
 19 20  1  0
 19 23  1  0
 20 21  1  0
 21 22  1  0
 23 22  1  0
 24 25  1  0
 23 24  1  1
 26 24  2  0
M  END
$$$$
