KEP.pdb
     RDKit          3D

 26 26  0  0  1  0  0  0  0  0999 V2000
    6.7003  -15.3991   19.3702 N   0  0  0  0  0  0  0  0  0  0  0  0
    7.6427  -14.7950   20.2627 C   0  0  1  0  0  0  0  0  0  0  0  0
    8.0598  -13.4244   19.8706 C   0  0  0  0  0  0  0  0  0  0  0  0
    9.3028  -13.4169   19.0501 C   0  0  0  0  0  0  0  0  0  0  0  0
   10.5438  -13.8906   19.7171 C   0  0  0  0  0  0  0  0  0  0  0  0
   11.7788  -13.7122   18.8616 C   0  0  0  0  0  0  0  0  0  0  0  0
   12.9404  -14.1748   19.5794 N   0  0  0  0  0  0  0  0  0  0  0  0
    7.1502  -14.9027   21.6473 C   0  0  0  0  0  0  0  0  0  0  0  0
    5.9979  -14.4857   21.9192 O   0  0  0  0  0  0  0  0  0  0  0  0
    7.9022  -15.4560   22.7172 N   0  0  0  0  0  0  0  0  0  0  0  0
    7.2895  -15.5840   24.0785 C   0  0  1  0  0  0  0  0  0  0  0  0
    7.3297  -17.0743   24.2971 C   0  0  0  0  0  0  0  0  0  0  0  0
    6.9559  -17.5948   25.6176 C   0  0  0  0  0  0  0  0  0  0  0  0
    7.0998  -19.0898   25.5651 C   0  0  0  0  0  0  0  0  0  0  0  0
    6.2055  -19.8524   25.1427 O   0  0  0  0  0  0  0  0  0  0  0  0
    8.0969  -14.8009   25.0273 C   0  0  0  0  0  0  0  0  0  0  0  0
    9.3689  -15.0211   25.0514 O   0  0  0  0  0  0  0  0  0  0  0  0
    8.2854  -19.6377   26.0090 O   0  0  0  0  0  0  0  0  0  0  0  0
    7.6218  -13.8134   25.9265 N   0  0  0  0  0  0  0  0  0  0  0  0
    6.2180  -13.3794   25.9059 C   0  0  0  0  0  0  0  0  0  0  0  0
    6.0082  -13.0080   27.3585 C   0  0  0  0  0  0  0  0  0  0  0  0
    7.2766  -12.1725   27.5758 C   0  0  0  0  0  0  0  0  0  0  0  0
    8.3144  -13.1325   26.9903 C   0  0  1  0  0  0  0  0  0  0  0  0
    8.5808  -14.1257   28.1011 C   0  0  0  0  0  0  0  0  0  0  0  0
    9.4880  -13.7534   29.0619 O   0  0  0  0  0  0  0  0  0  0  0  0
    8.0190  -15.2241   28.1585 O   0  0  0  0  0  0  0  0  0  0  0  0
  2  1  1  6
  3  2  1  0
  3  4  1  0
  4  5  1  0
  5  6  1  0
  6  7  1  0
  8  2  1  0
  8  9  2  0
 10  8  1  0
 11 16  1  0
 11 10  1  0
 11 12  1  1
 13 12  1  0
 13 14  1  0
 14 18  1  0
 15 14  2  0
 16 19  1  0
 17 16  2  0
 19 20  1  0
 19 23  1  0
 20 21  1  0
 21 22  1  0
 23 22  1  0
 24 25  1  0
 23 24  1  1
 26 24  2  0
M  END
$$$$
