KEP.pdb
     RDKit          3D

 26 26  0  0  1  0  0  0  0  0999 V2000
    8.8608  -15.8282   20.1486 N   0  0  0  0  0  0  0  0  0  0  0  0
    8.5555  -14.5175   20.6370 C   0  0  1  0  0  0  0  0  0  0  0  0
    7.8389  -13.6563   19.6617 C   0  0  0  0  0  0  0  0  0  0  0  0
    7.7754  -14.2613   18.3022 C   0  0  0  0  0  0  0  0  0  0  0  0
    8.1015  -13.3679   17.1599 C   0  0  0  0  0  0  0  0  0  0  0  0
    7.9134  -14.0359   15.8155 C   0  0  0  0  0  0  0  0  0  0  0  0
    8.3158  -13.1362   14.7633 N   0  0  0  0  0  0  0  0  0  0  0  0
    7.8941  -14.6216   21.9496 C   0  0  0  0  0  0  0  0  0  0  0  0
    7.3004  -13.6182   22.4150 O   0  0  0  0  0  0  0  0  0  0  0  0
    7.8806  -15.8004   22.7411 N   0  0  0  0  0  0  0  0  0  0  0  0
    7.2733  -15.7786   24.1107 C   0  0  1  0  0  0  0  0  0  0  0  0
    7.2166  -17.2462   24.4473 C   0  0  0  0  0  0  0  0  0  0  0  0
    6.7378  -17.6373   25.7786 C   0  0  0  0  0  0  0  0  0  0  0  0
    6.8635  -19.1317   25.8768 C   0  0  0  0  0  0  0  0  0  0  0  0
    6.2260  -19.9246   25.1526 O   0  0  0  0  0  0  0  0  0  0  0  0
    8.1395  -14.9784   24.9908 C   0  0  0  0  0  0  0  0  0  0  0  0
    9.3985  -15.2641   25.0084 O   0  0  0  0  0  0  0  0  0  0  0  0
    7.7312  -19.6433   26.8193 O   0  0  0  0  0  0  0  0  0  0  0  0
    7.7349  -13.9093   25.8290 N   0  0  0  0  0  0  0  0  0  0  0  0
    6.3381  -13.4537   25.8586 C   0  0  0  0  0  0  0  0  0  0  0  0
    6.2258  -12.9557   27.2838 C   0  0  0  0  0  0  0  0  0  0  0  0
    7.5158  -12.1274   27.3485 C   0  0  0  0  0  0  0  0  0  0  0  0
    8.5023  -13.1523   26.7847 C   0  0  1  0  0  0  0  0  0  0  0  0
    8.8265  -14.0515   27.9585 C   0  0  0  0  0  0  0  0  0  0  0  0
    9.8083  -13.6218   28.8165 O   0  0  0  0  0  0  0  0  0  0  0  0
    8.2468  -15.1247   28.1528 O   0  0  0  0  0  0  0  0  0  0  0  0
  2  1  1  6
  3  2  1  0
  3  4  1  0
  4  5  1  0
  5  6  1  0
  6  7  1  0
  8  2  1  0
  8  9  2  0
 10  8  1  0
 11 16  1  0
 11 10  1  0
 11 12  1  1
 13 12  1  0
 13 14  1  0
 14 18  1  0
 15 14  2  0
 16 19  1  0
 17 16  2  0
 19 20  1  0
 19 23  1  0
 20 21  1  0
 21 22  1  0
 23 22  1  0
 24 25  1  0
 23 24  1  1
 26 24  2  0
M  END
$$$$
