KEP.pdb
     RDKit          3D

 26 26  0  0  1  0  0  0  0  0999 V2000
   12.4324  -18.2730   25.9541 N   0  0  0  0  0  0  0  0  0  0  0  0
   11.1369  -17.9092   26.4430 C   0  0  1  0  0  0  0  0  0  0  0  0
   11.0326  -17.8763   27.9243 C   0  0  0  0  0  0  0  0  0  0  0  0
   10.9316  -19.2370   28.5214 C   0  0  0  0  0  0  0  0  0  0  0  0
   12.1595  -20.0738   28.4832 C   0  0  0  0  0  0  0  0  0  0  0  0
   11.9595  -21.4438   29.0931 C   0  0  0  0  0  0  0  0  0  0  0  0
   13.2035  -22.1722   29.0747 N   0  0  0  0  0  0  0  0  0  0  0  0
   10.6883  -16.6724   25.7792 C   0  0  0  0  0  0  0  0  0  0  0  0
   11.3274  -15.6095   25.9732 O   0  0  0  0  0  0  0  0  0  0  0  0
    9.5617  -16.5966   24.9183 N   0  0  0  0  0  0  0  0  0  0  0  0
    9.0651  -15.2640   24.4466 C   0  0  1  0  0  0  0  0  0  0  0  0
    8.5577  -15.5936   23.0667 C   0  0  0  0  0  0  0  0  0  0  0  0
    9.5371  -15.7630   21.9866 C   0  0  0  0  0  0  0  0  0  0  0  0
    8.7785  -16.1775   20.7573 C   0  0  0  0  0  0  0  0  0  0  0  0
    8.1261  -15.3810   20.0504 O   0  0  0  0  0  0  0  0  0  0  0  0
    8.0343  -14.7931   25.3851 C   0  0  0  0  0  0  0  0  0  0  0  0
    7.3065  -15.6859   25.9686 O   0  0  0  0  0  0  0  0  0  0  0  0
    8.8112  -17.5096   20.4002 O   0  0  0  0  0  0  0  0  0  0  0  0
    7.7543  -13.4459   25.7258 N   0  0  0  0  0  0  0  0  0  0  0  0
    8.4493  -12.3341   25.0624 C   0  0  0  0  0  0  0  0  0  0  0  0
    7.3907  -11.2535   25.1222 C   0  0  0  0  0  0  0  0  0  0  0  0
    6.9843  -11.4002   26.5944 C   0  0  0  0  0  0  0  0  0  0  0  0
    6.7857  -12.9164   26.6514 C   0  0  1  0  0  0  0  0  0  0  0  0
    5.4029  -13.1392   26.0772 C   0  0  0  0  0  0  0  0  0  0  0  0
    4.3421  -12.9772   26.9335 O   0  0  0  0  0  0  0  0  0  0  0  0
    5.2165  -13.4524   24.8971 O   0  0  0  0  0  0  0  0  0  0  0  0
  2  1  1  1
  3  2  1  0
  3  4  1  0
  4  5  1  0
  5  6  1  0
  6  7  1  0
  8  2  1  0
  8  9  2  0
 10  8  1  0
 11 16  1  0
 11 10  1  0
 11 12  1  6
 13 12  1  0
 13 14  1  0
 14 18  1  0
 15 14  2  0
 16 19  1  0
 17 16  2  0
 19 20  1  0
 19 23  1  0
 20 21  1  0
 21 22  1  0
 23 22  1  0
 24 25  1  0
 23 24  1  6
 26 24  2  0
M  END
$$$$
