KEP.pdb
     RDKit          3D

 26 26  0  0  1  0  0  0  0  0999 V2000
    5.6207  -16.7495   19.9788 N   0  0  0  0  0  0  0  0  0  0  0  0
    6.7117  -16.0038   20.5295 C   0  0  1  0  0  0  0  0  0  0  0  0
    7.0408  -14.7640   19.7806 C   0  0  0  0  0  0  0  0  0  0  0  0
    8.2963  -14.1218   20.2600 C   0  0  0  0  0  0  0  0  0  0  0  0
    9.4396  -14.1039   19.3103 C   0  0  0  0  0  0  0  0  0  0  0  0
   10.6757  -13.4492   19.8870 C   0  0  0  0  0  0  0  0  0  0  0  0
   11.7816  -13.6076   18.9757 N   0  0  0  0  0  0  0  0  0  0  0  0
    6.4897  -15.7965   21.9714 C   0  0  0  0  0  0  0  0  0  0  0  0
    5.3813  -15.3539   22.3607 O   0  0  0  0  0  0  0  0  0  0  0  0
    7.4604  -16.0673   22.9717 N   0  0  0  0  0  0  0  0  0  0  0  0
    7.0721  -16.0532   24.4187 C   0  0  1  0  0  0  0  0  0  0  0  0
    7.2558  -17.4986   24.8025 C   0  0  0  0  0  0  0  0  0  0  0  0
    7.0562  -17.8771   26.2066 C   0  0  0  0  0  0  0  0  0  0  0  0
    7.3676  -19.3428   26.3222 C   0  0  0  0  0  0  0  0  0  0  0  0
    7.5984  -20.0766   25.3384 O   0  0  0  0  0  0  0  0  0  0  0  0
    7.9531  -15.1115   25.1275 C   0  0  0  0  0  0  0  0  0  0  0  0
    9.2184  -15.1764   24.8786 O   0  0  0  0  0  0  0  0  0  0  0  0
    7.3974  -19.8961   27.5856 O   0  0  0  0  0  0  0  0  0  0  0  0
    7.5553  -14.1239   26.0632 N   0  0  0  0  0  0  0  0  0  0  0  0
    6.1349  -13.8606   26.3325 C   0  0  0  0  0  0  0  0  0  0  0  0
    6.1923  -13.4115   27.7772 C   0  0  0  0  0  0  0  0  0  0  0  0
    7.3576  -12.4190   27.6714 C   0  0  0  0  0  0  0  0  0  0  0  0
    8.3634  -13.2904   26.9161 C   0  0  1  0  0  0  0  0  0  0  0  0
    8.9875  -14.1617   27.9851 C   0  0  0  0  0  0  0  0  0  0  0  0
   10.0255  -13.6181   28.7006 O   0  0  0  0  0  0  0  0  0  0  0  0
    8.5961  -15.3097   28.2181 O   0  0  0  0  0  0  0  0  0  0  0  0
  2  1  1  6
  3  2  1  0
  3  4  1  0
  4  5  1  0
  5  6  1  0
  6  7  1  0
  8  2  1  0
  8  9  2  0
 10  8  1  0
 11 16  1  0
 11 10  1  0
 11 12  1  1
 13 12  1  0
 13 14  1  0
 14 18  1  0
 15 14  2  0
 16 19  1  0
 17 16  2  0
 19 20  1  0
 19 23  1  0
 20 21  1  0
 21 22  1  0
 23 22  1  0
 24 25  1  0
 23 24  1  1
 26 24  2  0
M  END
$$$$
