KEP.pdb
     RDKit          3D

 26 26  0  0  1  0  0  0  0  0999 V2000
    5.6735  -16.6210   21.0257 N   0  0  0  0  0  0  0  0  0  0  0  0
    6.9085  -16.0952   21.5236 C   0  0  1  0  0  0  0  0  0  0  0  0
    7.2891  -14.7822   20.9427 C   0  0  0  0  0  0  0  0  0  0  0  0
    7.6362  -14.8747   19.4972 C   0  0  0  0  0  0  0  0  0  0  0  0
    8.1225  -13.6291   18.8482 C   0  0  0  0  0  0  0  0  0  0  0  0
    8.5851  -13.8472   17.4243 C   0  0  0  0  0  0  0  0  0  0  0  0
    8.9946  -12.5913   16.8467 N   0  0  0  0  0  0  0  0  0  0  0  0
    6.8983  -16.1227   22.9969 C   0  0  0  0  0  0  0  0  0  0  0  0
    5.8776  -15.7214   23.6075 O   0  0  0  0  0  0  0  0  0  0  0  0
    7.9833  -16.5802   23.7904 N   0  0  0  0  0  0  0  0  0  0  0  0
    7.9043  -16.5065   25.2848 C   0  0  1  0  0  0  0  0  0  0  0  0
    7.7219  -17.9552   25.6568 C   0  0  0  0  0  0  0  0  0  0  0  0
    6.4909  -18.6332   25.2332 C   0  0  0  0  0  0  0  0  0  0  0  0
    6.5611  -20.0453   25.7430 C   0  0  0  0  0  0  0  0  0  0  0  0
    6.7892  -20.3352   26.9361 O   0  0  0  0  0  0  0  0  0  0  0  0
    9.1447  -15.8939   25.7864 C   0  0  0  0  0  0  0  0  0  0  0  0
   10.2614  -16.3304   25.3072 O   0  0  0  0  0  0  0  0  0  0  0  0
    6.3618  -21.0665   24.8373 O   0  0  0  0  0  0  0  0  0  0  0  0
    9.2459  -14.8581   26.7488 N   0  0  0  0  0  0  0  0  0  0  0  0
    8.0740  -14.0573   27.1292 C   0  0  0  0  0  0  0  0  0  0  0  0
    8.4123  -13.7120   28.5639 C   0  0  0  0  0  0  0  0  0  0  0  0
    9.8665  -13.2653   28.3643 C   0  0  0  0  0  0  0  0  0  0  0  0
   10.3804  -14.4430   27.5334 C   0  0  1  0  0  0  0  0  0  0  0  0
   10.6795  -15.5228   28.5513 C   0  0  0  0  0  0  0  0  0  0  0  0
    9.7544  -16.5294   28.6779 O   0  0  0  0  0  0  0  0  0  0  0  0
   11.7014  -15.5168   29.2449 O   0  0  0  0  0  0  0  0  0  0  0  0
  2  1  1  6
  3  2  1  0
  3  4  1  0
  4  5  1  0
  5  6  1  0
  6  7  1  0
  8  2  1  0
  8  9  2  0
 10  8  1  0
 11 16  1  0
 11 10  1  0
 11 12  1  1
 13 12  1  0
 13 14  1  0
 14 18  1  0
 15 14  2  0
 16 19  1  0
 17 16  2  0
 19 20  1  0
 19 23  1  0
 20 21  1  0
 21 22  1  0
 23 22  1  0
 24 25  1  0
 23 24  1  1
 26 24  2  0
M  END
$$$$
