KEP.pdb
     RDKit          3D

 26 26  0  0  1  0  0  0  0  0999 V2000
    6.6443  -17.1540   20.0339 N   0  0  0  0  0  0  0  0  0  0  0  0
    7.3511  -16.1085   20.7099 C   0  0  1  0  0  0  0  0  0  0  0  0
    7.2721  -14.7867   20.0370 C   0  0  0  0  0  0  0  0  0  0  0  0
    7.8586  -14.8052   18.6681 C   0  0  0  0  0  0  0  0  0  0  0  0
    7.7400  -13.5531   17.8759 C   0  0  0  0  0  0  0  0  0  0  0  0
    8.3858  -13.6543   16.5115 C   0  0  0  0  0  0  0  0  0  0  0  0
    8.2226  -12.4104   15.8011 N   0  0  0  0  0  0  0  0  0  0  0  0
    6.9597  -16.0866   22.1304 C   0  0  0  0  0  0  0  0  0  0  0  0
    5.7412  -16.0299   22.4267 O   0  0  0  0  0  0  0  0  0  0  0  0
    7.8821  -16.1258   23.2093 N   0  0  0  0  0  0  0  0  0  0  0  0
    7.3888  -16.0530   24.6222 C   0  0  1  0  0  0  0  0  0  0  0  0
    7.5383  -17.4819   25.0762 C   0  0  0  0  0  0  0  0  0  0  0  0
    7.1875  -17.8124   26.4626 C   0  0  0  0  0  0  0  0  0  0  0  0
    7.5903  -19.2414   26.6962 C   0  0  0  0  0  0  0  0  0  0  0  0
    8.5802  -19.7746   26.1529 O   0  0  0  0  0  0  0  0  0  0  0  0
    8.2192  -15.0842   25.3552 C   0  0  0  0  0  0  0  0  0  0  0  0
    9.5010  -15.2184   25.2774 O   0  0  0  0  0  0  0  0  0  0  0  0
    6.8191  -19.9940   27.5575 O   0  0  0  0  0  0  0  0  0  0  0  0
    7.7561  -14.0016   26.1444 N   0  0  0  0  0  0  0  0  0  0  0  0
    6.3224  -13.6968   26.2499 C   0  0  0  0  0  0  0  0  0  0  0  0
    6.2540  -13.1026   27.6406 C   0  0  0  0  0  0  0  0  0  0  0  0
    7.4442  -12.1388   27.5461 C   0  0  0  0  0  0  0  0  0  0  0  0
    8.4980  -13.0938   26.9815 C   0  0  1  0  0  0  0  0  0  0  0  0
    9.0018  -13.8577   28.1874 C   0  0  0  0  0  0  0  0  0  0  0  0
    9.9878  -13.2601   28.9328 O   0  0  0  0  0  0  0  0  0  0  0  0
    8.5598  -14.9670   28.5028 O   0  0  0  0  0  0  0  0  0  0  0  0
  2  1  1  6
  3  2  1  0
  3  4  1  0
  4  5  1  0
  5  6  1  0
  6  7  1  0
  8  2  1  0
  8  9  2  0
 10  8  1  0
 11 16  1  0
 11 10  1  0
 11 12  1  1
 13 12  1  0
 13 14  1  0
 14 18  1  0
 15 14  2  0
 16 19  1  0
 17 16  2  0
 19 20  1  0
 19 23  1  0
 20 21  1  0
 21 22  1  0
 23 22  1  0
 24 25  1  0
 23 24  1  1
 26 24  2  0
M  END
$$$$
