KEP.pdb
     RDKit          3D

 26 26  0  0  1  0  0  0  0  0999 V2000
    6.7088  -15.7754   19.6473 N   0  0  0  0  0  0  0  0  0  0  0  0
    7.4546  -14.8530   20.4490 C   0  0  1  0  0  0  0  0  0  0  0  0
    7.4277  -13.4540   19.9509 C   0  0  0  0  0  0  0  0  0  0  0  0
    8.4204  -13.2129   18.8671 C   0  0  0  0  0  0  0  0  0  0  0  0
    8.3869  -14.1492   17.7131 C   0  0  0  0  0  0  0  0  0  0  0  0
    9.4267  -13.8282   16.6620 C   0  0  0  0  0  0  0  0  0  0  0  0
    9.2879  -14.7313   15.5469 N   0  0  0  0  0  0  0  0  0  0  0  0
    7.0624  -14.9979   21.8620 C   0  0  0  0  0  0  0  0  0  0  0  0
    5.9456  -14.5612   22.2330 O   0  0  0  0  0  0  0  0  0  0  0  0
    7.8749  -15.6089   22.8533 N   0  0  0  0  0  0  0  0  0  0  0  0
    7.3908  -15.7027   24.2682 C   0  0  1  0  0  0  0  0  0  0  0  0
    7.4102  -17.1907   24.5039 C   0  0  0  0  0  0  0  0  0  0  0  0
    7.0577  -17.6890   25.8388 C   0  0  0  0  0  0  0  0  0  0  0  0
    7.2450  -19.1801   25.8223 C   0  0  0  0  0  0  0  0  0  0  0  0
    6.3138  -19.9881   25.6235 O   0  0  0  0  0  0  0  0  0  0  0  0
    8.3059  -14.9319   25.1248 C   0  0  0  0  0  0  0  0  0  0  0  0
    9.5578  -15.2467   25.0949 O   0  0  0  0  0  0  0  0  0  0  0  0
    8.5159  -19.6708   26.0393 O   0  0  0  0  0  0  0  0  0  0  0  0
    7.9561  -13.8628   25.9874 N   0  0  0  0  0  0  0  0  0  0  0  0
    6.6312  -13.2313   25.9160 C   0  0  0  0  0  0  0  0  0  0  0  0
    6.4402  -12.7953   27.3532 C   0  0  0  0  0  0  0  0  0  0  0  0
    7.8104  -12.1463   27.5887 C   0  0  0  0  0  0  0  0  0  0  0  0
    8.7126  -13.2612   27.0555 C   0  0  1  0  0  0  0  0  0  0  0  0
    8.8034  -14.2529   28.1955 C   0  0  0  0  0  0  0  0  0  0  0  0
    9.7447  -14.0016   29.1630 O   0  0  0  0  0  0  0  0  0  0  0  0
    8.0746  -15.2472   28.2703 O   0  0  0  0  0  0  0  0  0  0  0  0
  2  1  1  6
  3  2  1  0
  3  4  1  0
  4  5  1  0
  5  6  1  0
  6  7  1  0
  8  2  1  0
  8  9  2  0
 10  8  1  0
 11 16  1  0
 11 10  1  0
 11 12  1  1
 13 12  1  0
 13 14  1  0
 14 18  1  0
 15 14  2  0
 16 19  1  0
 17 16  2  0
 19 20  1  0
 19 23  1  0
 20 21  1  0
 21 22  1  0
 23 22  1  0
 24 25  1  0
 23 24  1  1
 26 24  2  0
M  END
$$$$
