CFD.pdb
     RDKit          3D

 26 26  0  0  1  0  0  0  0  0999 V2000
   27.6056  -22.2416  -17.8857 N   0  0  0  0  0  0  0  0  0  0  0  0
   27.4041  -20.9842  -17.1996 C   0  0  1  0  0  0  0  0  0  0  0  0
   26.3245  -20.1562  -17.8237 C   0  0  0  0  0  0  0  0  0  0  0  0
   26.2756  -20.3226  -19.6263 S   0  0  0  0  0  0  0  0  0  0  0  0
   27.0399  -21.2191  -15.7610 C   0  0  0  0  0  0  0  0  0  0  0  0
   26.4613  -22.2908  -15.4235 O   0  0  0  0  0  0  0  0  0  0  0  0
   27.3285  -20.2593  -14.7556 N   0  0  0  0  0  0  0  0  0  0  0  0
   26.9708  -20.5478  -13.3707 C   0  0  1  0  0  0  0  0  0  0  0  0
   27.7943  -19.7483  -12.4203 C   0  0  0  0  0  0  0  0  0  0  0  0
   27.4680  -19.9987  -11.0113 C   0  0  0  0  0  0  0  0  0  0  0  0
   27.9546  -21.1295  -10.3452 C   0  0  0  0  0  0  0  0  0  0  0  0
   27.6825  -21.3820   -9.0250 C   0  0  0  0  0  0  0  0  0  0  0  0
   26.9088  -20.5188   -8.2959 C   0  0  0  0  0  0  0  0  0  0  0  0
   26.4184  -19.4041   -8.9177 C   0  0  0  0  0  0  0  0  0  0  0  0
   26.6966  -19.1570  -10.2433 C   0  0  0  0  0  0  0  0  0  0  0  0
   25.5260  -20.3620  -13.1411 C   0  0  0  0  0  0  0  0  0  0  0  0
   24.9648  -19.3570  -13.6101 O   0  0  0  0  0  0  0  0  0  0  0  0
   24.7316  -21.2800  -12.4057 N   0  0  0  0  0  0  0  0  0  0  0  0
   23.2980  -21.0426  -12.2028 C   0  0  1  0  0  0  0  0  0  0  0  0
   22.5059  -22.0847  -12.9717 C   0  0  0  0  0  0  0  0  0  0  0  0
   21.7248  -21.5252  -14.0715 C   0  0  0  0  0  0  0  0  0  0  0  0
   21.7191  -20.2860  -14.2782 O   0  0  0  0  0  0  0  0  0  0  0  0
   22.9722  -21.0053  -10.7704 C   0  0  0  0  0  0  0  0  0  0  0  0
   21.8216  -20.3983  -10.2906 O   0  0  0  0  0  0  0  0  0  0  0  0
   20.9823  -22.3535  -14.8975 O   0  0  0  0  0  0  0  0  0  0  0  0
   23.7471  -21.5377   -9.9188 O   0  0  0  0  0  0  0  0  0  0  0  0
  2  1  1  6
  3  2  1  0
  3  4  1  0
  5  7  1  0
  5  2  1  0
  6  5  2  0
  8  7  1  0
  9 10  1  0
  8  9  1  1
 10 11  2  0
 10 15  1  0
 11 12  1  0
 12 13  2  0
 14 13  1  0
 15 14  2  0
 16 17  2  0
 16  8  1  0
 18 16  1  0
 19 20  1  6
 19 18  1  0
 20 21  1  0
 21 25  1  0
 21 22  2  0
 23 19  1  0
 24 23  1  0
 26 23  2  0
M  END
$$$$
