CFD.pdb
     RDKit          3D

 26 26  0  0  1  0  0  0  0  0999 V2000
   20.1766  -21.0953  -10.8831 N   0  0  0  0  0  0  0  0  0  0  0  0
   21.1405  -21.7588  -11.7334 C   0  0  1  0  0  0  0  0  0  0  0  0
   20.5246  -22.2995  -12.9860 C   0  0  0  0  0  0  0  0  0  0  0  0
   19.3479  -23.6369  -12.6605 S   0  0  0  0  0  0  0  0  0  0  0  0
   22.2404  -20.8130  -12.1243 C   0  0  0  0  0  0  0  0  0  0  0  0
   21.9987  -19.5782  -12.2418 O   0  0  0  0  0  0  0  0  0  0  0  0
   23.5613  -21.2714  -12.3709 N   0  0  0  0  0  0  0  0  0  0  0  0
   24.6145  -20.2988  -12.6422 C   0  0  1  0  0  0  0  0  0  0  0  0
   25.9133  -20.7269  -12.0501 C   0  0  0  0  0  0  0  0  0  0  0  0
   25.9781  -20.5500  -10.5944 C   0  0  0  0  0  0  0  0  0  0  0  0
   26.3942  -21.5908   -9.7562 C   0  0  0  0  0  0  0  0  0  0  0  0
   26.4825  -21.4513   -8.3949 C   0  0  0  0  0  0  0  0  0  0  0  0
   26.1597  -20.2637   -7.7941 C   0  0  0  0  0  0  0  0  0  0  0  0
   25.7499  -19.2267   -8.5856 C   0  0  0  0  0  0  0  0  0  0  0  0
   25.6646  -19.3743   -9.9518 C   0  0  0  0  0  0  0  0  0  0  0  0
   24.7298  -20.0233  -14.0862 C   0  0  0  0  0  0  0  0  0  0  0  0
   24.6856  -20.9728  -14.8871 O   0  0  0  0  0  0  0  0  0  0  0  0
   24.8895  -18.7170  -14.6179 N   0  0  0  0  0  0  0  0  0  0  0  0
   24.6326  -18.4437  -16.0364 C   0  0  1  0  0  0  0  0  0  0  0  0
   25.2832  -19.5261  -16.8789 C   0  0  0  0  0  0  0  0  0  0  0  0
   25.9143  -19.0159  -18.0931 C   0  0  0  0  0  0  0  0  0  0  0  0
   26.5180  -19.7975  -18.8696 O   0  0  0  0  0  0  0  0  0  0  0  0
   23.1921  -18.2985  -16.2880 C   0  0  0  0  0  0  0  0  0  0  0  0
   22.6585  -17.1716  -16.8945 O   0  0  0  0  0  0  0  0  0  0  0  0
   25.8546  -17.6665  -18.4012 O   0  0  0  0  0  0  0  0  0  0  0  0
   22.3833  -19.2165  -15.9529 O   0  0  0  0  0  0  0  0  0  0  0  0
  2  1  1  6
  3  2  1  0
  3  4  1  0
  5  7  1  0
  5  2  1  0
  6  5  2  0
  8  7  1  0
  9 10  1  0
  8  9  1  6
 10 11  2  0
 10 15  1  0
 11 12  1  0
 12 13  2  0
 14 13  1  0
 15 14  2  0
 16 17  2  0
 16  8  1  0
 18 16  1  0
 19 20  1  6
 19 18  1  0
 20 21  1  0
 21 25  1  0
 21 22  2  0
 23 19  1  0
 24 23  1  0
 26 23  2  0
M  END
$$$$
