CFD.pdb
     RDKit          3D

 26 26  0  0  1  0  0  0  0  0999 V2000
   18.9328   -9.9962  -16.3770 N   0  0  0  0  0  0  0  0  0  0  0  0
   19.2560   -8.6986  -16.9287 C   0  0  1  0  0  0  0  0  0  0  0  0
   18.2089   -8.2005  -17.8754 C   0  0  0  0  0  0  0  0  0  0  0  0
   18.3333   -8.9632  -19.5131 S   0  0  0  0  0  0  0  0  0  0  0  0
   19.4162   -7.6831  -15.8331 C   0  0  0  0  0  0  0  0  0  0  0  0
   18.5680   -7.6244  -14.8982 O   0  0  0  0  0  0  0  0  0  0  0  0
   20.5062   -6.7736  -15.8172 N   0  0  0  0  0  0  0  0  0  0  0  0
   20.5604   -5.7436  -14.7850 C   0  0  1  0  0  0  0  0  0  0  0  0
   21.6692   -5.9985  -13.8227 C   0  0  0  0  0  0  0  0  0  0  0  0
   22.8501   -6.6125  -14.4417 C   0  0  0  0  0  0  0  0  0  0  0  0
   23.0923   -7.9868  -14.3336 C   0  0  0  0  0  0  0  0  0  0  0  0
   24.1762   -8.5928  -14.9154 C   0  0  0  0  0  0  0  0  0  0  0  0
   25.0795   -7.8597  -15.6379 C   0  0  0  0  0  0  0  0  0  0  0  0
   24.8709   -6.5141  -15.7627 C   0  0  0  0  0  0  0  0  0  0  0  0
   23.7798   -5.9129  -15.1763 C   0  0  0  0  0  0  0  0  0  0  0  0
   20.6420   -4.3958  -15.3775 C   0  0  0  0  0  0  0  0  0  0  0  0
   21.4090   -4.2036  -16.3365 O   0  0  0  0  0  0  0  0  0  0  0  0
   19.8824   -3.2928  -14.9072 N   0  0  0  0  0  0  0  0  0  0  0  0
   19.9569   -1.9874  -15.5729 C   0  0  1  0  0  0  0  0  0  0  0  0
   18.5737   -1.3623  -15.6016 C   0  0  0  0  0  0  0  0  0  0  0  0
   17.6165   -2.1079  -16.4143 C   0  0  0  0  0  0  0  0  0  0  0  0
   17.9550   -2.5602  -17.5364 O   0  0  0  0  0  0  0  0  0  0  0  0
   20.9679   -1.1326  -14.9353 C   0  0  0  0  0  0  0  0  0  0  0  0
   21.6090   -0.1113  -15.6197 O   0  0  0  0  0  0  0  0  0  0  0  0
   16.3263   -2.3238  -15.9577 O   0  0  0  0  0  0  0  0  0  0  0  0
   21.2863   -1.3074  -13.7199 O   0  0  0  0  0  0  0  0  0  0  0  0
  2  1  1  1
  3  2  1  0
  3  4  1  0
  5  7  1  0
  5  2  1  0
  6  5  2  0
  8  7  1  0
  9 10  1  0
  8  9  1  1
 10 11  2  0
 10 15  1  0
 11 12  1  0
 12 13  2  0
 14 13  1  0
 15 14  2  0
 16 17  2  0
 16  8  1  0
 18 16  1  0
 19 20  1  1
 19 18  1  0
 20 21  1  0
 21 25  1  0
 21 22  2  0
 23 19  1  0
 24 23  1  0
 26 23  2  0
M  END
$$$$
