CFD.pdb
     RDKit          3D

 26 26  0  0  1  0  0  0  0  0999 V2000
   27.2024  -22.6108  -14.0274 N   0  0  0  0  0  0  0  0  0  0  0  0
   27.7651  -21.4829  -13.3178 C   0  0  1  0  0  0  0  0  0  0  0  0
   27.2996  -20.1699  -13.8656 C   0  0  0  0  0  0  0  0  0  0  0  0
   25.5379  -20.1774  -14.2850 S   0  0  0  0  0  0  0  0  0  0  0  0
   27.3987  -21.5378  -11.8618 C   0  0  0  0  0  0  0  0  0  0  0  0
   26.5121  -22.3458  -11.4643 O   0  0  0  0  0  0  0  0  0  0  0  0
   28.0260  -20.6961  -10.9059 N   0  0  0  0  0  0  0  0  0  0  0  0
   27.6144  -20.7741   -9.5082 C   0  0  1  0  0  0  0  0  0  0  0  0
   28.6386  -20.1743   -8.6073 C   0  0  0  0  0  0  0  0  0  0  0  0
   28.2294  -20.1414   -7.1980 C   0  0  0  0  0  0  0  0  0  0  0  0
   28.6127  -21.1521   -6.3088 C   0  0  0  0  0  0  0  0  0  0  0  0
   28.2617  -21.1406   -4.9832 C   0  0  0  0  0  0  0  0  0  0  0  0
   27.5077  -20.1185   -4.4712 C   0  0  0  0  0  0  0  0  0  0  0  0
   27.1174  -19.1151   -5.3142 C   0  0  0  0  0  0  0  0  0  0  0  0
   27.4745  -19.1332   -6.6438 C   0  0  0  0  0  0  0  0  0  0  0  0
   26.2827  -20.1732   -9.3080 C   0  0  0  0  0  0  0  0  0  0  0  0
   25.9858  -19.1416   -9.9345 O   0  0  0  0  0  0  0  0  0  0  0  0
   25.3094  -20.7159   -8.4288 N   0  0  0  0  0  0  0  0  0  0  0  0
   23.8762  -20.5446   -8.6924 C   0  0  1  0  0  0  0  0  0  0  0  0
   23.5333  -21.1878  -10.0241 C   0  0  0  0  0  0  0  0  0  0  0  0
   23.0360  -20.2387  -11.0163 C   0  0  0  0  0  0  0  0  0  0  0  0
   22.9269  -19.0206  -10.7288 O   0  0  0  0  0  0  0  0  0  0  0  0
   23.0741  -21.0601   -7.5743 C   0  0  0  0  0  0  0  0  0  0  0  0
   21.7315  -20.7482   -7.4235 O   0  0  0  0  0  0  0  0  0  0  0  0
   22.6792  -20.6706  -12.2835 O   0  0  0  0  0  0  0  0  0  0  0  0
   23.5963  -21.8188   -6.7021 O   0  0  0  0  0  0  0  0  0  0  0  0
  2  1  1  6
  3  2  1  0
  3  4  1  0
  5  7  1  0
  5  2  1  0
  6  5  2  0
  8  7  1  0
  9 10  1  0
  8  9  1  1
 10 11  2  0
 10 15  1  0
 11 12  1  0
 12 13  2  0
 14 13  1  0
 15 14  2  0
 16 17  2  0
 16  8  1  0
 18 16  1  0
 19 20  1  6
 19 18  1  0
 20 21  1  0
 21 25  1  0
 21 22  2  0
 23 19  1  0
 24 23  1  0
 26 23  2  0
M  END
$$$$
