CFD.pdb
     RDKit          3D

 26 26  0  0  1  0  0  0  0  0999 V2000
   28.7883  -22.0805  -16.7288 N   0  0  0  0  0  0  0  0  0  0  0  0
   27.7357  -21.1068  -16.5382 C   0  0  1  0  0  0  0  0  0  0  0  0
   26.8238  -21.0084  -17.7211 C   0  0  0  0  0  0  0  0  0  0  0  0
   27.5916  -20.1543  -19.1213 S   0  0  0  0  0  0  0  0  0  0  0  0
   26.9049  -21.4547  -15.3357 C   0  0  0  0  0  0  0  0  0  0  0  0
   26.7617  -22.6634  -14.9960 O   0  0  0  0  0  0  0  0  0  0  0  0
   26.2655  -20.4524  -14.5597 N   0  0  0  0  0  0  0  0  0  0  0  0
   25.5559  -20.8364  -13.3439 C   0  0  1  0  0  0  0  0  0  0  0  0
   26.0682  -20.0919  -12.1591 C   0  0  0  0  0  0  0  0  0  0  0  0
   27.4141  -20.5072  -11.7457 C   0  0  0  0  0  0  0  0  0  0  0  0
   28.5509  -20.0670  -12.4333 C   0  0  0  0  0  0  0  0  0  0  0  0
   29.8220  -20.4226  -12.0610 C   0  0  0  0  0  0  0  0  0  0  0  0
   30.0288  -21.2382  -10.9805 C   0  0  0  0  0  0  0  0  0  0  0  0
   28.9384  -21.6850  -10.2870 C   0  0  0  0  0  0  0  0  0  0  0  0
   27.6653  -21.3230  -10.6664 C   0  0  0  0  0  0  0  0  0  0  0  0
   24.0980  -20.6838  -13.5042 C   0  0  0  0  0  0  0  0  0  0  0  0
   23.6503  -19.6239  -13.9745 O   0  0  0  0  0  0  0  0  0  0  0  0
   23.1669  -21.6939  -13.1471 N   0  0  0  0  0  0  0  0  0  0  0  0
   21.7224  -21.4604  -13.2560 C   0  0  1  0  0  0  0  0  0  0  0  0
   21.0263  -22.7742  -13.5628 C   0  0  0  0  0  0  0  0  0  0  0  0
   19.9245  -22.6395  -14.5118 C   0  0  0  0  0  0  0  0  0  0  0  0
   19.5882  -21.5056  -14.9353 O   0  0  0  0  0  0  0  0  0  0  0  0
   21.2079  -20.7979  -12.0495 C   0  0  0  0  0  0  0  0  0  0  0  0
   20.2780  -19.7713  -12.1107 O   0  0  0  0  0  0  0  0  0  0  0  0
   19.2387  -23.7591  -14.9543 O   0  0  0  0  0  0  0  0  0  0  0  0
   21.6059  -21.1541  -10.8989 O   0  0  0  0  0  0  0  0  0  0  0  0
  2  1  1  6
  3  2  1  0
  3  4  1  0
  5  7  1  0
  5  2  1  0
  6  5  2  0
  8  7  1  0
  9 10  1  0
  8  9  1  1
 10 11  2  0
 10 15  1  0
 11 12  1  0
 12 13  2  0
 14 13  1  0
 15 14  2  0
 16 17  2  0
 16  8  1  0
 18 16  1  0
 19 20  1  1
 19 18  1  0
 20 21  1  0
 21 25  1  0
 21 22  2  0
 23 19  1  0
 24 23  1  0
 26 23  2  0
M  END
$$$$
