CFD.pdb
     RDKit          3D

 26 26  0  0  1  0  0  0  0  0999 V2000
   22.2421  -13.7731  -18.9983 N   0  0  0  0  0  0  0  0  0  0  0  0
   22.6381  -12.4500  -19.4283 C   0  0  1  0  0  0  0  0  0  0  0  0
   22.0865  -12.0946  -20.7737 C   0  0  0  0  0  0  0  0  0  0  0  0
   22.9446  -12.9443  -22.1231 S   0  0  0  0  0  0  0  0  0  0  0  0
   22.1745  -11.4133  -18.4447 C   0  0  0  0  0  0  0  0  0  0  0  0
   20.9693  -11.3983  -18.0647 O   0  0  0  0  0  0  0  0  0  0  0  0
   23.0615  -10.4350  -17.9234 N   0  0  0  0  0  0  0  0  0  0  0  0
   22.5351   -9.3829  -17.0602 C   0  0  1  0  0  0  0  0  0  0  0  0
   23.5114   -9.0158  -15.9959 C   0  0  0  0  0  0  0  0  0  0  0  0
   23.0555   -7.9137  -15.1403 C   0  0  0  0  0  0  0  0  0  0  0  0
   22.2881   -8.1558  -13.9950 C   0  0  0  0  0  0  0  0  0  0  0  0
   21.8624   -7.1497  -13.1660 C   0  0  0  0  0  0  0  0  0  0  0  0
   22.1796   -5.8448  -13.4347 C   0  0  0  0  0  0  0  0  0  0  0  0
   22.9288   -5.5750  -14.5462 C   0  0  0  0  0  0  0  0  0  0  0  0
   23.3532   -6.5906  -15.3733 C   0  0  0  0  0  0  0  0  0  0  0  0
   22.1070   -8.2104  -17.8454 C   0  0  0  0  0  0  0  0  0  0  0  0
   22.8706   -7.7543  -18.7137 O   0  0  0  0  0  0  0  0  0  0  0  0
   20.8551   -7.5672  -17.6620 N   0  0  0  0  0  0  0  0  0  0  0  0
   20.5097   -6.3596  -18.4204 C   0  0  1  0  0  0  0  0  0  0  0  0
   19.2765   -6.6346  -19.2621 C   0  0  0  0  0  0  0  0  0  0  0  0
   18.8306   -5.4778  -20.0338 C   0  0  0  0  0  0  0  0  0  0  0  0
   17.9209   -4.7332  -19.5907 O   0  0  0  0  0  0  0  0  0  0  0  0
   20.3558   -5.2057  -17.5237 C   0  0  0  0  0  0  0  0  0  0  0  0
   20.6633   -3.9141  -17.9233 O   0  0  0  0  0  0  0  0  0  0  0  0
   19.4046   -5.1894  -21.2614 O   0  0  0  0  0  0  0  0  0  0  0  0
   19.9285   -5.3618  -16.3395 O   0  0  0  0  0  0  0  0  0  0  0  0
  2  1  1  1
  3  2  1  0
  3  4  1  0
  5  7  1  0
  5  2  1  0
  6  5  2  0
  8  7  1  0
  9 10  1  0
  8  9  1  1
 10 11  2  0
 10 15  1  0
 11 12  1  0
 12 13  2  0
 14 13  1  0
 15 14  2  0
 16 17  2  0
 16  8  1  0
 18 16  1  0
 19 20  1  1
 19 18  1  0
 20 21  1  0
 21 25  1  0
 21 22  2  0
 23 19  1  0
 24 23  1  0
 26 23  2  0
M  END
$$$$
