CFD.pdb
     RDKit          3D

 26 26  0  0  1  0  0  0  0  0999 V2000
   27.9499  -36.2214  -17.7792 N   0  0  0  0  0  0  0  0  0  0  0  0
   26.7680  -35.5096  -18.2140 C   0  0  1  0  0  0  0  0  0  0  0  0
   25.5304  -36.3475  -18.1315 C   0  0  0  0  0  0  0  0  0  0  0  0
   25.2128  -37.2697  -19.6573 S   0  0  0  0  0  0  0  0  0  0  0  0
   26.5551  -34.2786  -17.3793 C   0  0  0  0  0  0  0  0  0  0  0  0
   26.8399  -34.2940  -16.1482 O   0  0  0  0  0  0  0  0  0  0  0  0
   26.0346  -33.0824  -17.9394 N   0  0  0  0  0  0  0  0  0  0  0  0
   25.8705  -31.9089  -17.0880 C   0  0  1  0  0  0  0  0  0  0  0  0
   26.9770  -30.9318  -17.2926 C   0  0  0  0  0  0  0  0  0  0  0  0
   28.3053  -31.4844  -17.0010 C   0  0  0  0  0  0  0  0  0  0  0  0
   28.7165  -31.7250  -15.6849 C   0  0  0  0  0  0  0  0  0  0  0  0
   29.9434  -32.2569  -15.3810 C   0  0  0  0  0  0  0  0  0  0  0  0
   30.8288  -32.5783  -16.3752 C   0  0  0  0  0  0  0  0  0  0  0  0
   30.4568  -32.3556  -17.6720 C   0  0  0  0  0  0  0  0  0  0  0  0
   29.2229  -31.8220  -17.9692 C   0  0  0  0  0  0  0  0  0  0  0  0
   24.5454  -31.2905  -17.2781 C   0  0  0  0  0  0  0  0  0  0  0  0
   24.0003  -31.3625  -18.3928 O   0  0  0  0  0  0  0  0  0  0  0  0
   23.8497  -30.6103  -16.2447 N   0  0  0  0  0  0  0  0  0  0  0  0
   22.4768  -30.1337  -16.4470 C   0  0  1  0  0  0  0  0  0  0  0  0
   21.6023  -31.2984  -16.8750 C   0  0  0  0  0  0  0  0  0  0  0  0
   20.2217  -30.9149  -17.1569 C   0  0  0  0  0  0  0  0  0  0  0  0
   19.3461  -30.9950  -16.2595 O   0  0  0  0  0  0  0  0  0  0  0  0
   21.9809  -29.4446  -15.2476 C   0  0  0  0  0  0  0  0  0  0  0  0
   21.3505  -28.2113  -15.3124 O   0  0  0  0  0  0  0  0  0  0  0  0
   19.8628  -30.4595  -18.4152 O   0  0  0  0  0  0  0  0  0  0  0  0
   22.1169  -29.9685  -14.1003 O   0  0  0  0  0  0  0  0  0  0  0  0
  2  1  1  1
  3  2  1  0
  3  4  1  0
  5  7  1  0
  5  2  1  0
  6  5  2  0
  8  7  1  0
  9 10  1  0
  8  9  1  6
 10 11  2  0
 10 15  1  0
 11 12  1  0
 12 13  2  0
 14 13  1  0
 15 14  2  0
 16 17  2  0
 16  8  1  0
 18 16  1  0
 19 20  1  1
 19 18  1  0
 20 21  1  0
 21 25  1  0
 21 22  2  0
 23 19  1  0
 24 23  1  0
 26 23  2  0
M  END
$$$$
