CFD.pdb
     RDKit          3D

 26 26  0  0  1  0  0  0  0  0999 V2000
   28.4994  -11.6259  -18.9711 N   0  0  0  0  0  0  0  0  0  0  0  0
   29.8872  -11.9678  -18.7487 C   0  0  1  0  0  0  0  0  0  0  0  0
   30.4685  -12.7678  -19.8725 C   0  0  0  0  0  0  0  0  0  0  0  0
   29.8042  -14.4510  -19.9435 S   0  0  0  0  0  0  0  0  0  0  0  0
   30.7172  -10.7269  -18.5806 C   0  0  0  0  0  0  0  0  0  0  0  0
   30.4978   -9.7175  -19.3087 O   0  0  0  0  0  0  0  0  0  0  0  0
   31.7564  -10.6535  -17.6161 N   0  0  0  0  0  0  0  0  0  0  0  0
   32.4371   -9.3817  -17.3966 C   0  0  1  0  0  0  0  0  0  0  0  0
   32.5858   -9.0903  -15.9428 C   0  0  0  0  0  0  0  0  0  0  0  0
   33.2630   -7.8171  -15.6687 C   0  0  0  0  0  0  0  0  0  0  0  0
   32.5886   -6.5969  -15.7929 C   0  0  0  0  0  0  0  0  0  0  0  0
   33.1879   -5.3925  -15.5267 C   0  0  0  0  0  0  0  0  0  0  0  0
   34.4950   -5.3394  -15.1215 C   0  0  0  0  0  0  0  0  0  0  0  0
   35.1816   -6.5145  -14.9900 C   0  0  0  0  0  0  0  0  0  0  0  0
   34.5727   -7.7200  -15.2583 C   0  0  0  0  0  0  0  0  0  0  0  0
   33.7301   -9.3374  -18.1040 C   0  0  0  0  0  0  0  0  0  0  0  0
   34.4248  -10.3668  -18.1565 O   0  0  0  0  0  0  0  0  0  0  0  0
   34.2303   -8.1694  -18.7367 N   0  0  0  0  0  0  0  0  0  0  0  0
   35.5423   -8.1708  -19.3937 C   0  0  1  0  0  0  0  0  0  0  0  0
   35.3468   -8.1326  -20.8987 C   0  0  0  0  0  0  0  0  0  0  0  0
   36.6003   -8.1524  -21.6476 C   0  0  0  0  0  0  0  0  0  0  0  0
   37.7006   -8.1541  -21.0412 O   0  0  0  0  0  0  0  0  0  0  0  0
   36.3807   -7.0748  -18.8886 C   0  0  0  0  0  0  0  0  0  0  0  0
   36.1038   -5.7450  -19.1666 O   0  0  0  0  0  0  0  0  0  0  0  0
   36.5899   -8.1688  -23.0330 O   0  0  0  0  0  0  0  0  0  0  0  0
   37.3976   -7.3192  -18.1706 O   0  0  0  0  0  0  0  0  0  0  0  0
  2  1  1  6
  3  2  1  0
  3  4  1  0
  5  7  1  0
  5  2  1  0
  6  5  2  0
  8  7  1  0
  9 10  1  0
  8  9  1  1
 10 11  2  0
 10 15  1  0
 11 12  1  0
 12 13  2  0
 14 13  1  0
 15 14  2  0
 16 17  2  0
 16  8  1  0
 18 16  1  0
 19 20  1  6
 19 18  1  0
 20 21  1  0
 21 25  1  0
 21 22  2  0
 23 19  1  0
 24 23  1  0
 26 23  2  0
M  END
$$$$
