CFD.pdb
     RDKit          3D

 26 26  0  0  1  0  0  0  0  0999 V2000
   41.5585   -7.4147  -12.5797 N   0  0  0  0  0  0  0  0  0  0  0  0
   42.0373   -7.1023  -11.2510 C   0  0  1  0  0  0  0  0  0  0  0  0
   43.2074   -6.1689  -11.2670 C   0  0  0  0  0  0  0  0  0  0  0  0
   44.6963   -6.9330  -11.9589 S   0  0  0  0  0  0  0  0  0  0  0  0
   40.9478   -6.4715  -10.4310 C   0  0  0  0  0  0  0  0  0  0  0  0
   40.1535   -5.6463  -10.9651 O   0  0  0  0  0  0  0  0  0  0  0  0
   40.7825   -6.7773   -9.0545 N   0  0  0  0  0  0  0  0  0  0  0  0
   39.6939   -6.1521   -8.3109 C   0  0  1  0  0  0  0  0  0  0  0  0
   39.3033   -6.9721   -7.1295 C   0  0  0  0  0  0  0  0  0  0  0  0
   38.2176   -6.3787   -6.3399 C   0  0  0  0  0  0  0  0  0  0  0  0
   36.8762   -6.6448   -6.6381 C   0  0  0  0  0  0  0  0  0  0  0  0
   35.8402   -6.1203   -5.9086 C   0  0  0  0  0  0  0  0  0  0  0  0
   36.0861   -5.3002   -4.8398 C   0  0  0  0  0  0  0  0  0  0  0  0
   37.3864   -5.0210   -4.5221 C   0  0  0  0  0  0  0  0  0  0  0  0
   38.4213   -5.5520   -5.2589 C   0  0  0  0  0  0  0  0  0  0  0  0
   40.0291   -4.7662   -7.9348 C   0  0  0  0  0  0  0  0  0  0  0  0
   41.1967   -4.4962   -7.6046 O   0  0  0  0  0  0  0  0  0  0  0  0
   39.0800   -3.7109   -7.9303 N   0  0  0  0  0  0  0  0  0  0  0  0
   39.4906   -2.3287   -7.6587 C   0  0  1  0  0  0  0  0  0  0  0  0
   40.4925   -1.8897   -8.7113 C   0  0  0  0  0  0  0  0  0  0  0  0
   40.8738   -0.4844   -8.5996 C   0  0  0  0  0  0  0  0  0  0  0  0
   41.1048    0.0216   -7.4731 O   0  0  0  0  0  0  0  0  0  0  0  0
   38.3204   -1.4447   -7.5656 C   0  0  0  0  0  0  0  0  0  0  0  0
   37.0276   -1.9091   -7.7542 O   0  0  0  0  0  0  0  0  0  0  0  0
   40.9845    0.3049   -9.7328 O   0  0  0  0  0  0  0  0  0  0  0  0
   38.4630   -0.2116   -7.3043 O   0  0  0  0  0  0  0  0  0  0  0  0
  2  1  1  6
  3  2  1  0
  3  4  1  0
  5  7  1  0
  5  2  1  0
  6  5  2  0
  8  7  1  0
  9 10  1  0
  8  9  1  1
 10 11  2  0
 10 15  1  0
 11 12  1  0
 12 13  2  0
 14 13  1  0
 15 14  2  0
 16 17  2  0
 16  8  1  0
 18 16  1  0
 19 20  1  6
 19 18  1  0
 20 21  1  0
 21 25  1  0
 21 22  2  0
 23 19  1  0
 24 23  1  0
 26 23  2  0
M  END
$$$$
