CFD.pdb
     RDKit          3D

 26 26  0  0  1  0  0  0  0  0999 V2000
   29.5065  -21.6576  -13.6950 N   0  0  0  0  0  0  0  0  0  0  0  0
   28.7781  -20.4618  -13.3318 C   0  0  1  0  0  0  0  0  0  0  0  0
   28.4236  -19.6226  -14.5196 C   0  0  0  0  0  0  0  0  0  0  0  0
   27.9138  -17.9470  -14.0594 S   0  0  0  0  0  0  0  0  0  0  0  0
   27.5067  -20.8146  -12.6132 C   0  0  0  0  0  0  0  0  0  0  0  0
   26.8328  -21.8190  -12.9795 O   0  0  0  0  0  0  0  0  0  0  0  0
   27.0321  -20.0419  -11.5208 N   0  0  0  0  0  0  0  0  0  0  0  0
   25.8033  -20.4433  -10.8441 C   0  0  1  0  0  0  0  0  0  0  0  0
   25.6331  -19.7176   -9.5538 C   0  0  0  0  0  0  0  0  0  0  0  0
   26.7380  -19.9340   -8.6120 C   0  0  0  0  0  0  0  0  0  0  0  0
   27.5447  -21.0750   -8.6919 C   0  0  0  0  0  0  0  0  0  0  0  0
   28.5950  -21.2971   -7.8387 C   0  0  0  0  0  0  0  0  0  0  0  0
   28.8985  -20.3916   -6.8572 C   0  0  0  0  0  0  0  0  0  0  0  0
   28.1294  -19.2659   -6.7529 C   0  0  0  0  0  0  0  0  0  0  0  0
   27.0770  -19.0495   -7.6139 C   0  0  0  0  0  0  0  0  0  0  0  0
   24.6312  -20.2863  -11.7250 C   0  0  0  0  0  0  0  0  0  0  0  0
   24.7861  -19.7851  -12.8519 O   0  0  0  0  0  0  0  0  0  0  0  0
   23.3201  -20.6819  -11.3520 N   0  0  0  0  0  0  0  0  0  0  0  0
   22.2663  -20.8448  -12.3598 C   0  0  1  0  0  0  0  0  0  0  0  0
   22.6598  -21.9544  -13.3183 C   0  0  0  0  0  0  0  0  0  0  0  0
   22.3248  -21.6653  -14.7101 C   0  0  0  0  0  0  0  0  0  0  0  0
   21.6933  -20.6202  -15.0057 O   0  0  0  0  0  0  0  0  0  0  0  0
   20.9615  -21.0646  -11.7206 C   0  0  0  0  0  0  0  0  0  0  0  0
   20.8458  -21.5336  -10.4210 O   0  0  0  0  0  0  0  0  0  0  0  0
   22.6987  -22.5392  -15.7180 O   0  0  0  0  0  0  0  0  0  0  0  0
   19.8866  -20.8257  -12.3505 O   0  0  0  0  0  0  0  0  0  0  0  0
  2  1  1  6
  3  2  1  0
  3  4  1  0
  5  7  1  0
  5  2  1  0
  6  5  2  0
  8  7  1  0
  9 10  1  0
  8  9  1  1
 10 11  2  0
 10 15  1  0
 11 12  1  0
 12 13  2  0
 14 13  1  0
 15 14  2  0
 16 17  2  0
 16  8  1  0
 18 16  1  0
 19 20  1  6
 19 18  1  0
 20 21  1  0
 21 25  1  0
 21 22  2  0
 23 19  1  0
 24 23  1  0
 26 23  2  0
M  END
$$$$
