CFD.pdb
     RDKit          3D

 26 26  0  0  1  0  0  0  0  0999 V2000
   27.2509  -23.4612  -17.6119 N   0  0  0  0  0  0  0  0  0  0  0  0
   26.8086  -22.1405  -17.2212 C   0  0  1  0  0  0  0  0  0  0  0  0
   25.8001  -21.5694  -18.1684 C   0  0  0  0  0  0  0  0  0  0  0  0
   26.4586  -21.3620  -19.8426 S   0  0  0  0  0  0  0  0  0  0  0  0
   26.1957  -22.1722  -15.8498 C   0  0  0  0  0  0  0  0  0  0  0  0
   25.3330  -23.0504  -15.5644 O   0  0  0  0  0  0  0  0  0  0  0  0
   26.5604  -21.2310  -14.8514 N   0  0  0  0  0  0  0  0  0  0  0  0
   25.8750  -21.2560  -13.5636 C   0  0  1  0  0  0  0  0  0  0  0  0
   26.6319  -20.4922  -12.5318 C   0  0  0  0  0  0  0  0  0  0  0  0
   25.9871  -20.4952  -11.2132 C   0  0  0  0  0  0  0  0  0  0  0  0
   25.0432  -19.5216  -10.8664 C   0  0  0  0  0  0  0  0  0  0  0  0
   24.4104  -19.5079   -9.6499 C   0  0  0  0  0  0  0  0  0  0  0  0
   24.6852  -20.4662   -8.7110 C   0  0  0  0  0  0  0  0  0  0  0  0
   25.6027  -21.4320   -9.0193 C   0  0  0  0  0  0  0  0  0  0  0  0
   26.2333  -21.4397  -10.2432 C   0  0  0  0  0  0  0  0  0  0  0  0
   24.4831  -20.7855  -13.6887 C   0  0  0  0  0  0  0  0  0  0  0  0
   24.2536  -19.7427  -14.3250 O   0  0  0  0  0  0  0  0  0  0  0  0
   23.3778  -21.4673  -13.1159 N   0  0  0  0  0  0  0  0  0  0  0  0
   22.0165  -20.9339  -13.2396 C   0  0  1  0  0  0  0  0  0  0  0  0
   21.1959  -21.8596  -14.1195 C   0  0  0  0  0  0  0  0  0  0  0  0
   19.8030  -21.4438  -14.2595 C   0  0  0  0  0  0  0  0  0  0  0  0
   19.5098  -20.4314  -14.9432 O   0  0  0  0  0  0  0  0  0  0  0  0
   21.4203  -20.7112  -11.9151 C   0  0  0  0  0  0  0  0  0  0  0  0
   21.6370  -21.5760  -10.8531 O   0  0  0  0  0  0  0  0  0  0  0  0
   18.7912  -22.1598  -13.6405 O   0  0  0  0  0  0  0  0  0  0  0  0
   20.6794  -19.7037  -11.7026 O   0  0  0  0  0  0  0  0  0  0  0  0
  2  1  1  6
  3  2  1  0
  3  4  1  0
  5  7  1  0
  5  2  1  0
  6  5  2  0
  8  7  1  0
  9 10  1  0
  8  9  1  1
 10 11  2  0
 10 15  1  0
 11 12  1  0
 12 13  2  0
 14 13  1  0
 15 14  2  0
 16 17  2  0
 16  8  1  0
 18 16  1  0
 19 20  1  6
 19 18  1  0
 20 21  1  0
 21 25  1  0
 21 22  2  0
 23 19  1  0
 24 23  1  0
 26 23  2  0
M  END
$$$$
