CFD.pdb
     RDKit          3D

 26 26  0  0  1  0  0  0  0  0999 V2000
   26.0180  -11.3708  -20.4411 N   0  0  0  0  0  0  0  0  0  0  0  0
   25.5290  -10.0111  -20.3737 C   0  0  1  0  0  0  0  0  0  0  0  0
   24.4862   -9.7242  -21.4086 C   0  0  0  0  0  0  0  0  0  0  0  0
   23.8646   -8.0258  -21.3163 S   0  0  0  0  0  0  0  0  0  0  0  0
   24.9361   -9.7287  -19.0224 C   0  0  0  0  0  0  0  0  0  0  0  0
   24.2147  -10.5980  -18.4557 O   0  0  0  0  0  0  0  0  0  0  0  0
   25.1635   -8.4968  -18.3544 N   0  0  0  0  0  0  0  0  0  0  0  0
   24.5526   -8.2704  -17.0487 C   0  0  1  0  0  0  0  0  0  0  0  0
   25.5847   -8.1573  -15.9797 C   0  0  0  0  0  0  0  0  0  0  0  0
   26.3482   -9.3937  -15.7720 C   0  0  0  0  0  0  0  0  0  0  0  0
   27.6172   -9.5647  -16.3371 C   0  0  0  0  0  0  0  0  0  0  0  0
   28.3626  -10.7000  -16.1468 C   0  0  0  0  0  0  0  0  0  0  0  0
   27.8818  -11.7286  -15.3811 C   0  0  0  0  0  0  0  0  0  0  0  0
   26.6449  -11.5922  -14.8145 C   0  0  0  0  0  0  0  0  0  0  0  0
   25.9028  -10.4490  -15.0094 C   0  0  0  0  0  0  0  0  0  0  0  0
   23.6531   -7.1023  -17.0738 C   0  0  0  0  0  0  0  0  0  0  0  0
   23.9410   -6.1345  -17.7988 O   0  0  0  0  0  0  0  0  0  0  0  0
   22.4615   -7.0223  -16.3068 N   0  0  0  0  0  0  0  0  0  0  0  0
   21.5004   -5.9339  -16.5180 C   0  0  1  0  0  0  0  0  0  0  0  0
   21.0430   -5.9460  -17.9655 C   0  0  0  0  0  0  0  0  0  0  0  0
   20.0451   -4.9234  -18.2676 C   0  0  0  0  0  0  0  0  0  0  0  0
   19.7831   -4.0264  -17.4279 O   0  0  0  0  0  0  0  0  0  0  0  0
   20.3919   -6.0219  -15.5574 C   0  0  0  0  0  0  0  0  0  0  0  0
   19.9577   -7.2329  -15.0402 O   0  0  0  0  0  0  0  0  0  0  0  0
   19.3771   -4.9315  -19.4814 O   0  0  0  0  0  0  0  0  0  0  0  0
   19.7923   -4.9745  -15.1670 O   0  0  0  0  0  0  0  0  0  0  0  0
  2  1  1  1
  3  2  1  0
  3  4  1  0
  5  7  1  0
  5  2  1  0
  6  5  2  0
  8  7  1  0
  9 10  1  0
  8  9  1  1
 10 11  2  0
 10 15  1  0
 11 12  1  0
 12 13  2  0
 14 13  1  0
 15 14  2  0
 16 17  2  0
 16  8  1  0
 18 16  1  0
 19 20  1  6
 19 18  1  0
 20 21  1  0
 21 25  1  0
 21 22  2  0
 23 19  1  0
 24 23  1  0
 26 23  2  0
M  END
$$$$
