CFD.pdb
     RDKit          3D

 26 26  0  0  1  0  0  0  0  0999 V2000
   25.7720  -35.9142  -13.6208 N   0  0  0  0  0  0  0  0  0  0  0  0
   24.9447  -35.0337  -12.8253 C   0  0  1  0  0  0  0  0  0  0  0  0
   23.5004  -35.4260  -12.8493 C   0  0  0  0  0  0  0  0  0  0  0  0
   22.5668  -34.5615  -14.1378 S   0  0  0  0  0  0  0  0  0  0  0  0
   25.4032  -35.0266  -11.3946 C   0  0  0  0  0  0  0  0  0  0  0  0
   25.9240  -36.0635  -10.8938 O   0  0  0  0  0  0  0  0  0  0  0  0
   25.2653  -33.8748  -10.5762 N   0  0  0  0  0  0  0  0  0  0  0  0
   25.6764  -33.9404   -9.1777 C   0  0  1  0  0  0  0  0  0  0  0  0
   26.1786  -32.6220   -8.6979 C   0  0  0  0  0  0  0  0  0  0  0  0
   26.5189  -32.6111   -7.2701 C   0  0  0  0  0  0  0  0  0  0  0  0
   25.6629  -32.0324   -6.3260 C   0  0  0  0  0  0  0  0  0  0  0  0
   25.9439  -32.0223   -4.9838 C   0  0  0  0  0  0  0  0  0  0  0  0
   27.0963  -32.5898   -4.5092 C   0  0  0  0  0  0  0  0  0  0  0  0
   27.9537  -33.1641   -5.4062 C   0  0  0  0  0  0  0  0  0  0  0  0
   27.6642  -33.1711   -6.7523 C   0  0  0  0  0  0  0  0  0  0  0  0
   24.5923  -34.4621   -8.3250 C   0  0  0  0  0  0  0  0  0  0  0  0
   23.4789  -33.9106   -8.3596 O   0  0  0  0  0  0  0  0  0  0  0  0
   24.7528  -35.5738   -7.4572 N   0  0  0  0  0  0  0  0  0  0  0  0
   23.6734  -35.9864   -6.5531 C   0  0  1  0  0  0  0  0  0  0  0  0
   23.1428  -37.3388   -6.9938 C   0  0  0  0  0  0  0  0  0  0  0  0
   22.0372  -37.8244   -6.1726 C   0  0  0  0  0  0  0  0  0  0  0  0
   21.6264  -37.1461   -5.1982 O   0  0  0  0  0  0  0  0  0  0  0  0
   24.1266  -35.9673   -5.1554 C   0  0  0  0  0  0  0  0  0  0  0  0
   25.4651  -35.8448   -4.8150 O   0  0  0  0  0  0  0  0  0  0  0  0
   21.4304  -39.0367   -6.4584 O   0  0  0  0  0  0  0  0  0  0  0  0
   23.2914  -36.0626   -4.2054 O   0  0  0  0  0  0  0  0  0  0  0  0
  2  1  1  6
  3  2  1  0
  3  4  1  0
  5  7  1  0
  5  2  1  0
  6  5  2  0
  8  7  1  0
  9 10  1  0
  8  9  1  1
 10 11  2  0
 10 15  1  0
 11 12  1  0
 12 13  2  0
 14 13  1  0
 15 14  2  0
 16 17  2  0
 16  8  1  0
 18 16  1  0
 19 20  1  6
 19 18  1  0
 20 21  1  0
 21 25  1  0
 21 22  2  0
 23 19  1  0
 24 23  1  0
 26 23  2  0
M  END
$$$$
