DPL.pdb
     RDKit          3D

 24 24  0  0  1  0  0  0  0  0999 V2000
    7.3191  -19.0125   20.2295 N   0  0  0  0  0  0  0  0  0  0  0  0
    6.7233  -17.8338   20.8975 C   0  0  1  0  0  0  0  0  0  0  0  0
    5.8697  -18.2669   22.0414 C   0  0  0  0  0  0  0  0  0  0  0  0
    5.2032  -19.5576   21.8455 C   0  0  0  0  0  0  0  0  0  0  0  0
    5.4825  -20.2804   20.8677 O   0  0  0  0  0  0  0  0  0  0  0  0
    7.9020  -17.0282   21.3095 C   0  0  0  0  0  0  0  0  0  0  0  0
    8.9718  -17.6723   21.5627 O   0  0  0  0  0  0  0  0  0  0  0  0
    4.2334  -20.0480   22.7241 O   0  0  0  0  0  0  0  0  0  0  0  0
    7.9436  -15.6164   21.4454 N   0  0  0  0  0  0  0  0  0  0  0  0
    6.7844  -14.7949   21.2835 C   0  0  0  0  0  0  0  0  0  0  0  0
    7.2483  -13.3980   21.1410 C   0  0  0  0  0  0  0  0  0  0  0  0
    8.7255  -13.4764   21.1159 C   0  0  0  0  0  0  0  0  0  0  0  0
    9.0734  -14.8294   21.7717 C   0  0  1  0  0  0  0  0  0  0  0  0
    9.2753  -14.6195   23.2429 C   0  0  0  0  0  0  0  0  0  0  0  0
   10.3102  -14.0268   23.6296 O   0  0  0  0  0  0  0  0  0  0  0  0
    7.2444  -12.1804   26.5159 C   0  0  0  0  0  0  0  0  0  0  0  0
    6.4661  -13.2502   25.7814 C   0  0  2  0  0  0  0  0  0  0  0  0
    5.0103  -13.2139   26.1887 C   0  0  0  0  0  0  0  0  0  0  0  0
    7.0052  -14.6236   26.1241 C   0  0  0  0  0  0  0  0  0  0  0  0
    8.4290  -14.7939   25.6083 C   0  0  2  0  0  0  0  0  0  0  0  0
    8.3446  -15.0647   24.1896 N   0  0  0  0  0  0  0  0  0  0  0  0
    8.9944  -15.9930   26.2742 C   0  0  0  0  0  0  0  0  0  0  0  0
    9.4129  -15.9395   27.4371 O   0  0  0  0  0  0  0  0  0  0  0  0
    9.0552  -17.2006   25.5788 O   0  0  0  0  0  0  0  0  0  0  0  0
  2  1  1  1
  2  3  1  0
  2  6  1  0
  3  4  1  0
  4  5  2  0
  4  8  1  0
  6  7  2  0
  9 13  1  0
  9  6  1  0
 10  9  1  0
 11 10  1  0
 11 12  1  0
 12 13  1  0
 13 14  1  1
 14 21  1  0
 14 15  2  0
 17 16  1  1
 17 18  1  0
 19 17  1  0
 20 19  1  1
 20 22  1  0
 21 20  1  0
 22 23  2  0
 22 24  1  0
M  END
$$$$
