DPL.pdb
     RDKit          3D

 24 24  0  0  1  0  0  0  0  0999 V2000
    9.1348  -18.2365   18.6411 N   0  0  0  0  0  0  0  0  0  0  0  0
    8.0256  -17.3473   19.0525 C   0  0  1  0  0  0  0  0  0  0  0  0
    6.9297  -18.1450   19.6750 C   0  0  0  0  0  0  0  0  0  0  0  0
    7.3859  -19.1600   20.6291 C   0  0  0  0  0  0  0  0  0  0  0  0
    8.6024  -19.3803   20.7966 O   0  0  0  0  0  0  0  0  0  0  0  0
    8.6690  -16.3913   19.9909 C   0  0  0  0  0  0  0  0  0  0  0  0
    9.7605  -16.7687   20.5289 O   0  0  0  0  0  0  0  0  0  0  0  0
    6.5040  -19.9279   21.3943 O   0  0  0  0  0  0  0  0  0  0  0  0
    8.1812  -15.1052   20.3391 N   0  0  0  0  0  0  0  0  0  0  0  0
    6.9879  -14.5573   19.7729 C   0  0  0  0  0  0  0  0  0  0  0  0
    6.9778  -13.1102   20.0769 C   0  0  0  0  0  0  0  0  0  0  0  0
    8.2716  -12.8404   20.7420 C   0  0  0  0  0  0  0  0  0  0  0  0
    8.7495  -14.2080   21.2742 C   0  0  1  0  0  0  0  0  0  0  0  0
    8.2534  -14.3841   22.6786 C   0  0  0  0  0  0  0  0  0  0  0  0
    7.0449  -14.6649   22.8588 O   0  0  0  0  0  0  0  0  0  0  0  0
    5.5492  -12.1552   26.3982 C   0  0  0  0  0  0  0  0  0  0  0  0
    6.8194  -12.9739   26.4759 C   0  0  2  0  0  0  0  0  0  0  0  0
    7.8516  -12.2634   27.3222 C   0  0  0  0  0  0  0  0  0  0  0  0
    7.4098  -13.1637   25.0939 C   0  0  0  0  0  0  0  0  0  0  0  0
    8.6399  -14.0616   25.1460 C   0  0  2  0  0  0  0  0  0  0  0  0
    9.0986  -14.2445   23.7862 N   0  0  0  0  0  0  0  0  0  0  0  0
    8.1974  -15.3791   25.6651 C   0  0  0  0  0  0  0  0  0  0  0  0
    7.0463  -15.7879   25.4704 O   0  0  0  0  0  0  0  0  0  0  0  0
    9.0933  -16.1705   26.3839 O   0  0  0  0  0  0  0  0  0  0  0  0
  2  1  1  1
  2  3  1  0
  2  6  1  0
  3  4  1  0
  4  5  2  0
  4  8  1  0
  6  7  2  0
  9 13  1  0
  9  6  1  0
 10  9  1  0
 11 10  1  0
 11 12  1  0
 12 13  1  0
 13 14  1  1
 14 21  1  0
 14 15  2  0
 17 16  1  6
 17 18  1  0
 19 17  1  0
 20 19  1  6
 20 22  1  0
 21 20  1  0
 22 23  2  0
 22 24  1  0
M  END
$$$$
