DPL.pdb
     RDKit          3D

 24 24  0  0  1  0  0  0  0  0999 V2000
    8.5462  -18.9151   19.7430 N   0  0  0  0  0  0  0  0  0  0  0  0
    7.6724  -18.0031   20.5143 C   0  0  1  0  0  0  0  0  0  0  0  0
    7.1090  -18.7104   21.7006 C   0  0  0  0  0  0  0  0  0  0  0  0
    6.4304  -19.9716   21.3881 C   0  0  0  0  0  0  0  0  0  0  0  0
    5.7824  -20.1049   20.3304 O   0  0  0  0  0  0  0  0  0  0  0  0
    8.5683  -16.8720   20.8694 C   0  0  0  0  0  0  0  0  0  0  0  0
    9.7807  -17.1654   21.1286 O   0  0  0  0  0  0  0  0  0  0  0  0
    6.4667  -21.0797   22.2387 O   0  0  0  0  0  0  0  0  0  0  0  0
    8.1982  -15.5043   20.9452 N   0  0  0  0  0  0  0  0  0  0  0  0
    6.8452  -15.0656   20.7977 C   0  0  0  0  0  0  0  0  0  0  0  0
    6.8755  -13.6034   20.5787 C   0  0  0  0  0  0  0  0  0  0  0  0
    8.3096  -13.2492   20.4958 C   0  0  0  0  0  0  0  0  0  0  0  0
    9.0565  -14.4066   21.1918 C   0  0  1  0  0  0  0  0  0  0  0  0
    9.2283  -14.0716   22.6436 C   0  0  0  0  0  0  0  0  0  0  0  0
   10.0771  -13.2066   22.9650 O   0  0  0  0  0  0  0  0  0  0  0  0
    5.5222  -12.6528   26.9469 C   0  0  0  0  0  0  0  0  0  0  0  0
    6.9217  -13.1706   26.6963 C   0  0  2  0  0  0  0  0  0  0  0  0
    7.9381  -12.0786   26.9435 C   0  0  0  0  0  0  0  0  0  0  0  0
    7.0686  -13.6178   25.2565 C   0  0  0  0  0  0  0  0  0  0  0  0
    8.4283  -14.2652   25.0235 C   0  0  2  0  0  0  0  0  0  0  0  0
    8.4708  -14.6949   23.6427 N   0  0  0  0  0  0  0  0  0  0  0  0
    8.4910  -15.4717   25.8845 C   0  0  0  0  0  0  0  0  0  0  0  0
    8.7015  -15.3782   27.1000 O   0  0  0  0  0  0  0  0  0  0  0  0
    8.3096  -16.7322   25.3154 O   0  0  0  0  0  0  0  0  0  0  0  0
  2  1  1  1
  2  3  1  0
  2  6  1  0
  3  4  1  0
  4  5  2  0
  4  8  1  0
  6  7  2  0
  9 13  1  0
  9  6  1  0
 10  9  1  0
 11 10  1  0
 11 12  1  0
 12 13  1  0
 13 14  1  1
 14 21  1  0
 14 15  2  0
 17 16  1  6
 17 18  1  0
 19 17  1  0
 20 19  1  6
 20 22  1  0
 21 20  1  0
 22 23  2  0
 22 24  1  0
M  END
$$$$
