DPL.pdb
     RDKit          3D

 24 24  0  0  1  0  0  0  0  0999 V2000
   12.0532  -16.6709   19.9265 N   0  0  0  0  0  0  0  0  0  0  0  0
   10.7866  -17.3134   20.3425 C   0  0  1  0  0  0  0  0  0  0  0  0
   11.0691  -18.5714   21.0924 C   0  0  0  0  0  0  0  0  0  0  0  0
   11.4376  -19.7109   20.2472 C   0  0  0  0  0  0  0  0  0  0  0  0
   11.2780  -19.6687   19.0106 O   0  0  0  0  0  0  0  0  0  0  0  0
   10.1155  -16.2723   21.1635 C   0  0  0  0  0  0  0  0  0  0  0  0
   10.8733  -15.5135   21.8514 O   0  0  0  0  0  0  0  0  0  0  0  0
   11.9793  -20.8908   20.7642 O   0  0  0  0  0  0  0  0  0  0  0  0
    8.7170  -16.0484   21.2497 N   0  0  0  0  0  0  0  0  0  0  0  0
    7.7700  -16.8045   20.4907 C   0  0  0  0  0  0  0  0  0  0  0  0
    6.4787  -16.0866   20.5529 C   0  0  0  0  0  0  0  0  0  0  0  0
    6.7623  -14.8330   21.2857 C   0  0  0  0  0  0  0  0  0  0  0  0
    8.0590  -15.1071   22.0764 C   0  0  1  0  0  0  0  0  0  0  0  0
    7.6991  -15.6257   23.4368 C   0  0  0  0  0  0  0  0  0  0  0  0
    7.7920  -16.8568   23.6553 O   0  0  0  0  0  0  0  0  0  0  0  0
    8.0634  -12.1802   26.8538 C   0  0  0  0  0  0  0  0  0  0  0  0
    6.7556  -12.6649   26.2667 C   0  0  2  0  0  0  0  0  0  0  0  0
    5.6019  -11.8547   26.8134 C   0  0  0  0  0  0  0  0  0  0  0  0
    6.5162  -14.1139   26.6374 C   0  0  0  0  0  0  0  0  0  0  0  0
    7.4596  -15.0346   25.8730 C   0  0  2  0  0  0  0  0  0  0  0  0
    7.2653  -14.7771   24.4626 N   0  0  0  0  0  0  0  0  0  0  0  0
    7.0314  -16.4275   26.1511 C   0  0  0  0  0  0  0  0  0  0  0  0
    7.4369  -17.0323   27.1512 O   0  0  0  0  0  0  0  0  0  0  0  0
    6.1573  -17.0662   25.2716 O   0  0  0  0  0  0  0  0  0  0  0  0
  2  1  1  1
  2  3  1  0
  2  6  1  0
  3  4  1  0
  4  5  2  0
  4  8  1  0
  6  7  2  0
  9 13  1  0
  9  6  1  0
 10  9  1  0
 11 10  1  0
 11 12  1  0
 12 13  1  0
 13 14  1  1
 14 21  1  0
 14 15  2  0
 17 16  1  1
 17 18  1  0
 19 17  1  0
 20 19  1  1
 20 22  1  0
 21 20  1  0
 22 23  2  0
 22 24  1  0
M  END
$$$$
