DPL.pdb
     RDKit          3D

 24 24  0  0  1  0  0  0  0  0999 V2000
   11.9495  -16.5537   20.0565 N   0  0  0  0  0  0  0  0  0  0  0  0
   10.5432  -16.9288   20.3246 C   0  0  1  0  0  0  0  0  0  0  0  0
   10.4361  -18.3996   20.5482 C   0  0  0  0  0  0  0  0  0  0  0  0
   10.7148  -19.2146   19.3622 C   0  0  0  0  0  0  0  0  0  0  0  0
   10.2273  -18.9181   18.2528 O   0  0  0  0  0  0  0  0  0  0  0  0
   10.1836  -16.1204   21.5184 C   0  0  0  0  0  0  0  0  0  0  0  0
   11.1489  -15.7215   22.2480 O   0  0  0  0  0  0  0  0  0  0  0  0
   11.5271  -20.3511   19.4005 O   0  0  0  0  0  0  0  0  0  0  0  0
    8.8716  -15.7548   21.9164 N   0  0  0  0  0  0  0  0  0  0  0  0
    7.7110  -16.1240   21.1670 C   0  0  0  0  0  0  0  0  0  0  0  0
    6.5867  -15.2975   21.6567 C   0  0  0  0  0  0  0  0  0  0  0  0
    7.1842  -14.3648   22.6375 C   0  0  0  0  0  0  0  0  0  0  0  0
    8.5094  -15.0248   23.0733 C   0  0  1  0  0  0  0  0  0  0  0  0
    8.2557  -15.8730   24.2839 C   0  0  0  0  0  0  0  0  0  0  0  0
    7.8513  -17.0485   24.1208 O   0  0  0  0  0  0  0  0  0  0  0  0
    9.9000  -13.6101   29.2177 C   0  0  0  0  0  0  0  0  0  0  0  0
    9.7792  -14.3908   27.9270 C   0  0  2  0  0  0  0  0  0  0  0  0
    9.6017  -13.4486   26.7577 C   0  0  0  0  0  0  0  0  0  0  0  0
    8.5689  -15.3005   27.9722 C   0  0  0  0  0  0  0  0  0  0  0  0
    8.5373  -16.2252   26.7614 C   0  0  2  0  0  0  0  0  0  0  0  0
    8.4576  -15.3902   25.5826 N   0  0  0  0  0  0  0  0  0  0  0  0
    7.2870  -17.0188   26.8504 C   0  0  0  0  0  0  0  0  0  0  0  0
    6.2589  -16.6579   26.2645 O   0  0  0  0  0  0  0  0  0  0  0  0
    7.2695  -18.1910   27.6061 O   0  0  0  0  0  0  0  0  0  0  0  0
  2  1  1  1
  2  3  1  0
  2  6  1  0
  3  4  1  0
  4  5  2  0
  4  8  1  0
  6  7  2  0
  9 13  1  0
  9  6  1  0
 10  9  1  0
 11 10  1  0
 11 12  1  0
 12 13  1  0
 13 14  1  1
 14 21  1  0
 14 15  2  0
 17 16  1  1
 17 18  1  0
 19 17  1  0
 20 19  1  1
 20 22  1  0
 21 20  1  0
 22 23  2  0
 22 24  1  0
M  END
$$$$
