DPL.pdb
     RDKit          3D

 24 24  0  0  1  0  0  0  0  0999 V2000
    7.7078  -18.4429   19.5230 N   0  0  0  0  0  0  0  0  0  0  0  0
    7.0281  -17.3388   20.2366 C   0  0  1  0  0  0  0  0  0  0  0  0
    6.1533  -17.8836   21.3148 C   0  0  0  0  0  0  0  0  0  0  0  0
    5.6547  -19.2389   21.0635 C   0  0  0  0  0  0  0  0  0  0  0  0
    4.5199  -19.5853   21.4489 O   0  0  0  0  0  0  0  0  0  0  0  0
    8.1480  -16.5058   20.7467 C   0  0  0  0  0  0  0  0  0  0  0  0
    9.2589  -17.0999   20.9370 O   0  0  0  0  0  0  0  0  0  0  0  0
    6.4048  -20.2069   20.3902 O   0  0  0  0  0  0  0  0  0  0  0  0
    8.0925  -15.1183   21.0386 N   0  0  0  0  0  0  0  0  0  0  0  0
    6.8806  -14.3640   20.9550 C   0  0  0  0  0  0  0  0  0  0  0  0
    7.2486  -12.9318   20.9736 C   0  0  0  0  0  0  0  0  0  0  0  0
    8.7278  -12.9071   20.9576 C   0  0  0  0  0  0  0  0  0  0  0  0
    9.1645  -14.2982   21.4635 C   0  0  1  0  0  0  0  0  0  0  0  0
    9.3452  -14.2404   22.9512 C   0  0  0  0  0  0  0  0  0  0  0  0
   10.3697  -13.6833   23.4116 O   0  0  0  0  0  0  0  0  0  0  0  0
    7.5497  -12.0367   26.4121 C   0  0  0  0  0  0  0  0  0  0  0  0
    6.6870  -12.9363   25.5541 C   0  0  2  0  0  0  0  0  0  0  0  0
    5.2298  -12.7758   25.9242 C   0  0  0  0  0  0  0  0  0  0  0  0
    7.0594  -14.3883   25.7721 C   0  0  0  0  0  0  0  0  0  0  0  0
    8.4719  -14.6689   25.2740 C   0  0  2  0  0  0  0  0  0  0  0  0
    8.4060  -14.7880   23.8337 N   0  0  0  0  0  0  0  0  0  0  0  0
    8.8773  -15.9841   25.8279 C   0  0  0  0  0  0  0  0  0  0  0  0
    9.1597  -16.1128   27.0254 O   0  0  0  0  0  0  0  0  0  0  0  0
    8.9410  -17.0942   24.9857 O   0  0  0  0  0  0  0  0  0  0  0  0
  2  1  1  1
  2  3  1  0
  2  6  1  0
  3  4  1  0
  4  5  2  0
  4  8  1  0
  6  7  2  0
  9 13  1  0
  9  6  1  0
 10  9  1  0
 11 10  1  0
 11 12  1  0
 12 13  1  0
 13 14  1  1
 14 21  1  0
 14 15  2  0
 17 16  1  1
 17 18  1  0
 19 17  1  0
 20 19  1  1
 20 22  1  0
 21 20  1  0
 22 23  2  0
 22 24  1  0
M  END
$$$$
