DPL.pdb
     RDKit          3D

 24 24  0  0  1  0  0  0  0  0999 V2000
    9.5695  -16.0664   17.6025 N   0  0  0  0  0  0  0  0  0  0  0  0
    9.9902  -16.7771   18.8306 C   0  0  1  0  0  0  0  0  0  0  0  0
   11.3876  -16.4000   19.1910 C   0  0  0  0  0  0  0  0  0  0  0  0
   12.4048  -16.8708   18.2464 C   0  0  0  0  0  0  0  0  0  0  0  0
   12.3876  -18.0425   17.8185 O   0  0  0  0  0  0  0  0  0  0  0  0
    8.9845  -16.3600   19.8420 C   0  0  0  0  0  0  0  0  0  0  0  0
    8.5708  -15.1570   19.7713 O   0  0  0  0  0  0  0  0  0  0  0  0
   13.4358  -16.0526   17.7768 O   0  0  0  0  0  0  0  0  0  0  0  0
    8.4470  -17.1747   20.8719 N   0  0  0  0  0  0  0  0  0  0  0  0
    8.8943  -18.5127   21.1049 C   0  0  0  0  0  0  0  0  0  0  0  0
    7.9014  -19.1641   21.9862 C   0  0  0  0  0  0  0  0  0  0  0  0
    6.8146  -18.1739   22.1511 C   0  0  0  0  0  0  0  0  0  0  0  0
    7.4497  -16.8100   21.8073 C   0  0  1  0  0  0  0  0  0  0  0  0
    7.9807  -16.1895   23.0652 C   0  0  0  0  0  0  0  0  0  0  0  0
    9.1269  -16.5123   23.4578 O   0  0  0  0  0  0  0  0  0  0  0  0
    5.9820  -11.8015   26.9935 C   0  0  0  0  0  0  0  0  0  0  0  0
    7.1256  -12.6588   26.4965 C   0  0  2  0  0  0  0  0  0  0  0  0
    8.2909  -11.7902   26.0795 C   0  0  0  0  0  0  0  0  0  0  0  0
    6.6952  -13.4624   25.2868 C   0  0  0  0  0  0  0  0  0  0  0  0
    7.7671  -14.4718   24.8942 C   0  0  2  0  0  0  0  0  0  0  0  0
    7.2356  -15.2652   23.8075 N   0  0  0  0  0  0  0  0  0  0  0  0
    7.9737  -15.3655   26.0602 C   0  0  0  0  0  0  0  0  0  0  0  0
    7.1725  -16.2716   26.3197 O   0  0  0  0  0  0  0  0  0  0  0  0
    9.0892  -15.1822   26.8773 O   0  0  0  0  0  0  0  0  0  0  0  0
  2  1  1  6
  2  3  1  0
  2  6  1  0
  3  4  1  0
  4  5  2  0
  4  8  1  0
  6  7  2  0
  9 13  1  0
  9  6  1  0
 10  9  1  0
 11 10  1  0
 11 12  1  0
 12 13  1  0
 13 14  1  1
 14 21  1  0
 14 15  2  0
 17 16  1  6
 17 18  1  0
 19 17  1  0
 20 19  1  1
 20 22  1  0
 21 20  1  0
 22 23  2  0
 22 24  1  0
M  END
$$$$
