DPL.pdb
     RDKit          3D

 24 24  0  0  1  0  0  0  0  0999 V2000
   11.9204  -17.2550   18.9855 N   0  0  0  0  0  0  0  0  0  0  0  0
   11.1704  -17.8471   20.1156 C   0  0  1  0  0  0  0  0  0  0  0  0
   12.1093  -18.5117   21.0651 C   0  0  0  0  0  0  0  0  0  0  0  0
   11.4765  -19.0243   22.2838 C   0  0  0  0  0  0  0  0  0  0  0  0
   11.6634  -18.4681   23.3847 O   0  0  0  0  0  0  0  0  0  0  0  0
   10.4508  -16.6893   20.7071 C   0  0  0  0  0  0  0  0  0  0  0  0
   11.1626  -15.6869   21.0416 O   0  0  0  0  0  0  0  0  0  0  0  0
   10.6417  -20.1451   22.2874 O   0  0  0  0  0  0  0  0  0  0  0  0
    9.0525  -16.5996   20.9312 N   0  0  0  0  0  0  0  0  0  0  0  0
    8.1621  -17.6882   20.6726 C   0  0  0  0  0  0  0  0  0  0  0  0
    6.7868  -17.1449   20.6738 C   0  0  0  0  0  0  0  0  0  0  0  0
    6.9435  -15.6822   20.8320 C   0  0  0  0  0  0  0  0  0  0  0  0
    8.3463  -15.4862   21.4448 C   0  0  1  0  0  0  0  0  0  0  0  0
    8.2262  -15.4677   22.9397 C   0  0  0  0  0  0  0  0  0  0  0  0
    8.5293  -16.5019   23.5803 O   0  0  0  0  0  0  0  0  0  0  0  0
    5.5695  -12.1638   27.2448 C   0  0  0  0  0  0  0  0  0  0  0  0
    6.9309  -12.7347   26.9125 C   0  0  2  0  0  0  0  0  0  0  0  0
    8.0220  -11.8015   27.3870 C   0  0  0  0  0  0  0  0  0  0  0  0
    7.0836  -12.8963   25.4142 C   0  0  0  0  0  0  0  0  0  0  0  0
    7.7673  -14.2154   25.0758 C   0  0  2  0  0  0  0  0  0  0  0  0
    7.7879  -14.3335   23.6340 N   0  0  0  0  0  0  0  0  0  0  0  0
    6.9129  -15.3015   25.6156 C   0  0  0  0  0  0  0  0  0  0  0  0
    5.8654  -15.6321   25.0467 O   0  0  0  0  0  0  0  0  0  0  0  0
    7.2962  -15.9613   26.7832 O   0  0  0  0  0  0  0  0  0  0  0  0
  2  1  1  6
  2  3  1  0
  2  6  1  0
  3  4  1  0
  4  5  2  0
  4  8  1  0
  6  7  2  0
  9 13  1  0
  9  6  1  0
 10  9  1  0
 11 10  1  0
 11 12  1  0
 12 13  1  0
 13 14  1  1
 14 21  1  0
 14 15  2  0
 17 16  1  6
 17 18  1  0
 19 17  1  0
 20 19  1  6
 20 22  1  0
 21 20  1  0
 22 23  2  0
 22 24  1  0
M  END
$$$$
