DPL.pdb
     RDKit          3D

 24 24  0  0  1  0  0  0  0  0999 V2000
   11.4172  -17.1611   19.1472 N   0  0  0  0  0  0  0  0  0  0  0  0
   10.1145  -17.4767   19.7746 C   0  0  1  0  0  0  0  0  0  0  0  0
   10.1469  -18.8444   20.3688 C   0  0  0  0  0  0  0  0  0  0  0  0
   11.4173  -19.1966   21.0097 C   0  0  0  0  0  0  0  0  0  0  0  0
   12.4681  -19.2837   20.3429 O   0  0  0  0  0  0  0  0  0  0  0  0
    9.9365  -16.3977   20.7807 C   0  0  0  0  0  0  0  0  0  0  0  0
   10.9881  -15.7740   21.1390 O   0  0  0  0  0  0  0  0  0  0  0  0
   11.5272  -19.4513   22.3793 O   0  0  0  0  0  0  0  0  0  0  0  0
    8.7099  -16.0019   21.3741 N   0  0  0  0  0  0  0  0  0  0  0  0
    7.4525  -16.5591   20.9827 C   0  0  0  0  0  0  0  0  0  0  0  0
    6.3919  -15.6873   21.5321 C   0  0  0  0  0  0  0  0  0  0  0  0
    7.1035  -14.5501   22.1559 C   0  0  0  0  0  0  0  0  0  0  0  0
    8.5375  -15.0586   22.4147 C   0  0  1  0  0  0  0  0  0  0  0  0
    8.6051  -15.6427   23.7945 C   0  0  0  0  0  0  0  0  0  0  0  0
    8.4012  -16.8714   23.9383 O   0  0  0  0  0  0  0  0  0  0  0  0
   10.0560  -15.6529   28.9759 C   0  0  0  0  0  0  0  0  0  0  0  0
   10.6422  -14.4869   28.2099 C   0  0  2  0  0  0  0  0  0  0  0  0
   10.7268  -13.2650   29.0966 C   0  0  0  0  0  0  0  0  0  0  0  0
    9.7625  -14.1370   27.0276 C   0  0  0  0  0  0  0  0  0  0  0  0
    9.6994  -15.2917   26.0352 C   0  0  2  0  0  0  0  0  0  0  0  0
    8.8885  -14.8574   24.9186 N   0  0  0  0  0  0  0  0  0  0  0  0
    8.9951  -16.4096   26.7099 C   0  0  0  0  0  0  0  0  0  0  0  0
    9.6248  -17.3160   27.2688 O   0  0  0  0  0  0  0  0  0  0  0  0
    7.6007  -16.4399   26.7149 O   0  0  0  0  0  0  0  0  0  0  0  0
  2  1  1  1
  2  3  1  0
  2  6  1  0
  3  4  1  0
  4  5  2  0
  4  8  1  0
  6  7  2  0
  9 13  1  0
  9  6  1  0
 10  9  1  0
 11 10  1  0
 11 12  1  0
 12 13  1  0
 13 14  1  1
 14 21  1  0
 14 15  2  0
 17 16  1  1
 17 18  1  0
 19 17  1  0
 20 19  1  1
 20 22  1  0
 21 20  1  0
 22 23  2  0
 22 24  1  0
M  END
$$$$
