DPL.pdb
     RDKit          3D

 24 24  0  0  1  0  0  0  0  0999 V2000
   12.3547  -16.4096   20.2213 N   0  0  0  0  0  0  0  0  0  0  0  0
   10.9846  -16.9659   20.2808 C   0  0  1  0  0  0  0  0  0  0  0  0
   11.0188  -18.3656   20.7949 C   0  0  0  0  0  0  0  0  0  0  0  0
   12.2881  -18.7512   21.4184 C   0  0  0  0  0  0  0  0  0  0  0  0
   12.3439  -19.0411   22.6305 O   0  0  0  0  0  0  0  0  0  0  0  0
   10.2597  -16.0245   21.1734 C   0  0  0  0  0  0  0  0  0  0  0  0
   10.9761  -15.2292   21.8645 O   0  0  0  0  0  0  0  0  0  0  0  0
   13.4896  -18.8163   20.7076 O   0  0  0  0  0  0  0  0  0  0  0  0
    8.8519  -15.9317   21.3244 N   0  0  0  0  0  0  0  0  0  0  0  0
    7.9475  -16.8052   20.6434 C   0  0  0  0  0  0  0  0  0  0  0  0
    6.5969  -16.2119   20.7470 C   0  0  0  0  0  0  0  0  0  0  0  0
    6.7921  -14.9081   21.4185 C   0  0  0  0  0  0  0  0  0  0  0  0
    8.1462  -15.0246   22.1499 C   0  0  1  0  0  0  0  0  0  0  0  0
    7.9048  -15.5193   23.5450 C   0  0  0  0  0  0  0  0  0  0  0  0
    8.1806  -16.7118   23.8165 O   0  0  0  0  0  0  0  0  0  0  0  0
    8.2958  -12.0562   26.8631 C   0  0  0  0  0  0  0  0  0  0  0  0
    6.9503  -12.4908   26.3242 C   0  0  2  0  0  0  0  0  0  0  0  0
    5.8482  -11.6401   26.9145 C   0  0  0  0  0  0  0  0  0  0  0  0
    6.6713  -13.9310   26.7013 C   0  0  0  0  0  0  0  0  0  0  0  0
    7.6082  -14.8787   25.9623 C   0  0  2  0  0  0  0  0  0  0  0  0
    7.3835  -14.6900   24.5456 N   0  0  0  0  0  0  0  0  0  0  0  0
    7.1990  -16.2605   26.3145 C   0  0  0  0  0  0  0  0  0  0  0  0
    7.6473  -16.8218   27.3217 O   0  0  0  0  0  0  0  0  0  0  0  0
    6.2941  -16.9384   25.4978 O   0  0  0  0  0  0  0  0  0  0  0  0
  2  1  1  1
  2  3  1  0
  2  6  1  0
  3  4  1  0
  4  5  2  0
  4  8  1  0
  6  7  2  0
  9 13  1  0
  9  6  1  0
 10  9  1  0
 11 10  1  0
 11 12  1  0
 12 13  1  0
 13 14  1  1
 14 21  1  0
 14 15  2  0
 17 16  1  1
 17 18  1  0
 19 17  1  0
 20 19  1  1
 20 22  1  0
 21 20  1  0
 22 23  2  0
 22 24  1  0
M  END
$$$$
