DPL.pdb
     RDKit          3D

 24 24  0  0  1  0  0  0  0  0999 V2000
    7.9439  -18.8171   19.9157 N   0  0  0  0  0  0  0  0  0  0  0  0
    7.1454  -17.7502   20.5595 C   0  0  1  0  0  0  0  0  0  0  0  0
    6.3734  -18.3066   21.7081 C   0  0  0  0  0  0  0  0  0  0  0  0
    5.2923  -19.2198   21.3259 C   0  0  0  0  0  0  0  0  0  0  0  0
    4.7736  -19.1590   20.1930 O   0  0  0  0  0  0  0  0  0  0  0  0
    8.1610  -16.7425   20.9610 C   0  0  0  0  0  0  0  0  0  0  0  0
    9.3246  -17.1841   21.2337 O   0  0  0  0  0  0  0  0  0  0  0  0
    4.7865  -20.1948   22.1898 O   0  0  0  0  0  0  0  0  0  0  0  0
    7.9537  -15.3429   21.0671 N   0  0  0  0  0  0  0  0  0  0  0  0
    6.6501  -14.7557   21.0422 C   0  0  0  0  0  0  0  0  0  0  0  0
    6.8227  -13.3042   20.8182 C   0  0  0  0  0  0  0  0  0  0  0  0
    8.2738  -13.1106   20.6046 C   0  0  0  0  0  0  0  0  0  0  0  0
    8.9474  -14.3491   21.2324 C   0  0  1  0  0  0  0  0  0  0  0  0
    9.2862  -14.0468   22.6618 C   0  0  0  0  0  0  0  0  0  0  0  0
    9.9997  -13.0468   22.9124 O   0  0  0  0  0  0  0  0  0  0  0  0
    5.8971  -12.2797   26.6192 C   0  0  0  0  0  0  0  0  0  0  0  0
    7.2482  -12.9562   26.5393 C   0  0  2  0  0  0  0  0  0  0  0  0
    8.3431  -11.9919   26.9367 C   0  0  0  0  0  0  0  0  0  0  0  0
    7.5277  -13.4099   25.1214 C   0  0  0  0  0  0  0  0  0  0  0  0
    8.6907  -14.3938   25.0839 C   0  0  2  0  0  0  0  0  0  0  0  0
    8.8294  -14.8463   23.7167 N   0  0  0  0  0  0  0  0  0  0  0  0
    8.3051  -15.5582   25.9185 C   0  0  0  0  0  0  0  0  0  0  0  0
    8.7101  -15.6717   27.0818 O   0  0  0  0  0  0  0  0  0  0  0  0
    7.4721  -16.5410   25.3838 O   0  0  0  0  0  0  0  0  0  0  0  0
  2  1  1  1
  2  3  1  0
  2  6  1  0
  3  4  1  0
  4  5  2  0
  4  8  1  0
  6  7  2  0
  9 13  1  0
  9  6  1  0
 10  9  1  0
 11 10  1  0
 11 12  1  0
 12 13  1  0
 13 14  1  1
 14 21  1  0
 14 15  2  0
 17 16  1  6
 17 18  1  0
 19 17  1  0
 20 19  1  6
 20 22  1  0
 21 20  1  0
 22 23  2  0
 22 24  1  0
M  END
$$$$
