DPL.pdb
     RDKit          3D

 24 24  0  0  1  0  0  0  0  0999 V2000
   11.9976  -17.5761   19.5108 N   0  0  0  0  0  0  0  0  0  0  0  0
   10.9119  -18.0955   20.3720 C   0  0  1  0  0  0  0  0  0  0  0  0
   11.4806  -18.9225   21.4754 C   0  0  0  0  0  0  0  0  0  0  0  0
   12.1095  -20.1710   21.0344 C   0  0  0  0  0  0  0  0  0  0  0  0
   11.4862  -20.9859   20.3248 O   0  0  0  0  0  0  0  0  0  0  0  0
   10.2206  -16.8688   20.8470 C   0  0  0  0  0  0  0  0  0  0  0  0
   10.9492  -15.8403   21.0331 O   0  0  0  0  0  0  0  0  0  0  0  0
   13.4196  -20.5181   21.3752 O   0  0  0  0  0  0  0  0  0  0  0  0
    8.8322  -16.7402   21.1100 N   0  0  0  0  0  0  0  0  0  0  0  0
    7.9092  -17.8129   20.9045 C   0  0  0  0  0  0  0  0  0  0  0  0
    6.5476  -17.2367   20.9330 C   0  0  0  0  0  0  0  0  0  0  0  0
    6.7431  -15.7749   21.0506 C   0  0  0  0  0  0  0  0  0  0  0  0
    8.1679  -15.5981   21.6167 C   0  0  1  0  0  0  0  0  0  0  0  0
    8.0932  -15.5412   23.1136 C   0  0  0  0  0  0  0  0  0  0  0  0
    8.2964  -16.5921   23.7664 O   0  0  0  0  0  0  0  0  0  0  0  0
    6.0570  -11.5610   27.3895 C   0  0  0  0  0  0  0  0  0  0  0  0
    6.9156  -12.7659   27.0721 C   0  0  2  0  0  0  0  0  0  0  0  0
    8.3054  -12.5850   27.6397 C   0  0  0  0  0  0  0  0  0  0  0  0
    7.0500  -12.9374   25.5731 C   0  0  0  0  0  0  0  0  0  0  0  0
    7.8028  -14.2190   25.2371 C   0  0  2  0  0  0  0  0  0  0  0  0
    7.8050  -14.3533   23.7966 N   0  0  0  0  0  0  0  0  0  0  0  0
    7.0221  -15.3458   25.8045 C   0  0  0  0  0  0  0  0  0  0  0  0
    7.3628  -15.8897   26.8620 O   0  0  0  0  0  0  0  0  0  0  0  0
    5.8853  -15.7997   25.1356 O   0  0  0  0  0  0  0  0  0  0  0  0
  2  1  1  6
  2  3  1  0
  2  6  1  0
  3  4  1  0
  4  5  2  0
  4  8  1  0
  6  7  2  0
  9 13  1  0
  9  6  1  0
 10  9  1  0
 11 10  1  0
 11 12  1  0
 12 13  1  0
 13 14  1  1
 14 21  1  0
 14 15  2  0
 17 16  1  6
 17 18  1  0
 19 17  1  0
 20 19  1  6
 20 22  1  0
 21 20  1  0
 22 23  2  0
 22 24  1  0
M  END
$$$$
