DPL.pdb
     RDKit          3D

 24 24  0  0  1  0  0  0  0  0999 V2000
   11.6241  -17.2581   19.6105 N   0  0  0  0  0  0  0  0  0  0  0  0
   10.2978  -17.6874   20.1073 C   0  0  1  0  0  0  0  0  0  0  0  0
   10.4129  -18.9915   20.8221 C   0  0  0  0  0  0  0  0  0  0  0  0
   10.8426  -20.1096   19.9772 C   0  0  0  0  0  0  0  0  0  0  0  0
   10.2077  -20.4148   18.9476 O   0  0  0  0  0  0  0  0  0  0  0  0
    9.8697  -16.5669   20.9845 C   0  0  0  0  0  0  0  0  0  0  0  0
   10.7971  -15.8822   21.5272 O   0  0  0  0  0  0  0  0  0  0  0  0
   11.9671  -20.8868   20.2673 O   0  0  0  0  0  0  0  0  0  0  0  0
    8.5311  -16.1930   21.2701 N   0  0  0  0  0  0  0  0  0  0  0  0
    7.4074  -16.8500   20.6780 C   0  0  0  0  0  0  0  0  0  0  0  0
    6.2224  -15.9968   20.9115 C   0  0  0  0  0  0  0  0  0  0  0  0
    6.7420  -14.7741   21.5627 C   0  0  0  0  0  0  0  0  0  0  0  0
    8.1061  -15.1787   22.1606 C   0  0  1  0  0  0  0  0  0  0  0  0
    7.9006  -15.6428   23.5718 C   0  0  0  0  0  0  0  0  0  0  0  0
    7.8006  -16.8731   23.7919 O   0  0  0  0  0  0  0  0  0  0  0  0
    8.1018  -12.1069   27.3144 C   0  0  0  0  0  0  0  0  0  0  0  0
    7.1006  -12.7733   26.3961 C   0  0  2  0  0  0  0  0  0  0  0  0
    5.7580  -12.0846   26.4942 C   0  0  0  0  0  0  0  0  0  0  0  0
    6.9042  -14.2220   26.7927 C   0  0  0  0  0  0  0  0  0  0  0  0
    7.8678  -15.1288   26.0368 C   0  0  2  0  0  0  0  0  0  0  0  0
    7.8185  -14.7447   24.6429 N   0  0  0  0  0  0  0  0  0  0  0  0
    7.3469  -16.5131   26.1528 C   0  0  0  0  0  0  0  0  0  0  0  0
    6.4921  -16.9413   25.3678 O   0  0  0  0  0  0  0  0  0  0  0  0
    7.8284  -17.3460   27.1628 O   0  0  0  0  0  0  0  0  0  0  0  0
  2  1  1  1
  2  3  1  0
  2  6  1  0
  3  4  1  0
  4  5  2  0
  4  8  1  0
  6  7  2  0
  9 13  1  0
  9  6  1  0
 10  9  1  0
 11 10  1  0
 11 12  1  0
 12 13  1  0
 13 14  1  1
 14 21  1  0
 14 15  2  0
 17 16  1  1
 17 18  1  0
 19 17  1  0
 20 19  1  1
 20 22  1  0
 21 20  1  0
 22 23  2  0
 22 24  1  0
M  END
$$$$
