DPL.pdb
     RDKit          3D

 24 24  0  0  1  0  0  0  0  0999 V2000
   12.1135  -13.8251   19.1553 N   0  0  0  0  0  0  0  0  0  0  0  0
   11.4882  -15.0474   19.7080 C   0  0  1  0  0  0  0  0  0  0  0  0
   12.5341  -15.9569   20.2590 C   0  0  0  0  0  0  0  0  0  0  0  0
   12.0098  -17.1753   20.8829 C   0  0  0  0  0  0  0  0  0  0  0  0
   11.6999  -18.1663   20.1913 O   0  0  0  0  0  0  0  0  0  0  0  0
   10.5509  -14.5295   20.7383 C   0  0  0  0  0  0  0  0  0  0  0  0
   11.0109  -13.6481   21.5351 O   0  0  0  0  0  0  0  0  0  0  0  0
   11.8283  -17.2992   22.2630 O   0  0  0  0  0  0  0  0  0  0  0  0
    9.1995  -14.9248   20.9135 N   0  0  0  0  0  0  0  0  0  0  0  0
    8.6033  -15.9793   20.1537 C   0  0  0  0  0  0  0  0  0  0  0  0
    7.1389  -15.8815   20.3343 C   0  0  0  0  0  0  0  0  0  0  0  0
    6.9240  -14.6580   21.1379 C   0  0  0  0  0  0  0  0  0  0  0  0
    8.2726  -14.3878   21.8381 C   0  0  1  0  0  0  0  0  0  0  0  0
    8.2712  -15.0665   23.1755 C   0  0  0  0  0  0  0  0  0  0  0  0
    8.9266  -16.1265   23.3128 O   0  0  0  0  0  0  0  0  0  0  0  0
    8.1356  -11.8025   26.5739 C   0  0  0  0  0  0  0  0  0  0  0  0
    6.8720  -12.5107   26.1365 C   0  0  2  0  0  0  0  0  0  0  0  0
    5.6682  -11.9145   26.8307 C   0  0  0  0  0  0  0  0  0  0  0  0
    6.9353  -13.9784   26.5057 C   0  0  0  0  0  0  0  0  0  0  0  0
    7.9604  -14.7116   25.6491 C   0  0  2  0  0  0  0  0  0  0  0  0
    7.5625  -14.5509   24.2675 N   0  0  0  0  0  0  0  0  0  0  0  0
    7.8664  -16.1519   25.9921 C   0  0  0  0  0  0  0  0  0  0  0  0
    8.3511  -16.5909   27.0421 O   0  0  0  0  0  0  0  0  0  0  0  0
    7.2208  -17.0258   25.1174 O   0  0  0  0  0  0  0  0  0  0  0  0
  2  1  1  1
  2  3  1  0
  2  6  1  0
  3  4  1  0
  4  5  2  0
  4  8  1  0
  6  7  2  0
  9 13  1  0
  9  6  1  0
 10  9  1  0
 11 10  1  0
 11 12  1  0
 12 13  1  0
 13 14  1  1
 14 21  1  0
 14 15  2  0
 17 16  1  1
 17 18  1  0
 19 17  1  0
 20 19  1  1
 20 22  1  0
 21 20  1  0
 22 23  2  0
 22 24  1  0
M  END
$$$$
