EAA.pdb
     RDKit          3D

 20 19  0  0  1  0  0  0  0  0999 V2000
   19.6513  -12.8069  -16.3835 N   0  0  0  0  0  0  0  0  0  0  0  0
   19.3130  -11.4676  -16.8370 C   0  0  1  0  0  0  0  0  0  0  0  0
   17.9819  -11.0159  -16.3583 C   0  0  0  0  0  0  0  0  0  0  0  0
   16.8556  -11.7744  -17.0023 C   0  0  0  0  0  0  0  0  0  0  0  0
   15.5247  -11.3724  -16.5561 C   0  0  0  0  0  0  0  0  0  0  0  0
   14.7087  -10.7332  -17.2468 O   0  0  0  0  0  0  0  0  0  0  0  0
   20.3833  -10.5562  -16.2995 C   0  0  0  0  0  0  0  0  0  0  0  0
   20.6816  -10.5092  -15.0793 O   0  0  0  0  0  0  0  0  0  0  0  0
   15.1527  -11.7400  -15.2522 O   0  0  0  0  0  0  0  0  0  0  0  0
   23.1035   -8.4518  -17.7629 C   0  0  0  0  0  0  0  0  0  0  0  0
   22.1311   -8.8131  -16.6594 C   0  0  2  0  0  0  0  0  0  0  0  0
   21.1092   -9.6991  -17.1710 N   0  0  0  0  0  0  0  0  0  0  0  0
   21.5469   -7.6182  -16.0034 C   0  0  0  0  0  0  0  0  0  0  0  0
   20.4886   -7.0482  -16.4283 O   0  0  0  0  0  0  0  0  0  0  0  0
   22.0438   -5.8264  -12.7188 C   0  0  0  0  0  0  0  0  0  0  0  0
   21.5460   -5.9263  -14.1432 C   0  0  2  0  0  0  0  0  0  0  0  0
   22.1364   -7.0319  -14.8523 N   0  0  0  0  0  0  0  0  0  0  0  0
   21.9044   -4.6746  -14.8513 C   0  0  0  0  0  0  0  0  0  0  0  0
   21.2913   -3.4782  -14.5151 O   0  0  0  0  0  0  0  0  0  0  0  0
   22.7619   -4.6306  -15.7719 O   0  0  0  0  0  0  0  0  0  0  0  0
  2  1  1  1
  3  2  1  0
  4  5  1  0
  4  3  1  0
  5  6  2  0
  7  2  1  0
  8  7  2  0
  9  5  1  0
 11 10  1  6
 11 13  1  0
 11 12  1  0
 12  7  1  0
 13 17  1  0
 14 13  2  0
 16 18  1  0
 16 15  1  1
 17 16  1  0
 18 20  2  0
 18 19  1  0
M  END
$$$$
