EAA.pdb
     RDKit          3D

 20 19  0  0  1  0  0  0  0  0999 V2000
   17.1356  -11.9096  -16.5780 N   0  0  0  0  0  0  0  0  0  0  0  0
   17.9019  -10.9907  -15.7521 C   0  0  1  0  0  0  0  0  0  0  0  0
   19.3512  -10.9963  -16.0757 C   0  0  0  0  0  0  0  0  0  0  0  0
   20.0291  -12.2647  -15.6398 C   0  0  0  0  0  0  0  0  0  0  0  0
   19.7855  -13.4096  -16.5125 C   0  0  0  0  0  0  0  0  0  0  0  0
   20.1283  -13.4747  -17.7084 O   0  0  0  0  0  0  0  0  0  0  0  0
   17.3301   -9.6210  -16.0010 C   0  0  0  0  0  0  0  0  0  0  0  0
   17.2877   -9.1036  -17.1458 O   0  0  0  0  0  0  0  0  0  0  0  0
   19.1157  -14.5084  -15.9490 O   0  0  0  0  0  0  0  0  0  0  0  0
   15.0626   -7.3531  -14.1516 C   0  0  0  0  0  0  0  0  0  0  0  0
   16.1564   -7.5811  -15.1740 C   0  0  2  0  0  0  0  0  0  0  0  0
   16.8072   -8.8487  -14.9281 N   0  0  0  0  0  0  0  0  0  0  0  0
   17.1290   -6.4626  -15.2242 C   0  0  0  0  0  0  0  0  0  0  0  0
   18.1374   -6.3920  -14.4473 O   0  0  0  0  0  0  0  0  0  0  0  0
   17.6975   -3.4679  -17.4950 C   0  0  0  0  0  0  0  0  0  0  0  0
   17.9916   -4.3681  -16.3160 C   0  0  2  0  0  0  0  0  0  0  0  0
   16.9944   -5.3934  -16.1490 N   0  0  0  0  0  0  0  0  0  0  0  0
   18.0145   -3.5369  -15.0891 C   0  0  0  0  0  0  0  0  0  0  0  0
   17.0045   -3.6487  -14.1470 O   0  0  0  0  0  0  0  0  0  0  0  0
   18.9277   -2.7064  -14.8421 O   0  0  0  0  0  0  0  0  0  0  0  0
  2  1  1  6
  3  2  1  0
  4  5  1  0
  4  3  1  0
  5  6  2  0
  7  2  1  0
  8  7  2  0
  9  5  1  0
 11 10  1  1
 11 13  1  0
 11 12  1  0
 12  7  1  0
 13 17  1  0
 14 13  2  0
 16 18  1  0
 16 15  1  6
 17 16  1  0
 18 20  2  0
 18 19  1  0
M  END
$$$$
