EAA.pdb
     RDKit          3D

 20 19  0  0  1  0  0  0  0  0999 V2000
   18.0473  -11.4773  -16.3955 N   0  0  0  0  0  0  0  0  0  0  0  0
   18.5722  -10.3073  -17.0806 C   0  0  1  0  0  0  0  0  0  0  0  0
   17.5107   -9.4886  -17.7191 C   0  0  0  0  0  0  0  0  0  0  0  0
   16.9034  -10.1706  -18.9127 C   0  0  0  0  0  0  0  0  0  0  0  0
   15.8483   -9.4065  -19.5722 C   0  0  0  0  0  0  0  0  0  0  0  0
   15.9935   -8.7646  -20.6298 O   0  0  0  0  0  0  0  0  0  0  0  0
   19.2860   -9.4910  -16.0369 C   0  0  0  0  0  0  0  0  0  0  0  0
   18.7542   -9.1798  -14.9413 O   0  0  0  0  0  0  0  0  0  0  0  0
   14.5850   -9.4045  -18.9577 O   0  0  0  0  0  0  0  0  0  0  0  0
   22.7408   -8.5173  -15.2133 C   0  0  0  0  0  0  0  0  0  0  0  0
   21.2698   -8.1682  -15.3040 C   0  0  2  0  0  0  0  0  0  0  0  0
   20.6138   -9.0339  -16.2584 N   0  0  0  0  0  0  0  0  0  0  0  0
   21.0441   -6.7354  -15.6130 C   0  0  0  0  0  0  0  0  0  0  0  0
   21.0133   -6.2851  -16.8054 O   0  0  0  0  0  0  0  0  0  0  0  0
   19.8814   -3.6593  -13.7994 C   0  0  0  0  0  0  0  0  0  0  0  0
   20.7052   -4.3619  -14.8551 C   0  0  2  0  0  0  0  0  0  0  0  0
   20.8468   -5.7702  -14.5903 N   0  0  0  0  0  0  0  0  0  0  0  0
   22.0565   -3.7535  -14.8735 C   0  0  0  0  0  0  0  0  0  0  0  0
   22.2408   -2.4682  -15.3577 O   0  0  0  0  0  0  0  0  0  0  0  0
   23.0832   -4.3543  -14.4616 O   0  0  0  0  0  0  0  0  0  0  0  0
  2  1  1  1
  3  2  1  0
  4  5  1  0
  4  3  1  0
  5  6  2  0
  7  2  1  0
  8  7  2  0
  9  5  1  0
 11 10  1  6
 11 13  1  0
 11 12  1  0
 12  7  1  0
 13 17  1  0
 14 13  2  0
 16 18  1  0
 16 15  1  1
 17 16  1  0
 18 20  2  0
 18 19  1  0
M  END
$$$$
