EAA.pdb
     RDKit          3D

 20 19  0  0  1  0  0  0  0  0999 V2000
   17.2820  -11.8460  -15.4912 N   0  0  0  0  0  0  0  0  0  0  0  0
   18.1660  -11.2841  -16.4994 C   0  0  1  0  0  0  0  0  0  0  0  0
   17.4341  -10.5555  -17.5664 C   0  0  0  0  0  0  0  0  0  0  0  0
   16.0475  -10.1614  -17.1414 C   0  0  0  0  0  0  0  0  0  0  0  0
   15.9034   -8.7532  -16.7838 C   0  0  0  0  0  0  0  0  0  0  0  0
   16.8287   -7.9194  -16.8008 O   0  0  0  0  0  0  0  0  0  0  0  0
   19.0855  -10.3377  -15.7756 C   0  0  0  0  0  0  0  0  0  0  0  0
   18.7266   -9.6906  -14.7594 O   0  0  0  0  0  0  0  0  0  0  0  0
   14.6239   -8.3231  -16.3947 O   0  0  0  0  0  0  0  0  0  0  0  0
   22.7792   -9.7360  -15.8342 C   0  0  0  0  0  0  0  0  0  0  0  0
   21.3626   -9.3772  -15.4364 C   0  0  2  0  0  0  0  0  0  0  0  0
   20.4194  -10.1385  -16.2250 N   0  0  0  0  0  0  0  0  0  0  0  0
   21.1011   -7.9198  -15.5195 C   0  0  0  0  0  0  0  0  0  0  0  0
   20.5481   -7.3764  -16.5317 O   0  0  0  0  0  0  0  0  0  0  0  0
   21.5203   -4.9341  -13.2025 C   0  0  0  0  0  0  0  0  0  0  0  0
   21.1945   -5.6182  -14.5112 C   0  0  2  0  0  0  0  0  0  0  0  0
   21.4540   -7.0339  -14.4673 N   0  0  0  0  0  0  0  0  0  0  0  0
   22.0408   -5.0225  -15.5721 C   0  0  0  0  0  0  0  0  0  0  0  0
   21.6675   -3.8365  -16.1841 O   0  0  0  0  0  0  0  0  0  0  0  0
   23.1157   -5.5468  -15.9650 O   0  0  0  0  0  0  0  0  0  0  0  0
  2  1  1  1
  3  2  1  0
  4  5  1  0
  4  3  1  0
  5  6  2  0
  7  2  1  0
  8  7  2  0
  9  5  1  0
 11 10  1  6
 11 13  1  0
 11 12  1  0
 12  7  1  0
 13 17  1  0
 14 13  2  0
 16 18  1  0
 16 15  1  1
 17 16  1  0
 18 20  2  0
 18 19  1  0
M  END
$$$$
