EAA.pdb
     RDKit          3D

 20 19  0  0  1  0  0  0  0  0999 V2000
   36.5884  -35.5781   -2.2229 N   0  0  0  0  0  0  0  0  0  0  0  0
   35.4440  -36.4718   -2.2976 C   0  0  1  0  0  0  0  0  0  0  0  0
   34.8617  -36.7752   -0.9657 C   0  0  0  0  0  0  0  0  0  0  0  0
   33.8404  -37.8761   -1.0261 C   0  0  0  0  0  0  0  0  0  0  0  0
   32.4589  -37.4260   -0.8816 C   0  0  0  0  0  0  0  0  0  0  0  0
   31.4751  -37.9764   -1.4116 O   0  0  0  0  0  0  0  0  0  0  0  0
   34.4201  -35.7771   -3.1545 C   0  0  0  0  0  0  0  0  0  0  0  0
   34.1759  -34.5481   -3.0543 O   0  0  0  0  0  0  0  0  0  0  0  0
   32.2398  -36.2897   -0.0851 O   0  0  0  0  0  0  0  0  0  0  0  0
   32.3184  -36.6695   -6.1285 C   0  0  0  0  0  0  0  0  0  0  0  0
   32.6239  -35.8634   -4.8833 C   0  0  2  0  0  0  0  0  0  0  0  0
   33.6783  -36.5016   -4.1270 N   0  0  0  0  0  0  0  0  0  0  0  0
   31.4188  -35.6216   -4.0533 C   0  0  0  0  0  0  0  0  0  0  0  0
   31.1655  -36.2889   -2.9969 O   0  0  0  0  0  0  0  0  0  0  0  0
   28.4308  -33.2696   -4.1929 C   0  0  0  0  0  0  0  0  0  0  0  0
   29.2430  -34.4259   -3.6545 C   0  0  2  0  0  0  0  0  0  0  0  0
   30.4661  -34.6233   -4.3884 N   0  0  0  0  0  0  0  0  0  0  0  0
   28.4291  -35.6594   -3.7659 C   0  0  0  0  0  0  0  0  0  0  0  0
   27.4064  -35.9090   -2.8646 O   0  0  0  0  0  0  0  0  0  0  0  0
   28.6168  -36.5247   -4.6608 O   0  0  0  0  0  0  0  0  0  0  0  0
  2  1  1  1
  3  2  1  0
  4  5  1  0
  4  3  1  0
  5  6  2  0
  7  2  1  0
  8  7  2  0
  9  5  1  0
 11 10  1  6
 11 13  1  0
 11 12  1  0
 12  7  1  0
 13 17  1  0
 14 13  2  0
 16 18  1  0
 16 15  1  6
 17 16  1  0
 18 20  2  0
 18 19  1  0
M  END
$$$$
