EAA.pdb
     RDKit          3D

 20 19  0  0  1  0  0  0  0  0999 V2000
   18.4891  -12.3242  -15.7233 N   0  0  0  0  0  0  0  0  0  0  0  0
   18.0438  -11.0259  -16.2025 C   0  0  1  0  0  0  0  0  0  0  0  0
   16.8601  -10.5145  -15.4660 C   0  0  0  0  0  0  0  0  0  0  0  0
   15.6194  -11.3119  -15.7544 C   0  0  0  0  0  0  0  0  0  0  0  0
   14.4025  -10.7726  -15.1543 C   0  0  0  0  0  0  0  0  0  0  0  0
   14.2525   -9.5882  -14.7987 O   0  0  0  0  0  0  0  0  0  0  0  0
   19.2042  -10.0857  -16.0165 C   0  0  0  0  0  0  0  0  0  0  0  0
   19.9506  -10.1241  -15.0058 O   0  0  0  0  0  0  0  0  0  0  0  0
   13.3335  -11.6655  -14.9711 O   0  0  0  0  0  0  0  0  0  0  0  0
   21.0292   -7.6309  -18.1775 C   0  0  0  0  0  0  0  0  0  0  0  0
   20.6303   -8.2102  -16.8362 C   0  0  2  0  0  0  0  0  0  0  0  0
   19.5028   -9.1011  -16.9977 N   0  0  0  0  0  0  0  0  0  0  0  0
   20.3638   -7.1621  -15.8214 C   0  0  0  0  0  0  0  0  0  0  0  0
   19.2069   -6.6582  -15.6397 O   0  0  0  0  0  0  0  0  0  0  0  0
   22.2509   -5.5751  -12.9553 C   0  0  0  0  0  0  0  0  0  0  0  0
   21.1682   -5.6143  -14.0103 C   0  0  2  0  0  0  0  0  0  0  0  0
   21.3906   -6.6521  -14.9834 N   0  0  0  0  0  0  0  0  0  0  0  0
   21.1562   -4.3104  -14.7148 C   0  0  0  0  0  0  0  0  0  0  0  0
   20.7072   -3.1688  -14.0702 O   0  0  0  0  0  0  0  0  0  0  0  0
   21.5424   -4.1720  -15.9049 O   0  0  0  0  0  0  0  0  0  0  0  0
  2  1  1  1
  3  2  1  0
  4  5  1  0
  4  3  1  0
  5  6  2  0
  7  2  1  0
  8  7  2  0
  9  5  1  0
 11 10  1  6
 11 13  1  0
 11 12  1  0
 12  7  1  0
 13 17  1  0
 14 13  2  0
 16 18  1  0
 16 15  1  1
 17 16  1  0
 18 20  2  0
 18 19  1  0
M  END
$$$$
