EAA.pdb
     RDKit          3D

 20 19  0  0  1  0  0  0  0  0999 V2000
   15.2126  -10.9048  -15.2576 N   0  0  0  0  0  0  0  0  0  0  0  0
   16.2531  -10.0047  -14.7875 C   0  0  1  0  0  0  0  0  0  0  0  0
   17.5926  -10.3350  -15.3368 C   0  0  0  0  0  0  0  0  0  0  0  0
   18.2001  -11.5399  -14.6753 C   0  0  0  0  0  0  0  0  0  0  0  0
   18.5750  -12.6091  -15.5963 C   0  0  0  0  0  0  0  0  0  0  0  0
   19.3017  -12.4601  -16.5969 O   0  0  0  0  0  0  0  0  0  0  0  0
   15.8486   -8.6237  -15.2284 C   0  0  0  0  0  0  0  0  0  0  0  0
   15.5812   -8.3470  -16.4251 O   0  0  0  0  0  0  0  0  0  0  0  0
   18.0721  -13.8916  -15.3210 O   0  0  0  0  0  0  0  0  0  0  0  0
   14.5582   -5.5379  -13.6895 C   0  0  0  0  0  0  0  0  0  0  0  0
   15.4413   -6.2167  -14.7157 C   0  0  2  0  0  0  0  0  0  0  0  0
   15.7529   -7.5623  -14.2876 N   0  0  0  0  0  0  0  0  0  0  0  0
   16.6661   -5.4362  -15.0163 C   0  0  0  0  0  0  0  0  0  0  0  0
   17.7299   -5.5295  -14.3198 O   0  0  0  0  0  0  0  0  0  0  0  0
   17.7610   -3.0045  -17.7263 C   0  0  0  0  0  0  0  0  0  0  0  0
   17.9018   -3.7573  -16.4224 C   0  0  2  0  0  0  0  0  0  0  0  0
   16.7281   -4.5299  -16.1077 N   0  0  0  0  0  0  0  0  0  0  0  0
   18.1157   -2.7722  -15.3360 C   0  0  0  0  0  0  0  0  0  0  0  0
   19.3447   -2.1499  -15.1852 O   0  0  0  0  0  0  0  0  0  0  0  0
   17.2176   -2.4554  -14.5128 O   0  0  0  0  0  0  0  0  0  0  0  0
  2  1  1  6
  3  2  1  0
  4  5  1  0
  4  3  1  0
  5  6  2  0
  7  2  1  0
  8  7  2  0
  9  5  1  0
 11 10  1  1
 11 13  1  0
 11 12  1  0
 12  7  1  0
 13 17  1  0
 14 13  2  0
 16 18  1  0
 16 15  1  6
 17 16  1  0
 18 20  2  0
 18 19  1  0
M  END
$$$$
