EAA.pdb
     RDKit          3D

 20 19  0  0  1  0  0  0  0  0999 V2000
   16.1985  -10.5327  -16.9658 N   0  0  0  0  0  0  0  0  0  0  0  0
   17.3185  -10.3832  -16.0509 C   0  0  1  0  0  0  0  0  0  0  0  0
   18.4585  -11.2743  -16.3848 C   0  0  0  0  0  0  0  0  0  0  0  0
   18.1997  -12.7029  -15.9967 C   0  0  0  0  0  0  0  0  0  0  0  0
   19.3191  -13.6073  -16.2431 C   0  0  0  0  0  0  0  0  0  0  0  0
   19.3577  -14.4552  -17.1548 O   0  0  0  0  0  0  0  0  0  0  0  0
   17.7521   -8.9451  -16.1448 C   0  0  0  0  0  0  0  0  0  0  0  0
   18.1763   -8.4349  -17.2125 O   0  0  0  0  0  0  0  0  0  0  0  0
   20.4241  -13.5017  -15.3820 O   0  0  0  0  0  0  0  0  0  0  0  0
   17.1971   -5.8302  -14.2987 C   0  0  0  0  0  0  0  0  0  0  0  0
   18.1381   -6.7214  -15.0822 C   0  0  2  0  0  0  0  0  0  0  0  0
   17.6960   -8.0961  -15.0059 N   0  0  0  0  0  0  0  0  0  0  0  0
   19.5502   -6.5718  -14.6544 C   0  0  0  0  0  0  0  0  0  0  0  0
   20.0302   -7.1783  -13.6408 O   0  0  0  0  0  0  0  0  0  0  0  0
   22.6276   -4.7899  -16.0038 C   0  0  0  0  0  0  0  0  0  0  0  0
   21.8595   -5.6477  -15.0236 C   0  0  2  0  0  0  0  0  0  0  0  0
   20.4608   -5.7365  -15.3542 N   0  0  0  0  0  0  0  0  0  0  0  0
   21.9819   -5.0408  -13.6771 C   0  0  0  0  0  0  0  0  0  0  0  0
   23.0521   -5.3620  -12.8574 O   0  0  0  0  0  0  0  0  0  0  0  0
   21.1434   -4.2227  -13.2164 O   0  0  0  0  0  0  0  0  0  0  0  0
  2  1  1  6
  3  2  1  0
  4  5  1  0
  4  3  1  0
  5  6  2  0
  7  2  1  0
  8  7  2  0
  9  5  1  0
 11 10  1  1
 11 13  1  0
 11 12  1  0
 12  7  1  0
 13 17  1  0
 14 13  2  0
 16 18  1  0
 16 15  1  6
 17 16  1  0
 18 20  2  0
 18 19  1  0
M  END
$$$$
