EAA.pdb
     RDKit          3D

 20 19  0  0  1  0  0  0  0  0999 V2000
   20.6850  -14.6414  -18.0086 N   0  0  0  0  0  0  0  0  0  0  0  0
   20.9185  -13.5070  -18.8873 C   0  0  1  0  0  0  0  0  0  0  0  0
   19.7163  -13.1293  -19.6730 C   0  0  0  0  0  0  0  0  0  0  0  0
   19.3421  -14.1765  -20.6838 C   0  0  0  0  0  0  0  0  0  0  0  0
   18.1522  -13.8599  -21.4684 C   0  0  0  0  0  0  0  0  0  0  0  0
   17.4557  -12.8381  -21.3184 O   0  0  0  0  0  0  0  0  0  0  0  0
   21.3271  -12.3620  -18.0002 C   0  0  0  0  0  0  0  0  0  0  0  0
   20.8277  -12.1769  -16.8615 O   0  0  0  0  0  0  0  0  0  0  0  0
   17.7788  -14.7832  -22.4591 O   0  0  0  0  0  0  0  0  0  0  0  0
   24.0119   -9.7298  -18.1078 C   0  0  0  0  0  0  0  0  0  0  0  0
   22.7492  -10.3606  -17.5588 C   0  0  2  0  0  0  0  0  0  0  0  0
   22.3124  -11.4306  -18.4277 N   0  0  0  0  0  0  0  0  0  0  0  0
   21.6736   -9.3669  -17.3242 C   0  0  0  0  0  0  0  0  0  0  0  0
   20.9032   -8.9545  -18.2526 O   0  0  0  0  0  0  0  0  0  0  0  0
   19.5431   -8.2341  -14.5897 C   0  0  0  0  0  0  0  0  0  0  0  0
   20.3929   -7.8506  -15.7803 C   0  0  2  0  0  0  0  0  0  0  0  0
   21.4348   -8.8101  -16.0399 N   0  0  0  0  0  0  0  0  0  0  0  0
   21.0261   -6.5406  -15.4986 C   0  0  0  0  0  0  0  0  0  0  0  0
   20.2558   -5.3914  -15.4201 O   0  0  0  0  0  0  0  0  0  0  0  0
   22.2647   -6.4034  -15.3203 O   0  0  0  0  0  0  0  0  0  0  0  0
  2  1  1  1
  3  2  1  0
  4  5  1  0
  4  3  1  0
  5  6  2  0
  7  2  1  0
  8  7  2  0
  9  5  1  0
 11 10  1  6
 11 13  1  0
 11 12  1  0
 12  7  1  0
 13 17  1  0
 14 13  2  0
 16 18  1  0
 16 15  1  1
 17 16  1  0
 18 20  2  0
 18 19  1  0
M  END
$$$$
