EAA.pdb
     RDKit          3D

 20 19  0  0  1  0  0  0  0  0999 V2000
   19.0645  -12.6954  -16.8348 N   0  0  0  0  0  0  0  0  0  0  0  0
   19.8817  -11.5948  -17.3190 C   0  0  1  0  0  0  0  0  0  0  0  0
   19.1910  -10.7713  -18.3437 C   0  0  0  0  0  0  0  0  0  0  0  0
   18.9265  -11.5374  -19.6092 C   0  0  0  0  0  0  0  0  0  0  0  0
   18.3259  -10.7460  -20.6792 C   0  0  0  0  0  0  0  0  0  0  0  0
   17.9890   -9.5514  -20.5736 O   0  0  0  0  0  0  0  0  0  0  0  0
   20.2046  -10.7473  -16.1180 C   0  0  0  0  0  0  0  0  0  0  0  0
   19.3254  -10.3605  -15.3071 O   0  0  0  0  0  0  0  0  0  0  0  0
   18.1195  -11.3920  -21.9095 O   0  0  0  0  0  0  0  0  0  0  0  0
   23.2625   -9.7574  -14.2475 C   0  0  0  0  0  0  0  0  0  0  0  0
   21.8524   -9.4893  -14.7306 C   0  0  2  0  0  0  0  0  0  0  0  0
   21.5426  -10.3466  -15.8531 N   0  0  0  0  0  0  0  0  0  0  0  0
   21.6235   -8.0592  -15.0494 C   0  0  0  0  0  0  0  0  0  0  0  0
   21.9313   -7.5473  -16.1758 O   0  0  0  0  0  0  0  0  0  0  0  0
   19.5962   -5.2474  -13.6197 C   0  0  0  0  0  0  0  0  0  0  0  0
   20.7724   -5.7824  -14.4052 C   0  0  2  0  0  0  0  0  0  0  0  0
   21.0425   -7.1658  -14.1108 N   0  0  0  0  0  0  0  0  0  0  0  0
   21.9716   -4.9879  -14.0485 C   0  0  0  0  0  0  0  0  0  0  0  0
   22.1655   -3.7279  -14.5918 O   0  0  0  0  0  0  0  0  0  0  0  0
   22.8558   -5.4025  -13.2542 O   0  0  0  0  0  0  0  0  0  0  0  0
  2  1  1  1
  3  2  1  0
  4  5  1  0
  4  3  1  0
  5  6  2  0
  7  2  1  0
  8  7  2  0
  9  5  1  0
 11 10  1  6
 11 13  1  0
 11 12  1  0
 12  7  1  0
 13 17  1  0
 14 13  2  0
 16 18  1  0
 16 15  1  1
 17 16  1  0
 18 20  2  0
 18 19  1  0
M  END
$$$$
