EAA.pdb
     RDKit          3D

 20 19  0  0  1  0  0  0  0  0999 V2000
   18.0170  -11.9515  -15.4529 N   0  0  0  0  0  0  0  0  0  0  0  0
   18.4958  -10.8625  -16.2887 C   0  0  1  0  0  0  0  0  0  0  0  0
   17.3955  -10.0260  -16.8318 C   0  0  0  0  0  0  0  0  0  0  0  0
   16.5703  -10.7592  -17.8516 C   0  0  0  0  0  0  0  0  0  0  0  0
   15.5140   -9.9573  -18.4624 C   0  0  0  0  0  0  0  0  0  0  0  0
   14.7749  -10.3450  -19.3871 O   0  0  0  0  0  0  0  0  0  0  0  0
   19.3910  -10.0230  -15.4176 C   0  0  0  0  0  0  0  0  0  0  0  0
   18.9607   -9.3787  -14.4278 O   0  0  0  0  0  0  0  0  0  0  0  0
   15.3305   -8.6580  -17.9606 O   0  0  0  0  0  0  0  0  0  0  0  0
   23.0830   -9.5775  -15.0028 C   0  0  0  0  0  0  0  0  0  0  0  0
   21.6473   -9.1165  -14.8609 C   0  0  2  0  0  0  0  0  0  0  0  0
   20.7831   -9.9275  -15.6894 N   0  0  0  0  0  0  0  0  0  0  0  0
   21.4845   -7.6700  -15.1448 C   0  0  0  0  0  0  0  0  0  0  0  0
   21.2217   -7.2225  -16.3093 O   0  0  0  0  0  0  0  0  0  0  0  0
   21.1943   -4.4860  -13.1317 C   0  0  0  0  0  0  0  0  0  0  0  0
   21.5127   -5.2739  -14.3825 C   0  0  2  0  0  0  0  0  0  0  0  0
   21.6126   -6.6876  -14.1274 N   0  0  0  0  0  0  0  0  0  0  0  0
   22.8148   -4.8032  -14.9114 C   0  0  0  0  0  0  0  0  0  0  0  0
   22.9086   -3.5821  -15.5598 O   0  0  0  0  0  0  0  0  0  0  0  0
   23.8780   -5.4686  -14.8037 O   0  0  0  0  0  0  0  0  0  0  0  0
  2  1  1  1
  3  2  1  0
  4  5  1  0
  4  3  1  0
  5  6  2  0
  7  2  1  0
  8  7  2  0
  9  5  1  0
 11 10  1  6
 11 13  1  0
 11 12  1  0
 12  7  1  0
 13 17  1  0
 14 13  2  0
 16 18  1  0
 16 15  1  1
 17 16  1  0
 18 20  2  0
 18 19  1  0
M  END
$$$$
