EAA.pdb
     RDKit          3D

 20 19  0  0  1  0  0  0  0  0999 V2000
   11.6494   -8.9033  -11.7749 N   0  0  0  0  0  0  0  0  0  0  0  0
   13.0992   -9.0070  -11.8033 C   0  0  1  0  0  0  0  0  0  0  0  0
   13.6455   -9.0733  -13.1826 C   0  0  0  0  0  0  0  0  0  0  0  0
   13.6334  -10.4707  -13.7354 C   0  0  0  0  0  0  0  0  0  0  0  0
   14.5830  -11.3794  -13.0993 C   0  0  0  0  0  0  0  0  0  0  0  0
   14.4100  -11.9242  -11.9926 O   0  0  0  0  0  0  0  0  0  0  0  0
   13.6247   -7.7810  -11.1062 C   0  0  0  0  0  0  0  0  0  0  0  0
   13.1357   -6.6374  -11.2886 O   0  0  0  0  0  0  0  0  0  0  0  0
   15.7719  -11.6484  -13.7976 O   0  0  0  0  0  0  0  0  0  0  0  0
   15.7021   -7.0586   -8.1391 C   0  0  0  0  0  0  0  0  0  0  0  0
   15.2306   -6.7000   -9.5329 C   0  0  2  0  0  0  0  0  0  0  0  0
   14.7146   -7.8755  -10.1984 N   0  0  0  0  0  0  0  0  0  0  0  0
   16.2838   -6.0305  -10.3342 C   0  0  0  0  0  0  0  0  0  0  0  0
   16.8695   -4.9657   -9.9484 O   0  0  0  0  0  0  0  0  0  0  0  0
   18.2425   -6.8672  -13.4741 C   0  0  0  0  0  0  0  0  0  0  0  0
   17.7910   -5.9672  -12.3459 C   0  0  2  0  0  0  0  0  0  0  0  0
   16.7070   -6.5396  -11.5904 N   0  0  0  0  0  0  0  0  0  0  0  0
   17.3267   -4.6861  -12.9287 C   0  0  0  0  0  0  0  0  0  0  0  0
   15.9747   -4.3854  -12.9747 O   0  0  0  0  0  0  0  0  0  0  0  0
   18.1133   -3.8243  -13.4012 O   0  0  0  0  0  0  0  0  0  0  0  0
  2  1  1  6
  3  2  1  0
  4  5  1  0
  4  3  1  0
  5  6  2  0
  7  2  1  0
  8  7  2  0
  9  5  1  0
 11 10  1  1
 11 13  1  0
 11 12  1  0
 12  7  1  0
 13 17  1  0
 14 13  2  0
 16 18  1  0
 16 15  1  6
 17 16  1  0
 18 20  2  0
 18 19  1  0
M  END
$$$$
