QWS.pdb
     RDKit          3D

 30 31  0  0  1  0  0  0  0  0999 V2000
   24.6541  -21.4404  -16.0657 N   0  0  0  0  0  0  0  0  0  0  0  0
   25.3038  -20.1846  -16.0475 C   0  0  0  0  0  0  0  0  0  0  0  0
   25.6149  -19.5801  -17.1294 O   0  0  0  0  0  0  0  0  0  0  0  0
   25.6193  -19.5792  -14.7263 C   0  0  0  0  0  0  0  0  0  0  0  0
   25.1880  -20.5284  -13.6478 C   0  0  0  0  0  0  0  0  0  0  0  0
   26.3426  -20.8590  -12.7182 C   0  0  2  0  0  0  0  0  0  0  0  0
   27.0491  -21.9850  -13.2988 N   0  0  0  0  0  0  0  0  0  0  0  0
   25.7379  -21.2138  -11.3971 C   0  0  0  0  0  0  0  0  0  0  0  0
   25.4539  -22.4436  -11.2543 O   0  0  0  0  0  0  0  0  0  0  0  0
   25.4862  -20.2969  -10.3697 N   0  0  0  0  0  0  0  0  0  0  0  0
   24.9444  -20.7196   -9.0600 C   0  0  1  0  0  0  0  0  0  0  0  0
   25.4800  -19.8575   -7.9793 C   0  0  0  0  0  0  0  0  0  0  0  0
   26.9003  -19.9879   -7.6408 C   0  0  0  0  0  0  0  0  0  0  0  0
   27.8803  -20.4526   -8.5245 C   0  0  0  0  0  0  0  0  0  0  0  0
   29.0745  -20.4764   -7.8885 N   0  0  0  0  0  0  0  0  0  0  0  0
   28.9251  -20.0495   -6.6318 C   0  0  0  0  0  0  0  0  0  0  0  0
   29.8146  -19.8766   -5.6025 C   0  0  0  0  0  0  0  0  0  0  0  0
   29.3867  -19.3872   -4.3647 C   0  0  0  0  0  0  0  0  0  0  0  0
   28.0533  -19.0794   -4.1922 C   0  0  0  0  0  0  0  0  0  0  0  0
   27.1779  -19.2620   -5.2409 C   0  0  0  0  0  0  0  0  0  0  0  0
   27.5896  -19.7466   -6.4712 C   0  0  0  0  0  0  0  0  0  0  0  0
   23.5152  -20.8973   -9.1379 C   0  0  0  0  0  0  0  0  0  0  0  0
   22.8452  -20.4069  -10.0722 O   0  0  0  0  0  0  0  0  0  0  0  0
   21.6381  -23.7911   -6.9107 O   0  0  0  0  0  0  0  0  0  0  0  0
   20.9335  -22.6000   -7.0343 C   0  0  0  0  0  0  0  0  0  0  0  0
   21.4013  -21.8423   -8.2839 C   0  0  2  0  0  0  0  0  0  0  0  0
   22.8296  -21.6398   -8.1463 N   0  0  0  0  0  0  0  0  0  0  0  0
   20.6812  -20.5602   -8.4295 C   0  0  0  0  0  0  0  0  0  0  0  0
   21.2522  -19.4464   -8.3697 O   0  0  0  0  0  0  0  0  0  0  0  0
   19.3201  -20.5790   -8.6408 O   0  0  0  0  0  0  0  0  0  0  0  0
  2  4  1  0
  2  1  1  0
  3  2  2  0
  5  4  1  0
  6  5  1  0
  6  7  1  6
  8  9  2  0
  8  6  1  0
 10  8  1  0
 11 10  1  0
 11 12  1  1
 13 12  1  0
 13 21  1  0
 14 13  2  0
 15 14  1  0
 15 16  1  0
 16 17  1  0
 16 21  2  0
 17 18  2  0
 18 19  1  0
 20 19  2  0
 21 20  1  0
 22 23  2  0
 22 11  1  0
 24 25  1  0
 26 25  1  1
 26 27  1  0
 27 22  1  0
 28 26  1  0
 29 28  2  0
 30 28  1  0
M  END
$$$$
