QWS.pdb
     RDKit          3D

 30 31  0  0  1  0  0  0  0  0999 V2000
   28.2455  -23.2254  -16.4585 N   0  0  0  0  0  0  0  0  0  0  0  0
   28.7643  -22.0068  -16.9537 C   0  0  0  0  0  0  0  0  0  0  0  0
   29.4494  -21.9638  -18.0314 O   0  0  0  0  0  0  0  0  0  0  0  0
   28.4907  -20.7650  -16.1823 C   0  0  0  0  0  0  0  0  0  0  0  0
   27.6425  -21.1142  -14.9954 C   0  0  0  0  0  0  0  0  0  0  0  0
   28.3509  -20.7670  -13.6976 C   0  0  2  0  0  0  0  0  0  0  0  0
   29.4979  -21.6483  -13.5885 N   0  0  0  0  0  0  0  0  0  0  0  0
   27.3673  -21.0092  -12.5972 C   0  0  0  0  0  0  0  0  0  0  0  0
   26.6126  -22.0162  -12.7695 O   0  0  0  0  0  0  0  0  0  0  0  0
   27.2513  -20.2153  -11.4501 N   0  0  0  0  0  0  0  0  0  0  0  0
   26.1680  -20.4199  -10.4641 C   0  0  1  0  0  0  0  0  0  0  0  0
   26.4650  -19.6816   -9.2131 C   0  0  0  0  0  0  0  0  0  0  0  0
   27.5465  -20.1856   -8.3617 C   0  0  0  0  0  0  0  0  0  0  0  0
   28.5990  -20.9865   -8.8180 C   0  0  0  0  0  0  0  0  0  0  0  0
   29.4026  -21.2983   -7.7748 N   0  0  0  0  0  0  0  0  0  0  0  0
   28.9287  -20.7403   -6.6577 C   0  0  0  0  0  0  0  0  0  0  0  0
   29.3764  -20.7430   -5.3615 C   0  0  0  0  0  0  0  0  0  0  0  0
   28.6839  -20.0468   -4.3663 C   0  0  0  0  0  0  0  0  0  0  0  0
   27.5404  -19.3548   -4.7069 C   0  0  0  0  0  0  0  0  0  0  0  0
   27.1094  -19.3671   -6.0159 C   0  0  0  0  0  0  0  0  0  0  0  0
   27.7864  -20.0533   -7.0102 C   0  0  0  0  0  0  0  0  0  0  0  0
   24.8795  -20.2173  -11.0795 C   0  0  0  0  0  0  0  0  0  0  0  0
   24.6197  -19.1798  -11.7264 O   0  0  0  0  0  0  0  0  0  0  0  0
   21.1918  -22.3722  -12.9216 O   0  0  0  0  0  0  0  0  0  0  0  0
   22.4817  -21.8697  -12.8042 C   0  0  0  0  0  0  0  0  0  0  0  0
   22.5771  -20.9536  -11.5769 C   0  0  2  0  0  0  0  0  0  0  0  0
   23.8668  -21.1999  -10.9639 N   0  0  0  0  0  0  0  0  0  0  0  0
   21.4683  -21.2097  -10.6343 C   0  0  0  0  0  0  0  0  0  0  0  0
   20.2666  -21.0012  -10.9218 O   0  0  0  0  0  0  0  0  0  0  0  0
   21.7580  -21.6999   -9.3799 O   0  0  0  0  0  0  0  0  0  0  0  0
  2  4  1  0
  2  1  1  0
  3  2  2  0
  5  4  1  0
  6  5  1  0
  6  7  1  1
  8  9  2  0
  8  6  1  0
 10  8  1  0
 11 10  1  0
 11 12  1  1
 13 12  1  0
 13 21  1  0
 14 13  2  0
 15 14  1  0
 15 16  1  0
 16 17  1  0
 16 21  2  0
 17 18  2  0
 18 19  1  0
 20 19  2  0
 21 20  1  0
 22 23  2  0
 22 11  1  0
 24 25  1  0
 26 25  1  6
 26 27  1  0
 27 22  1  0
 28 26  1  0
 29 28  2  0
 30 28  1  0
M  END
$$$$
