QWS.pdb
     RDKit          3D

 30 31  0  0  1  0  0  0  0  0999 V2000
   28.4864  -19.1948  -16.9724 N   0  0  0  0  0  0  0  0  0  0  0  0
   28.5580  -20.1336  -18.0272 C   0  0  0  0  0  0  0  0  0  0  0  0
   29.4004  -20.0029  -18.9790 O   0  0  0  0  0  0  0  0  0  0  0  0
   27.6201  -21.2876  -18.0016 C   0  0  0  0  0  0  0  0  0  0  0  0
   26.8226  -21.2300  -16.7325 C   0  0  0  0  0  0  0  0  0  0  0  0
   27.6310  -21.7489  -15.5562 C   0  0  2  0  0  0  0  0  0  0  0  0
   28.1077  -23.0709  -15.9158 N   0  0  0  0  0  0  0  0  0  0  0  0
   26.6981  -21.8018  -14.3882 C   0  0  0  0  0  0  0  0  0  0  0  0
   26.0320  -22.8785  -14.2870 O   0  0  0  0  0  0  0  0  0  0  0  0
   26.5386  -20.7706  -13.4551 N   0  0  0  0  0  0  0  0  0  0  0  0
   25.5491  -20.8545  -12.3590 C   0  0  1  0  0  0  0  0  0  0  0  0
   26.0103  -20.0700  -11.1885 C   0  0  0  0  0  0  0  0  0  0  0  0
   27.1690  -20.5706  -10.4431 C   0  0  0  0  0  0  0  0  0  0  0  0
   28.2442  -21.2513  -11.0243 C   0  0  0  0  0  0  0  0  0  0  0  0
   29.1242  -21.5976  -10.0564 N   0  0  0  0  0  0  0  0  0  0  0  0
   28.6787  -21.1765   -8.8698 C   0  0  0  0  0  0  0  0  0  0  0  0
   29.1981  -21.2634   -7.6037 C   0  0  0  0  0  0  0  0  0  0  0  0
   28.5188  -20.7096   -6.5145 C   0  0  0  0  0  0  0  0  0  0  0  0
   27.3149  -20.0722   -6.7313 C   0  0  0  0  0  0  0  0  0  0  0  0
   26.8123  -19.9979   -8.0124 C   0  0  0  0  0  0  0  0  0  0  0  0
   27.4756  -20.5431   -9.0990 C   0  0  0  0  0  0  0  0  0  0  0  0
   24.2191  -20.6058  -12.8585 C   0  0  0  0  0  0  0  0  0  0  0  0
   23.9568  -19.5943  -13.5444 O   0  0  0  0  0  0  0  0  0  0  0  0
   21.7270  -23.0428  -14.5420 O   0  0  0  0  0  0  0  0  0  0  0  0
   21.1464  -22.5142  -13.3958 C   0  0  0  0  0  0  0  0  0  0  0  0
   21.8271  -21.1892  -13.0275 C   0  0  2  0  0  0  0  0  0  0  0  0
   23.1672  -21.5116  -12.5803 N   0  0  0  0  0  0  0  0  0  0  0  0
   21.0638  -20.4703  -11.9862 C   0  0  0  0  0  0  0  0  0  0  0  0
   21.5346  -20.2062  -10.8554 O   0  0  0  0  0  0  0  0  0  0  0  0
   19.7754  -20.0677  -12.2609 O   0  0  0  0  0  0  0  0  0  0  0  0
  2  4  1  0
  2  1  1  0
  3  2  2  0
  5  4  1  0
  6  5  1  0
  6  7  1  6
  8  9  2  0
  8  6  1  0
 10  8  1  0
 11 10  1  0
 11 12  1  1
 13 12  1  0
 13 21  1  0
 14 13  2  0
 15 14  1  0
 15 16  1  0
 16 17  1  0
 16 21  2  0
 17 18  2  0
 18 19  1  0
 20 19  2  0
 21 20  1  0
 22 23  2  0
 22 11  1  0
 24 25  1  0
 26 25  1  1
 26 27  1  0
 27 22  1  0
 28 26  1  0
 29 28  2  0
 30 28  1  0
M  END
$$$$
