QWS.pdb
     RDKit          3D

 30 31  0  0  1  0  0  0  0  0999 V2000
   26.5966  -16.4634  -15.1668 N   0  0  0  0  0  0  0  0  0  0  0  0
   27.7014  -16.8673  -15.9514 C   0  0  0  0  0  0  0  0  0  0  0  0
   28.2147  -16.0919  -16.8277 O   0  0  0  0  0  0  0  0  0  0  0  0
   28.2563  -18.2292  -15.7298 C   0  0  0  0  0  0  0  0  0  0  0  0
   27.5696  -18.8404  -14.5445 C   0  0  0  0  0  0  0  0  0  0  0  0
   28.0734  -20.2503  -14.2894 C   0  0  2  0  0  0  0  0  0  0  0  0
   27.7384  -21.0413  -15.4582 N   0  0  0  0  0  0  0  0  0  0  0  0
   27.3600  -20.7438  -13.0709 C   0  0  0  0  0  0  0  0  0  0  0  0
   26.2310  -21.2806  -13.2956 O   0  0  0  0  0  0  0  0  0  0  0  0
   27.8582  -20.6433  -11.7666 N   0  0  0  0  0  0  0  0  0  0  0  0
   27.0127  -20.9147  -10.5838 C   0  0  1  0  0  0  0  0  0  0  0  0
   27.8212  -20.8317   -9.3437 C   0  0  0  0  0  0  0  0  0  0  0  0
   27.1079  -20.7859   -8.0639 C   0  0  0  0  0  0  0  0  0  0  0  0
   25.7645  -21.1400   -7.8987 C   0  0  0  0  0  0  0  0  0  0  0  0
   25.4139  -20.9554   -6.6048 N   0  0  0  0  0  0  0  0  0  0  0  0
   26.4617  -20.4984   -5.9142 C   0  0  0  0  0  0  0  0  0  0  0  0
   26.6264  -20.1725   -4.5923 C   0  0  0  0  0  0  0  0  0  0  0  0
   27.8624  -19.7245   -4.1168 C   0  0  0  0  0  0  0  0  0  0  0  0
   28.9178  -19.6145   -4.9980 C   0  0  0  0  0  0  0  0  0  0  0  0
   28.7283  -19.9471   -6.3220 C   0  0  0  0  0  0  0  0  0  0  0  0
   27.5087  -20.3914   -6.8049 C   0  0  0  0  0  0  0  0  0  0  0  0
   25.7924  -20.1487  -10.6482 C   0  0  0  0  0  0  0  0  0  0  0  0
   25.7914  -18.9070  -10.5056 O   0  0  0  0  0  0  0  0  0  0  0  0
   22.9541  -21.2735  -12.9977 O   0  0  0  0  0  0  0  0  0  0  0  0
   22.9993  -19.9731  -12.5109 C   0  0  0  0  0  0  0  0  0  0  0  0
   23.3580  -19.9846  -11.0190 C   0  0  2  0  0  0  0  0  0  0  0  0
   24.5524  -20.7927  -10.8770 N   0  0  0  0  0  0  0  0  0  0  0  0
   22.2425  -20.5145  -10.2076 C   0  0  0  0  0  0  0  0  0  0  0  0
   22.3547  -21.5191   -9.4670 O   0  0  0  0  0  0  0  0  0  0  0  0
   21.0194  -19.8829  -10.2604 O   0  0  0  0  0  0  0  0  0  0  0  0
  2  4  1  0
  2  1  1  0
  3  2  2  0
  5  4  1  0
  6  5  1  0
  6  7  1  6
  8  9  2  0
  8  6  1  0
 10  8  1  0
 11 10  1  0
 11 12  1  1
 13 12  1  0
 13 21  1  0
 14 13  2  0
 15 14  1  0
 15 16  1  0
 16 17  1  0
 16 21  2  0
 17 18  2  0
 18 19  1  0
 20 19  2  0
 21 20  1  0
 22 23  2  0
 22 11  1  0
 24 25  1  0
 26 25  1  6
 26 27  1  0
 27 22  1  0
 28 26  1  0
 29 28  2  0
 30 28  1  0
M  END
$$$$
