QWS.pdb
     RDKit          3D

 30 31  0  0  1  0  0  0  0  0999 V2000
   34.3610  -29.3684  -22.8780 N   0  0  0  0  0  0  0  0  0  0  0  0
   34.0277  -28.0151  -23.1169 C   0  0  0  0  0  0  0  0  0  0  0  0
   34.3065  -27.4467  -24.2267 O   0  0  0  0  0  0  0  0  0  0  0  0
   33.3385  -27.2628  -22.0348 C   0  0  0  0  0  0  0  0  0  0  0  0
   33.0800  -28.1970  -20.8900 C   0  0  0  0  0  0  0  0  0  0  0  0
   32.1931  -27.5452  -19.8435 C   0  0  2  0  0  0  0  0  0  0  0  0
   32.9864  -26.5222  -19.1890 N   0  0  0  0  0  0  0  0  0  0  0  0
   31.7963  -28.6256  -18.8883 C   0  0  0  0  0  0  0  0  0  0  0  0
   32.7658  -29.2721  -18.3829 O   0  0  0  0  0  0  0  0  0  0  0  0
   30.4742  -28.9355  -18.5484 N   0  0  0  0  0  0  0  0  0  0  0  0
   30.1397  -30.0816  -17.6754 C   0  0  1  0  0  0  0  0  0  0  0  0
   28.7529  -29.9533  -17.1670 C   0  0  0  0  0  0  0  0  0  0  0  0
   28.2891  -30.9408  -16.1880 C   0  0  0  0  0  0  0  0  0  0  0  0
   29.1125  -31.5517  -15.2360 C   0  0  0  0  0  0  0  0  0  0  0  0
   28.3782  -32.4289  -14.5132 N   0  0  0  0  0  0  0  0  0  0  0  0
   27.1141  -32.4222  -14.9444 C   0  0  0  0  0  0  0  0  0  0  0  0
   25.9966  -33.1074  -14.5417 C   0  0  0  0  0  0  0  0  0  0  0  0
   24.7648  -32.8938  -15.1676 C   0  0  0  0  0  0  0  0  0  0  0  0
   24.6885  -31.9815  -16.1993 C   0  0  0  0  0  0  0  0  0  0  0  0
   25.8251  -31.3053  -16.5871 C   0  0  0  0  0  0  0  0  0  0  0  0
   27.0507  -31.5087  -15.9752 C   0  0  0  0  0  0  0  0  0  0  0  0
   30.5175  -31.3233  -18.3043 C   0  0  0  0  0  0  0  0  0  0  0  0
   30.2618  -31.5518  -19.5063 O   0  0  0  0  0  0  0  0  0  0  0  0
   32.3159  -34.3990  -16.1212 O   0  0  0  0  0  0  0  0  0  0  0  0
   32.7304  -34.1613  -17.4258 C   0  0  0  0  0  0  0  0  0  0  0  0
   31.5806  -33.5495  -18.2372 C   0  0  2  0  0  0  0  0  0  0  0  0
   31.1943  -32.3243  -17.5666 N   0  0  0  0  0  0  0  0  0  0  0  0
   30.4469  -34.4909  -18.3469 C   0  0  0  0  0  0  0  0  0  0  0  0
   29.2962  -34.2246  -17.9284 O   0  0  0  0  0  0  0  0  0  0  0  0
   30.6537  -35.7196  -18.9343 O   0  0  0  0  0  0  0  0  0  0  0  0
  2  4  1  0
  2  1  1  0
  3  2  2  0
  5  4  1  0
  6  5  1  0
  6  7  1  1
  8  9  2  0
  8  6  1  0
 10  8  1  0
 11 10  1  0
 11 12  1  6
 13 12  1  0
 13 21  1  0
 14 13  2  0
 15 14  1  0
 15 16  1  0
 16 17  1  0
 16 21  2  0
 17 18  2  0
 18 19  1  0
 20 19  2  0
 21 20  1  0
 22 23  2  0
 22 11  1  0
 24 25  1  0
 26 25  1  1
 26 27  1  0
 27 22  1  0
 28 26  1  0
 29 28  2  0
 30 28  1  0
M  END
$$$$
