QWS.pdb
     RDKit          3D

 30 31  0  0  1  0  0  0  0  0999 V2000
   27.4929  -20.9319  -17.6127 N   0  0  0  0  0  0  0  0  0  0  0  0
   28.7869  -21.4840  -17.4711 C   0  0  0  0  0  0  0  0  0  0  0  0
   29.6616  -21.3765  -18.3962 O   0  0  0  0  0  0  0  0  0  0  0  0
   29.1077  -22.1996  -16.2074 C   0  0  0  0  0  0  0  0  0  0  0  0
   27.8671  -22.2699  -15.3672 C   0  0  0  0  0  0  0  0  0  0  0  0
   27.5025  -20.9021  -14.8170 C   0  0  2  0  0  0  0  0  0  0  0  0
   28.7372  -20.1521  -14.6852 N   0  0  0  0  0  0  0  0  0  0  0  0
   26.8586  -21.1354  -13.4873 C   0  0  0  0  0  0  0  0  0  0  0  0
   25.7677  -21.7846  -13.5304 O   0  0  0  0  0  0  0  0  0  0  0  0
   27.3802  -20.6919  -12.2663 N   0  0  0  0  0  0  0  0  0  0  0  0
   26.6274  -20.8249  -11.0002 C   0  0  1  0  0  0  0  0  0  0  0  0
   27.4806  -20.4373   -9.8513 C   0  0  0  0  0  0  0  0  0  0  0  0
   26.8956  -20.5106   -8.5093 C   0  0  0  0  0  0  0  0  0  0  0  0
   25.5865  -20.9265   -8.2433 C   0  0  0  0  0  0  0  0  0  0  0  0
   25.3592  -20.8487   -6.9116 N   0  0  0  0  0  0  0  0  0  0  0  0
   26.4553  -20.4029   -6.2920 C   0  0  0  0  0  0  0  0  0  0  0  0
   26.7389  -20.1665   -4.9713 C   0  0  0  0  0  0  0  0  0  0  0  0
   28.0012  -19.7071   -4.5840 C   0  0  0  0  0  0  0  0  0  0  0  0
   28.9609  -19.4940   -5.5515 C   0  0  0  0  0  0  0  0  0  0  0  0
   28.6526  -19.7378   -6.8725 C   0  0  0  0  0  0  0  0  0  0  0  0
   27.4058  -20.1924   -7.2684 C   0  0  0  0  0  0  0  0  0  0  0  0
   25.3290  -20.2079  -11.1170 C   0  0  0  0  0  0  0  0  0  0  0  0
   25.1999  -18.9679  -11.2062 O   0  0  0  0  0  0  0  0  0  0  0  0
   22.2633  -22.2945  -12.6121 O   0  0  0  0  0  0  0  0  0  0  0  0
   22.3079  -20.9067  -12.6587 C   0  0  0  0  0  0  0  0  0  0  0  0
   22.8760  -20.3566  -11.3437 C   0  0  2  0  0  0  0  0  0  0  0  0
   24.1565  -21.0014  -11.1332 N   0  0  0  0  0  0  0  0  0  0  0  0
   21.9501  -20.6046  -10.2191 C   0  0  0  0  0  0  0  0  0  0  0  0
   22.2537  -21.3090   -9.2281 O   0  0  0  0  0  0  0  0  0  0  0  0
   20.6938  -20.0405  -10.2515 O   0  0  0  0  0  0  0  0  0  0  0  0
  2  4  1  0
  2  1  1  0
  3  2  2  0
  5  4  1  0
  6  5  1  0
  6  7  1  1
  8  9  2  0
  8  6  1  0
 10  8  1  0
 11 10  1  0
 11 12  1  1
 13 12  1  0
 13 21  1  0
 14 13  2  0
 15 14  1  0
 15 16  1  0
 16 17  1  0
 16 21  2  0
 17 18  2  0
 18 19  1  0
 20 19  2  0
 21 20  1  0
 22 23  2  0
 22 11  1  0
 24 25  1  0
 26 25  1  6
 26 27  1  0
 27 22  1  0
 28 26  1  0
 29 28  2  0
 30 28  1  0
M  END
$$$$
