QWS.pdb
     RDKit          3D

 30 31  0  0  1  0  0  0  0  0999 V2000
   23.7596  -36.4470  -10.2114 N   0  0  0  0  0  0  0  0  0  0  0  0
   23.3360  -36.8134  -11.5097 C   0  0  0  0  0  0  0  0  0  0  0  0
   22.0993  -36.9790  -11.7847 O   0  0  0  0  0  0  0  0  0  0  0  0
   24.3748  -37.0032  -12.5570 C   0  0  0  0  0  0  0  0  0  0  0  0
   25.7136  -36.6621  -11.9727 C   0  0  0  0  0  0  0  0  0  0  0  0
   26.0332  -35.1898  -12.1639 C   0  0  2  0  0  0  0  0  0  0  0  0
   26.9403  -35.0928  -13.2917 N   0  0  0  0  0  0  0  0  0  0  0  0
   26.6812  -34.7264  -10.8981 C   0  0  0  0  0  0  0  0  0  0  0  0
   27.9000  -34.3890  -11.0163 O   0  0  0  0  0  0  0  0  0  0  0  0
   26.0351  -34.6540   -9.6583 N   0  0  0  0  0  0  0  0  0  0  0  0
   26.7056  -34.1085   -8.4581 C   0  0  1  0  0  0  0  0  0  0  0  0
   25.9242  -32.9782   -7.9016 C   0  0  0  0  0  0  0  0  0  0  0  0
   24.5653  -33.2544   -7.4261 C   0  0  0  0  0  0  0  0  0  0  0  0
   23.6597  -34.0979   -8.0786 C   0  0  0  0  0  0  0  0  0  0  0  0
   22.4925  -34.1087   -7.3938 N   0  0  0  0  0  0  0  0  0  0  0  0
   22.5893  -33.3143   -6.3245 C   0  0  0  0  0  0  0  0  0  0  0  0
   21.7060  -32.9999   -5.3237 C   0  0  0  0  0  0  0  0  0  0  0  0
   22.0774  -32.1344   -4.2905 C   0  0  0  0  0  0  0  0  0  0  0  0
   23.3486  -31.5991   -4.2913 C   0  0  0  0  0  0  0  0  0  0  0  0
   24.2188  -31.9290   -5.3079 C   0  0  0  0  0  0  0  0  0  0  0  0
   23.8623  -32.7846   -6.3369 C   0  0  0  0  0  0  0  0  0  0  0  0
   27.0854  -35.1739   -7.5632 C   0  0  0  0  0  0  0  0  0  0  0  0
   26.4444  -36.2457   -7.5133 O   0  0  0  0  0  0  0  0  0  0  0  0
   29.8713  -34.5727   -4.5416 O   0  0  0  0  0  0  0  0  0  0  0  0
   29.9256  -35.7848   -5.2184 C   0  0  0  0  0  0  0  0  0  0  0  0
   28.5502  -36.1142   -5.8136 C   0  0  2  0  0  0  0  0  0  0  0  0
   28.2060  -35.0289   -6.7101 N   0  0  0  0  0  0  0  0  0  0  0  0
   27.5375  -36.2848   -4.7511 C   0  0  0  0  0  0  0  0  0  0  0  0
   27.5970  -37.1950   -3.8919 O   0  0  0  0  0  0  0  0  0  0  0  0
   26.4758  -35.4089   -4.6936 O   0  0  0  0  0  0  0  0  0  0  0  0
  2  4  1  0
  2  1  1  0
  3  2  2  0
  5  4  1  0
  6  5  1  0
  6  7  1  6
  8  9  2  0
  8  6  1  0
 10  8  1  0
 11 10  1  0
 11 12  1  1
 13 12  1  0
 13 21  1  0
 14 13  2  0
 15 14  1  0
 15 16  1  0
 16 17  1  0
 16 21  2  0
 17 18  2  0
 18 19  1  0
 20 19  2  0
 21 20  1  0
 22 23  2  0
 22 11  1  0
 24 25  1  0
 26 25  1  1
 26 27  1  0
 27 22  1  0
 28 26  1  0
 29 28  2  0
 30 28  1  0
M  END
$$$$
