QWS.pdb
     RDKit          3D

 30 31  0  0  1  0  0  0  0  0999 V2000
   27.2267  -17.1553  -14.7256 N   0  0  0  0  0  0  0  0  0  0  0  0
   27.9028  -17.4945  -15.9203 C   0  0  0  0  0  0  0  0  0  0  0  0
   28.6560  -16.6549  -16.5205 O   0  0  0  0  0  0  0  0  0  0  0  0
   27.7139  -18.8650  -16.4662 C   0  0  0  0  0  0  0  0  0  0  0  0
   26.9099  -19.6659  -15.4852 C   0  0  0  0  0  0  0  0  0  0  0  0
   27.8044  -20.2939  -14.4307 C   0  0  2  0  0  0  0  0  0  0  0  0
   28.5901  -21.3181  -15.0923 N   0  0  0  0  0  0  0  0  0  0  0  0
   26.8969  -20.8816  -13.3972 C   0  0  0  0  0  0  0  0  0  0  0  0
   26.4193  -22.0206  -13.6936 O   0  0  0  0  0  0  0  0  0  0  0  0
   26.5710  -20.2619  -12.1850 N   0  0  0  0  0  0  0  0  0  0  0  0
   25.5384  -20.8106  -11.2794 C   0  0  1  0  0  0  0  0  0  0  0  0
   25.8010  -20.3866   -9.8831 C   0  0  0  0  0  0  0  0  0  0  0  0
   27.1105  -20.7050   -9.3064 C   0  0  0  0  0  0  0  0  0  0  0  0
   28.0601  -21.5304   -9.9182 C   0  0  0  0  0  0  0  0  0  0  0  0
   29.1397  -21.6382   -9.1095 N   0  0  0  0  0  0  0  0  0  0  0  0
   28.9443  -20.9235   -7.9983 C   0  0  0  0  0  0  0  0  0  0  0  0
   29.7266  -20.6984   -6.8946 C   0  0  0  0  0  0  0  0  0  0  0  0
   29.2771  -19.8753   -5.8577 C   0  0  0  0  0  0  0  0  0  0  0  0
   28.0321  -19.2906   -5.9601 C   0  0  0  0  0  0  0  0  0  0  0  0
   27.2636  -19.5318   -7.0784 C   0  0  0  0  0  0  0  0  0  0  0  0
   27.6976  -20.3456   -8.1116 C   0  0  0  0  0  0  0  0  0  0  0  0
   24.2203  -20.5831  -11.8189 C   0  0  0  0  0  0  0  0  0  0  0  0
   23.8552  -19.4489  -12.1966 O   0  0  0  0  0  0  0  0  0  0  0  0
   22.6120  -22.7940  -14.3852 O   0  0  0  0  0  0  0  0  0  0  0  0
   21.6587  -22.6263  -13.3885 C   0  0  0  0  0  0  0  0  0  0  0  0
   22.0040  -21.3988  -12.5350 C   0  0  2  0  0  0  0  0  0  0  0  0
   23.2983  -21.6512  -11.9344 N   0  0  0  0  0  0  0  0  0  0  0  0
   20.9670  -21.1538  -11.5112 C   0  0  0  0  0  0  0  0  0  0  0  0
   21.2024  -21.1851  -10.2808 O   0  0  0  0  0  0  0  0  0  0  0  0
   19.6799  -20.8777  -11.9170 O   0  0  0  0  0  0  0  0  0  0  0  0
  2  4  1  0
  2  1  1  0
  3  2  2  0
  5  4  1  0
  6  5  1  0
  6  7  1  6
  8  9  2  0
  8  6  1  0
 10  8  1  0
 11 10  1  0
 11 12  1  1
 13 12  1  0
 13 21  1  0
 14 13  2  0
 15 14  1  0
 15 16  1  0
 16 17  1  0
 16 21  2  0
 17 18  2  0
 18 19  1  0
 20 19  2  0
 21 20  1  0
 22 23  2  0
 22 11  1  0
 24 25  1  0
 26 25  1  1
 26 27  1  0
 27 22  1  0
 28 26  1  0
 29 28  2  0
 30 28  1  0
M  END
$$$$
