QWS.pdb
     RDKit          3D

 30 31  0  0  1  0  0  0  0  0999 V2000
   26.0326  -17.2541  -14.6786 N   0  0  0  0  0  0  0  0  0  0  0  0
   26.4796  -16.8726  -15.9646 C   0  0  0  0  0  0  0  0  0  0  0  0
   25.8348  -16.0236  -16.6690 O   0  0  0  0  0  0  0  0  0  0  0  0
   27.7301  -17.4893  -16.4821 C   0  0  0  0  0  0  0  0  0  0  0  0
   28.2630  -18.4352  -15.4471 C   0  0  0  0  0  0  0  0  0  0  0  0
   28.1055  -19.8781  -15.8941 C   0  0  2  0  0  0  0  0  0  0  0  0
   27.8446  -19.8569  -17.3209 N   0  0  0  0  0  0  0  0  0  0  0  0
   26.9448  -20.4358  -15.1332 C   0  0  0  0  0  0  0  0  0  0  0  0
   25.9397  -20.7447  -15.8457 O   0  0  0  0  0  0  0  0  0  0  0  0
   26.9228  -20.6202  -13.7457 N   0  0  0  0  0  0  0  0  0  0  0  0
   25.7957  -21.2932  -13.0644 C   0  0  1  0  0  0  0  0  0  0  0  0
   26.1908  -21.6979  -11.6939 C   0  0  0  0  0  0  0  0  0  0  0  0
   26.3354  -20.6448  -10.6845 C   0  0  0  0  0  0  0  0  0  0  0  0
   26.7693  -19.3439  -10.9613 C   0  0  0  0  0  0  0  0  0  0  0  0
   26.8177  -18.6385   -9.8075 N   0  0  0  0  0  0  0  0  0  0  0  0
   26.4360  -19.4131   -8.7886 C   0  0  0  0  0  0  0  0  0  0  0  0
   26.3015  -19.1732   -7.4451 C   0  0  0  0  0  0  0  0  0  0  0  0
   25.8562  -20.1791   -6.5822 C   0  0  0  0  0  0  0  0  0  0  0  0
   25.5529  -21.4201   -7.1020 C   0  0  0  0  0  0  0  0  0  0  0  0
   25.6965  -21.6379   -8.4553 C   0  0  0  0  0  0  0  0  0  0  0  0
   26.1372  -20.6498   -9.3200 C   0  0  0  0  0  0  0  0  0  0  0  0
   24.5821  -20.5298  -13.2208 C   0  0  0  0  0  0  0  0  0  0  0  0
   24.5823  -19.2814  -13.1589 O   0  0  0  0  0  0  0  0  0  0  0  0
   21.4335  -21.9615  -15.1647 O   0  0  0  0  0  0  0  0  0  0  0  0
   21.5101  -20.6040  -14.8791 C   0  0  0  0  0  0  0  0  0  0  0  0
   22.1328  -20.3951  -13.4924 C   0  0  2  0  0  0  0  0  0  0  0  0
   23.3476  -21.1839  -13.4505 N   0  0  0  0  0  0  0  0  0  0  0  0
   21.1922  -20.7867  -12.4221 C   0  0  0  0  0  0  0  0  0  0  0  0
   21.3658  -21.7931  -11.6959 O   0  0  0  0  0  0  0  0  0  0  0  0
   20.0703  -20.0175  -12.2046 O   0  0  0  0  0  0  0  0  0  0  0  0
  2  4  1  0
  2  1  1  0
  3  2  2  0
  5  4  1  0
  6  5  1  0
  6  7  1  6
  8  9  2  0
  8  6  1  0
 10  8  1  0
 11 10  1  0
 11 12  1  1
 13 12  1  0
 13 21  1  0
 14 13  2  0
 15 14  1  0
 15 16  1  0
 16 17  1  0
 16 21  2  0
 17 18  2  0
 18 19  1  0
 20 19  2  0
 21 20  1  0
 22 23  2  0
 22 11  1  0
 24 25  1  0
 26 25  1  6
 26 27  1  0
 27 22  1  0
 28 26  1  0
 29 28  2  0
 30 28  1  0
M  END
$$$$
