QWS.pdb
     RDKit          3D

 30 31  0  0  1  0  0  0  0  0999 V2000
   27.7131  -21.7063  -17.5056 N   0  0  0  0  0  0  0  0  0  0  0  0
   29.0304  -21.3699  -17.1170 C   0  0  0  0  0  0  0  0  0  0  0  0
   29.9152  -21.0408  -17.9780 O   0  0  0  0  0  0  0  0  0  0  0  0
   29.3638  -21.4088  -15.6681 C   0  0  0  0  0  0  0  0  0  0  0  0
   28.1819  -21.9475  -14.9177 C   0  0  0  0  0  0  0  0  0  0  0  0
   27.0721  -20.9143  -14.8336 C   0  0  2  0  0  0  0  0  0  0  0  0
   27.7048  -19.6224  -14.6466 N   0  0  0  0  0  0  0  0  0  0  0  0
   26.2305  -21.2879  -13.6549 C   0  0  0  0  0  0  0  0  0  0  0  0
   25.7976  -22.4819  -13.6666 O   0  0  0  0  0  0  0  0  0  0  0  0
   25.9181  -20.4233  -12.5992 N   0  0  0  0  0  0  0  0  0  0  0  0
   24.9389  -20.7890  -11.5529 C   0  0  1  0  0  0  0  0  0  0  0  0
   25.3528  -20.2306  -10.2433 C   0  0  0  0  0  0  0  0  0  0  0  0
   26.6679  -20.6138   -9.7211 C   0  0  0  0  0  0  0  0  0  0  0  0
   27.5544  -21.4749  -10.3768 C   0  0  0  0  0  0  0  0  0  0  0  0
   28.6586  -21.6397   -9.6120 N   0  0  0  0  0  0  0  0  0  0  0  0
   28.5393  -20.9283   -8.4880 C   0  0  0  0  0  0  0  0  0  0  0  0
   29.3733  -20.7501   -7.4141 C   0  0  0  0  0  0  0  0  0  0  0  0
   29.0025  -19.9182   -6.3534 C   0  0  0  0  0  0  0  0  0  0  0  0
   27.7824  -19.2768   -6.4018 C   0  0  0  0  0  0  0  0  0  0  0  0
   26.9608  -19.4716   -7.4910 C   0  0  0  0  0  0  0  0  0  0  0  0
   27.3167  -20.2935   -8.5473 C   0  0  0  0  0  0  0  0  0  0  0  0
   23.5945  -20.5278  -12.0051 C   0  0  0  0  0  0  0  0  0  0  0  0
   23.1426  -19.3645  -12.0750 O   0  0  0  0  0  0  0  0  0  0  0  0
   21.0163  -23.6363  -13.1772 O   0  0  0  0  0  0  0  0  0  0  0  0
   21.0580  -22.4326  -13.8698 C   0  0  0  0  0  0  0  0  0  0  0  0
   21.4310  -21.2914  -12.9143 C   0  0  2  0  0  0  0  0  0  0  0  0
   22.7452  -21.5950  -12.3848 N   0  0  0  0  0  0  0  0  0  0  0  0
   20.4292  -21.1503  -11.8372 C   0  0  0  0  0  0  0  0  0  0  0  0
   19.2276  -20.8697  -12.0556 O   0  0  0  0  0  0  0  0  0  0  0  0
   20.8237  -21.3336  -10.5301 O   0  0  0  0  0  0  0  0  0  0  0  0
  2  4  1  0
  2  1  1  0
  3  2  2  0
  5  4  1  0
  6  5  1  0
  6  7  1  1
  8  9  2  0
  8  6  1  0
 10  8  1  0
 11 10  1  0
 11 12  1  1
 13 12  1  0
 13 21  1  0
 14 13  2  0
 15 14  1  0
 15 16  1  0
 16 17  1  0
 16 21  2  0
 17 18  2  0
 18 19  1  0
 20 19  2  0
 21 20  1  0
 22 23  2  0
 22 11  1  0
 24 25  1  0
 26 25  1  6
 26 27  1  0
 27 22  1  0
 28 26  1  0
 29 28  2  0
 30 28  1  0
M  END
$$$$
