QWS.pdb
     RDKit          3D

 30 31  0  0  1  0  0  0  0  0999 V2000
   25.9498  -19.1888  -17.0238 N   0  0  0  0  0  0  0  0  0  0  0  0
   26.9871  -19.6689  -17.8563 C   0  0  0  0  0  0  0  0  0  0  0  0
   27.5547  -18.9130  -18.7160 O   0  0  0  0  0  0  0  0  0  0  0  0
   27.4050  -21.0882  -17.7053 C   0  0  0  0  0  0  0  0  0  0  0  0
   26.6791  -21.6805  -16.5339 C   0  0  0  0  0  0  0  0  0  0  0  0
   27.3341  -21.2757  -15.2248 C   0  0  2  0  0  0  0  0  0  0  0  0
   28.5006  -22.1204  -15.0521 N   0  0  0  0  0  0  0  0  0  0  0  0
   26.3214  -21.5136  -14.1501 C   0  0  0  0  0  0  0  0  0  0  0  0
   25.6584  -22.5901  -14.2719 O   0  0  0  0  0  0  0  0  0  0  0  0
   26.0879  -20.6464  -13.0763 N   0  0  0  0  0  0  0  0  0  0  0  0
   25.0249  -20.9036  -12.0807 C   0  0  1  0  0  0  0  0  0  0  0  0
   25.3679  -20.2676  -10.7861 C   0  0  0  0  0  0  0  0  0  0  0  0
   26.6175  -20.6720  -10.1351 C   0  0  0  0  0  0  0  0  0  0  0  0
   27.6309  -21.4039  -10.7634 C   0  0  0  0  0  0  0  0  0  0  0  0
   28.6269  -21.6326   -9.8763 N   0  0  0  0  0  0  0  0  0  0  0  0
   28.3160  -21.0858   -8.6980 C   0  0  0  0  0  0  0  0  0  0  0  0
   28.9838  -21.0267   -7.5017 C   0  0  0  0  0  0  0  0  0  0  0  0
   28.4264  -20.3608   -6.4060 C   0  0  0  0  0  0  0  0  0  0  0  0
   27.1916  -19.7621   -6.5449 C   0  0  0  0  0  0  0  0  0  0  0  0
   26.5391  -19.8352   -7.7566 C   0  0  0  0  0  0  0  0  0  0  0  0
   27.0807  -20.4923   -8.8489 C   0  0  0  0  0  0  0  0  0  0  0  0
   23.7263  -20.6302  -12.6456 C   0  0  0  0  0  0  0  0  0  0  0  0
   23.4584  -19.5250  -13.1643 O   0  0  0  0  0  0  0  0  0  0  0  0
   20.5586  -23.3961  -12.3793 O   0  0  0  0  0  0  0  0  0  0  0  0
   20.7205  -22.6143  -13.5163 C   0  0  0  0  0  0  0  0  0  0  0  0
   21.4017  -21.2895  -13.1480 C   0  0  2  0  0  0  0  0  0  0  0  0
   22.7127  -21.6185  -12.6255 N   0  0  0  0  0  0  0  0  0  0  0  0
   20.5981  -20.5330  -12.1655 C   0  0  0  0  0  0  0  0  0  0  0  0
   19.4310  -20.1397  -12.3970 O   0  0  0  0  0  0  0  0  0  0  0  0
   21.1473  -20.2416  -10.9363 O   0  0  0  0  0  0  0  0  0  0  0  0
  2  4  1  0
  2  1  1  0
  3  2  2  0
  5  4  1  0
  6  5  1  0
  6  7  1  1
  8  9  2  0
  8  6  1  0
 10  8  1  0
 11 10  1  0
 11 12  1  1
 13 12  1  0
 13 21  1  0
 14 13  2  0
 15 14  1  0
 15 16  1  0
 16 17  1  0
 16 21  2  0
 17 18  2  0
 18 19  1  0
 20 19  2  0
 21 20  1  0
 22 23  2  0
 22 11  1  0
 24 25  1  0
 26 25  1  1
 26 27  1  0
 27 22  1  0
 28 26  1  0
 29 28  2  0
 30 28  1  0
M  END
$$$$
