QWS.pdb
     RDKit          3D

 30 31  0  0  1  0  0  0  0  0999 V2000
   28.9099  -16.3086  -15.9930 N   0  0  0  0  0  0  0  0  0  0  0  0
   28.0290  -17.0450  -16.8183 C   0  0  0  0  0  0  0  0  0  0  0  0
   27.8191  -16.7106  -18.0335 O   0  0  0  0  0  0  0  0  0  0  0  0
   27.3464  -18.2290  -16.2318 C   0  0  0  0  0  0  0  0  0  0  0  0
   27.8212  -18.4066  -14.8201 C   0  0  0  0  0  0  0  0  0  0  0  0
   28.3677  -19.8065  -14.6003 C   0  0  2  0  0  0  0  0  0  0  0  0
   28.3992  -20.4605  -15.8948 N   0  0  0  0  0  0  0  0  0  0  0  0
   27.4234  -20.4905  -13.6637 C   0  0  0  0  0  0  0  0  0  0  0  0
   26.3410  -20.8891  -14.1956 O   0  0  0  0  0  0  0  0  0  0  0  0
   27.6704  -20.6973  -12.3014 N   0  0  0  0  0  0  0  0  0  0  0  0
   26.7004  -21.3926  -11.4278 C   0  0  1  0  0  0  0  0  0  0  0  0
   27.3281  -21.7285  -10.1273 C   0  0  0  0  0  0  0  0  0  0  0  0
   26.9541  -20.9253   -8.9595 C   0  0  0  0  0  0  0  0  0  0  0  0
   25.7493  -20.2243   -8.8399 C   0  0  0  0  0  0  0  0  0  0  0  0
   25.7352  -19.5670   -7.6571 N   0  0  0  0  0  0  0  0  0  0  0  0
   26.8711  -19.8036   -6.9957 C   0  0  0  0  0  0  0  0  0  0  0  0
   27.3310  -19.3909   -5.7714 C   0  0  0  0  0  0  0  0  0  0  0  0
   28.5787  -19.8099   -5.3000 C   0  0  0  0  0  0  0  0  0  0  0  0
   29.3436  -20.6468   -6.0854 C   0  0  0  0  0  0  0  0  0  0  0  0
   28.8610  -21.0478   -7.3125 C   0  0  0  0  0  0  0  0  0  0  0  0
   27.6270  -20.6391   -7.7905 C   0  0  0  0  0  0  0  0  0  0  0  0
   25.4415  -20.6890  -11.4097 C   0  0  0  0  0  0  0  0  0  0  0  0
   25.3820  -19.4610  -11.1841 O   0  0  0  0  0  0  0  0  0  0  0  0
   22.8130  -21.4573  -14.0201 O   0  0  0  0  0  0  0  0  0  0  0  0
   22.8428  -20.2867  -13.2724 C   0  0  0  0  0  0  0  0  0  0  0  0
   23.0030  -20.6206  -11.7833 C   0  0  2  0  0  0  0  0  0  0  0  0
   24.2296  -21.3805  -11.6493 N   0  0  0  0  0  0  0  0  0  0  0  0
   21.8371  -21.3753  -11.2788 C   0  0  0  0  0  0  0  0  0  0  0  0
   21.9189  -22.5491  -10.8477 O   0  0  0  0  0  0  0  0  0  0  0  0
   20.5995  -20.7704  -11.2779 O   0  0  0  0  0  0  0  0  0  0  0  0
  2  4  1  0
  2  1  1  0
  3  2  2  0
  5  4  1  0
  6  5  1  0
  6  7  1  6
  8  9  2  0
  8  6  1  0
 10  8  1  0
 11 10  1  0
 11 12  1  1
 13 12  1  0
 13 21  1  0
 14 13  2  0
 15 14  1  0
 15 16  1  0
 16 17  1  0
 16 21  2  0
 17 18  2  0
 18 19  1  0
 20 19  2  0
 21 20  1  0
 22 23  2  0
 22 11  1  0
 24 25  1  0
 26 25  1  6
 26 27  1  0
 27 22  1  0
 28 26  1  0
 29 28  2  0
 30 28  1  0
M  END
$$$$
