QWS.pdb
     RDKit          3D

 30 31  0  0  1  0  0  0  0  0999 V2000
   28.4611  -24.6692  -16.6902 N   0  0  0  0  0  0  0  0  0  0  0  0
   28.8981  -23.4069  -17.1540 C   0  0  0  0  0  0  0  0  0  0  0  0
   30.1219  -23.1948  -17.4536 O   0  0  0  0  0  0  0  0  0  0  0  0
   27.8891  -22.3223  -17.2857 C   0  0  0  0  0  0  0  0  0  0  0  0
   26.9319  -22.4145  -16.1345 C   0  0  0  0  0  0  0  0  0  0  0  0
   27.2179  -21.3400  -15.0999 C   0  0  2  0  0  0  0  0  0  0  0  0
   28.5790  -21.5412  -14.6406 N   0  0  0  0  0  0  0  0  0  0  0  0
   26.2311  -21.5400  -13.9938 C   0  0  0  0  0  0  0  0  0  0  0  0
   25.6996  -22.6930  -13.9563 O   0  0  0  0  0  0  0  0  0  0  0  0
   25.8890  -20.5627  -13.0518 N   0  0  0  0  0  0  0  0  0  0  0  0
   24.8807  -20.8112  -11.9987 C   0  0  1  0  0  0  0  0  0  0  0  0
   25.2923  -20.1645  -10.7296 C   0  0  0  0  0  0  0  0  0  0  0  0
   26.5814  -20.5536  -10.1503 C   0  0  0  0  0  0  0  0  0  0  0  0
   27.5574  -21.2926  -10.8275 C   0  0  0  0  0  0  0  0  0  0  0  0
   28.6071  -21.5028   -9.9999 N   0  0  0  0  0  0  0  0  0  0  0  0
   28.3671  -20.9373   -8.8140 C   0  0  0  0  0  0  0  0  0  0  0  0
   29.1070  -20.8556   -7.6623 C   0  0  0  0  0  0  0  0  0  0  0  0
   28.6152  -20.1732   -6.5455 C   0  0  0  0  0  0  0  0  0  0  0  0
   27.3716  -19.5811   -6.6180 C   0  0  0  0  0  0  0  0  0  0  0  0
   26.6460  -19.6769   -7.7858 C   0  0  0  0  0  0  0  0  0  0  0  0
   27.1222  -20.3506   -8.8982 C   0  0  0  0  0  0  0  0  0  0  0  0
   23.5538  -20.5420  -12.4957 C   0  0  0  0  0  0  0  0  0  0  0  0
   23.2482  -19.4286  -12.9744 O   0  0  0  0  0  0  0  0  0  0  0  0
   20.2726  -23.1835  -11.9412 O   0  0  0  0  0  0  0  0  0  0  0  0
   20.5107  -22.5760  -13.1677 C   0  0  0  0  0  0  0  0  0  0  0  0
   21.2315  -21.2377  -12.9580 C   0  0  2  0  0  0  0  0  0  0  0  0
   22.5545  -21.5441  -12.4525 N   0  0  0  0  0  0  0  0  0  0  0  0
   20.4808  -20.3691  -12.0277 C   0  0  0  0  0  0  0  0  0  0  0  0
   20.9177  -20.0378  -10.9009 O   0  0  0  0  0  0  0  0  0  0  0  0
   19.2435  -19.8965  -12.4065 O   0  0  0  0  0  0  0  0  0  0  0  0
  2  4  1  0
  2  1  1  0
  3  2  2  0
  5  4  1  0
  6  5  1  0
  6  7  1  1
  8  9  2  0
  8  6  1  0
 10  8  1  0
 11 10  1  0
 11 12  1  1
 13 12  1  0
 13 21  1  0
 14 13  2  0
 15 14  1  0
 15 16  1  0
 16 17  1  0
 16 21  2  0
 17 18  2  0
 18 19  1  0
 20 19  2  0
 21 20  1  0
 22 23  2  0
 22 11  1  0
 24 25  1  0
 26 25  1  1
 26 27  1  0
 27 22  1  0
 28 26  1  0
 29 28  2  0
 30 28  1  0
M  END
$$$$
