QWS.pdb
     RDKit          3D

 30 31  0  0  1  0  0  0  0  0999 V2000
   26.7457  -18.9123  -20.6191 N   0  0  0  0  0  0  0  0  0  0  0  0
   26.2101  -17.6270  -20.3726 C   0  0  0  0  0  0  0  0  0  0  0  0
   26.5215  -16.6249  -21.1016 O   0  0  0  0  0  0  0  0  0  0  0  0
   25.2669  -17.4688  -19.2337 C   0  0  0  0  0  0  0  0  0  0  0  0
   25.1496  -18.7836  -18.5212 C   0  0  0  0  0  0  0  0  0  0  0  0
   23.6940  -19.1587  -18.3045 C   0  0  2  0  0  0  0  0  0  0  0  0
   22.9264  -17.9283  -18.3393 N   0  0  0  0  0  0  0  0  0  0  0  0
   23.6180  -19.8140  -16.9622 C   0  0  0  0  0  0  0  0  0  0  0  0
   24.2939  -20.8838  -16.8527 O   0  0  0  0  0  0  0  0  0  0  0  0
   22.8739  -19.3235  -15.8827 N   0  0  0  0  0  0  0  0  0  0  0  0
   22.6811  -20.1096  -14.6448 C   0  0  1  0  0  0  0  0  0  0  0  0
   23.1783  -19.3517  -13.4715 C   0  0  0  0  0  0  0  0  0  0  0  0
   23.2805  -20.0604  -12.1925 C   0  0  0  0  0  0  0  0  0  0  0  0
   24.3210  -20.9338  -11.8579 C   0  0  0  0  0  0  0  0  0  0  0  0
   24.0959  -21.4378  -10.6224 N   0  0  0  0  0  0  0  0  0  0  0  0
   22.9595  -20.9370  -10.1309 C   0  0  0  0  0  0  0  0  0  0  0  0
   22.3104  -21.1173   -8.9364 C   0  0  0  0  0  0  0  0  0  0  0  0
   21.1168  -20.4421   -8.6643 C   0  0  0  0  0  0  0  0  0  0  0  0
   20.5991  -19.5891   -9.6166 C   0  0  0  0  0  0  0  0  0  0  0  0
   21.2688  -19.4243  -10.8098 C   0  0  0  0  0  0  0  0  0  0  0  0
   22.4513  -20.0880  -11.0911 C   0  0  0  0  0  0  0  0  0  0  0  0
   21.3422  -20.6427  -14.5878 C   0  0  0  0  0  0  0  0  0  0  0  0
   20.3508  -19.9573  -14.9192 O   0  0  0  0  0  0  0  0  0  0  0  0
   20.4685  -24.3751  -15.3267 O   0  0  0  0  0  0  0  0  0  0  0  0
   19.8265  -23.9923  -14.1556 C   0  0  0  0  0  0  0  0  0  0  0  0
   19.7555  -22.4617  -14.0737 C   0  0  2  0  0  0  0  0  0  0  0  0
   21.1164  -21.9700  -14.1499 N   0  0  0  0  0  0  0  0  0  0  0  0
   19.0879  -22.0258  -12.8296 C   0  0  0  0  0  0  0  0  0  0  0  0
   19.6662  -21.3524  -11.9450 O   0  0  0  0  0  0  0  0  0  0  0  0
   17.7702  -22.3700  -12.6228 O   0  0  0  0  0  0  0  0  0  0  0  0
  2  4  1  0
  2  1  1  0
  3  2  2  0
  5  4  1  0
  6  5  1  0
  6  7  1  1
  8  9  2  0
  8  6  1  0
 10  8  1  0
 11 10  1  0
 11 12  1  1
 13 12  1  0
 13 21  1  0
 14 13  2  0
 15 14  1  0
 15 16  1  0
 16 17  1  0
 16 21  2  0
 17 18  2  0
 18 19  1  0
 20 19  2  0
 21 20  1  0
 22 23  2  0
 22 11  1  0
 24 25  1  0
 26 25  1  1
 26 27  1  0
 27 22  1  0
 28 26  1  0
 29 28  2  0
 30 28  1  0
M  END
$$$$
