EDI.pdb
     RDKit          3D

 26 25  0  0  1  0  0  0  0  0999 V2000
    9.2380  -13.8982   19.8245 N   0  0  0  0  0  0  0  0  0  0  0  0
    7.9536  -14.3928   20.2780 C   0  0  1  0  0  0  0  0  0  0  0  0
    7.2556  -15.0653   19.1431 C   0  0  0  0  0  0  0  0  0  0  0  0
    8.1052  -16.0437   18.3935 C   0  0  0  0  0  0  0  0  0  0  0  0
    7.2808  -16.5884   17.2551 C   0  0  0  0  0  0  0  0  0  0  0  0
    7.1490  -15.9267   16.1952 O   0  0  0  0  0  0  0  0  0  0  0  0
    8.1596  -15.2213   21.4689 C   0  0  0  0  0  0  0  0  0  0  0  0
    7.2073  -15.7293   22.1338 O   0  0  0  0  0  0  0  0  0  0  0  0
    6.6539  -17.8182   17.3454 O   0  0  0  0  0  0  0  0  0  0  0  0
    9.4690  -15.5283   21.9851 N   0  0  0  0  0  0  0  0  0  0  0  0
    9.7088  -16.3216   23.1389 C   0  0  1  0  0  0  0  0  0  0  0  0
   10.7757  -17.3669   22.9867 C   0  0  0  0  0  0  0  0  0  0  0  0
   10.9128  -18.2120   24.2028 C   0  0  0  0  0  0  0  0  0  0  0  0
   11.7476  -17.9228   25.0702 O   0  0  0  0  0  0  0  0  0  0  0  0
    9.8676  -15.5276   24.3847 C   0  0  0  0  0  0  0  0  0  0  0  0
   10.8997  -14.7957   24.5850 O   0  0  0  0  0  0  0  0  0  0  0  0
   10.1076  -19.3283   24.3732 O   0  0  0  0  0  0  0  0  0  0  0  0
    6.3273  -12.1038   26.0411 C   0  0  0  0  0  0  0  0  0  0  0  0
    7.5655  -12.9099   25.7436 C   0  0  0  0  0  0  0  0  0  0  0  0
    7.9293  -13.7993   26.8715 C   0  0  2  0  0  0  0  0  0  0  0  0
    8.2823  -12.9628   28.0979 C   0  0  0  0  0  0  0  0  0  0  0  0
    9.0481  -14.7548   26.6451 C   0  0  2  0  0  0  0  0  0  0  0  0
    8.9139  -15.5172   25.4239 N   0  0  0  0  0  0  0  0  0  0  0  0
    9.4079  -15.5977   27.8005 C   0  0  0  0  0  0  0  0  0  0  0  0
   10.1191  -15.0164   28.8700 O   0  0  0  0  0  0  0  0  0  0  0  0
    9.1327  -16.8003   27.9155 O   0  0  0  0  0  0  0  0  0  0  0  0
  2  1  1  6
  2  3  1  0
  4  3  1  0
  5  6  2  0
  5  4  1  0
  7  8  2  0
  7  2  1  0
  9  5  1  0
 10  7  1  0
 11 10  1  0
 11 12  1  6
 13 14  2  0
 13 12  1  0
 15 16  2  0
 15 11  1  0
 17 13  1  0
 18 19  1  0
 19 20  1  0
 20 21  1  1
 22 20  1  0
 22 23  1  6
 23 15  1  0
 24 22  1  0
 25 24  1  0
 26 24  2  0
M  END
$$$$
