EDI.pdb
     RDKit          3D

 26 25  0  0  1  0  0  0  0  0999 V2000
    9.3823  -15.6655   19.0235 N   0  0  0  0  0  0  0  0  0  0  0  0
    8.0432  -15.6300   19.5763 C   0  0  1  0  0  0  0  0  0  0  0  0
    7.1220  -16.3962   18.6865 C   0  0  0  0  0  0  0  0  0  0  0  0
    7.6792  -17.6985   18.2019 C   0  0  0  0  0  0  0  0  0  0  0  0
    6.9268  -18.0825   16.9534 C   0  0  0  0  0  0  0  0  0  0  0  0
    5.9255  -18.8381   17.0243 O   0  0  0  0  0  0  0  0  0  0  0  0
    8.0942  -16.0840   20.9686 C   0  0  0  0  0  0  0  0  0  0  0  0
    7.0720  -16.1473   21.7155 O   0  0  0  0  0  0  0  0  0  0  0  0
    7.3140  -17.6183   15.7092 O   0  0  0  0  0  0  0  0  0  0  0  0
    9.3177  -16.4979   21.6067 N   0  0  0  0  0  0  0  0  0  0  0  0
    9.4050  -16.9573   22.9481 C   0  0  1  0  0  0  0  0  0  0  0  0
   10.3566  -18.0964   23.1740 C   0  0  0  0  0  0  0  0  0  0  0  0
   10.3089  -18.6003   24.5724 C   0  0  0  0  0  0  0  0  0  0  0  0
    9.4357  -18.1940   25.3505 O   0  0  0  0  0  0  0  0  0  0  0  0
    9.5824  -15.8659   23.9407 C   0  0  0  0  0  0  0  0  0  0  0  0
   10.6077  -15.0982   23.9154 O   0  0  0  0  0  0  0  0  0  0  0  0
   11.2410  -19.5277   25.0139 O   0  0  0  0  0  0  0  0  0  0  0  0
    6.7141  -11.2693   26.2890 C   0  0  0  0  0  0  0  0  0  0  0  0
    7.8222  -12.2496   26.5769 C   0  0  0  0  0  0  0  0  0  0  0  0
    7.6990  -13.4780   25.7575 C   0  0  2  0  0  0  0  0  0  0  0  0
    6.3698  -14.1666   26.0528 C   0  0  0  0  0  0  0  0  0  0  0  0
    8.7731  -14.4983   25.9035 C   0  0  2  0  0  0  0  0  0  0  0  0
    8.6549  -15.5945   24.9682 N   0  0  0  0  0  0  0  0  0  0  0  0
    9.0315  -14.9567   27.2812 C   0  0  0  0  0  0  0  0  0  0  0  0
    9.0440  -16.3415   27.5451 O   0  0  0  0  0  0  0  0  0  0  0  0
    9.2437  -14.2130   28.2492 O   0  0  0  0  0  0  0  0  0  0  0  0
  2  1  1  6
  2  3  1  0
  4  3  1  0
  5  6  2  0
  5  4  1  0
  7  8  2  0
  7  2  1  0
  9  5  1  0
 10  7  1  0
 11 10  1  0
 11 12  1  6
 13 14  2  0
 13 12  1  0
 15 16  2  0
 15 11  1  0
 17 13  1  0
 18 19  1  0
 19 20  1  0
 20 21  1  1
 22 20  1  0
 22 23  1  6
 23 15  1  0
 24 22  1  0
 25 24  1  0
 26 24  2  0
M  END
$$$$
