EDI.pdb
     RDKit          3D

 26 25  0  0  1  0  0  0  0  0999 V2000
    9.6688  -15.4096   20.0274 N   0  0  0  0  0  0  0  0  0  0  0  0
    8.4439  -15.5211   20.7938 C   0  0  1  0  0  0  0  0  0  0  0  0
    7.4672  -16.3631   20.0425 C   0  0  0  0  0  0  0  0  0  0  0  0
    8.0026  -16.9326   18.7658 C   0  0  0  0  0  0  0  0  0  0  0  0
    6.9216  -17.7889   18.1572 C   0  0  0  0  0  0  0  0  0  0  0  0
    6.0824  -17.2849   17.3696 O   0  0  0  0  0  0  0  0  0  0  0  0
    8.7712  -15.9902   22.1428 C   0  0  0  0  0  0  0  0  0  0  0  0
    7.9020  -16.1499   23.0516 O   0  0  0  0  0  0  0  0  0  0  0  0
    6.8252  -19.1383   18.4461 O   0  0  0  0  0  0  0  0  0  0  0  0
   10.1156  -16.3103   22.5495 N   0  0  0  0  0  0  0  0  0  0  0  0
   10.4641  -16.8271   23.8260 C   0  0  1  0  0  0  0  0  0  0  0  0
   11.6773  -17.7112   23.8494 C   0  0  0  0  0  0  0  0  0  0  0  0
   11.6703  -18.7054   22.7433 C   0  0  0  0  0  0  0  0  0  0  0  0
   10.9179  -19.6872   22.7945 O   0  0  0  0  0  0  0  0  0  0  0  0
   10.4927  -15.7979   24.8973 C   0  0  0  0  0  0  0  0  0  0  0  0
   11.4931  -15.0111   25.0430 O   0  0  0  0  0  0  0  0  0  0  0  0
   12.5055  -18.5396   21.6486 O   0  0  0  0  0  0  0  0  0  0  0  0
    6.7470  -12.2560   25.8474 C   0  0  0  0  0  0  0  0  0  0  0  0
    8.0038  -13.0771   25.7134 C   0  0  0  0  0  0  0  0  0  0  0  0
    8.3693  -13.7387   26.9878 C   0  0  2  0  0  0  0  0  0  0  0  0
    8.7050  -12.6862   28.0403 C   0  0  0  0  0  0  0  0  0  0  0  0
    9.4999  -14.7064   26.9469 C   0  0  2  0  0  0  0  0  0  0  0  0
    9.4421  -15.6098   25.8195 N   0  0  0  0  0  0  0  0  0  0  0  0
    9.7866  -15.4030   28.2148 C   0  0  0  0  0  0  0  0  0  0  0  0
    9.4492  -16.7668   28.3317 O   0  0  0  0  0  0  0  0  0  0  0  0
   10.3109  -14.8815   29.2089 O   0  0  0  0  0  0  0  0  0  0  0  0
  2  1  1  6
  2  3  1  0
  4  3  1  0
  5  6  2  0
  5  4  1  0
  7  8  2  0
  7  2  1  0
  9  5  1  0
 10  7  1  0
 11 10  1  0
 11 12  1  6
 13 14  2  0
 13 12  1  0
 15 16  2  0
 15 11  1  0
 17 13  1  0
 18 19  1  0
 19 20  1  0
 20 21  1  1
 22 20  1  0
 22 23  1  6
 23 15  1  0
 24 22  1  0
 25 24  1  0
 26 24  2  0
M  END
$$$$
