EDI.pdb
     RDKit          3D

 26 25  0  0  1  0  0  0  0  0999 V2000
    9.8782  -13.0137   19.1846 N   0  0  0  0  0  0  0  0  0  0  0  0
    8.5061  -13.4398   19.3744 C   0  0  1  0  0  0  0  0  0  0  0  0
    7.9437  -13.8878   18.0666 C   0  0  0  0  0  0  0  0  0  0  0  0
    8.6435  -15.0691   17.4701 C   0  0  0  0  0  0  0  0  0  0  0  0
    8.0247  -15.3354   16.1216 C   0  0  0  0  0  0  0  0  0  0  0  0
    7.0899  -14.6100   15.6992 O   0  0  0  0  0  0  0  0  0  0  0  0
    8.4641  -14.4337   20.4502 C   0  0  0  0  0  0  0  0  0  0  0  0
    7.3837  -14.8895   20.9318 O   0  0  0  0  0  0  0  0  0  0  0  0
    8.4645  -16.3744   15.3212 O   0  0  0  0  0  0  0  0  0  0  0  0
    9.6543  -14.9776   21.0527 N   0  0  0  0  0  0  0  0  0  0  0  0
    9.6549  -15.8913   22.1406 C   0  0  1  0  0  0  0  0  0  0  0  0
   10.6294  -17.0272   22.0219 C   0  0  0  0  0  0  0  0  0  0  0  0
   10.3456  -17.8913   20.8452 C   0  0  0  0  0  0  0  0  0  0  0  0
    9.2760  -18.5105   20.7719 O   0  0  0  0  0  0  0  0  0  0  0  0
    9.7123  -15.2325   23.4712 C   0  0  0  0  0  0  0  0  0  0  0  0
   10.7337  -14.5513   23.8373 O   0  0  0  0  0  0  0  0  0  0  0  0
   11.2760  -18.0092   19.8234 O   0  0  0  0  0  0  0  0  0  0  0  0
    6.8516  -11.5447   27.0128 C   0  0  0  0  0  0  0  0  0  0  0  0
    7.7679  -12.7395   27.0788 C   0  0  0  0  0  0  0  0  0  0  0  0
    7.7153  -13.5448   25.8362 C   0  0  2  0  0  0  0  0  0  0  0  0
    6.3210  -14.1399   25.6631 C   0  0  0  0  0  0  0  0  0  0  0  0
    8.6954  -14.6582   25.7104 C   0  0  2  0  0  0  0  0  0  0  0  0
    8.6682  -15.3038   24.4168 N   0  0  0  0  0  0  0  0  0  0  0  0
    8.7056  -15.6250   26.8240 C   0  0  0  0  0  0  0  0  0  0  0  0
    8.5007  -16.9905   26.5398 O   0  0  0  0  0  0  0  0  0  0  0  0
    8.8832  -15.3344   28.0153 O   0  0  0  0  0  0  0  0  0  0  0  0
  2  1  1  6
  2  3  1  0
  4  3  1  0
  5  6  2  0
  5  4  1  0
  7  8  2  0
  7  2  1  0
  9  5  1  0
 10  7  1  0
 11 10  1  0
 11 12  1  6
 13 14  2  0
 13 12  1  0
 15 16  2  0
 15 11  1  0
 17 13  1  0
 18 19  1  0
 19 20  1  0
 20 21  1  1
 22 20  1  0
 22 23  1  6
 23 15  1  0
 24 22  1  0
 25 24  1  0
 26 24  2  0
M  END
$$$$
