EDI.pdb
     RDKit          3D

 26 25  0  0  1  0  0  0  0  0999 V2000
    9.6980  -12.6788   19.2128 N   0  0  0  0  0  0  0  0  0  0  0  0
    8.3618  -13.2089   19.3960 C   0  0  1  0  0  0  0  0  0  0  0  0
    7.8422  -13.6996   18.0858 C   0  0  0  0  0  0  0  0  0  0  0  0
    8.6758  -14.7729   17.4581 C   0  0  0  0  0  0  0  0  0  0  0  0
    8.0275  -15.1510   16.1509 C   0  0  0  0  0  0  0  0  0  0  0  0
    7.0238  -14.5196   15.7356 O   0  0  0  0  0  0  0  0  0  0  0  0
    8.3909  -14.2025   20.4725 C   0  0  0  0  0  0  0  0  0  0  0  0
    7.3473  -14.6242   21.0557 O   0  0  0  0  0  0  0  0  0  0  0  0
    8.5148  -16.1920   15.3812 O   0  0  0  0  0  0  0  0  0  0  0  0
    9.6150  -14.7852   20.9596 N   0  0  0  0  0  0  0  0  0  0  0  0
    9.6817  -15.7700   21.9814 C   0  0  1  0  0  0  0  0  0  0  0  0
   10.7671  -16.7936   21.8140 C   0  0  0  0  0  0  0  0  0  0  0  0
   10.7598  -17.8048   22.9046 C   0  0  0  0  0  0  0  0  0  0  0  0
    9.6906  -18.1529   23.4227 O   0  0  0  0  0  0  0  0  0  0  0  0
    9.6425  -15.2057   23.3554 C   0  0  0  0  0  0  0  0  0  0  0  0
   10.4439  -14.2752   23.7200 O   0  0  0  0  0  0  0  0  0  0  0  0
   11.9491  -18.3639   23.3480 O   0  0  0  0  0  0  0  0  0  0  0  0
    6.7033  -12.1437   27.1353 C   0  0  0  0  0  0  0  0  0  0  0  0
    7.8639  -13.1005   27.0399 C   0  0  0  0  0  0  0  0  0  0  0  0
    7.8898  -13.8086   25.7385 C   0  0  2  0  0  0  0  0  0  0  0  0
    6.4647  -14.1102   25.2844 C   0  0  0  0  0  0  0  0  0  0  0  0
    8.6575  -15.0826   25.6776 C   0  0  2  0  0  0  0  0  0  0  0  0
    8.7382  -15.6413   24.3464 N   0  0  0  0  0  0  0  0  0  0  0  0
    8.2980  -16.0906   26.6923 C   0  0  0  0  0  0  0  0  0  0  0  0
    8.5814  -15.8218   28.0469 O   0  0  0  0  0  0  0  0  0  0  0  0
    7.7555  -17.1783   26.4519 O   0  0  0  0  0  0  0  0  0  0  0  0
  2  1  1  6
  2  3  1  0
  4  3  1  0
  5  6  2  0
  5  4  1  0
  7  8  2  0
  7  2  1  0
  9  5  1  0
 10  7  1  0
 11 10  1  0
 11 12  1  1
 13 14  2  0
 13 12  1  0
 15 16  2  0
 15 11  1  0
 17 13  1  0
 18 19  1  0
 19 20  1  0
 20 21  1  1
 22 20  1  0
 22 23  1  6
 23 15  1  0
 24 22  1  0
 25 24  1  0
 26 24  2  0
M  END
$$$$
