EDI.pdb
     RDKit          3D

 26 25  0  0  1  0  0  0  0  0999 V2000
    9.2137  -15.9244   19.1408 N   0  0  0  0  0  0  0  0  0  0  0  0
    8.0613  -15.7721   20.0063 C   0  0  1  0  0  0  0  0  0  0  0  0
    6.9295  -16.5818   19.4672 C   0  0  0  0  0  0  0  0  0  0  0  0
    7.2683  -18.0178   19.2141 C   0  0  0  0  0  0  0  0  0  0  0  0
    6.0463  -18.6811   18.6317 C   0  0  0  0  0  0  0  0  0  0  0  0
    5.9971  -18.9542   17.4064 O   0  0  0  0  0  0  0  0  0  0  0  0
    8.4585  -16.0843   21.3817 C   0  0  0  0  0  0  0  0  0  0  0  0
    7.6530  -16.0543   22.3601 O   0  0  0  0  0  0  0  0  0  0  0  0
    4.9578  -19.0037   19.4221 O   0  0  0  0  0  0  0  0  0  0  0  0
    9.8050  -16.4531   21.7372 N   0  0  0  0  0  0  0  0  0  0  0  0
   10.2252  -16.7746   23.0556 C   0  0  1  0  0  0  0  0  0  0  0  0
   11.5530  -17.4686   23.1529 C   0  0  0  0  0  0  0  0  0  0  0  0
   11.5520  -18.7847   22.4604 C   0  0  0  0  0  0  0  0  0  0  0  0
   12.4677  -19.0777   21.6803 O   0  0  0  0  0  0  0  0  0  0  0  0
   10.1065  -15.6427   24.0109 C   0  0  0  0  0  0  0  0  0  0  0  0
   10.8480  -14.6027   23.9118 O   0  0  0  0  0  0  0  0  0  0  0  0
   10.5266  -19.6917   22.6833 O   0  0  0  0  0  0  0  0  0  0  0  0
    6.7804  -11.5988   26.5812 C   0  0  0  0  0  0  0  0  0  0  0  0
    7.9166  -12.5347   26.9049 C   0  0  0  0  0  0  0  0  0  0  0  0
    8.0138  -13.6436   25.9270 C   0  0  2  0  0  0  0  0  0  0  0  0
    6.7215  -14.4549   25.9336 C   0  0  0  0  0  0  0  0  0  0  0  0
    9.1424  -14.5991   26.0987 C   0  0  2  0  0  0  0  0  0  0  0  0
    9.1869  -15.6244   25.0802 N   0  0  0  0  0  0  0  0  0  0  0  0
    9.3113  -15.1457   27.4580 C   0  0  0  0  0  0  0  0  0  0  0  0
    9.3520  -16.5447   27.6273 O   0  0  0  0  0  0  0  0  0  0  0  0
    9.4236  -14.4662   28.4880 O   0  0  0  0  0  0  0  0  0  0  0  0
  2  1  1  6
  2  3  1  0
  4  3  1  0
  5  6  2  0
  5  4  1  0
  7  8  2  0
  7  2  1  0
  9  5  1  0
 10  7  1  0
 11 10  1  0
 11 12  1  6
 13 14  2  0
 13 12  1  0
 15 16  2  0
 15 11  1  0
 17 13  1  0
 18 19  1  0
 19 20  1  0
 20 21  1  1
 22 20  1  0
 22 23  1  6
 23 15  1  0
 24 22  1  0
 25 24  1  0
 26 24  2  0
M  END
$$$$
