EDI.pdb
     RDKit          3D

 26 25  0  0  1  0  0  0  0  0999 V2000
    8.8974  -16.0519   18.4255 N   0  0  0  0  0  0  0  0  0  0  0  0
    9.6664  -16.6335   19.5074 C   0  0  1  0  0  0  0  0  0  0  0  0
   11.0656  -16.1173   19.4507 C   0  0  0  0  0  0  0  0  0  0  0  0
   11.1738  -14.6269   19.5401 C   0  0  0  0  0  0  0  0  0  0  0  0
   12.6389  -14.2725   19.5297 C   0  0  0  0  0  0  0  0  0  0  0  0
   13.4241  -14.8474   18.7351 O   0  0  0  0  0  0  0  0  0  0  0  0
    8.9602  -16.3980   20.7694 C   0  0  0  0  0  0  0  0  0  0  0  0
    7.9124  -15.6898   20.8563 O   0  0  0  0  0  0  0  0  0  0  0  0
   13.1531  -13.3148   20.3853 O   0  0  0  0  0  0  0  0  0  0  0  0
    9.4013  -16.9550   22.0226 N   0  0  0  0  0  0  0  0  0  0  0  0
    8.5823  -17.0767   23.1769 C   0  0  1  0  0  0  0  0  0  0  0  0
    8.2898  -18.4845   23.6089 C   0  0  0  0  0  0  0  0  0  0  0  0
    7.4085  -18.5341   24.8058 C   0  0  0  0  0  0  0  0  0  0  0  0
    6.3269  -17.9315   24.8071 O   0  0  0  0  0  0  0  0  0  0  0  0
    9.0158  -16.2158   24.3078 C   0  0  0  0  0  0  0  0  0  0  0  0
   10.2554  -16.0458   24.5826 O   0  0  0  0  0  0  0  0  0  0  0  0
    7.7916  -19.2547   25.9272 O   0  0  0  0  0  0  0  0  0  0  0  0
    5.6028  -12.1800   26.2154 C   0  0  0  0  0  0  0  0  0  0  0  0
    6.7817  -12.9419   25.6665 C   0  0  0  0  0  0  0  0  0  0  0  0
    7.4436  -13.7607   26.7090 C   0  0  2  0  0  0  0  0  0  0  0  0
    8.0468  -12.8520   27.7761 C   0  0  0  0  0  0  0  0  0  0  0  0
    8.5136  -14.6925   26.2585 C   0  0  2  0  0  0  0  0  0  0  0  0
    8.1151  -15.5320   25.1507 N   0  0  0  0  0  0  0  0  0  0  0  0
    9.1876  -15.4515   27.3283 C   0  0  0  0  0  0  0  0  0  0  0  0
    9.0711  -16.8564   27.3413 O   0  0  0  0  0  0  0  0  0  0  0  0
    9.8635  -14.9497   28.2375 O   0  0  0  0  0  0  0  0  0  0  0  0
  2  1  1  6
  2  3  1  0
  4  3  1  0
  5  6  2  0
  5  4  1  0
  7  8  2  0
  7  2  1  0
  9  5  1  0
 10  7  1  0
 11 10  1  0
 11 12  1  1
 13 14  2  0
 13 12  1  0
 15 16  2  0
 15 11  1  0
 17 13  1  0
 18 19  1  0
 19 20  1  0
 20 21  1  1
 22 20  1  0
 22 23  1  6
 23 15  1  0
 24 22  1  0
 25 24  1  0
 26 24  2  0
M  END
$$$$
