EDI.pdb
     RDKit          3D

 26 25  0  0  1  0  0  0  0  0999 V2000
    6.0568  -16.6371   20.6728 N   0  0  0  0  0  0  0  0  0  0  0  0
    7.5036  -16.6744   20.7459 C   0  0  1  0  0  0  0  0  0  0  0  0
    8.0682  -15.5788   19.9043 C   0  0  0  0  0  0  0  0  0  0  0  0
    7.7014  -14.2017   20.3627 C   0  0  0  0  0  0  0  0  0  0  0  0
    8.4199  -13.2171   19.4759 C   0  0  0  0  0  0  0  0  0  0  0  0
    9.1195  -13.6235   18.5147 O   0  0  0  0  0  0  0  0  0  0  0  0
    7.9065  -16.6560   22.1546 C   0  0  0  0  0  0  0  0  0  0  0  0
    7.1682  -16.2053   23.0814 O   0  0  0  0  0  0  0  0  0  0  0  0
    8.3293  -11.8540   19.6938 O   0  0  0  0  0  0  0  0  0  0  0  0
    9.1822  -17.1513   22.6047 N   0  0  0  0  0  0  0  0  0  0  0  0
    9.5328  -17.3366   23.9688 C   0  0  1  0  0  0  0  0  0  0  0  0
   10.6795  -18.2744   24.2134 C   0  0  0  0  0  0  0  0  0  0  0  0
   10.4406  -19.6201   23.6271 C   0  0  0  0  0  0  0  0  0  0  0  0
   11.0951  -19.9959   22.6456 O   0  0  0  0  0  0  0  0  0  0  0  0
    9.6692  -16.0656   24.7263 C   0  0  0  0  0  0  0  0  0  0  0  0
   10.4871  -15.1511   24.3575 O   0  0  0  0  0  0  0  0  0  0  0  0
    9.4843  -20.4621   24.1750 O   0  0  0  0  0  0  0  0  0  0  0  0
    5.9389  -12.6491   26.2726 C   0  0  0  0  0  0  0  0  0  0  0  0
    7.2007  -13.3637   25.8621 C   0  0  0  0  0  0  0  0  0  0  0  0
    7.9840  -13.8183   27.0348 C   0  0  2  0  0  0  0  0  0  0  0  0
    8.4366  -12.6133   27.8542 C   0  0  0  0  0  0  0  0  0  0  0  0
    9.1876  -14.6509   26.7621 C   0  0  2  0  0  0  0  0  0  0  0  0
    8.9243  -15.7717   25.8874 N   0  0  0  0  0  0  0  0  0  0  0  0
    9.9783  -15.0326   27.9469 C   0  0  0  0  0  0  0  0  0  0  0  0
   10.7118  -14.0369   28.6236 O   0  0  0  0  0  0  0  0  0  0  0  0
   10.0553  -16.1792   28.4102 O   0  0  0  0  0  0  0  0  0  0  0  0
  2  1  1  1
  2  3  1  0
  4  3  1  0
  5  6  2  0
  5  4  1  0
  7  8  2  0
  7  2  1  0
  9  5  1  0
 10  7  1  0
 11 10  1  0
 11 12  1  6
 13 14  2  0
 13 12  1  0
 15 16  2  0
 15 11  1  0
 17 13  1  0
 18 19  1  0
 19 20  1  0
 20 21  1  6
 22 20  1  0
 22 23  1  1
 23 15  1  0
 24 22  1  0
 25 24  1  0
 26 24  2  0
M  END
$$$$
