EDI.pdb
     RDKit          3D

 26 25  0  0  1  0  0  0  0  0999 V2000
    8.6622  -19.0779   19.9843 N   0  0  0  0  0  0  0  0  0  0  0  0
    9.3846  -17.9297   20.4941 C   0  0  1  0  0  0  0  0  0  0  0  0
    9.2694  -16.8033   19.5218 C   0  0  0  0  0  0  0  0  0  0  0  0
    7.8617  -16.3854   19.2309 C   0  0  0  0  0  0  0  0  0  0  0  0
    7.9175  -15.2229   18.2730 C   0  0  0  0  0  0  0  0  0  0  0  0
    8.1044  -15.4212   17.0464 O   0  0  0  0  0  0  0  0  0  0  0  0
    8.9141  -17.6394   21.8510 C   0  0  0  0  0  0  0  0  0  0  0  0
    7.7680  -17.1582   22.0997 O   0  0  0  0  0  0  0  0  0  0  0  0
    7.7660  -13.9204   18.7133 O   0  0  0  0  0  0  0  0  0  0  0  0
    9.7202  -17.8783   23.0209 N   0  0  0  0  0  0  0  0  0  0  0  0
    9.2627  -17.7127   24.3556 C   0  0  1  0  0  0  0  0  0  0  0  0
    9.5940  -18.8399   25.2903 C   0  0  0  0  0  0  0  0  0  0  0  0
    9.4865  -20.1682   24.6302 C   0  0  0  0  0  0  0  0  0  0  0  0
    8.4151  -20.5257   24.1230 O   0  0  0  0  0  0  0  0  0  0  0  0
    9.5858  -16.3831   24.9349 C   0  0  0  0  0  0  0  0  0  0  0  0
   10.6545  -15.7544   24.6128 O   0  0  0  0  0  0  0  0  0  0  0  0
   10.5841  -21.0144   24.5784 O   0  0  0  0  0  0  0  0  0  0  0  0
    5.7329  -12.6589   26.2662 C   0  0  0  0  0  0  0  0  0  0  0  0
    6.9769  -13.3465   25.7650 C   0  0  0  0  0  0  0  0  0  0  0  0
    7.9253  -13.6418   26.8645 C   0  0  2  0  0  0  0  0  0  0  0  0
    8.4479  -12.3387   27.4619 C   0  0  0  0  0  0  0  0  0  0  0  0
    9.1055  -14.4855   26.5306 C   0  0  2  0  0  0  0  0  0  0  0  0
    8.7582  -15.7218   25.8662 N   0  0  0  0  0  0  0  0  0  0  0  0
   10.0742  -14.6850   27.6246 C   0  0  0  0  0  0  0  0  0  0  0  0
   10.2980  -15.9918   28.1037 O   0  0  0  0  0  0  0  0  0  0  0  0
   10.7239  -13.7827   28.1714 O   0  0  0  0  0  0  0  0  0  0  0  0
  2  1  1  6
  2  3  1  0
  4  3  1  0
  5  6  2  0
  5  4  1  0
  7  8  2  0
  7  2  1  0
  9  5  1  0
 10  7  1  0
 11 10  1  0
 11 12  1  1
 13 14  2  0
 13 12  1  0
 15 16  2  0
 15 11  1  0
 17 13  1  0
 18 19  1  0
 19 20  1  0
 20 21  1  6
 22 20  1  0
 22 23  1  1
 23 15  1  0
 24 22  1  0
 25 24  1  0
 26 24  2  0
M  END
$$$$
