EDI.pdb
     RDKit          3D

 26 25  0  0  1  0  0  0  0  0999 V2000
    8.4139  -17.0019   19.5078 N   0  0  0  0  0  0  0  0  0  0  0  0
    9.4274  -17.1346   20.5351 C   0  0  1  0  0  0  0  0  0  0  0  0
   10.5768  -16.2391   20.2123 C   0  0  0  0  0  0  0  0  0  0  0  0
   11.6731  -16.2562   21.2316 C   0  0  0  0  0  0  0  0  0  0  0  0
   12.9833  -16.3605   20.4935 C   0  0  0  0  0  0  0  0  0  0  0  0
   13.0644  -15.9999   19.2927 O   0  0  0  0  0  0  0  0  0  0  0  0
    8.8062  -16.9132   21.8435 C   0  0  0  0  0  0  0  0  0  0  0  0
    8.0905  -15.9012   22.1093 O   0  0  0  0  0  0  0  0  0  0  0  0
   14.1197  -16.8505   21.1116 O   0  0  0  0  0  0  0  0  0  0  0  0
    8.9587  -17.8327   22.9420 N   0  0  0  0  0  0  0  0  0  0  0  0
    8.2692  -17.7231   24.1792 C   0  0  1  0  0  0  0  0  0  0  0  0
    8.1181  -19.0064   24.9437 C   0  0  0  0  0  0  0  0  0  0  0  0
    7.2213  -18.8577   26.1208 C   0  0  0  0  0  0  0  0  0  0  0  0
    6.6205  -17.7926   26.3142 O   0  0  0  0  0  0  0  0  0  0  0  0
    8.7537  -16.6085   25.0340 C   0  0  0  0  0  0  0  0  0  0  0  0
    9.9837  -16.2503   25.0333 O   0  0  0  0  0  0  0  0  0  0  0  0
    7.0521  -19.9097   27.0086 O   0  0  0  0  0  0  0  0  0  0  0  0
    5.1768  -12.5904   26.5995 C   0  0  0  0  0  0  0  0  0  0  0  0
    6.3727  -13.3187   26.0420 C   0  0  0  0  0  0  0  0  0  0  0  0
    7.2438  -13.8520   27.1154 C   0  0  2  0  0  0  0  0  0  0  0  0
    7.8599  -12.6996   27.9032 C   0  0  0  0  0  0  0  0  0  0  0  0
    8.3536  -14.7531   26.6999 C   0  0  2  0  0  0  0  0  0  0  0  0
    7.9147  -15.8718   25.8959 N   0  0  0  0  0  0  0  0  0  0  0  0
    9.2795  -15.1583   27.7739 C   0  0  0  0  0  0  0  0  0  0  0  0
   10.0804  -14.1737   28.3876 O   0  0  0  0  0  0  0  0  0  0  0  0
    9.4173  -16.3159   28.1937 O   0  0  0  0  0  0  0  0  0  0  0  0
  2  1  1  6
  2  3  1  0
  4  3  1  0
  5  6  2  0
  5  4  1  0
  7  8  2  0
  7  2  1  0
  9  5  1  0
 10  7  1  0
 11 10  1  0
 11 12  1  1
 13 14  2  0
 13 12  1  0
 15 16  2  0
 15 11  1  0
 17 13  1  0
 18 19  1  0
 19 20  1  0
 20 21  1  6
 22 20  1  0
 22 23  1  1
 23 15  1  0
 24 22  1  0
 25 24  1  0
 26 24  2  0
M  END
$$$$
