EDI.pdb
     RDKit          3D

 26 25  0  0  1  0  0  0  0  0999 V2000
   -1.4602  -27.6541   30.7882 N   0  0  0  0  0  0  0  0  0  0  0  0
   -1.4196  -26.5720   29.8251 C   0  0  1  0  0  0  0  0  0  0  0  0
   -0.6450  -27.0079   28.6263 C   0  0  0  0  0  0  0  0  0  0  0  0
    0.7745  -27.3845   28.9165 C   0  0  0  0  0  0  0  0  0  0  0  0
    1.4164  -27.7898   27.6142 C   0  0  0  0  0  0  0  0  0  0  0  0
    2.5786  -27.4035   27.3336 O   0  0  0  0  0  0  0  0  0  0  0  0
   -2.7891  -26.1236   29.5597 C   0  0  0  0  0  0  0  0  0  0  0  0
   -3.0888  -25.3294   28.6183 O   0  0  0  0  0  0  0  0  0  0  0  0
    0.7507  -28.5894   26.7026 O   0  0  0  0  0  0  0  0  0  0  0  0
   -3.9141  -26.5509   30.3517 N   0  0  0  0  0  0  0  0  0  0  0  0
   -5.2545  -26.1375   30.1268 C   0  0  1  0  0  0  0  0  0  0  0  0
   -6.3083  -27.0612   30.6655 C   0  0  0  0  0  0  0  0  0  0  0  0
   -7.6823  -26.6116   30.3164 C   0  0  0  0  0  0  0  0  0  0  0  0
   -7.8750  -25.9340   29.2983 O   0  0  0  0  0  0  0  0  0  0  0  0
   -5.5079  -24.7182   30.4864 C   0  0  0  0  0  0  0  0  0  0  0  0
   -5.3186  -24.2854   31.6772 O   0  0  0  0  0  0  0  0  0  0  0  0
   -8.7556  -26.9479   31.1280 O   0  0  0  0  0  0  0  0  0  0  0  0
   -4.8053  -20.4020   26.8785 C   0  0  0  0  0  0  0  0  0  0  0  0
   -5.6359  -21.4354   27.5953 C   0  0  0  0  0  0  0  0  0  0  0  0
   -5.3877  -21.4267   29.0560 C   0  0  2  0  0  0  0  0  0  0  0  0
   -3.9164  -21.7213   29.3333 C   0  0  0  0  0  0  0  0  0  0  0  0
   -6.1950  -22.3638   29.8843 C   0  0  2  0  0  0  0  0  0  0  0  0
   -5.9675  -23.7553   29.5639 N   0  0  0  0  0  0  0  0  0  0  0  0
   -7.6287  -22.0376   29.9985 C   0  0  0  0  0  0  0  0  0  0  0  0
   -8.5783  -23.0063   29.6147 O   0  0  0  0  0  0  0  0  0  0  0  0
   -8.0814  -20.9612   30.4126 O   0  0  0  0  0  0  0  0  0  0  0  0
  2  1  1  1
  2  3  1  0
  4  3  1  0
  5  6  2  0
  5  4  1  0
  7  8  2  0
  7  2  1  0
  9  5  1  0
 10  7  1  0
 11 10  1  0
 11 12  1  1
 13 14  2  0
 13 12  1  0
 15 16  2  0
 15 11  1  0
 17 13  1  0
 18 19  1  0
 19 20  1  0
 20 21  1  6
 22 20  1  0
 22 23  1  6
 23 15  1  0
 24 22  1  0
 25 24  1  0
 26 24  2  0
M  END
$$$$
