EDI.pdb
     RDKit          3D

 26 25  0  0  1  0  0  0  0  0999 V2000
    9.1368  -15.9626   18.9971 N   0  0  0  0  0  0  0  0  0  0  0  0
    7.9087  -15.8940   19.7632 C   0  0  1  0  0  0  0  0  0  0  0  0
    6.8744  -16.7524   19.1145 C   0  0  0  0  0  0  0  0  0  0  0  0
    7.1521  -18.2207   19.2031 C   0  0  0  0  0  0  0  0  0  0  0  0
    6.0480  -18.9407   18.4718 C   0  0  0  0  0  0  0  0  0  0  0  0
    6.3158  -19.6908   17.5001 O   0  0  0  0  0  0  0  0  0  0  0  0
    8.2052  -16.2152   21.1618 C   0  0  0  0  0  0  0  0  0  0  0  0
    7.3375  -16.1633   22.0844 O   0  0  0  0  0  0  0  0  0  0  0  0
    4.7242  -18.7968   18.8467 O   0  0  0  0  0  0  0  0  0  0  0  0
    9.5149  -16.6187   21.6057 N   0  0  0  0  0  0  0  0  0  0  0  0
    9.8366  -16.9560   22.9477 C   0  0  1  0  0  0  0  0  0  0  0  0
   11.0768  -17.7843   23.1199 C   0  0  0  0  0  0  0  0  0  0  0  0
   11.1032  -18.9551   22.2032 C   0  0  0  0  0  0  0  0  0  0  0  0
   10.0538  -19.5493   21.9230 O   0  0  0  0  0  0  0  0  0  0  0  0
    9.7947  -15.7987   23.8787 C   0  0  0  0  0  0  0  0  0  0  0  0
   10.6871  -14.8803   23.8454 O   0  0  0  0  0  0  0  0  0  0  0  0
   12.3020  -19.3888   21.6568 O   0  0  0  0  0  0  0  0  0  0  0  0
    6.5349  -11.5432   26.4361 C   0  0  0  0  0  0  0  0  0  0  0  0
    7.6763  -12.4903   26.7039 C   0  0  0  0  0  0  0  0  0  0  0  0
    7.6894  -13.6228   25.7487 C   0  0  2  0  0  0  0  0  0  0  0  0
    6.3866  -14.4093   25.8596 C   0  0  0  0  0  0  0  0  0  0  0  0
    8.8102  -14.5952   25.8687 C   0  0  2  0  0  0  0  0  0  0  0  0
    8.7895  -15.6237   24.8526 N   0  0  0  0  0  0  0  0  0  0  0  0
    9.0364  -15.1409   27.2200 C   0  0  0  0  0  0  0  0  0  0  0  0
    9.4168  -14.2603   28.2532 O   0  0  0  0  0  0  0  0  0  0  0  0
    8.9179  -16.3337   27.5334 O   0  0  0  0  0  0  0  0  0  0  0  0
  2  1  1  6
  2  3  1  0
  4  3  1  0
  5  6  2  0
  5  4  1  0
  7  8  2  0
  7  2  1  0
  9  5  1  0
 10  7  1  0
 11 10  1  0
 11 12  1  6
 13 14  2  0
 13 12  1  0
 15 16  2  0
 15 11  1  0
 17 13  1  0
 18 19  1  0
 19 20  1  0
 20 21  1  1
 22 20  1  0
 22 23  1  6
 23 15  1  0
 24 22  1  0
 25 24  1  0
 26 24  2  0
M  END
$$$$
