EDI.pdb
     RDKit          3D

 26 25  0  0  1  0  0  0  0  0999 V2000
    9.7839  -14.9949   19.4606 N   0  0  0  0  0  0  0  0  0  0  0  0
    8.4641  -14.9900   20.0590 C   0  0  1  0  0  0  0  0  0  0  0  0
    7.4783  -15.5406   19.0832 C   0  0  0  0  0  0  0  0  0  0  0  0
    7.9617  -15.5588   17.6665 C   0  0  0  0  0  0  0  0  0  0  0  0
    6.8769  -16.1741   16.8200 C   0  0  0  0  0  0  0  0  0  0  0  0
    6.3676  -15.5248   15.8726 O   0  0  0  0  0  0  0  0  0  0  0  0
    8.5269  -15.6835   21.3483 C   0  0  0  0  0  0  0  0  0  0  0  0
    7.5188  -15.8428   22.1001 O   0  0  0  0  0  0  0  0  0  0  0  0
    6.4176  -17.4566   17.0606 O   0  0  0  0  0  0  0  0  0  0  0  0
    9.7468  -16.2445   21.8704 N   0  0  0  0  0  0  0  0  0  0  0  0
    9.8617  -16.8658   23.1428 C   0  0  1  0  0  0  0  0  0  0  0  0
   10.8863  -17.9596   23.2309 C   0  0  0  0  0  0  0  0  0  0  0  0
   10.6344  -18.8754   24.3753 C   0  0  0  0  0  0  0  0  0  0  0  0
   10.7441  -20.0998   24.2279 O   0  0  0  0  0  0  0  0  0  0  0  0
    9.9644  -15.9017   24.2688 C   0  0  0  0  0  0  0  0  0  0  0  0
   11.0134  -15.1878   24.4452 O   0  0  0  0  0  0  0  0  0  0  0  0
   10.2755  -18.3648   25.6139 O   0  0  0  0  0  0  0  0  0  0  0  0
    6.4557  -12.1402   25.2603 C   0  0  0  0  0  0  0  0  0  0  0  0
    7.6859  -13.0033   25.1444 C   0  0  0  0  0  0  0  0  0  0  0  0
    7.9243  -13.7924   26.3757 C   0  0  2  0  0  0  0  0  0  0  0  0
    8.2007  -12.8542   27.5469 C   0  0  0  0  0  0  0  0  0  0  0  0
    9.0262  -14.7926   26.3346 C   0  0  2  0  0  0  0  0  0  0  0  0
    8.9360  -15.7005   25.2129 N   0  0  0  0  0  0  0  0  0  0  0  0
    9.2996  -15.4898   27.6050 C   0  0  0  0  0  0  0  0  0  0  0  0
    9.2055  -16.8960   27.6420 O   0  0  0  0  0  0  0  0  0  0  0  0
    9.6125  -14.9339   28.6672 O   0  0  0  0  0  0  0  0  0  0  0  0
  2  1  1  6
  2  3  1  0
  4  3  1  0
  5  6  2  0
  5  4  1  0
  7  8  2  0
  7  2  1  0
  9  5  1  0
 10  7  1  0
 11 10  1  0
 11 12  1  6
 13 14  2  0
 13 12  1  0
 15 16  2  0
 15 11  1  0
 17 13  1  0
 18 19  1  0
 19 20  1  0
 20 21  1  1
 22 20  1  0
 22 23  1  6
 23 15  1  0
 24 22  1  0
 25 24  1  0
 26 24  2  0
M  END
$$$$
