AME.pdb
     RDKit          3D

 23 22  0  0  1  0  0  0  0  0999 V2000
    7.7103  -14.1507   19.6557 C   0  0  0  0  0  0  0  0  0  0  0  0
    8.1963  -15.2789   20.5025 C   0  0  2  0  0  0  0  0  0  0  0  0
    7.1637  -16.3158   20.5975 N   0  0  0  0  0  0  0  0  0  0  0  0
    8.5466  -14.7776   21.8549 C   0  0  0  0  0  0  0  0  0  0  0  0
    9.5638  -14.0798   22.0019 O   0  0  0  0  0  0  0  0  0  0  0  0
    7.4176  -11.1281   28.0183 C   0  0  0  0  0  0  0  0  0  0  0  0
    7.0755  -11.6947   26.3420 S   0  0  0  0  0  0  0  0  0  0  0  0
    7.0191  -13.5077   26.3348 C   0  0  0  0  0  0  0  0  0  0  0  0
    6.7648  -14.0380   24.9457 C   0  0  0  0  0  0  0  0  0  0  0  0
    8.0015  -14.5814   24.3098 C   0  0  2  0  0  0  0  0  0  0  0  0
    7.7401  -15.0844   22.9645 N   0  0  0  0  0  0  0  0  0  0  0  0
    8.7199  -15.5943   25.0884 C   0  0  0  0  0  0  0  0  0  0  0  0
    8.1796  -16.6542   25.5229 O   0  0  0  0  0  0  0  0  0  0  0  0
   10.0899  -15.4019   25.3841 N   0  0  0  0  0  0  0  0  0  0  0  0
   10.9435  -16.4166   26.0048 C   0  0  1  0  0  0  0  0  0  0  0  0
   12.3444  -16.3470   25.5701 C   0  0  0  0  0  0  0  0  0  0  0  0
   12.7072  -16.3163   24.1503 C   0  0  0  0  0  0  0  0  0  0  0  0
   14.0897  -16.0547   23.7738 C   0  0  0  0  0  0  0  0  0  0  0  0
   14.9554  -15.8142   24.6405 O   0  0  0  0  0  0  0  0  0  0  0  0
   10.6602  -16.5657   27.4339 C   0  0  0  0  0  0  0  0  0  0  0  0
    9.7697  -15.8018   28.1652 O   0  0  0  0  0  0  0  0  0  0  0  0
   14.5201  -16.0572   22.4557 O   0  0  0  0  0  0  0  0  0  0  0  0
   11.2692  -17.4609   28.0706 O   0  0  0  0  0  0  0  0  0  0  0  0
  2  1  1  6
  2  3  1  0
  4  5  2  0
  4  2  1  0
  7  8  1  0
  7  6  1  0
  8  9  1  0
 10  9  1  1
 10 11  1  0
 11  4  1  0
 12 10  1  0
 12 14  1  0
 13 12  2  0
 15 14  1  0
 15 20  1  0
 16 17  1  0
 15 16  1  1
 18 22  1  0
 18 17  1  0
 19 18  2  0
 20 21  1  0
 23 20  2  0
M  END
$$$$
