AME.pdb
     RDKit          3D

 23 22  0  0  1  0  0  0  0  0999 V2000
    6.8466  -16.4996   19.9667 C   0  0  0  0  0  0  0  0  0  0  0  0
    7.5165  -17.0927   21.1607 C   0  0  2  0  0  0  0  0  0  0  0  0
    6.5146  -17.6683   22.0637 N   0  0  0  0  0  0  0  0  0  0  0  0
    8.3038  -16.0501   21.8650 C   0  0  0  0  0  0  0  0  0  0  0  0
    9.3563  -15.6320   21.3543 O   0  0  0  0  0  0  0  0  0  0  0  0
    5.6687  -12.8190   26.9337 C   0  0  0  0  0  0  0  0  0  0  0  0
    6.8968  -11.6295   26.3636 S   0  0  0  0  0  0  0  0  0  0  0  0
    8.1216  -12.4935   25.3421 C   0  0  0  0  0  0  0  0  0  0  0  0
    7.4839  -13.6165   24.5624 C   0  0  0  0  0  0  0  0  0  0  0  0
    8.4750  -14.3711   23.7395 C   0  0  2  0  0  0  0  0  0  0  0  0
    7.8696  -15.5347   23.0985 N   0  0  0  0  0  0  0  0  0  0  0  0
    9.7020  -14.7692   24.4354 C   0  0  0  0  0  0  0  0  0  0  0  0
   10.4265  -13.9629   25.0903 O   0  0  0  0  0  0  0  0  0  0  0  0
   10.1215  -16.1194   24.3883 N   0  0  0  0  0  0  0  0  0  0  0  0
   11.3156  -16.6294   25.0647 C   0  0  1  0  0  0  0  0  0  0  0  0
   11.0234  -17.3069   26.3344 C   0  0  0  0  0  0  0  0  0  0  0  0
   10.0989  -18.4421   26.4039 C   0  0  0  0  0  0  0  0  0  0  0  0
    9.9342  -19.1504   27.6660 C   0  0  0  0  0  0  0  0  0  0  0  0
   10.5983  -18.8286   28.6729 O   0  0  0  0  0  0  0  0  0  0  0  0
   12.2410  -17.2687   24.1266 C   0  0  0  0  0  0  0  0  0  0  0  0
   11.9761  -17.5582   22.8010 O   0  0  0  0  0  0  0  0  0  0  0  0
    9.0466  -20.2041   27.8230 O   0  0  0  0  0  0  0  0  0  0  0  0
   13.3816  -17.5904   24.5427 O   0  0  0  0  0  0  0  0  0  0  0  0
  2  1  1  6
  2  3  1  0
  4  5  2  0
  4  2  1  0
  7  8  1  0
  7  6  1  0
  8  9  1  0
 10  9  1  1
 10 11  1  0
 11  4  1  0
 12 10  1  0
 12 14  1  0
 13 12  2  0
 15 14  1  0
 15 20  1  0
 16 17  1  0
 15 16  1  1
 18 22  1  0
 18 17  1  0
 19 18  2  0
 20 21  1  0
 23 20  2  0
M  END
$$$$
