AME.pdb
     RDKit          3D

 23 22  0  0  1  0  0  0  0  0999 V2000
    5.6663  -16.6125   20.5165 C   0  0  0  0  0  0  0  0  0  0  0  0
    7.1403  -16.6596   20.7435 C   0  0  2  0  0  0  0  0  0  0  0  0
    7.5015  -17.9000   21.4374 N   0  0  0  0  0  0  0  0  0  0  0  0
    7.5637  -15.4824   21.5421 C   0  0  0  0  0  0  0  0  0  0  0  0
    7.2984  -14.3401   21.1321 O   0  0  0  0  0  0  0  0  0  0  0  0
    6.4075  -11.3359   27.4197 C   0  0  0  0  0  0  0  0  0  0  0  0
    6.1002  -12.6717   26.2495 S   0  0  0  0  0  0  0  0  0  0  0  0
    7.4905  -12.7668   25.0884 C   0  0  0  0  0  0  0  0  0  0  0  0
    7.2588  -13.8359   24.0496 C   0  0  0  0  0  0  0  0  0  0  0  0
    8.5144  -14.5581   23.6878 C   0  0  2  0  0  0  0  0  0  0  0  0
    8.2586  -15.6494   22.7525 N   0  0  0  0  0  0  0  0  0  0  0  0
    9.3099  -15.0477   24.8173 C   0  0  0  0  0  0  0  0  0  0  0  0
    9.6373  -14.3265   25.8056 O   0  0  0  0  0  0  0  0  0  0  0  0
    9.7482  -16.3927   24.8283 N   0  0  0  0  0  0  0  0  0  0  0  0
    9.8722  -17.2031   26.0413 C   0  0  1  0  0  0  0  0  0  0  0  0
    8.7306  -18.0994   26.2645 C   0  0  0  0  0  0  0  0  0  0  0  0
    8.3240  -19.0889   25.2626 C   0  0  0  0  0  0  0  0  0  0  0  0
    7.3587  -20.1169   25.6274 C   0  0  0  0  0  0  0  0  0  0  0  0
    6.9166  -20.9129   24.7734 O   0  0  0  0  0  0  0  0  0  0  0  0
   11.2256  -17.7396   26.2010 C   0  0  0  0  0  0  0  0  0  0  0  0
   11.7224  -18.3548   27.3349 O   0  0  0  0  0  0  0  0  0  0  0  0
    6.8819  -20.2713   26.9203 O   0  0  0  0  0  0  0  0  0  0  0  0
   12.0215  -17.6427   25.2341 O   0  0  0  0  0  0  0  0  0  0  0  0
  2  1  1  1
  2  3  1  0
  4  5  2  0
  4  2  1  0
  7  8  1  0
  7  6  1  0
  8  9  1  0
 10  9  1  1
 10 11  1  0
 11  4  1  0
 12 10  1  0
 12 14  1  0
 13 12  2  0
 15 14  1  0
 15 20  1  0
 16 17  1  0
 15 16  1  6
 18 22  1  0
 18 17  1  0
 19 18  2  0
 20 21  1  0
 23 20  2  0
M  END
$$$$
