AME.pdb
     RDKit          3D

 23 22  0  0  1  0  0  0  0  0999 V2000
    7.8107  -12.8365   19.9640 C   0  0  0  0  0  0  0  0  0  0  0  0
    7.9887  -14.2224   20.4874 C   0  0  2  0  0  0  0  0  0  0  0  0
    6.7365  -14.9738   20.3537 N   0  0  0  0  0  0  0  0  0  0  0  0
    8.4082  -14.1723   21.9102 C   0  0  0  0  0  0  0  0  0  0  0  0
    9.5514  -13.7785   22.1953 O   0  0  0  0  0  0  0  0  0  0  0  0
    6.6123  -11.8554   27.9427 C   0  0  0  0  0  0  0  0  0  0  0  0
    7.4178  -11.8988   26.3310 S   0  0  0  0  0  0  0  0  0  0  0  0
    6.4039  -12.8835   25.1940 C   0  0  0  0  0  0  0  0  0  0  0  0
    6.7853  -14.3419   25.2499 C   0  0  0  0  0  0  0  0  0  0  0  0
    7.9185  -14.6683   24.3343 C   0  0  2  0  0  0  0  0  0  0  0  0
    7.5262  -14.5644   22.9320 N   0  0  0  0  0  0  0  0  0  0  0  0
    8.5731  -15.9577   24.5732 C   0  0  0  0  0  0  0  0  0  0  0  0
    8.0333  -17.0737   24.3137 O   0  0  0  0  0  0  0  0  0  0  0  0
    9.8765  -15.9850   25.1224 N   0  0  0  0  0  0  0  0  0  0  0  0
   10.6030  -17.2144   25.4452 C   0  0  1  0  0  0  0  0  0  0  0  0
   11.8785  -17.3446   24.7293 C   0  0  0  0  0  0  0  0  0  0  0  0
   11.9520  -17.2500   23.2684 C   0  0  0  0  0  0  0  0  0  0  0  0
   13.1255  -16.6462   22.6518 C   0  0  0  0  0  0  0  0  0  0  0  0
   13.0386  -16.0456   21.5609 O   0  0  0  0  0  0  0  0  0  0  0  0
   10.5730  -17.5029   26.8808 C   0  0  0  0  0  0  0  0  0  0  0  0
   11.0514  -18.6509   27.4844 O   0  0  0  0  0  0  0  0  0  0  0  0
   14.3855  -16.7002   23.2281 O   0  0  0  0  0  0  0  0  0  0  0  0
   10.0727  -16.6447   27.6494 O   0  0  0  0  0  0  0  0  0  0  0  0
  2  1  1  1
  2  3  1  0
  4  5  2  0
  4  2  1  0
  7  8  1  0
  7  6  1  0
  8  9  1  0
 10  9  1  1
 10 11  1  0
 11  4  1  0
 12 10  1  0
 12 14  1  0
 13 12  2  0
 15 14  1  0
 15 20  1  0
 16 17  1  0
 15 16  1  1
 18 22  1  0
 18 17  1  0
 19 18  2  0
 20 21  1  0
 23 20  2  0
M  END
$$$$
