AME.pdb
     RDKit          3D

 23 22  0  0  1  0  0  0  0  0999 V2000
    7.2184  -16.6669   20.4954 C   0  0  0  0  0  0  0  0  0  0  0  0
    7.4606  -15.2416   20.8644 C   0  0  2  0  0  0  0  0  0  0  0  0
    8.1851  -14.5605   19.7866 N   0  0  0  0  0  0  0  0  0  0  0  0
    8.2371  -15.1745   22.1275 C   0  0  0  0  0  0  0  0  0  0  0  0
    9.4780  -15.2148   22.0831 O   0  0  0  0  0  0  0  0  0  0  0  0
    6.2703  -10.3938   26.7810 C   0  0  0  0  0  0  0  0  0  0  0  0
    6.2630  -12.1920   26.9017 S   0  0  0  0  0  0  0  0  0  0  0  0
    7.3142  -12.8730   25.5896 C   0  0  0  0  0  0  0  0  0  0  0  0
    7.4236  -14.3732   25.7047 C   0  0  0  0  0  0  0  0  0  0  0  0
    8.2886  -14.9630   24.6404 C   0  0  2  0  0  0  0  0  0  0  0  0
    7.5827  -15.0657   23.3667 N   0  0  0  0  0  0  0  0  0  0  0  0
    8.9084  -16.2496   24.9704 C   0  0  0  0  0  0  0  0  0  0  0  0
    8.2984  -17.3573   24.8994 O   0  0  0  0  0  0  0  0  0  0  0  0
   10.2578  -16.2835   25.3936 N   0  0  0  0  0  0  0  0  0  0  0  0
   10.9778  -17.5117   25.7351 C   0  0  1  0  0  0  0  0  0  0  0  0
   12.2606  -17.6511   25.0342 C   0  0  0  0  0  0  0  0  0  0  0  0
   12.9278  -16.5007   24.4179 C   0  0  0  0  0  0  0  0  0  0  0  0
   14.1961  -16.6975   23.7292 C   0  0  0  0  0  0  0  0  0  0  0  0
   14.7036  -17.8341   23.6333 O   0  0  0  0  0  0  0  0  0  0  0  0
   10.9316  -17.7874   27.1728 C   0  0  0  0  0  0  0  0  0  0  0  0
   10.3540  -16.9775   28.1327 O   0  0  0  0  0  0  0  0  0  0  0  0
   14.9028  -15.6551   23.1490 O   0  0  0  0  0  0  0  0  0  0  0  0
   11.4574  -18.8484   27.5919 O   0  0  0  0  0  0  0  0  0  0  0  0
  2  1  1  6
  2  3  1  0
  4  5  2  0
  4  2  1  0
  7  8  1  0
  7  6  1  0
  8  9  1  0
 10  9  1  1
 10 11  1  0
 11  4  1  0
 12 10  1  0
 12 14  1  0
 13 12  2  0
 15 14  1  0
 15 20  1  0
 16 17  1  0
 15 16  1  1
 18 22  1  0
 18 17  1  0
 19 18  2  0
 20 21  1  0
 23 20  2  0
M  END
$$$$
