AME.pdb
     RDKit          3D

 23 22  0  0  1  0  0  0  0  0999 V2000
    7.5139  -16.8524   19.8838 C   0  0  0  0  0  0  0  0  0  0  0  0
    8.2319  -15.5531   20.0338 C   0  0  2  0  0  0  0  0  0  0  0  0
    9.3942  -15.5163   19.1404 N   0  0  0  0  0  0  0  0  0  0  0  0
    8.6618  -15.3762   21.4433 C   0  0  0  0  0  0  0  0  0  0  0  0
    9.7828  -15.7808   21.7941 O   0  0  0  0  0  0  0  0  0  0  0  0
    6.9474  -10.6869   26.4477 C   0  0  0  0  0  0  0  0  0  0  0  0
    6.4049  -12.3761   26.7644 S   0  0  0  0  0  0  0  0  0  0  0  0
    7.5518  -13.5233   25.9529 C   0  0  0  0  0  0  0  0  0  0  0  0
    7.2165  -13.6837   24.4909 C   0  0  0  0  0  0  0  0  0  0  0  0
    8.1472  -14.6201   23.7939 C   0  0  2  0  0  0  0  0  0  0  0  0
    7.8149  -14.7574   22.3790 N   0  0  0  0  0  0  0  0  0  0  0  0
    8.2836  -15.9461   24.4034 C   0  0  0  0  0  0  0  0  0  0  0  0
    7.8136  -17.0033   23.8882 O   0  0  0  0  0  0  0  0  0  0  0  0
    8.9716  -16.0794   25.6323 N   0  0  0  0  0  0  0  0  0  0  0  0
    9.9517  -17.1306   25.9116 C   0  0  1  0  0  0  0  0  0  0  0  0
   10.8783  -17.3761   24.7992 C   0  0  0  0  0  0  0  0  0  0  0  0
   10.7083  -18.5181   23.8962 C   0  0  0  0  0  0  0  0  0  0  0  0
   11.8859  -19.1486   23.3155 C   0  0  0  0  0  0  0  0  0  0  0  0
   13.0335  -18.7476   23.5999 O   0  0  0  0  0  0  0  0  0  0  0  0
   10.4974  -17.0194   27.2662 C   0  0  0  0  0  0  0  0  0  0  0  0
   10.5820  -15.8576   28.0105 O   0  0  0  0  0  0  0  0  0  0  0  0
   11.8058  -20.2120   22.4293 O   0  0  0  0  0  0  0  0  0  0  0  0
   10.9323  -18.0600   27.8192 O   0  0  0  0  0  0  0  0  0  0  0  0
  2  1  1  1
  2  3  1  0
  4  5  2  0
  4  2  1  0
  7  8  1  0
  7  6  1  0
  8  9  1  0
 10  9  1  1
 10 11  1  0
 11  4  1  0
 12 10  1  0
 12 14  1  0
 13 12  2  0
 15 14  1  0
 15 20  1  0
 16 17  1  0
 15 16  1  6
 18 22  1  0
 18 17  1  0
 19 18  2  0
 20 21  1  0
 23 20  2  0
M  END
$$$$
