AME.pdb
     RDKit          3D

 23 22  0  0  1  0  0  0  0  0999 V2000
    7.7490  -15.0202   18.9538 C   0  0  0  0  0  0  0  0  0  0  0  0
    7.7601  -16.0305   20.0517 C   0  0  2  0  0  0  0  0  0  0  0  0
    6.3943  -16.4890   20.3253 N   0  0  0  0  0  0  0  0  0  0  0  0
    8.3573  -15.4376   21.2743 C   0  0  0  0  0  0  0  0  0  0  0  0
    9.5549  -15.1072   21.2692 O   0  0  0  0  0  0  0  0  0  0  0  0
    6.8668  -11.7649   28.1014 C   0  0  0  0  0  0  0  0  0  0  0  0
    6.1877  -12.5048   26.6049 S   0  0  0  0  0  0  0  0  0  0  0  0
    7.5199  -13.3524   25.7121 C   0  0  0  0  0  0  0  0  0  0  0  0
    7.0197  -13.9325   24.4125 C   0  0  0  0  0  0  0  0  0  0  0  0
    8.0972  -14.6294   23.6494 C   0  0  2  0  0  0  0  0  0  0  0  0
    7.5822  -15.2479   22.4314 N   0  0  0  0  0  0  0  0  0  0  0  0
    8.8799  -15.6071   24.4108 C   0  0  0  0  0  0  0  0  0  0  0  0
    8.4211  -16.7242   24.7925 O   0  0  0  0  0  0  0  0  0  0  0  0
   10.2211  -15.3118   24.7504 N   0  0  0  0  0  0  0  0  0  0  0  0
   11.2231  -16.3257   25.0842 C   0  0  1  0  0  0  0  0  0  0  0  0
   12.5414  -16.0610   24.4939 C   0  0  0  0  0  0  0  0  0  0  0  0
   13.6866  -16.9398   24.7477 C   0  0  0  0  0  0  0  0  0  0  0  0
   14.9815  -16.6075   24.1693 C   0  0  0  0  0  0  0  0  0  0  0  0
   15.1045  -15.6449   23.3839 O   0  0  0  0  0  0  0  0  0  0  0  0
   11.1526  -16.7166   26.4939 C   0  0  0  0  0  0  0  0  0  0  0  0
   10.6962  -15.9239   27.5304 O   0  0  0  0  0  0  0  0  0  0  0  0
   16.1339  -17.3255   24.4508 O   0  0  0  0  0  0  0  0  0  0  0  0
   11.5359  -17.8701   26.8109 O   0  0  0  0  0  0  0  0  0  0  0  0
  2  1  1  6
  2  3  1  0
  4  5  2  0
  4  2  1  0
  7  8  1  0
  7  6  1  0
  8  9  1  0
 10  9  1  1
 10 11  1  0
 11  4  1  0
 12 10  1  0
 12 14  1  0
 13 12  2  0
 15 14  1  0
 15 20  1  0
 16 17  1  0
 15 16  1  1
 18 22  1  0
 18 17  1  0
 19 18  2  0
 20 21  1  0
 23 20  2  0
M  END
$$$$
