AME.pdb
     RDKit          3D

 23 22  0  0  1  0  0  0  0  0999 V2000
    7.6065  -13.7122   18.8398 C   0  0  0  0  0  0  0  0  0  0  0  0
    7.7517  -14.9568   19.6498 C   0  0  2  0  0  0  0  0  0  0  0  0
    6.4371  -15.5683   19.8699 N   0  0  0  0  0  0  0  0  0  0  0  0
    8.3940  -14.6385   20.9495 C   0  0  0  0  0  0  0  0  0  0  0  0
    9.5860  -14.2894   20.9711 O   0  0  0  0  0  0  0  0  0  0  0  0
    6.0186  -12.5821   27.9571 C   0  0  0  0  0  0  0  0  0  0  0  0
    6.4393  -11.9264   26.3319 S   0  0  0  0  0  0  0  0  0  0  0  0
    7.6349  -13.0382   25.5415 C   0  0  0  0  0  0  0  0  0  0  0  0
    7.1342  -13.5086   24.1985 C   0  0  0  0  0  0  0  0  0  0  0  0
    8.1766  -14.2542   23.4329 C   0  0  2  0  0  0  0  0  0  0  0  0
    7.6675  -14.7284   22.1494 N   0  0  0  0  0  0  0  0  0  0  0  0
    8.8198  -15.3582   24.1510 C   0  0  0  0  0  0  0  0  0  0  0  0
    8.2598  -16.4744   24.3622 O   0  0  0  0  0  0  0  0  0  0  0  0
   10.1352  -15.1940   24.6450 N   0  0  0  0  0  0  0  0  0  0  0  0
   11.0300  -16.3048   24.9753 C   0  0  1  0  0  0  0  0  0  0  0  0
   12.3833  -16.1478   24.4272 C   0  0  0  0  0  0  0  0  0  0  0  0
   13.4502  -17.1061   24.7302 C   0  0  0  0  0  0  0  0  0  0  0  0
   14.7840  -16.8816   24.1896 C   0  0  0  0  0  0  0  0  0  0  0  0
   15.0465  -15.8486   23.5397 O   0  0  0  0  0  0  0  0  0  0  0  0
   10.8838  -16.7245   26.3708 C   0  0  0  0  0  0  0  0  0  0  0  0
   11.1991  -17.9718   26.8767 O   0  0  0  0  0  0  0  0  0  0  0  0
   15.8231  -17.7836   24.3612 O   0  0  0  0  0  0  0  0  0  0  0  0
   10.4340  -15.8929   27.1978 O   0  0  0  0  0  0  0  0  0  0  0  0
  2  1  1  6
  2  3  1  0
  4  5  2  0
  4  2  1  0
  7  8  1  0
  7  6  1  0
  8  9  1  0
 10  9  1  1
 10 11  1  0
 11  4  1  0
 12 10  1  0
 12 14  1  0
 13 12  2  0
 15 14  1  0
 15 20  1  0
 16 17  1  0
 15 16  1  1
 18 22  1  0
 18 17  1  0
 19 18  2  0
 20 21  1  0
 23 20  2  0
M  END
$$$$
