AME.pdb
     RDKit          3D

 23 22  0  0  1  0  0  0  0  0999 V2000
    7.9206  -13.2236   19.3763 C   0  0  0  0  0  0  0  0  0  0  0  0
    7.9798  -14.5493   20.0583 C   0  0  2  0  0  0  0  0  0  0  0  0
    6.6446  -15.1545   20.0954 N   0  0  0  0  0  0  0  0  0  0  0  0
    8.5065  -14.3828   21.4359 C   0  0  0  0  0  0  0  0  0  0  0  0
    9.7057  -14.1029   21.6004 O   0  0  0  0  0  0  0  0  0  0  0  0
    5.5942  -11.3817   26.7571 C   0  0  0  0  0  0  0  0  0  0  0  0
    7.3568  -11.7576   26.7422 S   0  0  0  0  0  0  0  0  0  0  0  0
    7.5878  -13.4682   26.1849 C   0  0  0  0  0  0  0  0  0  0  0  0
    7.1272  -13.6421   24.7589 C   0  0  0  0  0  0  0  0  0  0  0  0
    8.1191  -14.3871   23.9283 C   0  0  2  0  0  0  0  0  0  0  0  0
    7.6633  -14.5381   22.5497 N   0  0  0  0  0  0  0  0  0  0  0  0
    8.5380  -15.6876   24.4587 C   0  0  0  0  0  0  0  0  0  0  0  0
    7.7897  -16.7093   24.4744 O   0  0  0  0  0  0  0  0  0  0  0  0
    9.8418  -15.8361   24.9871 N   0  0  0  0  0  0  0  0  0  0  0  0
   10.4076  -17.1142   25.4229 C   0  0  1  0  0  0  0  0  0  0  0  0
   11.7098  -17.4146   24.8142 C   0  0  0  0  0  0  0  0  0  0  0  0
   11.8169  -18.1802   23.5689 C   0  0  0  0  0  0  0  0  0  0  0  0
   13.0781  -18.1824   22.8402 C   0  0  0  0  0  0  0  0  0  0  0  0
   13.7913  -19.2061   22.7968 O   0  0  0  0  0  0  0  0  0  0  0  0
   10.2443  -17.3183   26.8639 C   0  0  0  0  0  0  0  0  0  0  0  0
   10.3841  -18.5212   27.5306 O   0  0  0  0  0  0  0  0  0  0  0  0
   13.5537  -17.0696   22.1632 O   0  0  0  0  0  0  0  0  0  0  0  0
    9.9513  -16.3256   27.5756 O   0  0  0  0  0  0  0  0  0  0  0  0
  2  1  1  1
  2  3  1  0
  4  5  2  0
  4  2  1  0
  7  8  1  0
  7  6  1  0
  8  9  1  0
 10  9  1  1
 10 11  1  0
 11  4  1  0
 12 10  1  0
 12 14  1  0
 13 12  2  0
 15 14  1  0
 15 20  1  0
 16 17  1  0
 15 16  1  1
 18 22  1  0
 18 17  1  0
 19 18  2  0
 20 21  1  0
 23 20  2  0
M  END
$$$$
