AME.pdb
     RDKit          3D

 23 22  0  0  1  0  0  0  0  0999 V2000
    6.8844  -15.0132   20.1577 C   0  0  0  0  0  0  0  0  0  0  0  0
    7.6222  -15.9302   21.0747 C   0  0  2  0  0  0  0  0  0  0  0  0
    6.6969  -16.9062   21.6594 N   0  0  0  0  0  0  0  0  0  0  0  0
    8.2841  -15.1445   22.1458 C   0  0  0  0  0  0  0  0  0  0  0  0
    9.2080  -14.3683   21.8502 O   0  0  0  0  0  0  0  0  0  0  0  0
    7.4570  -10.9939   27.1959 C   0  0  0  0  0  0  0  0  0  0  0  0
    6.0545  -11.9572   26.6015 S   0  0  0  0  0  0  0  0  0  0  0  0
    6.5790  -12.9338   25.1657 C   0  0  0  0  0  0  0  0  0  0  0  0
    7.4090  -14.1202   25.5893 C   0  0  0  0  0  0  0  0  0  0  0  0
    8.4424  -14.4820   24.5744 C   0  0  2  0  0  0  0  0  0  0  0  0
    7.8755  -15.2709   23.4847 N   0  0  0  0  0  0  0  0  0  0  0  0
    9.6385  -15.1467   25.0994 C   0  0  0  0  0  0  0  0  0  0  0  0
   10.3329  -14.6846   26.0525 O   0  0  0  0  0  0  0  0  0  0  0  0
   10.0614  -16.3702   24.5287 N   0  0  0  0  0  0  0  0  0  0  0  0
   11.2352  -17.1206   24.9787 C   0  0  1  0  0  0  0  0  0  0  0  0
   10.9001  -18.3872   25.6419 C   0  0  0  0  0  0  0  0  0  0  0  0
   10.7795  -18.4820   27.0996 C   0  0  0  0  0  0  0  0  0  0  0  0
   10.5656  -19.7855   27.7134 C   0  0  0  0  0  0  0  0  0  0  0  0
   11.4880  -20.6246   27.7736 O   0  0  0  0  0  0  0  0  0  0  0  0
   12.3012  -17.1166   23.9743 C   0  0  0  0  0  0  0  0  0  0  0  0
   13.6272  -17.4342   24.2021 O   0  0  0  0  0  0  0  0  0  0  0  0
    9.3485  -20.1661   28.2581 O   0  0  0  0  0  0  0  0  0  0  0  0
   12.0060  -16.7995   22.7953 O   0  0  0  0  0  0  0  0  0  0  0  0
  2  1  1  6
  2  3  1  0
  4  5  2  0
  4  2  1  0
  7  8  1  0
  7  6  1  0
  8  9  1  0
 10  9  1  1
 10 11  1  0
 11  4  1  0
 12 10  1  0
 12 14  1  0
 13 12  2  0
 15 14  1  0
 15 20  1  0
 16 17  1  0
 15 16  1  6
 18 22  1  0
 18 17  1  0
 19 18  2  0
 20 21  1  0
 23 20  2  0
M  END
$$$$
