AME.pdb
     RDKit          3D

 23 22  0  0  1  0  0  0  0  0999 V2000
    7.7942  -13.3406   19.1629 C   0  0  0  0  0  0  0  0  0  0  0  0
    8.0257  -14.6449   19.8494 C   0  0  2  0  0  0  0  0  0  0  0  0
    6.8161  -15.4709   19.7783 N   0  0  0  0  0  0  0  0  0  0  0  0
    8.4029  -14.4077   21.2652 C   0  0  0  0  0  0  0  0  0  0  0  0
    9.5208  -13.9331   21.5270 O   0  0  0  0  0  0  0  0  0  0  0  0
    7.6445  -11.6870   27.9962 C   0  0  0  0  0  0  0  0  0  0  0  0
    7.1486  -11.9119   26.2782 S   0  0  0  0  0  0  0  0  0  0  0  0
    7.0444  -13.6880   25.9246 C   0  0  0  0  0  0  0  0  0  0  0  0
    6.7009  -13.9345   24.4765 C   0  0  0  0  0  0  0  0  0  0  0  0
    7.8349  -14.5421   23.7191 C   0  0  2  0  0  0  0  0  0  0  0  0
    7.5096  -14.7138   22.3063 N   0  0  0  0  0  0  0  0  0  0  0  0
    8.3590  -15.7974   24.2646 C   0  0  0  0  0  0  0  0  0  0  0  0
    7.6798  -16.8637   24.3400 O   0  0  0  0  0  0  0  0  0  0  0  0
    9.6908  -15.8473   24.7393 N   0  0  0  0  0  0  0  0  0  0  0  0
   10.6220  -16.9395   24.4507 C   0  0  1  0  0  0  0  0  0  0  0  0
   10.6021  -17.3687   23.0465 C   0  0  0  0  0  0  0  0  0  0  0  0
   10.1248  -18.6987   22.6569 C   0  0  0  0  0  0  0  0  0  0  0  0
   10.3030  -19.1449   21.2819 C   0  0  0  0  0  0  0  0  0  0  0  0
   10.8963  -18.4301   20.4479 O   0  0  0  0  0  0  0  0  0  0  0  0
   11.9177  -16.7362   25.1026 C   0  0  0  0  0  0  0  0  0  0  0  0
   12.7311  -15.6281   24.9557 O   0  0  0  0  0  0  0  0  0  0  0  0
    9.8343  -20.3672   20.8246 O   0  0  0  0  0  0  0  0  0  0  0  0
   12.3463  -17.6360   25.8671 O   0  0  0  0  0  0  0  0  0  0  0  0
  2  1  1  1
  2  3  1  0
  4  5  2  0
  4  2  1  0
  7  8  1  0
  7  6  1  0
  8  9  1  0
 10  9  1  1
 10 11  1  0
 11  4  1  0
 12 10  1  0
 12 14  1  0
 13 12  2  0
 15 14  1  0
 15 20  1  0
 16 17  1  0
 15 16  1  6
 18 22  1  0
 18 17  1  0
 19 18  2  0
 20 21  1  0
 23 20  2  0
M  END
$$$$
