AME.pdb
     RDKit          3D

 23 22  0  0  1  0  0  0  0  0999 V2000
    6.4142  -16.7394   20.3664 C   0  0  0  0  0  0  0  0  0  0  0  0
    7.1050  -15.4203   20.2717 C   0  0  2  0  0  0  0  0  0  0  0  0
    7.9568  -15.3846   19.0786 N   0  0  0  0  0  0  0  0  0  0  0  0
    7.9194  -15.1908   21.4911 C   0  0  0  0  0  0  0  0  0  0  0  0
    9.1004  -15.5755   21.5169 O   0  0  0  0  0  0  0  0  0  0  0  0
    5.5769  -11.8800   26.7270 C   0  0  0  0  0  0  0  0  0  0  0  0
    7.3554  -11.7893   27.0039 S   0  0  0  0  0  0  0  0  0  0  0  0
    8.1710  -13.0663   26.0067 C   0  0  0  0  0  0  0  0  0  0  0  0
    7.4480  -13.2797   24.7001 C   0  0  0  0  0  0  0  0  0  0  0  0
    8.1058  -14.3152   23.8493 C   0  0  2  0  0  0  0  0  0  0  0  0
    7.3677  -14.5445   22.6108 N   0  0  0  0  0  0  0  0  0  0  0  0
    8.3793  -15.5951   24.5091 C   0  0  0  0  0  0  0  0  0  0  0  0
    7.5000  -16.4877   24.6935 O   0  0  0  0  0  0  0  0  0  0  0  0
    9.6861  -15.8725   24.9744 N   0  0  0  0  0  0  0  0  0  0  0  0
   10.0960  -17.1568   25.5454 C   0  0  1  0  0  0  0  0  0  0  0  0
   11.0826  -17.8723   24.7262 C   0  0  0  0  0  0  0  0  0  0  0  0
   12.2167  -17.1781   24.1095 C   0  0  0  0  0  0  0  0  0  0  0  0
   13.1090  -17.9165   23.2262 C   0  0  0  0  0  0  0  0  0  0  0  0
   13.5392  -17.4016   22.1735 O   0  0  0  0  0  0  0  0  0  0  0  0
   10.3208  -17.0631   26.9896 C   0  0  0  0  0  0  0  0  0  0  0  0
   10.5812  -18.1235   27.8374 O   0  0  0  0  0  0  0  0  0  0  0  0
   13.5273  -19.2108   23.4959 O   0  0  0  0  0  0  0  0  0  0  0  0
   10.2776  -15.9279   27.5256 O   0  0  0  0  0  0  0  0  0  0  0  0
  2  1  1  1
  2  3  1  0
  4  5  2  0
  4  2  1  0
  7  8  1  0
  7  6  1  0
  8  9  1  0
 10  9  1  1
 10 11  1  0
 11  4  1  0
 12 10  1  0
 12 14  1  0
 13 12  2  0
 15 14  1  0
 15 20  1  0
 16 17  1  0
 15 16  1  6
 18 22  1  0
 18 17  1  0
 19 18  2  0
 20 21  1  0
 23 20  2  0
M  END
$$$$
