AME.pdb
     RDKit          3D

 23 22  0  0  1  0  0  0  0  0999 V2000
    7.5314  -15.1009   19.6090 C   0  0  0  0  0  0  0  0  0  0  0  0
    7.4904  -13.7781   20.2978 C   0  0  2  0  0  0  0  0  0  0  0  0
    8.2101  -12.7767   19.5042 N   0  0  0  0  0  0  0  0  0  0  0  0
    8.0960  -13.8954   21.6478 C   0  0  0  0  0  0  0  0  0  0  0  0
    9.3268  -13.7851   21.7755 O   0  0  0  0  0  0  0  0  0  0  0  0
    6.2954  -10.1436   26.7958 C   0  0  0  0  0  0  0  0  0  0  0  0
    6.7583  -11.8850   26.8351 S   0  0  0  0  0  0  0  0  0  0  0  0
    6.4443  -12.6132   25.2038 C   0  0  0  0  0  0  0  0  0  0  0  0
    6.8312  -14.0710   25.1758 C   0  0  0  0  0  0  0  0  0  0  0  0
    7.8328  -14.3726   24.1105 C   0  0  2  0  0  0  0  0  0  0  0  0
    7.2918  -14.1287   22.7767 N   0  0  0  0  0  0  0  0  0  0  0  0
    8.4328  -15.7087   24.1669 C   0  0  0  0  0  0  0  0  0  0  0  0
    7.8246  -16.7628   23.8164 O   0  0  0  0  0  0  0  0  0  0  0  0
    9.7599  -15.8561   24.6342 N   0  0  0  0  0  0  0  0  0  0  0  0
   10.4697  -17.1353   24.6926 C   0  0  1  0  0  0  0  0  0  0  0  0
   11.7748  -17.1106   24.0199 C   0  0  0  0  0  0  0  0  0  0  0  0
   12.6934  -18.2509   24.0844 C   0  0  0  0  0  0  0  0  0  0  0  0
   13.9554  -18.1909   23.3596 C   0  0  0  0  0  0  0  0  0  0  0  0
   14.2379  -17.2069   22.6451 O   0  0  0  0  0  0  0  0  0  0  0  0
   10.3770  -17.7487   26.0193 C   0  0  0  0  0  0  0  0  0  0  0  0
    9.9029  -17.1333   27.1628 O   0  0  0  0  0  0  0  0  0  0  0  0
   14.9016  -19.2029   23.4183 O   0  0  0  0  0  0  0  0  0  0  0  0
   10.7565  -18.9387   26.1519 O   0  0  0  0  0  0  0  0  0  0  0  0
  2  1  1  6
  2  3  1  0
  4  5  2  0
  4  2  1  0
  7  8  1  0
  7  6  1  0
  8  9  1  0
 10  9  1  1
 10 11  1  0
 11  4  1  0
 12 10  1  0
 12 14  1  0
 13 12  2  0
 15 14  1  0
 15 20  1  0
 16 17  1  0
 15 16  1  1
 18 22  1  0
 18 17  1  0
 19 18  2  0
 20 21  1  0
 23 20  2  0
M  END
$$$$
