KPL.pdb
     RDKit          3D

 25 25  0  0  1  0  0  0  0  0999 V2000
   24.1964  -20.5099  -16.0824 N   0  0  0  0  0  0  0  0  0  0  0  0
   25.0938  -19.7652  -15.2006 C   0  0  1  0  0  0  0  0  0  0  0  0
   24.3491  -18.5772  -14.6969 C   0  0  0  0  0  0  0  0  0  0  0  0
   22.9805  -18.3514  -15.2096 C   0  0  0  0  0  0  0  0  0  0  0  0
   21.8713  -18.9652  -14.4110 C   0  0  0  0  0  0  0  0  0  0  0  0
   20.5333  -18.5756  -15.0550 C   0  0  0  0  0  0  0  0  0  0  0  0
   19.5011  -19.3193  -14.3593 N   0  0  0  0  0  0  0  0  0  0  0  0
   25.5944  -20.6578  -14.1318 C   0  0  0  0  0  0  0  0  0  0  0  0
   24.8420  -21.6462  -13.8345 O   0  0  0  0  0  0  0  0  0  0  0  0
   26.8222  -20.4361  -13.4840 N   0  0  0  0  0  0  0  0  0  0  0  0
   27.7285  -19.3537  -13.8947 C   0  0  0  0  0  0  0  0  0  0  0  0
   29.0849  -19.9776  -13.7494 C   0  0  0  0  0  0  0  0  0  0  0  0
   28.9285  -20.7457  -12.4497 C   0  0  0  0  0  0  0  0  0  0  0  0
   27.4610  -21.0978  -12.3916 C   0  0  1  0  0  0  0  0  0  0  0  0
   26.8561  -20.7692  -11.0786 C   0  0  0  0  0  0  0  0  0  0  0  0
   26.4625  -19.5905  -10.8843 O   0  0  0  0  0  0  0  0  0  0  0  0
   27.3877  -20.7838   -5.7106 C   0  0  0  0  0  0  0  0  0  0  0  0
   27.1335  -19.7171   -6.8090 C   0  0  1  0  0  0  0  0  0  0  0  0
   28.1281  -18.6279   -6.4844 C   0  0  0  0  0  0  0  0  0  0  0  0
   27.3292  -20.4001   -8.1074 C   0  0  0  0  0  0  0  0  0  0  0  0
   26.2825  -21.2826   -8.6528 C   0  0  2  0  0  0  0  0  0  0  0  0
   26.6970  -21.7048  -10.0348 N   0  0  0  0  0  0  0  0  0  0  0  0
   24.9166  -20.8345   -8.7091 C   0  0  0  0  0  0  0  0  0  0  0  0
   24.3508  -20.1687   -9.7554 O   0  0  0  0  0  0  0  0  0  0  0  0
   24.1421  -21.0580   -7.7078 O   0  0  0  0  0  0  0  0  0  0  0  0
  2  1  1  6
  2  8  1  0
  2  3  1  0
  3  4  1  0
  4  5  1  0
  5  6  1  0
  6  7  1  0
  8 10  1  0
  9  8  2  0
 10 14  1  0
 10 11  1  0
 12 11  1  0
 13 12  1  0
 13 14  1  0
 14 15  1  1
 15 22  1  0
 15 16  2  0
 18 17  1  1
 18 20  1  0
 19 18  1  0
 21 23  1  0
 21 20  1  6
 22 21  1  0
 23 24  1  0
 25 23  2  0
M  END
$$$$
