KPL.pdb
     RDKit          3D

 25 25  0  0  1  0  0  0  0  0999 V2000
   24.0934  -20.2274  -16.8265 N   0  0  0  0  0  0  0  0  0  0  0  0
   24.9741  -19.4340  -15.9707 C   0  0  1  0  0  0  0  0  0  0  0  0
   24.2556  -18.1750  -15.6266 C   0  0  0  0  0  0  0  0  0  0  0  0
   24.2846  -17.0720  -16.6111 C   0  0  0  0  0  0  0  0  0  0  0  0
   23.7286  -17.3874  -17.9662 C   0  0  0  0  0  0  0  0  0  0  0  0
   23.8454  -16.1341  -18.8451 C   0  0  0  0  0  0  0  0  0  0  0  0
   22.5197  -15.8627  -19.3662 N   0  0  0  0  0  0  0  0  0  0  0  0
   25.3785  -20.2355  -14.7943 C   0  0  0  0  0  0  0  0  0  0  0  0
   24.5220  -21.0878  -14.3806 O   0  0  0  0  0  0  0  0  0  0  0  0
   26.6278  -20.0732  -14.1703 N   0  0  0  0  0  0  0  0  0  0  0  0
   27.6313  -19.1291  -14.6836 C   0  0  0  0  0  0  0  0  0  0  0  0
   28.9219  -19.8655  -14.4777 C   0  0  0  0  0  0  0  0  0  0  0  0
   28.7032  -20.4855  -13.1097 C   0  0  0  0  0  0  0  0  0  0  0  0
   27.2090  -20.6854  -13.0186 C   0  0  1  0  0  0  0  0  0  0  0  0
   26.6507  -20.1741  -11.7440 C   0  0  0  0  0  0  0  0  0  0  0  0
   26.3960  -18.9454  -11.6576 O   0  0  0  0  0  0  0  0  0  0  0  0
   23.0192  -20.3031  -10.4360 C   0  0  0  0  0  0  0  0  0  0  0  0
   23.4012  -20.4228   -8.9365 C   0  0  1  0  0  0  0  0  0  0  0  0
   22.2430  -21.1820   -8.3337 C   0  0  0  0  0  0  0  0  0  0  0  0
   24.7118  -21.1091   -8.8931 C   0  0  0  0  0  0  0  0  0  0  0  0
   25.9376  -20.4062   -9.3119 C   0  0  2  0  0  0  0  0  0  0  0  0
   26.3887  -20.9887  -10.6224 N   0  0  0  0  0  0  0  0  0  0  0  0
   27.0732  -20.3462   -8.4307 C   0  0  0  0  0  0  0  0  0  0  0  0
   27.1923  -19.5127   -7.3587 O   0  0  0  0  0  0  0  0  0  0  0  0
   28.0751  -21.1222   -8.6460 O   0  0  0  0  0  0  0  0  0  0  0  0
  2  1  1  6
  2  8  1  0
  2  3  1  0
  3  4  1  0
  4  5  1  0
  5  6  1  0
  6  7  1  0
  8 10  1  0
  9  8  2  0
 10 14  1  0
 10 11  1  0
 12 11  1  0
 13 12  1  0
 13 14  1  0
 14 15  1  1
 15 22  1  0
 15 16  2  0
 18 17  1  6
 18 20  1  0
 19 18  1  0
 21 23  1  0
 21 20  1  1
 22 21  1  0
 23 24  1  0
 25 23  2  0
M  END
$$$$
