KPL.pdb
     RDKit          3D

 25 25  0  0  1  0  0  0  0  0999 V2000
   19.8540  -12.0828  -19.3321 N   0  0  0  0  0  0  0  0  0  0  0  0
   19.3936  -10.6973  -19.4088 C   0  0  1  0  0  0  0  0  0  0  0  0
   18.0062  -10.6516  -18.8678 C   0  0  0  0  0  0  0  0  0  0  0  0
   17.5654  -11.7662  -18.0016 C   0  0  0  0  0  0  0  0  0  0  0  0
   17.7223  -11.5525  -16.5270 C   0  0  0  0  0  0  0  0  0  0  0  0
   16.4004  -11.9190  -15.8378 C   0  0  0  0  0  0  0  0  0  0  0  0
   16.4197  -13.3539  -15.6302 N   0  0  0  0  0  0  0  0  0  0  0  0
   20.3456   -9.8167  -18.6959 C   0  0  0  0  0  0  0  0  0  0  0  0
   21.1928  -10.4065  -17.9439 O   0  0  0  0  0  0  0  0  0  0  0  0
   20.3232   -8.4182  -18.8375 N   0  0  0  0  0  0  0  0  0  0  0  0
   19.3458   -7.7447  -19.7052 C   0  0  0  0  0  0  0  0  0  0  0  0
   20.1482   -6.6346  -20.3168 C   0  0  0  0  0  0  0  0  0  0  0  0
   20.9631   -6.1581  -19.1283 C   0  0  0  0  0  0  0  0  0  0  0  0
   21.1242   -7.3852  -18.2627 C   0  0  1  0  0  0  0  0  0  0  0  0
   20.7962   -7.1174  -16.8420 C   0  0  0  0  0  0  0  0  0  0  0  0
   19.8213   -7.7272  -16.3323 O   0  0  0  0  0  0  0  0  0  0  0  0
   20.9225   -8.5804  -12.2276 C   0  0  0  0  0  0  0  0  0  0  0  0
   22.2822   -8.1005  -12.8019 C   0  0  1  0  0  0  0  0  0  0  0  0
   23.1916   -9.2900  -12.6046 C   0  0  0  0  0  0  0  0  0  0  0  0
   22.0279   -7.7119  -14.2073 C   0  0  0  0  0  0  0  0  0  0  0  0
   21.5491   -6.3567  -14.5329 C   0  0  2  0  0  0  0  0  0  0  0  0
   21.5165   -6.2168  -16.0294 N   0  0  0  0  0  0  0  0  0  0  0  0
   22.2151   -5.2043  -13.9869 C   0  0  0  0  0  0  0  0  0  0  0  0
   23.2553   -4.5469  -14.5735 O   0  0  0  0  0  0  0  0  0  0  0  0
   21.8277   -4.7346  -12.8548 O   0  0  0  0  0  0  0  0  0  0  0  0
  2  1  1  1
  2  8  1  0
  2  3  1  0
  3  4  1  0
  4  5  1  0
  5  6  1  0
  6  7  1  0
  8 10  1  0
  9  8  2  0
 10 14  1  0
 10 11  1  0
 12 11  1  0
 13 12  1  0
 13 14  1  0
 14 15  1  1
 15 22  1  0
 15 16  2  0
 18 17  1  6
 18 20  1  0
 19 18  1  0
 21 23  1  0
 21 20  1  6
 22 21  1  0
 23 24  1  0
 25 23  2  0
M  END
$$$$
