KPL.pdb
     RDKit          3D

 25 25  0  0  1  0  0  0  0  0999 V2000
   13.3894  -26.5344   -4.6849 N   0  0  0  0  0  0  0  0  0  0  0  0
   14.7499  -26.0988   -4.3741 C   0  0  1  0  0  0  0  0  0  0  0  0
   14.7978  -24.6183   -4.5340 C   0  0  0  0  0  0  0  0  0  0  0  0
   14.4953  -24.0574   -5.8684 C   0  0  0  0  0  0  0  0  0  0  0  0
   13.4482  -22.9865   -5.9079 C   0  0  0  0  0  0  0  0  0  0  0  0
   13.2467  -22.5550   -7.3673 C   0  0  0  0  0  0  0  0  0  0  0  0
   12.2261  -21.5250   -7.3626 N   0  0  0  0  0  0  0  0  0  0  0  0
   15.1262  -26.5694   -3.0226 C   0  0  0  0  0  0  0  0  0  0  0  0
   14.1568  -26.7972   -2.2228 O   0  0  0  0  0  0  0  0  0  0  0  0
   16.4660  -26.7577   -2.6405 N   0  0  0  0  0  0  0  0  0  0  0  0
   17.5799  -26.4417   -3.5466 C   0  0  0  0  0  0  0  0  0  0  0  0
   18.5574  -27.5468   -3.2756 C   0  0  0  0  0  0  0  0  0  0  0  0
   18.4677  -27.6685   -1.7654 C   0  0  0  0  0  0  0  0  0  0  0  0
   17.0582  -27.2390   -1.4335 C   0  0  1  0  0  0  0  0  0  0  0  0
   17.0177  -26.2491   -0.3307 C   0  0  0  0  0  0  0  0  0  0  0  0
   17.1018  -25.0290   -0.6244 O   0  0  0  0  0  0  0  0  0  0  0  0
   12.9751  -25.7354    3.0440 C   0  0  0  0  0  0  0  0  0  0  0  0
   13.7396  -24.7440    2.1267 C   0  0  1  0  0  0  0  0  0  0  0  0
   14.2804  -23.7134    3.0891 C   0  0  0  0  0  0  0  0  0  0  0  0
   14.7541  -25.5425    1.4029 C   0  0  0  0  0  0  0  0  0  0  0  0
   16.0887  -25.7624    1.9882 C   0  0  2  0  0  0  0  0  0  0  0  0
   16.8899  -26.5990    1.0299 N   0  0  0  0  0  0  0  0  0  0  0  0
   16.2164  -26.3349    3.3018 C   0  0  0  0  0  0  0  0  0  0  0  0
   16.2734  -27.6692    3.5751 O   0  0  0  0  0  0  0  0  0  0  0  0
   16.2782  -25.5550    4.3219 O   0  0  0  0  0  0  0  0  0  0  0  0
  2  1  1  1
  2  8  1  0
  2  3  1  0
  3  4  1  0
  4  5  1  0
  5  6  1  0
  6  7  1  0
  8 10  1  0
  9  8  2  0
 10 14  1  0
 10 11  1  0
 12 11  1  0
 13 12  1  0
 13 14  1  0
 14 15  1  1
 15 22  1  0
 15 16  2  0
 18 17  1  1
 18 20  1  0
 19 18  1  0
 21 23  1  0
 21 20  1  6
 22 21  1  0
 23 24  1  0
 25 23  2  0
M  END
$$$$
