KPL.pdb
     RDKit          3D

 25 25  0  0  1  0  0  0  0  0999 V2000
   20.8150  -15.2396  -17.0939 N   0  0  0  0  0  0  0  0  0  0  0  0
   21.6109  -14.0755  -17.4796 C   0  0  1  0  0  0  0  0  0  0  0  0
   21.1247  -13.6168  -18.8111 C   0  0  0  0  0  0  0  0  0  0  0  0
   21.2016  -14.5688  -19.9401 C   0  0  0  0  0  0  0  0  0  0  0  0
   22.5798  -14.9047  -20.4222 C   0  0  0  0  0  0  0  0  0  0  0  0
   22.4586  -15.8478  -21.6274 C   0  0  0  0  0  0  0  0  0  0  0  0
   23.8088  -16.2020  -22.0198 N   0  0  0  0  0  0  0  0  0  0  0  0
   21.5281  -13.0439  -16.4219 C   0  0  0  0  0  0  0  0  0  0  0  0
   20.4076  -12.9580  -15.8150 O   0  0  0  0  0  0  0  0  0  0  0  0
   22.6140  -12.2107  -16.1009 N   0  0  0  0  0  0  0  0  0  0  0  0
   23.9153  -12.3437  -16.7723 C   0  0  0  0  0  0  0  0  0  0  0  0
   24.8932  -12.1005  -15.6611 C   0  0  0  0  0  0  0  0  0  0  0  0
   24.2339  -10.9503  -14.9222 C   0  0  0  0  0  0  0  0  0  0  0  0
   22.7556  -11.1410  -15.1655 C   0  0  1  0  0  0  0  0  0  0  0  0
   22.0931   -9.8906  -15.6072 C   0  0  0  0  0  0  0  0  0  0  0  0
   22.2669   -9.5138  -16.7946 O   0  0  0  0  0  0  0  0  0  0  0  0
   17.0934   -9.3189  -15.8433 C   0  0  0  0  0  0  0  0  0  0  0  0
   18.5912   -9.1628  -16.2188 C   0  0  1  0  0  0  0  0  0  0  0  0
   18.5551   -8.8062  -17.6859 C   0  0  0  0  0  0  0  0  0  0  0  0
   19.1414   -8.1250  -15.3183 C   0  0  0  0  0  0  0  0  0  0  0  0
   20.5911   -7.8626  -15.2781 C   0  0  2  0  0  0  0  0  0  0  0  0
   21.2784   -9.0994  -14.7703 N   0  0  0  0  0  0  0  0  0  0  0  0
   21.1009   -6.7320  -14.5490 C   0  0  0  0  0  0  0  0  0  0  0  0
   21.8594   -6.8035  -13.4186 O   0  0  0  0  0  0  0  0  0  0  0  0
   20.8339   -5.5456  -14.9657 O   0  0  0  0  0  0  0  0  0  0  0  0
  2  1  1  1
  2  8  1  0
  2  3  1  0
  3  4  1  0
  4  5  1  0
  5  6  1  0
  6  7  1  0
  8 10  1  0
  9  8  2  0
 10 14  1  0
 10 11  1  0
 12 11  1  0
 13 12  1  0
 13 14  1  0
 14 15  1  6
 15 22  1  0
 15 16  2  0
 18 17  1  1
 18 20  1  0
 19 18  1  0
 21 23  1  0
 21 20  1  1
 22 21  1  0
 23 24  1  0
 25 23  2  0
M  END
$$$$
