KPL.pdb
     RDKit          3D

 25 25  0  0  1  0  0  0  0  0999 V2000
   23.2821  -19.7927  -14.7436 N   0  0  0  0  0  0  0  0  0  0  0  0
   24.5685  -19.3930  -14.1753 C   0  0  1  0  0  0  0  0  0  0  0  0
   24.5566  -17.9104  -14.0287 C   0  0  0  0  0  0  0  0  0  0  0  0
   23.8018  -17.1235  -15.0276 C   0  0  0  0  0  0  0  0  0  0  0  0
   22.3167  -17.3220  -15.0329 C   0  0  0  0  0  0  0  0  0  0  0  0
   21.7045  -16.3945  -16.0920 C   0  0  0  0  0  0  0  0  0  0  0  0
   20.2798  -16.6641  -16.1119 N   0  0  0  0  0  0  0  0  0  0  0  0
   24.7995  -20.1201  -12.9073 C   0  0  0  0  0  0  0  0  0  0  0  0
   23.7902  -20.2189  -12.1308 O   0  0  0  0  0  0  0  0  0  0  0  0
   26.0497  -20.6713  -12.5763 N   0  0  0  0  0  0  0  0  0  0  0  0
   27.2106  -20.5461  -13.4698 C   0  0  0  0  0  0  0  0  0  0  0  0
   27.8837  -21.8799  -13.3351 C   0  0  0  0  0  0  0  0  0  0  0  0
   27.7609  -22.1332  -11.8437 C   0  0  0  0  0  0  0  0  0  0  0  0
   26.5000  -21.4072  -11.4384 C   0  0  1  0  0  0  0  0  0  0  0  0
   26.7011  -20.5589  -10.2394 C   0  0  0  0  0  0  0  0  0  0  0  0
   27.5821  -19.6624  -10.2870 O   0  0  0  0  0  0  0  0  0  0  0  0
   28.2900  -17.9427   -6.0405 C   0  0  0  0  0  0  0  0  0  0  0  0
   28.1898  -19.4822   -6.2094 C   0  0  1  0  0  0  0  0  0  0  0  0
   27.3958  -19.9219   -5.0023 C   0  0  0  0  0  0  0  0  0  0  0  0
   27.5473  -19.7172   -7.5219 C   0  0  0  0  0  0  0  0  0  0  0  0
   26.6326  -20.8570   -7.7128 C   0  0  2  0  0  0  0  0  0  0  0  0
   25.9593  -20.7006   -9.0478 N   0  0  0  0  0  0  0  0  0  0  0  0
   25.6228  -21.1457   -6.7297 C   0  0  0  0  0  0  0  0  0  0  0  0
   25.7821  -21.9759   -5.6604 O   0  0  0  0  0  0  0  0  0  0  0  0
   24.4648  -20.5989   -6.8418 O   0  0  0  0  0  0  0  0  0  0  0  0
  2  1  1  1
  2  8  1  0
  2  3  1  0
  3  4  1  0
  4  5  1  0
  5  6  1  0
  6  7  1  0
  8 10  1  0
  9  8  2  0
 10 14  1  0
 10 11  1  0
 12 11  1  0
 13 12  1  0
 13 14  1  0
 14 15  1  1
 15 22  1  0
 15 16  2  0
 18 17  1  1
 18 20  1  0
 19 18  1  0
 21 23  1  0
 21 20  1  1
 22 21  1  0
 23 24  1  0
 25 23  2  0
M  END
$$$$
