KPL.pdb
     RDKit          3D

 25 25  0  0  1  0  0  0  0  0999 V2000
   21.8940  -21.1420  -12.8457 N   0  0  0  0  0  0  0  0  0  0  0  0
   23.2613  -20.6278  -12.9063 C   0  0  1  0  0  0  0  0  0  0  0  0
   23.1812  -19.1477  -13.0563 C   0  0  0  0  0  0  0  0  0  0  0  0
   22.3193  -18.6078  -14.1299 C   0  0  0  0  0  0  0  0  0  0  0  0
   21.0362  -19.3423  -14.3727 C   0  0  0  0  0  0  0  0  0  0  0  0
   20.2361  -18.5858  -15.4424 C   0  0  0  0  0  0  0  0  0  0  0  0
   19.0400  -19.3641  -15.6995 N   0  0  0  0  0  0  0  0  0  0  0  0
   24.0126  -21.0706  -11.7108 C   0  0  0  0  0  0  0  0  0  0  0  0
   23.3060  -21.3802  -10.6929 O   0  0  0  0  0  0  0  0  0  0  0  0
   25.4161  -21.1492  -11.6941 N   0  0  0  0  0  0  0  0  0  0  0  0
   26.2263  -20.7550  -12.8560 C   0  0  0  0  0  0  0  0  0  0  0  0
   27.3242  -21.7771  -12.8626 C   0  0  0  0  0  0  0  0  0  0  0  0
   27.6420  -21.8914  -11.3828 C   0  0  0  0  0  0  0  0  0  0  0  0
   26.3390  -21.5712  -10.6894 C   0  0  1  0  0  0  0  0  0  0  0  0
   26.5105  -20.5774   -9.6028 C   0  0  0  0  0  0  0  0  0  0  0  0
   26.2829  -19.3680   -9.8627 O   0  0  0  0  0  0  0  0  0  0  0  0
   26.6480  -20.4658   -3.5301 C   0  0  0  0  0  0  0  0  0  0  0  0
   27.0460  -19.5618   -4.7273 C   0  0  1  0  0  0  0  0  0  0  0  0
   28.4956  -19.2337   -4.4592 C   0  0  0  0  0  0  0  0  0  0  0  0
   26.7813  -20.3502   -5.9517 C   0  0  0  0  0  0  0  0  0  0  0  0
   27.2231  -19.8568   -7.2683 C   0  0  2  0  0  0  0  0  0  0  0  0
   26.9145  -20.9123   -8.2933 N   0  0  0  0  0  0  0  0  0  0  0  0
   28.5824  -19.4263   -7.4598 C   0  0  0  0  0  0  0  0  0  0  0  0
   29.0605  -18.1826   -7.1717 O   0  0  0  0  0  0  0  0  0  0  0  0
   29.4391  -20.2530   -7.9447 O   0  0  0  0  0  0  0  0  0  0  0  0
  2  1  1  1
  2  8  1  0
  2  3  1  0
  3  4  1  0
  4  5  1  0
  5  6  1  0
  6  7  1  0
  8 10  1  0
  9  8  2  0
 10 14  1  0
 10 11  1  0
 12 11  1  0
 13 12  1  0
 13 14  1  0
 14 15  1  1
 15 22  1  0
 15 16  2  0
 18 17  1  1
 18 20  1  0
 19 18  1  0
 21 23  1  0
 21 20  1  1
 22 21  1  0
 23 24  1  0
 25 23  2  0
M  END
$$$$
