KPL.pdb
     RDKit          3D

 25 25  0  0  1  0  0  0  0  0999 V2000
   25.7760  -20.8826  -15.6687 N   0  0  0  0  0  0  0  0  0  0  0  0
   26.6103  -20.1583  -14.7112 C   0  0  1  0  0  0  0  0  0  0  0  0
   26.0059  -18.8109  -14.5140 C   0  0  0  0  0  0  0  0  0  0  0  0
   26.0521  -17.8606  -15.6461 C   0  0  0  0  0  0  0  0  0  0  0  0
   25.9105  -18.4600  -17.0119 C   0  0  0  0  0  0  0  0  0  0  0  0
   25.9066  -17.3244  -18.0449 C   0  0  0  0  0  0  0  0  0  0  0  0
   25.5987  -17.9260  -19.3278 N   0  0  0  0  0  0  0  0  0  0  0  0
   26.7379  -20.9475  -13.4660 C   0  0  0  0  0  0  0  0  0  0  0  0
   25.7761  -21.7494  -13.2146 O   0  0  0  0  0  0  0  0  0  0  0  0
   27.8482  -20.8265  -12.6123 N   0  0  0  0  0  0  0  0  0  0  0  0
   28.9747  -19.9368  -12.9306 C   0  0  0  0  0  0  0  0  0  0  0  0
   30.1653  -20.7236  -12.4688 C   0  0  0  0  0  0  0  0  0  0  0  0
   29.6568  -21.3062  -11.1628 C   0  0  0  0  0  0  0  0  0  0  0  0
   28.1657  -21.4399  -11.3624 C   0  0  1  0  0  0  0  0  0  0  0  0
   27.3945  -20.8798  -10.2271 C   0  0  0  0  0  0  0  0  0  0  0  0
   27.0871  -19.6606  -10.2618 O   0  0  0  0  0  0  0  0  0  0  0  0
   28.5045  -18.4726   -6.5242 C   0  0  0  0  0  0  0  0  0  0  0  0
   28.0315  -19.9308   -6.7665 C   0  0  1  0  0  0  0  0  0  0  0  0
   27.9274  -20.5073   -5.3744 C   0  0  0  0  0  0  0  0  0  0  0  0
   26.7611  -19.8378   -7.5203 C   0  0  0  0  0  0  0  0  0  0  0  0
   26.1084  -21.0536   -8.0378 C   0  0  2  0  0  0  0  0  0  0  0  0
   26.9857  -21.6378   -9.1097 N   0  0  0  0  0  0  0  0  0  0  0  0
   24.7620  -20.9927   -8.5409 C   0  0  0  0  0  0  0  0  0  0  0  0
   23.6351  -21.1528   -7.7908 O   0  0  0  0  0  0  0  0  0  0  0  0
   24.5704  -20.7777   -9.7937 O   0  0  0  0  0  0  0  0  0  0  0  0
  2  1  1  6
  2  8  1  0
  2  3  1  0
  3  4  1  0
  4  5  1  0
  5  6  1  0
  6  7  1  0
  8 10  1  0
  9  8  2  0
 10 14  1  0
 10 11  1  0
 12 11  1  0
 13 12  1  0
 13 14  1  0
 14 15  1  1
 15 22  1  0
 15 16  2  0
 18 17  1  1
 18 20  1  0
 19 18  1  0
 21 23  1  0
 21 20  1  6
 22 21  1  0
 23 24  1  0
 25 23  2  0
M  END
$$$$
