KPL.pdb
     RDKit          3D

 25 25  0  0  1  0  0  0  0  0999 V2000
   26.6369  -21.3399  -17.5105 N   0  0  0  0  0  0  0  0  0  0  0  0
   27.0058  -20.4871  -16.3818 C   0  0  1  0  0  0  0  0  0  0  0  0
   26.3913  -19.1487  -16.6070 C   0  0  0  0  0  0  0  0  0  0  0  0
   24.9795  -19.1015  -17.0445 C   0  0  0  0  0  0  0  0  0  0  0  0
   23.9544  -19.3533  -15.9812 C   0  0  0  0  0  0  0  0  0  0  0  0
   22.5592  -19.2233  -16.6082 C   0  0  0  0  0  0  0  0  0  0  0  0
   21.5993  -19.4500  -15.5452 N   0  0  0  0  0  0  0  0  0  0  0  0
   26.5932  -21.1321  -15.1155 C   0  0  0  0  0  0  0  0  0  0  0  0
   25.8069  -22.1319  -15.2308 O   0  0  0  0  0  0  0  0  0  0  0  0
   27.0391  -20.6769  -13.8624 N   0  0  0  0  0  0  0  0  0  0  0  0
   27.9604  -19.5379  -13.7368 C   0  0  0  0  0  0  0  0  0  0  0  0
   28.8599  -19.9558  -12.6114 C   0  0  0  0  0  0  0  0  0  0  0  0
   27.8696  -20.5840  -11.6479 C   0  0  0  0  0  0  0  0  0  0  0  0
   26.7678  -21.1186  -12.5318 C   0  0  1  0  0  0  0  0  0  0  0  0
   25.4216  -20.7251  -12.0515 C   0  0  0  0  0  0  0  0  0  0  0  0
   24.8689  -19.7285  -12.5838 O   0  0  0  0  0  0  0  0  0  0  0  0
   20.5971  -22.3259   -9.9455 C   0  0  0  0  0  0  0  0  0  0  0  0
   21.5769  -21.7284   -8.9007 C   0  0  1  0  0  0  0  0  0  0  0  0
   21.3163  -22.5477   -7.6590 C   0  0  0  0  0  0  0  0  0  0  0  0
   22.9329  -21.8537   -9.4806 C   0  0  0  0  0  0  0  0  0  0  0  0
   23.3633  -20.9640  -10.5738 C   0  0  2  0  0  0  0  0  0  0  0  0
   24.7256  -21.4061  -11.0307 N   0  0  0  0  0  0  0  0  0  0  0  0
   23.3946  -19.5393  -10.3762 C   0  0  0  0  0  0  0  0  0  0  0  0
   22.3755  -18.6829  -10.6700 O   0  0  0  0  0  0  0  0  0  0  0  0
   24.4545  -18.9971   -9.8914 O   0  0  0  0  0  0  0  0  0  0  0  0
  2  1  1  6
  2  8  1  0
  2  3  1  0
  3  4  1  0
  4  5  1  0
  5  6  1  0
  6  7  1  0
  8 10  1  0
  9  8  2  0
 10 14  1  0
 10 11  1  0
 12 11  1  0
 13 12  1  0
 13 14  1  0
 14 15  1  1
 15 22  1  0
 15 16  2  0
 18 17  1  6
 18 20  1  0
 19 18  1  0
 21 23  1  0
 21 20  1  1
 22 21  1  0
 23 24  1  0
 25 23  2  0
M  END
$$$$
