KPL.pdb
     RDKit          3D

 25 25  0  0  1  0  0  0  0  0999 V2000
   28.7371  -23.6119  -17.6261 N   0  0  0  0  0  0  0  0  0  0  0  0
   27.5729  -22.7888  -17.3030 C   0  0  1  0  0  0  0  0  0  0  0  0
   26.3755  -23.6753  -17.3148 C   0  0  0  0  0  0  0  0  0  0  0  0
   25.1301  -23.1460  -17.9110 C   0  0  0  0  0  0  0  0  0  0  0  0
   24.0245  -22.8320  -16.9498 C   0  0  0  0  0  0  0  0  0  0  0  0
   22.7809  -22.4254  -17.7528 C   0  0  0  0  0  0  0  0  0  0  0  0
   21.7526  -22.0848  -16.7888 N   0  0  0  0  0  0  0  0  0  0  0  0
   27.7953  -22.0970  -16.0139 C   0  0  0  0  0  0  0  0  0  0  0  0
   28.4273  -22.7636  -15.1265 O   0  0  0  0  0  0  0  0  0  0  0  0
   27.3429  -20.7869  -15.7785 N   0  0  0  0  0  0  0  0  0  0  0  0
   26.6225  -20.0215  -16.8065 C   0  0  0  0  0  0  0  0  0  0  0  0
   27.1573  -18.6316  -16.6271 C   0  0  0  0  0  0  0  0  0  0  0  0
   27.2100  -18.5190  -15.1145 C   0  0  0  0  0  0  0  0  0  0  0  0
   27.4326  -19.9343  -14.6365 C   0  0  1  0  0  0  0  0  0  0  0  0
   26.4964  -20.3145  -13.5518 C   0  0  0  0  0  0  0  0  0  0  0  0
   25.4060  -20.8545  -13.8704 O   0  0  0  0  0  0  0  0  0  0  0  0
   25.5522  -21.9118   -8.2364 C   0  0  0  0  0  0  0  0  0  0  0  0
   25.5995  -20.3953   -8.5630 C   0  0  1  0  0  0  0  0  0  0  0  0
   26.2061  -19.7828   -7.3229 C   0  0  0  0  0  0  0  0  0  0  0  0
   26.3969  -20.2599   -9.8026 C   0  0  0  0  0  0  0  0  0  0  0  0
   25.7851  -20.5240  -11.1172 C   0  0  2  0  0  0  0  0  0  0  0  0
   26.7601  -20.1048  -12.1819 N   0  0  0  0  0  0  0  0  0  0  0  0
   24.4983  -19.9678  -11.4403 C   0  0  0  0  0  0  0  0  0  0  0  0
   24.2901  -18.7412  -11.9973 O   0  0  0  0  0  0  0  0  0  0  0  0
   23.4393  -20.6528  -11.1915 O   0  0  0  0  0  0  0  0  0  0  0  0
  2  1  1  1
  2  8  1  0
  2  3  1  0
  3  4  1  0
  4  5  1  0
  5  6  1  0
  6  7  1  0
  8 10  1  0
  9  8  2  0
 10 14  1  0
 10 11  1  0
 12 11  1  0
 13 12  1  0
 13 14  1  0
 14 15  1  1
 15 22  1  0
 15 16  2  0
 18 17  1  1
 18 20  1  0
 19 18  1  0
 21 23  1  0
 21 20  1  1
 22 21  1  0
 23 24  1  0
 25 23  2  0
M  END
$$$$
