KPL.pdb
     RDKit          3D

 25 25  0  0  1  0  0  0  0  0999 V2000
   25.8572  -21.4147  -11.8128 N   0  0  0  0  0  0  0  0  0  0  0  0
   27.2727  -21.0744  -11.6784 C   0  0  1  0  0  0  0  0  0  0  0  0
   27.4163  -19.6189  -11.9622 C   0  0  0  0  0  0  0  0  0  0  0  0
   27.0945  -19.1460  -13.3259 C   0  0  0  0  0  0  0  0  0  0  0  0
   27.2019  -17.6685  -13.5501 C   0  0  0  0  0  0  0  0  0  0  0  0
   26.7610  -17.3601  -14.9879 C   0  0  0  0  0  0  0  0  0  0  0  0
   26.8672  -15.9242  -15.1599 N   0  0  0  0  0  0  0  0  0  0  0  0
   27.7556  -21.4756  -10.3384 C   0  0  0  0  0  0  0  0  0  0  0  0
   26.8589  -21.5960   -9.4369 O   0  0  0  0  0  0  0  0  0  0  0  0
   29.1154  -21.7128  -10.0717 N   0  0  0  0  0  0  0  0  0  0  0  0
   30.1497  -21.5196  -11.0987 C   0  0  0  0  0  0  0  0  0  0  0  0
   31.0934  -22.6573  -10.8435 C   0  0  0  0  0  0  0  0  0  0  0  0
   31.1457  -22.6744   -9.3267 C   0  0  0  0  0  0  0  0  0  0  0  0
   29.7983  -22.1462   -8.8949 C   0  0  1  0  0  0  0  0  0  0  0  0
   29.9144  -21.0854   -7.8659 C   0  0  0  0  0  0  0  0  0  0  0  0
   29.8703  -19.8859   -8.2417 O   0  0  0  0  0  0  0  0  0  0  0  0
   26.9691  -17.9619   -5.0875 C   0  0  0  0  0  0  0  0  0  0  0  0
   28.4050  -18.4109   -4.7061 C   0  0  1  0  0  0  0  0  0  0  0  0
   28.2935  -18.7519   -3.2391 C   0  0  0  0  0  0  0  0  0  0  0  0
   28.7423  -19.5381   -5.6042 C   0  0  0  0  0  0  0  0  0  0  0  0
   30.0287  -20.2440   -5.4667 C   0  0  2  0  0  0  0  0  0  0  0  0
   30.0714  -21.3460   -6.4883 N   0  0  0  0  0  0  0  0  0  0  0  0
   30.4197  -20.7925   -4.1954 C   0  0  0  0  0  0  0  0  0  0  0  0
   31.1741  -20.1483   -3.2606 O   0  0  0  0  0  0  0  0  0  0  0  0
   30.0504  -21.9846   -3.8871 O   0  0  0  0  0  0  0  0  0  0  0  0
  2  1  1  1
  2  8  1  0
  2  3  1  0
  3  4  1  0
  4  5  1  0
  5  6  1  0
  6  7  1  0
  8 10  1  0
  9  8  2  0
 10 14  1  0
 10 11  1  0
 12 11  1  0
 13 12  1  0
 13 14  1  0
 14 15  1  1
 15 22  1  0
 15 16  2  0
 18 17  1  6
 18 20  1  0
 19 18  1  0
 21 23  1  0
 21 20  1  1
 22 21  1  0
 23 24  1  0
 25 23  2  0
M  END
$$$$
