KPL.pdb
     RDKit          3D

 25 25  0  0  1  0  0  0  0  0999 V2000
   26.4702  -25.7885  -17.7045 N   0  0  0  0  0  0  0  0  0  0  0  0
   26.2087  -24.3509  -17.7522 C   0  0  1  0  0  0  0  0  0  0  0  0
   24.7534  -24.1649  -18.0119 C   0  0  0  0  0  0  0  0  0  0  0  0
   24.2497  -24.4669  -19.3690 C   0  0  0  0  0  0  0  0  0  0  0  0
   24.9660  -25.5563  -20.1072 C   0  0  0  0  0  0  0  0  0  0  0  0
   24.3117  -25.7231  -21.4859 C   0  0  0  0  0  0  0  0  0  0  0  0
   25.0712  -26.7377  -22.1902 N   0  0  0  0  0  0  0  0  0  0  0  0
   26.6814  -23.7176  -16.5011 C   0  0  0  0  0  0  0  0  0  0  0  0
   26.8938  -24.5100  -15.5222 O   0  0  0  0  0  0  0  0  0  0  0  0
   26.8873  -22.3311  -16.3942 N   0  0  0  0  0  0  0  0  0  0  0  0
   26.6481  -21.4245  -17.5268 C   0  0  0  0  0  0  0  0  0  0  0  0
   27.7649  -20.4307  -17.4035 C   0  0  0  0  0  0  0  0  0  0  0  0
   27.8083  -20.2068  -15.9030 C   0  0  0  0  0  0  0  0  0  0  0  0
   27.3239  -21.5092  -15.3112 C   0  0  1  0  0  0  0  0  0  0  0  0
   26.2794  -21.3032  -14.2796 C   0  0  0  0  0  0  0  0  0  0  0  0
   25.0825  -21.2131  -14.6558 O   0  0  0  0  0  0  0  0  0  0  0  0
   25.5638  -19.8601   -8.6429 C   0  0  0  0  0  0  0  0  0  0  0  0
   25.1758  -21.1916   -9.3394 C   0  0  1  0  0  0  0  0  0  0  0  0
   23.6937  -21.0437   -9.5896 C   0  0  0  0  0  0  0  0  0  0  0  0
   26.0246  -21.2936  -10.5476 C   0  0  0  0  0  0  0  0  0  0  0  0
   25.4520  -21.0592  -11.8852 C   0  0  2  0  0  0  0  0  0  0  0  0
   26.5525  -21.2028  -12.8992 N   0  0  0  0  0  0  0  0  0  0  0  0
   24.7395  -19.8406  -12.1628 C   0  0  0  0  0  0  0  0  0  0  0  0
   23.3885  -19.6827  -12.0733 O   0  0  0  0  0  0  0  0  0  0  0  0
   25.3978  -18.8003  -12.5329 O   0  0  0  0  0  0  0  0  0  0  0  0
  2  1  1  1
  2  8  1  0
  2  3  1  0
  3  4  1  0
  4  5  1  0
  5  6  1  0
  6  7  1  0
  8 10  1  0
  9  8  2  0
 10 14  1  0
 10 11  1  0
 12 11  1  0
 13 12  1  0
 13 14  1  0
 14 15  1  1
 15 22  1  0
 15 16  2  0
 18 17  1  6
 18 20  1  0
 19 18  1  0
 21 23  1  0
 21 20  1  1
 22 21  1  0
 23 24  1  0
 25 23  2  0
M  END
$$$$
