KPL.pdb
     RDKit          3D

 25 25  0  0  1  0  0  0  0  0999 V2000
   25.7313  -22.1828  -11.8567 N   0  0  0  0  0  0  0  0  0  0  0  0
   26.9322  -21.3635  -11.7015 C   0  0  1  0  0  0  0  0  0  0  0  0
   26.5279  -19.9370  -11.8479 C   0  0  0  0  0  0  0  0  0  0  0  0
   25.5158  -19.6077  -12.8746 C   0  0  0  0  0  0  0  0  0  0  0  0
   24.0880  -19.8467  -12.4884 C   0  0  0  0  0  0  0  0  0  0  0  0
   23.1824  -19.2486  -13.5743 C   0  0  0  0  0  0  0  0  0  0  0  0
   21.8143  -19.4876  -13.1574 N   0  0  0  0  0  0  0  0  0  0  0  0
   27.5825  -21.6739  -10.4090 C   0  0  0  0  0  0  0  0  0  0  0  0
   26.8128  -22.1175   -9.4914 O   0  0  0  0  0  0  0  0  0  0  0  0
   28.9614  -21.4953  -10.2017 N   0  0  0  0  0  0  0  0  0  0  0  0
   29.8343  -20.9388  -11.2458 C   0  0  0  0  0  0  0  0  0  0  0  0
   31.0917  -21.7430  -11.0965 C   0  0  0  0  0  0  0  0  0  0  0  0
   31.2231  -21.8242   -9.5866 C   0  0  0  0  0  0  0  0  0  0  0  0
   29.8024  -21.7598   -9.0783 C   0  0  1  0  0  0  0  0  0  0  0  0
   29.6411  -20.7713   -7.9854 C   0  0  0  0  0  0  0  0  0  0  0  0
   29.4911  -19.5617   -8.2960 O   0  0  0  0  0  0  0  0  0  0  0  0
   27.6002  -17.6174   -4.7164 C   0  0  0  0  0  0  0  0  0  0  0  0
   27.6254  -19.0503   -4.1204 C   0  0  1  0  0  0  0  0  0  0  0  0
   26.2108  -19.2585   -3.6342 C   0  0  0  0  0  0  0  0  0  0  0  0
   28.0692  -19.9480   -5.2104 C   0  0  0  0  0  0  0  0  0  0  0  0
   29.4998  -20.0685   -5.5435 C   0  0  2  0  0  0  0  0  0  0  0  0
   29.6461  -21.1113   -6.6163 N   0  0  0  0  0  0  0  0  0  0  0  0
   30.4614  -20.3467   -4.5102 C   0  0  0  0  0  0  0  0  0  0  0  0
   31.0363  -19.4132   -3.7002 O   0  0  0  0  0  0  0  0  0  0  0  0
   30.8348  -21.5607   -4.3123 O   0  0  0  0  0  0  0  0  0  0  0  0
  2  1  1  1
  2  8  1  0
  2  3  1  0
  3  4  1  0
  4  5  1  0
  5  6  1  0
  6  7  1  0
  8 10  1  0
  9  8  2  0
 10 14  1  0
 10 11  1  0
 12 11  1  0
 13 12  1  0
 13 14  1  0
 14 15  1  1
 15 22  1  0
 15 16  2  0
 18 17  1  6
 18 20  1  0
 19 18  1  0
 21 23  1  0
 21 20  1  1
 22 21  1  0
 23 24  1  0
 25 23  2  0
M  END
$$$$
