PPM.pdb
     RDKit          3D

 23 24  0  0  1  0  0  0  0  0999 V2000
    9.3844  -17.6466   18.5005 N   0  0  0  0  0  0  0  0  0  0  0  0
    8.5609  -18.5619   17.7435 C   0  0  0  0  0  0  0  0  0  0  0  0
    7.9235  -19.3577   18.8885 C   0  0  0  0  0  0  0  0  0  0  0  0
    7.6031  -18.2269   19.8601 C   0  0  0  0  0  0  0  0  0  0  0  0
    8.4076  -17.0302   19.4084 C   0  0  1  0  0  0  0  0  0  0  0  0
    9.0971  -16.3344   20.4937 C   0  0  0  0  0  0  0  0  0  0  0  0
   10.3362  -16.3922   20.5767 O   0  0  0  0  0  0  0  0  0  0  0  0
    8.3831  -15.5823   21.4704 N   0  0  0  0  0  0  0  0  0  0  0  0
    6.9606  -15.4012   21.3669 C   0  0  0  0  0  0  0  0  0  0  0  0
    6.5741  -14.4534   22.4567 C   0  0  0  0  0  0  0  0  0  0  0  0
    7.9004  -13.7776   22.8504 C   0  0  0  0  0  0  0  0  0  0  0  0
    8.8672  -14.9093   22.6202 C   0  0  1  0  0  0  0  0  0  0  0  0
    9.1482  -15.7088   23.8148 C   0  0  0  0  0  0  0  0  0  0  0  0
    8.2842  -16.5875   24.0794 O   0  0  0  0  0  0  0  0  0  0  0  0
   10.8106  -12.6838   29.1632 C   0  0  0  0  0  0  0  0  0  0  0  0
    9.9509  -13.6245   27.9011 S   0  0  0  0  0  0  0  0  0  0  0  0
   10.2213  -15.4078   28.0945 C   0  0  0  0  0  0  0  0  0  0  0  0
    9.5802  -16.1734   26.9674 C   0  0  0  0  0  0  0  0  0  0  0  0
   10.5732  -16.3732   25.8234 C   0  0  2  0  0  0  0  0  0  0  0  0
   10.2542  -15.5847   24.6583 N   0  0  0  0  0  0  0  0  0  0  0  0
   10.6039  -17.8120   25.5294 C   0  0  0  0  0  0  0  0  0  0  0  0
   11.6340  -18.5094   25.7498 O   0  0  0  0  0  0  0  0  0  0  0  0
    9.4648  -18.4217   24.9931 O   0  0  0  0  0  0  0  0  0  0  0  0
  1  2  1  0
  2  3  1  0
  4  3  1  0
  5  4  1  0
  5  1  1  0
  5  6  1  1
  6  7  2  0
  8  6  1  0
  9  8  1  0
 10 11  1  0
 10  9  1  0
 11 12  1  0
 12  8  1  0
 12 13  1  1
 13 20  1  0
 14 13  2  0
 16 17  1  0
 16 15  1  0
 18 17  1  0
 19 18  1  1
 19 21  1  0
 20 19  1  0
 21 22  2  0
 21 23  1  0
M  END
$$$$
