PPM.pdb
     RDKit          3D

 23 24  0  0  1  0  0  0  0  0999 V2000
    6.5219  -17.6260   21.4556 N   0  0  0  0  0  0  0  0  0  0  0  0
    5.3694  -18.4901   21.5735 C   0  0  0  0  0  0  0  0  0  0  0  0
    5.5888  -19.0371   22.9889 C   0  0  0  0  0  0  0  0  0  0  0  0
    6.0143  -17.7625   23.7098 C   0  0  0  0  0  0  0  0  0  0  0  0
    6.3848  -16.7644   22.6375 C   0  0  1  0  0  0  0  0  0  0  0  0
    7.6379  -16.0559   22.8933 C   0  0  0  0  0  0  0  0  0  0  0  0
    8.6550  -16.3423   22.2382 O   0  0  0  0  0  0  0  0  0  0  0  0
    7.7293  -15.0344   23.8820 N   0  0  0  0  0  0  0  0  0  0  0  0
    6.5987  -14.7016   24.7054 C   0  0  0  0  0  0  0  0  0  0  0  0
    6.9990  -13.5079   25.5116 C   0  0  0  0  0  0  0  0  0  0  0  0
    8.2124  -12.9371   24.7550 C   0  0  0  0  0  0  0  0  0  0  0  0
    8.8271  -14.2041   24.2208 C   0  0  1  0  0  0  0  0  0  0  0  0
    9.8745  -14.7678   25.0754 C   0  0  0  0  0  0  0  0  0  0  0  0
   10.8763  -14.0225   25.2469 O   0  0  0  0  0  0  0  0  0  0  0  0
   10.3924  -13.2694   29.1764 C   0  0  0  0  0  0  0  0  0  0  0  0
    9.2655  -14.6078   29.5708 S   0  0  0  0  0  0  0  0  0  0  0  0
    9.6705  -16.1174   28.6501 C   0  0  0  0  0  0  0  0  0  0  0  0
   10.9710  -15.9606   27.9073 C   0  0  0  0  0  0  0  0  0  0  0  0
   10.8801  -16.6088   26.5266 C   0  0  2  0  0  0  0  0  0  0  0  0
    9.8594  -16.0192   25.6951 N   0  0  0  0  0  0  0  0  0  0  0  0
   10.6608  -18.0452   26.7414 C   0  0  0  0  0  0  0  0  0  0  0  0
    9.6026  -18.6170   26.3550 O   0  0  0  0  0  0  0  0  0  0  0  0
   11.6482  -18.7952   27.3891 O   0  0  0  0  0  0  0  0  0  0  0  0
  1  2  1  0
  2  3  1  0
  4  3  1  0
  5  4  1  0
  5  1  1  0
  5  6  1  1
  6  7  2  0
  8  6  1  0
  9  8  1  0
 10 11  1  0
 10  9  1  0
 11 12  1  0
 12  8  1  0
 12 13  1  1
 13 20  1  0
 14 13  2  0
 16 17  1  0
 16 15  1  0
 18 17  1  0
 19 18  1  1
 19 21  1  0
 20 19  1  0
 21 22  2  0
 21 23  1  0
M  END
$$$$
