PPM.pdb
     RDKit          3D

 23 24  0  0  1  0  0  0  0  0999 V2000
    8.0974  -18.5085   18.9021 N   0  0  0  0  0  0  0  0  0  0  0  0
    6.9293  -19.3374   18.7092 C   0  0  0  0  0  0  0  0  0  0  0  0
    6.2771  -19.2063   20.0906 C   0  0  0  0  0  0  0  0  0  0  0  0
    6.4668  -17.7139   20.3401 C   0  0  0  0  0  0  0  0  0  0  0  0
    7.5064  -17.2406   19.3509 C   0  0  1  0  0  0  0  0  0  0  0  0
    8.5361  -16.3835   19.9362 C   0  0  0  0  0  0  0  0  0  0  0  0
    9.6811  -16.8308   20.1216 O   0  0  0  0  0  0  0  0  0  0  0  0
    8.2636  -15.0345   20.3042 N   0  0  0  0  0  0  0  0  0  0  0  0
    6.9283  -14.5062   20.2345 C   0  0  0  0  0  0  0  0  0  0  0  0
    7.0336  -13.0472   20.5432 C   0  0  0  0  0  0  0  0  0  0  0  0
    8.5236  -12.7266   20.3242 C   0  0  0  0  0  0  0  0  0  0  0  0
    9.1527  -14.0260   20.7535 C   0  0  1  0  0  0  0  0  0  0  0  0
    9.5684  -14.0547   22.1576 C   0  0  0  0  0  0  0  0  0  0  0  0
   10.3071  -13.0966   22.5110 O   0  0  0  0  0  0  0  0  0  0  0  0
    6.5467  -11.9066   27.8165 C   0  0  0  0  0  0  0  0  0  0  0  0
    6.7555  -12.2528   26.0691 S   0  0  0  0  0  0  0  0  0  0  0  0
    6.6777  -14.0321   25.7250 C   0  0  0  0  0  0  0  0  0  0  0  0
    7.1960  -14.3351   24.3441 C   0  0  0  0  0  0  0  0  0  0  0  0
    8.6447  -14.8165   24.4098 C   0  0  2  0  0  0  0  0  0  0  0  0
    9.2285  -15.0210   23.1068 N   0  0  0  0  0  0  0  0  0  0  0  0
    8.6526  -16.0411   25.2209 C   0  0  0  0  0  0  0  0  0  0  0  0
    8.3236  -17.1590   24.7327 O   0  0  0  0  0  0  0  0  0  0  0  0
    9.0336  -15.9652   26.5647 O   0  0  0  0  0  0  0  0  0  0  0  0
  1  2  1  0
  2  3  1  0
  4  3  1  0
  5  4  1  0
  5  1  1  0
  5  6  1  1
  6  7  2  0
  8  6  1  0
  9  8  1  0
 10 11  1  0
 10  9  1  0
 11 12  1  0
 12  8  1  0
 12 13  1  1
 13 20  1  0
 14 13  2  0
 16 17  1  0
 16 15  1  0
 18 17  1  0
 19 18  1  6
 19 21  1  0
 20 19  1  0
 21 22  2  0
 21 23  1  0
M  END
$$$$
