PPM.pdb
     RDKit          3D

 23 24  0  0  1  0  0  0  0  0999 V2000
    7.3644  -18.6150   19.3670 N   0  0  0  0  0  0  0  0  0  0  0  0
    6.1346  -19.3743   19.3682 C   0  0  0  0  0  0  0  0  0  0  0  0
    5.7267  -19.2205   20.8381 C   0  0  0  0  0  0  0  0  0  0  0  0
    6.0404  -17.7439   21.0541 C   0  0  0  0  0  0  0  0  0  0  0  0
    6.9290  -17.3202   19.9078 C   0  0  1  0  0  0  0  0  0  0  0  0
    8.0884  -16.5289   20.3164 C   0  0  0  0  0  0  0  0  0  0  0  0
    9.2150  -17.0538   20.3493 O   0  0  0  0  0  0  0  0  0  0  0  0
    7.9647  -15.1575   20.6817 N   0  0  0  0  0  0  0  0  0  0  0  0
    6.6997  -14.4807   20.5889 C   0  0  0  0  0  0  0  0  0  0  0  0
    6.9648  -13.0430   20.9018 C   0  0  0  0  0  0  0  0  0  0  0  0
    8.4853  -12.8942   20.7102 C   0  0  0  0  0  0  0  0  0  0  0  0
    8.9546  -14.2566   21.1485 C   0  0  1  0  0  0  0  0  0  0  0  0
    9.3390  -14.3318   22.5597 C   0  0  0  0  0  0  0  0  0  0  0  0
   10.3470  -13.6425   22.8717 O   0  0  0  0  0  0  0  0  0  0  0  0
    6.0522  -11.3721   26.3531 C   0  0  0  0  0  0  0  0  0  0  0  0
    5.8039  -13.1310   26.6012 S   0  0  0  0  0  0  0  0  0  0  0  0
    6.7743  -14.1164   25.4275 C   0  0  0  0  0  0  0  0  0  0  0  0
    8.2401  -14.0677   25.7688 C   0  0  0  0  0  0  0  0  0  0  0  0
    9.0117  -15.1138   24.9655 C   0  0  2  0  0  0  0  0  0  0  0  0
    8.7060  -15.0779   23.5562 N   0  0  0  0  0  0  0  0  0  0  0  0
    8.7129  -16.4206   25.5659 C   0  0  0  0  0  0  0  0  0  0  0  0
    8.0139  -17.2815   24.9606 O   0  0  0  0  0  0  0  0  0  0  0  0
    9.2152  -16.7164   26.8376 O   0  0  0  0  0  0  0  0  0  0  0  0
  1  2  1  0
  2  3  1  0
  4  3  1  0
  5  4  1  0
  5  1  1  0
  5  6  1  1
  6  7  2  0
  8  6  1  0
  9  8  1  0
 10 11  1  0
 10  9  1  0
 11 12  1  0
 12  8  1  0
 12 13  1  1
 13 20  1  0
 14 13  2  0
 16 17  1  0
 16 15  1  0
 18 17  1  0
 19 18  1  1
 19 21  1  0
 20 19  1  0
 21 22  2  0
 21 23  1  0
M  END
$$$$
