PPM.pdb
     RDKit          3D

 23 24  0  0  1  0  0  0  0  0999 V2000
    5.8383  -18.6156   19.8245 N   0  0  0  0  0  0  0  0  0  0  0  0
    4.4370  -18.9666   19.8699 C   0  0  0  0  0  0  0  0  0  0  0  0
    4.0694  -18.4213   21.2549 C   0  0  0  0  0  0  0  0  0  0  0  0
    4.8099  -17.0885   21.2276 C   0  0  0  0  0  0  0  0  0  0  0  0
    5.8043  -17.1716   20.0929 C   0  0  1  0  0  0  0  0  0  0  0  0
    7.1412  -16.6914   20.4387 C   0  0  0  0  0  0  0  0  0  0  0  0
    8.0718  -17.5031   20.5830 O   0  0  0  0  0  0  0  0  0  0  0  0
    7.4131  -15.3044   20.6168 N   0  0  0  0  0  0  0  0  0  0  0  0
    6.3765  -14.3222   20.4501 C   0  0  0  0  0  0  0  0  0  0  0  0
    7.0375  -12.9859   20.5622 C   0  0  0  0  0  0  0  0  0  0  0  0
    8.5296  -13.2879   20.3319 C   0  0  0  0  0  0  0  0  0  0  0  0
    8.6325  -14.6601   20.9442 C   0  0  1  0  0  0  0  0  0  0  0  0
    9.0521  -14.6594   22.3474 C   0  0  0  0  0  0  0  0  0  0  0  0
   10.2104  -14.2076   22.5538 O   0  0  0  0  0  0  0  0  0  0  0  0
    7.0633  -11.1548   27.4852 C   0  0  0  0  0  0  0  0  0  0  0  0
    6.1142  -12.2735   26.4535 S   0  0  0  0  0  0  0  0  0  0  0  0
    7.1629  -13.1123   25.2341 C   0  0  0  0  0  0  0  0  0  0  0  0
    7.5609  -14.4811   25.7192 C   0  0  0  0  0  0  0  0  0  0  0  0
    8.6644  -15.0620   24.8362 C   0  0  2  0  0  0  0  0  0  0  0  0
    8.3039  -15.1028   23.4401 N   0  0  0  0  0  0  0  0  0  0  0  0
    8.9814  -16.3941   25.3676 C   0  0  0  0  0  0  0  0  0  0  0  0
    9.4686  -16.5456   26.5234 O   0  0  0  0  0  0  0  0  0  0  0  0
    8.7373  -17.5196   24.5735 O   0  0  0  0  0  0  0  0  0  0  0  0
  1  2  1  0
  2  3  1  0
  4  3  1  0
  5  4  1  0
  5  1  1  0
  5  6  1  1
  6  7  2  0
  8  6  1  0
  9  8  1  0
 10 11  1  0
 10  9  1  0
 11 12  1  0
 12  8  1  0
 12 13  1  1
 13 20  1  0
 14 13  2  0
 16 17  1  0
 16 15  1  0
 18 17  1  0
 19 18  1  1
 19 21  1  0
 20 19  1  0
 21 22  2  0
 21 23  1  0
M  END
$$$$
