PPM.pdb
     RDKit          3D

 23 24  0  0  1  0  0  0  0  0999 V2000
    7.3630  -14.7335   18.5052 N   0  0  0  0  0  0  0  0  0  0  0  0
    7.5715  -13.5989   17.6345 C   0  0  0  0  0  0  0  0  0  0  0  0
    7.6586  -12.4759   18.6746 C   0  0  0  0  0  0  0  0  0  0  0  0
    8.5249  -13.1515   19.7321 C   0  0  0  0  0  0  0  0  0  0  0  0
    8.5036  -14.6310   19.4254 C   0  0  1  0  0  0  0  0  0  0  0  0
    8.2838  -15.4771   20.5972 C   0  0  0  0  0  0  0  0  0  0  0  0
    7.1360  -15.6129   21.0555 O   0  0  0  0  0  0  0  0  0  0  0  0
    9.3581  -16.1597   21.2370 N   0  0  0  0  0  0  0  0  0  0  0  0
   10.6596  -16.2204   20.6292 C   0  0  0  0  0  0  0  0  0  0  0  0
   11.4855  -17.1249   21.4865 C   0  0  0  0  0  0  0  0  0  0  0  0
   10.4469  -17.9079   22.3105 C   0  0  0  0  0  0  0  0  0  0  0  0
    9.3729  -16.8637   22.4673 C   0  0  1  0  0  0  0  0  0  0  0  0
    9.4728  -16.0830   23.7025 C   0  0  0  0  0  0  0  0  0  0  0  0
   10.3469  -15.1752   23.6860 O   0  0  0  0  0  0  0  0  0  0  0  0
    5.6459  -11.8001   26.2694 C   0  0  0  0  0  0  0  0  0  0  0  0
    7.1700  -12.2237   27.1148 S   0  0  0  0  0  0  0  0  0  0  0  0
    7.2424  -13.9904   27.5195 C   0  0  0  0  0  0  0  0  0  0  0  0
    7.2542  -14.8279   26.2682 C   0  0  0  0  0  0  0  0  0  0  0  0
    8.6506  -15.3953   26.0171 C   0  0  2  0  0  0  0  0  0  0  0  0
    8.7086  -16.2532   24.8589 N   0  0  0  0  0  0  0  0  0  0  0  0
    9.0573  -16.0911   27.2451 C   0  0  0  0  0  0  0  0  0  0  0  0
    8.9040  -17.3379   27.3797 O   0  0  0  0  0  0  0  0  0  0  0  0
    9.6274  -15.3538   28.2883 O   0  0  0  0  0  0  0  0  0  0  0  0
  1  2  1  0
  2  3  1  0
  4  3  1  0
  5  4  1  0
  5  1  1  0
  5  6  1  1
  6  7  2  0
  8  6  1  0
  9  8  1  0
 10 11  1  0
 10  9  1  0
 11 12  1  0
 12  8  1  0
 12 13  1  1
 13 20  1  0
 14 13  2  0
 16 17  1  0
 16 15  1  0
 18 17  1  0
 19 18  1  1
 19 21  1  0
 20 19  1  0
 21 22  2  0
 21 23  1  0
M  END
$$$$
