PPM.pdb
     RDKit          3D

 23 24  0  0  1  0  0  0  0  0999 V2000
    8.8714  -15.2436   20.1006 N   0  0  0  0  0  0  0  0  0  0  0  0
    7.9325  -15.6536   19.0811 C   0  0  0  0  0  0  0  0  0  0  0  0
    7.0873  -16.6514   19.8814 C   0  0  0  0  0  0  0  0  0  0  0  0
    6.9349  -15.8881   21.1927 C   0  0  0  0  0  0  0  0  0  0  0  0
    7.9805  -14.7973   21.1801 C   0  0  1  0  0  0  0  0  0  0  0  0
    8.7265  -14.6753   22.4315 C   0  0  0  0  0  0  0  0  0  0  0  0
    9.9598  -14.8326   22.4342 O   0  0  0  0  0  0  0  0  0  0  0  0
    8.0749  -14.3774   23.6628 N   0  0  0  0  0  0  0  0  0  0  0  0
    6.6666  -14.0908   23.7015 C   0  0  0  0  0  0  0  0  0  0  0  0
    6.3560  -13.6832   25.1060 C   0  0  0  0  0  0  0  0  0  0  0  0
    7.7285  -13.3168   25.6998 C   0  0  0  0  0  0  0  0  0  0  0  0
    8.6153  -14.2916   24.9705 C   0  0  1  0  0  0  0  0  0  0  0  0
    8.8554  -15.5409   25.6961 C   0  0  0  0  0  0  0  0  0  0  0  0
    8.2343  -16.5418   25.2476 O   0  0  0  0  0  0  0  0  0  0  0  0
   10.1034  -13.3026   30.4678 C   0  0  0  0  0  0  0  0  0  0  0  0
   11.4212  -14.4356   30.0248 S   0  0  0  0  0  0  0  0  0  0  0  0
   10.7698  -16.0216   29.4325 C   0  0  0  0  0  0  0  0  0  0  0  0
   11.5446  -16.5070   28.2360 C   0  0  0  0  0  0  0  0  0  0  0  0
   10.6016  -16.7952   27.0687 C   0  0  2  0  0  0  0  0  0  0  0  0
    9.6852  -15.7126   26.8062 N   0  0  0  0  0  0  0  0  0  0  0  0
    9.9046  -18.0499   27.3810 C   0  0  0  0  0  0  0  0  0  0  0  0
   10.4989  -19.1640   27.3387 O   0  0  0  0  0  0  0  0  0  0  0  0
    8.5515  -18.0076   27.7333 O   0  0  0  0  0  0  0  0  0  0  0  0
  1  2  1  0
  2  3  1  0
  4  3  1  0
  5  4  1  0
  5  1  1  0
  5  6  1  1
  6  7  2  0
  8  6  1  0
  9  8  1  0
 10 11  1  0
 10  9  1  0
 11 12  1  0
 12  8  1  0
 12 13  1  1
 13 20  1  0
 14 13  2  0
 16 17  1  0
 16 15  1  0
 18 17  1  0
 19 18  1  1
 19 21  1  0
 20 19  1  0
 21 22  2  0
 21 23  1  0
M  END
$$$$
