PPM.pdb
     RDKit          3D

 23 24  0  0  1  0  0  0  0  0999 V2000
   11.5231  -18.1317   19.1841 N   0  0  0  0  0  0  0  0  0  0  0  0
   11.5681  -19.4758   18.6548 C   0  0  0  0  0  0  0  0  0  0  0  0
   10.8048  -20.2223   19.7552 C   0  0  0  0  0  0  0  0  0  0  0  0
    9.6667  -19.2401   20.0107 C   0  0  0  0  0  0  0  0  0  0  0  0
   10.0826  -17.9276   19.3881 C   0  0  1  0  0  0  0  0  0  0  0  0
    9.8543  -16.7652   20.2449 C   0  0  0  0  0  0  0  0  0  0  0  0
   10.8174  -16.2042   20.7957 O   0  0  0  0  0  0  0  0  0  0  0  0
    8.5456  -16.2494   20.4699 N   0  0  0  0  0  0  0  0  0  0  0  0
    7.4193  -16.7458   19.7268 C   0  0  0  0  0  0  0  0  0  0  0  0
    6.2523  -15.8916   20.1059 C   0  0  0  0  0  0  0  0  0  0  0  0
    6.8947  -14.6353   20.7221 C   0  0  0  0  0  0  0  0  0  0  0  0
    8.1180  -15.2357   21.3637 C   0  0  1  0  0  0  0  0  0  0  0  0
    7.9400  -15.5946   22.7724 C   0  0  0  0  0  0  0  0  0  0  0  0
    8.2158  -16.7920   23.0529 O   0  0  0  0  0  0  0  0  0  0  0  0
    5.7938  -11.4187   27.5936 C   0  0  0  0  0  0  0  0  0  0  0  0
    7.2430  -12.1826   28.3237 S   0  0  0  0  0  0  0  0  0  0  0  0
    7.7438  -13.6715   27.4167 C   0  0  0  0  0  0  0  0  0  0  0  0
    7.4904  -13.5119   25.9409 C   0  0  0  0  0  0  0  0  0  0  0  0
    7.8759  -14.7861   25.1908 C   0  0  2  0  0  0  0  0  0  0  0  0
    7.5043  -14.7521   23.7975 N   0  0  0  0  0  0  0  0  0  0  0  0
    7.2532  -15.9084   25.9050 C   0  0  0  0  0  0  0  0  0  0  0  0
    7.7850  -16.4134   26.9337 O   0  0  0  0  0  0  0  0  0  0  0  0
    6.0433  -16.4284   25.4331 O   0  0  0  0  0  0  0  0  0  0  0  0
  1  2  1  0
  2  3  1  0
  4  3  1  0
  5  4  1  0
  5  1  1  0
  5  6  1  1
  6  7  2  0
  8  6  1  0
  9  8  1  0
 10 11  1  0
 10  9  1  0
 11 12  1  0
 12  8  1  0
 12 13  1  1
 13 20  1  0
 14 13  2  0
 16 17  1  0
 16 15  1  0
 18 17  1  0
 19 18  1  1
 19 21  1  0
 20 19  1  0
 21 22  2  0
 21 23  1  0
M  END
$$$$
