PPM.pdb
     RDKit          3D

 23 24  0  0  1  0  0  0  0  0999 V2000
    9.1463  -16.7164   18.6491 N   0  0  0  0  0  0  0  0  0  0  0  0
   10.0138  -17.4923   17.7922 C   0  0  0  0  0  0  0  0  0  0  0  0
   11.0987  -17.8904   18.7997 C   0  0  0  0  0  0  0  0  0  0  0  0
   10.2338  -18.2458   20.0043 C   0  0  0  0  0  0  0  0  0  0  0  0
    8.8666  -17.6588   19.7410 C   0  0  1  0  0  0  0  0  0  0  0  0
    8.2945  -16.9500   20.8846 C   0  0  0  0  0  0  0  0  0  0  0  0
    8.2977  -15.7070   20.9065 O   0  0  0  0  0  0  0  0  0  0  0  0
    7.7258  -17.6495   21.9876 N   0  0  0  0  0  0  0  0  0  0  0  0
    7.5905  -19.0806   21.9630 C   0  0  0  0  0  0  0  0  0  0  0  0
    6.8316  -19.4554   23.1954 C   0  0  0  0  0  0  0  0  0  0  0  0
    6.1673  -18.1390   23.6386 C   0  0  0  0  0  0  0  0  0  0  0  0
    7.2112  -17.1427   23.2074 C   0  0  1  0  0  0  0  0  0  0  0  0
    8.1667  -16.7842   24.2580 C   0  0  0  0  0  0  0  0  0  0  0  0
    9.2196  -17.4767   24.2750 O   0  0  0  0  0  0  0  0  0  0  0  0
    6.1000  -11.0172   25.4934 C   0  0  0  0  0  0  0  0  0  0  0  0
    6.4055  -12.5752   26.3276 S   0  0  0  0  0  0  0  0  0  0  0  0
    8.1702  -12.9944   26.3382 C   0  0  0  0  0  0  0  0  0  0  0  0
    8.4181  -14.2546   27.1243 C   0  0  0  0  0  0  0  0  0  0  0  0
    8.9632  -15.3545   26.2144 C   0  0  2  0  0  0  0  0  0  0  0  0
    8.0157  -15.7751   25.2114 N   0  0  0  0  0  0  0  0  0  0  0  0
    9.3803  -16.4622   27.0842 C   0  0  0  0  0  0  0  0  0  0  0  0
    8.6662  -17.4944   27.2278 O   0  0  0  0  0  0  0  0  0  0  0  0
   10.5970  -16.3695   27.7684 O   0  0  0  0  0  0  0  0  0  0  0  0
  1  2  1  0
  2  3  1  0
  4  3  1  0
  5  4  1  0
  5  1  1  0
  5  6  1  1
  6  7  2  0
  8  6  1  0
  9  8  1  0
 10 11  1  0
 10  9  1  0
 11 12  1  0
 12  8  1  0
 12 13  1  1
 13 20  1  0
 14 13  2  0
 16 17  1  0
 16 15  1  0
 18 17  1  0
 19 18  1  1
 19 21  1  0
 20 19  1  0
 21 22  2  0
 21 23  1  0
M  END
$$$$
