PPM.pdb
     RDKit          3D

 23 24  0  0  1  0  0  0  0  0999 V2000
    8.2079  -17.0202   17.7431 N   0  0  0  0  0  0  0  0  0  0  0  0
    8.9874  -17.7946   16.8041 C   0  0  0  0  0  0  0  0  0  0  0  0
   10.2155  -18.1050   17.6679 C   0  0  0  0  0  0  0  0  0  0  0  0
    9.5381  -18.4455   18.9910 C   0  0  0  0  0  0  0  0  0  0  0  0
    8.1220  -17.9270   18.8957 C   0  0  1  0  0  0  0  0  0  0  0  0
    7.6766  -17.1956   20.0806 C   0  0  0  0  0  0  0  0  0  0  0  0
    7.6195  -15.9539   20.0557 O   0  0  0  0  0  0  0  0  0  0  0  0
    7.3007  -17.8711   21.2772 N   0  0  0  0  0  0  0  0  0  0  0  0
    7.2425  -19.3068   21.3265 C   0  0  0  0  0  0  0  0  0  0  0  0
    6.6779  -19.6620   22.6645 C   0  0  0  0  0  0  0  0  0  0  0  0
    6.0075  -18.3611   23.1432 C   0  0  0  0  0  0  0  0  0  0  0  0
    6.9274  -17.3352   22.5353 C   0  0  1  0  0  0  0  0  0  0  0  0
    7.9942  -16.8823   23.4310 C   0  0  0  0  0  0  0  0  0  0  0  0
    9.0370  -17.5898   23.4129 O   0  0  0  0  0  0  0  0  0  0  0  0
    5.3638  -11.5740   26.8680 C   0  0  0  0  0  0  0  0  0  0  0  0
    7.0543  -11.8156   26.3198 S   0  0  0  0  0  0  0  0  0  0  0  0
    7.3638  -13.5382   25.8428 C   0  0  0  0  0  0  0  0  0  0  0  0
    8.7883  -13.7225   25.3908 C   0  0  0  0  0  0  0  0  0  0  0  0
    9.0457  -15.1807   25.0137 C   0  0  2  0  0  0  0  0  0  0  0  0
    7.9558  -15.7711   24.2760 N   0  0  0  0  0  0  0  0  0  0  0  0
    9.3276  -15.9023   26.2617 C   0  0  0  0  0  0  0  0  0  0  0  0
    8.5022  -16.7247   26.7501 O   0  0  0  0  0  0  0  0  0  0  0  0
   10.5388  -15.6719   26.9227 O   0  0  0  0  0  0  0  0  0  0  0  0
  1  2  1  0
  2  3  1  0
  4  3  1  0
  5  4  1  0
  5  1  1  0
  5  6  1  1
  6  7  2  0
  8  6  1  0
  9  8  1  0
 10 11  1  0
 10  9  1  0
 11 12  1  0
 12  8  1  0
 12 13  1  1
 13 20  1  0
 14 13  2  0
 16 17  1  0
 16 15  1  0
 18 17  1  0
 19 18  1  1
 19 21  1  0
 20 19  1  0
 21 22  2  0
 21 23  1  0
M  END
$$$$
