IVA.pdb
     RDKit          3D

 21 20  0  0  1  0  0  0  0  0999 V2000
    6.8256  -11.4191   27.8546 C   0  0  0  0  0  0  0  0  0  0  0  0
    5.9273  -12.3961   27.0705 C   0  0  0  0  0  0  0  0  0  0  0  0
    6.8758  -13.2902   26.3264 C   0  0  2  0  0  0  0  0  0  0  0  0
    7.9576  -12.4845   25.6410 C   0  0  0  0  0  0  0  0  0  0  0  0
    6.2167  -14.2671   25.3844 C   0  0  2  0  0  0  0  0  0  0  0  0
    5.4425  -15.1591   26.2729 N   0  0  0  0  0  0  0  0  0  0  0  0
    7.1428  -15.1172   24.6277 C   0  0  0  0  0  0  0  0  0  0  0  0
    7.5865  -16.1906   25.1600 O   0  0  0  0  0  0  0  0  0  0  0  0
    9.2181  -16.3689   20.2574 C   0  0  0  0  0  0  0  0  0  0  0  0
    8.4929  -15.3542   21.1204 C   0  0  1  0  0  0  0  0  0  0  0  0
    7.1502  -15.0260   20.5494 C   0  0  0  0  0  0  0  0  0  0  0  0
    8.4170  -15.8095   22.5632 C   0  0  2  0  0  0  0  0  0  0  0  0
    7.6162  -14.8627   23.3104 N   0  0  0  0  0  0  0  0  0  0  0  0
    9.8140  -15.8357   23.0828 C   0  0  0  0  0  0  0  0  0  0  0  0
   10.4719  -14.7789   23.1663 O   0  0  0  0  0  0  0  0  0  0  0  0
   11.9719  -18.4642   24.6894 C   0  0  0  0  0  0  0  0  0  0  0  0
   11.7665  -17.1343   23.9950 C   0  0  2  0  0  0  0  0  0  0  0  0
   10.4119  -17.0407   23.4853 N   0  0  0  0  0  0  0  0  0  0  0  0
   12.7723  -16.9177   22.9243 C   0  0  0  0  0  0  0  0  0  0  0  0
   12.5904  -17.2189   21.7338 O   0  0  0  0  0  0  0  0  0  0  0  0
   13.9871  -16.3450   23.2745 O   0  0  0  0  0  0  0  0  0  0  0  0
  2  3  1  0
  2  1  1  0
  3  5  1  0
  3  4  1  6
  5  7  1  0
  5  6  1  1
  7  8  2  0
 10  9  1  6
 10 11  1  0
 10 12  1  0
 12 14  1  0
 13  7  1  0
 12 13  1  1
 14 15  2  0
 17 16  1  6
 17 19  1  0
 18 17  1  0
 18 14  1  0
 19 20  2  0
 19 21  1  0
M  END
$$$$
