IVA.pdb
     RDKit          3D

 21 20  0  0  1  0  0  0  0  0999 V2000
    6.7603  -11.1866   27.7866 C   0  0  0  0  0  0  0  0  0  0  0  0
    5.9016  -12.2348   27.0514 C   0  0  0  0  0  0  0  0  0  0  0  0
    6.8821  -13.0911   26.3043 C   0  0  2  0  0  0  0  0  0  0  0  0
    7.8707  -12.2417   25.5362 C   0  0  0  0  0  0  0  0  0  0  0  0
    6.2587  -14.1562   25.4364 C   0  0  2  0  0  0  0  0  0  0  0  0
    5.6003  -15.0656   26.3977 N   0  0  0  0  0  0  0  0  0  0  0  0
    7.2125  -14.9646   24.6686 C   0  0  0  0  0  0  0  0  0  0  0  0
    7.8147  -15.9358   25.2401 O   0  0  0  0  0  0  0  0  0  0  0  0
    9.3238  -16.1621   20.2841 C   0  0  0  0  0  0  0  0  0  0  0  0
    8.4907  -15.2141   21.1253 C   0  0  1  0  0  0  0  0  0  0  0  0
    7.1481  -14.9867   20.5072 C   0  0  0  0  0  0  0  0  0  0  0  0
    8.3984  -15.6860   22.5619 C   0  0  2  0  0  0  0  0  0  0  0  0
    7.5494  -14.7743   23.2995 N   0  0  0  0  0  0  0  0  0  0  0  0
    9.7836  -15.6700   23.1126 C   0  0  0  0  0  0  0  0  0  0  0  0
   10.4285  -14.6028   23.1568 O   0  0  0  0  0  0  0  0  0  0  0  0
   11.9569  -18.1818   24.8748 C   0  0  0  0  0  0  0  0  0  0  0  0
   11.7475  -16.9092   24.0813 C   0  0  2  0  0  0  0  0  0  0  0  0
   10.3848  -16.8462   23.5885 N   0  0  0  0  0  0  0  0  0  0  0  0
   12.7359  -16.7849   22.9801 C   0  0  0  0  0  0  0  0  0  0  0  0
   13.9098  -16.4155   23.1433 O   0  0  0  0  0  0  0  0  0  0  0  0
   12.3237  -17.1001   21.6929 O   0  0  0  0  0  0  0  0  0  0  0  0
  2  3  1  0
  2  1  1  0
  3  5  1  0
  3  4  1  6
  5  7  1  0
  5  6  1  1
  7  8  2  0
 10  9  1  6
 10 11  1  0
 10 12  1  0
 12 14  1  0
 13  7  1  0
 12 13  1  1
 14 15  2  0
 17 16  1  6
 17 19  1  0
 18 17  1  0
 18 14  1  0
 19 20  2  0
 19 21  1  0
M  END
$$$$
