IVA.pdb
     RDKit          3D

 21 20  0  0  1  0  0  0  0  0999 V2000
    6.4175  -21.3789   24.4689 C   0  0  0  0  0  0  0  0  0  0  0  0
    5.7885  -20.1090   23.8619 C   0  0  0  0  0  0  0  0  0  0  0  0
    6.6840  -18.9837   24.2916 C   0  0  2  0  0  0  0  0  0  0  0  0
    7.0281  -19.0936   25.7607 C   0  0  0  0  0  0  0  0  0  0  0  0
    6.1867  -17.6062   23.9294 C   0  0  2  0  0  0  0  0  0  0  0  0
    6.1912  -17.5976   22.4514 N   0  0  0  0  0  0  0  0  0  0  0  0
    7.0500  -16.5027   24.3653 C   0  0  0  0  0  0  0  0  0  0  0  0
    8.1725  -16.3169   23.7840 O   0  0  0  0  0  0  0  0  0  0  0  0
    7.8495  -12.4806   27.2280 C   0  0  0  0  0  0  0  0  0  0  0  0
    6.9173  -13.4587   26.5392 C   0  0  1  0  0  0  0  0  0  0  0  0
    5.9801  -12.7475   25.6160 C   0  0  0  0  0  0  0  0  0  0  0  0
    7.6889  -14.5642   25.8482 C   0  0  2  0  0  0  0  0  0  0  0  0
    6.7561  -15.5801   25.4076 N   0  0  0  0  0  0  0  0  0  0  0  0
    8.6350  -15.1257   26.8540 C   0  0  0  0  0  0  0  0  0  0  0  0
    8.2015  -15.6283   27.9105 O   0  0  0  0  0  0  0  0  0  0  0  0
   12.3224  -15.8699   26.7850 C   0  0  0  0  0  0  0  0  0  0  0  0
   10.9825  -15.7763   27.4841 C   0  0  2  0  0  0  0  0  0  0  0  0
   10.0215  -15.1000   26.6339 N   0  0  0  0  0  0  0  0  0  0  0  0
   11.1040  -15.1160   28.8086 C   0  0  0  0  0  0  0  0  0  0  0  0
   10.6523  -13.9880   29.0628 O   0  0  0  0  0  0  0  0  0  0  0  0
   11.7610  -15.7997   29.8222 O   0  0  0  0  0  0  0  0  0  0  0  0
  2  3  1  0
  2  1  1  0
  3  5  1  0
  3  4  1  1
  5  7  1  0
  5  6  1  6
  7  8  2  0
 10  9  1  6
 10 11  1  0
 10 12  1  0
 12 14  1  0
 13  7  1  0
 12 13  1  1
 14 15  2  0
 17 16  1  6
 17 19  1  0
 18 17  1  0
 18 14  1  0
 19 20  2  0
 19 21  1  0
M  END
$$$$
