IVA.pdb
     RDKit          3D

 21 20  0  0  1  0  0  0  0  0999 V2000
    6.8717  -11.4157   27.7433 C   0  0  0  0  0  0  0  0  0  0  0  0
    6.0220  -12.5182   27.0807 C   0  0  0  0  0  0  0  0  0  0  0  0
    6.9949  -13.3384   26.2847 C   0  0  2  0  0  0  0  0  0  0  0  0
    7.9266  -12.4531   25.4864 C   0  0  0  0  0  0  0  0  0  0  0  0
    6.3668  -14.4123   25.4312 C   0  0  2  0  0  0  0  0  0  0  0  0
    5.7433  -15.3306   26.4072 N   0  0  0  0  0  0  0  0  0  0  0  0
    7.3141  -15.2075   24.6418 C   0  0  0  0  0  0  0  0  0  0  0  0
    7.9154  -16.1928   25.1895 O   0  0  0  0  0  0  0  0  0  0  0  0
    9.2868  -16.3914   20.1924 C   0  0  0  0  0  0  0  0  0  0  0  0
    8.4963  -15.4360   21.0657 C   0  0  1  0  0  0  0  0  0  0  0  0
    7.1287  -15.2045   20.5067 C   0  0  0  0  0  0  0  0  0  0  0  0
    8.4655  -15.9018   22.5070 C   0  0  2  0  0  0  0  0  0  0  0  0
    7.6454  -14.9891   23.2755 N   0  0  0  0  0  0  0  0  0  0  0  0
    9.8724  -15.8795   22.9991 C   0  0  0  0  0  0  0  0  0  0  0  0
   10.4867  -14.7976   23.0935 O   0  0  0  0  0  0  0  0  0  0  0  0
   12.1679  -18.3912   24.5744 C   0  0  0  0  0  0  0  0  0  0  0  0
   11.9128  -17.1193   23.7933 C   0  0  2  0  0  0  0  0  0  0  0  0
   10.5286  -17.0662   23.3632 N   0  0  0  0  0  0  0  0  0  0  0  0
   12.8489  -16.9861   22.6483 C   0  0  0  0  0  0  0  0  0  0  0  0
   12.5769  -17.3358   21.4887 O   0  0  0  0  0  0  0  0  0  0  0  0
   14.1015  -16.4386   22.8883 O   0  0  0  0  0  0  0  0  0  0  0  0
  2  3  1  0
  2  1  1  0
  3  5  1  0
  3  4  1  6
  5  7  1  0
  5  6  1  1
  7  8  2  0
 10  9  1  6
 10 11  1  0
 10 12  1  0
 12 14  1  0
 13  7  1  0
 12 13  1  1
 14 15  2  0
 17 16  1  6
 17 19  1  0
 18 17  1  0
 18 14  1  0
 19 20  2  0
 19 21  1  0
M  END
$$$$
