IVA.pdb
     RDKit          3D

 21 20  0  0  1  0  0  0  0  0999 V2000
    6.0623  -10.9385   26.8109 C   0  0  0  0  0  0  0  0  0  0  0  0
    6.4595  -12.0792   27.7688 C   0  0  0  0  0  0  0  0  0  0  0  0
    7.2101  -13.0622   26.9185 C   0  0  2  0  0  0  0  0  0  0  0  0
    8.4741  -12.4451   26.3615 C   0  0  0  0  0  0  0  0  0  0  0  0
    6.3858  -13.7280   25.8445 C   0  0  2  0  0  0  0  0  0  0  0  0
    5.3630  -14.4880   26.5933 N   0  0  0  0  0  0  0  0  0  0  0  0
    7.1148  -14.6951   25.0161 C   0  0  0  0  0  0  0  0  0  0  0  0
    7.4789  -15.8089   25.5253 O   0  0  0  0  0  0  0  0  0  0  0  0
    8.9409  -16.0998   20.5674 C   0  0  0  0  0  0  0  0  0  0  0  0
    8.2291  -15.0776   21.4327 C   0  0  1  0  0  0  0  0  0  0  0  0
    6.8804  -14.7491   20.8760 C   0  0  0  0  0  0  0  0  0  0  0  0
    8.1695  -15.5237   22.8792 C   0  0  2  0  0  0  0  0  0  0  0  0
    7.4714  -14.5167   23.6504 N   0  0  0  0  0  0  0  0  0  0  0  0
    9.5778  -15.6574   23.3493 C   0  0  0  0  0  0  0  0  0  0  0  0
   10.3191  -14.6552   23.4020 O   0  0  0  0  0  0  0  0  0  0  0  0
   11.6244  -18.4070   24.8819 C   0  0  0  0  0  0  0  0  0  0  0  0
   11.4833  -17.1241   24.0901 C   0  0  2  0  0  0  0  0  0  0  0  0
   10.0934  -16.9040   23.7388 N   0  0  0  0  0  0  0  0  0  0  0  0
   12.3592  -17.1249   22.8910 C   0  0  0  0  0  0  0  0  0  0  0  0
   11.9669  -17.4112   21.7485 O   0  0  0  0  0  0  0  0  0  0  0  0
   13.6948  -16.7858   23.0567 O   0  0  0  0  0  0  0  0  0  0  0  0
  2  3  1  0
  2  1  1  0
  3  5  1  0
  3  4  1  6
  5  7  1  0
  5  6  1  1
  7  8  2  0
 10  9  1  6
 10 11  1  0
 10 12  1  0
 12 14  1  0
 13  7  1  0
 12 13  1  1
 14 15  2  0
 17 16  1  6
 17 19  1  0
 18 17  1  0
 18 14  1  0
 19 20  2  0
 19 21  1  0
M  END
$$$$
