IVA.pdb
     RDKit          3D

 21 20  0  0  1  0  0  0  0  0999 V2000
    6.8972  -11.3694   27.7237 C   0  0  0  0  0  0  0  0  0  0  0  0
    5.9738  -12.2894   26.9006 C   0  0  0  0  0  0  0  0  0  0  0  0
    6.8981  -13.2049   26.1520 C   0  0  2  0  0  0  0  0  0  0  0  0
    7.9841  -12.4227   25.4465 C   0  0  0  0  0  0  0  0  0  0  0  0
    6.2112  -14.1785   25.2266 C   0  0  2  0  0  0  0  0  0  0  0  0
    5.4233  -15.0420   26.1311 N   0  0  0  0  0  0  0  0  0  0  0  0
    7.1132  -15.0583   24.4748 C   0  0  0  0  0  0  0  0  0  0  0  0
    7.5592  -16.1201   25.0279 O   0  0  0  0  0  0  0  0  0  0  0  0
    9.2511  -16.3820   20.1506 C   0  0  0  0  0  0  0  0  0  0  0  0
    8.4674  -15.3767   20.9726 C   0  0  1  0  0  0  0  0  0  0  0  0
    7.1187  -15.1301   20.3755 C   0  0  0  0  0  0  0  0  0  0  0  0
    8.3935  -15.7907   22.4280 C   0  0  2  0  0  0  0  0  0  0  0  0
    7.5598  -14.8458   23.1408 N   0  0  0  0  0  0  0  0  0  0  0  0
    9.7866  -15.7606   22.9578 C   0  0  0  0  0  0  0  0  0  0  0  0
   10.4246  -14.6887   22.9834 O   0  0  0  0  0  0  0  0  0  0  0  0
   11.8109  -18.1804   24.9710 C   0  0  0  0  0  0  0  0  0  0  0  0
   11.6867  -16.9413   24.1095 C   0  0  2  0  0  0  0  0  0  0  0  0
   10.4029  -16.9286   23.4346 N   0  0  0  0  0  0  0  0  0  0  0  0
   12.8133  -16.8308   23.1485 C   0  0  0  0  0  0  0  0  0  0  0  0
   13.9593  -16.4733   23.4648 O   0  0  0  0  0  0  0  0  0  0  0  0
   12.5715  -17.1454   21.8185 O   0  0  0  0  0  0  0  0  0  0  0  0
  2  3  1  0
  2  1  1  0
  3  5  1  0
  3  4  1  6
  5  7  1  0
  5  6  1  1
  7  8  2  0
 10  9  1  6
 10 11  1  0
 10 12  1  0
 12 14  1  0
 13  7  1  0
 12 13  1  1
 14 15  2  0
 17 16  1  6
 17 19  1  0
 18 17  1  0
 18 14  1  0
 19 20  2  0
 19 21  1  0
M  END
$$$$
