IVA.pdb
     RDKit          3D

 21 20  0  0  1  0  0  0  0  0999 V2000
    7.0614  -11.4192   27.9153 C   0  0  0  0  0  0  0  0  0  0  0  0
    6.0866  -12.2950   27.1032 C   0  0  0  0  0  0  0  0  0  0  0  0
    6.9592  -13.2422   26.3324 C   0  0  2  0  0  0  0  0  0  0  0  0
    8.0817  -12.5037   25.6371 C   0  0  0  0  0  0  0  0  0  0  0  0
    6.2192  -14.1603   25.3914 C   0  0  2  0  0  0  0  0  0  0  0  0
    5.4126  -15.0187   26.2843 N   0  0  0  0  0  0  0  0  0  0  0  0
    7.0730  -15.0522   24.5987 C   0  0  0  0  0  0  0  0  0  0  0  0
    7.3963  -16.1946   25.0708 O   0  0  0  0  0  0  0  0  0  0  0  0
    9.0099  -16.2762   20.1605 C   0  0  0  0  0  0  0  0  0  0  0  0
    8.2833  -15.2923   21.0574 C   0  0  1  0  0  0  0  0  0  0  0  0
    6.9070  -15.0129   20.5435 C   0  0  0  0  0  0  0  0  0  0  0  0
    8.2839  -15.7550   22.4999 C   0  0  2  0  0  0  0  0  0  0  0  0
    7.5984  -14.7681   23.3074 N   0  0  0  0  0  0  0  0  0  0  0  0
    9.7104  -15.8706   22.9168 C   0  0  0  0  0  0  0  0  0  0  0  0
   10.4249  -14.8509   22.9967 O   0  0  0  0  0  0  0  0  0  0  0  0
   11.8717  -18.7019   24.1475 C   0  0  0  0  0  0  0  0  0  0  0  0
   11.6601  -17.3026   23.6088 C   0  0  2  0  0  0  0  0  0  0  0  0
   10.2734  -17.1193   23.2253 N   0  0  0  0  0  0  0  0  0  0  0  0
   12.5844  -17.0058   22.4852 C   0  0  0  0  0  0  0  0  0  0  0  0
   12.3274  -17.2506   21.2956 O   0  0  0  0  0  0  0  0  0  0  0  0
   13.8073  -16.4204   22.7817 O   0  0  0  0  0  0  0  0  0  0  0  0
  2  3  1  0
  2  1  1  0
  3  5  1  0
  3  4  1  6
  5  7  1  0
  5  6  1  1
  7  8  2  0
 10  9  1  6
 10 11  1  0
 10 12  1  0
 12 14  1  0
 13  7  1  0
 12 13  1  1
 14 15  2  0
 17 16  1  6
 17 19  1  0
 18 17  1  0
 18 14  1  0
 19 20  2  0
 19 21  1  0
M  END
$$$$
