IVA.pdb
     RDKit          3D

 21 20  0  0  1  0  0  0  0  0999 V2000
    6.7143  -11.2734   27.7933 C   0  0  0  0  0  0  0  0  0  0  0  0
    5.8203  -12.1295   26.8744 C   0  0  0  0  0  0  0  0  0  0  0  0
    6.7543  -13.0989   26.2105 C   0  0  2  0  0  0  0  0  0  0  0  0
    7.9699  -12.3893   25.6559 C   0  0  0  0  0  0  0  0  0  0  0  0
    6.1086  -13.9981   25.1855 C   0  0  2  0  0  0  0  0  0  0  0  0
    5.1418  -14.7989   25.9656 N   0  0  0  0  0  0  0  0  0  0  0  0
    7.0194  -14.9455   24.5329 C   0  0  0  0  0  0  0  0  0  0  0  0
    7.3873  -15.9958   25.1605 O   0  0  0  0  0  0  0  0  0  0  0  0
    9.3817  -16.5325   20.4187 C   0  0  0  0  0  0  0  0  0  0  0  0
    8.6338  -15.4412   21.1603 C   0  0  1  0  0  0  0  0  0  0  0  0
    7.3722  -15.0743   20.4458 C   0  0  0  0  0  0  0  0  0  0  0  0
    8.3947  -15.8205   22.6073 C   0  0  2  0  0  0  0  0  0  0  0  0
    7.5558  -14.8132   23.2219 N   0  0  0  0  0  0  0  0  0  0  0  0
    9.7294  -15.8629   23.2698 C   0  0  0  0  0  0  0  0  0  0  0  0
   10.3877  -14.8140   23.4215 O   0  0  0  0  0  0  0  0  0  0  0  0
   11.6996  -18.4898   25.0946 C   0  0  0  0  0  0  0  0  0  0  0  0
   11.5894  -17.1953   24.3167 C   0  0  2  0  0  0  0  0  0  0  0  0
   10.2674  -17.0745   23.7323 N   0  0  0  0  0  0  0  0  0  0  0  0
   12.6560  -17.0846   23.2894 C   0  0  0  0  0  0  0  0  0  0  0  0
   12.5079  -17.4120   22.1012 O   0  0  0  0  0  0  0  0  0  0  0  0
   13.8908  -16.5859   23.6802 O   0  0  0  0  0  0  0  0  0  0  0  0
  2  3  1  0
  2  1  1  0
  3  5  1  0
  3  4  1  6
  5  7  1  0
  5  6  1  1
  7  8  2  0
 10  9  1  6
 10 11  1  0
 10 12  1  0
 12 14  1  0
 13  7  1  0
 12 13  1  1
 14 15  2  0
 17 16  1  6
 17 19  1  0
 18 17  1  0
 18 14  1  0
 19 20  2  0
 19 21  1  0
M  END
$$$$
