IVA.pdb
     RDKit          3D

 21 20  0  0  1  0  0  0  0  0999 V2000
    6.7059  -11.5661   27.6846 C   0  0  0  0  0  0  0  0  0  0  0  0
    5.9133  -12.7596   27.1156 C   0  0  0  0  0  0  0  0  0  0  0  0
    6.8663  -13.4580   26.1899 C   0  0  2  0  0  0  0  0  0  0  0  0
    7.5072  -12.4796   25.2302 C   0  0  0  0  0  0  0  0  0  0  0  0
    6.2905  -14.6553   25.4751 C   0  0  2  0  0  0  0  0  0  0  0  0
    5.9502  -15.5962   26.5630 N   0  0  0  0  0  0  0  0  0  0  0  0
    7.2254  -15.3524   24.5847 C   0  0  0  0  0  0  0  0  0  0  0  0
    8.0600  -16.1844   25.0784 O   0  0  0  0  0  0  0  0  0  0  0  0
    8.3624  -14.0666   20.7639 C   0  0  0  0  0  0  0  0  0  0  0  0
    8.0224  -15.5385   20.8992 C   0  0  1  0  0  0  0  0  0  0  0  0
    8.8258  -16.3648   19.9461 C   0  0  0  0  0  0  0  0  0  0  0  0
    8.1571  -16.0072   22.3334 C   0  0  2  0  0  0  0  0  0  0  0  0
    7.3023  -15.1944   23.1729 N   0  0  0  0  0  0  0  0  0  0  0  0
    9.5868  -15.8270   22.7151 C   0  0  0  0  0  0  0  0  0  0  0  0
   10.0989  -14.6892   22.7087 O   0  0  0  0  0  0  0  0  0  0  0  0
   12.1918  -18.0272   24.2733 C   0  0  0  0  0  0  0  0  0  0  0  0
   11.7755  -16.8181   23.4623 C   0  0  2  0  0  0  0  0  0  0  0  0
   10.3788  -16.9253   23.0864 N   0  0  0  0  0  0  0  0  0  0  0  0
   12.6501  -16.6296   22.2772 C   0  0  0  0  0  0  0  0  0  0  0  0
   13.7263  -16.0114   22.3036 O   0  0  0  0  0  0  0  0  0  0  0  0
   12.2409  -17.1765   21.0689 O   0  0  0  0  0  0  0  0  0  0  0  0
  2  3  1  0
  2  1  1  0
  3  5  1  0
  3  4  1  6
  5  7  1  0
  5  6  1  1
  7  8  2  0
 10  9  1  1
 10 11  1  0
 10 12  1  0
 12 14  1  0
 13  7  1  0
 12 13  1  1
 14 15  2  0
 17 16  1  6
 17 19  1  0
 18 17  1  0
 18 14  1  0
 19 20  2  0
 19 21  1  0
M  END
$$$$
