IVA.pdb
     RDKit          3D

 21 20  0  0  1  0  0  0  0  0999 V2000
    6.8806  -11.5526   27.8693 C   0  0  0  0  0  0  0  0  0  0  0  0
    5.9610  -12.5133   27.0896 C   0  0  0  0  0  0  0  0  0  0  0  0
    6.8873  -13.3702   26.2770 C   0  0  2  0  0  0  0  0  0  0  0  0
    7.9461  -12.5315   25.5955 C   0  0  0  0  0  0  0  0  0  0  0  0
    6.2007  -14.3057   25.3129 C   0  0  2  0  0  0  0  0  0  0  0  0
    5.4156  -15.2074   26.1819 N   0  0  0  0  0  0  0  0  0  0  0  0
    7.1031  -15.1521   24.5240 C   0  0  0  0  0  0  0  0  0  0  0  0
    7.6004  -16.2032   25.0534 O   0  0  0  0  0  0  0  0  0  0  0  0
    9.1726  -16.3394   20.1215 C   0  0  0  0  0  0  0  0  0  0  0  0
    8.3568  -15.3884   20.9762 C   0  0  1  0  0  0  0  0  0  0  0  0
    6.9941  -15.1804   20.3964 C   0  0  0  0  0  0  0  0  0  0  0  0
    8.3123  -15.8434   22.4205 C   0  0  2  0  0  0  0  0  0  0  0  0
    7.4968  -14.9169   23.1772 N   0  0  0  0  0  0  0  0  0  0  0  0
    9.7163  -15.8317   22.9213 C   0  0  0  0  0  0  0  0  0  0  0  0
   10.3380  -14.7544   23.0199 O   0  0  0  0  0  0  0  0  0  0  0  0
   11.8981  -18.2671   24.7038 C   0  0  0  0  0  0  0  0  0  0  0  0
   11.7252  -17.0803   23.7793 C   0  0  2  0  0  0  0  0  0  0  0  0
   10.3614  -17.0234   23.2889 N   0  0  0  0  0  0  0  0  0  0  0  0
   12.7080  -17.1089   22.6665 C   0  0  0  0  0  0  0  0  0  0  0  0
   12.4353  -17.4767   21.5126 O   0  0  0  0  0  0  0  0  0  0  0  0
   14.0078  -16.7006   22.9315 O   0  0  0  0  0  0  0  0  0  0  0  0
  2  3  1  0
  2  1  1  0
  3  5  1  0
  3  4  1  6
  5  7  1  0
  5  6  1  1
  7  8  2  0
 10  9  1  6
 10 11  1  0
 10 12  1  0
 12 14  1  0
 13  7  1  0
 12 13  1  1
 14 15  2  0
 17 16  1  6
 17 19  1  0
 18 17  1  0
 18 14  1  0
 19 20  2  0
 19 21  1  0
M  END
$$$$
