WKC.pdb
     RDKit          3D

 30 31  0  0  1  0  0  0  0  0999 V2000
    5.9869  -17.6072   24.8222 N   0  0  0  0  0  0  0  0  0  0  0  0
    6.9077  -16.6275   24.3474 C   0  0  1  0  0  0  0  0  0  0  0  0
    7.7979  -16.0462   25.4195 C   0  0  0  0  0  0  0  0  0  0  0  0
    7.0995  -15.0445   26.2483 C   0  0  0  0  0  0  0  0  0  0  0  0
    6.2069  -15.2766   27.2735 C   0  0  0  0  0  0  0  0  0  0  0  0
    5.8243  -14.0789   27.7416 N   0  0  0  0  0  0  0  0  0  0  0  0
    6.4490  -13.0917   27.0422 C   0  0  0  0  0  0  0  0  0  0  0  0
    6.3925  -11.7056   27.1378 C   0  0  0  0  0  0  0  0  0  0  0  0
    7.1533  -10.9506   26.2762 C   0  0  0  0  0  0  0  0  0  0  0  0
    7.9801  -11.5190   25.3092 C   0  0  0  0  0  0  0  0  0  0  0  0
    8.0142  -12.8828   25.2400 C   0  0  0  0  0  0  0  0  0  0  0  0
    7.2644  -13.6736   26.0883 C   0  0  0  0  0  0  0  0  0  0  0  0
    7.7058  -17.2084   23.2416 C   0  0  0  0  0  0  0  0  0  0  0  0
    8.6915  -17.9302   23.5245 O   0  0  0  0  0  0  0  0  0  0  0  0
    7.3633  -16.9534   21.8945 N   0  0  0  0  0  0  0  0  0  0  0  0
    8.2524  -16.2470   20.9923 C   0  0  1  0  0  0  0  0  0  0  0  0
    7.6348  -14.9457   20.5458 C   0  0  0  0  0  0  0  0  0  0  0  0
    8.4918  -14.3846   19.4469 C   0  0  0  0  0  0  0  0  0  0  0  0
    7.7704  -13.2683   18.7278 C   0  0  0  0  0  0  0  0  0  0  0  0
    8.5692  -12.7093   17.5770 C   0  0  0  0  0  0  0  0  0  0  0  0
    8.2919  -13.5786   16.4260 N   0  0  0  0  0  0  0  0  0  0  0  0
    9.5398  -15.9590   21.7039 C   0  0  0  0  0  0  0  0  0  0  0  0
    9.5927  -14.9799   22.4810 O   0  0  0  0  0  0  0  0  0  0  0  0
   10.6804  -16.7864   21.4967 N   0  0  0  0  0  0  0  0  0  0  0  0
   12.0029  -16.3274   21.8677 C   0  0  1  0  0  0  0  0  0  0  0  0
   12.5438  -17.2803   22.9205 C   0  0  0  0  0  0  0  0  0  0  0  0
   11.5354  -17.1741   24.4430 S   0  0  0  0  0  0  0  0  0  0  0  0
   12.8965  -16.3309   20.6789 C   0  0  0  0  0  0  0  0  0  0  0  0
   14.2196  -15.9178   20.7376 O   0  0  0  0  0  0  0  0  0  0  0  0
   12.4426  -16.7220   19.5741 O   0  0  0  0  0  0  0  0  0  0  0  0
  2  1  1  1
  2 13  1  0
  2  3  1  0
  3  4  1  0
  4  5  2  0
  5  6  1  0
  7  6  1  0
  8  7  2  0
  9  8  1  0
 10 11  1  0
 10  9  2  0
 11 12  2  0
 12  4  1  0
 12  7  1  0
 13 14  2  0
 15 13  1  0
 15 16  1  0
 16 17  1  1
 17 18  1  0
 19 18  1  0
 20 21  1  0
 20 19  1  0
 22 24  1  0
 22 16  1  0
 23 22  2  0
 25 28  1  0
 25 26  1  1
 25 24  1  0
 27 26  1  0
 28 29  1  0
 30 28  2  0
M  END
$$$$
