WKC.pdb
     RDKit          3D

 30 31  0  0  1  0  0  0  0  0999 V2000
    6.1438  -17.8627   24.6706 N   0  0  0  0  0  0  0  0  0  0  0  0
    6.6334  -16.5964   24.2348 C   0  0  1  0  0  0  0  0  0  0  0  0
    7.5846  -15.9358   25.2036 C   0  0  0  0  0  0  0  0  0  0  0  0
    6.9172  -14.9235   26.0452 C   0  0  0  0  0  0  0  0  0  0  0  0
    5.9322  -15.1309   26.9877 C   0  0  0  0  0  0  0  0  0  0  0  0
    5.6233  -13.9323   27.5052 N   0  0  0  0  0  0  0  0  0  0  0  0
    6.3848  -12.9685   26.9176 C   0  0  0  0  0  0  0  0  0  0  0  0
    6.4448  -11.5912   27.0996 C   0  0  0  0  0  0  0  0  0  0  0  0
    7.3330  -10.8614   26.3449 C   0  0  0  0  0  0  0  0  0  0  0  0
    8.1770  -11.4468   25.4033 C   0  0  0  0  0  0  0  0  0  0  0  0
    8.0947  -12.8014   25.2474 C   0  0  0  0  0  0  0  0  0  0  0  0
    7.2152  -13.5670   25.9872 C   0  0  0  0  0  0  0  0  0  0  0  0
    7.2498  -16.7500   22.8956 C   0  0  0  0  0  0  0  0  0  0  0  0
    7.8951  -17.7958   22.6457 O   0  0  0  0  0  0  0  0  0  0  0  0
    7.1136  -15.7375   21.9192 N   0  0  0  0  0  0  0  0  0  0  0  0
    8.0575  -15.5847   20.8287 C   0  0  1  0  0  0  0  0  0  0  0  0
    7.7915  -14.3099   20.0682 C   0  0  0  0  0  0  0  0  0  0  0  0
    8.7537  -14.2541   18.9159 C   0  0  0  0  0  0  0  0  0  0  0  0
    8.0128  -14.0558   17.6139 C   0  0  0  0  0  0  0  0  0  0  0  0
    8.9321  -14.0578   16.4181 C   0  0  0  0  0  0  0  0  0  0  0  0
    8.0883  -13.7626   15.2527 N   0  0  0  0  0  0  0  0  0  0  0  0
    9.4467  -15.5389   21.3900 C   0  0  0  0  0  0  0  0  0  0  0  0
    9.6163  -15.0808   22.5418 O   0  0  0  0  0  0  0  0  0  0  0  0
   10.5513  -16.0085   20.6234 N   0  0  0  0  0  0  0  0  0  0  0  0
   11.8726  -16.0970   21.2096 C   0  0  1  0  0  0  0  0  0  0  0  0
   11.7939  -17.0607   22.3819 C   0  0  0  0  0  0  0  0  0  0  0  0
   13.4673  -17.3787   23.0485 S   0  0  0  0  0  0  0  0  0  0  0  0
   12.8439  -16.6053   20.2045 C   0  0  0  0  0  0  0  0  0  0  0  0
   14.2119  -16.4062   20.3205 O   0  0  0  0  0  0  0  0  0  0  0  0
   12.4163  -17.2410   19.2082 O   0  0  0  0  0  0  0  0  0  0  0  0
  2  1  1  1
  2 13  1  0
  2  3  1  0
  3  4  1  0
  4  5  2  0
  5  6  1  0
  7  6  1  0
  8  7  2  0
  9  8  1  0
 10 11  1  0
 10  9  2  0
 11 12  2  0
 12  4  1  0
 12  7  1  0
 13 14  2  0
 15 13  1  0
 15 16  1  0
 16 17  1  1
 17 18  1  0
 19 18  1  0
 20 21  1  0
 20 19  1  0
 22 24  1  0
 22 16  1  0
 23 22  2  0
 25 28  1  0
 25 26  1  1
 25 24  1  0
 27 26  1  0
 28 29  1  0
 30 28  2  0
M  END
$$$$
