WKC.pdb
     RDKit          3D

 30 31  0  0  1  0  0  0  0  0999 V2000
    6.1634  -17.9259   23.7186 N   0  0  0  0  0  0  0  0  0  0  0  0
    6.6770  -16.5975   23.7880 C   0  0  1  0  0  0  0  0  0  0  0  0
    7.2878  -16.2409   25.1220 C   0  0  0  0  0  0  0  0  0  0  0  0
    6.6166  -15.0907   25.7584 C   0  0  0  0  0  0  0  0  0  0  0  0
    5.3275  -15.0333   26.2446 C   0  0  0  0  0  0  0  0  0  0  0  0
    5.1452  -13.7971   26.7330 N   0  0  0  0  0  0  0  0  0  0  0  0
    6.2829  -13.0669   26.5707 C   0  0  0  0  0  0  0  0  0  0  0  0
    6.6012  -11.7550   26.9037 C   0  0  0  0  0  0  0  0  0  0  0  0
    7.8591  -11.2834   26.6095 C   0  0  0  0  0  0  0  0  0  0  0  0
    8.8297  -12.0683   25.9900 C   0  0  0  0  0  0  0  0  0  0  0  0
    8.4870  -13.3526   25.6753 C   0  0  0  0  0  0  0  0  0  0  0  0
    7.2338  -13.8609   25.9552 C   0  0  0  0  0  0  0  0  0  0  0  0
    7.6424  -16.3928   22.6820 C   0  0  0  0  0  0  0  0  0  0  0  0
    8.4074  -17.3355   22.3679 O   0  0  0  0  0  0  0  0  0  0  0  0
    7.7003  -15.1592   21.9951 N   0  0  0  0  0  0  0  0  0  0  0  0
    8.7578  -14.8496   21.0521 C   0  0  1  0  0  0  0  0  0  0  0  0
    8.5584  -13.4774   20.4591 C   0  0  0  0  0  0  0  0  0  0  0  0
    7.6587  -13.6204   19.2646 C   0  0  0  0  0  0  0  0  0  0  0  0
    8.4071  -14.2391   18.1067 C   0  0  0  0  0  0  0  0  0  0  0  0
    7.5332  -14.4415   16.8941 C   0  0  0  0  0  0  0  0  0  0  0  0
    8.3780  -15.0942   15.8852 N   0  0  0  0  0  0  0  0  0  0  0  0
   10.0744  -14.8868   21.7677 C   0  0  0  0  0  0  0  0  0  0  0  0
   10.2663  -14.0959   22.7179 O   0  0  0  0  0  0  0  0  0  0  0  0
   11.0868  -15.8065   21.3705 N   0  0  0  0  0  0  0  0  0  0  0  0
   12.2160  -16.0804   22.2347 C   0  0  1  0  0  0  0  0  0  0  0  0
   11.6702  -16.5574   23.5702 C   0  0  0  0  0  0  0  0  0  0  0  0
   13.0367  -17.1444   24.6351 S   0  0  0  0  0  0  0  0  0  0  0  0
   13.0733  -17.1374   21.6348 C   0  0  0  0  0  0  0  0  0  0  0  0
   12.6253  -17.9810   20.6288 O   0  0  0  0  0  0  0  0  0  0  0  0
   14.2511  -17.2780   22.0503 O   0  0  0  0  0  0  0  0  0  0  0  0
  2  1  1  1
  2 13  1  0
  2  3  1  0
  3  4  1  0
  4  5  2  0
  5  6  1  0
  7  6  1  0
  8  7  2  0
  9  8  1  0
 10 11  1  0
 10  9  2  0
 11 12  2  0
 12  4  1  0
 12  7  1  0
 13 14  2  0
 15 13  1  0
 15 16  1  0
 16 17  1  1
 17 18  1  0
 19 18  1  0
 20 21  1  0
 20 19  1  0
 22 24  1  0
 22 16  1  0
 23 22  2  0
 25 28  1  0
 25 26  1  1
 25 24  1  0
 27 26  1  0
 28 29  1  0
 30 28  2  0
M  END
$$$$
