WKC.pdb
     RDKit          3D

 30 31  0  0  1  0  0  0  0  0999 V2000
    6.2398  -18.3635   24.7378 N   0  0  0  0  0  0  0  0  0  0  0  0
    6.5475  -16.9897   24.5113 C   0  0  1  0  0  0  0  0  0  0  0  0
    7.3426  -16.3443   25.6208 C   0  0  0  0  0  0  0  0  0  0  0  0
    6.7010  -15.1174   26.1321 C   0  0  0  0  0  0  0  0  0  0  0  0
    5.3850  -14.9515   26.5092 C   0  0  0  0  0  0  0  0  0  0  0  0
    5.2467  -13.6778   26.9075 N   0  0  0  0  0  0  0  0  0  0  0  0
    6.4386  -13.0293   26.7939 C   0  0  0  0  0  0  0  0  0  0  0  0
    6.8151  -11.7202   27.0732 C   0  0  0  0  0  0  0  0  0  0  0  0
    8.1198  -11.3450   26.8533 C   0  0  0  0  0  0  0  0  0  0  0  0
    9.0817  -12.2249   26.3611 C   0  0  0  0  0  0  0  0  0  0  0  0
    8.6812  -13.5038   26.0965 C   0  0  0  0  0  0  0  0  0  0  0  0
    7.3800  -13.9168   26.3047 C   0  0  0  0  0  0  0  0  0  0  0  0
    7.2380  -16.8566   23.2065 C   0  0  0  0  0  0  0  0  0  0  0  0
    8.1103  -17.7029   22.8974 O   0  0  0  0  0  0  0  0  0  0  0  0
    6.9203  -15.7964   22.3279 N   0  0  0  0  0  0  0  0  0  0  0  0
    7.8359  -15.3479   21.2965 C   0  0  1  0  0  0  0  0  0  0  0  0
    7.4539  -13.9741   20.8052 C   0  0  0  0  0  0  0  0  0  0  0  0
    8.4346  -13.5796   19.7379 C   0  0  0  0  0  0  0  0  0  0  0  0
    8.0749  -14.2264   18.4203 C   0  0  0  0  0  0  0  0  0  0  0  0
    9.0709  -13.9151   17.3312 C   0  0  0  0  0  0  0  0  0  0  0  0
    8.5792  -14.5890   16.1223 N   0  0  0  0  0  0  0  0  0  0  0  0
    9.2220  -15.2964   21.8647 C   0  0  0  0  0  0  0  0  0  0  0  0
    9.4887  -14.4280   22.7249 O   0  0  0  0  0  0  0  0  0  0  0  0
   10.2153  -16.2203   21.4308 N   0  0  0  0  0  0  0  0  0  0  0  0
   11.6050  -16.0349   21.7933 C   0  0  1  0  0  0  0  0  0  0  0  0
   12.0320  -17.2387   22.6164 C   0  0  0  0  0  0  0  0  0  0  0  0
   11.1589  -17.2435   24.2238 S   0  0  0  0  0  0  0  0  0  0  0  0
   12.4436  -15.9395   20.5687 C   0  0  0  0  0  0  0  0  0  0  0  0
   13.8049  -15.6758   20.6141 O   0  0  0  0  0  0  0  0  0  0  0  0
   11.9052  -16.1029   19.4448 O   0  0  0  0  0  0  0  0  0  0  0  0
  2  1  1  1
  2 13  1  0
  2  3  1  0
  3  4  1  0
  4  5  2  0
  5  6  1  0
  7  6  1  0
  8  7  2  0
  9  8  1  0
 10 11  1  0
 10  9  2  0
 11 12  2  0
 12  4  1  0
 12  7  1  0
 13 14  2  0
 15 13  1  0
 15 16  1  0
 16 17  1  1
 17 18  1  0
 19 18  1  0
 20 21  1  0
 20 19  1  0
 22 24  1  0
 22 16  1  0
 23 22  2  0
 25 28  1  0
 25 26  1  1
 25 24  1  0
 27 26  1  0
 28 29  1  0
 30 28  2  0
M  END
$$$$
