WKC.pdb
     RDKit          3D

 30 31  0  0  1  0  0  0  0  0999 V2000
    6.1190  -17.9356   23.8345 N   0  0  0  0  0  0  0  0  0  0  0  0
    6.6277  -16.6035   23.8390 C   0  0  1  0  0  0  0  0  0  0  0  0
    7.2815  -16.1970   25.1379 C   0  0  0  0  0  0  0  0  0  0  0  0
    6.5212  -15.1489   25.8463 C   0  0  0  0  0  0  0  0  0  0  0  0
    5.2705  -15.2580   26.4167 C   0  0  0  0  0  0  0  0  0  0  0  0
    4.9740  -14.0622   26.9479 N   0  0  0  0  0  0  0  0  0  0  0  0
    6.0017  -13.1958   26.7308 C   0  0  0  0  0  0  0  0  0  0  0  0
    6.1813  -11.8609   27.0763 C   0  0  0  0  0  0  0  0  0  0  0  0
    7.3503  -11.2342   26.7131 C   0  0  0  0  0  0  0  0  0  0  0  0
    8.3642  -11.8835   26.0115 C   0  0  0  0  0  0  0  0  0  0  0  0
    8.1583  -13.1942   25.6866 C   0  0  0  0  0  0  0  0  0  0  0  0
    6.9975  -13.8566   26.0343 C   0  0  0  0  0  0  0  0  0  0  0  0
    7.5541  -16.4348   22.6942 C   0  0  0  0  0  0  0  0  0  0  0  0
    8.2797  -17.4010   22.3589 O   0  0  0  0  0  0  0  0  0  0  0  0
    7.6190  -15.2088   21.9944 N   0  0  0  0  0  0  0  0  0  0  0  0
    8.6350  -14.9439   20.9940 C   0  0  1  0  0  0  0  0  0  0  0  0
    8.5009  -13.5412   20.4566 C   0  0  0  0  0  0  0  0  0  0  0  0
    7.5365  -13.5814   19.3055 C   0  0  0  0  0  0  0  0  0  0  0  0
    8.2283  -14.0571   18.0489 C   0  0  0  0  0  0  0  0  0  0  0  0
    7.3318  -14.0005   16.8373 C   0  0  0  0  0  0  0  0  0  0  0  0
    8.1238  -14.5257   15.7174 N   0  0  0  0  0  0  0  0  0  0  0  0
    9.9877  -15.1007   21.6205 C   0  0  0  0  0  0  0  0  0  0  0  0
   10.2598  -14.4316   22.6420 O   0  0  0  0  0  0  0  0  0  0  0  0
   10.9438  -15.9955   21.0604 N   0  0  0  0  0  0  0  0  0  0  0  0
   12.2750  -16.0994   21.6210 C   0  0  1  0  0  0  0  0  0  0  0  0
   12.1442  -16.6923   23.0140 C   0  0  0  0  0  0  0  0  0  0  0  0
   11.0354  -18.1466   22.9773 S   0  0  0  0  0  0  0  0  0  0  0  0
   13.1178  -16.9850   20.7741 C   0  0  0  0  0  0  0  0  0  0  0  0
   14.4611  -17.2120   21.0363 O   0  0  0  0  0  0  0  0  0  0  0  0
   12.6001  -17.5538   19.7801 O   0  0  0  0  0  0  0  0  0  0  0  0
  2  1  1  1
  2 13  1  0
  2  3  1  0
  3  4  1  0
  4  5  2  0
  5  6  1  0
  7  6  1  0
  8  7  2  0
  9  8  1  0
 10 11  1  0
 10  9  2  0
 11 12  2  0
 12  4  1  0
 12  7  1  0
 13 14  2  0
 15 13  1  0
 15 16  1  0
 16 17  1  1
 17 18  1  0
 19 18  1  0
 20 21  1  0
 20 19  1  0
 22 24  1  0
 22 16  1  0
 23 22  2  0
 25 28  1  0
 25 26  1  1
 25 24  1  0
 27 26  1  0
 28 29  1  0
 30 28  2  0
M  END
$$$$
