WKC.pdb
     RDKit          3D

 30 31  0  0  1  0  0  0  0  0999 V2000
    6.2843  -18.0226   24.6997 N   0  0  0  0  0  0  0  0  0  0  0  0
    6.6336  -16.6760   24.3868 C   0  0  1  0  0  0  0  0  0  0  0  0
    7.3342  -15.9440   25.5063 C   0  0  0  0  0  0  0  0  0  0  0  0
    6.5175  -14.8450   26.0573 C   0  0  0  0  0  0  0  0  0  0  0  0
    5.2403  -14.9228   26.5712 C   0  0  0  0  0  0  0  0  0  0  0  0
    4.8934  -13.6847   26.9542 N   0  0  0  0  0  0  0  0  0  0  0  0
    5.9150  -12.8217   26.6977 C   0  0  0  0  0  0  0  0  0  0  0  0
    6.0509  -11.4536   26.9057 C   0  0  0  0  0  0  0  0  0  0  0  0
    7.2257  -10.8410   26.5373 C   0  0  0  0  0  0  0  0  0  0  0  0
    8.2878  -11.5368   25.9631 C   0  0  0  0  0  0  0  0  0  0  0  0
    8.1241  -12.8794   25.7716 C   0  0  0  0  0  0  0  0  0  0  0  0
    6.9589  -13.5288   26.1288 C   0  0  0  0  0  0  0  0  0  0  0  0
    7.4428  -16.6614   23.1450 C   0  0  0  0  0  0  0  0  0  0  0  0
    8.1634  -17.6539   22.8838 O   0  0  0  0  0  0  0  0  0  0  0  0
    7.4038  -15.5505   22.2725 N   0  0  0  0  0  0  0  0  0  0  0  0
    8.2816  -15.4403   21.1233 C   0  0  1  0  0  0  0  0  0  0  0  0
    8.0214  -14.1571   20.3749 C   0  0  0  0  0  0  0  0  0  0  0  0
    8.9642  -14.1085   19.2063 C   0  0  0  0  0  0  0  0  0  0  0  0
    8.2008  -13.9270   17.9148 C   0  0  0  0  0  0  0  0  0  0  0  0
    9.0835  -14.0505   16.6980 C   0  0  0  0  0  0  0  0  0  0  0  0
    8.1832  -14.0467   15.5374 N   0  0  0  0  0  0  0  0  0  0  0  0
    9.7045  -15.4519   21.5946 C   0  0  0  0  0  0  0  0  0  0  0  0
    9.9570  -15.0673   22.7581 O   0  0  0  0  0  0  0  0  0  0  0  0
   10.7479  -15.8930   20.7312 N   0  0  0  0  0  0  0  0  0  0  0  0
   12.0619  -16.1990   21.2573 C   0  0  1  0  0  0  0  0  0  0  0  0
   11.9294  -17.4243   22.1462 C   0  0  0  0  0  0  0  0  0  0  0  0
   13.5855  -18.0484   22.6085 S   0  0  0  0  0  0  0  0  0  0  0  0
   13.0040  -16.4853   20.1426 C   0  0  0  0  0  0  0  0  0  0  0  0
   14.3462  -16.1379   20.1911 O   0  0  0  0  0  0  0  0  0  0  0  0
   12.5749  -17.0643   19.1130 O   0  0  0  0  0  0  0  0  0  0  0  0
  2  1  1  1
  2 13  1  0
  2  3  1  0
  3  4  1  0
  4  5  2  0
  5  6  1  0
  7  6  1  0
  8  7  2  0
  9  8  1  0
 10 11  1  0
 10  9  2  0
 11 12  2  0
 12  4  1  0
 12  7  1  0
 13 14  2  0
 15 13  1  0
 15 16  1  0
 16 17  1  1
 17 18  1  0
 19 18  1  0
 20 21  1  0
 20 19  1  0
 22 24  1  0
 22 16  1  0
 23 22  2  0
 25 28  1  0
 25 26  1  1
 25 24  1  0
 27 26  1  0
 28 29  1  0
 30 28  2  0
M  END
$$$$
