WKC.pdb
     RDKit          3D

 30 31  0  0  1  0  0  0  0  0999 V2000
    7.8404  -17.4490   24.9969 N   0  0  0  0  0  0  0  0  0  0  0  0
    6.9766  -16.6284   24.2136 C   0  0  1  0  0  0  0  0  0  0  0  0
    6.2391  -15.5759   25.0060 C   0  0  0  0  0  0  0  0  0  0  0  0
    7.1081  -14.9006   25.9894 C   0  0  0  0  0  0  0  0  0  0  0  0
    8.1900  -15.4315   26.6596 C   0  0  0  0  0  0  0  0  0  0  0  0
    8.6777  -14.4634   27.4501 N   0  0  0  0  0  0  0  0  0  0  0  0
    7.9356  -13.3315   27.3010 C   0  0  0  0  0  0  0  0  0  0  0  0
    8.0298  -12.0740   27.8868 C   0  0  0  0  0  0  0  0  0  0  0  0
    7.1178  -11.1078   27.5318 C   0  0  0  0  0  0  0  0  0  0  0  0
    6.1011  -11.3381   26.6071 C   0  0  0  0  0  0  0  0  0  0  0  0
    6.0347  -12.5831   26.0490 C   0  0  0  0  0  0  0  0  0  0  0  0
    6.9327  -13.5783   26.3808 C   0  0  0  0  0  0  0  0  0  0  0  0
    7.7557  -16.0220   23.1078 C   0  0  0  0  0  0  0  0  0  0  0  0
    8.3495  -14.9368   23.3136 O   0  0  0  0  0  0  0  0  0  0  0  0
    7.8275  -16.6540   21.8459 N   0  0  0  0  0  0  0  0  0  0  0  0
    8.5433  -16.0682   20.7289 C   0  0  1  0  0  0  0  0  0  0  0  0
    8.0792  -14.6549   20.4805 C   0  0  0  0  0  0  0  0  0  0  0  0
    7.3607  -14.6333   19.1614 C   0  0  0  0  0  0  0  0  0  0  0  0
    8.1129  -13.7872   18.1604 C   0  0  0  0  0  0  0  0  0  0  0  0
    7.4035  -13.6929   16.8327 C   0  0  0  0  0  0  0  0  0  0  0  0
    8.3369  -13.0243   15.9166 N   0  0  0  0  0  0  0  0  0  0  0  0
   10.0088  -16.0538   21.0434 C   0  0  0  0  0  0  0  0  0  0  0  0
   10.7863  -15.4578   20.2652 O   0  0  0  0  0  0  0  0  0  0  0  0
   10.5042  -16.7079   22.2076 N   0  0  0  0  0  0  0  0  0  0  0  0
   11.9160  -16.6754   22.5286 C   0  0  1  0  0  0  0  0  0  0  0  0
   12.0435  -16.5604   24.0384 C   0  0  0  0  0  0  0  0  0  0  0  0
   13.7822  -16.8184   24.5445 S   0  0  0  0  0  0  0  0  0  0  0  0
   12.5746  -17.9243   22.0614 C   0  0  0  0  0  0  0  0  0  0  0  0
   13.9485  -18.0291   21.9004 O   0  0  0  0  0  0  0  0  0  0  0  0
   11.8655  -18.9285   21.8002 O   0  0  0  0  0  0  0  0  0  0  0  0
  2  1  1  1
  2 13  1  0
  2  3  1  0
  3  4  1  0
  4  5  2  0
  5  6  1  0
  7  6  1  0
  8  7  2  0
  9  8  1  0
 10 11  1  0
 10  9  2  0
 11 12  2  0
 12  4  1  0
 12  7  1  0
 13 14  2  0
 15 13  1  0
 15 16  1  0
 16 17  1  1
 17 18  1  0
 19 18  1  0
 20 21  1  0
 20 19  1  0
 22 24  1  0
 22 16  1  0
 23 22  2  0
 25 28  1  0
 25 26  1  1
 25 24  1  0
 27 26  1  0
 28 29  1  0
 30 28  2  0
M  END
$$$$
