WKC.pdb
     RDKit          3D

 30 31  0  0  1  0  0  0  0  0999 V2000
    6.7292  -18.5049   25.0182 N   0  0  0  0  0  0  0  0  0  0  0  0
    6.9023  -17.1306   24.6794 C   0  0  1  0  0  0  0  0  0  0  0  0
    7.4582  -16.2842   25.7993 C   0  0  0  0  0  0  0  0  0  0  0  0
    6.5980  -15.1254   26.1087 C   0  0  0  0  0  0  0  0  0  0  0  0
    5.2349  -15.1223   26.3172 C   0  0  0  0  0  0  0  0  0  0  0  0
    4.8773  -13.8534   26.5664 N   0  0  0  0  0  0  0  0  0  0  0  0
    5.9755  -13.0497   26.5219 C   0  0  0  0  0  0  0  0  0  0  0  0
    6.1341  -11.6808   26.7075 C   0  0  0  0  0  0  0  0  0  0  0  0
    7.3934  -11.1390   26.5982 C   0  0  0  0  0  0  0  0  0  0  0  0
    8.5192  -11.9074   26.3086 C   0  0  0  0  0  0  0  0  0  0  0  0
    8.3312  -13.2488   26.1317 C   0  0  0  0  0  0  0  0  0  0  0  0
    7.0819  -13.8283   26.2337 C   0  0  0  0  0  0  0  0  0  0  0  0
    7.7436  -17.0338   23.4629 C   0  0  0  0  0  0  0  0  0  0  0  0
    8.6392  -17.8922   23.2798 O   0  0  0  0  0  0  0  0  0  0  0  0
    7.5411  -15.9939   22.5277 N   0  0  0  0  0  0  0  0  0  0  0  0
    8.3757  -15.8401   21.3516 C   0  0  1  0  0  0  0  0  0  0  0  0
    7.8901  -14.6944   20.4995 C   0  0  0  0  0  0  0  0  0  0  0  0
    8.7454  -14.6460   19.2655 C   0  0  0  0  0  0  0  0  0  0  0  0
    8.2478  -13.5813   18.3154 C   0  0  0  0  0  0  0  0  0  0  0  0
    9.0580  -13.5142   17.0450 C   0  0  0  0  0  0  0  0  0  0  0  0
    8.6296  -12.2929   16.3505 N   0  0  0  0  0  0  0  0  0  0  0  0
    9.7835  -15.5642   21.7862 C   0  0  0  0  0  0  0  0  0  0  0  0
    9.9730  -14.9371   22.8521 O   0  0  0  0  0  0  0  0  0  0  0  0
   10.8831  -16.0089   20.9979 N   0  0  0  0  0  0  0  0  0  0  0  0
   12.1892  -16.2000   21.5934 C   0  0  1  0  0  0  0  0  0  0  0  0
   12.0306  -17.1696   22.7527 C   0  0  0  0  0  0  0  0  0  0  0  0
   13.6679  -17.5842   23.4549 S   0  0  0  0  0  0  0  0  0  0  0  0
   13.1301  -16.7652   20.5897 C   0  0  0  0  0  0  0  0  0  0  0  0
   14.4860  -16.4717   20.5886 O   0  0  0  0  0  0  0  0  0  0  0  0
   12.6871  -17.5398   19.7048 O   0  0  0  0  0  0  0  0  0  0  0  0
  2  1  1  1
  2 13  1  0
  2  3  1  0
  3  4  1  0
  4  5  2  0
  5  6  1  0
  7  6  1  0
  8  7  2  0
  9  8  1  0
 10 11  1  0
 10  9  2  0
 11 12  2  0
 12  4  1  0
 12  7  1  0
 13 14  2  0
 15 13  1  0
 15 16  1  0
 16 17  1  6
 17 18  1  0
 19 18  1  0
 20 21  1  0
 20 19  1  0
 22 24  1  0
 22 16  1  0
 23 22  2  0
 25 28  1  0
 25 26  1  1
 25 24  1  0
 27 26  1  0
 28 29  1  0
 30 28  2  0
M  END
$$$$
