WKC.pdb
     RDKit          3D

 30 31  0  0  1  0  0  0  0  0999 V2000
    6.4445  -17.9128   24.9032 N   0  0  0  0  0  0  0  0  0  0  0  0
    6.8803  -16.6890   24.3153 C   0  0  1  0  0  0  0  0  0  0  0  0
    7.7775  -15.8622   25.2048 C   0  0  0  0  0  0  0  0  0  0  0  0
    7.0352  -14.8175   25.9369 C   0  0  0  0  0  0  0  0  0  0  0  0
    5.8267  -14.9453   26.5887 C   0  0  0  0  0  0  0  0  0  0  0  0
    5.5319  -13.7452   27.1111 N   0  0  0  0  0  0  0  0  0  0  0  0
    6.5196  -12.8579   26.8094 C   0  0  0  0  0  0  0  0  0  0  0  0
    6.6841  -11.5109   27.1129 C   0  0  0  0  0  0  0  0  0  0  0  0
    7.8100  -10.8629   26.6616 C   0  0  0  0  0  0  0  0  0  0  0  0
    8.7948  -11.5024   25.9111 C   0  0  0  0  0  0  0  0  0  0  0  0
    8.6047  -12.8254   25.6293 C   0  0  0  0  0  0  0  0  0  0  0  0
    7.4869  -13.5092   26.0653 C   0  0  0  0  0  0  0  0  0  0  0  0
    7.5313  -16.9805   23.0159 C   0  0  0  0  0  0  0  0  0  0  0  0
    8.4108  -17.8732   22.9696 O   0  0  0  0  0  0  0  0  0  0  0  0
    7.1686  -16.2660   21.8519 N   0  0  0  0  0  0  0  0  0  0  0  0
    8.1190  -15.9794   20.7946 C   0  0  1  0  0  0  0  0  0  0  0  0
    7.6321  -14.8402   19.9346 C   0  0  0  0  0  0  0  0  0  0  0  0
    8.5314  -14.7549   18.7343 C   0  0  0  0  0  0  0  0  0  0  0  0
    7.9248  -13.8599   17.6784 C   0  0  0  0  0  0  0  0  0  0  0  0
    8.6875  -13.8995   16.3778 C   0  0  0  0  0  0  0  0  0  0  0  0
    8.0170  -12.9487   15.4812 N   0  0  0  0  0  0  0  0  0  0  0  0
    9.4325  -15.6014   21.4098 C   0  0  0  0  0  0  0  0  0  0  0  0
    9.4464  -14.7457   22.3223 O   0  0  0  0  0  0  0  0  0  0  0  0
   10.6411  -16.2070   20.9613 N   0  0  0  0  0  0  0  0  0  0  0  0
   11.8469  -16.1286   21.7595 C   0  0  1  0  0  0  0  0  0  0  0  0
   11.5755  -16.8365   23.0764 C   0  0  0  0  0  0  0  0  0  0  0  0
   13.1221  -16.9841   24.0419 S   0  0  0  0  0  0  0  0  0  0  0  0
   12.9719  -16.7960   21.0517 C   0  0  0  0  0  0  0  0  0  0  0  0
   14.2863  -16.3677   21.1673 O   0  0  0  0  0  0  0  0  0  0  0  0
   12.7303  -17.7875   20.3182 O   0  0  0  0  0  0  0  0  0  0  0  0
  2  1  1  1
  2 13  1  0
  2  3  1  0
  3  4  1  0
  4  5  2  0
  5  6  1  0
  7  6  1  0
  8  7  2  0
  9  8  1  0
 10 11  1  0
 10  9  2  0
 11 12  2  0
 12  4  1  0
 12  7  1  0
 13 14  2  0
 15 13  1  0
 15 16  1  0
 16 17  1  1
 17 18  1  0
 19 18  1  0
 20 21  1  0
 20 19  1  0
 22 24  1  0
 22 16  1  0
 23 22  2  0
 25 28  1  0
 25 26  1  1
 25 24  1  0
 27 26  1  0
 28 29  1  0
 30 28  2  0
M  END
$$$$
