WKC.pdb
     RDKit          3D

 30 31  0  0  1  0  0  0  0  0999 V2000
    9.3398  -16.2975   24.0553 N   0  0  0  0  0  0  0  0  0  0  0  0
    8.2270  -16.5881   23.2124 C   0  0  1  0  0  0  0  0  0  0  0  0
    7.2432  -15.4510   23.0752 C   0  0  0  0  0  0  0  0  0  0  0  0
    6.7945  -14.9347   24.3831 C   0  0  0  0  0  0  0  0  0  0  0  0
    6.1182  -15.6200   25.3702 C   0  0  0  0  0  0  0  0  0  0  0  0
    5.9164  -14.7597   26.3798 N   0  0  0  0  0  0  0  0  0  0  0  0
    6.4458  -13.5462   26.0616 C   0  0  0  0  0  0  0  0  0  0  0  0
    6.4982  -12.3433   26.7571 C   0  0  0  0  0  0  0  0  0  0  0  0
    7.1124  -11.2634   26.1675 C   0  0  0  0  0  0  0  0  0  0  0  0
    7.6857  -11.3255   24.8989 C   0  0  0  0  0  0  0  0  0  0  0  0
    7.6183  -12.5207   24.2409 C   0  0  0  0  0  0  0  0  0  0  0  0
    7.0097  -13.6266   24.8010 C   0  0  0  0  0  0  0  0  0  0  0  0
    8.7248  -17.0318   21.8886 C   0  0  0  0  0  0  0  0  0  0  0  0
    7.9134  -17.5414   21.0797 O   0  0  0  0  0  0  0  0  0  0  0  0
   10.0875  -16.8841   21.5447 N   0  0  0  0  0  0  0  0  0  0  0  0
   11.0073  -18.0054   21.5355 C   0  0  1  0  0  0  0  0  0  0  0  0
   11.9005  -17.9523   20.3216 C   0  0  0  0  0  0  0  0  0  0  0  0
   11.0976  -18.4187   19.1406 C   0  0  0  0  0  0  0  0  0  0  0  0
   11.6954  -17.9000   17.8533 C   0  0  0  0  0  0  0  0  0  0  0  0
   10.8979  -18.3063   16.6393 C   0  0  0  0  0  0  0  0  0  0  0  0
   11.6661  -17.8499   15.4735 N   0  0  0  0  0  0  0  0  0  0  0  0
   11.8556  -17.9494   22.7700 C   0  0  0  0  0  0  0  0  0  0  0  0
   12.4808  -16.8960   23.0242 O   0  0  0  0  0  0  0  0  0  0  0  0
   11.9465  -19.0768   23.6357 N   0  0  0  0  0  0  0  0  0  0  0  0
   12.8359  -19.0605   24.7784 C   0  0  1  0  0  0  0  0  0  0  0  0
   11.9984  -19.3219   26.0191 C   0  0  0  0  0  0  0  0  0  0  0  0
   10.7669  -17.9874   26.2396 S   0  0  0  0  0  0  0  0  0  0  0  0
   13.8692  -20.1207   24.6361 C   0  0  0  0  0  0  0  0  0  0  0  0
   14.9007  -20.2859   25.5488 O   0  0  0  0  0  0  0  0  0  0  0  0
   13.8124  -20.9016   23.6529 O   0  0  0  0  0  0  0  0  0  0  0  0
  2  1  1  1
  2 13  1  0
  2  3  1  0
  3  4  1  0
  4  5  2  0
  5  6  1  0
  7  6  1  0
  8  7  2  0
  9  8  1  0
 10 11  1  0
 10  9  2  0
 11 12  2  0
 12  4  1  0
 12  7  1  0
 13 14  2  0
 15 13  1  0
 15 16  1  0
 16 17  1  6
 17 18  1  0
 19 18  1  0
 20 21  1  0
 20 19  1  0
 22 24  1  0
 22 16  1  0
 23 22  2  0
 25 28  1  0
 25 26  1  1
 25 24  1  0
 27 26  1  0
 28 29  1  0
 30 28  2  0
M  END
$$$$
