WKC.pdb
     RDKit          3D

 30 31  0  0  1  0  0  0  0  0999 V2000
    6.5405  -17.9975   24.0844 N   0  0  0  0  0  0  0  0  0  0  0  0
    7.4351  -17.0435   23.5163 C   0  0  1  0  0  0  0  0  0  0  0  0
    8.0887  -16.1320   24.5271 C   0  0  0  0  0  0  0  0  0  0  0  0
    7.1146  -15.2567   25.2077 C   0  0  0  0  0  0  0  0  0  0  0  0
    5.9989  -15.6372   25.9233 C   0  0  0  0  0  0  0  0  0  0  0  0
    5.4100  -14.5142   26.3617 N   0  0  0  0  0  0  0  0  0  0  0  0
    6.1205  -13.4302   25.9445 C   0  0  0  0  0  0  0  0  0  0  0  0
    5.9304  -12.0655   26.1318 C   0  0  0  0  0  0  0  0  0  0  0  0
    6.8338  -11.1888   25.5783 C   0  0  0  0  0  0  0  0  0  0  0  0
    7.9341  -11.6129   24.8359 C   0  0  0  0  0  0  0  0  0  0  0  0
    8.0938  -12.9593   24.6695 C   0  0  0  0  0  0  0  0  0  0  0  0
    7.2073  -13.8697   25.2103 C   0  0  0  0  0  0  0  0  0  0  0  0
    8.4470  -17.7547   22.6993 C   0  0  0  0  0  0  0  0  0  0  0  0
    8.7242  -18.9439   22.9848 O   0  0  0  0  0  0  0  0  0  0  0  0
    9.0876  -17.1053   21.6200 N   0  0  0  0  0  0  0  0  0  0  0  0
   10.0650  -17.7769   20.7853 C   0  0  1  0  0  0  0  0  0  0  0  0
   10.2040  -17.0755   19.4575 C   0  0  0  0  0  0  0  0  0  0  0  0
   11.1941  -17.8474   18.6325 C   0  0  0  0  0  0  0  0  0  0  0  0
   11.7643  -16.9781   17.5358 C   0  0  0  0  0  0  0  0  0  0  0  0
   12.7295  -17.7237   16.6485 C   0  0  0  0  0  0  0  0  0  0  0  0
   13.1686  -16.7656   15.6254 N   0  0  0  0  0  0  0  0  0  0  0  0
   11.3908  -17.7680   21.4846 C   0  0  0  0  0  0  0  0  0  0  0  0
   12.3974  -18.1901   20.8731 O   0  0  0  0  0  0  0  0  0  0  0  0
   11.4994  -17.2874   22.8209 N   0  0  0  0  0  0  0  0  0  0  0  0
   12.7891  -17.2080   23.4746 C   0  0  1  0  0  0  0  0  0  0  0  0
   12.6719  -16.2003   24.6059 C   0  0  0  0  0  0  0  0  0  0  0  0
   11.3263  -16.6870   25.7454 S   0  0  0  0  0  0  0  0  0  0  0  0
   13.1665  -18.5382   24.0225 C   0  0  0  0  0  0  0  0  0  0  0  0
   14.4191  -18.7968   24.5597 O   0  0  0  0  0  0  0  0  0  0  0  0
   12.3229  -19.4696   24.0015 O   0  0  0  0  0  0  0  0  0  0  0  0
  2  1  1  1
  2 13  1  0
  2  3  1  0
  3  4  1  0
  4  5  2  0
  5  6  1  0
  7  6  1  0
  8  7  2  0
  9  8  1  0
 10 11  1  0
 10  9  2  0
 11 12  2  0
 12  4  1  0
 12  7  1  0
 13 14  2  0
 15 13  1  0
 15 16  1  0
 16 17  1  6
 17 18  1  0
 19 18  1  0
 20 21  1  0
 20 19  1  0
 22 24  1  0
 22 16  1  0
 23 22  2  0
 25 28  1  0
 25 26  1  1
 25 24  1  0
 27 26  1  0
 28 29  1  0
 30 28  2  0
M  END
$$$$
