WKC.pdb
     RDKit          3D

 30 31  0  0  1  0  0  0  0  0999 V2000
    6.5148  -18.5485   24.8880 N   0  0  0  0  0  0  0  0  0  0  0  0
    6.7141  -17.1483   24.7066 C   0  0  1  0  0  0  0  0  0  0  0  0
    7.3511  -16.4574   25.8883 C   0  0  0  0  0  0  0  0  0  0  0  0
    6.6151  -15.2442   26.2942 C   0  0  0  0  0  0  0  0  0  0  0  0
    5.2890  -15.1485   26.6603 C   0  0  0  0  0  0  0  0  0  0  0  0
    5.0515  -13.8597   26.9477 N   0  0  0  0  0  0  0  0  0  0  0  0
    6.1901  -13.1333   26.7744 C   0  0  0  0  0  0  0  0  0  0  0  0
    6.4636  -11.7799   26.9384 C   0  0  0  0  0  0  0  0  0  0  0  0
    7.7361  -11.3254   26.6823 C   0  0  0  0  0  0  0  0  0  0  0  0
    8.7646  -12.1676   26.2644 C   0  0  0  0  0  0  0  0  0  0  0  0
    8.4649  -13.4917   26.1125 C   0  0  0  0  0  0  0  0  0  0  0  0
    7.1989  -13.9844   26.3602 C   0  0  0  0  0  0  0  0  0  0  0  0
    7.4968  -16.9269   23.4674 C   0  0  0  0  0  0  0  0  0  0  0  0
    8.4066  -17.7394   23.1762 O   0  0  0  0  0  0  0  0  0  0  0  0
    7.2239  -15.8214   22.6306 N   0  0  0  0  0  0  0  0  0  0  0  0
    8.0917  -15.4553   21.5277 C   0  0  1  0  0  0  0  0  0  0  0  0
    7.6324  -14.1666   20.8932 C   0  0  0  0  0  0  0  0  0  0  0  0
    8.5623  -13.8594   19.7540 C   0  0  0  0  0  0  0  0  0  0  0  0
    7.7859  -13.6623   18.4726 C   0  0  0  0  0  0  0  0  0  0  0  0
    8.6751  -13.3185   17.3037 C   0  0  0  0  0  0  0  0  0  0  0  0
    7.7773  -12.9490   16.2015 N   0  0  0  0  0  0  0  0  0  0  0  0
    9.4871  -15.2760   22.0448 C   0  0  0  0  0  0  0  0  0  0  0  0
    9.6728  -14.5292   23.0313 O   0  0  0  0  0  0  0  0  0  0  0  0
   10.5797  -15.9445   21.4221 N   0  0  0  0  0  0  0  0  0  0  0  0
   11.9368  -15.7225   21.8760 C   0  0  1  0  0  0  0  0  0  0  0  0
   12.0272  -16.2045   23.3143 C   0  0  0  0  0  0  0  0  0  0  0  0
   11.3544  -17.8997   23.4533 S   0  0  0  0  0  0  0  0  0  0  0  0
   12.8901  -16.4870   21.0281 C   0  0  0  0  0  0  0  0  0  0  0  0
   14.2661  -16.3828   21.1708 O   0  0  0  0  0  0  0  0  0  0  0  0
   12.4391  -17.2598   20.1456 O   0  0  0  0  0  0  0  0  0  0  0  0
  2  1  1  1
  2 13  1  0
  2  3  1  0
  3  4  1  0
  4  5  2  0
  5  6  1  0
  7  6  1  0
  8  7  2  0
  9  8  1  0
 10 11  1  0
 10  9  2  0
 11 12  2  0
 12  4  1  0
 12  7  1  0
 13 14  2  0
 15 13  1  0
 15 16  1  0
 16 17  1  1
 17 18  1  0
 19 18  1  0
 20 21  1  0
 20 19  1  0
 22 24  1  0
 22 16  1  0
 23 22  2  0
 25 28  1  0
 25 26  1  1
 25 24  1  0
 27 26  1  0
 28 29  1  0
 30 28  2  0
M  END
$$$$
