WKC.pdb
     RDKit          3D

 30 31  0  0  1  0  0  0  0  0999 V2000
    6.3941  -16.8557   25.2920 N   0  0  0  0  0  0  0  0  0  0  0  0
    7.0237  -15.8700   24.4763 C   0  0  1  0  0  0  0  0  0  0  0  0
    8.3433  -15.3733   25.0163 C   0  0  0  0  0  0  0  0  0  0  0  0
    8.1891  -14.6307   26.2825 C   0  0  0  0  0  0  0  0  0  0  0  0
    8.5840  -15.0270   27.5429 C   0  0  0  0  0  0  0  0  0  0  0  0
    8.2450  -14.0430   28.3896 N   0  0  0  0  0  0  0  0  0  0  0  0
    7.6454  -13.0321   27.7023 C   0  0  0  0  0  0  0  0  0  0  0  0
    7.1214  -11.8113   28.1129 C   0  0  0  0  0  0  0  0  0  0  0  0
    6.5663  -10.9779   27.1702 C   0  0  0  0  0  0  0  0  0  0  0  0
    6.5075  -11.3076   25.8175 C   0  0  0  0  0  0  0  0  0  0  0  0
    7.0304  -12.5134   25.4453 C   0  0  0  0  0  0  0  0  0  0  0  0
    7.5958  -13.3762   26.3634 C   0  0  0  0  0  0  0  0  0  0  0  0
    7.1711  -16.4018   23.1006 C   0  0  0  0  0  0  0  0  0  0  0  0
    7.6491  -17.5508   22.9468 O   0  0  0  0  0  0  0  0  0  0  0  0
    6.7811  -15.6288   21.9837 N   0  0  0  0  0  0  0  0  0  0  0  0
    7.6716  -15.3840   20.8655 C   0  0  1  0  0  0  0  0  0  0  0  0
    7.5600  -13.9544   20.3983 C   0  0  0  0  0  0  0  0  0  0  0  0
    8.4895  -13.7795   19.2312 C   0  0  0  0  0  0  0  0  0  0  0  0
    7.7781  -14.0882   17.9342 C   0  0  0  0  0  0  0  0  0  0  0  0
    8.6774  -13.9446   16.7319 C   0  0  0  0  0  0  0  0  0  0  0  0
    7.8968  -14.4125   15.5789 N   0  0  0  0  0  0  0  0  0  0  0  0
    9.0818  -15.6484   21.2992 C   0  0  0  0  0  0  0  0  0  0  0  0
    9.5819  -14.9304   22.1935 O   0  0  0  0  0  0  0  0  0  0  0  0
    9.8364  -16.6984   20.7019 N   0  0  0  0  0  0  0  0  0  0  0  0
   11.2769  -16.7453   20.8433 C   0  0  1  0  0  0  0  0  0  0  0  0
   11.6280  -18.0352   21.5657 C   0  0  0  0  0  0  0  0  0  0  0  0
   11.0635  -17.9566   23.3039 S   0  0  0  0  0  0  0  0  0  0  0  0
   11.9222  -16.7271   19.5034 C   0  0  0  0  0  0  0  0  0  0  0  0
   13.2995  -16.7323   19.3374 O   0  0  0  0  0  0  0  0  0  0  0  0
   11.1980  -16.7062   18.4764 O   0  0  0  0  0  0  0  0  0  0  0  0
  2  1  1  1
  2 13  1  0
  2  3  1  0
  3  4  1  0
  4  5  2  0
  5  6  1  0
  7  6  1  0
  8  7  2  0
  9  8  1  0
 10 11  1  0
 10  9  2  0
 11 12  2  0
 12  4  1  0
 12  7  1  0
 13 14  2  0
 15 13  1  0
 15 16  1  0
 16 17  1  1
 17 18  1  0
 19 18  1  0
 20 21  1  0
 20 19  1  0
 22 24  1  0
 22 16  1  0
 23 22  2  0
 25 28  1  0
 25 26  1  6
 25 24  1  0
 27 26  1  0
 28 29  1  0
 30 28  2  0
M  END
$$$$
