WKC.pdb
     RDKit          3D

 30 31  0  0  1  0  0  0  0  0999 V2000
    6.6961  -17.7324   23.5121 N   0  0  0  0  0  0  0  0  0  0  0  0
    7.1237  -16.3850   23.3247 C   0  0  1  0  0  0  0  0  0  0  0  0
    8.1316  -15.9100   24.3436 C   0  0  0  0  0  0  0  0  0  0  0  0
    7.4924  -15.2847   25.5178 C   0  0  0  0  0  0  0  0  0  0  0  0
    6.9390  -15.9180   26.6105 C   0  0  0  0  0  0  0  0  0  0  0  0
    6.4757  -14.9606   27.4282 N   0  0  0  0  0  0  0  0  0  0  0  0
    6.7192  -13.7358   26.8853 C   0  0  0  0  0  0  0  0  0  0  0  0
    6.4399  -12.4488   27.3314 C   0  0  0  0  0  0  0  0  0  0  0  0
    6.8144  -11.3809   26.5499 C   0  0  0  0  0  0  0  0  0  0  0  0
    7.4636  -11.5364   25.3267 C   0  0  0  0  0  0  0  0  0  0  0  0
    7.7241  -12.8128   24.9157 C   0  0  0  0  0  0  0  0  0  0  0  0
    7.3631  -13.9094   25.6734 C   0  0  0  0  0  0  0  0  0  0  0  0
    7.6392  -16.2279   21.9439 C   0  0  0  0  0  0  0  0  0  0  0  0
    7.9493  -17.2557   21.2959 O   0  0  0  0  0  0  0  0  0  0  0  0
    7.7791  -14.9447   21.3687 N   0  0  0  0  0  0  0  0  0  0  0  0
    8.2411  -14.7553   20.0070 C   0  0  1  0  0  0  0  0  0  0  0  0
    8.2790  -13.2892   19.6560 C   0  0  0  0  0  0  0  0  0  0  0  0
    8.8443  -13.1639   18.2699 C   0  0  0  0  0  0  0  0  0  0  0  0
    7.9133  -13.7902   17.2576 C   0  0  0  0  0  0  0  0  0  0  0  0
    8.4384  -13.6891   15.8473 C   0  0  0  0  0  0  0  0  0  0  0  0
    7.4086  -14.2817   14.9838 N   0  0  0  0  0  0  0  0  0  0  0  0
    9.6213  -15.3254   19.8774 C   0  0  0  0  0  0  0  0  0  0  0  0
    9.9262  -15.9327   18.8269 O   0  0  0  0  0  0  0  0  0  0  0  0
   10.5661  -15.1771   20.9328 N   0  0  0  0  0  0  0  0  0  0  0  0
   11.8880  -15.7592   20.8279 C   0  0  1  0  0  0  0  0  0  0  0  0
   12.9004  -14.6371   20.9864 C   0  0  0  0  0  0  0  0  0  0  0  0
   13.2109  -13.8368   19.3712 S   0  0  0  0  0  0  0  0  0  0  0  0
   12.0865  -16.7714   21.8992 C   0  0  0  0  0  0  0  0  0  0  0  0
   13.2644  -17.4910   22.0381 O   0  0  0  0  0  0  0  0  0  0  0  0
   11.1553  -16.9892   22.7147 O   0  0  0  0  0  0  0  0  0  0  0  0
  2  1  1  1
  2 13  1  0
  2  3  1  0
  3  4  1  0
  4  5  2  0
  5  6  1  0
  7  6  1  0
  8  7  2  0
  9  8  1  0
 10 11  1  0
 10  9  2  0
 11 12  2  0
 12  4  1  0
 12  7  1  0
 13 14  2  0
 15 13  1  0
 15 16  1  0
 16 17  1  1
 17 18  1  0
 19 18  1  0
 20 21  1  0
 20 19  1  0
 22 24  1  0
 22 16  1  0
 23 22  2  0
 25 28  1  0
 25 26  1  1
 25 24  1  0
 27 26  1  0
 28 29  1  0
 30 28  2  0
M  END
$$$$
