WKC.pdb
     RDKit          3D

 30 31  0  0  1  0  0  0  0  0999 V2000
    6.5633  -16.9247   25.4031 N   0  0  0  0  0  0  0  0  0  0  0  0
    7.0112  -15.8454   24.5860 C   0  0  1  0  0  0  0  0  0  0  0  0
    8.2927  -15.2028   25.0601 C   0  0  0  0  0  0  0  0  0  0  0  0
    8.1014  -14.4053   26.2871 C   0  0  0  0  0  0  0  0  0  0  0  0
    8.5852  -14.6761   27.5497 C   0  0  0  0  0  0  0  0  0  0  0  0
    8.1675  -13.6858   28.3526 N   0  0  0  0  0  0  0  0  0  0  0  0
    7.4312  -12.7928   27.6353 C   0  0  0  0  0  0  0  0  0  0  0  0
    6.7866  -11.6152   27.9978 C   0  0  0  0  0  0  0  0  0  0  0  0
    6.1055  -10.9092   27.0340 C   0  0  0  0  0  0  0  0  0  0  0  0
    6.0349  -11.3265   25.7063 C   0  0  0  0  0  0  0  0  0  0  0  0
    6.6781  -12.4869   25.3813 C   0  0  0  0  0  0  0  0  0  0  0  0
    7.3719  -13.2225   26.3218 C   0  0  0  0  0  0  0  0  0  0  0  0
    7.1310  -16.3154   23.1853 C   0  0  0  0  0  0  0  0  0  0  0  0
    7.2154  -17.5477   22.9685 O   0  0  0  0  0  0  0  0  0  0  0  0
    7.1504  -15.3931   22.1148 N   0  0  0  0  0  0  0  0  0  0  0  0
    7.8150  -15.6823   20.8586 C   0  0  1  0  0  0  0  0  0  0  0  0
    7.6936  -14.5158   19.9105 C   0  0  0  0  0  0  0  0  0  0  0  0
    8.3520  -14.9053   18.6176 C   0  0  0  0  0  0  0  0  0  0  0  0
    8.1638  -13.8242   17.5786 C   0  0  0  0  0  0  0  0  0  0  0  0
    8.8176  -14.1652   16.2629 C   0  0  0  0  0  0  0  0  0  0  0  0
    8.6953  -12.9669   15.4224 N   0  0  0  0  0  0  0  0  0  0  0  0
    9.2660  -15.9473   21.1252 C   0  0  0  0  0  0  0  0  0  0  0  0
    9.8438  -15.2912   22.0201 O   0  0  0  0  0  0  0  0  0  0  0  0
    9.9715  -16.9285   20.3714 N   0  0  0  0  0  0  0  0  0  0  0  0
   11.3804  -17.1676   20.6060 C   0  0  1  0  0  0  0  0  0  0  0  0
   11.5218  -17.7668   21.9953 C   0  0  0  0  0  0  0  0  0  0  0  0
   10.2258  -19.0277   22.2717 S   0  0  0  0  0  0  0  0  0  0  0  0
   11.9128  -18.1165   19.5920 C   0  0  0  0  0  0  0  0  0  0  0  0
   13.2445  -18.5037   19.5579 O   0  0  0  0  0  0  0  0  0  0  0  0
   11.1318  -18.5904   18.7288 O   0  0  0  0  0  0  0  0  0  0  0  0
  2  1  1  1
  2 13  1  0
  2  3  1  0
  3  4  1  0
  4  5  2  0
  5  6  1  0
  7  6  1  0
  8  7  2  0
  9  8  1  0
 10 11  1  0
 10  9  2  0
 11 12  2  0
 12  4  1  0
 12  7  1  0
 13 14  2  0
 15 13  1  0
 15 16  1  0
 16 17  1  6
 17 18  1  0
 19 18  1  0
 20 21  1  0
 20 19  1  0
 22 24  1  0
 22 16  1  0
 23 22  2  0
 25 28  1  0
 25 26  1  1
 25 24  1  0
 27 26  1  0
 28 29  1  0
 30 28  2  0
M  END
$$$$
