QRT.pdb
     RDKit          3D

 28 27  0  0  1  0  0  0  0  0999 V2000
   10.1080  -12.9570   18.5766 N   0  0  0  0  0  0  0  0  0  0  0  0
    9.5626  -12.4294   19.7687 C   0  0  0  0  0  0  0  0  0  0  0  0
   10.2132  -11.5509   20.3693 O   0  0  0  0  0  0  0  0  0  0  0  0
    8.2836  -12.9072   20.2631 C   0  0  0  0  0  0  0  0  0  0  0  0
    7.6562  -14.0247   19.5139 C   0  0  0  0  0  0  0  0  0  0  0  0
    8.0775  -15.4022   19.9819 C   0  0  2  0  0  0  0  0  0  0  0  0
    7.4251  -16.4160   19.1765 N   0  0  0  0  0  0  0  0  0  0  0  0
    7.7109  -15.6257   21.3971 C   0  0  0  0  0  0  0  0  0  0  0  0
    6.5313  -15.5936   21.8330 O   0  0  0  0  0  0  0  0  0  0  0  0
   10.2538  -18.4054   29.3707 N   0  0  0  0  0  0  0  0  0  0  0  0
   10.1714  -19.5704   28.5342 C   0  0  0  0  0  0  0  0  0  0  0  0
   10.6284  -20.6998   28.9523 N   0  0  0  0  0  0  0  0  0  0  0  0
    9.5747  -19.4006   27.2600 N   0  0  0  0  0  0  0  0  0  0  0  0
   10.1929  -18.5435   26.2698 C   0  0  0  0  0  0  0  0  0  0  0  0
    9.2312  -17.4943   25.7478 C   0  0  0  0  0  0  0  0  0  0  0  0
    9.4358  -17.2742   24.2519 C   0  0  0  0  0  0  0  0  0  0  0  0
    8.5095  -16.2216   23.7218 C   0  0  2  0  0  0  0  0  0  0  0  0
    8.7307  -15.8947   22.3416 N   0  0  0  0  0  0  0  0  0  0  0  0
    8.7414  -14.9954   24.5286 C   0  0  0  0  0  0  0  0  0  0  0  0
    9.8567  -14.4104   24.4650 O   0  0  0  0  0  0  0  0  0  0  0  0
   10.5997  -21.5230   28.3285 C   0  0  0  0  0  0  0  0  0  0  0  0
    6.5623  -11.7073   25.1005 C   0  0  2  0  0  0  0  0  0  0  0  0
    6.8908  -12.3947   26.4024 O   0  0  0  0  0  0  0  0  0  0  0  0
    5.8154  -13.2236   26.7235 C   0  0  2  0  0  0  0  0  0  0  0  0
    8.1004  -13.2876   26.1813 N   0  0  0  0  0  0  0  0  0  0  0  0
    7.7601  -14.4392   25.3799 C   0  0  0  0  0  0  0  0  0  0  0  0
    8.6784  -13.7454   27.4587 O   0  0  0  0  0  0  0  0  0  0  0  0
    8.7886  -14.9643   27.7290 O   0  0  0  0  0  0  0  0  0  0  0  0
  1  2  1  0
  2  3  2  0
  4  5  1  0
  4  2  1  0
  5  6  1  0
  6  8  1  0
  6  7  1  6
  8  9  2  0
 11 13  1  0
 11 10  1  0
 12 11  2  0
 14 13  1  0
 15 14  1  0
 15 16  1  0
 17 16  1  1
 18 17  1  0
 18  8  1  0
 19 17  1  0
 20 19  2  0
 22 21  1  1
 22 24  1  0
 23 22  1  0
 24 25  1  1
 25 19  1  0
 26 24  1  0
 26 28  1  0
 27 26  2  0
M  END
$$$$
