QRT.pdb
     RDKit          3D

 28 27  0  0  1  0  0  0  0  0999 V2000
    5.8434  -11.8577   19.1082 N   0  0  0  0  0  0  0  0  0  0  0  0
    6.9159  -12.7454   19.3505 C   0  0  0  0  0  0  0  0  0  0  0  0
    7.1722  -13.0416   20.5346 O   0  0  0  0  0  0  0  0  0  0  0  0
    7.6837  -13.2857   18.2427 C   0  0  0  0  0  0  0  0  0  0  0  0
    8.8395  -14.1490   18.5927 C   0  0  0  0  0  0  0  0  0  0  0  0
    9.6584  -14.6057   17.4032 C   0  0  2  0  0  0  0  0  0  0  0  0
    8.8449  -15.4347   16.5354 N   0  0  0  0  0  0  0  0  0  0  0  0
   10.8349  -15.3937   17.8300 C   0  0  0  0  0  0  0  0  0  0  0  0
   10.8699  -16.6509   17.8540 O   0  0  0  0  0  0  0  0  0  0  0  0
   17.4101  -11.3882   16.4784 N   0  0  0  0  0  0  0  0  0  0  0  0
   17.7517  -12.6939   16.9704 C   0  0  0  0  0  0  0  0  0  0  0  0
   18.9588  -13.1301   16.8616 N   0  0  0  0  0  0  0  0  0  0  0  0
   16.7073  -13.4463   17.5633 N   0  0  0  0  0  0  0  0  0  0  0  0
   16.9638  -14.7743   18.0811 C   0  0  0  0  0  0  0  0  0  0  0  0
   15.7186  -15.4013   18.6765 C   0  0  0  0  0  0  0  0  0  0  0  0
   14.4668  -14.6766   18.1907 C   0  0  0  0  0  0  0  0  0  0  0  0
   13.2199  -15.3559   18.6709 C   0  0  2  0  0  0  0  0  0  0  0  0
   12.0082  -14.7168   18.2421 N   0  0  0  0  0  0  0  0  0  0  0  0
   13.2559  -15.3259   20.1562 C   0  0  0  0  0  0  0  0  0  0  0  0
   13.5241  -14.2466   20.7505 O   0  0  0  0  0  0  0  0  0  0  0  0
   19.2097  -14.0428   17.2757 C   0  0  0  0  0  0  0  0  0  0  0  0
   12.4557  -17.2454   24.5792 C   0  0  2  0  0  0  0  0  0  0  0  0
   12.2510  -17.3861   23.0913 O   0  0  0  0  0  0  0  0  0  0  0  0
   10.9202  -17.0686   22.8178 C   0  0  1  0  0  0  0  0  0  0  0  0
   13.1166  -16.3536   22.3885 N   0  0  0  0  0  0  0  0  0  0  0  0
   13.0008  -16.4642   20.9538 C   0  0  0  0  0  0  0  0  0  0  0  0
   14.5359  -16.4861   22.7674 O   0  0  0  0  0  0  0  0  0  0  0  0
   15.3085  -17.2597   22.1547 O   0  0  0  0  0  0  0  0  0  0  0  0
  1  2  1  0
  2  3  2  0
  4  5  1  0
  4  2  1  0
  5  6  1  0
  6  8  1  0
  6  7  1  6
  8  9  2  0
 11 13  1  0
 11 10  1  0
 12 11  2  0
 14 13  1  0
 15 14  1  0
 15 16  1  0
 17 16  1  6
 18 17  1  0
 18  8  1  0
 19 17  1  0
 20 19  2  0
 22 21  1  1
 22 24  1  0
 23 22  1  0
 24 25  1  6
 25 19  1  0
 26 24  1  0
 26 28  1  0
 27 26  2  0
M  END
$$$$
