QRT.pdb
     RDKit          3D

 28 27  0  0  1  0  0  0  0  0999 V2000
   16.3141  -13.7997   19.0508 N   0  0  0  0  0  0  0  0  0  0  0  0
   15.0343  -13.8124   18.4517 C   0  0  0  0  0  0  0  0  0  0  0  0
   14.9472  -13.4753   17.2540 O   0  0  0  0  0  0  0  0  0  0  0  0
   13.8690  -14.2086   19.2223 C   0  0  0  0  0  0  0  0  0  0  0  0
   13.2341  -15.4986   18.8526 C   0  0  0  0  0  0  0  0  0  0  0  0
   13.4778  -16.6188   19.8425 C   0  0  2  0  0  0  0  0  0  0  0  0
   12.9308  -17.8584   19.3264 N   0  0  0  0  0  0  0  0  0  0  0  0
   12.8379  -16.3350   21.1452 C   0  0  0  0  0  0  0  0  0  0  0  0
   13.3659  -15.6438   22.0539 O   0  0  0  0  0  0  0  0  0  0  0  0
    6.9083  -12.5242   19.3455 N   0  0  0  0  0  0  0  0  0  0  0  0
    8.2077  -13.0700   19.0674 C   0  0  0  0  0  0  0  0  0  0  0  0
    8.5230  -13.4075   17.8649 N   0  0  0  0  0  0  0  0  0  0  0  0
    9.0908  -13.2090   20.1671 N   0  0  0  0  0  0  0  0  0  0  0  0
    9.5361  -14.5213   20.5877 C   0  0  0  0  0  0  0  0  0  0  0  0
    9.0171  -14.8818   21.9658 C   0  0  0  0  0  0  0  0  0  0  0  0
    9.3098  -16.3449   22.2846 C   0  0  0  0  0  0  0  0  0  0  0  0
   10.7643  -16.5614   22.5755 C   0  0  2  0  0  0  0  0  0  0  0  0
   11.5510  -16.8611   21.4128 N   0  0  0  0  0  0  0  0  0  0  0  0
   10.8521  -17.7197   23.5023 C   0  0  0  0  0  0  0  0  0  0  0  0
   10.1995  -18.7689   23.2506 O   0  0  0  0  0  0  0  0  0  0  0  0
    9.4499  -13.8248   17.6796 C   0  0  0  0  0  0  0  0  0  0  0  0
   13.5387  -19.8592   24.1706 C   0  0  2  0  0  0  0  0  0  0  0  0
   13.1190  -19.4452   25.5591 O   0  0  0  0  0  0  0  0  0  0  0  0
   13.9508  -18.3973   25.9551 C   0  0  2  0  0  0  0  0  0  0  0  0
   11.7032  -18.8978   25.4889 N   0  0  0  0  0  0  0  0  0  0  0  0
   11.6430  -17.7080   24.6734 C   0  0  0  0  0  0  0  0  0  0  0  0
   11.1735  -18.5879   26.8302 O   0  0  0  0  0  0  0  0  0  0  0  0
   11.0791  -19.4683   27.7172 O   0  0  0  0  0  0  0  0  0  0  0  0
  1  2  1  0
  2  3  2  0
  4  5  1  0
  4  2  1  0
  5  6  1  0
  6  8  1  0
  6  7  1  6
  8  9  2  0
 11 13  1  0
 11 10  1  0
 12 11  2  0
 14 13  1  0
 15 14  1  0
 15 16  1  0
 17 16  1  6
 18 17  1  0
 18  8  1  0
 19 17  1  0
 20 19  2  0
 22 21  1  1
 22 24  1  0
 23 22  1  0
 24 25  1  1
 25 19  1  0
 26 24  1  0
 26 28  1  0
 27 26  2  0
M  END
$$$$
