QRT.pdb
     RDKit          3D

 28 27  0  0  1  0  0  0  0  0999 V2000
   10.1048  -11.6685   19.0113 N   0  0  0  0  0  0  0  0  0  0  0  0
    9.9896  -12.7635   19.8971 C   0  0  0  0  0  0  0  0  0  0  0  0
   10.9792  -13.0529   20.5991 O   0  0  0  0  0  0  0  0  0  0  0  0
    8.7500  -13.5160   19.9739 C   0  0  0  0  0  0  0  0  0  0  0  0
    8.7335  -14.8409   19.3044 C   0  0  0  0  0  0  0  0  0  0  0  0
    7.4793  -15.6513   19.5584 C   0  0  2  0  0  0  0  0  0  0  0  0
    6.3874  -15.1307   18.7590 N   0  0  0  0  0  0  0  0  0  0  0  0
    7.0812  -15.5958   20.9816 C   0  0  0  0  0  0  0  0  0  0  0  0
    6.0743  -14.9740   21.4080 O   0  0  0  0  0  0  0  0  0  0  0  0
   11.9118  -20.1914   22.2673 N   0  0  0  0  0  0  0  0  0  0  0  0
   12.2345  -19.3046   23.3504 C   0  0  0  0  0  0  0  0  0  0  0  0
   13.2628  -18.5332   23.2695 N   0  0  0  0  0  0  0  0  0  0  0  0
   11.3755  -19.3341   24.4773 N   0  0  0  0  0  0  0  0  0  0  0  0
    9.9386  -19.2797   24.3048 C   0  0  0  0  0  0  0  0  0  0  0  0
    9.4714  -17.9055   23.8669 C   0  0  0  0  0  0  0  0  0  0  0  0
    7.9473  -17.8381   23.8435 C   0  0  0  0  0  0  0  0  0  0  0  0
    7.4656  -16.5260   23.3019 C   0  0  2  0  0  0  0  0  0  0  0  0
    7.8639  -16.2760   21.9456 N   0  0  0  0  0  0  0  0  0  0  0  0
    8.0532  -15.4630   24.1581 C   0  0  0  0  0  0  0  0  0  0  0  0
    9.2254  -15.0577   23.9305 O   0  0  0  0  0  0  0  0  0  0  0  0
   13.5089  -17.9272   24.0695 C   0  0  0  0  0  0  0  0  0  0  0  0
    6.3848  -12.0850   25.2487 C   0  0  2  0  0  0  0  0  0  0  0  0
    6.9600  -12.7875   26.4533 O   0  0  0  0  0  0  0  0  0  0  0  0
    5.9241  -13.4983   27.0602 C   0  0  2  0  0  0  0  0  0  0  0  0
    7.9847  -13.8017   25.9730 N   0  0  0  0  0  0  0  0  0  0  0  0
    7.3552  -14.8706   25.2346 C   0  0  0  0  0  0  0  0  0  0  0  0
    8.7464  -14.3781   27.0969 O   0  0  0  0  0  0  0  0  0  0  0  0
    8.7682  -15.6132   27.3090 O   0  0  0  0  0  0  0  0  0  0  0  0
  1  2  1  0
  2  3  2  0
  4  5  1  0
  4  2  1  0
  5  6  1  0
  6  8  1  0
  6  7  1  6
  8  9  2  0
 11 13  1  0
 11 10  1  0
 12 11  2  0
 14 13  1  0
 15 14  1  0
 15 16  1  0
 17 16  1  1
 18 17  1  0
 18  8  1  0
 19 17  1  0
 20 19  2  0
 22 21  1  1
 22 24  1  0
 23 22  1  0
 24 25  1  1
 25 19  1  0
 26 24  1  0
 26 28  1  0
 27 26  2  0
M  END
$$$$
