QRT.pdb
     RDKit          3D

 28 27  0  0  1  0  0  0  0  0999 V2000
    9.0511  -13.8568   15.0007 N   0  0  0  0  0  0  0  0  0  0  0  0
    9.6650  -13.7871   16.2717 C   0  0  0  0  0  0  0  0  0  0  0  0
   10.5888  -14.5880   16.5182 O   0  0  0  0  0  0  0  0  0  0  0  0
    9.2206  -12.8071   17.2467 C   0  0  0  0  0  0  0  0  0  0  0  0
    8.8414  -13.3250   18.5852 C   0  0  0  0  0  0  0  0  0  0  0  0
    7.6272  -14.2305   18.5815 C   0  0  2  0  0  0  0  0  0  0  0  0
    6.4341  -13.4517   18.3130 N   0  0  0  0  0  0  0  0  0  0  0  0
    7.4567  -14.9080   19.8849 C   0  0  0  0  0  0  0  0  0  0  0  0
    6.6512  -14.5316   20.7748 O   0  0  0  0  0  0  0  0  0  0  0  0
    8.1447  -20.5407   16.9905 N   0  0  0  0  0  0  0  0  0  0  0  0
    9.4386  -20.5372   17.6147 C   0  0  0  0  0  0  0  0  0  0  0  0
   10.5029  -20.6398   16.8964 N   0  0  0  0  0  0  0  0  0  0  0  0
    9.4661  -20.4182   19.0266 N   0  0  0  0  0  0  0  0  0  0  0  0
    8.2323  -20.4056   19.7849 C   0  0  0  0  0  0  0  0  0  0  0  0
    7.7220  -18.9967   20.0148 C   0  0  0  0  0  0  0  0  0  0  0  0
    8.5219  -18.3084   21.1169 C   0  0  0  0  0  0  0  0  0  0  0  0
    8.0637  -16.8965   21.3254 C   0  0  2  0  0  0  0  0  0  0  0  0
    8.2355  -16.0542   20.1757 N   0  0  0  0  0  0  0  0  0  0  0  0
    8.8803  -16.3361   22.4332 C   0  0  0  0  0  0  0  0  0  0  0  0
   10.0592  -15.9515   22.2044 O   0  0  0  0  0  0  0  0  0  0  0  0
   11.4279  -20.6583   17.3565 C   0  0  0  0  0  0  0  0  0  0  0  0
    7.1797  -14.5693   25.7971 C   0  0  2  0  0  0  0  0  0  0  0  0
    8.4950  -14.2053   25.1544 O   0  0  0  0  0  0  0  0  0  0  0  0
    9.2914  -13.6109   26.1337 C   0  0  1  0  0  0  0  0  0  0  0  0
    9.1886  -15.4867   24.7228 N   0  0  0  0  0  0  0  0  0  0  0  0
    8.3972  -16.2087   23.7551 C   0  0  0  0  0  0  0  0  0  0  0  0
    9.4639  -16.3689   25.8724 O   0  0  0  0  0  0  0  0  0  0  0  0
    8.9328  -17.4997   25.9728 O   0  0  0  0  0  0  0  0  0  0  0  0
  1  2  1  0
  2  3  2  0
  4  5  1  0
  4  2  1  0
  5  6  1  0
  6  8  1  0
  6  7  1  1
  8  9  2  0
 11 13  1  0
 11 10  1  0
 12 11  2  0
 14 13  1  0
 15 14  1  0
 15 16  1  0
 17 16  1  6
 18 17  1  0
 18  8  1  0
 19 17  1  0
 20 19  2  0
 22 21  1  6
 22 24  1  0
 23 22  1  0
 24 25  1  6
 25 19  1  0
 26 24  1  0
 26 28  1  0
 27 26  2  0
M  END
$$$$
