QRT.pdb
     RDKit          3D

 28 27  0  0  1  0  0  0  0  0999 V2000
   16.0952  -15.3266   19.6343 N   0  0  0  0  0  0  0  0  0  0  0  0
   15.4224  -14.5353   18.6761 C   0  0  0  0  0  0  0  0  0  0  0  0
   16.0974  -13.7239   18.0115 O   0  0  0  0  0  0  0  0  0  0  0  0
   13.9898  -14.6767   18.4854 C   0  0  0  0  0  0  0  0  0  0  0  0
   13.5476  -15.6823   17.4869 C   0  0  0  0  0  0  0  0  0  0  0  0
   12.0443  -15.8305   17.3761 C   0  0  2  0  0  0  0  0  0  0  0  0
   11.4284  -14.5228   17.2638 N   0  0  0  0  0  0  0  0  0  0  0  0
   11.4812  -16.5093   18.5632 C   0  0  0  0  0  0  0  0  0  0  0  0
   10.6644  -15.9769   19.3580 O   0  0  0  0  0  0  0  0  0  0  0  0
    9.1563  -23.6717   21.5964 N   0  0  0  0  0  0  0  0  0  0  0  0
   10.4426  -23.7954   20.9689 C   0  0  0  0  0  0  0  0  0  0  0  0
   11.0429  -24.9349   20.9447 N   0  0  0  0  0  0  0  0  0  0  0  0
   10.9902  -22.6197   20.3977 N   0  0  0  0  0  0  0  0  0  0  0  0
   10.3618  -22.0025   19.2480 C   0  0  0  0  0  0  0  0  0  0  0  0
   11.1534  -20.8143   18.7385 C   0  0  0  0  0  0  0  0  0  0  0  0
   11.8030  -20.0642   19.8977 C   0  0  0  0  0  0  0  0  0  0  0  0
   11.3661  -18.6308   19.9354 C   0  0  2  0  0  0  0  0  0  0  0  0
   11.8677  -17.8416   18.8463 N   0  0  0  0  0  0  0  0  0  0  0  0
   11.8875  -18.0531   21.2014 C   0  0  0  0  0  0  0  0  0  0  0  0
   13.0448  -17.5530   21.2270 O   0  0  0  0  0  0  0  0  0  0  0  0
   11.9914  -25.0022   20.5402 C   0  0  0  0  0  0  0  0  0  0  0  0
    9.9526  -15.4926   23.3261 C   0  0  2  0  0  0  0  0  0  0  0  0
   10.5061  -16.5551   24.2427 O   0  0  0  0  0  0  0  0  0  0  0  0
    9.4948  -17.4914   24.4602 C   0  0  2  0  0  0  0  0  0  0  0  0
   11.6369  -17.2692   23.5212 N   0  0  0  0  0  0  0  0  0  0  0  0
   11.1415  -18.0340   22.4015 C   0  0  0  0  0  0  0  0  0  0  0  0
   12.3770  -18.1680   24.4268 O   0  0  0  0  0  0  0  0  0  0  0  0
   12.4195  -19.4053   24.2317 O   0  0  0  0  0  0  0  0  0  0  0  0
  1  2  1  0
  2  3  2  0
  4  5  1  0
  4  2  1  0
  5  6  1  0
  6  8  1  0
  6  7  1  1
  8  9  2  0
 11 13  1  0
 11 10  1  0
 12 11  2  0
 14 13  1  0
 15 14  1  0
 15 16  1  0
 17 16  1  6
 18 17  1  0
 18  8  1  0
 19 17  1  0
 20 19  2  0
 22 21  1  1
 22 24  1  0
 23 22  1  0
 24 25  1  1
 25 19  1  0
 26 24  1  0
 26 28  1  0
 27 26  2  0
M  END
$$$$
