QRT.pdb
     RDKit          3D

 28 27  0  0  1  0  0  0  0  0999 V2000
   16.4108  -20.2658   13.4688 N   0  0  0  0  0  0  0  0  0  0  0  0
   15.6015  -19.5085   12.5920 C   0  0  0  0  0  0  0  0  0  0  0  0
   16.1430  -19.0022   11.5890 O   0  0  0  0  0  0  0  0  0  0  0  0
   14.1860  -19.3366   12.8668 C   0  0  0  0  0  0  0  0  0  0  0  0
   13.6630  -19.9863   14.0949 C   0  0  0  0  0  0  0  0  0  0  0  0
   12.9120  -21.2776   13.8446 C   0  0  2  0  0  0  0  0  0  0  0  0
   11.6428  -20.9919   13.2044 N   0  0  0  0  0  0  0  0  0  0  0  0
   12.6436  -21.9980   15.1080 C   0  0  0  0  0  0  0  0  0  0  0  0
   11.5478  -21.9557   15.7243 O   0  0  0  0  0  0  0  0  0  0  0  0
   17.3201  -28.5259   18.8342 N   0  0  0  0  0  0  0  0  0  0  0  0
   17.0172  -27.4839   19.7756 C   0  0  0  0  0  0  0  0  0  0  0  0
   17.6656  -27.4078   20.8861 N   0  0  0  0  0  0  0  0  0  0  0  0
   15.9912  -26.5755   19.4144 N   0  0  0  0  0  0  0  0  0  0  0  0
   15.2387  -26.7685   18.1922 C   0  0  0  0  0  0  0  0  0  0  0  0
   14.1472  -25.7293   18.0278 C   0  0  0  0  0  0  0  0  0  0  0  0
   14.5136  -24.7337   16.9312 C   0  0  0  0  0  0  0  0  0  0  0  0
   13.5088  -23.6251   16.8404 C   0  0  2  0  0  0  0  0  0  0  0  0
   13.6657  -22.7923   15.6817 N   0  0  0  0  0  0  0  0  0  0  0  0
   13.6914  -22.7761   18.0462 C   0  0  0  0  0  0  0  0  0  0  0  0
   14.5868  -21.8881   18.0522 O   0  0  0  0  0  0  0  0  0  0  0  0
   17.4265  -26.6669   21.5655 C   0  0  0  0  0  0  0  0  0  0  0  0
   11.2340  -20.4703   19.8313 C   0  0  2  0  0  0  0  0  0  0  0  0
   11.7761  -21.4648   20.8275 O   0  0  0  0  0  0  0  0  0  0  0  0
   10.8880  -22.5399   20.8743 C   0  0  2  0  0  0  0  0  0  0  0  0
   13.1009  -21.9942   20.3042 N   0  0  0  0  0  0  0  0  0  0  0  0
   12.9003  -22.9132   19.2091 C   0  0  0  0  0  0  0  0  0  0  0  0
   13.8720  -22.6709   21.3639 O   0  0  0  0  0  0  0  0  0  0  0  0
   14.3035  -22.0464   22.3612 O   0  0  0  0  0  0  0  0  0  0  0  0
  1  2  1  0
  2  3  2  0
  4  5  1  0
  4  2  1  0
  5  6  1  0
  6  8  1  0
  6  7  1  1
  8  9  2  0
 11 13  1  0
 11 10  1  0
 12 11  2  0
 14 13  1  0
 15 14  1  0
 15 16  1  0
 17 16  1  6
 18 17  1  0
 18  8  1  0
 19 17  1  0
 20 19  2  0
 22 21  1  1
 22 24  1  0
 23 22  1  0
 24 25  1  1
 25 19  1  0
 26 24  1  0
 26 28  1  0
 27 26  2  0
M  END
$$$$
