QRT.pdb
     RDKit          3D

 28 27  0  0  1  0  0  0  0  0999 V2000
    6.9805  -12.5086   16.9841 N   0  0  0  0  0  0  0  0  0  0  0  0
    7.6983  -13.7126   16.8047 C   0  0  0  0  0  0  0  0  0  0  0  0
    7.6853  -14.2367   15.6730 O   0  0  0  0  0  0  0  0  0  0  0  0
    8.4226  -14.3056   17.9149 C   0  0  0  0  0  0  0  0  0  0  0  0
    8.2925  -13.6306   19.2306 C   0  0  0  0  0  0  0  0  0  0  0  0
    9.1309  -14.2459   20.3318 C   0  0  2  0  0  0  0  0  0  0  0  0
    9.7717  -15.4523   19.8459 N   0  0  0  0  0  0  0  0  0  0  0  0
    8.3031  -14.5993   21.5052 C   0  0  0  0  0  0  0  0  0  0  0  0
    7.3063  -13.9355   21.8901 O   0  0  0  0  0  0  0  0  0  0  0  0
    8.3835  -20.0247   28.4374 N   0  0  0  0  0  0  0  0  0  0  0  0
    7.1733  -20.3564   27.7381 C   0  0  0  0  0  0  0  0  0  0  0  0
    6.2438  -21.0200   28.3339 N   0  0  0  0  0  0  0  0  0  0  0  0
    7.0728  -19.9204   26.3934 N   0  0  0  0  0  0  0  0  0  0  0  0
    8.1754  -19.2224   25.7652 C   0  0  0  0  0  0  0  0  0  0  0  0
    7.7832  -17.8278   25.3185 C   0  0  0  0  0  0  0  0  0  0  0  0
    8.3206  -17.5404   23.9197 C   0  0  0  0  0  0  0  0  0  0  0  0
    7.9837  -16.1477   23.4794 C   0  0  2  0  0  0  0  0  0  0  0  0
    8.6299  -15.7515   22.2604 N   0  0  0  0  0  0  0  0  0  0  0  0
    8.4351  -15.2318   24.5590 C   0  0  0  0  0  0  0  0  0  0  0  0
    9.6690  -15.0551   24.7496 O   0  0  0  0  0  0  0  0  0  0  0  0
    5.3461  -21.1857   27.8497 C   0  0  0  0  0  0  0  0  0  0  0  0
    6.7380  -11.7314   25.6382 C   0  0  2  0  0  0  0  0  0  0  0  0
    7.0391  -12.6116   26.8257 O   0  0  0  0  0  0  0  0  0  0  0  0
    5.8679  -13.2980   27.1482 C   0  0  2  0  0  0  0  0  0  0  0  0
    8.0697  -13.6466   26.4062 N   0  0  0  0  0  0  0  0  0  0  0  0
    7.5383  -14.5348   25.3998 C   0  0  0  0  0  0  0  0  0  0  0  0
    8.5350  -14.4462   27.5550 O   0  0  0  0  0  0  0  0  0  0  0  0
    8.3831  -15.6897   27.5927 O   0  0  0  0  0  0  0  0  0  0  0  0
  1  2  1  0
  2  3  2  0
  4  5  1  0
  4  2  1  0
  5  6  1  0
  6  8  1  0
  6  7  1  6
  8  9  2  0
 11 13  1  0
 11 10  1  0
 12 11  2  0
 14 13  1  0
 15 14  1  0
 15 16  1  0
 17 16  1  1
 18 17  1  0
 18  8  1  0
 19 17  1  0
 20 19  2  0
 22 21  1  1
 22 24  1  0
 23 22  1  0
 24 25  1  1
 25 19  1  0
 26 24  1  0
 26 28  1  0
 27 26  2  0
M  END
$$$$
