QRT.pdb
     RDKit          3D

 28 27  0  0  1  0  0  0  0  0999 V2000
   17.6532  -13.3203   18.0764 N   0  0  0  0  0  0  0  0  0  0  0  0
   16.3195  -13.3257   17.6094 C   0  0  0  0  0  0  0  0  0  0  0  0
   15.8993  -12.3033   17.0316 O   0  0  0  0  0  0  0  0  0  0  0  0
   15.4798  -14.4941   17.8051 C   0  0  0  0  0  0  0  0  0  0  0  0
   16.0975  -15.6473   18.5068 C   0  0  0  0  0  0  0  0  0  0  0  0
   15.1297  -16.7629   18.8428 C   0  0  2  0  0  0  0  0  0  0  0  0
   14.2804  -17.0377   17.7002 N   0  0  0  0  0  0  0  0  0  0  0  0
   14.2663  -16.4003   19.9874 C   0  0  0  0  0  0  0  0  0  0  0  0
   14.6926  -15.9074   21.0633 O   0  0  0  0  0  0  0  0  0  0  0  0
    6.6632  -13.2298   18.8894 N   0  0  0  0  0  0  0  0  0  0  0  0
    7.7199  -12.7822   18.0252 C   0  0  0  0  0  0  0  0  0  0  0  0
    7.5213  -11.7985   17.2177 N   0  0  0  0  0  0  0  0  0  0  0  0
    8.9545  -13.4721   18.1161 N   0  0  0  0  0  0  0  0  0  0  0  0
    9.0683  -14.6665   18.9272 C   0  0  0  0  0  0  0  0  0  0  0  0
   10.4504  -14.8112   19.5331 C   0  0  0  0  0  0  0  0  0  0  0  0
   10.5270  -16.0610   20.4050 C   0  0  0  0  0  0  0  0  0  0  0  0
   11.9173  -16.2861   20.9180 C   0  0  2  0  0  0  0  0  0  0  0  0
   12.8692  -16.6101   19.8936 N   0  0  0  0  0  0  0  0  0  0  0  0
   11.8494  -17.4313   21.8626 C   0  0  0  0  0  0  0  0  0  0  0  0
   11.7052  -18.6007   21.4134 O   0  0  0  0  0  0  0  0  0  0  0  0
    8.2960  -11.4656   16.6205 C   0  0  0  0  0  0  0  0  0  0  0  0
   14.0097  -18.3175   25.0453 C   0  0  2  0  0  0  0  0  0  0  0  0
   12.5425  -18.3136   25.3958 O   0  0  0  0  0  0  0  0  0  0  0  0
   12.2475  -17.0709   25.9575 C   0  0  2  0  0  0  0  0  0  0  0  0
   11.7420  -18.4307   24.1095 N   0  0  0  0  0  0  0  0  0  0  0  0
   11.9394  -17.2770   23.2644 C   0  0  0  0  0  0  0  0  0  0  0  0
   10.3004  -18.5873   24.3793 O   0  0  0  0  0  0  0  0  0  0  0  0
    9.4704  -17.7134   24.0355 O   0  0  0  0  0  0  0  0  0  0  0  0
  1  2  1  0
  2  3  2  0
  4  5  1  0
  4  2  1  0
  5  6  1  0
  6  8  1  0
  6  7  1  6
  8  9  2  0
 11 13  1  0
 11 10  1  0
 12 11  2  0
 14 13  1  0
 15 14  1  0
 15 16  1  0
 17 16  1  6
 18 17  1  0
 18  8  1  0
 19 17  1  0
 20 19  2  0
 22 21  1  1
 22 24  1  0
 23 22  1  0
 24 25  1  1
 25 19  1  0
 26 24  1  0
 26 28  1  0
 27 26  2  0
M  END
$$$$
