QRT.pdb
     RDKit          3D

 28 27  0  0  1  0  0  0  0  0999 V2000
    8.2953  -20.2760   28.0564 N   0  0  0  0  0  0  0  0  0  0  0  0
    7.0210  -20.6340   27.5614 C   0  0  0  0  0  0  0  0  0  0  0  0
    6.3060  -21.3711   28.2693 O   0  0  0  0  0  0  0  0  0  0  0  0
    6.5754  -20.1489   26.2673 C   0  0  0  0  0  0  0  0  0  0  0  0
    7.4501  -19.1584   25.5909 C   0  0  0  0  0  0  0  0  0  0  0  0
    6.8640  -18.5737   24.3225 C   0  0  2  0  0  0  0  0  0  0  0  0
    6.7390  -19.6096   23.3158 N   0  0  0  0  0  0  0  0  0  0  0  0
    7.7214  -17.4982   23.7790 C   0  0  0  0  0  0  0  0  0  0  0  0
    8.9003  -17.6725   23.3764 O   0  0  0  0  0  0  0  0  0  0  0  0
    7.5568  -14.1469   16.8340 N   0  0  0  0  0  0  0  0  0  0  0  0
    8.0793  -13.6455   18.0747 C   0  0  0  0  0  0  0  0  0  0  0  0
    8.1100  -12.3772   18.2974 N   0  0  0  0  0  0  0  0  0  0  0  0
    8.5442  -14.6066   19.0066 N   0  0  0  0  0  0  0  0  0  0  0  0
    8.5421  -14.3127   20.4248 C   0  0  0  0  0  0  0  0  0  0  0  0
    7.1500  -14.3956   21.0192 C   0  0  0  0  0  0  0  0  0  0  0  0
    7.1755  -14.0312   22.5007 C   0  0  0  0  0  0  0  0  0  0  0  0
    7.9642  -15.0275   23.2959 C   0  0  2  0  0  0  0  0  0  0  0  0
    7.2088  -16.1811   23.6949 N   0  0  0  0  0  0  0  0  0  0  0  0
    8.4260  -14.3315   24.5249 C   0  0  0  0  0  0  0  0  0  0  0  0
    8.1808  -13.1035   24.6740 O   0  0  0  0  0  0  0  0  0  0  0  0
    8.5026  -12.0257   19.1862 C   0  0  0  0  0  0  0  0  0  0  0  0
    7.5578  -12.7546   26.5077 C   0  0  2  0  0  0  0  0  0  0  0  0
    8.2700  -13.6979   27.4450 O   0  0  0  0  0  0  0  0  0  0  0  0
    7.4189  -14.7777   27.6819 C   0  0  2  0  0  0  0  0  0  0  0  0
    9.5012  -14.2384   26.7371 N   0  0  0  0  0  0  0  0  0  0  0  0
    9.1390  -14.9845   25.5555 C   0  0  0  0  0  0  0  0  0  0  0  0
   10.3020  -15.1029   27.6242 O   0  0  0  0  0  0  0  0  0  0  0  0
   10.4590  -16.3229   27.3837 O   0  0  0  0  0  0  0  0  0  0  0  0
  1  2  1  0
  2  3  2  0
  4  5  1  0
  4  2  1  0
  5  6  1  0
  6  8  1  0
  6  7  1  6
  8  9  2  0
 11 13  1  0
 11 10  1  0
 12 11  2  0
 14 13  1  0
 15 14  1  0
 15 16  1  0
 17 16  1  1
 18 17  1  0
 18  8  1  0
 19 17  1  0
 20 19  2  0
 22 21  1  1
 22 24  1  0
 23 22  1  0
 24 25  1  1
 25 19  1  0
 26 24  1  0
 26 28  1  0
 27 26  2  0
M  END
$$$$
