QRT.pdb
     RDKit          3D

 28 27  0  0  1  0  0  0  0  0999 V2000
    7.7994  -23.5438   20.9840 N   0  0  0  0  0  0  0  0  0  0  0  0
    9.1345  -23.3471   20.5647 C   0  0  0  0  0  0  0  0  0  0  0  0
   10.0043  -24.1271   21.0015 O   0  0  0  0  0  0  0  0  0  0  0  0
    9.4640  -22.2656   19.6534 C   0  0  0  0  0  0  0  0  0  0  0  0
    8.3266  -21.4729   19.1227 C   0  0  0  0  0  0  0  0  0  0  0  0
    8.7257  -20.3924   18.1393 C   0  0  2  0  0  0  0  0  0  0  0  0
    9.7198  -20.9085   17.2186 N   0  0  0  0  0  0  0  0  0  0  0  0
    9.2988  -19.2184   18.8324 C   0  0  0  0  0  0  0  0  0  0  0  0
   10.5316  -19.0298   18.9971 O   0  0  0  0  0  0  0  0  0  0  0  0
    9.1748  -12.2942   18.9661 N   0  0  0  0  0  0  0  0  0  0  0  0
    8.8039  -11.6539   20.1975 C   0  0  0  0  0  0  0  0  0  0  0  0
    9.3979  -10.5727   20.5682 N   0  0  0  0  0  0  0  0  0  0  0  0
    7.7756  -12.2703   20.9532 N   0  0  0  0  0  0  0  0  0  0  0  0
    7.2586  -13.5666   20.5662 C   0  0  0  0  0  0  0  0  0  0  0  0
    8.3448  -14.6236   20.5325 C   0  0  0  0  0  0  0  0  0  0  0  0
    7.7948  -15.9428   19.9982 C   0  0  0  0  0  0  0  0  0  0  0  0
    8.8510  -17.0062   19.9735 C   0  0  2  0  0  0  0  0  0  0  0  0
    8.4291  -18.2296   19.3524 N   0  0  0  0  0  0  0  0  0  0  0  0
    9.1985  -17.3033   21.3875 C   0  0  0  0  0  0  0  0  0  0  0  0
    8.2807  -17.5609   22.2129 O   0  0  0  0  0  0  0  0  0  0  0  0
    9.1287  -10.1236   21.4589 C   0  0  0  0  0  0  0  0  0  0  0  0
   10.9781  -20.0345   22.8891 C   0  0  2  0  0  0  0  0  0  0  0  0
   11.6940  -18.8118   23.4067 O   0  0  0  0  0  0  0  0  0  0  0  0
   12.7978  -18.5902   22.5824 C   0  0  2  0  0  0  0  0  0  0  0  0
   10.7693  -17.6153   23.2567 N   0  0  0  0  0  0  0  0  0  0  0  0
   10.5282  -17.3126   21.8659 C   0  0  0  0  0  0  0  0  0  0  0  0
   11.3183  -16.4180   23.9206 O   0  0  0  0  0  0  0  0  0  0  0  0
   11.6884  -15.4164   23.2645 O   0  0  0  0  0  0  0  0  0  0  0  0
  1  2  1  0
  2  3  2  0
  4  5  1  0
  4  2  1  0
  5  6  1  0
  6  8  1  0
  6  7  1  6
  8  9  2  0
 11 13  1  0
 11 10  1  0
 12 11  2  0
 14 13  1  0
 15 14  1  0
 15 16  1  0
 17 16  1  1
 18 17  1  0
 18  8  1  0
 19 17  1  0
 20 19  2  0
 22 21  1  1
 22 24  1  0
 23 22  1  0
 24 25  1  1
 25 19  1  0
 26 24  1  0
 26 28  1  0
 27 26  2  0
M  END
$$$$
