QRT.pdb
     RDKit          3D

 28 27  0  0  1  0  0  0  0  0999 V2000
    6.3383  -14.0687   16.3541 N   0  0  0  0  0  0  0  0  0  0  0  0
    7.6038  -14.6691   16.5408 C   0  0  0  0  0  0  0  0  0  0  0  0
    8.0225  -15.4367   15.6513 O   0  0  0  0  0  0  0  0  0  0  0  0
    8.3780  -14.3889   17.7370 C   0  0  0  0  0  0  0  0  0  0  0  0
    7.7358  -13.5228   18.7573 C   0  0  0  0  0  0  0  0  0  0  0  0
    8.6201  -13.1966   19.9430 C   0  0  2  0  0  0  0  0  0  0  0  0
   10.0037  -13.4835   19.6180 N   0  0  0  0  0  0  0  0  0  0  0  0
    8.2459  -13.9956   21.1298 C   0  0  0  0  0  0  0  0  0  0  0  0
    7.0629  -14.1588   21.5251 O   0  0  0  0  0  0  0  0  0  0  0  0
   10.5727  -21.1581   24.4887 N   0  0  0  0  0  0  0  0  0  0  0  0
   10.4144  -20.5701   25.7898 C   0  0  0  0  0  0  0  0  0  0  0  0
   10.0878  -21.3053   26.7958 N   0  0  0  0  0  0  0  0  0  0  0  0
   10.6332  -19.1735   25.8903 N   0  0  0  0  0  0  0  0  0  0  0  0
   10.8651  -18.3808   24.7007 C   0  0  0  0  0  0  0  0  0  0  0  0
    9.7785  -17.3451   24.4884 C   0  0  0  0  0  0  0  0  0  0  0  0
   10.0381  -16.5471   23.2141 C   0  0  0  0  0  0  0  0  0  0  0  0
    9.0386  -15.4426   23.0468 C   0  0  2  0  0  0  0  0  0  0  0  0
    9.2621  -14.6276   21.8865 N   0  0  0  0  0  0  0  0  0  0  0  0
    9.1485  -14.5744   24.2478 C   0  0  0  0  0  0  0  0  0  0  0  0
   10.2148  -13.9348   24.4577 O   0  0  0  0  0  0  0  0  0  0  0  0
   10.0135  -20.8799   27.7345 C   0  0  0  0  0  0  0  0  0  0  0  0
    6.9227  -11.7042   25.2376 C   0  0  2  0  0  0  0  0  0  0  0  0
    7.0260  -12.6174   26.4337 O   0  0  0  0  0  0  0  0  0  0  0  0
    5.9181  -13.4653   26.4125 C   0  0  2  0  0  0  0  0  0  0  0  0
    8.2630  -13.4846   26.2694 N   0  0  0  0  0  0  0  0  0  0  0  0
    8.1020  -14.4244   25.1855 C   0  0  0  0  0  0  0  0  0  0  0  0
    8.5745  -14.2262   27.5058 O   0  0  0  0  0  0  0  0  0  0  0  0
    8.6281  -15.4783   27.5233 O   0  0  0  0  0  0  0  0  0  0  0  0
  1  2  1  0
  2  3  2  0
  4  5  1  0
  4  2  1  0
  5  6  1  0
  6  8  1  0
  6  7  1  6
  8  9  2  0
 11 13  1  0
 11 10  1  0
 12 11  2  0
 14 13  1  0
 15 14  1  0
 15 16  1  0
 17 16  1  1
 18 17  1  0
 18  8  1  0
 19 17  1  0
 20 19  2  0
 22 21  1  1
 22 24  1  0
 23 22  1  0
 24 25  1  1
 25 19  1  0
 26 24  1  0
 26 28  1  0
 27 26  2  0
M  END
$$$$
