QRT.pdb
     RDKit          3D

 28 27  0  0  1  0  0  0  0  0999 V2000
   13.1302  -22.0417   21.4588 N   0  0  0  0  0  0  0  0  0  0  0  0
   12.4937  -23.2038   20.9677 C   0  0  0  0  0  0  0  0  0  0  0  0
   12.8732  -23.6573   19.8695 O   0  0  0  0  0  0  0  0  0  0  0  0
   11.4332  -23.8362   21.7320 C   0  0  0  0  0  0  0  0  0  0  0  0
   11.0510  -23.1809   23.0080 C   0  0  0  0  0  0  0  0  0  0  0  0
   11.8710  -23.6198   24.2034 C   0  0  2  0  0  0  0  0  0  0  0  0
   12.1626  -25.0367   24.1060 N   0  0  0  0  0  0  0  0  0  0  0  0
   11.1468  -23.3802   25.4704 C   0  0  0  0  0  0  0  0  0  0  0  0
   10.2998  -22.4651   25.6357 O   0  0  0  0  0  0  0  0  0  0  0  0
   11.8004  -27.7843   33.1516 N   0  0  0  0  0  0  0  0  0  0  0  0
   10.5518  -27.0785   33.2333 C   0  0  0  0  0  0  0  0  0  0  0  0
    9.6946  -27.3851   34.1446 N   0  0  0  0  0  0  0  0  0  0  0  0
   10.3320  -26.0569   32.2760 N   0  0  0  0  0  0  0  0  0  0  0  0
   10.1869  -26.3862   30.8732 C   0  0  0  0  0  0  0  0  0  0  0  0
   10.0652  -25.1466   30.0091 C   0  0  0  0  0  0  0  0  0  0  0  0
   10.8672  -25.3082   28.7212 C   0  0  0  0  0  0  0  0  0  0  0  0
   10.8085  -24.0685   27.8805 C   0  0  2  0  0  0  0  0  0  0  0  0
   11.4032  -24.2179   26.5826 N   0  0  0  0  0  0  0  0  0  0  0  0
   11.5578  -23.0142   28.6121 C   0  0  0  0  0  0  0  0  0  0  0  0
   12.7648  -23.2091   28.9207 O   0  0  0  0  0  0  0  0  0  0  0  0
    8.8209  -26.8395   34.2260 C   0  0  0  0  0  0  0  0  0  0  0  0
   12.4212  -19.6230   27.5917 C   0  0  2  0  0  0  0  0  0  0  0  0
   11.7530  -19.4617   28.9344 O   0  0  0  0  0  0  0  0  0  0  0  0
   10.4107  -19.1597   28.7026 C   0  0  2  0  0  0  0  0  0  0  0  0
   11.7984  -20.7982   29.6562 N   0  0  0  0  0  0  0  0  0  0  0  0
   10.9789  -21.7810   28.9878 C   0  0  0  0  0  0  0  0  0  0  0  0
   11.3533  -20.6743   31.0570 O   0  0  0  0  0  0  0  0  0  0  0  0
   10.3182  -21.2483   31.4691 O   0  0  0  0  0  0  0  0  0  0  0  0
  1  2  1  0
  2  3  2  0
  4  5  1  0
  4  2  1  0
  5  6  1  0
  6  8  1  0
  6  7  1  6
  8  9  2  0
 11 13  1  0
 11 10  1  0
 12 11  2  0
 14 13  1  0
 15 14  1  0
 15 16  1  0
 17 16  1  1
 18 17  1  0
 18  8  1  0
 19 17  1  0
 20 19  2  0
 22 21  1  6
 22 24  1  0
 23 22  1  0
 24 25  1  1
 25 19  1  0
 26 24  1  0
 26 28  1  0
 27 26  2  0
M  END
$$$$
