QVY.pdb
     RDKit          3D

 29 29  0  0  1  0  0  0  0  0999 V2000
   13.9552  -20.0754   17.6595 N   0  0  0  0  0  0  0  0  0  0  0  0
   13.4640  -18.8412   17.0613 C   0  0  0  0  0  0  0  0  0  0  0  0
   14.0095  -18.5176   16.0038 O   0  0  0  0  0  0  0  0  0  0  0  0
   12.4096  -18.1396   17.7612 C   0  0  0  0  0  0  0  0  0  0  0  0
   11.8854  -18.6886   19.0374 C   0  0  0  0  0  0  0  0  0  0  0  0
   10.5614  -18.2287   19.4740 C   0  0  2  0  0  0  0  0  0  0  0  0
    9.5261  -18.4740   18.4846 N   0  0  0  0  0  0  0  0  0  0  0  0
   10.3825  -16.9761   20.2050 C   0  0  0  0  0  0  0  0  0  0  0  0
   11.3618  -16.5019   20.8937 O   0  0  0  0  0  0  0  0  0  0  0  0
    6.4731  -15.0672   20.8404 C   0  0  0  0  0  0  0  0  0  0  0  0
    7.7369  -14.2759   20.4550 C   0  0  1  0  0  0  0  0  0  0  0  0
    7.5512  -13.0004   21.3159 C   0  0  0  0  0  0  0  0  0  0  0  0
    8.9299  -14.9924   20.9859 C   0  0  2  0  0  0  0  0  0  0  0  0
    9.2176  -16.2173   20.2440 N   0  0  0  0  0  0  0  0  0  0  0  0
    8.9660  -15.2722   22.4261 C   0  0  0  0  0  0  0  0  0  0  0  0
    8.8799  -16.5209   22.7800 O   0  0  0  0  0  0  0  0  0  0  0  0
   10.6390  -15.8696   31.0408 O   0  0  0  0  0  0  0  0  0  0  0  0
   10.5496  -15.5176   29.7006 C   0  0  0  0  0  0  0  0  0  0  0  0
   11.7083  -15.4929   28.9500 C   0  0  0  0  0  0  0  0  0  0  0  0
   11.6481  -15.1468   27.6174 C   0  0  0  0  0  0  0  0  0  0  0  0
   10.4688  -14.8166   26.9824 C   0  0  0  0  0  0  0  0  0  0  0  0
   10.3940  -14.4320   25.5602 C   0  0  0  0  0  0  0  0  0  0  0  0
    9.1252  -14.8322   24.8934 C   0  0  2  0  0  0  0  0  0  0  0  0
    9.0879  -14.3742   23.4974 N   0  0  0  0  0  0  0  0  0  0  0  0
    7.9693  -14.3077   25.6460 C   0  0  0  0  0  0  0  0  0  0  0  0
    7.4731  -13.1770   25.4423 O   0  0  0  0  0  0  0  0  0  0  0  0
    9.3127  -14.8464   27.7506 C   0  0  0  0  0  0  0  0  0  0  0  0
    9.3523  -15.1894   29.0803 C   0  0  0  0  0  0  0  0  0  0  0  0
    7.3467  -15.0583   26.6522 O   0  0  0  0  0  0  0  0  0  0  0  0
  2  1  1  0
  2  3  2  0
  4  2  1  0
  5  4  1  0
  6  5  1  0
  6  7  1  6
  8  9  2  0
  8  6  1  0
 11 10  1  1
 11 13  1  0
 12 11  1  0
 13 14  1  6
 14  8  1  0
 15 13  1  0
 15 24  1  0
 16 15  2  0
 17 18  1  0
 18 28  2  0
 19 18  1  0
 19 20  2  0
 20 21  1  0
 21 27  2  0
 21 22  1  0
 23 22  1  1
 23 24  1  0
 23 25  1  0
 25 29  1  0
 26 25  2  0
 28 27  1  0
M  END
$$$$
