QVY.pdb
     RDKit          3D

 29 29  0  0  1  0  0  0  0  0999 V2000
   11.8313  -18.7486   15.9360 N   0  0  0  0  0  0  0  0  0  0  0  0
   10.4499  -19.0856   15.6184 C   0  0  0  0  0  0  0  0  0  0  0  0
   10.1745  -19.0911   14.4165 O   0  0  0  0  0  0  0  0  0  0  0  0
    9.5657  -19.3701   16.7279 C   0  0  0  0  0  0  0  0  0  0  0  0
   10.0843  -19.2937   18.1171 C   0  0  0  0  0  0  0  0  0  0  0  0
    9.2412  -18.6224   19.1139 C   0  0  2  0  0  0  0  0  0  0  0  0
    7.8292  -18.9231   18.9508 N   0  0  0  0  0  0  0  0  0  0  0  0
    9.4980  -17.2489   19.5418 C   0  0  0  0  0  0  0  0  0  0  0  0
   10.7092  -16.8741   19.7670 O   0  0  0  0  0  0  0  0  0  0  0  0
    6.3044  -14.4281   20.6512 C   0  0  0  0  0  0  0  0  0  0  0  0
    7.5534  -14.0244   19.8458 C   0  0  1  0  0  0  0  0  0  0  0  0
    7.8356  -12.6199   20.4376 C   0  0  0  0  0  0  0  0  0  0  0  0
    8.6861  -14.9042   20.2474 C   0  0  2  0  0  0  0  0  0  0  0  0
    8.5336  -16.2684   19.7482 N   0  0  0  0  0  0  0  0  0  0  0  0
    9.0435  -14.9405   21.6704 C   0  0  0  0  0  0  0  0  0  0  0  0
    9.8567  -14.0166   22.0913 O   0  0  0  0  0  0  0  0  0  0  0  0
    8.9961  -13.1289   30.0305 O   0  0  0  0  0  0  0  0  0  0  0  0
    8.8230  -13.3894   28.6776 C   0  0  0  0  0  0  0  0  0  0  0  0
    9.7390  -14.2056   28.0441 C   0  0  0  0  0  0  0  0  0  0  0  0
    9.5911  -14.4804   26.7018 C   0  0  0  0  0  0  0  0  0  0  0  0
    8.5568  -13.9725   25.9434 C   0  0  0  0  0  0  0  0  0  0  0  0
    8.3956  -14.2492   24.5034 C   0  0  0  0  0  0  0  0  0  0  0  0
    8.8809  -15.5937   24.0897 C   0  0  2  0  0  0  0  0  0  0  0  0
    8.6244  -15.8387   22.6634 N   0  0  0  0  0  0  0  0  0  0  0  0
    8.2510  -16.6381   24.9204 C   0  0  0  0  0  0  0  0  0  0  0  0
    7.0895  -17.0620   24.7266 O   0  0  0  0  0  0  0  0  0  0  0  0
    7.6441  -13.1539   26.5949 C   0  0  0  0  0  0  0  0  0  0  0  0
    7.7744  -12.8688   27.9325 C   0  0  0  0  0  0  0  0  0  0  0  0
    8.9282  -17.2285   25.9957 O   0  0  0  0  0  0  0  0  0  0  0  0
  2  1  1  0
  2  3  2  0
  4  2  1  0
  5  4  1  0
  6  5  1  0
  6  7  1  6
  8  9  2  0
  8  6  1  0
 11 10  1  1
 11 13  1  0
 12 11  1  0
 13 14  1  1
 14  8  1  0
 15 13  1  0
 15 24  1  0
 16 15  2  0
 17 18  1  0
 18 28  2  0
 19 18  1  0
 19 20  2  0
 20 21  1  0
 21 27  2  0
 21 22  1  0
 23 22  1  1
 23 24  1  0
 23 25  1  0
 25 29  1  0
 26 25  2  0
 28 27  1  0
M  END
$$$$
