QVY.pdb
     RDKit          3D

 29 29  0  0  1  0  0  0  0  0999 V2000
   13.2169  -17.3958   15.2455 N   0  0  0  0  0  0  0  0  0  0  0  0
   11.9108  -18.0412   15.2373 C   0  0  0  0  0  0  0  0  0  0  0  0
   11.5400  -18.4605   14.1385 O   0  0  0  0  0  0  0  0  0  0  0  0
   11.2016  -18.1171   16.4962 C   0  0  0  0  0  0  0  0  0  0  0  0
   10.9950  -16.8839   17.2969 C   0  0  0  0  0  0  0  0  0  0  0  0
   10.2336  -17.0122   18.5455 C   0  0  2  0  0  0  0  0  0  0  0  0
    8.9902  -17.7438   18.3737 N   0  0  0  0  0  0  0  0  0  0  0  0
   10.1349  -15.9142   19.5048 C   0  0  0  0  0  0  0  0  0  0  0  0
   11.1926  -15.2467   19.8109 O   0  0  0  0  0  0  0  0  0  0  0  0
    7.3480  -13.3407   19.4743 C   0  0  0  0  0  0  0  0  0  0  0  0
    7.4955  -13.7242   20.9586 C   0  0  1  0  0  0  0  0  0  0  0  0
    6.3652  -14.7756   21.0976 C   0  0  0  0  0  0  0  0  0  0  0  0
    8.7871  -14.4435   21.1403 C   0  0  2  0  0  0  0  0  0  0  0  0
    8.9754  -15.5044   20.1542 N   0  0  0  0  0  0  0  0  0  0  0  0
    9.0913  -14.9603   22.4798 C   0  0  0  0  0  0  0  0  0  0  0  0
    8.8256  -16.2154   22.6949 O   0  0  0  0  0  0  0  0  0  0  0  0
   11.0306  -16.2535   31.0617 O   0  0  0  0  0  0  0  0  0  0  0  0
   10.8646  -15.6957   29.8009 C   0  0  0  0  0  0  0  0  0  0  0  0
   11.6468  -16.1687   28.7660 C   0  0  0  0  0  0  0  0  0  0  0  0
   11.5027  -15.6327   27.5046 C   0  0  0  0  0  0  0  0  0  0  0  0
   10.6016  -14.6287   27.2165 C   0  0  0  0  0  0  0  0  0  0  0  0
   10.4477  -14.0383   25.8735 C   0  0  0  0  0  0  0  0  0  0  0  0
    9.7343  -14.9166   24.9069 C   0  0  2  0  0  0  0  0  0  0  0  0
    9.6423  -14.2884   23.5814 N   0  0  0  0  0  0  0  0  0  0  0  0
    8.3918  -15.2508   25.4205 C   0  0  0  0  0  0  0  0  0  0  0  0
    7.3891  -14.5223   25.2469 O   0  0  0  0  0  0  0  0  0  0  0  0
    9.8223  -14.1642   28.2676 C   0  0  0  0  0  0  0  0  0  0  0  0
    9.9511  -14.6863   29.5318 C   0  0  0  0  0  0  0  0  0  0  0  0
    8.1551  -16.4256   26.1467 O   0  0  0  0  0  0  0  0  0  0  0  0
  2  1  1  0
  2  3  2  0
  4  2  1  0
  5  4  1  0
  6  5  1  0
  6  7  1  6
  8  9  2  0
  8  6  1  0
 11 10  1  6
 11 13  1  0
 12 11  1  0
 13 14  1  6
 14  8  1  0
 15 13  1  0
 15 24  1  0
 16 15  2  0
 17 18  1  0
 18 28  2  0
 19 18  1  0
 19 20  2  0
 20 21  1  0
 21 27  2  0
 21 22  1  0
 23 22  1  1
 23 24  1  0
 23 25  1  0
 25 29  1  0
 26 25  2  0
 28 27  1  0
M  END
$$$$
