QVY.pdb
     RDKit          3D

 29 29  0  0  1  0  0  0  0  0999 V2000
   15.7400  -15.6205   15.7260 N   0  0  0  0  0  0  0  0  0  0  0  0
   14.7892  -16.2795   14.8405 C   0  0  0  0  0  0  0  0  0  0  0  0
   15.2910  -16.8967   13.8981 O   0  0  0  0  0  0  0  0  0  0  0  0
   13.3839  -16.1394   15.1553 C   0  0  0  0  0  0  0  0  0  0  0  0
   12.9641  -15.2167   16.2404 C   0  0  0  0  0  0  0  0  0  0  0  0
   11.5462  -15.2265   16.6207 C   0  0  2  0  0  0  0  0  0  0  0  0
   10.6596  -14.9966   15.4929 N   0  0  0  0  0  0  0  0  0  0  0  0
   11.0769  -14.6176   17.8634 C   0  0  0  0  0  0  0  0  0  0  0  0
   11.8519  -13.8131   18.5039 O   0  0  0  0  0  0  0  0  0  0  0  0
    7.4153  -13.3660   20.9684 C   0  0  0  0  0  0  0  0  0  0  0  0
    7.8549  -14.0091   19.6398 C   0  0  1  0  0  0  0  0  0  0  0  0
    7.6998  -12.8072   18.6735 C   0  0  0  0  0  0  0  0  0  0  0  0
    9.3089  -14.3226   19.7186 C   0  0  2  0  0  0  0  0  0  0  0  0
    9.8365  -14.8310   18.4550 N   0  0  0  0  0  0  0  0  0  0  0  0
    9.7568  -15.1847   20.8186 C   0  0  0  0  0  0  0  0  0  0  0  0
    9.6776  -16.4683   20.6230 O   0  0  0  0  0  0  0  0  0  0  0  0
   16.0756  -15.8924   19.5762 O   0  0  0  0  0  0  0  0  0  0  0  0
   15.0955  -15.8422   20.5586 C   0  0  0  0  0  0  0  0  0  0  0  0
   14.3473  -14.6881   20.6806 C   0  0  0  0  0  0  0  0  0  0  0  0
   13.3682  -14.6113   21.6473 C   0  0  0  0  0  0  0  0  0  0  0  0
   13.0918  -15.6463   22.5165 C   0  0  0  0  0  0  0  0  0  0  0  0
   12.0553  -15.5708   23.5634 C   0  0  0  0  0  0  0  0  0  0  0  0
   10.6761  -15.8255   23.0659 C   0  0  2  0  0  0  0  0  0  0  0  0
   10.2729  -14.8211   22.0716 N   0  0  0  0  0  0  0  0  0  0  0  0
    9.7265  -15.8528   24.1951 C   0  0  0  0  0  0  0  0  0  0  0  0
    9.8053  -16.6708   25.1390 O   0  0  0  0  0  0  0  0  0  0  0  0
   13.8524  -16.7999   22.3809 C   0  0  0  0  0  0  0  0  0  0  0  0
   14.8326  -16.8956   21.4229 C   0  0  0  0  0  0  0  0  0  0  0  0
    8.6601  -14.9477   24.2796 O   0  0  0  0  0  0  0  0  0  0  0  0
  2  1  1  0
  2  3  2  0
  4  2  1  0
  5  4  1  0
  6  5  1  0
  6  7  1  6
  8  9  2  0
  8  6  1  0
 11 10  1  1
 11 13  1  0
 12 11  1  0
 13 14  1  6
 14  8  1  0
 15 13  1  0
 15 24  1  0
 16 15  2  0
 17 18  1  0
 18 28  2  0
 19 18  1  0
 19 20  2  0
 20 21  1  0
 21 27  2  0
 21 22  1  0
 23 22  1  1
 23 24  1  0
 23 25  1  0
 25 29  1  0
 26 25  2  0
 28 27  1  0
M  END
$$$$
