QVY.pdb
     RDKit          3D

 29 29  0  0  1  0  0  0  0  0999 V2000
    8.5068  -12.6817   14.9384 N   0  0  0  0  0  0  0  0  0  0  0  0
    8.1171  -14.0846   14.8862 C   0  0  0  0  0  0  0  0  0  0  0  0
    7.4627  -14.4106   13.8932 O   0  0  0  0  0  0  0  0  0  0  0  0
    8.5307  -14.9283   15.9867 C   0  0  0  0  0  0  0  0  0  0  0  0
    9.2327  -14.3263   17.1484 C   0  0  0  0  0  0  0  0  0  0  0  0
    9.4166  -15.1712   18.3348 C   0  0  2  0  0  0  0  0  0  0  0  0
    9.6908  -16.5583   18.0007 N   0  0  0  0  0  0  0  0  0  0  0  0
    8.5906  -15.0128   19.5298 C   0  0  0  0  0  0  0  0  0  0  0  0
    8.5324  -13.8643   20.1090 O   0  0  0  0  0  0  0  0  0  0  0  0
    6.3064  -18.3133   21.3963 C   0  0  0  0  0  0  0  0  0  0  0  0
    5.8183  -16.8617   21.2337 C   0  0  1  0  0  0  0  0  0  0  0  0
    5.0017  -16.6849   22.5392 C   0  0  0  0  0  0  0  0  0  0  0  0
    6.9923  -15.9496   21.3249 C   0  0  2  0  0  0  0  0  0  0  0  0
    7.8387  -16.0133   20.1362 N   0  0  0  0  0  0  0  0  0  0  0  0
    7.8289  -16.0414   22.5273 C   0  0  0  0  0  0  0  0  0  0  0  0
    8.6263  -17.0661   22.6061 O   0  0  0  0  0  0  0  0  0  0  0  0
   11.4904  -15.5029   30.5834 O   0  0  0  0  0  0  0  0  0  0  0  0
   10.8518  -15.2245   29.3821 C   0  0  0  0  0  0  0  0  0  0  0  0
    9.6288  -14.5848   29.4220 C   0  0  0  0  0  0  0  0  0  0  0  0
    8.9733  -14.2968   28.2445 C   0  0  0  0  0  0  0  0  0  0  0  0
    9.4841  -14.6209   27.0048 C   0  0  0  0  0  0  0  0  0  0  0  0
    8.7857  -14.3292   25.7386 C   0  0  0  0  0  0  0  0  0  0  0  0
    8.6509  -15.5071   24.8392 C   0  0  2  0  0  0  0  0  0  0  0  0
    7.9006  -15.1669   23.6221 N   0  0  0  0  0  0  0  0  0  0  0  0
    8.0033  -16.6220   25.5572 C   0  0  0  0  0  0  0  0  0  0  0  0
    8.6393  -17.5697   26.0705 O   0  0  0  0  0  0  0  0  0  0  0  0
   10.7148  -15.2633   26.9816 C   0  0  0  0  0  0  0  0  0  0  0  0
   11.3838  -15.5585   28.1446 C   0  0  0  0  0  0  0  0  0  0  0  0
    6.6120  -16.6872   25.7098 O   0  0  0  0  0  0  0  0  0  0  0  0
  2  1  1  0
  2  3  2  0
  4  2  1  0
  5  4  1  0
  6  5  1  0
  6  7  1  6
  8  9  2  0
  8  6  1  0
 11 10  1  1
 11 13  1  0
 12 11  1  0
 13 14  1  6
 14  8  1  0
 15 13  1  0
 15 24  1  0
 16 15  2  0
 17 18  1  0
 18 28  2  0
 19 18  1  0
 19 20  2  0
 20 21  1  0
 21 27  2  0
 21 22  1  0
 23 22  1  1
 23 24  1  0
 23 25  1  0
 25 29  1  0
 26 25  2  0
 28 27  1  0
M  END
$$$$
