QVY.pdb
     RDKit          3D

 29 29  0  0  1  0  0  0  0  0999 V2000
    6.7994  -20.4228   16.9571 N   0  0  0  0  0  0  0  0  0  0  0  0
    8.1790  -20.6845   16.5690 C   0  0  0  0  0  0  0  0  0  0  0  0
    8.3314  -21.6044   15.7620 O   0  0  0  0  0  0  0  0  0  0  0  0
    9.2034  -19.8532   17.1635 C   0  0  0  0  0  0  0  0  0  0  0  0
    8.8137  -18.7543   18.0829 C   0  0  0  0  0  0  0  0  0  0  0  0
    9.5750  -17.5022   17.9954 C   0  0  2  0  0  0  0  0  0  0  0  0
   10.8094  -17.6456   17.2427 N   0  0  0  0  0  0  0  0  0  0  0  0
    9.6879  -16.5874   19.1294 C   0  0  0  0  0  0  0  0  0  0  0  0
   10.8552  -16.2717   19.5717 O   0  0  0  0  0  0  0  0  0  0  0  0
    7.5089  -13.5055   22.4281 C   0  0  0  0  0  0  0  0  0  0  0  0
    7.3879  -14.3804   21.1665 C   0  0  1  0  0  0  0  0  0  0  0  0
    7.4092  -13.2948   20.0605 C   0  0  0  0  0  0  0  0  0  0  0  0
    8.6354  -15.1807   21.0183 C   0  0  2  0  0  0  0  0  0  0  0  0
    8.6255  -16.0065   19.8135 N   0  0  0  0  0  0  0  0  0  0  0  0
    9.0589  -15.9927   22.1651 C   0  0  0  0  0  0  0  0  0  0  0  0
    8.6325  -17.2211   22.1992 O   0  0  0  0  0  0  0  0  0  0  0  0
    8.9890  -12.3499   28.9092 O   0  0  0  0  0  0  0  0  0  0  0  0
    9.5526  -13.2650   28.0299 C   0  0  0  0  0  0  0  0  0  0  0  0
    9.6045  -12.9401   26.6889 C   0  0  0  0  0  0  0  0  0  0  0  0
   10.1584  -13.8301   25.7944 C   0  0  0  0  0  0  0  0  0  0  0  0
   10.6726  -15.0521   26.1756 C   0  0  0  0  0  0  0  0  0  0  0  0
   11.2561  -16.0181   25.2256 C   0  0  0  0  0  0  0  0  0  0  0  0
   10.2688  -16.6043   24.2790 C   0  0  2  0  0  0  0  0  0  0  0  0
    9.8761  -15.6336   23.2477 N   0  0  0  0  0  0  0  0  0  0  0  0
    9.0862  -17.0902   25.0159 C   0  0  0  0  0  0  0  0  0  0  0  0
    7.9513  -16.5731   24.9108 O   0  0  0  0  0  0  0  0  0  0  0  0
   10.6133  -15.3639   27.5273 C   0  0  0  0  0  0  0  0  0  0  0  0
   10.0654  -14.4895   28.4343 C   0  0  0  0  0  0  0  0  0  0  0  0
    9.1646  -18.1798   25.8934 O   0  0  0  0  0  0  0  0  0  0  0  0
  2  1  1  0
  2  3  2  0
  4  2  1  0
  5  4  1  0
  6  5  1  0
  6  7  1  1
  8  9  2  0
  8  6  1  0
 11 10  1  1
 11 13  1  0
 12 11  1  0
 13 14  1  6
 14  8  1  0
 15 13  1  0
 15 24  1  0
 16 15  2  0
 17 18  1  0
 18 28  2  0
 19 18  1  0
 19 20  2  0
 20 21  1  0
 21 27  2  0
 21 22  1  0
 23 22  1  1
 23 24  1  0
 23 25  1  0
 25 29  1  0
 26 25  2  0
 28 27  1  0
M  END
$$$$
