QVY.pdb
     RDKit          3D

 29 29  0  0  1  0  0  0  0  0999 V2000
   12.7462  -18.7762   16.6882 N   0  0  0  0  0  0  0  0  0  0  0  0
   11.5748  -19.6096   16.9245 C   0  0  0  0  0  0  0  0  0  0  0  0
   11.5563  -20.6760   16.3055 O   0  0  0  0  0  0  0  0  0  0  0  0
   10.5764  -19.1041   17.8419 C   0  0  0  0  0  0  0  0  0  0  0  0
   10.7939  -17.7990   18.5159 C   0  0  0  0  0  0  0  0  0  0  0  0
   10.2478  -17.6418   19.8695 C   0  0  2  0  0  0  0  0  0  0  0  0
    8.9975  -18.3573   20.0584 N   0  0  0  0  0  0  0  0  0  0  0  0
   10.3007  -16.3653   20.5788 C   0  0  0  0  0  0  0  0  0  0  0  0
   11.4420  -15.8907   20.9397 O   0  0  0  0  0  0  0  0  0  0  0  0
    7.9058  -13.4412   19.6929 C   0  0  0  0  0  0  0  0  0  0  0  0
    7.9854  -13.4790   21.2304 C   0  0  1  0  0  0  0  0  0  0  0  0
    6.7169  -14.3049   21.5638 C   0  0  0  0  0  0  0  0  0  0  0  0
    9.1610  -14.3025   21.6281 C   0  0  2  0  0  0  0  0  0  0  0  0
    9.2047  -15.5831   20.9268 N   0  0  0  0  0  0  0  0  0  0  0  0
    9.3794  -14.5222   23.0626 C   0  0  0  0  0  0  0  0  0  0  0  0
    9.1435  -13.5136   23.8496 O   0  0  0  0  0  0  0  0  0  0  0  0
    5.9379  -11.0285   27.2495 O   0  0  0  0  0  0  0  0  0  0  0  0
    6.4544  -12.2415   26.8134 C   0  0  0  0  0  0  0  0  0  0  0  0
    7.7772  -12.5277   27.0868 C   0  0  0  0  0  0  0  0  0  0  0  0
    8.3153  -13.7244   26.6654 C   0  0  0  0  0  0  0  0  0  0  0  0
    7.5881  -14.6687   25.9708 C   0  0  0  0  0  0  0  0  0  0  0  0
    8.1567  -15.9471   25.5035 C   0  0  0  0  0  0  0  0  0  0  0  0
    9.6043  -15.8756   25.1659 C   0  0  2  0  0  0  0  0  0  0  0  0
    9.8076  -15.6837   23.7231 N   0  0  0  0  0  0  0  0  0  0  0  0
   10.2948  -17.0933   25.6330 C   0  0  0  0  0  0  0  0  0  0  0  0
   10.7920  -17.9409   24.8580 O   0  0  0  0  0  0  0  0  0  0  0  0
    6.2595  -14.3662   25.7041 C   0  0  0  0  0  0  0  0  0  0  0  0
    5.7050  -13.1788   26.1164 C   0  0  0  0  0  0  0  0  0  0  0  0
   10.4376  -17.3786   26.9974 O   0  0  0  0  0  0  0  0  0  0  0  0
  2  1  1  0
  2  3  2  0
  4  2  1  0
  5  4  1  0
  6  5  1  0
  6  7  1  6
  8  9  2  0
  8  6  1  0
 11 10  1  6
 11 13  1  0
 12 11  1  0
 13 14  1  6
 14  8  1  0
 15 13  1  0
 15 24  1  0
 16 15  2  0
 17 18  1  0
 18 28  2  0
 19 18  1  0
 19 20  2  0
 20 21  1  0
 21 27  2  0
 21 22  1  0
 23 22  1  6
 23 24  1  0
 23 25  1  0
 25 29  1  0
 26 25  2  0
 28 27  1  0
M  END
$$$$
