QVY.pdb
     RDKit          3D

 29 29  0  0  1  0  0  0  0  0999 V2000
   10.8155  -21.9037   18.1459 N   0  0  0  0  0  0  0  0  0  0  0  0
    9.7528  -21.3870   17.2938 C   0  0  0  0  0  0  0  0  0  0  0  0
    8.9535  -22.2310   16.8822 O   0  0  0  0  0  0  0  0  0  0  0  0
    9.7512  -19.9651   17.0255 C   0  0  0  0  0  0  0  0  0  0  0  0
   10.0378  -19.0109   18.1265 C   0  0  0  0  0  0  0  0  0  0  0  0
    9.9034  -17.5798   17.8284 C   0  0  2  0  0  0  0  0  0  0  0  0
   10.6369  -17.1814   16.6393 N   0  0  0  0  0  0  0  0  0  0  0  0
    9.9114  -16.5684   18.8831 C   0  0  0  0  0  0  0  0  0  0  0  0
   11.0353  -16.1838   19.3801 O   0  0  0  0  0  0  0  0  0  0  0  0
    7.4843  -13.2778   21.7662 C   0  0  0  0  0  0  0  0  0  0  0  0
    7.4744  -14.2145   20.5438 C   0  0  1  0  0  0  0  0  0  0  0  0
    7.6983  -13.1947   19.3982 C   0  0  0  0  0  0  0  0  0  0  0  0
    8.6825  -15.0840   20.5981 C   0  0  2  0  0  0  0  0  0  0  0  0
    8.7887  -15.9604   19.4344 N   0  0  0  0  0  0  0  0  0  0  0  0
    8.8995  -15.8655   21.8212 C   0  0  0  0  0  0  0  0  0  0  0  0
    8.5056  -17.1050   21.7989 O   0  0  0  0  0  0  0  0  0  0  0  0
   15.8706  -15.8908   22.6258 O   0  0  0  0  0  0  0  0  0  0  0  0
   14.5682  -16.2941   22.8889 C   0  0  0  0  0  0  0  0  0  0  0  0
   14.0555  -16.0736   24.1518 C   0  0  0  0  0  0  0  0  0  0  0  0
   12.7657  -16.4643   24.4400 C   0  0  0  0  0  0  0  0  0  0  0  0
   11.9449  -17.0764   23.5156 C   0  0  0  0  0  0  0  0  0  0  0  0
   10.5675  -17.5106   23.8163 C   0  0  0  0  0  0  0  0  0  0  0  0
    9.6451  -16.3946   24.1601 C   0  0  2  0  0  0  0  0  0  0  0  0
    9.4857  -15.4663   23.0318 N   0  0  0  0  0  0  0  0  0  0  0  0
   10.1339  -15.6828   25.3568 C   0  0  0  0  0  0  0  0  0  0  0  0
   10.3618  -16.2509   26.4484 O   0  0  0  0  0  0  0  0  0  0  0  0
   12.4750  -17.2909   22.2504 C   0  0  0  0  0  0  0  0  0  0  0  0
   13.7583  -16.9080   21.9439 C   0  0  0  0  0  0  0  0  0  0  0  0
   10.3766  -14.3028   25.3421 O   0  0  0  0  0  0  0  0  0  0  0  0
  2  1  1  0
  2  3  2  0
  4  2  1  0
  5  4  1  0
  6  5  1  0
  6  7  1  6
  8  9  2  0
  8  6  1  0
 11 10  1  1
 11 13  1  0
 12 11  1  0
 13 14  1  6
 14  8  1  0
 15 13  1  0
 15 24  1  0
 16 15  2  0
 17 18  1  0
 18 28  2  0
 19 18  1  0
 19 20  2  0
 20 21  1  0
 21 27  2  0
 21 22  1  0
 23 22  1  6
 23 24  1  0
 23 25  1  0
 25 29  1  0
 26 25  2  0
 28 27  1  0
M  END
$$$$
