QVY.pdb
     RDKit          3D

 29 29  0  0  1  0  0  0  0  0999 V2000
   10.7287  -20.7303   15.4178 N   0  0  0  0  0  0  0  0  0  0  0  0
   11.1709  -20.6683   16.8046 C   0  0  0  0  0  0  0  0  0  0  0  0
   12.3932  -20.6879   16.9667 O   0  0  0  0  0  0  0  0  0  0  0  0
   10.1464  -20.5940   17.8238 C   0  0  0  0  0  0  0  0  0  0  0  0
   10.2220  -19.5367   18.8636 C   0  0  0  0  0  0  0  0  0  0  0  0
   10.0325  -18.1483   18.4261 C   0  0  2  0  0  0  0  0  0  0  0  0
   10.6915  -17.8613   17.1635 N   0  0  0  0  0  0  0  0  0  0  0  0
   10.0676  -17.0314   19.3678 C   0  0  0  0  0  0  0  0  0  0  0  0
   11.1706  -16.7467   19.9683 O   0  0  0  0  0  0  0  0  0  0  0  0
    6.5015  -14.7822   20.8660 C   0  0  0  0  0  0  0  0  0  0  0  0
    7.8017  -14.1649   20.3180 C   0  0  1  0  0  0  0  0  0  0  0  0
    7.9506  -12.9347   21.2490 C   0  0  0  0  0  0  0  0  0  0  0  0
    8.9331  -15.0843   20.6232 C   0  0  2  0  0  0  0  0  0  0  0  0
    8.9910  -16.2178   19.7038 N   0  0  0  0  0  0  0  0  0  0  0  0
    9.0600  -15.5663   22.0036 C   0  0  0  0  0  0  0  0  0  0  0  0
    8.5289  -16.7239   22.2683 O   0  0  0  0  0  0  0  0  0  0  0  0
    5.8175  -10.6017   27.5421 O   0  0  0  0  0  0  0  0  0  0  0  0
    6.2589  -11.6998   26.8158 C   0  0  0  0  0  0  0  0  0  0  0  0
    7.5010  -11.6336   26.2163 C   0  0  0  0  0  0  0  0  0  0  0  0
    7.9635  -12.7092   25.4894 C   0  0  0  0  0  0  0  0  0  0  0  0
    7.2365  -13.8700   25.3254 C   0  0  0  0  0  0  0  0  0  0  0  0
    7.7155  -15.0224   24.5390 C   0  0  0  0  0  0  0  0  0  0  0  0
    9.1980  -15.1331   24.4733 C   0  0  2  0  0  0  0  0  0  0  0  0
    9.6868  -14.9532   23.0990 N   0  0  0  0  0  0  0  0  0  0  0  0
    9.6342  -16.4340   25.0164 C   0  0  0  0  0  0  0  0  0  0  0  0
    9.4747  -17.5186   24.4125 O   0  0  0  0  0  0  0  0  0  0  0  0
    5.9898  -13.9210   25.9346 C   0  0  0  0  0  0  0  0  0  0  0  0
    5.5118  -12.8593   26.6637 C   0  0  0  0  0  0  0  0  0  0  0  0
   10.2646  -16.5347   26.2638 O   0  0  0  0  0  0  0  0  0  0  0  0
  2  1  1  0
  2  3  2  0
  4  2  1  0
  5  4  1  0
  6  5  1  0
  6  7  1  6
  8  9  2  0
  8  6  1  0
 11 10  1  1
 11 13  1  0
 12 11  1  0
 13 14  1  6
 14  8  1  0
 15 13  1  0
 15 24  1  0
 16 15  2  0
 17 18  1  0
 18 28  2  0
 19 18  1  0
 19 20  2  0
 20 21  1  0
 21 27  2  0
 21 22  1  0
 23 22  1  6
 23 24  1  0
 23 25  1  0
 25 29  1  0
 26 25  2  0
 28 27  1  0
M  END
$$$$
