QVY.pdb
     RDKit          3D

 29 29  0  0  1  0  0  0  0  0999 V2000
   10.6365  -21.7352   20.2859 N   0  0  0  0  0  0  0  0  0  0  0  0
   10.2165  -21.2545   18.9763 C   0  0  0  0  0  0  0  0  0  0  0  0
   11.0747  -21.3208   18.0933 O   0  0  0  0  0  0  0  0  0  0  0  0
    8.8627  -20.7580   18.8558 C   0  0  0  0  0  0  0  0  0  0  0  0
    8.4776  -19.5029   19.5495 C   0  0  0  0  0  0  0  0  0  0  0  0
    8.9404  -18.2400   18.9613 C   0  0  2  0  0  0  0  0  0  0  0  0
    9.8594  -18.4387   17.8537 N   0  0  0  0  0  0  0  0  0  0  0  0
    9.2659  -17.0787   19.7863 C   0  0  0  0  0  0  0  0  0  0  0  0
   10.4386  -16.9852   20.3098 O   0  0  0  0  0  0  0  0  0  0  0  0
    6.2901  -14.1493   21.2440 C   0  0  0  0  0  0  0  0  0  0  0  0
    7.6548  -13.7625   20.6441 C   0  0  1  0  0  0  0  0  0  0  0  0
    8.0383  -12.5651   21.5504 C   0  0  0  0  0  0  0  0  0  0  0  0
    8.6278  -14.8543   20.9265 C   0  0  2  0  0  0  0  0  0  0  0  0
    8.4058  -16.0273   20.0849 N   0  0  0  0  0  0  0  0  0  0  0  0
    8.7849  -15.2764   22.3233 C   0  0  0  0  0  0  0  0  0  0  0  0
    7.8681  -16.0662   22.8006 O   0  0  0  0  0  0  0  0  0  0  0  0
    6.7380  -10.4227   27.6389 O   0  0  0  0  0  0  0  0  0  0  0  0
    7.1418  -11.5979   27.0193 C   0  0  0  0  0  0  0  0  0  0  0  0
    6.1751  -12.5163   26.6608 C   0  0  0  0  0  0  0  0  0  0  0  0
    6.5483  -13.6912   26.0447 C   0  0  0  0  0  0  0  0  0  0  0  0
    7.8619  -14.0040   25.7627 C   0  0  0  0  0  0  0  0  0  0  0  0
    8.2743  -15.2638   25.1155 C   0  0  0  0  0  0  0  0  0  0  0  0
    9.6925  -15.2739   24.6648 C   0  0  2  0  0  0  0  0  0  0  0  0
    9.8009  -14.9518   23.2349 N   0  0  0  0  0  0  0  0  0  0  0  0
   10.3069  -16.5843   24.9528 C   0  0  0  0  0  0  0  0  0  0  0  0
   10.4139  -17.4948   24.1008 O   0  0  0  0  0  0  0  0  0  0  0  0
    8.8219  -13.0702   26.1291 C   0  0  0  0  0  0  0  0  0  0  0  0
    8.4695  -11.8932   26.7437 C   0  0  0  0  0  0  0  0  0  0  0  0
   10.8167  -16.8933   26.2209 O   0  0  0  0  0  0  0  0  0  0  0  0
  2  1  1  0
  2  3  2  0
  4  2  1  0
  5  4  1  0
  6  5  1  0
  6  7  1  1
  8  9  2  0
  8  6  1  0
 11 10  1  1
 11 13  1  0
 12 11  1  0
 13 14  1  6
 14  8  1  0
 15 13  1  0
 15 24  1  0
 16 15  2  0
 17 18  1  0
 18 28  2  0
 19 18  1  0
 19 20  2  0
 20 21  1  0
 21 27  2  0
 21 22  1  0
 23 22  1  6
 23 24  1  0
 23 25  1  0
 25 29  1  0
 26 25  2  0
 28 27  1  0
M  END
$$$$
