QVY.pdb
     RDKit          3D

 29 29  0  0  1  0  0  0  0  0999 V2000
    7.6205  -23.8655   11.8921 N   0  0  0  0  0  0  0  0  0  0  0  0
    7.3203  -22.6286   12.6009 C   0  0  0  0  0  0  0  0  0  0  0  0
    6.8840  -21.7140   11.8982 O   0  0  0  0  0  0  0  0  0  0  0  0
    7.5643  -22.6065   14.0271 C   0  0  0  0  0  0  0  0  0  0  0  0
    8.1374  -23.8043   14.6915 C   0  0  0  0  0  0  0  0  0  0  0  0
    8.3677  -23.7250   16.1392 C   0  0  2  0  0  0  0  0  0  0  0  0
    7.1471  -23.4890   16.8910 N   0  0  0  0  0  0  0  0  0  0  0  0
    9.5356  -23.0475   16.6982 C   0  0  0  0  0  0  0  0  0  0  0  0
   10.6692  -23.6578   16.7191 O   0  0  0  0  0  0  0  0  0  0  0  0
   10.1824  -19.3837   15.8740 C   0  0  0  0  0  0  0  0  0  0  0  0
   10.5167  -19.5183   17.3713 C   0  0  1  0  0  0  0  0  0  0  0  0
    9.1803  -19.0574   18.0069 C   0  0  0  0  0  0  0  0  0  0  0  0
   10.6808  -20.9626   17.6964 C   0  0  2  0  0  0  0  0  0  0  0  0
    9.5501  -21.7666   17.2396 N   0  0  0  0  0  0  0  0  0  0  0  0
   11.0003  -21.3116   19.0856 C   0  0  0  0  0  0  0  0  0  0  0  0
   10.1156  -22.0160   19.7283 O   0  0  0  0  0  0  0  0  0  0  0  0
   13.1732  -24.7329   26.6524 O   0  0  0  0  0  0  0  0  0  0  0  0
   13.0096  -24.2823   25.3491 C   0  0  0  0  0  0  0  0  0  0  0  0
   14.1384  -23.9932   24.6083 C   0  0  0  0  0  0  0  0  0  0  0  0
   14.0048  -23.5441   23.3123 C   0  0  0  0  0  0  0  0  0  0  0  0
   12.7793  -23.3640   22.7052 C   0  0  0  0  0  0  0  0  0  0  0  0
   12.6236  -22.8717   21.3234 C   0  0  0  0  0  0  0  0  0  0  0  0
   12.2980  -21.4225   21.2327 C   0  0  2  0  0  0  0  0  0  0  0  0
   12.1440  -20.9960   19.8347 N   0  0  0  0  0  0  0  0  0  0  0  0
   13.3389  -20.6254   21.9101 C   0  0  0  0  0  0  0  0  0  0  0  0
   14.3499  -20.1767   21.3245 O   0  0  0  0  0  0  0  0  0  0  0  0
   11.6540  -23.6594   23.4631 C   0  0  0  0  0  0  0  0  0  0  0  0
   11.7669  -24.1087   24.7564 C   0  0  0  0  0  0  0  0  0  0  0  0
   13.2561  -20.3177   23.2746 O   0  0  0  0  0  0  0  0  0  0  0  0
  2  1  1  0
  2  3  2  0
  4  2  1  0
  5  4  1  0
  6  5  1  0
  6  7  1  1
  8  9  2  0
  8  6  1  0
 11 10  1  6
 11 13  1  0
 12 11  1  0
 13 14  1  1
 14  8  1  0
 15 13  1  0
 15 24  1  0
 16 15  2  0
 17 18  1  0
 18 28  2  0
 19 18  1  0
 19 20  2  0
 20 21  1  0
 21 27  2  0
 21 22  1  0
 23 22  1  6
 23 24  1  0
 23 25  1  0
 25 29  1  0
 26 25  2  0
 28 27  1  0
M  END
$$$$
