QVY.pdb
     RDKit          3D

 29 29  0  0  1  0  0  0  0  0999 V2000
    8.9464  -18.6746   15.0647 N   0  0  0  0  0  0  0  0  0  0  0  0
   10.3159  -19.0820   15.3497 C   0  0  0  0  0  0  0  0  0  0  0  0
   10.7198  -20.0516   14.7038 O   0  0  0  0  0  0  0  0  0  0  0  0
   11.0403  -18.3198   16.3437 C   0  0  0  0  0  0  0  0  0  0  0  0
   10.3388  -17.2573   17.1076 C   0  0  0  0  0  0  0  0  0  0  0  0
   10.0718  -17.5147   18.5280 C   0  0  2  0  0  0  0  0  0  0  0  0
    9.1178  -18.5908   18.7351 N   0  0  0  0  0  0  0  0  0  0  0  0
    9.9439  -16.4290   19.4977 C   0  0  0  0  0  0  0  0  0  0  0  0
   10.9503  -15.6559   19.7158 O   0  0  0  0  0  0  0  0  0  0  0  0
    7.0330  -13.4417   22.2242 C   0  0  0  0  0  0  0  0  0  0  0  0
    7.2116  -14.4926   21.1127 C   0  0  1  0  0  0  0  0  0  0  0  0
    7.1892  -13.5874   19.8548 C   0  0  0  0  0  0  0  0  0  0  0  0
    8.5819  -15.0674   21.2140 C   0  0  2  0  0  0  0  0  0  0  0  0
    8.8083  -16.1373   20.2457 N   0  0  0  0  0  0  0  0  0  0  0  0
    9.0371  -15.5024   22.5397 C   0  0  0  0  0  0  0  0  0  0  0  0
    8.5661  -16.6337   22.9760 O   0  0  0  0  0  0  0  0  0  0  0  0
   10.4986  -15.6962   31.1959 O   0  0  0  0  0  0  0  0  0  0  0  0
   10.3860  -15.3478   29.8565 C   0  0  0  0  0  0  0  0  0  0  0  0
   10.0128  -14.0557   29.5438 C   0  0  0  0  0  0  0  0  0  0  0  0
    9.8932  -13.6832   28.2224 C   0  0  0  0  0  0  0  0  0  0  0  0
   10.1304  -14.5502   27.1760 C   0  0  0  0  0  0  0  0  0  0  0  0
    9.9931  -14.1665   25.7582 C   0  0  0  0  0  0  0  0  0  0  0  0
   10.0892  -15.3109   24.8119 C   0  0  2  0  0  0  0  0  0  0  0  0
    9.9269  -14.8681   23.4199 N   0  0  0  0  0  0  0  0  0  0  0  0
    9.0857  -16.3374   25.1536 C   0  0  0  0  0  0  0  0  0  0  0  0
    9.3840  -17.5116   25.4677 O   0  0  0  0  0  0  0  0  0  0  0  0
   10.5051  -15.8455   27.5068 C   0  0  0  0  0  0  0  0  0  0  0  0
   10.6301  -16.2356   28.8182 C   0  0  0  0  0  0  0  0  0  0  0  0
    7.7136  -16.0536   25.1468 O   0  0  0  0  0  0  0  0  0  0  0  0
  2  1  1  0
  2  3  2  0
  4  2  1  0
  5  4  1  0
  6  5  1  0
  6  7  1  6
  8  9  2  0
  8  6  1  0
 11 10  1  1
 11 13  1  0
 12 11  1  0
 13 14  1  6
 14  8  1  0
 15 13  1  0
 15 24  1  0
 16 15  2  0
 17 18  1  0
 18 28  2  0
 19 18  1  0
 19 20  2  0
 20 21  1  0
 21 27  2  0
 21 22  1  0
 23 22  1  1
 23 24  1  0
 23 25  1  0
 25 29  1  0
 26 25  2  0
 28 27  1  0
M  END
$$$$
