QVY.pdb
     RDKit          3D

 29 29  0  0  1  0  0  0  0  0999 V2000
   11.2778  -20.3465   21.6079 N   0  0  0  0  0  0  0  0  0  0  0  0
   11.6086  -20.5641   20.2059 C   0  0  0  0  0  0  0  0  0  0  0  0
   11.8640  -21.7316   19.9023 O   0  0  0  0  0  0  0  0  0  0  0  0
   11.6040  -19.4069   19.3370 C   0  0  0  0  0  0  0  0  0  0  0  0
   10.3192  -18.9135   18.7799 C   0  0  0  0  0  0  0  0  0  0  0  0
   10.2333  -17.4857   18.4498 C   0  0  2  0  0  0  0  0  0  0  0  0
   11.1812  -17.0875   17.4232 N   0  0  0  0  0  0  0  0  0  0  0  0
   10.0268  -16.4676   19.4776 C   0  0  0  0  0  0  0  0  0  0  0  0
   11.0488  -15.9250   20.0425 O   0  0  0  0  0  0  0  0  0  0  0  0
    7.0153  -13.3340   21.9345 C   0  0  0  0  0  0  0  0  0  0  0  0
    7.2536  -14.2907   20.7514 C   0  0  1  0  0  0  0  0  0  0  0  0
    7.5880  -13.2787   19.6261 C   0  0  0  0  0  0  0  0  0  0  0  0
    8.4908  -15.0772   21.0145 C   0  0  2  0  0  0  0  0  0  0  0  0
    8.7947  -16.0120   19.9341 N   0  0  0  0  0  0  0  0  0  0  0  0
    8.5908  -15.7702   22.3043 C   0  0  0  0  0  0  0  0  0  0  0  0
    8.3669  -17.0516   22.2969 O   0  0  0  0  0  0  0  0  0  0  0  0
    5.8893  -10.7405   26.7652 O   0  0  0  0  0  0  0  0  0  0  0  0
    6.6833  -11.8662   26.5907 C   0  0  0  0  0  0  0  0  0  0  0  0
    7.9238  -11.7098   26.0047 C   0  0  0  0  0  0  0  0  0  0  0  0
    8.7321  -12.8105   25.8194 C   0  0  0  0  0  0  0  0  0  0  0  0
    8.3594  -14.0845   26.1949 C   0  0  0  0  0  0  0  0  0  0  0  0
    9.2105  -15.2718   25.9899 C   0  0  0  0  0  0  0  0  0  0  0  0
    8.8548  -16.0677   24.7839 C   0  0  2  0  0  0  0  0  0  0  0  0
    8.9041  -15.2448   23.5671 N   0  0  0  0  0  0  0  0  0  0  0  0
    7.5194  -16.6728   24.9512 C   0  0  0  0  0  0  0  0  0  0  0  0
    6.5049  -16.2796   24.3327 O   0  0  0  0  0  0  0  0  0  0  0  0
    7.1095  -14.2251   26.7830 C   0  0  0  0  0  0  0  0  0  0  0  0
    6.2897  -13.1398   26.9766 C   0  0  0  0  0  0  0  0  0  0  0  0
    7.3034  -17.7436   25.8287 O   0  0  0  0  0  0  0  0  0  0  0  0
  2  1  1  0
  2  3  2  0
  4  2  1  0
  5  4  1  0
  6  5  1  0
  6  7  1  1
  8  9  2  0
  8  6  1  0
 11 10  1  1
 11 13  1  0
 12 11  1  0
 13 14  1  6
 14  8  1  0
 15 13  1  0
 15 24  1  0
 16 15  2  0
 17 18  1  0
 18 28  2  0
 19 18  1  0
 19 20  2  0
 20 21  1  0
 21 27  2  0
 21 22  1  0
 23 22  1  1
 23 24  1  0
 23 25  1  0
 25 29  1  0
 26 25  2  0
 28 27  1  0
M  END
$$$$
