QVY.pdb
     RDKit          3D

 29 29  0  0  1  0  0  0  0  0999 V2000
   12.8094  -18.7793   17.7941 N   0  0  0  0  0  0  0  0  0  0  0  0
   12.0083  -19.2866   16.6880 C   0  0  0  0  0  0  0  0  0  0  0  0
   12.4274  -20.3240   16.1695 O   0  0  0  0  0  0  0  0  0  0  0  0
   10.8299  -18.5307   16.3224 C   0  0  0  0  0  0  0  0  0  0  0  0
    9.7830  -18.2663   17.3416 C   0  0  0  0  0  0  0  0  0  0  0  0
    9.3183  -16.8812   17.4851 C   0  0  2  0  0  0  0  0  0  0  0  0
    9.3271  -16.1518   16.2285 N   0  0  0  0  0  0  0  0  0  0  0  0
    9.6850  -16.0602   18.6370 C   0  0  0  0  0  0  0  0  0  0  0  0
   10.9226  -15.7627   18.8315 O   0  0  0  0  0  0  0  0  0  0  0  0
    7.6850  -13.0639   19.5570 C   0  0  0  0  0  0  0  0  0  0  0  0
    8.0400  -13.6549   20.9341 C   0  0  1  0  0  0  0  0  0  0  0  0
    6.7136  -14.3738   21.2892 C   0  0  0  0  0  0  0  0  0  0  0  0
    9.0741  -14.7107   20.7490 C   0  0  2  0  0  0  0  0  0  0  0  0
    8.8047  -15.5543   19.5874 N   0  0  0  0  0  0  0  0  0  0  0  0
    9.3923  -15.5566   21.9053 C   0  0  0  0  0  0  0  0  0  0  0  0
    8.5599  -16.5207   22.1693 O   0  0  0  0  0  0  0  0  0  0  0  0
   10.7053  -14.1100   30.4389 O   0  0  0  0  0  0  0  0  0  0  0  0
   10.4130  -14.2239   29.0862 C   0  0  0  0  0  0  0  0  0  0  0  0
   11.3703  -14.7652   28.2514 C   0  0  0  0  0  0  0  0  0  0  0  0
   11.1064  -14.8896   26.9045 C   0  0  0  0  0  0  0  0  0  0  0  0
    9.9137  -14.4932   26.3358 C   0  0  0  0  0  0  0  0  0  0  0  0
    9.6249  -14.6094   24.8939 C   0  0  0  0  0  0  0  0  0  0  0  0
   10.3441  -15.7262   24.2230 C   0  0  2  0  0  0  0  0  0  0  0  0
   10.4860  -15.4804   22.7809 N   0  0  0  0  0  0  0  0  0  0  0  0
    9.6431  -17.0012   24.4688 C   0  0  0  0  0  0  0  0  0  0  0  0
    8.4938  -17.2471   24.0385 O   0  0  0  0  0  0  0  0  0  0  0  0
    8.9614  -13.9512   27.1885 C   0  0  0  0  0  0  0  0  0  0  0  0
    9.2057  -13.8196   28.5340 C   0  0  0  0  0  0  0  0  0  0  0  0
   10.2332  -18.0319   25.2123 O   0  0  0  0  0  0  0  0  0  0  0  0
  2  1  1  0
  2  3  2  0
  4  2  1  0
  5  4  1  0
  6  5  1  0
  6  7  1  6
  8  9  2  0
  8  6  1  0
 11 10  1  6
 11 13  1  0
 12 11  1  0
 13 14  1  6
 14  8  1  0
 15 13  1  0
 15 24  1  0
 16 15  2  0
 17 18  1  0
 18 28  2  0
 19 18  1  0
 19 20  2  0
 20 21  1  0
 21 27  2  0
 21 22  1  0
 23 22  1  6
 23 24  1  0
 23 25  1  0
 25 29  1  0
 26 25  2  0
 28 27  1  0
M  END
$$$$
