KDG.pdb
     RDKit          3D

 22 21  0  0  1  0  0  0  0  0999 V2000
    2.4408  -20.7427   19.7816 N   0  0  0  0  0  0  0  0  0  0  0  0
    3.4854  -21.1117   18.8156 C   0  0  1  0  0  0  0  0  0  0  0  0
    3.7093  -19.9142   17.9360 C   0  0  0  0  0  0  0  0  0  0  0  0
    3.3776  -20.1384   16.4982 C   0  0  0  0  0  0  0  0  0  0  0  0
    3.6561  -18.9345   15.6323 C   0  0  0  0  0  0  0  0  0  0  0  0
    3.2199  -19.2147   14.2225 C   0  0  0  0  0  0  0  0  0  0  0  0
    3.5239  -18.1231   13.3217 N   0  0  0  0  0  0  0  0  0  0  0  0
    4.7094  -21.3555   19.6160 C   0  0  0  0  0  0  0  0  0  0  0  0
    4.8937  -20.6990   20.6624 O   0  0  0  0  0  0  0  0  0  0  0  0
    5.7015  -22.2971   19.2712 N   0  0  0  0  0  0  0  0  0  0  0  0
    6.8531  -22.4937   20.0736 C   0  0  1  0  0  0  0  0  0  0  0  0
    7.4439  -23.8631   20.0264 C   0  0  0  0  0  0  0  0  0  0  0  0
    8.5826  -23.9886   20.9449 C   0  0  0  0  0  0  0  0  0  0  0  0
    9.7804  -24.1003   20.5807 O   0  0  0  0  0  0  0  0  0  0  0  0
    7.8852  -21.4664   19.7808 C   0  0  0  0  0  0  0  0  0  0  0  0
    8.1767  -21.1713   18.5941 O   0  0  0  0  0  0  0  0  0  0  0  0
    8.3990  -23.9920   22.3430 O   0  0  0  0  0  0  0  0  0  0  0  0
    8.5693  -20.7902   20.8235 N   0  0  0  0  0  0  0  0  0  0  0  0
    9.4750  -19.6940   20.6011 C   0  0  0  0  0  0  0  0  0  0  0  0
   10.8929  -20.1158   20.6179 C   0  0  0  0  0  0  0  0  0  0  0  0
   11.9684  -19.2488   20.7305 O   0  0  0  0  0  0  0  0  0  0  0  0
   11.1519  -21.3421   20.5244 O   0  0  0  0  0  0  0  0  0  0  0  0
  2  8  1  0
  2  1  1  1
  3  2  1  0
  4  3  1  0
  5  4  1  0
  6  7  1  0
  6  5  1  0
  8  9  2  0
 10  8  1  0
 10 11  1  0
 11 12  1  6
 13 17  1  0
 13 12  1  0
 14 13  2  0
 15 18  1  0
 15 11  1  0
 16 15  2  0
 19 18  1  0
 20 19  1  0
 21 20  1  0
 22 20  2  0
M  END
$$$$
