KDG.pdb
     RDKit          3D

 22 21  0  0  1  0  0  0  0  0999 V2000
    7.5522  -15.4891   22.2544 N   0  0  0  0  0  0  0  0  0  0  0  0
    8.4640  -14.9638   23.2807 C   0  0  1  0  0  0  0  0  0  0  0  0
    7.6324  -14.6805   24.4997 C   0  0  0  0  0  0  0  0  0  0  0  0
    7.3926  -13.2297   24.7552 C   0  0  0  0  0  0  0  0  0  0  0  0
    6.5825  -12.9748   26.0025 C   0  0  0  0  0  0  0  0  0  0  0  0
    6.3820  -11.4970   26.1812 C   0  0  0  0  0  0  0  0  0  0  0  0
    5.5730  -11.1842   27.3401 N   0  0  0  0  0  0  0  0  0  0  0  0
    9.4067  -16.0662   23.5877 C   0  0  0  0  0  0  0  0  0  0  0  0
    8.9658  -17.2284   23.7097 O   0  0  0  0  0  0  0  0  0  0  0  0
   10.7962  -15.8908   23.7552 N   0  0  0  0  0  0  0  0  0  0  0  0
   11.6364  -16.9531   24.1726 C   0  0  1  0  0  0  0  0  0  0  0  0
   13.0737  -16.8238   23.7930 C   0  0  0  0  0  0  0  0  0  0  0  0
   13.2264  -16.5153   22.3655 C   0  0  0  0  0  0  0  0  0  0  0  0
   12.6245  -17.1165   21.4402 O   0  0  0  0  0  0  0  0  0  0  0  0
   11.4986  -17.1964   25.6314 C   0  0  0  0  0  0  0  0  0  0  0  0
   10.6320  -16.5825   26.3042 O   0  0  0  0  0  0  0  0  0  0  0  0
   14.0880  -15.4893   21.9260 O   0  0  0  0  0  0  0  0  0  0  0  0
   12.3342  -18.1228   26.3068 N   0  0  0  0  0  0  0  0  0  0  0  0
   12.2957  -18.3391   27.7292 C   0  0  0  0  0  0  0  0  0  0  0  0
   11.2282  -19.2808   28.1321 C   0  0  0  0  0  0  0  0  0  0  0  0
   11.0263  -19.7305   29.4276 O   0  0  0  0  0  0  0  0  0  0  0  0
   10.4448  -19.7088   27.2476 O   0  0  0  0  0  0  0  0  0  0  0  0
  2  8  1  0
  2  1  1  6
  3  2  1  0
  4  3  1  0
  5  4  1  0
  6  7  1  0
  6  5  1  0
  8  9  2  0
 10  8  1  0
 10 11  1  0
 11 12  1  1
 13 17  1  0
 13 12  1  0
 14 13  2  0
 15 18  1  0
 15 11  1  0
 16 15  2  0
 19 18  1  0
 20 19  1  0
 21 20  1  0
 22 20  2  0
M  END
$$$$
