KDG.pdb
     RDKit          3D

 22 21  0  0  1  0  0  0  0  0999 V2000
    4.0389  -23.5233   22.6955 N   0  0  0  0  0  0  0  0  0  0  0  0
    3.8366  -24.8243   23.3491 C   0  0  1  0  0  0  0  0  0  0  0  0
    4.6570  -25.8272   22.5884 C   0  0  0  0  0  0  0  0  0  0  0  0
    3.8634  -26.7080   21.6817 C   0  0  0  0  0  0  0  0  0  0  0  0
    4.7064  -27.7380   20.9708 C   0  0  0  0  0  0  0  0  0  0  0  0
    3.8421  -28.5471   20.0464 C   0  0  0  0  0  0  0  0  0  0  0  0
    4.5947  -29.5460   19.3176 N   0  0  0  0  0  0  0  0  0  0  0  0
    4.3958  -24.6828   24.7150 C   0  0  0  0  0  0  0  0  0  0  0  0
    4.5954  -25.7075   25.4005 O   0  0  0  0  0  0  0  0  0  0  0  0
    4.7252  -23.4456   25.3070 N   0  0  0  0  0  0  0  0  0  0  0  0
    5.2797  -23.3668   26.6088 C   0  0  1  0  0  0  0  0  0  0  0  0
    6.0958  -22.1491   26.8878 C   0  0  0  0  0  0  0  0  0  0  0  0
    6.8940  -22.3061   28.1103 C   0  0  0  0  0  0  0  0  0  0  0  0
    6.4528  -22.7689   29.1924 O   0  0  0  0  0  0  0  0  0  0  0  0
    4.2294  -23.5433   27.6443 C   0  0  0  0  0  0  0  0  0  0  0  0
    3.2037  -22.8164   27.6467 O   0  0  0  0  0  0  0  0  0  0  0  0
    8.2537  -21.9349   28.1499 O   0  0  0  0  0  0  0  0  0  0  0  0
    4.3493  -24.5308   28.6556 N   0  0  0  0  0  0  0  0  0  0  0  0
    3.3276  -24.7961   29.6339 C   0  0  0  0  0  0  0  0  0  0  0  0
    3.7277  -25.8378   30.6053 C   0  0  0  0  0  0  0  0  0  0  0  0
    4.9416  -26.5065   30.5835 O   0  0  0  0  0  0  0  0  0  0  0  0
    2.9194  -26.1457   31.5170 O   0  0  0  0  0  0  0  0  0  0  0  0
  2  8  1  0
  2  1  1  6
  3  2  1  0
  4  3  1  0
  5  4  1  0
  6  7  1  0
  6  5  1  0
  8  9  2  0
 10  8  1  0
 10 11  1  0
 11 12  1  1
 13 17  1  0
 13 12  1  0
 14 13  2  0
 15 18  1  0
 15 11  1  0
 16 15  2  0
 19 18  1  0
 20 19  1  0
 21 20  1  0
 22 20  2  0
M  END
$$$$
