KDG.pdb
     RDKit          3D

 22 21  0  0  1  0  0  0  0  0999 V2000
    8.6068  -18.0292   19.4152 N   0  0  0  0  0  0  0  0  0  0  0  0
    9.7098  -17.0622   19.5091 C   0  0  1  0  0  0  0  0  0  0  0  0
    9.1006  -15.7401   19.8814 C   0  0  0  0  0  0  0  0  0  0  0  0
    8.3106  -15.0991   18.7893 C   0  0  0  0  0  0  0  0  0  0  0  0
    7.6803  -13.7923   19.2038 C   0  0  0  0  0  0  0  0  0  0  0  0
    6.8982  -13.2222   18.0552 C   0  0  0  0  0  0  0  0  0  0  0  0
    6.1382  -12.0490   18.4312 N   0  0  0  0  0  0  0  0  0  0  0  0
   10.5642  -17.5295   20.6271 C   0  0  0  0  0  0  0  0  0  0  0  0
   10.0942  -18.3359   21.4569 O   0  0  0  0  0  0  0  0  0  0  0  0
   11.8992  -17.1184   20.8233 N   0  0  0  0  0  0  0  0  0  0  0  0
   12.7056  -17.6705   21.8496 C   0  0  1  0  0  0  0  0  0  0  0  0
   14.1765  -17.4827   21.6833 C   0  0  0  0  0  0  0  0  0  0  0  0
   14.9306  -18.2125   22.7104 C   0  0  0  0  0  0  0  0  0  0  0  0
   14.8737  -19.4560   22.8845 O   0  0  0  0  0  0  0  0  0  0  0  0
   12.2633  -17.1946   23.1854 C   0  0  0  0  0  0  0  0  0  0  0  0
   12.2188  -15.9653   23.4450 O   0  0  0  0  0  0  0  0  0  0  0  0
   15.7968  -17.5418   23.5981 O   0  0  0  0  0  0  0  0  0  0  0  0
   11.8797  -18.1054   24.2031 N   0  0  0  0  0  0  0  0  0  0  0  0
   11.3950  -17.6970   25.4952 C   0  0  0  0  0  0  0  0  0  0  0  0
   11.7564  -18.6522   26.5657 C   0  0  0  0  0  0  0  0  0  0  0  0
   11.0353  -18.8289   27.7361 O   0  0  0  0  0  0  0  0  0  0  0  0
   12.7859  -19.3568   26.4141 O   0  0  0  0  0  0  0  0  0  0  0  0
  2  8  1  0
  2  1  1  1
  3  2  1  0
  4  3  1  0
  5  4  1  0
  6  7  1  0
  6  5  1  0
  8  9  2  0
 10  8  1  0
 10 11  1  0
 11 12  1  6
 13 17  1  0
 13 12  1  0
 14 13  2  0
 15 18  1  0
 15 11  1  0
 16 15  2  0
 19 18  1  0
 20 19  1  0
 21 20  1  0
 22 20  2  0
M  END
$$$$
