KDG.pdb
     RDKit          3D

 22 21  0  0  1  0  0  0  0  0999 V2000
    9.6918  -14.0733   19.9509 N   0  0  0  0  0  0  0  0  0  0  0  0
    8.4004  -13.5071   20.3661 C   0  0  1  0  0  0  0  0  0  0  0  0
    7.3840  -13.9479   19.3511 C   0  0  0  0  0  0  0  0  0  0  0  0
    7.9104  -14.8993   18.3287 C   0  0  0  0  0  0  0  0  0  0  0  0
    6.8495  -15.3876   17.3733 C   0  0  0  0  0  0  0  0  0  0  0  0
    7.4553  -16.3558   16.3978 C   0  0  0  0  0  0  0  0  0  0  0  0
    6.4766  -16.9077   15.4852 N   0  0  0  0  0  0  0  0  0  0  0  0
    8.0822  -14.1374   21.6698 C   0  0  0  0  0  0  0  0  0  0  0  0
    6.8907  -14.2069   22.0380 O   0  0  0  0  0  0  0  0  0  0  0  0
    9.0513  -14.6756   22.5420 N   0  0  0  0  0  0  0  0  0  0  0  0
    8.6884  -15.4472   23.6741 C   0  0  1  0  0  0  0  0  0  0  0  0
    7.7027  -16.5382   23.4200 C   0  0  0  0  0  0  0  0  0  0  0  0
    6.6165  -16.5214   24.4080 C   0  0  0  0  0  0  0  0  0  0  0  0
    6.4209  -15.5937   25.2332 O   0  0  0  0  0  0  0  0  0  0  0  0
    9.8930  -15.9779   24.3624 C   0  0  0  0  0  0  0  0  0  0  0  0
    9.8175  -16.4176   25.5378 O   0  0  0  0  0  0  0  0  0  0  0  0
    5.6913  -17.5817   24.4974 O   0  0  0  0  0  0  0  0  0  0  0  0
   11.1574  -16.0055   23.7199 N   0  0  0  0  0  0  0  0  0  0  0  0
   12.4082  -15.8677   24.4185 C   0  0  0  0  0  0  0  0  0  0  0  0
   13.5779  -16.0521   23.5315 C   0  0  0  0  0  0  0  0  0  0  0  0
   14.8925  -16.1062   23.9673 O   0  0  0  0  0  0  0  0  0  0  0  0
   13.3776  -16.1688   22.2963 O   0  0  0  0  0  0  0  0  0  0  0  0
  2  8  1  0
  2  1  1  6
  3  2  1  0
  4  3  1  0
  5  4  1  0
  6  7  1  0
  6  5  1  0
  8  9  2  0
 10  8  1  0
 10 11  1  0
 11 12  1  6
 13 17  1  0
 13 12  1  0
 14 13  2  0
 15 18  1  0
 15 11  1  0
 16 15  2  0
 19 18  1  0
 20 19  1  0
 21 20  1  0
 22 20  2  0
M  END
$$$$
