KDG.pdb
     RDKit          3D

 22 21  0  0  1  0  0  0  0  0999 V2000
    9.4688  -14.1748   17.2280 N   0  0  0  0  0  0  0  0  0  0  0  0
    9.7164  -15.6163   17.0820 C   0  0  1  0  0  0  0  0  0  0  0  0
    9.8128  -15.8956   15.6088 C   0  0  0  0  0  0  0  0  0  0  0  0
    8.6055  -15.4951   14.8280 C   0  0  0  0  0  0  0  0  0  0  0  0
    8.7457  -15.7535   13.3480 C   0  0  0  0  0  0  0  0  0  0  0  0
    7.5722  -15.1640   12.6190 C   0  0  0  0  0  0  0  0  0  0  0  0
    7.6982  -15.2800   11.1817 N   0  0  0  0  0  0  0  0  0  0  0  0
   11.0381  -15.8656   17.7059 C   0  0  0  0  0  0  0  0  0  0  0  0
   11.5070  -17.0232   17.6974 O   0  0  0  0  0  0  0  0  0  0  0  0
   11.8196  -14.8658   18.3216 N   0  0  0  0  0  0  0  0  0  0  0  0
   13.0921  -15.1512   18.8766 C   0  0  1  0  0  0  0  0  0  0  0  0
   14.2280  -14.3576   18.3231 C   0  0  0  0  0  0  0  0  0  0  0  0
   14.6427  -14.8596   17.0070 C   0  0  0  0  0  0  0  0  0  0  0  0
   14.4634  -16.0376   16.6070 O   0  0  0  0  0  0  0  0  0  0  0  0
   13.0578  -15.0555   20.3586 C   0  0  0  0  0  0  0  0  0  0  0  0
   13.5431  -14.0563   20.9473 O   0  0  0  0  0  0  0  0  0  0  0  0
   15.2912  -14.0233   16.0751 O   0  0  0  0  0  0  0  0  0  0  0  0
   12.4804  -16.0809   21.1507 N   0  0  0  0  0  0  0  0  0  0  0  0
   12.2192  -15.9464   22.5596 C   0  0  0  0  0  0  0  0  0  0  0  0
   13.3979  -16.2775   23.3902 C   0  0  0  0  0  0  0  0  0  0  0  0
   13.4398  -16.1701   24.7715 O   0  0  0  0  0  0  0  0  0  0  0  0
   14.4380  -16.6852   22.8147 O   0  0  0  0  0  0  0  0  0  0  0  0
  2  8  1  0
  2  1  1  6
  3  2  1  0
  4  3  1  0
  5  4  1  0
  6  7  1  0
  6  5  1  0
  8  9  2  0
 10  8  1  0
 10 11  1  0
 11 12  1  6
 13 17  1  0
 13 12  1  0
 14 13  2  0
 15 18  1  0
 15 11  1  0
 16 15  2  0
 19 18  1  0
 20 19  1  0
 21 20  1  0
 22 20  2  0
M  END
$$$$
