KDG.pdb
     RDKit          3D

 22 21  0  0  1  0  0  0  0  0999 V2000
    6.8558  -15.3270   22.3692 N   0  0  0  0  0  0  0  0  0  0  0  0
    8.0332  -15.2083   21.4974 C   0  0  1  0  0  0  0  0  0  0  0  0
    8.3219  -13.7410   21.3511 C   0  0  0  0  0  0  0  0  0  0  0  0
    7.7948  -13.1343   20.0934 C   0  0  0  0  0  0  0  0  0  0  0  0
    8.3772  -13.7554   18.8477 C   0  0  0  0  0  0  0  0  0  0  0  0
    7.7345  -13.1489   17.6332 C   0  0  0  0  0  0  0  0  0  0  0  0
    8.1992  -13.7514   16.4018 N   0  0  0  0  0  0  0  0  0  0  0  0
    9.1496  -15.8465   22.2353 C   0  0  0  0  0  0  0  0  0  0  0  0
    9.4332  -15.4399   23.3816 O   0  0  0  0  0  0  0  0  0  0  0  0
    9.9306  -16.9032   21.7223 N   0  0  0  0  0  0  0  0  0  0  0  0
   11.0727  -17.3867   22.4083 C   0  0  1  0  0  0  0  0  0  0  0  0
   11.5348  -18.7480   22.0086 C   0  0  0  0  0  0  0  0  0  0  0  0
   11.8105  -18.8200   20.5681 C   0  0  0  0  0  0  0  0  0  0  0  0
   12.9290  -18.5831   20.0459 O   0  0  0  0  0  0  0  0  0  0  0  0
   12.1894  -16.4101   22.3332 C   0  0  0  0  0  0  0  0  0  0  0  0
   12.0894  -15.3760   21.6253 O   0  0  0  0  0  0  0  0  0  0  0  0
   10.8031  -19.1717   19.6463 O   0  0  0  0  0  0  0  0  0  0  0  0
   13.3951  -16.6116   23.0529 N   0  0  0  0  0  0  0  0  0  0  0  0
   14.4375  -15.6242   23.1516 C   0  0  0  0  0  0  0  0  0  0  0  0
   15.5680  -16.0734   23.9936 C   0  0  0  0  0  0  0  0  0  0  0  0
   16.7307  -15.3474   24.1989 O   0  0  0  0  0  0  0  0  0  0  0  0
   15.4789  -17.1882   24.5671 O   0  0  0  0  0  0  0  0  0  0  0  0
  2  8  1  0
  2  1  1  1
  3  2  1  0
  4  3  1  0
  5  4  1  0
  6  7  1  0
  6  5  1  0
  8  9  2  0
 10  8  1  0
 10 11  1  0
 11 12  1  6
 13 17  1  0
 13 12  1  0
 14 13  2  0
 15 18  1  0
 15 11  1  0
 16 15  2  0
 19 18  1  0
 20 19  1  0
 21 20  1  0
 22 20  2  0
M  END
$$$$
