KDG.pdb
     RDKit          3D

 22 21  0  0  1  0  0  0  0  0999 V2000
    9.9121  -16.3224   17.8912 N   0  0  0  0  0  0  0  0  0  0  0  0
   10.5316  -15.0772   18.3668 C   0  0  1  0  0  0  0  0  0  0  0  0
    9.7499  -14.6327   19.5705 C   0  0  0  0  0  0  0  0  0  0  0  0
    8.3441  -14.2282   19.2742 C   0  0  0  0  0  0  0  0  0  0  0  0
    8.1161  -12.7424   19.4055 C   0  0  0  0  0  0  0  0  0  0  0  0
    6.6617  -12.4339   19.1916 C   0  0  0  0  0  0  0  0  0  0  0  0
    6.3703  -11.0220   19.3217 N   0  0  0  0  0  0  0  0  0  0  0  0
   11.9033  -15.4443   18.7932 C   0  0  0  0  0  0  0  0  0  0  0  0
   12.0887  -16.5324   19.3777 O   0  0  0  0  0  0  0  0  0  0  0  0
   13.0378  -14.6336   18.5806 N   0  0  0  0  0  0  0  0  0  0  0  0
   14.3037  -14.9663   19.1240 C   0  0  1  0  0  0  0  0  0  0  0  0
   15.4819  -14.4042   18.4011 C   0  0  0  0  0  0  0  0  0  0  0  0
   15.5237  -14.8605   17.0060 C   0  0  0  0  0  0  0  0  0  0  0  0
   15.5180  -16.0666   16.6524 O   0  0  0  0  0  0  0  0  0  0  0  0
   14.3653  -14.6300   20.5695 C   0  0  0  0  0  0  0  0  0  0  0  0
   14.2205  -13.4431   20.9578 O   0  0  0  0  0  0  0  0  0  0  0  0
   15.5748  -13.9430   15.9366 O   0  0  0  0  0  0  0  0  0  0  0  0
   14.5876  -15.6302   21.5506 N   0  0  0  0  0  0  0  0  0  0  0  0
   14.5442  -15.3791   22.9671 C   0  0  0  0  0  0  0  0  0  0  0  0
   14.6802  -16.6156   23.7679 C   0  0  0  0  0  0  0  0  0  0  0  0
   14.7789  -16.6486   25.1500 O   0  0  0  0  0  0  0  0  0  0  0  0
   14.7093  -17.7174   23.1642 O   0  0  0  0  0  0  0  0  0  0  0  0
  2  8  1  0
  2  1  1  1
  3  2  1  0
  4  3  1  0
  5  4  1  0
  6  7  1  0
  6  5  1  0
  8  9  2  0
 10  8  1  0
 10 11  1  0
 11 12  1  6
 13 17  1  0
 13 12  1  0
 14 13  2  0
 15 18  1  0
 15 11  1  0
 16 15  2  0
 19 18  1  0
 20 19  1  0
 21 20  1  0
 22 20  2  0
M  END
$$$$
