KDG.pdb
     RDKit          3D

 22 21  0  0  1  0  0  0  0  0999 V2000
   10.1287  -16.8593   19.9725 N   0  0  0  0  0  0  0  0  0  0  0  0
    9.0544  -16.9338   20.9729 C   0  0  1  0  0  0  0  0  0  0  0  0
    7.8735  -17.5730   20.2986 C   0  0  0  0  0  0  0  0  0  0  0  0
    8.1050  -17.9354   18.8693 C   0  0  0  0  0  0  0  0  0  0  0  0
    6.8602  -18.4317   18.1759 C   0  0  0  0  0  0  0  0  0  0  0  0
    7.1591  -18.6924   16.7271 C   0  0  0  0  0  0  0  0  0  0  0  0
    6.0312  -19.2652   16.0235 N   0  0  0  0  0  0  0  0  0  0  0  0
    9.5514  -17.8420   22.0342 C   0  0  0  0  0  0  0  0  0  0  0  0
    8.7696  -18.2107   22.9357 O   0  0  0  0  0  0  0  0  0  0  0  0
   10.8736  -18.3292   22.0985 N   0  0  0  0  0  0  0  0  0  0  0  0
   11.2620  -19.3069   23.0481 C   0  0  1  0  0  0  0  0  0  0  0  0
   12.3516  -20.2290   22.6132 C   0  0  0  0  0  0  0  0  0  0  0  0
   12.1335  -20.7093   21.2428 C   0  0  0  0  0  0  0  0  0  0  0  0
   11.2527  -21.5436   20.9140 O   0  0  0  0  0  0  0  0  0  0  0  0
   11.5961  -18.6773   24.3513 C   0  0  0  0  0  0  0  0  0  0  0  0
   12.1259  -17.5380   24.3951 O   0  0  0  0  0  0  0  0  0  0  0  0
   12.9256  -20.2495   20.1708 O   0  0  0  0  0  0  0  0  0  0  0  0
   11.3297  -19.3365   25.5788 N   0  0  0  0  0  0  0  0  0  0  0  0
   11.6027  -18.7584   26.8683 C   0  0  0  0  0  0  0  0  0  0  0  0
   11.3776  -19.7111   27.9775 C   0  0  0  0  0  0  0  0  0  0  0  0
   11.7499  -19.4857   29.2934 O   0  0  0  0  0  0  0  0  0  0  0  0
   10.8107  -20.8029   27.7206 O   0  0  0  0  0  0  0  0  0  0  0  0
  2  8  1  0
  2  1  1  6
  3  2  1  0
  4  3  1  0
  5  4  1  0
  6  7  1  0
  6  5  1  0
  8  9  2  0
 10  8  1  0
 10 11  1  0
 11 12  1  6
 13 17  1  0
 13 12  1  0
 14 13  2  0
 15 18  1  0
 15 11  1  0
 16 15  2  0
 19 18  1  0
 20 19  1  0
 21 20  1  0
 22 20  2  0
M  END
$$$$
