KDG.pdb
     RDKit          3D

 22 21  0  0  1  0  0  0  0  0999 V2000
    6.4104  -19.3834   21.4722 N   0  0  0  0  0  0  0  0  0  0  0  0
    5.9780  -18.1523   22.1489 C   0  0  1  0  0  0  0  0  0  0  0  0
    4.9780  -18.5572   23.1947 C   0  0  0  0  0  0  0  0  0  0  0  0
    3.9616  -19.5429   22.7227 C   0  0  0  0  0  0  0  0  0  0  0  0
    2.7548  -18.8924   22.0924 C   0  0  0  0  0  0  0  0  0  0  0  0
    1.8012  -19.9509   21.6167 C   0  0  0  0  0  0  0  0  0  0  0  0
    0.6203  -19.3924   20.9932 N   0  0  0  0  0  0  0  0  0  0  0  0
    7.1851  -17.6142   22.8211 C   0  0  0  0  0  0  0  0  0  0  0  0
    7.4890  -18.0361   23.9566 O   0  0  0  0  0  0  0  0  0  0  0  0
    8.0323  -16.6383   22.2559 N   0  0  0  0  0  0  0  0  0  0  0  0
    9.1492  -16.1232   22.9600 C   0  0  1  0  0  0  0  0  0  0  0  0
    9.9651  -15.1145   22.2228 C   0  0  0  0  0  0  0  0  0  0  0  0
   10.6359  -15.7118   21.0611 C   0  0  0  0  0  0  0  0  0  0  0  0
   11.1499  -16.8588   21.0494 O   0  0  0  0  0  0  0  0  0  0  0  0
    8.7427  -15.5994   24.2892 C   0  0  0  0  0  0  0  0  0  0  0  0
    7.7938  -14.7812   24.3924 O   0  0  0  0  0  0  0  0  0  0  0  0
   10.7504  -15.0127   19.8419 O   0  0  0  0  0  0  0  0  0  0  0  0
    9.4071  -16.0033   25.4757 N   0  0  0  0  0  0  0  0  0  0  0  0
    9.0961  -15.4793   26.7796 C   0  0  0  0  0  0  0  0  0  0  0  0
   10.0172  -15.9751   27.8258 C   0  0  0  0  0  0  0  0  0  0  0  0
    9.9569  -15.6102   29.1616 O   0  0  0  0  0  0  0  0  0  0  0  0
   10.9202  -16.7829   27.4919 O   0  0  0  0  0  0  0  0  0  0  0  0
  2  8  1  0
  2  1  1  1
  3  2  1  0
  4  3  1  0
  5  4  1  0
  6  7  1  0
  6  5  1  0
  8  9  2  0
 10  8  1  0
 10 11  1  0
 11 12  1  6
 13 17  1  0
 13 12  1  0
 14 13  2  0
 15 18  1  0
 15 11  1  0
 16 15  2  0
 19 18  1  0
 20 19  1  0
 21 20  1  0
 22 20  2  0
M  END
$$$$
