KDG.pdb
     RDKit          3D

 22 21  0  0  1  0  0  0  0  0999 V2000
   13.9427  -17.0866   13.0852 N   0  0  0  0  0  0  0  0  0  0  0  0
   13.9465  -15.8218   13.8343 C   0  0  1  0  0  0  0  0  0  0  0  0
   12.5114  -15.4775   14.1167 C   0  0  0  0  0  0  0  0  0  0  0  0
   11.6271  -16.6607   14.3304 C   0  0  0  0  0  0  0  0  0  0  0  0
   10.1795  -16.2878   14.5359 C   0  0  0  0  0  0  0  0  0  0  0  0
    9.3653  -17.5296   14.7620 C   0  0  0  0  0  0  0  0  0  0  0  0
    7.9639  -17.2406   14.9806 N   0  0  0  0  0  0  0  0  0  0  0  0
   14.6322  -16.1124   15.1163 C   0  0  0  0  0  0  0  0  0  0  0  0
   14.5839  -17.2694   15.5843 O   0  0  0  0  0  0  0  0  0  0  0  0
   15.3507  -15.1533   15.8604 N   0  0  0  0  0  0  0  0  0  0  0  0
   16.0232  -15.4926   17.0608 C   0  0  1  0  0  0  0  0  0  0  0  0
   16.9993  -14.4802   17.5597 C   0  0  0  0  0  0  0  0  0  0  0  0
   17.9877  -14.1344   16.5302 C   0  0  0  0  0  0  0  0  0  0  0  0
   18.4184  -12.9725   16.3205 O   0  0  0  0  0  0  0  0  0  0  0  0
   15.0548  -15.8576   18.1263 C   0  0  0  0  0  0  0  0  0  0  0  0
   14.0407  -15.1463   18.3414 O   0  0  0  0  0  0  0  0  0  0  0  0
   18.5358  -15.1180   15.6815 O   0  0  0  0  0  0  0  0  0  0  0  0
   15.2419  -17.0122   18.9290 N   0  0  0  0  0  0  0  0  0  0  0  0
   14.3017  -17.4480   19.9278 C   0  0  0  0  0  0  0  0  0  0  0  0
   14.7486  -18.6682   20.6351 C   0  0  0  0  0  0  0  0  0  0  0  0
   15.9070  -19.3683   20.3369 O   0  0  0  0  0  0  0  0  0  0  0  0
   14.0369  -19.1091   21.5723 O   0  0  0  0  0  0  0  0  0  0  0  0
  2  8  1  0
  2  1  1  6
  3  2  1  0
  4  3  1  0
  5  4  1  0
  6  7  1  0
  6  5  1  0
  8  9  2  0
 10  8  1  0
 10 11  1  0
 11 12  1  1
 13 17  1  0
 13 12  1  0
 14 13  2  0
 15 18  1  0
 15 11  1  0
 16 15  2  0
 19 18  1  0
 20 19  1  0
 21 20  1  0
 22 20  2  0
M  END
$$$$
