KDG.pdb
     RDKit          3D

 22 21  0  0  1  0  0  0  0  0999 V2000
    8.8355  -17.4797   19.5923 N   0  0  0  0  0  0  0  0  0  0  0  0
   10.0682  -16.7409   19.2834 C   0  0  1  0  0  0  0  0  0  0  0  0
    9.7637  -15.2826   19.4788 C   0  0  0  0  0  0  0  0  0  0  0  0
    8.3196  -14.9329   19.3370 C   0  0  0  0  0  0  0  0  0  0  0  0
    8.0207  -13.4978   19.6949 C   0  0  0  0  0  0  0  0  0  0  0  0
    6.5497  -13.2352   19.5421 C   0  0  0  0  0  0  0  0  0  0  0  0
    6.2052  -11.8520   19.7939 N   0  0  0  0  0  0  0  0  0  0  0  0
   11.0603  -17.1652   20.3002 C   0  0  0  0  0  0  0  0  0  0  0  0
   11.2154  -18.3832   20.5288 O   0  0  0  0  0  0  0  0  0  0  0  0
   11.8584  -16.2705   21.0433 N   0  0  0  0  0  0  0  0  0  0  0  0
   12.8666  -16.7294   21.9274 C   0  0  1  0  0  0  0  0  0  0  0  0
   14.1108  -15.9066   21.9669 C   0  0  0  0  0  0  0  0  0  0  0  0
   14.7502  -15.8361   20.6469 C   0  0  0  0  0  0  0  0  0  0  0  0
   14.9566  -16.8283   19.9035 O   0  0  0  0  0  0  0  0  0  0  0  0
   12.3231  -16.9253   23.2958 C   0  0  0  0  0  0  0  0  0  0  0  0
   13.0267  -17.4508   24.1954 O   0  0  0  0  0  0  0  0  0  0  0  0
   15.1888  -14.6082   20.1102 O   0  0  0  0  0  0  0  0  0  0  0  0
   11.0025  -16.5283   23.6286 N   0  0  0  0  0  0  0  0  0  0  0  0
   10.3928  -16.7846   24.9070 C   0  0  0  0  0  0  0  0  0  0  0  0
   11.3891  -16.9732   25.9842 C   0  0  0  0  0  0  0  0  0  0  0  0
   11.1979  -16.5975   27.3046 O   0  0  0  0  0  0  0  0  0  0  0  0
   12.4878  -17.5098   25.6937 O   0  0  0  0  0  0  0  0  0  0  0  0
  2  8  1  0
  2  1  1  1
  3  2  1  0
  4  3  1  0
  5  4  1  0
  6  7  1  0
  6  5  1  0
  8  9  2  0
 10  8  1  0
 10 11  1  0
 11 12  1  1
 13 17  1  0
 13 12  1  0
 14 13  2  0
 15 18  1  0
 15 11  1  0
 16 15  2  0
 19 18  1  0
 20 19  1  0
 21 20  1  0
 22 20  2  0
M  END
$$$$
