KDG.pdb
     RDKit          3D

 22 21  0  0  1  0  0  0  0  0999 V2000
    6.4685  -17.6807   21.2307 N   0  0  0  0  0  0  0  0  0  0  0  0
    7.4553  -16.5926   21.1770 C   0  0  1  0  0  0  0  0  0  0  0  0
    6.7704  -15.3567   21.6882 C   0  0  0  0  0  0  0  0  0  0  0  0
    7.5574  -14.1010   21.5105 C   0  0  0  0  0  0  0  0  0  0  0  0
    7.7864  -13.7465   20.0618 C   0  0  0  0  0  0  0  0  0  0  0  0
    8.5833  -12.4764   19.9726 C   0  0  0  0  0  0  0  0  0  0  0  0
    8.7864  -12.0452   18.6058 N   0  0  0  0  0  0  0  0  0  0  0  0
    8.5301  -16.9733   22.1247 C   0  0  0  0  0  0  0  0  0  0  0  0
    8.2264  -17.5490   23.1907 O   0  0  0  0  0  0  0  0  0  0  0  0
    9.9007  -16.7255   21.9021 N   0  0  0  0  0  0  0  0  0  0  0  0
   10.8925  -17.1417   22.8249 C   0  0  1  0  0  0  0  0  0  0  0  0
   12.3042  -16.9704   22.3729 C   0  0  0  0  0  0  0  0  0  0  0  0
   13.2477  -17.5910   23.3115 C   0  0  0  0  0  0  0  0  0  0  0  0
   13.7306  -17.0147   24.3188 O   0  0  0  0  0  0  0  0  0  0  0  0
   10.6847  -16.5040   24.1503 C   0  0  0  0  0  0  0  0  0  0  0  0
   10.4318  -15.2757   24.2376 O   0  0  0  0  0  0  0  0  0  0  0  0
   13.6876  -18.9192   23.1370 O   0  0  0  0  0  0  0  0  0  0  0  0
   10.7642  -17.2556   25.3509 N   0  0  0  0  0  0  0  0  0  0  0  0
   10.5408  -16.6944   26.6573 C   0  0  0  0  0  0  0  0  0  0  0  0
   10.8170  -17.6586   27.7448 C   0  0  0  0  0  0  0  0  0  0  0  0
   10.7216  -17.3658   29.0962 O   0  0  0  0  0  0  0  0  0  0  0  0
   11.1626  -18.8262   27.4337 O   0  0  0  0  0  0  0  0  0  0  0  0
  2  8  1  0
  2  1  1  1
  3  2  1  0
  4  3  1  0
  5  4  1  0
  6  7  1  0
  6  5  1  0
  8  9  2  0
 10  8  1  0
 10 11  1  0
 11 12  1  6
 13 17  1  0
 13 12  1  0
 14 13  2  0
 15 18  1  0
 15 11  1  0
 16 15  2  0
 19 18  1  0
 20 19  1  0
 21 20  1  0
 22 20  2  0
M  END
$$$$
