KDG.pdb
     RDKit          3D

 22 21  0  0  1  0  0  0  0  0999 V2000
   -1.7035  -21.3499   18.4659 N   0  0  0  0  0  0  0  0  0  0  0  0
   -0.5085  -20.8004   17.8098 C   0  0  1  0  0  0  0  0  0  0  0  0
   -0.8031  -19.3594   17.5024 C   0  0  0  0  0  0  0  0  0  0  0  0
   -1.9521  -19.1528   16.5725 C   0  0  0  0  0  0  0  0  0  0  0  0
   -2.1574  -17.7055   16.1984 C   0  0  0  0  0  0  0  0  0  0  0  0
   -3.3222  -17.5874   15.2574 C   0  0  0  0  0  0  0  0  0  0  0  0
   -3.4829  -16.2447   14.7412 N   0  0  0  0  0  0  0  0  0  0  0  0
    0.5743  -20.8646   18.8205 C   0  0  0  0  0  0  0  0  0  0  0  0
    0.2776  -20.8385   20.0335 O   0  0  0  0  0  0  0  0  0  0  0  0
    1.9453  -20.9550   18.5015 N   0  0  0  0  0  0  0  0  0  0  0  0
    2.9386  -21.0629   19.5066 C   0  0  1  0  0  0  0  0  0  0  0  0
    4.0497  -22.0149   19.2134 C   0  0  0  0  0  0  0  0  0  0  0  0
    3.6314  -23.4076   19.4174 C   0  0  0  0  0  0  0  0  0  0  0  0
    2.9484  -23.8088   20.3933 O   0  0  0  0  0  0  0  0  0  0  0  0
    3.4747  -19.7257   19.8682 C   0  0  0  0  0  0  0  0  0  0  0  0
    3.4360  -18.7761   19.0453 O   0  0  0  0  0  0  0  0  0  0  0  0
    3.9813  -24.4193   18.4996 O   0  0  0  0  0  0  0  0  0  0  0  0
    4.0430  -19.4795   21.1445 N   0  0  0  0  0  0  0  0  0  0  0  0
    4.5723  -18.2030   21.5471 C   0  0  0  0  0  0  0  0  0  0  0  0
    5.1161  -18.2217   22.9228 C   0  0  0  0  0  0  0  0  0  0  0  0
    5.7693  -17.1566   23.5230 O   0  0  0  0  0  0  0  0  0  0  0  0
    4.9824  -19.2698   23.6033 O   0  0  0  0  0  0  0  0  0  0  0  0
  2  8  1  0
  2  1  1  1
  3  2  1  0
  4  3  1  0
  5  4  1  0
  6  7  1  0
  6  5  1  0
  8  9  2  0
 10  8  1  0
 10 11  1  0
 11 12  1  6
 13 17  1  0
 13 12  1  0
 14 13  2  0
 15 18  1  0
 15 11  1  0
 16 15  2  0
 19 18  1  0
 20 19  1  0
 21 20  1  0
 22 20  2  0
M  END
$$$$
