KDG.pdb
     RDKit          3D

 22 21  0  0  1  0  0  0  0  0999 V2000
    6.8794  -16.6667   25.6015 N   0  0  0  0  0  0  0  0  0  0  0  0
    7.2635  -15.7169   24.5475 C   0  0  1  0  0  0  0  0  0  0  0  0
    7.6379  -14.4329   25.2324 C   0  0  0  0  0  0  0  0  0  0  0  0
    6.4801  -13.6763   25.7932 C   0  0  0  0  0  0  0  0  0  0  0  0
    6.8692  -12.3316   26.3564 C   0  0  0  0  0  0  0  0  0  0  0  0
    5.6406  -11.6063   26.8263 C   0  0  0  0  0  0  0  0  0  0  0  0
    5.9571  -10.4012   27.5632 N   0  0  0  0  0  0  0  0  0  0  0  0
    8.4715  -16.2897   23.9066 C   0  0  0  0  0  0  0  0  0  0  0  0
    9.2141  -17.0431   24.5706 O   0  0  0  0  0  0  0  0  0  0  0  0
    8.8490  -16.0380   22.5710 N   0  0  0  0  0  0  0  0  0  0  0  0
    9.9774  -16.6641   21.9851 C   0  0  1  0  0  0  0  0  0  0  0  0
   10.0028  -16.6784   20.4932 C   0  0  0  0  0  0  0  0  0  0  0  0
    8.8054  -17.3255   19.9420 C   0  0  0  0  0  0  0  0  0  0  0  0
    8.6465  -18.5692   19.8543 O   0  0  0  0  0  0  0  0  0  0  0  0
   11.2391  -16.0968   22.5261 C   0  0  0  0  0  0  0  0  0  0  0  0
   11.6635  -14.9827   22.1271 O   0  0  0  0  0  0  0  0  0  0  0  0
    7.7195  -16.5668   19.4590 O   0  0  0  0  0  0  0  0  0  0  0  0
   11.9996  -16.7890   23.5033 N   0  0  0  0  0  0  0  0  0  0  0  0
   13.2843  -17.3815   23.2391 C   0  0  0  0  0  0  0  0  0  0  0  0
   14.3740  -16.3817   23.1998 C   0  0  0  0  0  0  0  0  0  0  0  0
   14.7608  -15.6867   22.0647 O   0  0  0  0  0  0  0  0  0  0  0  0
   14.9987  -16.1376   24.2626 O   0  0  0  0  0  0  0  0  0  0  0  0
  2  8  1  0
  2  1  1  1
  3  2  1  0
  4  3  1  0
  5  4  1  0
  6  7  1  0
  6  5  1  0
  8  9  2  0
 10  8  1  0
 10 11  1  0
 11 12  1  6
 13 17  1  0
 13 12  1  0
 14 13  2  0
 15 18  1  0
 15 11  1  0
 16 15  2  0
 19 18  1  0
 20 19  1  0
 21 20  1  0
 22 20  2  0
M  END
$$$$
