EGN.pdb
     RDKit          3D

 22 21  0  0  1  0  0  0  0  0999 V2000
    4.4439  -19.5044   19.5973 N   0  0  0  0  0  0  0  0  0  0  0  0
    3.4447  -18.5368   20.0277 C   0  0  1  0  0  0  0  0  0  0  0  0
    2.4938  -19.2653   20.9107 C   0  0  0  0  0  0  0  0  0  0  0  0
    3.0135  -20.5544   21.4636 C   0  0  0  0  0  0  0  0  0  0  0  0
    1.9370  -21.2270   22.2616 C   0  0  0  0  0  0  0  0  0  0  0  0
    2.2067  -22.2747   22.9154 O   0  0  0  0  0  0  0  0  0  0  0  0
    4.0594  -17.3320   20.6047 C   0  0  0  0  0  0  0  0  0  0  0  0
    3.4537  -16.5330   21.3619 O   0  0  0  0  0  0  0  0  0  0  0  0
    0.6657  -20.6784   22.2613 O   0  0  0  0  0  0  0  0  0  0  0  0
    5.4330  -16.9697   20.3388 N   0  0  0  0  0  0  0  0  0  0  0  0
    6.0432  -15.8091   20.9058 C   0  0  0  0  0  0  0  0  0  0  0  0
    6.6687  -16.0376   22.2133 C   0  0  0  0  0  0  0  0  0  0  0  0
    7.3522  -15.1783   22.8257 O   0  0  0  0  0  0  0  0  0  0  0  0
    8.3540  -18.3490   26.6267 N   0  0  0  0  0  0  0  0  0  0  0  0
    6.9970  -18.0143   26.5055 C   0  0  0  0  0  0  0  0  0  0  0  0
    6.3128  -18.0153   27.5735 O   0  0  0  0  0  0  0  0  0  0  0  0
    6.3345  -17.6718   25.2562 C   0  0  0  0  0  0  0  0  0  0  0  0
    7.1841  -17.7017   24.0274 C   0  0  2  0  0  0  0  0  0  0  0  0
    6.4986  -17.3046   22.8361 N   0  0  0  0  0  0  0  0  0  0  0  0
    7.8005  -19.0439   23.9095 C   0  0  0  0  0  0  0  0  0  0  0  0
    8.6520  -19.5611   24.8661 O   0  0  0  0  0  0  0  0  0  0  0  0
    7.5321  -19.7307   22.8963 O   0  0  0  0  0  0  0  0  0  0  0  0
  2  1  1  1
  3  4  1  0
  3  2  1  0
  5  6  2  0
  5  4  1  0
  7  2  1  0
  7  8  2  0
  9  5  1  0
 10  7  1  0
 11 10  1  0
 11 12  1  0
 12 19  1  0
 13 12  2  0
 15 14  1  0
 16 15  2  0
 17 15  1  0
 18 20  1  0
 18 17  1  1
 19 18  1  0
 20 21  1  0
 22 20  2  0
M  END
$$$$
