EGN.pdb
     RDKit          3D

 22 21  0  0  1  0  0  0  0  0999 V2000
    0.3578  -25.3664   25.6742 N   0  0  0  0  0  0  0  0  0  0  0  0
   -0.5343  -25.3417   24.5239 C   0  0  1  0  0  0  0  0  0  0  0  0
   -1.6608  -24.4342   24.8734 C   0  0  0  0  0  0  0  0  0  0  0  0
   -1.2607  -23.0240   25.1712 C   0  0  0  0  0  0  0  0  0  0  0  0
   -2.2048  -22.0808   24.4878 C   0  0  0  0  0  0  0  0  0  0  0  0
   -1.9676  -20.8393   24.5038 O   0  0  0  0  0  0  0  0  0  0  0  0
    0.1821  -25.0231   23.2798 C   0  0  0  0  0  0  0  0  0  0  0  0
   -0.3787  -24.9032   22.1619 O   0  0  0  0  0  0  0  0  0  0  0  0
   -3.3206  -22.5987   23.8522 O   0  0  0  0  0  0  0  0  0  0  0  0
    1.6127  -24.8203   23.2493 N   0  0  0  0  0  0  0  0  0  0  0  0
    2.3181  -24.5151   22.0451 C   0  0  0  0  0  0  0  0  0  0  0  0
    2.4295  -23.0797   21.7619 C   0  0  0  0  0  0  0  0  0  0  0  0
    2.4395  -22.5900   20.6040 O   0  0  0  0  0  0  0  0  0  0  0  0
    0.3167  -20.1188   21.2370 N   0  0  0  0  0  0  0  0  0  0  0  0
    0.5330  -19.6337   22.5355 C   0  0  0  0  0  0  0  0  0  0  0  0
   -0.3739  -18.8948   23.0257 O   0  0  0  0  0  0  0  0  0  0  0  0
    1.7094  -19.9180   23.3430 C   0  0  0  0  0  0  0  0  0  0  0  0
    2.7576  -20.7720   22.7067 C   0  0  2  0  0  0  0  0  0  0  0  0
    2.5331  -22.1769   22.8558 N   0  0  0  0  0  0  0  0  0  0  0  0
    4.0847  -20.3501   23.2129 C   0  0  0  0  0  0  0  0  0  0  0  0
    4.7223  -19.2064   22.7737 O   0  0  0  0  0  0  0  0  0  0  0  0
    4.6437  -21.0674   24.0751 O   0  0  0  0  0  0  0  0  0  0  0  0
  2  1  1  1
  3  4  1  0
  3  2  1  0
  5  6  2  0
  5  4  1  0
  7  2  1  0
  7  8  2  0
  9  5  1  0
 10  7  1  0
 11 10  1  0
 11 12  1  0
 12 19  1  0
 13 12  2  0
 15 14  1  0
 16 15  2  0
 17 15  1  0
 18 20  1  0
 18 17  1  1
 19 18  1  0
 20 21  1  0
 22 20  2  0
M  END
$$$$
