EGN.pdb
     RDKit          3D

 22 21  0  0  1  0  0  0  0  0999 V2000
    9.2134  -16.0084   19.1435 N   0  0  0  0  0  0  0  0  0  0  0  0
    8.5598  -17.0172   19.9650 C   0  0  1  0  0  0  0  0  0  0  0  0
    9.6098  -17.9943   20.3618 C   0  0  0  0  0  0  0  0  0  0  0  0
   10.8390  -17.3859   20.9589 C   0  0  0  0  0  0  0  0  0  0  0  0
   11.1451  -18.0553   22.2651 C   0  0  0  0  0  0  0  0  0  0  0  0
   11.2021  -17.3647   23.3224 O   0  0  0  0  0  0  0  0  0  0  0  0
    7.7948  -16.4164   21.0678 C   0  0  0  0  0  0  0  0  0  0  0  0
    7.1008  -17.0791   21.8789 O   0  0  0  0  0  0  0  0  0  0  0  0
   11.3588  -19.4233   22.2791 O   0  0  0  0  0  0  0  0  0  0  0  0
    7.7837  -14.9909   21.3059 N   0  0  0  0  0  0  0  0  0  0  0  0
    7.0632  -14.4002   22.3888 C   0  0  0  0  0  0  0  0  0  0  0  0
    7.8474  -14.2477   23.6195 C   0  0  0  0  0  0  0  0  0  0  0  0
    9.0940  -14.3982   23.6823 O   0  0  0  0  0  0  0  0  0  0  0  0
    6.7998  -10.9533   25.5566 N   0  0  0  0  0  0  0  0  0  0  0  0
    6.4154  -11.6833   26.6913 C   0  0  0  0  0  0  0  0  0  0  0  0
    5.5140  -11.1693   27.4205 O   0  0  0  0  0  0  0  0  0  0  0  0
    6.9736  -12.9696   27.0796 C   0  0  0  0  0  0  0  0  0  0  0  0
    7.8298  -13.6528   26.0632 C   0  0  2  0  0  0  0  0  0  0  0  0
    7.1671  -13.9090   24.8215 N   0  0  0  0  0  0  0  0  0  0  0  0
    8.3982  -14.8796   26.6694 C   0  0  0  0  0  0  0  0  0  0  0  0
    8.0805  -16.1481   26.2249 O   0  0  0  0  0  0  0  0  0  0  0  0
    9.1994  -14.7505   27.6242 O   0  0  0  0  0  0  0  0  0  0  0  0
  2  1  1  1
  3  4  1  0
  3  2  1  0
  5  6  2  0
  5  4  1  0
  7  2  1  0
  7  8  2  0
  9  5  1  0
 10  7  1  0
 11 10  1  0
 11 12  1  0
 12 19  1  0
 13 12  2  0
 15 14  1  0
 16 15  2  0
 17 15  1  0
 18 20  1  0
 18 17  1  1
 19 18  1  0
 20 21  1  0
 22 20  2  0
M  END
$$$$
