EGN.pdb
     RDKit          3D

 22 21  0  0  1  0  0  0  0  0999 V2000
    9.2223  -19.2874   20.8493 N   0  0  0  0  0  0  0  0  0  0  0  0
    9.8524  -17.9795   20.9593 C   0  0  1  0  0  0  0  0  0  0  0  0
   10.2204  -17.5625   19.5790 C   0  0  0  0  0  0  0  0  0  0  0  0
    9.7400  -18.4782   18.4983 C   0  0  0  0  0  0  0  0  0  0  0  0
   10.1019  -17.9066   17.1602 C   0  0  0  0  0  0  0  0  0  0  0  0
    9.2121  -17.3446   16.4600 O   0  0  0  0  0  0  0  0  0  0  0  0
    9.0204  -17.0306   21.7143 C   0  0  0  0  0  0  0  0  0  0  0  0
    9.4485  -15.9473   22.1853 O   0  0  0  0  0  0  0  0  0  0  0  0
   11.4117  -18.0103   16.7233 O   0  0  0  0  0  0  0  0  0  0  0  0
    7.6208  -17.2780   21.9763 N   0  0  0  0  0  0  0  0  0  0  0  0
    6.8024  -16.3585   22.7012 C   0  0  0  0  0  0  0  0  0  0  0  0
    6.7246  -16.6300   24.1411 C   0  0  0  0  0  0  0  0  0  0  0  0
    5.9499  -16.0303   24.9290 O   0  0  0  0  0  0  0  0  0  0  0  0
    7.5769  -19.1955   28.7444 N   0  0  0  0  0  0  0  0  0  0  0  0
    6.9881  -19.8712   27.6650 C   0  0  0  0  0  0  0  0  0  0  0  0
    6.4614  -20.9971   27.9172 O   0  0  0  0  0  0  0  0  0  0  0  0
    6.9428  -19.3733   26.2987 C   0  0  0  0  0  0  0  0  0  0  0  0
    7.5453  -18.0259   26.0656 C   0  0  2  0  0  0  0  0  0  0  0  0
    7.5725  -17.6305   24.6910 N   0  0  0  0  0  0  0  0  0  0  0  0
    8.8861  -17.9906   26.6952 C   0  0  0  0  0  0  0  0  0  0  0  0
    9.0674  -17.9448   28.0636 O   0  0  0  0  0  0  0  0  0  0  0  0
    9.8911  -18.0032   25.9467 O   0  0  0  0  0  0  0  0  0  0  0  0
  2  1  1  6
  3  4  1  0
  3  2  1  0
  5  6  2  0
  5  4  1  0
  7  2  1  0
  7  8  2  0
  9  5  1  0
 10  7  1  0
 11 10  1  0
 11 12  1  0
 12 19  1  0
 13 12  2  0
 15 14  1  0
 16 15  2  0
 17 15  1  0
 18 20  1  0
 18 17  1  6
 19 18  1  0
 20 21  1  0
 22 20  2  0
M  END
$$$$
