EGN.pdb
     RDKit          3D

 22 21  0  0  1  0  0  0  0  0999 V2000
    9.1452  -17.3717   19.2635 N   0  0  0  0  0  0  0  0  0  0  0  0
    7.7814  -17.0699   18.8528 C   0  0  1  0  0  0  0  0  0  0  0  0
    7.0407  -18.3606   18.8414 C   0  0  0  0  0  0  0  0  0  0  0  0
    6.4991  -18.7608   17.5057 C   0  0  0  0  0  0  0  0  0  0  0  0
    6.2757  -20.2432   17.4798 C   0  0  0  0  0  0  0  0  0  0  0  0
    6.6320  -20.9457   18.4685 O   0  0  0  0  0  0  0  0  0  0  0  0
    7.1874  -15.9980   19.6656 C   0  0  0  0  0  0  0  0  0  0  0  0
    6.4813  -15.0725   19.1929 O   0  0  0  0  0  0  0  0  0  0  0  0
    5.6802  -20.8081   16.3647 O   0  0  0  0  0  0  0  0  0  0  0  0
    7.3750  -15.9276   21.0969 N   0  0  0  0  0  0  0  0  0  0  0  0
    6.7803  -14.9055   21.8986 C   0  0  0  0  0  0  0  0  0  0  0  0
    7.0816  -15.0140   23.3305 C   0  0  0  0  0  0  0  0  0  0  0  0
    6.6582  -14.2118   24.2010 O   0  0  0  0  0  0  0  0  0  0  0  0
    5.6961  -17.2817   25.1085 N   0  0  0  0  0  0  0  0  0  0  0  0
    6.7566  -17.9833   25.7011 C   0  0  0  0  0  0  0  0  0  0  0  0
    6.4757  -19.1038   26.2248 O   0  0  0  0  0  0  0  0  0  0  0  0
    8.1341  -17.5178   25.7532 C   0  0  0  0  0  0  0  0  0  0  0  0
    8.4118  -16.2004   25.1050 C   0  0  2  0  0  0  0  0  0  0  0  0
    7.9018  -16.0882   23.7731 N   0  0  0  0  0  0  0  0  0  0  0  0
    9.8668  -15.9311   25.1825 C   0  0  0  0  0  0  0  0  0  0  0  0
   10.6633  -15.8042   24.0613 O   0  0  0  0  0  0  0  0  0  0  0  0
   10.3869  -15.8152   26.3166 O   0  0  0  0  0  0  0  0  0  0  0  0
  2  1  1  1
  3  4  1  0
  3  2  1  0
  5  6  2  0
  5  4  1  0
  7  2  1  0
  7  8  2  0
  9  5  1  0
 10  7  1  0
 11 10  1  0
 11 12  1  0
 12 19  1  0
 13 12  2  0
 15 14  1  0
 16 15  2  0
 17 15  1  0
 18 20  1  0
 18 17  1  6
 19 18  1  0
 20 21  1  0
 22 20  2  0
M  END
$$$$
