EGN.pdb
     RDKit          3D

 22 21  0  0  1  0  0  0  0  0999 V2000
    9.0537  -15.2820   20.3054 N   0  0  0  0  0  0  0  0  0  0  0  0
    8.5013  -14.1576   21.0471 C   0  0  1  0  0  0  0  0  0  0  0  0
    8.1201  -13.1268   20.0436 C   0  0  0  0  0  0  0  0  0  0  0  0
    7.3433  -13.6459   18.8755 C   0  0  0  0  0  0  0  0  0  0  0  0
    8.2667  -13.8539   17.7128 C   0  0  0  0  0  0  0  0  0  0  0  0
    9.3960  -13.2859   17.7029 O   0  0  0  0  0  0  0  0  0  0  0  0
    7.4359  -14.5779   21.9694 C   0  0  0  0  0  0  0  0  0  0  0  0
    6.8541  -13.7997   22.7659 O   0  0  0  0  0  0  0  0  0  0  0  0
    7.8550  -14.6693   16.6721 O   0  0  0  0  0  0  0  0  0  0  0  0
    6.9692  -15.9445   22.0299 N   0  0  0  0  0  0  0  0  0  0  0  0
    5.9769  -16.3750   22.9630 C   0  0  0  0  0  0  0  0  0  0  0  0
    6.4928  -16.6315   24.3125 C   0  0  0  0  0  0  0  0  0  0  0  0
    5.7967  -17.0818   25.2577 O   0  0  0  0  0  0  0  0  0  0  0  0
   10.2830  -18.8800   27.1667 N   0  0  0  0  0  0  0  0  0  0  0  0
    9.7691  -19.3149   25.9359 C   0  0  0  0  0  0  0  0  0  0  0  0
   10.0646  -20.4962   25.5811 O   0  0  0  0  0  0  0  0  0  0  0  0
    8.9335  -18.5133   25.0550 C   0  0  0  0  0  0  0  0  0  0  0  0
    8.6577  -17.1132   25.4985 C   0  0  2  0  0  0  0  0  0  0  0  0
    7.8624  -16.3579   24.5801 N   0  0  0  0  0  0  0  0  0  0  0  0
    9.9463  -16.4529   25.8131 C   0  0  0  0  0  0  0  0  0  0  0  0
   10.3626  -15.2929   25.1896 O   0  0  0  0  0  0  0  0  0  0  0  0
   10.6819  -16.9762   26.6822 O   0  0  0  0  0  0  0  0  0  0  0  0
  2  1  1  6
  3  4  1  0
  3  2  1  0
  5  6  2  0
  5  4  1  0
  7  2  1  0
  7  8  2  0
  9  5  1  0
 10  7  1  0
 11 10  1  0
 11 12  1  0
 12 19  1  0
 13 12  2  0
 15 14  1  0
 16 15  2  0
 17 15  1  0
 18 20  1  0
 18 17  1  6
 19 18  1  0
 20 21  1  0
 22 20  2  0
M  END
$$$$
