EGN.pdb
     RDKit          3D

 22 21  0  0  1  0  0  0  0  0999 V2000
   12.4690  -17.2764   15.4881 N   0  0  0  0  0  0  0  0  0  0  0  0
   13.6037  -16.3670   15.4151 C   0  0  1  0  0  0  0  0  0  0  0  0
   13.5603  -15.7332   14.0693 C   0  0  0  0  0  0  0  0  0  0  0  0
   14.5072  -16.3182   13.0700 C   0  0  0  0  0  0  0  0  0  0  0  0
   14.3648  -15.5967   11.7634 C   0  0  0  0  0  0  0  0  0  0  0  0
   13.4473  -15.9327   10.9613 O   0  0  0  0  0  0  0  0  0  0  0  0
   13.6406  -15.4418   16.5575 C   0  0  0  0  0  0  0  0  0  0  0  0
   14.5632  -14.6121   16.7550 O   0  0  0  0  0  0  0  0  0  0  0  0
   15.2491  -14.5731   11.4674 O   0  0  0  0  0  0  0  0  0  0  0  0
   12.5981  -15.4172   17.5582 N   0  0  0  0  0  0  0  0  0  0  0  0
   12.6923  -14.6260   18.7439 C   0  0  0  0  0  0  0  0  0  0  0  0
   13.5207  -15.2211   19.7987 C   0  0  0  0  0  0  0  0  0  0  0  0
   14.6841  -15.6609   19.6152 O   0  0  0  0  0  0  0  0  0  0  0  0
   13.1059  -16.6232   25.9109 N   0  0  0  0  0  0  0  0  0  0  0  0
   13.6845  -16.2060   24.7029 C   0  0  0  0  0  0  0  0  0  0  0  0
   14.9513  -16.1550   24.6661 O   0  0  0  0  0  0  0  0  0  0  0  0
   12.9393  -15.8346   23.5097 C   0  0  0  0  0  0  0  0  0  0  0  0
   13.6904  -15.8843   22.2189 C   0  0  2  0  0  0  0  0  0  0  0  0
   12.9859  -15.3115   21.1133 N   0  0  0  0  0  0  0  0  0  0  0  0
   14.1065  -17.2837   21.9659 C   0  0  0  0  0  0  0  0  0  0  0  0
   13.2136  -18.2753   21.6096 O   0  0  0  0  0  0  0  0  0  0  0  0
   15.3210  -17.5694   22.0826 O   0  0  0  0  0  0  0  0  0  0  0  0
  2  1  1  1
  3  4  1  0
  3  2  1  0
  5  6  2  0
  5  4  1  0
  7  2  1  0
  7  8  2  0
  9  5  1  0
 10  7  1  0
 11 10  1  0
 11 12  1  0
 12 19  1  0
 13 12  2  0
 15 14  1  0
 16 15  2  0
 17 15  1  0
 18 20  1  0
 18 17  1  1
 19 18  1  0
 20 21  1  0
 22 20  2  0
M  END
$$$$
