EGN.pdb
     RDKit          3D

 22 21  0  0  1  0  0  0  0  0999 V2000
    8.2315  -12.6809   18.0966 N   0  0  0  0  0  0  0  0  0  0  0  0
    7.5977  -13.9782   17.9094 C   0  0  1  0  0  0  0  0  0  0  0  0
    7.2856  -14.0985   16.4593 C   0  0  0  0  0  0  0  0  0  0  0  0
    8.4761  -14.2997   15.5763 C   0  0  0  0  0  0  0  0  0  0  0  0
    8.0211  -14.5163   14.1642 C   0  0  0  0  0  0  0  0  0  0  0  0
    8.8577  -14.4385   13.2198 O   0  0  0  0  0  0  0  0  0  0  0  0
    8.3986  -15.0691   18.4845 C   0  0  0  0  0  0  0  0  0  0  0  0
    7.9866  -16.2499   18.6047 O   0  0  0  0  0  0  0  0  0  0  0  0
    6.6858  -14.7982   13.9300 O   0  0  0  0  0  0  0  0  0  0  0  0
    9.7460  -14.8605   18.9640 N   0  0  0  0  0  0  0  0  0  0  0  0
   10.5559  -15.9265   19.4625 C   0  0  0  0  0  0  0  0  0  0  0  0
   11.2101  -15.6353   20.7432 C   0  0  0  0  0  0  0  0  0  0  0  0
   11.2719  -14.4895   21.2569 O   0  0  0  0  0  0  0  0  0  0  0  0
   10.6167  -17.5283   26.1896 N   0  0  0  0  0  0  0  0  0  0  0  0
   11.5553  -17.3222   25.1675 C   0  0  0  0  0  0  0  0  0  0  0  0
   12.7397  -17.0482   25.5290 O   0  0  0  0  0  0  0  0  0  0  0  0
   11.2639  -17.4010   23.7442 C   0  0  0  0  0  0  0  0  0  0  0  0
   12.1744  -16.6359   22.8396 C   0  0  2  0  0  0  0  0  0  0  0  0
   11.8148  -16.7065   21.4567 N   0  0  0  0  0  0  0  0  0  0  0  0
   13.5680  -17.0732   23.0889 C   0  0  0  0  0  0  0  0  0  0  0  0
   14.3928  -16.4517   24.0060 O   0  0  0  0  0  0  0  0  0  0  0  0
   14.0073  -18.0483   22.4358 O   0  0  0  0  0  0  0  0  0  0  0  0
  2  1  1  6
  3  4  1  0
  3  2  1  0
  5  6  2  0
  5  4  1  0
  7  2  1  0
  7  8  2  0
  9  5  1  0
 10  7  1  0
 11 10  1  0
 11 12  1  0
 12 19  1  0
 13 12  2  0
 15 14  1  0
 16 15  2  0
 17 15  1  0
 18 20  1  0
 18 17  1  1
 19 18  1  0
 20 21  1  0
 22 20  2  0
M  END
$$$$
