EGN.pdb
     RDKit          3D

 22 21  0  0  1  0  0  0  0  0999 V2000
    7.2501  -12.8109   18.3634 N   0  0  0  0  0  0  0  0  0  0  0  0
    7.3765  -14.1044   19.0195 C   0  0  1  0  0  0  0  0  0  0  0  0
    7.4241  -15.1297   17.9420 C   0  0  0  0  0  0  0  0  0  0  0  0
    8.5835  -15.0018   17.0055 C   0  0  0  0  0  0  0  0  0  0  0  0
    8.5290  -16.1018   15.9881 C   0  0  0  0  0  0  0  0  0  0  0  0
    7.9765  -17.1995   16.2843 O   0  0  0  0  0  0  0  0  0  0  0  0
    8.4931  -14.1286   19.9760 C   0  0  0  0  0  0  0  0  0  0  0  0
    9.6864  -13.8910   19.6629 O   0  0  0  0  0  0  0  0  0  0  0  0
    9.0897  -15.8844   14.7408 O   0  0  0  0  0  0  0  0  0  0  0  0
    8.2976  -14.4335   21.3752 N   0  0  0  0  0  0  0  0  0  0  0  0
    9.3783  -14.4768   22.3085 C   0  0  0  0  0  0  0  0  0  0  0  0
   10.0737  -15.7678   22.3624 C   0  0  0  0  0  0  0  0  0  0  0  0
   10.5265  -16.3654   21.3533 O   0  0  0  0  0  0  0  0  0  0  0  0
   13.0026  -18.8701   21.1415 N   0  0  0  0  0  0  0  0  0  0  0  0
   12.7392  -18.8168   22.5184 C   0  0  0  0  0  0  0  0  0  0  0  0
   12.8621  -19.9017   23.1639 O   0  0  0  0  0  0  0  0  0  0  0  0
   12.3412  -17.6190   23.2421 C   0  0  0  0  0  0  0  0  0  0  0  0
   10.9607  -17.6202   23.8141 C   0  0  2  0  0  0  0  0  0  0  0  0
   10.2527  -16.3911   23.6280 N   0  0  0  0  0  0  0  0  0  0  0  0
   11.0377  -18.0234   25.2378 C   0  0  0  0  0  0  0  0  0  0  0  0
   11.4624  -19.2754   25.6373 O   0  0  0  0  0  0  0  0  0  0  0  0
   10.7014  -17.1868   26.1081 O   0  0  0  0  0  0  0  0  0  0  0  0
  2  1  1  6
  3  4  1  0
  3  2  1  0
  5  6  2  0
  5  4  1  0
  7  2  1  0
  7  8  2  0
  9  5  1  0
 10  7  1  0
 11 10  1  0
 11 12  1  0
 12 19  1  0
 13 12  2  0
 15 14  1  0
 16 15  2  0
 17 15  1  0
 18 20  1  0
 18 17  1  1
 19 18  1  0
 20 21  1  0
 22 20  2  0
M  END
$$$$
