TSV.pdb
     RDKit          3D

 21 20  0  0  1  0  0  0  0  0999 V2000
    7.8772  -15.1602   15.2993 C   0  0  0  0  0  0  0  0  0  0  0  0
    8.1866  -15.2674   16.7691 C   0  0  1  0  0  0  0  0  0  0  0  0
    9.5560  -15.2488   16.9569 O   0  0  0  0  0  0  0  0  0  0  0  0
    7.5296  -14.1622   17.5725 C   0  0  2  0  0  0  0  0  0  0  0  0
    8.0300  -12.8669   17.1706 N   0  0  0  0  0  0  0  0  0  0  0  0
    7.8518  -14.4411   19.0095 C   0  0  0  0  0  0  0  0  0  0  0  0
    8.9099  -13.9782   19.4861 O   0  0  0  0  0  0  0  0  0  0  0  0
    5.7548  -17.3585   21.2082 O   0  0  0  0  0  0  0  0  0  0  0  0
    6.1434  -16.2362   21.8959 C   0  0  0  0  0  0  0  0  0  0  0  0
    7.3014  -15.5827   21.1865 C   0  0  2  0  0  0  0  0  0  0  0  0
    7.0199  -15.1983   19.8453 N   0  0  0  0  0  0  0  0  0  0  0  0
    8.5446  -16.3894   21.3019 C   0  0  0  0  0  0  0  0  0  0  0  0
    8.9055  -17.0403   20.2900 O   0  0  0  0  0  0  0  0  0  0  0  0
   12.8795  -17.2553   23.3045 C   0  0  0  0  0  0  0  0  0  0  0  0
   11.6458  -16.4763   23.0021 C   0  0  1  0  0  0  0  0  0  0  0  0
   11.8679  -15.5269   21.8398 C   0  0  0  0  0  0  0  0  0  0  0  0
   10.4565  -17.3329   22.6478 C   0  0  2  0  0  0  0  0  0  0  0  0
    9.3237  -16.4590   22.4681 N   0  0  0  0  0  0  0  0  0  0  0  0
   10.1860  -18.3505   23.7210 C   0  0  0  0  0  0  0  0  0  0  0  0
    9.4339  -18.1065   24.6999 O   0  0  0  0  0  0  0  0  0  0  0  0
   10.7615  -19.6119   23.6731 O   0  0  0  0  0  0  0  0  0  0  0  0
  2  4  1  0
  2  1  1  6
  3  2  1  0
  4  6  1  0
  4  5  1  6
  6 11  1  0
  7  6  2  0
  9  8  1  0
 10 12  1  0
 10  9  1  6
 11 10  1  0
 12 13  2  0
 15 14  1  6
 16 15  1  0
 17 15  1  0
 18 12  1  0
 17 18  1  1
 19 21  1  0
 19 17  1  0
 20 19  2  0
M  END
$$$$
