TSV.pdb
     RDKit          3D

 21 20  0  0  1  0  0  0  0  0999 V2000
    8.8739  -17.3858   18.7863 C   0  0  0  0  0  0  0  0  0  0  0  0
    8.3344  -16.8507   20.0863 C   0  0  1  0  0  0  0  0  0  0  0  0
    7.9127  -15.5459   19.9109 O   0  0  0  0  0  0  0  0  0  0  0  0
    7.2026  -17.7018   20.6277 C   0  0  2  0  0  0  0  0  0  0  0  0
    6.0633  -17.6688   19.7385 N   0  0  0  0  0  0  0  0  0  0  0  0
    6.8545  -17.1312   21.9693 C   0  0  0  0  0  0  0  0  0  0  0  0
    6.1162  -16.1244   22.0178 O   0  0  0  0  0  0  0  0  0  0  0  0
    8.2337  -18.7310   25.7961 O   0  0  0  0  0  0  0  0  0  0  0  0
    6.9430  -18.3670   25.5045 C   0  0  0  0  0  0  0  0  0  0  0  0
    6.9474  -17.2586   24.4833 C   0  0  2  0  0  0  0  0  0  0  0  0
    7.3193  -17.6752   23.1742 N   0  0  0  0  0  0  0  0  0  0  0  0
    7.7241  -16.0809   24.9516 C   0  0  0  0  0  0  0  0  0  0  0  0
    8.8804  -15.9301   24.4845 O   0  0  0  0  0  0  0  0  0  0  0  0
    7.5761  -11.6809   27.2492 C   0  0  0  0  0  0  0  0  0  0  0  0
    6.9616  -12.9399   26.7415 C   0  0  1  0  0  0  0  0  0  0  0  0
    6.0881  -12.6741   25.5301 C   0  0  0  0  0  0  0  0  0  0  0  0
    7.9674  -13.9876   26.3358 C   0  0  2  0  0  0  0  0  0  0  0  0
    7.2370  -15.1428   25.8760 N   0  0  0  0  0  0  0  0  0  0  0  0
    8.8688  -14.3436   27.4853 C   0  0  0  0  0  0  0  0  0  0  0  0
    8.6707  -15.3593   28.2010 O   0  0  0  0  0  0  0  0  0  0  0  0
    9.9661  -13.5571   27.8048 O   0  0  0  0  0  0  0  0  0  0  0  0
  2  4  1  0
  2  1  1  6
  3  2  1  0
  4  6  1  0
  4  5  1  6
  6 11  1  0
  7  6  2  0
  9  8  1  0
 10 12  1  0
 10  9  1  1
 11 10  1  0
 12 13  2  0
 15 14  1  6
 16 15  1  0
 17 15  1  0
 18 12  1  0
 17 18  1  1
 19 21  1  0
 19 17  1  0
 20 19  2  0
M  END
$$$$
