TSV.pdb
     RDKit          3D

 21 20  0  0  1  0  0  0  0  0999 V2000
    8.8561  -12.5985   19.7797 C   0  0  0  0  0  0  0  0  0  0  0  0
    8.3362  -13.5657   18.7493 C   0  0  1  0  0  0  0  0  0  0  0  0
    8.9988  -13.3679   17.5522 O   0  0  0  0  0  0  0  0  0  0  0  0
    8.4771  -15.0071   19.1975 C   0  0  2  0  0  0  0  0  0  0  0  0
    8.0575  -15.9140   18.1529 N   0  0  0  0  0  0  0  0  0  0  0  0
    7.6148  -15.1531   20.4149 C   0  0  0  0  0  0  0  0  0  0  0  0
    6.4310  -15.5247   20.2683 O   0  0  0  0  0  0  0  0  0  0  0  0
    8.3668  -17.4270   23.3458 O   0  0  0  0  0  0  0  0  0  0  0  0
    7.1998  -16.7823   23.0199 C   0  0  0  0  0  0  0  0  0  0  0  0
    7.4499  -15.2992   22.9242 C   0  0  2  0  0  0  0  0  0  0  0  0
    8.0753  -14.8918   21.7123 N   0  0  0  0  0  0  0  0  0  0  0  0
    8.1451  -14.7785   24.1304 C   0  0  0  0  0  0  0  0  0  0  0  0
    9.3950  -14.8966   24.1714 O   0  0  0  0  0  0  0  0  0  0  0  0
    6.7715  -11.5047   26.0373 C   0  0  0  0  0  0  0  0  0  0  0  0
    7.1939  -12.5888   26.9683 C   0  0  1  0  0  0  0  0  0  0  0  0
    5.9983  -13.3730   27.4752 C   0  0  0  0  0  0  0  0  0  0  0  0
    8.1428  -13.5854   26.3516 C   0  0  2  0  0  0  0  0  0  0  0  0
    7.4843  -14.1705   25.2100 N   0  0  0  0  0  0  0  0  0  0  0  0
    8.5361  -14.6423   27.3459 C   0  0  0  0  0  0  0  0  0  0  0  0
    8.0546  -15.8044   27.3125 O   0  0  0  0  0  0  0  0  0  0  0  0
    9.4552  -14.3742   28.3499 O   0  0  0  0  0  0  0  0  0  0  0  0
  2  4  1  0
  2  1  1  1
  3  2  1  0
  4  6  1  0
  4  5  1  6
  6 11  1  0
  7  6  2  0
  9  8  1  0
 10 12  1  0
 10  9  1  1
 11 10  1  0
 12 13  2  0
 15 14  1  6
 16 15  1  0
 17 15  1  0
 18 12  1  0
 17 18  1  6
 19 21  1  0
 19 17  1  0
 20 19  2  0
M  END
$$$$
