TSV.pdb
     RDKit          3D

 21 20  0  0  1  0  0  0  0  0999 V2000
   10.9693  -17.7496   21.2742 C   0  0  0  0  0  0  0  0  0  0  0  0
   10.9600  -16.8510   20.0659 C   0  0  1  0  0  0  0  0  0  0  0  0
   11.7160  -17.4211   19.0587 O   0  0  0  0  0  0  0  0  0  0  0  0
    9.5535  -16.5704   19.5745 C   0  0  2  0  0  0  0  0  0  0  0  0
    9.5792  -15.7700   18.3710 N   0  0  0  0  0  0  0  0  0  0  0  0
    8.8580  -15.8461   20.6873 C   0  0  0  0  0  0  0  0  0  0  0  0
    9.1350  -14.6438   20.8837 O   0  0  0  0  0  0  0  0  0  0  0  0
    6.2467  -17.7495   23.5081 O   0  0  0  0  0  0  0  0  0  0  0  0
    5.8768  -16.5763   22.8994 C   0  0  0  0  0  0  0  0  0  0  0  0
    7.1070  -15.8039   22.4977 C   0  0  2  0  0  0  0  0  0  0  0  0
    7.9095  -16.4557   21.5195 N   0  0  0  0  0  0  0  0  0  0  0  0
    7.8918  -15.3632   23.6808 C   0  0  0  0  0  0  0  0  0  0  0  0
    9.0191  -15.8896   23.8535 O   0  0  0  0  0  0  0  0  0  0  0  0
    7.3456  -11.6626   25.4261 C   0  0  0  0  0  0  0  0  0  0  0  0
    7.4525  -12.8088   26.3723 C   0  0  1  0  0  0  0  0  0  0  0  0
    6.0822  -13.2724   26.8292 C   0  0  0  0  0  0  0  0  0  0  0  0
    8.1526  -14.0125   25.7937 C   0  0  2  0  0  0  0  0  0  0  0  0
    7.4423  -14.4024   24.6009 N   0  0  0  0  0  0  0  0  0  0  0  0
    8.1957  -15.1405   26.7869 C   0  0  0  0  0  0  0  0  0  0  0  0
    7.3649  -16.0851   26.7628 O   0  0  0  0  0  0  0  0  0  0  0  0
    9.1641  -15.1838   27.7795 O   0  0  0  0  0  0  0  0  0  0  0  0
  2  4  1  0
  2  1  1  1
  3  2  1  0
  4  6  1  0
  4  5  1  6
  6 11  1  0
  7  6  2  0
  9  8  1  0
 10 12  1  0
 10  9  1  1
 11 10  1  0
 12 13  2  0
 15 14  1  6
 16 15  1  0
 17 15  1  0
 18 12  1  0
 17 18  1  6
 19 21  1  0
 19 17  1  0
 20 19  2  0
M  END
$$$$
