TSV.pdb
     RDKit          3D

 21 20  0  0  1  0  0  0  0  0999 V2000
   12.0750  -19.6111   20.2035 C   0  0  0  0  0  0  0  0  0  0  0  0
   11.6850  -18.4979   21.1395 C   0  0  1  0  0  0  0  0  0  0  0  0
   12.7698  -18.1491   21.9222 O   0  0  0  0  0  0  0  0  0  0  0  0
   11.1598  -17.2853   20.3964 C   0  0  2  0  0  0  0  0  0  0  0  0
   12.1955  -16.6944   19.5792 N   0  0  0  0  0  0  0  0  0  0  0  0
   10.6879  -16.3237   21.4449 C   0  0  0  0  0  0  0  0  0  0  0  0
   11.4645  -15.4202   21.8209 O   0  0  0  0  0  0  0  0  0  0  0  0
    7.0211  -16.8569   23.5155 O   0  0  0  0  0  0  0  0  0  0  0  0
    7.4030  -15.5803   23.1864 C   0  0  0  0  0  0  0  0  0  0  0  0
    8.9009  -15.5240   23.0298 C   0  0  2  0  0  0  0  0  0  0  0  0
    9.4137  -16.3909   22.0243 N   0  0  0  0  0  0  0  0  0  0  0  0
    9.5976  -15.6836   24.3332 C   0  0  0  0  0  0  0  0  0  0  0  0
   10.2580  -16.7376   24.5085 O   0  0  0  0  0  0  0  0  0  0  0  0
    8.5985  -13.1953   27.7009 C   0  0  0  0  0  0  0  0  0  0  0  0
   10.0026  -13.6034   27.4141 C   0  0  1  0  0  0  0  0  0  0  0  0
   10.8047  -13.7450   28.6940 C   0  0  0  0  0  0  0  0  0  0  0  0
   10.1172  -14.9141   26.6773 C   0  0  2  0  0  0  0  0  0  0  0  0
    9.5548  -14.7293   25.3624 N   0  0  0  0  0  0  0  0  0  0  0  0
    9.4057  -16.0127   27.4172 C   0  0  0  0  0  0  0  0  0  0  0  0
    8.1966  -16.2885   27.2042 O   0  0  0  0  0  0  0  0  0  0  0  0
   10.0621  -16.7733   28.3739 O   0  0  0  0  0  0  0  0  0  0  0  0
  2  4  1  0
  2  1  1  6
  3  2  1  0
  4  6  1  0
  4  5  1  1
  6 11  1  0
  7  6  2  0
  9  8  1  0
 10 12  1  0
 10  9  1  1
 11 10  1  0
 12 13  2  0
 15 14  1  1
 16 15  1  0
 17 15  1  0
 18 12  1  0
 17 18  1  6
 19 21  1  0
 19 17  1  0
 20 19  2  0
M  END
$$$$
