TSV.pdb
     RDKit          3D

 21 20  0  0  1  0  0  0  0  0999 V2000
    9.6246  -12.6278   20.0706 C   0  0  0  0  0  0  0  0  0  0  0  0
    9.0710  -13.3152   18.8506 C   0  0  1  0  0  0  0  0  0  0  0  0
    9.8149  -12.9598   17.7409 O   0  0  0  0  0  0  0  0  0  0  0  0
    9.0462  -14.8229   19.0073 C   0  0  2  0  0  0  0  0  0  0  0  0
    8.4521  -15.4509   17.8487 N   0  0  0  0  0  0  0  0  0  0  0  0
    8.2429  -15.1023   20.2416 C   0  0  0  0  0  0  0  0  0  0  0  0
    7.0009  -14.9784   20.1877 O   0  0  0  0  0  0  0  0  0  0  0  0
    9.4609  -17.6668   23.3245 O   0  0  0  0  0  0  0  0  0  0  0  0
    8.1794  -17.3225   22.9741 C   0  0  0  0  0  0  0  0  0  0  0  0
    8.1219  -15.8534   22.6430 C   0  0  2  0  0  0  0  0  0  0  0  0
    8.8211  -15.4969   21.4556 N   0  0  0  0  0  0  0  0  0  0  0  0
    8.5032  -15.0108   23.8067 C   0  0  0  0  0  0  0  0  0  0  0  0
    9.6999  -14.6361   23.8797 O   0  0  0  0  0  0  0  0  0  0  0  0
    6.9666  -12.3525   27.7183 C   0  0  0  0  0  0  0  0  0  0  0  0
    6.7353  -13.1780   26.4995 C   0  0  1  0  0  0  0  0  0  0  0  0
    6.2132  -12.3309   25.3544 C   0  0  0  0  0  0  0  0  0  0  0  0
    7.9710  -13.8812   25.9971 C   0  0  2  0  0  0  0  0  0  0  0  0
    7.6058  -14.6189   24.8131 N   0  0  0  0  0  0  0  0  0  0  0  0
    8.5357  -14.7962   27.0481 C   0  0  0  0  0  0  0  0  0  0  0  0
    8.1999  -16.0059   27.1323 O   0  0  0  0  0  0  0  0  0  0  0  0
    9.4591  -14.3369   27.9760 O   0  0  0  0  0  0  0  0  0  0  0  0
  2  4  1  0
  2  1  1  1
  3  2  1  0
  4  6  1  0
  4  5  1  6
  6 11  1  0
  7  6  2  0
  9  8  1  0
 10 12  1  0
 10  9  1  1
 11 10  1  0
 12 13  2  0
 15 14  1  1
 16 15  1  0
 17 15  1  0
 18 12  1  0
 17 18  1  6
 19 21  1  0
 19 17  1  0
 20 19  2  0
M  END
$$$$
