TSV.pdb
     RDKit          3D

 21 20  0  0  1  0  0  0  0  0999 V2000
   10.4037  -13.1113   20.7162 C   0  0  0  0  0  0  0  0  0  0  0  0
    9.3768  -12.9204   19.6315 C   0  0  1  0  0  0  0  0  0  0  0  0
   10.0007  -12.5007   18.4715 O   0  0  0  0  0  0  0  0  0  0  0  0
    8.5784  -14.1830   19.3731 C   0  0  2  0  0  0  0  0  0  0  0  0
    7.5852  -13.9625   18.3461 N   0  0  0  0  0  0  0  0  0  0  0  0
    7.9330  -14.5444   20.6768 C   0  0  0  0  0  0  0  0  0  0  0  0
    7.0215  -13.8117   21.1163 O   0  0  0  0  0  0  0  0  0  0  0  0
    9.2572  -17.8485   23.0809 O   0  0  0  0  0  0  0  0  0  0  0  0
    7.9406  -17.4612   23.0709 C   0  0  0  0  0  0  0  0  0  0  0  0
    7.8461  -15.9952   22.7340 C   0  0  2  0  0  0  0  0  0  0  0  0
    8.3049  -15.6679   21.4271 N   0  0  0  0  0  0  0  0  0  0  0  0
    8.4638  -15.1469   23.7868 C   0  0  0  0  0  0  0  0  0  0  0  0
    9.6469  -14.7678   23.6012 O   0  0  0  0  0  0  0  0  0  0  0  0
    7.2650  -11.8836   25.2762 C   0  0  0  0  0  0  0  0  0  0  0  0
    7.4600  -12.8686   26.3771 C   0  0  1  0  0  0  0  0  0  0  0  0
    6.1440  -13.5049   26.7831 C   0  0  0  0  0  0  0  0  0  0  0  0
    8.4018  -13.9933   26.0279 C   0  0  2  0  0  0  0  0  0  0  0  0
    7.8007  -14.7542   24.9606 N   0  0  0  0  0  0  0  0  0  0  0  0
    8.6696  -14.8636   27.2243 C   0  0  0  0  0  0  0  0  0  0  0  0
    8.1706  -16.0128   27.3406 O   0  0  0  0  0  0  0  0  0  0  0  0
    9.4864  -14.4284   28.2578 O   0  0  0  0  0  0  0  0  0  0  0  0
  2  4  1  0
  2  1  1  1
  3  2  1  0
  4  6  1  0
  4  5  1  6
  6 11  1  0
  7  6  2  0
  9  8  1  0
 10 12  1  0
 10  9  1  1
 11 10  1  0
 12 13  2  0
 15 14  1  6
 16 15  1  0
 17 15  1  0
 18 12  1  0
 17 18  1  6
 19 21  1  0
 19 17  1  0
 20 19  2  0
M  END
$$$$
