TSV.pdb
     RDKit          3D

 21 20  0  0  1  0  0  0  0  0999 V2000
   10.9561  -14.3002   20.4060 C   0  0  0  0  0  0  0  0  0  0  0  0
   10.1320  -13.3638   19.5625 C   0  0  1  0  0  0  0  0  0  0  0  0
   10.8309  -13.0368   18.4155 O   0  0  0  0  0  0  0  0  0  0  0  0
    8.7822  -13.9551   19.2065 C   0  0  2  0  0  0  0  0  0  0  0  0
    8.0385  -13.0600   18.3489 N   0  0  0  0  0  0  0  0  0  0  0  0
    8.0658  -14.1750   20.5046 C   0  0  0  0  0  0  0  0  0  0  0  0
    7.5672  -13.1887   21.0873 O   0  0  0  0  0  0  0  0  0  0  0  0
    8.4539  -17.7566   22.8327 O   0  0  0  0  0  0  0  0  0  0  0  0
    7.2192  -17.1756   22.6861 C   0  0  0  0  0  0  0  0  0  0  0  0
    7.3822  -15.7085   22.3825 C   0  0  2  0  0  0  0  0  0  0  0  0
    7.9289  -15.4378   21.0966 N   0  0  0  0  0  0  0  0  0  0  0  0
    8.1013  -14.9969   23.4716 C   0  0  0  0  0  0  0  0  0  0  0  0
    8.7565  -13.9725   23.1566 O   0  0  0  0  0  0  0  0  0  0  0  0
    6.0847  -13.7766   26.2330 C   0  0  0  0  0  0  0  0  0  0  0  0
    7.4998  -13.3993   25.9577 C   0  0  1  0  0  0  0  0  0  0  0  0
    8.0222  -12.4310   27.0022 C   0  0  0  0  0  0  0  0  0  0  0  0
    8.4484  -14.5712   25.9324 C   0  0  2  0  0  0  0  0  0  0  0  0
    8.0847  -15.4065   24.8146 N   0  0  0  0  0  0  0  0  0  0  0  0
    8.3880  -15.3419   27.2220 C   0  0  0  0  0  0  0  0  0  0  0  0
    7.4864  -16.1885   27.4536 O   0  0  0  0  0  0  0  0  0  0  0  0
    9.3345  -15.1472   28.2174 O   0  0  0  0  0  0  0  0  0  0  0  0
  2  4  1  0
  2  1  1  6
  3  2  1  0
  4  6  1  0
  4  5  1  6
  6 11  1  0
  7  6  2  0
  9  8  1  0
 10 12  1  0
 10  9  1  1
 11 10  1  0
 12 13  2  0
 15 14  1  1
 16 15  1  0
 17 15  1  0
 18 12  1  0
 17 18  1  6
 19 21  1  0
 19 17  1  0
 20 19  2  0
M  END
$$$$
