TSV.pdb
     RDKit          3D

 21 20  0  0  1  0  0  0  0  0999 V2000
   11.6363  -18.0533   22.1761 C   0  0  0  0  0  0  0  0  0  0  0  0
   11.0425  -17.3495   20.9846 C   0  0  1  0  0  0  0  0  0  0  0  0
   11.7110  -17.7355   19.8378 O   0  0  0  0  0  0  0  0  0  0  0  0
    9.5572  -17.6191   20.8446 C   0  0  2  0  0  0  0  0  0  0  0  0
    9.0517  -17.0811   19.6018 N   0  0  0  0  0  0  0  0  0  0  0  0
    8.9000  -16.9634   22.0214 C   0  0  0  0  0  0  0  0  0  0  0  0
    8.7332  -15.7254   22.0002 O   0  0  0  0  0  0  0  0  0  0  0  0
    7.7601  -19.1082   25.5649 O   0  0  0  0  0  0  0  0  0  0  0  0
    6.9772  -18.1002   25.0602 C   0  0  0  0  0  0  0  0  0  0  0  0
    7.8366  -17.1237   24.2992 C   0  0  2  0  0  0  0  0  0  0  0  0
    8.4629  -17.6754   23.1464 N   0  0  0  0  0  0  0  0  0  0  0  0
    8.7963  -16.4222   25.1918 C   0  0  0  0  0  0  0  0  0  0  0  0
    9.9988  -16.7820   25.1417 O   0  0  0  0  0  0  0  0  0  0  0  0
    9.5185  -12.5704   28.2672 C   0  0  0  0  0  0  0  0  0  0  0  0
    8.6406  -13.4740   27.4712 C   0  0  1  0  0  0  0  0  0  0  0  0
    8.0645  -12.7562   26.2653 C   0  0  0  0  0  0  0  0  0  0  0  0
    9.3422  -14.7050   26.9553 C   0  0  2  0  0  0  0  0  0  0  0  0
    8.4311  -15.3931   26.0746 N   0  0  0  0  0  0  0  0  0  0  0  0
    9.7714  -15.5957   28.0880 C   0  0  0  0  0  0  0  0  0  0  0  0
    9.0425  -16.5255   28.5209 O   0  0  0  0  0  0  0  0  0  0  0  0
   11.0014  -15.4250   28.7065 O   0  0  0  0  0  0  0  0  0  0  0  0
  2  4  1  0
  2  1  1  1
  3  2  1  0
  4  6  1  0
  4  5  1  6
  6 11  1  0
  7  6  2  0
  9  8  1  0
 10 12  1  0
 10  9  1  1
 11 10  1  0
 12 13  2  0
 15 14  1  6
 16 15  1  0
 17 15  1  0
 18 12  1  0
 17 18  1  6
 19 21  1  0
 19 17  1  0
 20 19  2  0
M  END
$$$$
