MCE.pdb
     RDKit          3D

 24 23  0  0  1  0  0  0  0  0999 V2000
    9.9145  -17.3160   15.2287 C   0  0  0  0  0  0  0  0  0  0  0  0
    8.8939  -15.9843   14.6408 S   0  0  0  0  0  0  0  0  0  0  0  0
    8.1637  -14.9047   15.8163 C   0  0  0  0  0  0  0  0  0  0  0  0
    8.8342  -14.7944   17.1222 C   0  0  0  0  0  0  0  0  0  0  0  0
    8.1561  -13.9749   18.1436 C   0  0  2  0  0  0  0  0  0  0  0  0
    8.1353  -12.5528   17.8116 N   0  0  0  0  0  0  0  0  0  0  0  0
    8.8837  -14.1011   19.4766 C   0  0  0  0  0  0  0  0  0  0  0  0
    9.9331  -13.4719   19.6189 O   0  0  0  0  0  0  0  0  0  0  0  0
    8.4002  -14.9033   20.5342 N   0  0  0  0  0  0  0  0  0  0  0  0
    9.0721  -15.0420   21.8018 C   0  0  1  0  0  0  0  0  0  0  0  0
    8.1263  -15.3478   22.9334 C   0  0  0  0  0  0  0  0  0  0  0  0
    6.9216  -14.0605   23.2344 S   0  0  0  0  0  0  0  0  0  0  0  0
   10.1909  -16.0117   21.6951 C   0  0  0  0  0  0  0  0  0  0  0  0
    9.9553  -17.1701   21.2444 O   0  0  0  0  0  0  0  0  0  0  0  0
   11.5130  -15.7140   22.0697 N   0  0  0  0  0  0  0  0  0  0  0  0
   12.6113  -16.6857   22.0238 C   0  0  1  0  0  0  0  0  0  0  0  0
   13.4545  -16.3980   20.8096 C   0  0  0  0  0  0  0  0  0  0  0  0
   13.9547  -15.0049   20.7053 C   0  0  0  0  0  0  0  0  0  0  0  0
   14.8359  -14.7262   19.5662 C   0  0  0  0  0  0  0  0  0  0  0  0
   15.8018  -15.4049   19.1983 O   0  0  0  0  0  0  0  0  0  0  0  0
   13.4882  -16.5360   23.2116 C   0  0  0  0  0  0  0  0  0  0  0  0
   13.3425  -15.5984   24.0322 O   0  0  0  0  0  0  0  0  0  0  0  0
   14.5493  -13.5672   18.8182 O   0  0  0  0  0  0  0  0  0  0  0  0
   14.5045  -17.4487   23.4390 O   0  0  0  0  0  0  0  0  0  0  0  0
  2  1  1  0
  3  2  1  0
  4  5  1  0
  4  3  1  0
  5  7  1  0
  5  6  1  6
  7  9  1  0
  7  8  2  0
  9 10  1  0
 10 13  1  0
 10 11  1  1
 12 11  1  0
 13 14  2  0
 15 16  1  0
 15 13  1  0
 16 21  1  0
 16 17  1  6
 18 17  1  0
 19 18  1  0
 19 20  2  0
 21 24  1  0
 22 21  2  0
 23 19  1  0
M  END
$$$$
