MCE.pdb
     RDKit          3D

 24 23  0  0  1  0  0  0  0  0999 V2000
    7.6178  -11.8866   20.9641 C   0  0  0  0  0  0  0  0  0  0  0  0
    7.7615  -12.4731   19.2919 S   0  0  0  0  0  0  0  0  0  0  0  0
    7.2186  -14.1010   18.9240 C   0  0  0  0  0  0  0  0  0  0  0  0
    7.4367  -15.1234   19.9605 C   0  0  0  0  0  0  0  0  0  0  0  0
    8.5330  -16.0803   19.7215 C   0  0  2  0  0  0  0  0  0  0  0  0
    8.2746  -16.9731   18.5949 N   0  0  0  0  0  0  0  0  0  0  0  0
    8.7235  -16.9671   20.9461 C   0  0  0  0  0  0  0  0  0  0  0  0
    8.2484  -18.1031   20.9109 O   0  0  0  0  0  0  0  0  0  0  0  0
    9.4154  -16.5337   22.0990 N   0  0  0  0  0  0  0  0  0  0  0  0
    9.6491  -17.3687   23.2502 C   0  0  1  0  0  0  0  0  0  0  0  0
   10.2697  -18.6940   22.8938 C   0  0  0  0  0  0  0  0  0  0  0  0
   10.6487  -19.7173   24.3109 S   0  0  0  0  0  0  0  0  0  0  0  0
   10.4085  -16.6261   24.2871 C   0  0  0  0  0  0  0  0  0  0  0  0
   11.6073  -16.2986   24.0499 O   0  0  0  0  0  0  0  0  0  0  0  0
    9.8667  -16.2606   25.5320 N   0  0  0  0  0  0  0  0  0  0  0  0
   10.5917  -15.4757   26.5373 C   0  0  1  0  0  0  0  0  0  0  0  0
    9.6716  -14.4061   27.0642 C   0  0  0  0  0  0  0  0  0  0  0  0
    8.8971  -13.6756   26.0306 C   0  0  0  0  0  0  0  0  0  0  0  0
    7.9615  -12.6626   26.5306 C   0  0  0  0  0  0  0  0  0  0  0  0
    7.1406  -12.0236   25.8621 O   0  0  0  0  0  0  0  0  0  0  0  0
   10.9737  -16.3307   27.6885 C   0  0  0  0  0  0  0  0  0  0  0  0
   11.6516  -15.8907   28.6480 O   0  0  0  0  0  0  0  0  0  0  0  0
    8.0054  -12.3935   27.9128 O   0  0  0  0  0  0  0  0  0  0  0  0
   10.5798  -17.6578   27.7236 O   0  0  0  0  0  0  0  0  0  0  0  0
  2  1  1  0
  3  2  1  0
  4  5  1  0
  4  3  1  0
  5  7  1  0
  5  6  1  6
  7  9  1  0
  7  8  2  0
  9 10  1  0
 10 13  1  0
 10 11  1  6
 12 11  1  0
 13 14  2  0
 15 16  1  0
 15 13  1  0
 16 21  1  0
 16 17  1  1
 18 17  1  0
 19 18  1  0
 19 20  2  0
 21 24  1  0
 22 21  2  0
 23 19  1  0
M  END
$$$$
