MCE.pdb
     RDKit          3D

 24 23  0  0  1  0  0  0  0  0999 V2000
    7.8449  -11.9039   26.6137 C   0  0  0  0  0  0  0  0  0  0  0  0
    6.4469  -13.0008   26.6686 S   0  0  0  0  0  0  0  0  0  0  0  0
    6.7393  -14.7290   26.7589 C   0  0  0  0  0  0  0  0  0  0  0  0
    7.5006  -15.3319   25.6525 C   0  0  0  0  0  0  0  0  0  0  0  0
    6.7134  -15.9837   24.5895 C   0  0  2  0  0  0  0  0  0  0  0  0
    6.1445  -17.2632   25.0049 N   0  0  0  0  0  0  0  0  0  0  0  0
    7.6042  -16.2721   23.3872 C   0  0  0  0  0  0  0  0  0  0  0  0
    8.1118  -17.3915   23.3050 O   0  0  0  0  0  0  0  0  0  0  0  0
    7.8609  -15.3123   22.3830 N   0  0  0  0  0  0  0  0  0  0  0  0
    8.8016  -15.5128   21.3095 C   0  0  1  0  0  0  0  0  0  0  0  0
    8.6699  -14.4832   20.2181 C   0  0  0  0  0  0  0  0  0  0  0  0
    7.9562  -12.9377   20.7668 S   0  0  0  0  0  0  0  0  0  0  0  0
   10.1824  -15.6291   21.8416 C   0  0  0  0  0  0  0  0  0  0  0  0
   10.7677  -14.5870   22.2564 O   0  0  0  0  0  0  0  0  0  0  0  0
   10.8859  -16.8444   21.9129 N   0  0  0  0  0  0  0  0  0  0  0  0
   11.9071  -17.1366   22.9249 C   0  0  1  0  0  0  0  0  0  0  0  0
   11.2332  -17.2456   24.2673 C   0  0  0  0  0  0  0  0  0  0  0  0
   12.1151  -17.6695   25.3828 C   0  0  0  0  0  0  0  0  0  0  0  0
   11.4556  -17.8707   26.6775 C   0  0  0  0  0  0  0  0  0  0  0  0
   11.2102  -18.9549   27.2191 O   0  0  0  0  0  0  0  0  0  0  0  0
   12.5515  -18.4450   22.6509 C   0  0  0  0  0  0  0  0  0  0  0  0
   12.0218  -19.3046   21.9066 O   0  0  0  0  0  0  0  0  0  0  0  0
   11.0637  -16.7086   27.3710 O   0  0  0  0  0  0  0  0  0  0  0  0
   13.7754  -18.7456   23.2249 O   0  0  0  0  0  0  0  0  0  0  0  0
  2  1  1  0
  3  2  1  0
  4  5  1  0
  4  3  1  0
  5  7  1  0
  5  6  1  1
  7  9  1  0
  7  8  2  0
  9 10  1  0
 10 13  1  0
 10 11  1  6
 12 11  1  0
 13 14  2  0
 15 16  1  0
 15 13  1  0
 16 21  1  0
 16 17  1  1
 18 17  1  0
 19 18  1  0
 19 20  2  0
 21 24  1  0
 22 21  2  0
 23 19  1  0
M  END
$$$$
