MCE.pdb
     RDKit          3D

 24 23  0  0  1  0  0  0  0  0999 V2000
    7.7331  -11.4091   20.6354 C   0  0  0  0  0  0  0  0  0  0  0  0
    7.8145  -12.4159   19.1724 S   0  0  0  0  0  0  0  0  0  0  0  0
    7.8509  -14.1610   19.3557 C   0  0  0  0  0  0  0  0  0  0  0  0
    6.7588  -14.7696   20.1330 C   0  0  0  0  0  0  0  0  0  0  0  0
    7.1031  -15.9600   20.9324 C   0  0  2  0  0  0  0  0  0  0  0  0
    5.9370  -16.7642   21.2882 N   0  0  0  0  0  0  0  0  0  0  0  0
    7.7556  -15.5342   22.2420 C   0  0  0  0  0  0  0  0  0  0  0  0
    7.5271  -14.3956   22.6529 O   0  0  0  0  0  0  0  0  0  0  0  0
    8.5991  -16.3898   22.9851 N   0  0  0  0  0  0  0  0  0  0  0  0
    9.2498  -16.0008   24.2109 C   0  0  1  0  0  0  0  0  0  0  0  0
    8.2838  -15.4927   25.2488 C   0  0  0  0  0  0  0  0  0  0  0  0
    6.8500  -16.5382   25.4727 S   0  0  0  0  0  0  0  0  0  0  0  0
   10.1218  -17.0945   24.7077 C   0  0  0  0  0  0  0  0  0  0  0  0
    9.6265  -18.2481   24.8647 O   0  0  0  0  0  0  0  0  0  0  0  0
   11.4824  -16.9213   25.0172 N   0  0  0  0  0  0  0  0  0  0  0  0
   12.3738  -18.0171   25.4134 C   0  0  1  0  0  0  0  0  0  0  0  0
   13.7959  -17.5948   25.1541 C   0  0  0  0  0  0  0  0  0  0  0  0
   14.1144  -17.2889   23.7375 C   0  0  0  0  0  0  0  0  0  0  0  0
   14.9803  -16.1262   23.5141 C   0  0  0  0  0  0  0  0  0  0  0  0
   15.4884  -15.4079   24.3830 O   0  0  0  0  0  0  0  0  0  0  0  0
   12.2546  -18.2844   26.8682 C   0  0  0  0  0  0  0  0  0  0  0  0
   12.9491  -19.1564   27.4435 O   0  0  0  0  0  0  0  0  0  0  0  0
   15.2588  -15.7978   22.1727 O   0  0  0  0  0  0  0  0  0  0  0  0
   11.3550  -17.5598   27.6320 O   0  0  0  0  0  0  0  0  0  0  0  0
  2  1  1  0
  3  2  1  0
  4  5  1  0
  4  3  1  0
  5  7  1  0
  5  6  1  1
  7  9  1  0
  7  8  2  0
  9 10  1  0
 10 13  1  0
 10 11  1  1
 12 11  1  0
 13 14  2  0
 15 16  1  0
 15 13  1  0
 16 21  1  0
 16 17  1  1
 18 17  1  0
 19 18  1  0
 19 20  2  0
 21 24  1  0
 22 21  2  0
 23 19  1  0
M  END
$$$$
