MCE.pdb
     RDKit          3D

 24 23  0  0  1  0  0  0  0  0999 V2000
    6.8161  -11.4692   25.9061 C   0  0  0  0  0  0  0  0  0  0  0  0
    7.3446  -12.8005   26.9593 S   0  0  0  0  0  0  0  0  0  0  0  0
    6.2468  -14.1428   27.2298 C   0  0  0  0  0  0  0  0  0  0  0  0
    5.8832  -14.9502   26.0537 C   0  0  0  0  0  0  0  0  0  0  0  0
    6.6995  -16.1523   25.8021 C   0  0  2  0  0  0  0  0  0  0  0  0
    7.9369  -16.1735   26.5777 N   0  0  0  0  0  0  0  0  0  0  0  0
    7.1039  -16.2065   24.3338 C   0  0  0  0  0  0  0  0  0  0  0  0
    6.2067  -16.1749   23.4904 O   0  0  0  0  0  0  0  0  0  0  0  0
    8.4516  -16.2906   23.9186 N   0  0  0  0  0  0  0  0  0  0  0  0
    8.8578  -16.3628   22.5377 C   0  0  1  0  0  0  0  0  0  0  0  0
    8.1931  -15.3196   21.6783 C   0  0  0  0  0  0  0  0  0  0  0  0
    8.5183  -13.6404   22.2012 S   0  0  0  0  0  0  0  0  0  0  0  0
   10.3382  -16.3550   22.4289 C   0  0  0  0  0  0  0  0  0  0  0  0
   10.9695  -15.3071   22.7515 O   0  0  0  0  0  0  0  0  0  0  0  0
   11.0886  -17.4573   21.9834 N   0  0  0  0  0  0  0  0  0  0  0  0
   12.5538  -17.4693   21.9095 C   0  0  1  0  0  0  0  0  0  0  0  0
   13.0737  -18.4977   22.8791 C   0  0  0  0  0  0  0  0  0  0  0  0
   12.5838  -18.3547   24.2725 C   0  0  0  0  0  0  0  0  0  0  0  0
   13.0388  -19.3797   25.2179 C   0  0  0  0  0  0  0  0  0  0  0  0
   14.0973  -19.3749   25.8572 O   0  0  0  0  0  0  0  0  0  0  0  0
   13.0030  -17.8777   20.5554 C   0  0  0  0  0  0  0  0  0  0  0  0
   12.2031  -18.3109   19.6916 O   0  0  0  0  0  0  0  0  0  0  0  0
   12.1802  -20.4792   25.4149 O   0  0  0  0  0  0  0  0  0  0  0  0
   14.3421  -17.7855   20.2150 O   0  0  0  0  0  0  0  0  0  0  0  0
  2  1  1  0
  3  2  1  0
  4  5  1  0
  4  3  1  0
  5  7  1  0
  5  6  1  1
  7  9  1  0
  7  8  2  0
  9 10  1  0
 10 13  1  0
 10 11  1  6
 12 11  1  0
 13 14  2  0
 15 16  1  0
 15 13  1  0
 16 21  1  0
 16 17  1  1
 18 17  1  0
 19 18  1  0
 19 20  2  0
 21 24  1  0
 22 21  2  0
 23 19  1  0
M  END
$$$$
