MCE.pdb
     RDKit          3D

 24 23  0  0  1  0  0  0  0  0999 V2000
    7.9471  -10.9938   19.6970 C   0  0  0  0  0  0  0  0  0  0  0  0
    6.9622  -12.4182   19.2949 S   0  0  0  0  0  0  0  0  0  0  0  0
    7.0296  -13.8125   20.3588 C   0  0  0  0  0  0  0  0  0  0  0  0
    8.2646  -14.6131   20.3261 C   0  0  0  0  0  0  0  0  0  0  0  0
    8.2877  -15.8231   21.1687 C   0  0  2  0  0  0  0  0  0  0  0  0
    6.9681  -16.4264   21.3358 N   0  0  0  0  0  0  0  0  0  0  0  0
    8.7874  -15.4731   22.5652 C   0  0  0  0  0  0  0  0  0  0  0  0
    9.9471  -15.0728   22.6756 O   0  0  0  0  0  0  0  0  0  0  0  0
    7.9760  -15.5921   23.7155 N   0  0  0  0  0  0  0  0  0  0  0  0
    8.4531  -15.3604   25.0556 C   0  0  1  0  0  0  0  0  0  0  0  0
    7.3734  -14.8660   25.9822 C   0  0  0  0  0  0  0  0  0  0  0  0
    6.3290  -13.6040   25.2642 S   0  0  0  0  0  0  0  0  0  0  0  0
    9.1636  -16.5579   25.5702 C   0  0  0  0  0  0  0  0  0  0  0  0
    8.5160  -17.6338   25.7246 O   0  0  0  0  0  0  0  0  0  0  0  0
   10.5305  -16.5664   25.8993 N   0  0  0  0  0  0  0  0  0  0  0  0
   11.2451  -17.7536   26.3812 C   0  0  1  0  0  0  0  0  0  0  0  0
   12.6762  -17.6711   25.9192 C   0  0  0  0  0  0  0  0  0  0  0  0
   12.8661  -17.6996   24.4478 C   0  0  0  0  0  0  0  0  0  0  0  0
   13.8242  -16.7285   23.9086 C   0  0  0  0  0  0  0  0  0  0  0  0
   14.5591  -15.9779   24.5610 O   0  0  0  0  0  0  0  0  0  0  0  0
   11.2649  -17.7822   27.8648 C   0  0  0  0  0  0  0  0  0  0  0  0
   10.7972  -16.8446   28.5546 O   0  0  0  0  0  0  0  0  0  0  0  0
   13.9132  -16.6458   22.5050 O   0  0  0  0  0  0  0  0  0  0  0  0
   11.8121  -18.8682   28.5273 O   0  0  0  0  0  0  0  0  0  0  0  0
  2  1  1  0
  3  2  1  0
  4  5  1  0
  4  3  1  0
  5  7  1  0
  5  6  1  1
  7  9  1  0
  7  8  2  0
  9 10  1  0
 10 13  1  0
 10 11  1  1
 12 11  1  0
 13 14  2  0
 15 16  1  0
 15 13  1  0
 16 21  1  0
 16 17  1  6
 18 17  1  0
 19 18  1  0
 19 20  2  0
 21 24  1  0
 22 21  2  0
 23 19  1  0
M  END
$$$$
