MCE.pdb
     RDKit          3D

 24 23  0  0  1  0  0  0  0  0999 V2000
    8.5085  -11.1336   19.8071 C   0  0  0  0  0  0  0  0  0  0  0  0
    7.6087  -12.2842   18.7935 S   0  0  0  0  0  0  0  0  0  0  0  0
    7.4917  -13.9541   19.3210 C   0  0  0  0  0  0  0  0  0  0  0  0
    7.4408  -14.1892   20.7733 C   0  0  0  0  0  0  0  0  0  0  0  0
    7.1884  -15.5756   21.2077 C   0  0  2  0  0  0  0  0  0  0  0  0
    5.8084  -15.9998   20.9868 N   0  0  0  0  0  0  0  0  0  0  0  0
    7.4511  -15.7066   22.7030 C   0  0  0  0  0  0  0  0  0  0  0  0
    6.8727  -14.9232   23.4576 O   0  0  0  0  0  0  0  0  0  0  0  0
    8.3219  -16.6808   23.2400 N   0  0  0  0  0  0  0  0  0  0  0  0
    8.5475  -16.8574   24.6525 C   0  0  1  0  0  0  0  0  0  0  0  0
    7.2677  -16.9807   25.4371 C   0  0  0  0  0  0  0  0  0  0  0  0
    6.0880  -18.1170   24.7188 S   0  0  0  0  0  0  0  0  0  0  0  0
    9.4925  -17.9765   24.8934 C   0  0  0  0  0  0  0  0  0  0  0  0
    9.4421  -18.9921   24.1406 O   0  0  0  0  0  0  0  0  0  0  0  0
   10.4519  -17.9734   25.9211 N   0  0  0  0  0  0  0  0  0  0  0  0
   11.8583  -18.3417   25.7240 C   0  0  1  0  0  0  0  0  0  0  0  0
   12.5096  -17.2970   24.8564 C   0  0  0  0  0  0  0  0  0  0  0  0
   13.9515  -17.5148   24.5823 C   0  0  0  0  0  0  0  0  0  0  0  0
   14.5670  -16.5884   23.6260 C   0  0  0  0  0  0  0  0  0  0  0  0
   14.0065  -15.6563   23.0378 O   0  0  0  0  0  0  0  0  0  0  0  0
   12.5811  -18.3473   27.0200 C   0  0  0  0  0  0  0  0  0  0  0  0
   12.1245  -17.7754   28.0389 O   0  0  0  0  0  0  0  0  0  0  0  0
   15.9353  -16.7835   23.3529 O   0  0  0  0  0  0  0  0  0  0  0  0
   13.7985  -18.9982   27.1289 O   0  0  0  0  0  0  0  0  0  0  0  0
  2  1  1  0
  3  2  1  0
  4  5  1  0
  4  3  1  0
  5  7  1  0
  5  6  1  1
  7  9  1  0
  7  8  2  0
  9 10  1  0
 10 13  1  0
 10 11  1  1
 12 11  1  0
 13 14  2  0
 15 16  1  0
 15 13  1  0
 16 21  1  0
 16 17  1  6
 18 17  1  0
 19 18  1  0
 19 20  2  0
 21 24  1  0
 22 21  2  0
 23 19  1  0
M  END
$$$$
