MCE.pdb
     RDKit          3D

 24 23  0  0  1  0  0  0  0  0999 V2000
   16.3039  -17.8098   40.2749 C   0  0  0  0  0  0  0  0  0  0  0  0
   14.9646  -18.0719   41.4144 S   0  0  0  0  0  0  0  0  0  0  0  0
   14.8847  -19.5973   42.2787 C   0  0  0  0  0  0  0  0  0  0  0  0
   14.7563  -20.8162   41.4633 C   0  0  0  0  0  0  0  0  0  0  0  0
   13.5077  -21.5850   41.6197 C   0  0  2  0  0  0  0  0  0  0  0  0
   13.4344  -22.3004   42.8909 N   0  0  0  0  0  0  0  0  0  0  0  0
   13.4046  -22.6359   40.5210 C   0  0  0  0  0  0  0  0  0  0  0  0
   13.9960  -23.7030   40.6910 O   0  0  0  0  0  0  0  0  0  0  0  0
   12.6653  -22.4270   39.3354 N   0  0  0  0  0  0  0  0  0  0  0  0
   12.5248  -23.4175   38.2980 C   0  0  1  0  0  0  0  0  0  0  0  0
   11.1290  -23.4794   37.7352 C   0  0  0  0  0  0  0  0  0  0  0  0
    9.8835  -23.9162   38.9423 S   0  0  0  0  0  0  0  0  0  0  0  0
   13.5681  -23.2346   37.2580 C   0  0  0  0  0  0  0  0  0  0  0  0
   14.2001  -22.1396   37.2119 O   0  0  0  0  0  0  0  0  0  0  0  0
   13.8991  -24.2191   36.3104 N   0  0  0  0  0  0  0  0  0  0  0  0
   14.9487  -24.0558   35.2985 C   0  0  1  0  0  0  0  0  0  0  0  0
   16.2532  -23.7859   36.0011 C   0  0  0  0  0  0  0  0  0  0  0  0
   17.4436  -23.7217   35.1176 C   0  0  0  0  0  0  0  0  0  0  0  0
   18.7324  -23.5415   35.7944 C   0  0  0  0  0  0  0  0  0  0  0  0
   19.4813  -24.4363   36.2038 O   0  0  0  0  0  0  0  0  0  0  0  0
   15.1210  -25.3080   34.5210 C   0  0  0  0  0  0  0  0  0  0  0  0
   14.9747  -26.4399   35.0417 O   0  0  0  0  0  0  0  0  0  0  0  0
   19.1564  -22.2133   35.9966 O   0  0  0  0  0  0  0  0  0  0  0  0
   15.4535  -25.2469   33.1781 O   0  0  0  0  0  0  0  0  0  0  0  0
  2  1  1  0
  3  2  1  0
  4  5  1  0
  4  3  1  0
  5  7  1  0
  5  6  1  1
  7  9  1  0
  7  8  2  0
  9 10  1  0
 10 13  1  0
 10 11  1  6
 12 11  1  0
 13 14  2  0
 15 16  1  0
 15 13  1  0
 16 21  1  0
 16 17  1  1
 18 17  1  0
 19 18  1  0
 19 20  2  0
 21 24  1  0
 22 21  2  0
 23 19  1  0
M  END
$$$$
