MCE.pdb
     RDKit          3D

 24 23  0  0  1  0  0  0  0  0999 V2000
    8.3172  -11.9828   20.3094 C   0  0  0  0  0  0  0  0  0  0  0  0
    7.8336  -12.9810   18.9199 S   0  0  0  0  0  0  0  0  0  0  0  0
    7.9641  -14.7261   19.0545 C   0  0  0  0  0  0  0  0  0  0  0  0
    9.3239  -15.2883   19.0997 C   0  0  0  0  0  0  0  0  0  0  0  0
    9.5416  -16.4118   20.0297 C   0  0  2  0  0  0  0  0  0  0  0  0
    8.3423  -17.2187   20.2392 N   0  0  0  0  0  0  0  0  0  0  0  0
    9.9544  -15.8807   21.3971 C   0  0  0  0  0  0  0  0  0  0  0  0
   11.0153  -15.2594   21.4745 O   0  0  0  0  0  0  0  0  0  0  0  0
    9.1721  -16.0761   22.5570 N   0  0  0  0  0  0  0  0  0  0  0  0
    9.6987  -16.0011   23.8965 C   0  0  1  0  0  0  0  0  0  0  0  0
    8.6567  -15.6133   24.9126 C   0  0  0  0  0  0  0  0  0  0  0  0
    6.9909  -15.5837   24.2620 S   0  0  0  0  0  0  0  0  0  0  0  0
   10.4189  -17.2518   24.2440 C   0  0  0  0  0  0  0  0  0  0  0  0
   10.4345  -18.2009   23.4076 O   0  0  0  0  0  0  0  0  0  0  0  0
   11.0930  -17.4451   25.4626 N   0  0  0  0  0  0  0  0  0  0  0  0
   12.4759  -17.9249   25.5616 C   0  0  1  0  0  0  0  0  0  0  0  0
   13.3899  -16.8714   24.9935 C   0  0  0  0  0  0  0  0  0  0  0  0
   13.8087  -17.0919   23.5872 C   0  0  0  0  0  0  0  0  0  0  0  0
   15.0297  -16.3957   23.1676 C   0  0  0  0  0  0  0  0  0  0  0  0
   15.7419  -15.6687   23.8700 O   0  0  0  0  0  0  0  0  0  0  0  0
   12.8592  -18.1175   26.9822 C   0  0  0  0  0  0  0  0  0  0  0  0
   13.9580  -18.6249   27.3119 O   0  0  0  0  0  0  0  0  0  0  0  0
   15.4280  -16.5762   21.8284 O   0  0  0  0  0  0  0  0  0  0  0  0
   11.9912  -17.7318   27.9900 O   0  0  0  0  0  0  0  0  0  0  0  0
  2  1  1  0
  3  2  1  0
  4  5  1  0
  4  3  1  0
  5  7  1  0
  5  6  1  1
  7  9  1  0
  7  8  2  0
  9 10  1  0
 10 13  1  0
 10 11  1  1
 12 11  1  0
 13 14  2  0
 15 16  1  0
 15 13  1  0
 16 21  1  0
 16 17  1  1
 18 17  1  0
 19 18  1  0
 19 20  2  0
 21 24  1  0
 22 21  2  0
 23 19  1  0
M  END
$$$$
