MCE.pdb
     RDKit          3D

 24 23  0  0  1  0  0  0  0  0999 V2000
    6.8294  -11.0654   26.1204 C   0  0  0  0  0  0  0  0  0  0  0  0
    6.2870  -12.7584   26.1016 S   0  0  0  0  0  0  0  0  0  0  0  0
    6.0364  -13.5421   24.5513 C   0  0  0  0  0  0  0  0  0  0  0  0
    7.1354  -13.4506   23.5761 C   0  0  0  0  0  0  0  0  0  0  0  0
    7.8599  -14.7006   23.2809 C   0  0  2  0  0  0  0  0  0  0  0  0
    7.0835  -15.8971   23.5952 N   0  0  0  0  0  0  0  0  0  0  0  0
    9.1313  -14.7731   24.1178 C   0  0  0  0  0  0  0  0  0  0  0  0
    9.9228  -13.8324   24.0410 O   0  0  0  0  0  0  0  0  0  0  0  0
    9.4243  -15.8664   24.9631 N   0  0  0  0  0  0  0  0  0  0  0  0
   10.5876  -15.9295   25.8117 C   0  0  1  0  0  0  0  0  0  0  0  0
   10.7113  -14.7360   26.7221 C   0  0  0  0  0  0  0  0  0  0  0  0
    9.8690  -14.9327   28.2876 S   0  0  0  0  0  0  0  0  0  0  0  0
   10.6358  -17.2252   26.5344 C   0  0  0  0  0  0  0  0  0  0  0  0
    9.5767  -17.6689   27.0654 O   0  0  0  0  0  0  0  0  0  0  0  0
   11.8036  -17.9973   26.6642 N   0  0  0  0  0  0  0  0  0  0  0  0
   11.8475  -19.3020   27.3338 C   0  0  1  0  0  0  0  0  0  0  0  0
   13.1082  -20.0121   26.9163 C   0  0  0  0  0  0  0  0  0  0  0  0
   13.3109  -20.1275   25.4509 C   0  0  0  0  0  0  0  0  0  0  0  0
   14.6880  -19.9440   24.9802 C   0  0  0  0  0  0  0  0  0  0  0  0
   15.6877  -19.7529   25.6824 O   0  0  0  0  0  0  0  0  0  0  0  0
   11.9094  -19.1290   28.8064 C   0  0  0  0  0  0  0  0  0  0  0  0
   12.0877  -18.0066   29.3375 O   0  0  0  0  0  0  0  0  0  0  0  0
   14.8877  -19.9909   23.5863 O   0  0  0  0  0  0  0  0  0  0  0  0
   11.7684  -20.2278   29.6373 O   0  0  0  0  0  0  0  0  0  0  0  0
  2  1  1  0
  3  2  1  0
  4  5  1  0
  4  3  1  0
  5  7  1  0
  5  6  1  1
  7  9  1  0
  7  8  2  0
  9 10  1  0
 10 13  1  0
 10 11  1  1
 12 11  1  0
 13 14  2  0
 15 16  1  0
 15 13  1  0
 16 21  1  0
 16 17  1  6
 18 17  1  0
 19 18  1  0
 19 20  2  0
 21 24  1  0
 22 21  2  0
 23 19  1  0
M  END
$$$$
