MCE.pdb
     RDKit          3D

 24 23  0  0  1  0  0  0  0  0999 V2000
    7.3131  -11.1619   26.6321 C   0  0  0  0  0  0  0  0  0  0  0  0
    6.1261  -12.4811   26.5249 S   0  0  0  0  0  0  0  0  0  0  0  0
    6.6080  -14.0876   27.0419 C   0  0  0  0  0  0  0  0  0  0  0  0
    7.4827  -14.8435   26.1304 C   0  0  0  0  0  0  0  0  0  0  0  0
    6.8137  -15.6410   25.0859 C   0  0  2  0  0  0  0  0  0  0  0  0
    6.1631  -16.8382   25.6121 N   0  0  0  0  0  0  0  0  0  0  0  0
    7.8365  -16.1152   24.0606 C   0  0  0  0  0  0  0  0  0  0  0  0
    8.4337  -17.1677   24.2909 O   0  0  0  0  0  0  0  0  0  0  0  0
    8.1155  -15.3973   22.8764 N   0  0  0  0  0  0  0  0  0  0  0  0
    9.0969  -15.8109   21.9053 C   0  0  1  0  0  0  0  0  0  0  0  0
    8.9025  -15.1554   20.5632 C   0  0  0  0  0  0  0  0  0  0  0  0
    7.1883  -15.0072   20.0746 S   0  0  0  0  0  0  0  0  0  0  0  0
   10.4688  -15.6420   22.4464 C   0  0  0  0  0  0  0  0  0  0  0  0
   10.9227  -14.4722   22.6080 O   0  0  0  0  0  0  0  0  0  0  0  0
   11.3029  -16.7190   22.7945 N   0  0  0  0  0  0  0  0  0  0  0  0
   12.6161  -16.5606   23.4292 C   0  0  1  0  0  0  0  0  0  0  0  0
   12.4800  -16.8753   24.8957 C   0  0  0  0  0  0  0  0  0  0  0  0
   11.7821  -18.1476   25.2053 C   0  0  0  0  0  0  0  0  0  0  0  0
   11.7018  -18.5028   26.6262 C   0  0  0  0  0  0  0  0  0  0  0  0
   12.5905  -18.3574   27.4736 O   0  0  0  0  0  0  0  0  0  0  0  0
   13.5880  -17.5281   22.8620 C   0  0  0  0  0  0  0  0  0  0  0  0
   13.2381  -18.4356   22.0697 O   0  0  0  0  0  0  0  0  0  0  0  0
   10.4877  -19.0661   27.0660 O   0  0  0  0  0  0  0  0  0  0  0  0
   14.9269  -17.4436   23.2053 O   0  0  0  0  0  0  0  0  0  0  0  0
  2  1  1  0
  3  2  1  0
  4  5  1  0
  4  3  1  0
  5  7  1  0
  5  6  1  1
  7  9  1  0
  7  8  2  0
  9 10  1  0
 10 13  1  0
 10 11  1  6
 12 11  1  0
 13 14  2  0
 15 16  1  0
 15 13  1  0
 16 21  1  0
 16 17  1  1
 18 17  1  0
 19 18  1  0
 19 20  2  0
 21 24  1  0
 22 21  2  0
 23 19  1  0
M  END
$$$$
