MCE.pdb
     RDKit          3D

 24 23  0  0  1  0  0  0  0  0999 V2000
    6.9211  -11.2914   19.2393 C   0  0  0  0  0  0  0  0  0  0  0  0
    6.7491  -12.7640   18.2581 S   0  0  0  0  0  0  0  0  0  0  0  0
    7.5379  -14.2335   18.8048 C   0  0  0  0  0  0  0  0  0  0  0  0
    8.4482  -14.1095   19.9552 C   0  0  0  0  0  0  0  0  0  0  0  0
    9.0823  -15.3531   20.4304 C   0  0  2  0  0  0  0  0  0  0  0  0
    8.1531  -16.4781   20.4947 N   0  0  0  0  0  0  0  0  0  0  0  0
    9.6235  -15.1532   21.8408 C   0  0  0  0  0  0  0  0  0  0  0  0
   10.0008  -14.0235   22.1554 O   0  0  0  0  0  0  0  0  0  0  0  0
    9.7043  -16.2046   22.7808 N   0  0  0  0  0  0  0  0  0  0  0  0
   10.1940  -16.0364   24.1259 C   0  0  1  0  0  0  0  0  0  0  0  0
    9.1371  -15.5324   25.0732 C   0  0  0  0  0  0  0  0  0  0  0  0
    7.6879  -16.5772   25.1588 S   0  0  0  0  0  0  0  0  0  0  0  0
   10.8597  -17.2766   24.5970 C   0  0  0  0  0  0  0  0  0  0  0  0
   10.2546  -18.3807   24.4722 O   0  0  0  0  0  0  0  0  0  0  0  0
   12.1389  -17.2963   25.1803 N   0  0  0  0  0  0  0  0  0  0  0  0
   12.8478  -18.5269   25.5481 C   0  0  1  0  0  0  0  0  0  0  0  0
   14.3233  -18.3103   25.3381 C   0  0  0  0  0  0  0  0  0  0  0  0
   14.6828  -17.5786   24.0983 C   0  0  0  0  0  0  0  0  0  0  0  0
   15.7225  -16.5537   24.2402 C   0  0  0  0  0  0  0  0  0  0  0  0
   15.5509  -15.3296   24.2748 O   0  0  0  0  0  0  0  0  0  0  0  0
   12.6503  -18.8307   26.9872 C   0  0  0  0  0  0  0  0  0  0  0  0
   11.9722  -18.0879   27.7370 O   0  0  0  0  0  0  0  0  0  0  0  0
   17.0495  -17.0146   24.3477 O   0  0  0  0  0  0  0  0  0  0  0  0
   13.2237  -19.9640   27.5388 O   0  0  0  0  0  0  0  0  0  0  0  0
  2  1  1  0
  3  2  1  0
  4  5  1  0
  4  3  1  0
  5  7  1  0
  5  6  1  1
  7  9  1  0
  7  8  2  0
  9 10  1  0
 10 13  1  0
 10 11  1  1
 12 11  1  0
 13 14  2  0
 15 16  1  0
 15 13  1  0
 16 21  1  0
 16 17  1  1
 18 17  1  0
 19 18  1  0
 19 20  2  0
 21 24  1  0
 22 21  2  0
 23 19  1  0
M  END
$$$$
