MCE.pdb
     RDKit          3D

 24 23  0  0  1  0  0  0  0  0999 V2000
   10.7479  -13.4927   29.0417 C   0  0  0  0  0  0  0  0  0  0  0  0
   11.3329  -15.1682   28.9348 S   0  0  0  0  0  0  0  0  0  0  0  0
   10.2396  -16.4019   28.3323 C   0  0  0  0  0  0  0  0  0  0  0  0
    8.8984  -15.9562   27.9203 C   0  0  0  0  0  0  0  0  0  0  0  0
    7.9884  -16.9957   27.4046 C   0  0  2  0  0  0  0  0  0  0  0  0
    8.4702  -18.3512   27.6571 N   0  0  0  0  0  0  0  0  0  0  0  0
    7.8464  -16.8575   25.8937 C   0  0  0  0  0  0  0  0  0  0  0  0
    7.7058  -17.8884   25.2343 O   0  0  0  0  0  0  0  0  0  0  0  0
    7.8710  -15.6061   25.2386 N   0  0  0  0  0  0  0  0  0  0  0  0
    7.8016  -15.4535   23.8071 C   0  0  1  0  0  0  0  0  0  0  0  0
    7.6055  -14.0221   23.3814 C   0  0  0  0  0  0  0  0  0  0  0  0
    6.8958  -12.9826   24.6522 S   0  0  0  0  0  0  0  0  0  0  0  0
    8.9667  -16.1037   23.1566 C   0  0  0  0  0  0  0  0  0  0  0  0
    8.7852  -16.7556   22.0876 O   0  0  0  0  0  0  0  0  0  0  0  0
   10.2758  -16.0361   23.6650 N   0  0  0  0  0  0  0  0  0  0  0  0
   11.3942  -16.8302   23.1442 C   0  0  1  0  0  0  0  0  0  0  0  0
   11.8833  -16.1910   21.8713 C   0  0  0  0  0  0  0  0  0  0  0  0
   12.9464  -15.1707   22.0464 C   0  0  0  0  0  0  0  0  0  0  0  0
   13.6246  -14.7379   20.8199 C   0  0  0  0  0  0  0  0  0  0  0  0
   14.5399  -13.9107   20.7364 O   0  0  0  0  0  0  0  0  0  0  0  0
   12.5278  -16.8227   24.1018 C   0  0  0  0  0  0  0  0  0  0  0  0
   12.5070  -16.1369   25.1520 O   0  0  0  0  0  0  0  0  0  0  0  0
   13.1859  -15.3266   19.6174 O   0  0  0  0  0  0  0  0  0  0  0  0
   13.6525  -17.5892   23.8465 O   0  0  0  0  0  0  0  0  0  0  0  0
  2  1  1  0
  3  2  1  0
  4  5  1  0
  4  3  1  0
  5  7  1  0
  5  6  1  6
  7  9  1  0
  7  8  2  0
  9 10  1  0
 10 13  1  0
 10 11  1  1
 12 11  1  0
 13 14  2  0
 15 16  1  0
 15 13  1  0
 16 21  1  0
 16 17  1  6
 18 17  1  0
 19 18  1  0
 19 20  2  0
 21 24  1  0
 22 21  2  0
 23 19  1  0
M  END
$$$$
