MCE.pdb
     RDKit          3D

 24 23  0  0  1  0  0  0  0  0999 V2000
    5.6193  -10.6904   25.9788 C   0  0  0  0  0  0  0  0  0  0  0  0
    6.2357  -12.1182   26.8404 S   0  0  0  0  0  0  0  0  0  0  0  0
    5.9390  -13.7058   26.1533 C   0  0  0  0  0  0  0  0  0  0  0  0
    7.1026  -14.4169   25.5988 C   0  0  0  0  0  0  0  0  0  0  0  0
    6.8285  -15.6914   24.9095 C   0  0  2  0  0  0  0  0  0  0  0  0
    6.3917  -16.7482   25.8181 N   0  0  0  0  0  0  0  0  0  0  0  0
    8.0955  -16.1964   24.2299 C   0  0  0  0  0  0  0  0  0  0  0  0
    8.7336  -17.0858   24.7947 O   0  0  0  0  0  0  0  0  0  0  0  0
    8.5520  -15.6845   22.9948 N   0  0  0  0  0  0  0  0  0  0  0  0
    9.6451  -16.2561   22.2495 C   0  0  1  0  0  0  0  0  0  0  0  0
    9.6632  -15.8153   20.8093 C   0  0  0  0  0  0  0  0  0  0  0  0
    8.1927  -16.2689   19.8978 S   0  0  0  0  0  0  0  0  0  0  0  0
   10.9326  -16.0214   22.9501 C   0  0  0  0  0  0  0  0  0  0  0  0
   11.2465  -14.8390   23.2728 O   0  0  0  0  0  0  0  0  0  0  0  0
   11.8339  -17.0487   23.2804 N   0  0  0  0  0  0  0  0  0  0  0  0
   13.1243  -16.8197   23.9397 C   0  0  1  0  0  0  0  0  0  0  0  0
   13.3532  -17.9223   24.9397 C   0  0  0  0  0  0  0  0  0  0  0  0
   12.3498  -18.0027   26.0299 C   0  0  0  0  0  0  0  0  0  0  0  0
   12.5055  -19.1265   26.9597 C   0  0  0  0  0  0  0  0  0  0  0  0
   13.3109  -20.0595   26.8599 O   0  0  0  0  0  0  0  0  0  0  0  0
   14.2313  -16.8862   22.9536 C   0  0  0  0  0  0  0  0  0  0  0  0
   14.0490  -17.2713   21.7737 O   0  0  0  0  0  0  0  0  0  0  0  0
   11.6490  -19.1407   28.0782 O   0  0  0  0  0  0  0  0  0  0  0  0
   15.5123  -16.5162   23.3274 O   0  0  0  0  0  0  0  0  0  0  0  0
  2  1  1  0
  3  2  1  0
  4  5  1  0
  4  3  1  0
  5  7  1  0
  5  6  1  1
  7  9  1  0
  7  8  2  0
  9 10  1  0
 10 13  1  0
 10 11  1  6
 12 11  1  0
 13 14  2  0
 15 16  1  0
 15 13  1  0
 16 21  1  0
 16 17  1  1
 18 17  1  0
 19 18  1  0
 19 20  2  0
 21 24  1  0
 22 21  2  0
 23 19  1  0
M  END
$$$$
