MCE.pdb
     RDKit          3D

 24 23  0  0  1  0  0  0  0  0999 V2000
    6.2085  -18.7277   20.5260 C   0  0  0  0  0  0  0  0  0  0  0  0
    6.5236  -17.5952   19.1922 S   0  0  0  0  0  0  0  0  0  0  0  0
    7.0185  -15.9570   19.5816 C   0  0  0  0  0  0  0  0  0  0  0  0
    6.6090  -15.4347   20.8956 C   0  0  0  0  0  0  0  0  0  0  0  0
    6.9454  -14.0272   21.1789 C   0  0  2  0  0  0  0  0  0  0  0  0
    7.6864  -13.3889   20.0942 N   0  0  0  0  0  0  0  0  0  0  0  0
    7.8282  -13.9443   22.4183 C   0  0  0  0  0  0  0  0  0  0  0  0
    9.0425  -13.8232   22.2502 O   0  0  0  0  0  0  0  0  0  0  0  0
    7.3059  -14.0014   23.7296 N   0  0  0  0  0  0  0  0  0  0  0  0
    8.1221  -13.9505   24.9163 C   0  0  1  0  0  0  0  0  0  0  0  0
    7.5175  -13.1027   26.0047 C   0  0  0  0  0  0  0  0  0  0  0  0
    5.7307  -13.1626   26.0569 S   0  0  0  0  0  0  0  0  0  0  0  0
    8.4720  -15.3207   25.3673 C   0  0  0  0  0  0  0  0  0  0  0  0
    7.5789  -16.2167   25.3506 O   0  0  0  0  0  0  0  0  0  0  0  0
    9.7533  -15.6853   25.8169 N   0  0  0  0  0  0  0  0  0  0  0  0
   10.1433  -17.0632   26.1362 C   0  0  1  0  0  0  0  0  0  0  0  0
   11.5388  -17.2973   25.6207 C   0  0  0  0  0  0  0  0  0  0  0  0
   11.6741  -17.2923   24.1431 C   0  0  0  0  0  0  0  0  0  0  0  0
   13.0198  -17.0216   23.6258 C   0  0  0  0  0  0  0  0  0  0  0  0
   14.0338  -16.7906   24.2946 O   0  0  0  0  0  0  0  0  0  0  0  0
   10.1794  -17.2662   27.6058 C   0  0  0  0  0  0  0  0  0  0  0  0
    9.9235  -16.3397   28.4119 O   0  0  0  0  0  0  0  0  0  0  0  0
   13.1677  -17.0262   22.2247 O   0  0  0  0  0  0  0  0  0  0  0  0
   10.5034  -18.5091   28.1234 O   0  0  0  0  0  0  0  0  0  0  0  0
  2  1  1  0
  3  2  1  0
  4  5  1  0
  4  3  1  0
  5  7  1  0
  5  6  1  6
  7  9  1  0
  7  8  2  0
  9 10  1  0
 10 13  1  0
 10 11  1  1
 12 11  1  0
 13 14  2  0
 15 16  1  0
 15 13  1  0
 16 21  1  0
 16 17  1  1
 18 17  1  0
 19 18  1  0
 19 20  2  0
 21 24  1  0
 22 21  2  0
 23 19  1  0
M  END
$$$$
