PWC.pdb
     RDKit          3D

 28 30  0  0  1  0  0  0  0  0999 V2000
    7.4551  -15.7464   20.9395 N   0  0  0  0  0  0  0  0  0  0  0  0
    6.4364  -14.7320   20.9511 C   0  0  0  0  0  0  0  0  0  0  0  0
    7.0143  -13.4596   20.4163 C   0  0  0  0  0  0  0  0  0  0  0  0
    8.4875  -13.6973   20.3540 C   0  0  0  0  0  0  0  0  0  0  0  0
    8.7244  -15.1034   20.8435 C   0  0  1  0  0  0  0  0  0  0  0  0
    9.4216  -15.1476   22.1470 C   0  0  0  0  0  0  0  0  0  0  0  0
   10.4472  -14.4537   22.3167 O   0  0  0  0  0  0  0  0  0  0  0  0
    8.9651  -15.9550   23.2189 N   0  0  0  0  0  0  0  0  0  0  0  0
    9.6334  -16.0222   24.4974 C   0  0  1  0  0  0  0  0  0  0  0  0
    8.6762  -16.4120   25.6082 C   0  0  0  0  0  0  0  0  0  0  0  0
    7.5781  -15.4112   25.6219 C   0  0  0  0  0  0  0  0  0  0  0  0
    6.2623  -15.6771   25.2779 C   0  0  0  0  0  0  0  0  0  0  0  0
    5.6043  -14.5266   25.4193 N   0  0  0  0  0  0  0  0  0  0  0  0
    6.4279  -13.5397   25.8351 C   0  0  0  0  0  0  0  0  0  0  0  0
    6.2615  -12.1970   26.1294 C   0  0  0  0  0  0  0  0  0  0  0  0
    7.3161  -11.3933   26.5512 C   0  0  0  0  0  0  0  0  0  0  0  0
    8.5775  -11.9572   26.6810 C   0  0  0  0  0  0  0  0  0  0  0  0
    8.7206  -13.2858   26.3851 C   0  0  0  0  0  0  0  0  0  0  0  0
    7.6880  -14.0831   25.9697 C   0  0  0  0  0  0  0  0  0  0  0  0
   10.8138  -16.9295   24.4550 C   0  0  0  0  0  0  0  0  0  0  0  0
   10.6467  -18.1188   24.0787 O   0  0  0  0  0  0  0  0  0  0  0  0
   12.1097  -16.4856   24.8267 N   0  0  0  0  0  0  0  0  0  0  0  0
   13.2623  -17.3333   24.8759 C   0  0  1  0  0  0  0  0  0  0  0  0
   14.5626  -16.6246   24.6617 C   0  0  0  0  0  0  0  0  0  0  0  0
   14.4815  -15.7162   23.0915 S   0  0  0  0  0  0  0  0  0  0  0  0
   13.3108  -18.1213   26.1568 C   0  0  0  0  0  0  0  0  0  0  0  0
   14.2119  -18.9379   26.4045 O   0  0  0  0  0  0  0  0  0  0  0  0
   12.2953  -17.9071   27.0809 O   0  0  0  0  0  0  0  0  0  0  0  0
  1  2  1  0
  3  2  1  0
  4  5  1  0
  4  3  1  0
  5  1  1  0
  6  8  1  0
  5  6  1  1
  7  6  2  0
  9  8  1  0
 10 11  1  0
  9 10  1  1
 11 12  2  0
 11 19  1  0
 12 13  1  0
 13 14  1  0
 14 15  2  0
 15 16  1  0
 17 16  2  0
 18 17  1  0
 19 18  2  0
 19 14  1  0
 20  9  1  0
 20 21  2  0
 22 20  1  0
 23 24  1  1
 23 22  1  0
 25 24  1  0
 26 23  1  0
 27 26  2  0
 28 26  1  0
M  END
$$$$
