PWC.pdb
     RDKit          3D

 28 30  0  0  1  0  0  0  0  0999 V2000
    7.7085  -15.8043   20.8200 N   0  0  0  0  0  0  0  0  0  0  0  0
    6.5929  -14.9043   20.7089 C   0  0  0  0  0  0  0  0  0  0  0  0
    7.0849  -13.5835   20.2065 C   0  0  0  0  0  0  0  0  0  0  0  0
    8.5736  -13.6633   20.2953 C   0  0  0  0  0  0  0  0  0  0  0  0
    8.9064  -15.0307   20.8362 C   0  0  1  0  0  0  0  0  0  0  0  0
    9.4697  -14.9859   22.2029 C   0  0  0  0  0  0  0  0  0  0  0  0
   10.4166  -14.2084   22.4498 O   0  0  0  0  0  0  0  0  0  0  0  0
    8.9705  -15.7993   23.2508 N   0  0  0  0  0  0  0  0  0  0  0  0
    9.5342  -15.8089   24.5804 C   0  0  1  0  0  0  0  0  0  0  0  0
    8.5077  -16.2200   25.6194 C   0  0  0  0  0  0  0  0  0  0  0  0
    7.4149  -15.2139   25.5888 C   0  0  0  0  0  0  0  0  0  0  0  0
    6.1336  -15.4530   25.1183 C   0  0  0  0  0  0  0  0  0  0  0  0
    5.4684  -14.3068   25.2608 N   0  0  0  0  0  0  0  0  0  0  0  0
    6.2547  -13.3479   25.7968 C   0  0  0  0  0  0  0  0  0  0  0  0
    6.0663  -12.0209   26.1440 C   0  0  0  0  0  0  0  0  0  0  0  0
    7.0819  -11.2469   26.6967 C   0  0  0  0  0  0  0  0  0  0  0  0
    8.3259  -11.8251   26.9067 C   0  0  0  0  0  0  0  0  0  0  0  0
    8.4912  -13.1378   26.5566 C   0  0  0  0  0  0  0  0  0  0  0  0
    7.4971  -13.9060   26.0125 C   0  0  0  0  0  0  0  0  0  0  0  0
   10.7537  -16.6607   24.6557 C   0  0  0  0  0  0  0  0  0  0  0  0
   10.6875  -17.8462   24.2388 O   0  0  0  0  0  0  0  0  0  0  0  0
   11.9762  -16.1683   25.1828 N   0  0  0  0  0  0  0  0  0  0  0  0
   13.1493  -16.9686   25.3637 C   0  0  1  0  0  0  0  0  0  0  0  0
   14.3835  -16.1921   25.6998 C   0  0  0  0  0  0  0  0  0  0  0  0
   13.9055  -14.7107   26.6348 S   0  0  0  0  0  0  0  0  0  0  0  0
   12.9259  -18.0481   26.3878 C   0  0  0  0  0  0  0  0  0  0  0  0
   11.8760  -18.1395   27.0432 O   0  0  0  0  0  0  0  0  0  0  0  0
   13.9507  -18.9651   26.5877 O   0  0  0  0  0  0  0  0  0  0  0  0
  1  2  1  0
  3  2  1  0
  4  5  1  0
  4  3  1  0
  5  1  1  0
  6  8  1  0
  5  6  1  1
  7  6  2  0
  9  8  1  0
 10 11  1  0
  9 10  1  1
 11 12  2  0
 11 19  1  0
 12 13  1  0
 13 14  1  0
 14 15  2  0
 15 16  1  0
 17 16  2  0
 18 17  1  0
 19 18  2  0
 19 14  1  0
 20  9  1  0
 20 21  2  0
 22 20  1  0
 23 24  1  1
 23 22  1  0
 25 24  1  0
 26 23  1  0
 27 26  2  0
 28 26  1  0
M  END
$$$$
