PWC.pdb
     RDKit          3D

 28 30  0  0  1  0  0  0  0  0999 V2000
    7.4199  -15.8800   20.9803 N   0  0  0  0  0  0  0  0  0  0  0  0
    6.2695  -15.0178   20.9882 C   0  0  0  0  0  0  0  0  0  0  0  0
    6.6824  -13.6558   20.5265 C   0  0  0  0  0  0  0  0  0  0  0  0
    8.1756  -13.6843   20.5161 C   0  0  0  0  0  0  0  0  0  0  0  0
    8.5894  -15.0641   20.9614 C   0  0  1  0  0  0  0  0  0  0  0  0
    9.2390  -15.0678   22.2899 C   0  0  0  0  0  0  0  0  0  0  0  0
   10.0824  -14.1864   22.5616 O   0  0  0  0  0  0  0  0  0  0  0  0
    8.9371  -16.0425   23.2737 N   0  0  0  0  0  0  0  0  0  0  0  0
    9.6122  -16.1137   24.5484 C   0  0  1  0  0  0  0  0  0  0  0  0
    8.6631  -16.5168   25.6614 C   0  0  0  0  0  0  0  0  0  0  0  0
    7.5454  -15.5380   25.6704 C   0  0  0  0  0  0  0  0  0  0  0  0
    6.2484  -15.8159   25.2689 C   0  0  0  0  0  0  0  0  0  0  0  0
    5.5628  -14.6839   25.4270 N   0  0  0  0  0  0  0  0  0  0  0  0
    6.3508  -13.6974   25.9077 C   0  0  0  0  0  0  0  0  0  0  0  0
    6.1469  -12.3697   26.2433 C   0  0  0  0  0  0  0  0  0  0  0  0
    7.1693  -11.5622   26.7319 C   0  0  0  0  0  0  0  0  0  0  0  0
    8.4362  -12.1066   26.8878 C   0  0  0  0  0  0  0  0  0  0  0  0
    8.6166  -13.4206   26.5502 C   0  0  0  0  0  0  0  0  0  0  0  0
    7.6159  -14.2216   26.0690 C   0  0  0  0  0  0  0  0  0  0  0  0
   10.7983  -17.0130   24.4943 C   0  0  0  0  0  0  0  0  0  0  0  0
   10.6535  -18.1743   24.0315 O   0  0  0  0  0  0  0  0  0  0  0  0
   12.0751  -16.5921   24.9495 N   0  0  0  0  0  0  0  0  0  0  0  0
   13.2263  -17.4416   25.0005 C   0  0  1  0  0  0  0  0  0  0  0  0
   14.5336  -16.7202   24.9039 C   0  0  0  0  0  0  0  0  0  0  0  0
   14.4737  -15.5890   23.4846 S   0  0  0  0  0  0  0  0  0  0  0  0
   13.2105  -18.3160   26.2249 C   0  0  0  0  0  0  0  0  0  0  0  0
   12.3263  -18.2347   27.0919 O   0  0  0  0  0  0  0  0  0  0  0  0
   14.2372  -19.2418   26.3656 O   0  0  0  0  0  0  0  0  0  0  0  0
  1  2  1  0
  3  2  1  0
  4  5  1  0
  4  3  1  0
  5  1  1  0
  6  8  1  0
  5  6  1  1
  7  6  2  0
  9  8  1  0
 10 11  1  0
  9 10  1  1
 11 12  2  0
 11 19  1  0
 12 13  1  0
 13 14  1  0
 14 15  2  0
 15 16  1  0
 17 16  2  0
 18 17  1  0
 19 18  2  0
 19 14  1  0
 20  9  1  0
 20 21  2  0
 22 20  1  0
 23 24  1  1
 23 22  1  0
 25 24  1  0
 26 23  1  0
 27 26  2  0
 28 26  1  0
M  END
$$$$
