PWC.pdb
     RDKit          3D

 28 30  0  0  1  0  0  0  0  0999 V2000
    7.4671  -15.3225   20.4393 N   0  0  0  0  0  0  0  0  0  0  0  0
    6.4371  -14.3204   20.4795 C   0  0  0  0  0  0  0  0  0  0  0  0
    7.0354  -12.9968   20.1203 C   0  0  0  0  0  0  0  0  0  0  0  0
    8.5122  -13.2185   20.1418 C   0  0  0  0  0  0  0  0  0  0  0  0
    8.7316  -14.6660   20.5020 C   0  0  1  0  0  0  0  0  0  0  0  0
    9.3336  -14.8393   21.8416 C   0  0  0  0  0  0  0  0  0  0  0  0
   10.3673  -14.2012   22.1356 O   0  0  0  0  0  0  0  0  0  0  0  0
    8.7763  -15.7099   22.8115 N   0  0  0  0  0  0  0  0  0  0  0  0
    9.4009  -15.9757   24.0861 C   0  0  1  0  0  0  0  0  0  0  0  0
    8.4059  -16.5233   25.0923 C   0  0  0  0  0  0  0  0  0  0  0  0
    7.3920  -15.4653   25.3375 C   0  0  0  0  0  0  0  0  0  0  0  0
    6.0352  -15.5983   25.0887 C   0  0  0  0  0  0  0  0  0  0  0  0
    5.4807  -14.4375   25.4372 N   0  0  0  0  0  0  0  0  0  0  0  0
    6.4092  -13.5696   25.8954 C   0  0  0  0  0  0  0  0  0  0  0  0
    6.3706  -12.2704   26.3728 C   0  0  0  0  0  0  0  0  0  0  0  0
    7.5152  -11.5993   26.7916 C   0  0  0  0  0  0  0  0  0  0  0  0
    8.7368  -12.2548   26.7283 C   0  0  0  0  0  0  0  0  0  0  0  0
    8.7531  -13.5383   26.2534 C   0  0  0  0  0  0  0  0  0  0  0  0
    7.6314  -14.2054   25.8396 C   0  0  0  0  0  0  0  0  0  0  0  0
   10.5803  -16.8744   23.9451 C   0  0  0  0  0  0  0  0  0  0  0  0
   10.6147  -17.6759   22.9754 O   0  0  0  0  0  0  0  0  0  0  0  0
   11.6548  -16.8462   24.8720 N   0  0  0  0  0  0  0  0  0  0  0  0
   12.8242  -17.6654   24.7664 C   0  0  1  0  0  0  0  0  0  0  0  0
   13.8492  -17.1607   23.8001 C   0  0  0  0  0  0  0  0  0  0  0  0
   14.3892  -15.5099   24.3298 S   0  0  0  0  0  0  0  0  0  0  0  0
   13.4560  -17.8976   26.1120 C   0  0  0  0  0  0  0  0  0  0  0  0
   13.0616  -17.3285   27.1419 O   0  0  0  0  0  0  0  0  0  0  0  0
   14.5205  -18.7886   26.1760 O   0  0  0  0  0  0  0  0  0  0  0  0
  1  2  1  0
  3  2  1  0
  4  5  1  0
  4  3  1  0
  5  1  1  0
  6  8  1  0
  5  6  1  1
  7  6  2  0
  9  8  1  0
 10 11  1  0
  9 10  1  1
 11 12  2  0
 11 19  1  0
 12 13  1  0
 13 14  1  0
 14 15  2  0
 15 16  1  0
 17 16  2  0
 18 17  1  0
 19 18  2  0
 19 14  1  0
 20  9  1  0
 20 21  2  0
 22 20  1  0
 23 24  1  6
 23 22  1  0
 25 24  1  0
 26 23  1  0
 27 26  2  0
 28 26  1  0
M  END
$$$$
