PWC.pdb
     RDKit          3D

 28 30  0  0  1  0  0  0  0  0999 V2000
    7.4427  -15.4093   20.3668 N   0  0  0  0  0  0  0  0  0  0  0  0
    6.4377  -14.3815   20.3885 C   0  0  0  0  0  0  0  0  0  0  0  0
    7.0700  -13.0784   20.0133 C   0  0  0  0  0  0  0  0  0  0  0  0
    8.5408  -13.3362   20.0441 C   0  0  0  0  0  0  0  0  0  0  0  0
    8.7228  -14.7834   20.4256 C   0  0  1  0  0  0  0  0  0  0  0  0
    9.3152  -14.9525   21.7700 C   0  0  0  0  0  0  0  0  0  0  0  0
   10.3559  -14.3259   22.0639 O   0  0  0  0  0  0  0  0  0  0  0  0
    8.7408  -15.8064   22.7447 N   0  0  0  0  0  0  0  0  0  0  0  0
    9.2655  -15.9427   24.0832 C   0  0  1  0  0  0  0  0  0  0  0  0
    8.1772  -16.3078   25.0754 C   0  0  0  0  0  0  0  0  0  0  0  0
    7.2415  -15.1564   25.1542 C   0  0  0  0  0  0  0  0  0  0  0  0
    5.9859  -15.1171   24.5692 C   0  0  0  0  0  0  0  0  0  0  0  0
    5.4761  -13.9228   24.8696 N   0  0  0  0  0  0  0  0  0  0  0  0
    6.3375  -13.1964   25.6150 C   0  0  0  0  0  0  0  0  0  0  0  0
    6.3051  -11.9320   26.1785 C   0  0  0  0  0  0  0  0  0  0  0  0
    7.3655  -11.4234   26.9220 C   0  0  0  0  0  0  0  0  0  0  0  0
    8.4939  -12.2104   27.1044 C   0  0  0  0  0  0  0  0  0  0  0  0
    8.5058  -13.4568   26.5392 C   0  0  0  0  0  0  0  0  0  0  0  0
    7.4666  -13.9644   25.8065 C   0  0  0  0  0  0  0  0  0  0  0  0
   10.3953  -16.9119   24.1361 C   0  0  0  0  0  0  0  0  0  0  0  0
   10.2503  -18.0369   23.5911 O   0  0  0  0  0  0  0  0  0  0  0  0
   11.6193  -16.5964   24.7819 N   0  0  0  0  0  0  0  0  0  0  0  0
   12.7091  -17.5140   24.9229 C   0  0  1  0  0  0  0  0  0  0  0  0
   14.0580  -16.8693   24.9843 C   0  0  0  0  0  0  0  0  0  0  0  0
   15.3090  -18.1562   25.2606 S   0  0  0  0  0  0  0  0  0  0  0  0
   12.5166  -18.4180   26.1101 C   0  0  0  0  0  0  0  0  0  0  0  0
   12.0590  -18.0132   27.1903 O   0  0  0  0  0  0  0  0  0  0  0  0
   12.8729  -19.7533   25.9644 O   0  0  0  0  0  0  0  0  0  0  0  0
  1  2  1  0
  3  2  1  0
  4  5  1  0
  4  3  1  0
  5  1  1  0
  6  8  1  0
  5  6  1  1
  7  6  2  0
  9  8  1  0
 10 11  1  0
  9 10  1  1
 11 12  2  0
 11 19  1  0
 12 13  1  0
 13 14  1  0
 14 15  2  0
 15 16  1  0
 17 16  2  0
 18 17  1  0
 19 18  2  0
 19 14  1  0
 20  9  1  0
 20 21  2  0
 22 20  1  0
 23 24  1  1
 23 22  1  0
 25 24  1  0
 26 23  1  0
 27 26  2  0
 28 26  1  0
M  END
$$$$
