PWC.pdb
     RDKit          3D

 28 30  0  0  1  0  0  0  0  0999 V2000
    8.2137  -16.0490   20.8751 N   0  0  0  0  0  0  0  0  0  0  0  0
    7.0641  -15.2608   20.5228 C   0  0  0  0  0  0  0  0  0  0  0  0
    7.5258  -13.9279   20.0238 C   0  0  0  0  0  0  0  0  0  0  0  0
    8.9792  -13.8675   20.3623 C   0  0  0  0  0  0  0  0  0  0  0  0
    9.3247  -15.1700   21.0386 C   0  0  1  0  0  0  0  0  0  0  0  0
    9.6415  -15.0052   22.4737 C   0  0  0  0  0  0  0  0  0  0  0  0
   10.4329  -14.1045   22.8267 O   0  0  0  0  0  0  0  0  0  0  0  0
    9.0757  -15.8386   23.4710 N   0  0  0  0  0  0  0  0  0  0  0  0
    9.2713  -15.6224   24.8854 C   0  0  1  0  0  0  0  0  0  0  0  0
    8.1027  -16.1482   25.6977 C   0  0  0  0  0  0  0  0  0  0  0  0
    7.0124  -15.1424   25.6127 C   0  0  0  0  0  0  0  0  0  0  0  0
    5.6959  -15.4296   25.2892 C   0  0  0  0  0  0  0  0  0  0  0  0
    5.0464  -14.2661   25.3192 N   0  0  0  0  0  0  0  0  0  0  0  0
    5.8760  -13.2507   25.6445 C   0  0  0  0  0  0  0  0  0  0  0  0
    5.7189  -11.8851   25.8110 C   0  0  0  0  0  0  0  0  0  0  0  0
    6.7782  -11.0533   26.1604 C   0  0  0  0  0  0  0  0  0  0  0  0
    8.0346  -11.6119   26.3481 C   0  0  0  0  0  0  0  0  0  0  0  0
    8.1685  -12.9633   26.1786 C   0  0  0  0  0  0  0  0  0  0  0  0
    7.1314  -13.7884   25.8350 C   0  0  0  0  0  0  0  0  0  0  0  0
   10.5622  -16.1965   25.3572 C   0  0  0  0  0  0  0  0  0  0  0  0
   11.1493  -17.0384   24.6290 O   0  0  0  0  0  0  0  0  0  0  0  0
   11.1377  -15.8180   26.5982 N   0  0  0  0  0  0  0  0  0  0  0  0
   12.1776  -16.5512   27.2545 C   0  0  1  0  0  0  0  0  0  0  0  0
   12.5884  -15.9920   28.5802 C   0  0  0  0  0  0  0  0  0  0  0  0
   11.4866  -14.6105   28.9987 S   0  0  0  0  0  0  0  0  0  0  0  0
   11.8183  -18.0052   27.3985 C   0  0  0  0  0  0  0  0  0  0  0  0
   12.6410  -18.8642   27.7525 O   0  0  0  0  0  0  0  0  0  0  0  0
   10.5080  -18.3733   27.1182 O   0  0  0  0  0  0  0  0  0  0  0  0
  1  2  1  0
  3  2  1  0
  4  5  1  0
  4  3  1  0
  5  1  1  0
  6  8  1  0
  5  6  1  1
  7  6  2  0
  9  8  1  0
 10 11  1  0
  9 10  1  1
 11 12  2  0
 11 19  1  0
 12 13  1  0
 13 14  1  0
 14 15  2  0
 15 16  1  0
 17 16  2  0
 18 17  1  0
 19 18  2  0
 19 14  1  0
 20  9  1  0
 20 21  2  0
 22 20  1  0
 23 24  1  1
 23 22  1  0
 25 24  1  0
 26 23  1  0
 27 26  2  0
 28 26  1  0
M  END
$$$$
