PWC.pdb
     RDKit          3D

 28 30  0  0  1  0  0  0  0  0999 V2000
    7.5164  -15.6704   20.5808 N   0  0  0  0  0  0  0  0  0  0  0  0
    6.4632  -14.6922   20.5546 C   0  0  0  0  0  0  0  0  0  0  0  0
    7.0221  -13.3921   20.0686 C   0  0  0  0  0  0  0  0  0  0  0  0
    8.5040  -13.5775   20.0785 C   0  0  0  0  0  0  0  0  0  0  0  0
    8.7654  -14.9824   20.5593 C   0  0  1  0  0  0  0  0  0  0  0  0
    9.3967  -15.0235   21.8961 C   0  0  0  0  0  0  0  0  0  0  0  0
   10.4347  -14.3591   22.1037 O   0  0  0  0  0  0  0  0  0  0  0  0
    8.8627  -15.7952   22.9583 N   0  0  0  0  0  0  0  0  0  0  0  0
    9.5300  -15.9596   24.2284 C   0  0  1  0  0  0  0  0  0  0  0  0
    8.5704  -16.4250   25.3076 C   0  0  0  0  0  0  0  0  0  0  0  0
    7.4990  -15.4021   25.4227 C   0  0  0  0  0  0  0  0  0  0  0  0
    6.1784  -15.5956   25.0499 C   0  0  0  0  0  0  0  0  0  0  0  0
    5.5503  -14.4489   25.3086 N   0  0  0  0  0  0  0  0  0  0  0  0
    6.3974  -13.5328   25.8265 C   0  0  0  0  0  0  0  0  0  0  0  0
    6.2649  -12.2239   26.2583 C   0  0  0  0  0  0  0  0  0  0  0  0
    7.3382  -11.4968   26.7637 C   0  0  0  0  0  0  0  0  0  0  0  0
    8.5836  -12.1046   26.8370 C   0  0  0  0  0  0  0  0  0  0  0  0
    8.6932  -13.3986   26.4051 C   0  0  0  0  0  0  0  0  0  0  0  0
    7.6421  -14.1207   25.9068 C   0  0  0  0  0  0  0  0  0  0  0  0
   10.7059  -16.8673   24.1196 C   0  0  0  0  0  0  0  0  0  0  0  0
   10.6578  -17.8203   23.2991 O   0  0  0  0  0  0  0  0  0  0  0  0
   11.8675  -16.6820   24.9141 N   0  0  0  0  0  0  0  0  0  0  0  0
   13.0443  -17.4907   24.8114 C   0  0  1  0  0  0  0  0  0  0  0  0
   14.0436  -17.0062   23.8086 C   0  0  0  0  0  0  0  0  0  0  0  0
   14.5460  -15.3185   24.2522 S   0  0  0  0  0  0  0  0  0  0  0  0
   13.7056  -17.6715   26.1508 C   0  0  0  0  0  0  0  0  0  0  0  0
   13.2829  -17.1273   27.1829 O   0  0  0  0  0  0  0  0  0  0  0  0
   14.8315  -18.4842   26.2061 O   0  0  0  0  0  0  0  0  0  0  0  0
  1  2  1  0
  3  2  1  0
  4  5  1  0
  4  3  1  0
  5  1  1  0
  6  8  1  0
  5  6  1  1
  7  6  2  0
  9  8  1  0
 10 11  1  0
  9 10  1  1
 11 12  2  0
 11 19  1  0
 12 13  1  0
 13 14  1  0
 14 15  2  0
 15 16  1  0
 17 16  2  0
 18 17  1  0
 19 18  2  0
 19 14  1  0
 20  9  1  0
 20 21  2  0
 22 20  1  0
 23 24  1  6
 23 22  1  0
 25 24  1  0
 26 23  1  0
 27 26  2  0
 28 26  1  0
M  END
$$$$
