PWC.pdb
     RDKit          3D

 28 30  0  0  1  0  0  0  0  0999 V2000
    8.9584  -15.4146   19.1278 N   0  0  0  0  0  0  0  0  0  0  0  0
    7.7279  -15.0338   18.4892 C   0  0  0  0  0  0  0  0  0  0  0  0
    7.7606  -13.5634   18.2136 C   0  0  0  0  0  0  0  0  0  0  0  0
    8.9427  -13.0519   18.9695 C   0  0  0  0  0  0  0  0  0  0  0  0
    9.5704  -14.2392   19.6546 C   0  0  1  0  0  0  0  0  0  0  0  0
    9.4212  -14.1984   21.1254 C   0  0  0  0  0  0  0  0  0  0  0  0
    9.7688  -13.1719   21.7479 O   0  0  0  0  0  0  0  0  0  0  0  0
    8.8942  -15.2900   21.8600 N   0  0  0  0  0  0  0  0  0  0  0  0
    8.6348  -15.2351   23.2796 C   0  0  1  0  0  0  0  0  0  0  0  0
    7.2342  -15.7155   23.6106 C   0  0  0  0  0  0  0  0  0  0  0  0
    6.8627  -15.1336   24.9262 C   0  0  0  0  0  0  0  0  0  0  0  0
    6.5499  -15.8716   26.0567 C   0  0  0  0  0  0  0  0  0  0  0  0
    6.2754  -14.9840   27.0124 N   0  0  0  0  0  0  0  0  0  0  0  0
    6.3957  -13.7187   26.5544 C   0  0  0  0  0  0  0  0  0  0  0  0
    6.2310  -12.4640   27.1163 C   0  0  0  0  0  0  0  0  0  0  0  0
    6.4290  -11.2937   26.3902 C   0  0  0  0  0  0  0  0  0  0  0  0
    6.8042  -11.3880   25.0574 C   0  0  0  0  0  0  0  0  0  0  0  0
    6.9615  -12.6373   24.5213 C   0  0  0  0  0  0  0  0  0  0  0  0
    6.7687  -13.7933   25.2290 C   0  0  0  0  0  0  0  0  0  0  0  0
    9.6625  -15.9824   24.0568 C   0  0  0  0  0  0  0  0  0  0  0  0
   10.1199  -17.0526   23.5780 O   0  0  0  0  0  0  0  0  0  0  0  0
   10.1316  -15.5176   25.3132 N   0  0  0  0  0  0  0  0  0  0  0  0
   11.1088  -16.2013   26.1051 C   0  0  1  0  0  0  0  0  0  0  0  0
   11.6217  -15.4158   27.2708 C   0  0  0  0  0  0  0  0  0  0  0  0
   10.2665  -14.4084   27.9387 S   0  0  0  0  0  0  0  0  0  0  0  0
   10.6014  -17.5395   26.5696 C   0  0  0  0  0  0  0  0  0  0  0  0
    9.4153  -17.8831   26.4466 O   0  0  0  0  0  0  0  0  0  0  0  0
   11.5173  -18.4049   27.1556 O   0  0  0  0  0  0  0  0  0  0  0  0
  1  2  1  0
  3  2  1  0
  4  5  1  0
  4  3  1  0
  5  1  1  0
  6  8  1  0
  5  6  1  1
  7  6  2  0
  9  8  1  0
 10 11  1  0
  9 10  1  6
 11 12  2  0
 11 19  1  0
 12 13  1  0
 13 14  1  0
 14 15  2  0
 15 16  1  0
 17 16  2  0
 18 17  1  0
 19 18  2  0
 19 14  1  0
 20  9  1  0
 20 21  2  0
 22 20  1  0
 23 24  1  1
 23 22  1  0
 25 24  1  0
 26 23  1  0
 27 26  2  0
 28 26  1  0
M  END
$$$$
