PWC.pdb
     RDKit          3D

 28 30  0  0  1  0  0  0  0  0999 V2000
    6.8610  -15.7398   20.3157 N   0  0  0  0  0  0  0  0  0  0  0  0
    7.4548  -15.3530   19.0648 C   0  0  0  0  0  0  0  0  0  0  0  0
    8.3621  -16.4485   18.6005 C   0  0  0  0  0  0  0  0  0  0  0  0
    8.4893  -17.3700   19.7689 C   0  0  0  0  0  0  0  0  0  0  0  0
    7.6449  -16.7913   20.8758 C   0  0  1  0  0  0  0  0  0  0  0  0
    8.4508  -16.2834   22.0070 C   0  0  0  0  0  0  0  0  0  0  0  0
    9.0509  -15.1932   21.8906 O   0  0  0  0  0  0  0  0  0  0  0  0
    8.5683  -16.9942   23.2277 N   0  0  0  0  0  0  0  0  0  0  0  0
    9.4264  -16.5703   24.3092 C   0  0  1  0  0  0  0  0  0  0  0  0
    8.7261  -16.6734   25.6512 C   0  0  0  0  0  0  0  0  0  0  0  0
    7.6371  -15.6628   25.6645 C   0  0  0  0  0  0  0  0  0  0  0  0
    6.3039  -15.9341   25.4011 C   0  0  0  0  0  0  0  0  0  0  0  0
    5.6619  -14.7714   25.5118 N   0  0  0  0  0  0  0  0  0  0  0  0
    6.5121  -13.7713   25.8318 C   0  0  0  0  0  0  0  0  0  0  0  0
    6.3699  -12.4131   26.0601 C   0  0  0  0  0  0  0  0  0  0  0  0
    7.4499  -11.5981   26.3847 C   0  0  0  0  0  0  0  0  0  0  0  0
    8.7122  -12.1663   26.4825 C   0  0  0  0  0  0  0  0  0  0  0  0
    8.8311  -13.5102   26.2529 C   0  0  0  0  0  0  0  0  0  0  0  0
    7.7735  -14.3189   25.9333 C   0  0  0  0  0  0  0  0  0  0  0  0
   10.7172  -17.3134   24.3121 C   0  0  0  0  0  0  0  0  0  0  0  0
   10.6918  -18.5658   24.1909 O   0  0  0  0  0  0  0  0  0  0  0  0
   11.9622  -16.6456   24.4478 N   0  0  0  0  0  0  0  0  0  0  0  0
   13.2315  -17.3075   24.4273 C   0  0  1  0  0  0  0  0  0  0  0  0
   14.3228  -16.5346   23.7560 C   0  0  0  0  0  0  0  0  0  0  0  0
   14.4326  -14.8921   24.5226 S   0  0  0  0  0  0  0  0  0  0  0  0
   13.6632  -17.7112   25.8110 C   0  0  0  0  0  0  0  0  0  0  0  0
   13.0506  -17.3587   26.8310 O   0  0  0  0  0  0  0  0  0  0  0  0
   14.7950  -18.5099   25.9226 O   0  0  0  0  0  0  0  0  0  0  0  0
  1  2  1  0
  3  2  1  0
  4  5  1  0
  4  3  1  0
  5  1  1  0
  6  8  1  0
  5  6  1  1
  7  6  2  0
  9  8  1  0
 10 11  1  0
  9 10  1  1
 11 12  2  0
 11 19  1  0
 12 13  1  0
 13 14  1  0
 14 15  2  0
 15 16  1  0
 17 16  2  0
 18 17  1  0
 19 18  2  0
 19 14  1  0
 20  9  1  0
 20 21  2  0
 22 20  1  0
 23 24  1  1
 23 22  1  0
 25 24  1  0
 26 23  1  0
 27 26  2  0
 28 26  1  0
M  END
$$$$
