PWC.pdb
     RDKit          3D

 28 30  0  0  1  0  0  0  0  0999 V2000
    8.1583  -15.2305   18.5348 N   0  0  0  0  0  0  0  0  0  0  0  0
    7.0105  -14.5139   18.0493 C   0  0  0  0  0  0  0  0  0  0  0  0
    7.3765  -13.0733   17.8773 C   0  0  0  0  0  0  0  0  0  0  0  0
    8.7029  -12.9259   18.5477 C   0  0  0  0  0  0  0  0  0  0  0  0
    9.0763  -14.2857   19.0812 C   0  0  1  0  0  0  0  0  0  0  0  0
    9.0573  -14.3477   20.5587 C   0  0  0  0  0  0  0  0  0  0  0  0
    9.8386  -13.6233   21.2121 O   0  0  0  0  0  0  0  0  0  0  0  0
    8.1782  -15.2058   21.2658 N   0  0  0  0  0  0  0  0  0  0  0  0
    8.1628  -15.3077   22.7063 C   0  0  1  0  0  0  0  0  0  0  0  0
    6.7578  -15.5258   23.2359 C   0  0  0  0  0  0  0  0  0  0  0  0
    6.7600  -15.1500   24.6733 C   0  0  0  0  0  0  0  0  0  0  0  0
    6.6190  -16.0429   25.7237 C   0  0  0  0  0  0  0  0  0  0  0  0
    6.6720  -15.3133   26.8378 N   0  0  0  0  0  0  0  0  0  0  0  0
    6.8393  -14.0024   26.5569 C   0  0  0  0  0  0  0  0  0  0  0  0
    6.9556  -12.8537   27.3212 C   0  0  0  0  0  0  0  0  0  0  0  0
    7.1272  -11.5966   26.7502 C   0  0  0  0  0  0  0  0  0  0  0  0
    7.1835  -11.4910   25.3676 C   0  0  0  0  0  0  0  0  0  0  0  0
    7.0664  -12.6382   24.6306 C   0  0  0  0  0  0  0  0  0  0  0  0
    6.8975  -13.8787   25.1848 C   0  0  0  0  0  0  0  0  0  0  0  0
    9.0961  -16.3610   23.1941 C   0  0  0  0  0  0  0  0  0  0  0  0
    9.0735  -17.4904   22.6392 O   0  0  0  0  0  0  0  0  0  0  0  0
   10.0009  -16.1202   24.2609 N   0  0  0  0  0  0  0  0  0  0  0  0
   10.9619  -17.0742   24.7256 C   0  0  1  0  0  0  0  0  0  0  0  0
   12.2382  -16.4747   25.2261 C   0  0  0  0  0  0  0  0  0  0  0  0
   13.2970  -17.8040   25.8660 S   0  0  0  0  0  0  0  0  0  0  0  0
   10.3742  -17.9811   25.7726 C   0  0  0  0  0  0  0  0  0  0  0  0
    9.4384  -17.6320   26.5091 O   0  0  0  0  0  0  0  0  0  0  0  0
   10.9190  -19.2533   25.8986 O   0  0  0  0  0  0  0  0  0  0  0  0
  1  2  1  0
  3  2  1  0
  4  5  1  0
  4  3  1  0
  5  1  1  0
  6  8  1  0
  5  6  1  1
  7  6  2  0
  9  8  1  0
 10 11  1  0
  9 10  1  6
 11 12  2  0
 11 19  1  0
 12 13  1  0
 13 14  1  0
 14 15  2  0
 15 16  1  0
 17 16  2  0
 18 17  1  0
 19 18  2  0
 19 14  1  0
 20  9  1  0
 20 21  2  0
 22 20  1  0
 23 24  1  1
 23 22  1  0
 25 24  1  0
 26 23  1  0
 27 26  2  0
 28 26  1  0
M  END
$$$$
