PWC.pdb
     RDKit          3D

 28 30  0  0  1  0  0  0  0  0999 V2000
    7.4672  -15.8313   21.0841 N   0  0  0  0  0  0  0  0  0  0  0  0
    6.3706  -14.9029   21.1310 C   0  0  0  0  0  0  0  0  0  0  0  0
    6.8392  -13.5746   20.6259 C   0  0  0  0  0  0  0  0  0  0  0  0
    8.3259  -13.6912   20.5455 C   0  0  0  0  0  0  0  0  0  0  0  0
    8.6798  -15.0860   20.9953 C   0  0  1  0  0  0  0  0  0  0  0  0
    9.3914  -15.1079   22.2916 C   0  0  0  0  0  0  0  0  0  0  0  0
   10.3281  -14.3044   22.4895 O   0  0  0  0  0  0  0  0  0  0  0  0
    9.0467  -16.0143   23.3253 N   0  0  0  0  0  0  0  0  0  0  0  0
    9.7448  -16.0748   24.5881 C   0  0  1  0  0  0  0  0  0  0  0  0
    8.8198  -16.4849   25.7187 C   0  0  0  0  0  0  0  0  0  0  0  0
    7.6942  -15.5155   25.7475 C   0  0  0  0  0  0  0  0  0  0  0  0
    6.3827  -15.8173   25.4166 C   0  0  0  0  0  0  0  0  0  0  0  0
    5.6942  -14.6863   25.5688 N   0  0  0  0  0  0  0  0  0  0  0  0
    6.4941  -13.6778   25.9792 C   0  0  0  0  0  0  0  0  0  0  0  0
    6.2930  -12.3412   26.2797 C   0  0  0  0  0  0  0  0  0  0  0  0
    7.3291  -11.5095   26.6930 C   0  0  0  0  0  0  0  0  0  0  0  0
    8.6072  -12.0380   26.8074 C   0  0  0  0  0  0  0  0  0  0  0  0
    8.7844  -13.3610   26.5055 C   0  0  0  0  0  0  0  0  0  0  0  0
    7.7704  -14.1859   26.0985 C   0  0  0  0  0  0  0  0  0  0  0  0
   10.9393  -16.9617   24.5155 C   0  0  0  0  0  0  0  0  0  0  0  0
   10.8174  -18.0942   23.9804 O   0  0  0  0  0  0  0  0  0  0  0  0
   12.1989  -16.5604   25.0321 N   0  0  0  0  0  0  0  0  0  0  0  0
   13.3531  -17.4064   25.0729 C   0  0  1  0  0  0  0  0  0  0  0  0
   14.6576  -16.6802   24.9743 C   0  0  0  0  0  0  0  0  0  0  0  0
   14.5469  -15.4585   23.6354 S   0  0  0  0  0  0  0  0  0  0  0  0
   13.3458  -18.2878   26.2924 C   0  0  0  0  0  0  0  0  0  0  0  0
   12.4640  -18.2161   27.1626 O   0  0  0  0  0  0  0  0  0  0  0  0
   14.3780  -19.2088   26.4247 O   0  0  0  0  0  0  0  0  0  0  0  0
  1  2  1  0
  3  2  1  0
  4  5  1  0
  4  3  1  0
  5  1  1  0
  6  8  1  0
  5  6  1  1
  7  6  2  0
  9  8  1  0
 10 11  1  0
  9 10  1  1
 11 12  2  0
 11 19  1  0
 12 13  1  0
 13 14  1  0
 14 15  2  0
 15 16  1  0
 17 16  2  0
 18 17  1  0
 19 18  2  0
 19 14  1  0
 20  9  1  0
 20 21  2  0
 22 20  1  0
 23 24  1  1
 23 22  1  0
 25 24  1  0
 26 23  1  0
 27 26  2  0
 28 26  1  0
M  END
$$$$
