MPV.pdb
     RDKit          3D

 23 23  0  0  1  0  0  0  0  0999 V2000
    7.1563  -12.5738   26.9107 C   0  0  0  0  0  0  0  0  0  0  0  0
    5.4232  -13.0870   26.7395 S   0  0  0  0  0  0  0  0  0  0  0  0
    5.2431  -14.4075   25.5260 C   0  0  0  0  0  0  0  0  0  0  0  0
    6.1339  -15.5879   25.8314 C   0  0  0  0  0  0  0  0  0  0  0  0
    6.0271  -16.5452   24.6361 C   0  0  2  0  0  0  0  0  0  0  0  0
    5.3555  -17.6808   25.0779 N   0  0  0  0  0  0  0  0  0  0  0  0
    7.3748  -16.7222   24.0614 C   0  0  0  0  0  0  0  0  0  0  0  0
    7.6835  -17.9403   23.8164 O   0  0  0  0  0  0  0  0  0  0  0  0
    8.3008  -15.6963   23.7773 N   0  0  0  0  0  0  0  0  0  0  0  0
    8.1610  -14.2610   23.7833 C   0  0  0  0  0  0  0  0  0  0  0  0
    8.9763  -13.8426   22.5756 C   0  0  0  0  0  0  0  0  0  0  0  0
   10.0264  -14.8820   22.3758 C   0  0  0  0  0  0  0  0  0  0  0  0
    9.6925  -15.9197   23.3966 C   0  0  1  0  0  0  0  0  0  0  0  0
   10.6175  -15.7768   24.5270 C   0  0  0  0  0  0  0  0  0  0  0  0
   11.8408  -15.6668   24.3101 O   0  0  0  0  0  0  0  0  0  0  0  0
    9.3632  -14.4626   28.3685 C   0  0  0  0  0  0  0  0  0  0  0  0
   10.7681  -14.4377   27.8205 C   0  0  2  0  0  0  0  0  0  0  0  0
   10.9384  -13.1952   26.9521 C   0  0  0  0  0  0  0  0  0  0  0  0
   11.0852  -15.6323   26.9734 C   0  0  2  0  0  0  0  0  0  0  0  0
   10.1612  -15.7601   25.8612 N   0  0  0  0  0  0  0  0  0  0  0  0
   11.0158  -16.8357   27.8582 C   0  0  0  0  0  0  0  0  0  0  0  0
   10.1727  -17.7315   27.7227 O   0  0  0  0  0  0  0  0  0  0  0  0
   11.9514  -16.9416   28.8809 O   0  0  0  0  0  0  0  0  0  0  0  0
  1  2  1  0
  3  4  1  0
  3  2  1  0
  5  4  1  0
  5  7  1  0
  5  6  1  1
  7  9  1  0
  8  7  2  0
  9 10  1  0
  9 13  1  0
 10 11  1  0
 12 11  1  0
 13 12  1  0
 14 15  2  0
 13 14  1  1
 17 16  1  6
 18 17  1  0
 19 17  1  0
 19 20  1  6
 20 14  1  0
 21 19  1  0
 22 21  2  0
 23 21  1  0
M  END
$$$$
