MPV.pdb
     RDKit          3D

 23 23  0  0  1  0  0  0  0  0999 V2000
    5.0391  -12.9080   25.9919 C   0  0  0  0  0  0  0  0  0  0  0  0
    6.1432  -14.0560   26.8635 S   0  0  0  0  0  0  0  0  0  0  0  0
    6.2791  -15.6287   25.9935 C   0  0  0  0  0  0  0  0  0  0  0  0
    5.4763  -15.6442   24.7147 C   0  0  0  0  0  0  0  0  0  0  0  0
    5.8588  -16.9290   23.9665 C   0  0  2  0  0  0  0  0  0  0  0  0
    5.3495  -17.9974   24.6979 N   0  0  0  0  0  0  0  0  0  0  0  0
    7.3116  -16.9011   23.7090 C   0  0  0  0  0  0  0  0  0  0  0  0
    7.8830  -18.0424   23.8091 O   0  0  0  0  0  0  0  0  0  0  0  0
    8.0773  -15.7633   23.3773 N   0  0  0  0  0  0  0  0  0  0  0  0
    7.7386  -14.3617   23.3592 C   0  0  0  0  0  0  0  0  0  0  0  0
    8.4549  -13.8627   22.1198 C   0  0  0  0  0  0  0  0  0  0  0  0
    9.6342  -14.7504   21.9093 C   0  0  0  0  0  0  0  0  0  0  0  0
    9.4759  -15.8000   22.9599 C   0  0  1  0  0  0  0  0  0  0  0  0
   10.4018  -15.5031   24.0592 C   0  0  0  0  0  0  0  0  0  0  0  0
   11.6314  -15.5390   23.8539 O   0  0  0  0  0  0  0  0  0  0  0  0
   11.3201  -13.6420   28.5242 C   0  0  0  0  0  0  0  0  0  0  0  0
   10.5014  -13.7695   27.2640 C   0  0  2  0  0  0  0  0  0  0  0  0
    9.0278  -13.8847   27.6410 C   0  0  0  0  0  0  0  0  0  0  0  0
   10.8604  -14.9784   26.4548 C   0  0  2  0  0  0  0  0  0  0  0  0
    9.9392  -15.1760   25.3506 N   0  0  0  0  0  0  0  0  0  0  0  0
   10.8375  -16.1543   27.3782 C   0  0  0  0  0  0  0  0  0  0  0  0
   10.0210  -17.0793   27.2810 O   0  0  0  0  0  0  0  0  0  0  0  0
   11.7867  -16.1987   28.3929 O   0  0  0  0  0  0  0  0  0  0  0  0
  1  2  1  0
  3  4  1  0
  3  2  1  0
  5  4  1  0
  5  7  1  0
  5  6  1  1
  7  9  1  0
  8  7  2  0
  9 10  1  0
  9 13  1  0
 10 11  1  0
 12 11  1  0
 13 12  1  0
 14 15  2  0
 13 14  1  1
 17 16  1  1
 18 17  1  0
 19 17  1  0
 19 20  1  6
 20 14  1  0
 21 19  1  0
 22 21  2  0
 23 21  1  0
M  END
$$$$
