MPV.pdb
     RDKit          3D

 23 23  0  0  1  0  0  0  0  0999 V2000
    7.1558  -17.1382   28.6007 C   0  0  0  0  0  0  0  0  0  0  0  0
    7.1908  -18.6664   27.6210 S   0  0  0  0  0  0  0  0  0  0  0  0
    7.0873  -18.3203   25.8552 C   0  0  0  0  0  0  0  0  0  0  0  0
    7.0888  -19.5822   25.0258 C   0  0  0  0  0  0  0  0  0  0  0  0
    6.8362  -19.1579   23.5722 C   0  0  2  0  0  0  0  0  0  0  0  0
    6.9423  -20.3010   22.7862 N   0  0  0  0  0  0  0  0  0  0  0  0
    7.7249  -18.0220   23.2591 C   0  0  0  0  0  0  0  0  0  0  0  0
    8.9648  -18.3324   23.1855 O   0  0  0  0  0  0  0  0  0  0  0  0
    7.3255  -16.6857   23.0463 N   0  0  0  0  0  0  0  0  0  0  0  0
    6.0661  -16.0217   23.2759 C   0  0  0  0  0  0  0  0  0  0  0  0
    5.9497  -15.1051   22.0740 C   0  0  0  0  0  0  0  0  0  0  0  0
    7.3372  -14.7892   21.6291 C   0  0  0  0  0  0  0  0  0  0  0  0
    8.1913  -15.6383   22.5123 C   0  0  1  0  0  0  0  0  0  0  0  0
    8.7649  -14.7891   23.5628 C   0  0  0  0  0  0  0  0  0  0  0  0
    9.5019  -13.8337   23.2470 O   0  0  0  0  0  0  0  0  0  0  0  0
    6.7392  -14.0821   26.9914 C   0  0  0  0  0  0  0  0  0  0  0  0
    7.9384  -13.2839   26.5448 C   0  0  2  0  0  0  0  0  0  0  0  0
    7.4999  -12.2891   25.4747 C   0  0  0  0  0  0  0  0  0  0  0  0
    9.0212  -14.1370   25.9574 C   0  0  2  0  0  0  0  0  0  0  0  0
    8.5060  -15.0227   24.9292 N   0  0  0  0  0  0  0  0  0  0  0  0
    9.6246  -14.9229   27.0772 C   0  0  0  0  0  0  0  0  0  0  0  0
    9.4880  -16.1468   27.1997 O   0  0  0  0  0  0  0  0  0  0  0  0
   10.3748  -14.2318   28.0218 O   0  0  0  0  0  0  0  0  0  0  0  0
  1  2  1  0
  3  4  1  0
  3  2  1  0
  5  4  1  0
  5  7  1  0
  5  6  1  6
  7  9  1  0
  8  7  2  0
  9 10  1  0
  9 13  1  0
 10 11  1  0
 12 11  1  0
 13 12  1  0
 14 15  2  0
 13 14  1  1
 17 16  1  6
 18 17  1  0
 19 17  1  0
 19 20  1  6
 20 14  1  0
 21 19  1  0
 22 21  2  0
 23 21  1  0
M  END
$$$$
