MPV.pdb
     RDKit          3D

 23 23  0  0  1  0  0  0  0  0999 V2000
    5.7372  -12.5836   26.1051 C   0  0  0  0  0  0  0  0  0  0  0  0
    6.4241  -13.8742   27.1816 S   0  0  0  0  0  0  0  0  0  0  0  0
    6.4487  -15.4768   26.3570 C   0  0  0  0  0  0  0  0  0  0  0  0
    5.8874  -15.4063   24.9570 C   0  0  0  0  0  0  0  0  0  0  0  0
    6.1276  -16.7791   24.3132 C   0  0  2  0  0  0  0  0  0  0  0  0
    5.4708  -17.7215   25.0982 N   0  0  0  0  0  0  0  0  0  0  0  0
    7.5791  -16.9469   24.1058 C   0  0  0  0  0  0  0  0  0  0  0  0
    7.9938  -18.1488   24.2559 O   0  0  0  0  0  0  0  0  0  0  0  0
    8.4961  -15.9282   23.7712 N   0  0  0  0  0  0  0  0  0  0  0  0
    8.3151  -14.5098   23.5844 C   0  0  0  0  0  0  0  0  0  0  0  0
    9.2190  -14.2120   22.4043 C   0  0  0  0  0  0  0  0  0  0  0  0
   10.3118  -15.2260   22.4239 C   0  0  0  0  0  0  0  0  0  0  0  0
    9.9213  -16.1421   23.5369 C   0  0  1  0  0  0  0  0  0  0  0  0
   10.7411  -15.8244   24.7120 C   0  0  0  0  0  0  0  0  0  0  0  0
   11.9830  -15.7869   24.6032 O   0  0  0  0  0  0  0  0  0  0  0  0
    9.1600  -14.5175   28.6476 C   0  0  0  0  0  0  0  0  0  0  0  0
   10.4879  -14.2316   27.9924 C   0  0  2  0  0  0  0  0  0  0  0  0
   10.3391  -13.0162   27.0826 C   0  0  0  0  0  0  0  0  0  0  0  0
   10.9818  -15.3707   27.1535 C   0  0  2  0  0  0  0  0  0  0  0  0
   10.1624  -15.5584   25.9701 N   0  0  0  0  0  0  0  0  0  0  0  0
   10.9601  -16.5959   28.0103 C   0  0  0  0  0  0  0  0  0  0  0  0
   10.2023  -17.5534   27.8085 O   0  0  0  0  0  0  0  0  0  0  0  0
   11.8406  -16.6496   29.0847 O   0  0  0  0  0  0  0  0  0  0  0  0
  1  2  1  0
  3  4  1  0
  3  2  1  0
  5  4  1  0
  5  7  1  0
  5  6  1  1
  7  9  1  0
  8  7  2  0
  9 10  1  0
  9 13  1  0
 10 11  1  0
 12 11  1  0
 13 12  1  0
 14 15  2  0
 13 14  1  1
 17 16  1  6
 18 17  1  0
 19 17  1  0
 19 20  1  6
 20 14  1  0
 21 19  1  0
 22 21  2  0
 23 21  1  0
M  END
$$$$
