MPV.pdb
     RDKit          3D

 23 23  0  0  1  0  0  0  0  0999 V2000
    6.9838  -12.2418   26.7327 C   0  0  0  0  0  0  0  0  0  0  0  0
    5.2783  -12.6277   26.2441 S   0  0  0  0  0  0  0  0  0  0  0  0
    5.1989  -14.1377   25.2632 C   0  0  0  0  0  0  0  0  0  0  0  0
    6.1064  -15.2169   25.8034 C   0  0  0  0  0  0  0  0  0  0  0  0
    6.0677  -16.3744   24.7957 C   0  0  2  0  0  0  0  0  0  0  0  0
    5.3664  -17.4166   25.3939 N   0  0  0  0  0  0  0  0  0  0  0  0
    7.4468  -16.6427   24.3438 C   0  0  0  0  0  0  0  0  0  0  0  0
    7.7848  -17.8763   24.3981 O   0  0  0  0  0  0  0  0  0  0  0  0
    8.3727  -15.6845   23.8799 N   0  0  0  0  0  0  0  0  0  0  0  0
    8.2641  -14.2549   23.7243 C   0  0  0  0  0  0  0  0  0  0  0  0
    9.0037  -14.0049   22.4248 C   0  0  0  0  0  0  0  0  0  0  0  0
   10.0154  -15.0907   22.2817 C   0  0  0  0  0  0  0  0  0  0  0  0
    9.7301  -15.9915   23.4383 C   0  0  1  0  0  0  0  0  0  0  0  0
   10.7330  -15.7440   24.4808 C   0  0  0  0  0  0  0  0  0  0  0  0
   11.9443  -15.8677   24.2103 O   0  0  0  0  0  0  0  0  0  0  0  0
    9.5978  -14.9985   28.6575 C   0  0  0  0  0  0  0  0  0  0  0  0
   10.8892  -14.5429   28.0255 C   0  0  2  0  0  0  0  0  0  0  0  0
   10.7041  -13.1278   27.4868 C   0  0  0  0  0  0  0  0  0  0  0  0
   11.3185  -15.4125   26.8833 C   0  0  2  0  0  0  0  0  0  0  0  0
   10.3655  -15.3678   25.7892 N   0  0  0  0  0  0  0  0  0  0  0  0
   11.4516  -16.8053   27.4106 C   0  0  0  0  0  0  0  0  0  0  0  0
   12.3150  -17.1423   28.2308 O   0  0  0  0  0  0  0  0  0  0  0  0
   10.5536  -17.7607   26.9485 O   0  0  0  0  0  0  0  0  0  0  0  0
  1  2  1  0
  3  4  1  0
  3  2  1  0
  5  4  1  0
  5  7  1  0
  5  6  1  1
  7  9  1  0
  8  7  2  0
  9 10  1  0
  9 13  1  0
 10 11  1  0
 12 11  1  0
 13 12  1  0
 14 15  2  0
 13 14  1  1
 17 16  1  6
 18 17  1  0
 19 17  1  0
 19 20  1  6
 20 14  1  0
 21 19  1  0
 22 21  2  0
 23 21  1  0
M  END
$$$$
