MPV.pdb
     RDKit          3D

 23 23  0  0  1  0  0  0  0  0999 V2000
    6.0994  -12.0420   26.9055 C   0  0  0  0  0  0  0  0  0  0  0  0
    7.5823  -13.0850   27.0028 S   0  0  0  0  0  0  0  0  0  0  0  0
    7.2276  -14.7830   26.5132 C   0  0  0  0  0  0  0  0  0  0  0  0
    6.1653  -14.8576   25.4426 C   0  0  0  0  0  0  0  0  0  0  0  0
    6.0617  -16.3306   25.0225 C   0  0  2  0  0  0  0  0  0  0  0  0
    6.0518  -17.0904   26.1880 N   0  0  0  0  0  0  0  0  0  0  0  0
    7.1188  -16.6057   24.0302 C   0  0  0  0  0  0  0  0  0  0  0  0
    7.4974  -17.8281   23.9939 O   0  0  0  0  0  0  0  0  0  0  0  0
    7.7123  -15.6646   23.1625 N   0  0  0  0  0  0  0  0  0  0  0  0
    7.5147  -14.2429   23.0233 C   0  0  0  0  0  0  0  0  0  0  0  0
    7.5775  -14.0442   21.5217 C   0  0  0  0  0  0  0  0  0  0  0  0
    8.4363  -15.1320   20.9722 C   0  0  0  0  0  0  0  0  0  0  0  0
    8.7269  -15.9855   22.1628 C   0  0  1  0  0  0  0  0  0  0  0  0
   10.0885  -15.6929   22.6254 C   0  0  0  0  0  0  0  0  0  0  0  0
   10.3171  -14.6246   23.2271 O   0  0  0  0  0  0  0  0  0  0  0  0
   12.2437  -19.0291   23.5063 C   0  0  0  0  0  0  0  0  0  0  0  0
   12.4240  -17.6909   24.1781 C   0  0  2  0  0  0  0  0  0  0  0  0
   11.3133  -17.4998   25.2061 C   0  0  0  0  0  0  0  0  0  0  0  0
   12.3583  -16.5424   23.2179 C   0  0  2  0  0  0  0  0  0  0  0  0
   11.1546  -16.5902   22.4082 N   0  0  0  0  0  0  0  0  0  0  0  0
   13.5777  -16.6139   22.3555 C   0  0  0  0  0  0  0  0  0  0  0  0
   13.5640  -17.0358   21.1921 O   0  0  0  0  0  0  0  0  0  0  0  0
   14.7815  -16.1812   22.8999 O   0  0  0  0  0  0  0  0  0  0  0  0
  1  2  1  0
  3  4  1  0
  3  2  1  0
  5  4  1  0
  5  7  1  0
  5  6  1  1
  7  9  1  0
  8  7  2  0
  9 10  1  0
  9 13  1  0
 10 11  1  0
 12 11  1  0
 13 12  1  0
 14 15  2  0
 13 14  1  1
 17 16  1  6
 18 17  1  0
 19 17  1  0
 19 20  1  6
 20 14  1  0
 21 19  1  0
 22 21  2  0
 23 21  1  0
M  END
$$$$
