MPV.pdb
     RDKit          3D

 23 23  0  0  1  0  0  0  0  0999 V2000
    8.0460  -11.6470   22.0969 C   0  0  0  0  0  0  0  0  0  0  0  0
    7.8491  -12.3042   20.4160 S   0  0  0  0  0  0  0  0  0  0  0  0
    8.0333  -14.0969   20.3829 C   0  0  0  0  0  0  0  0  0  0  0  0
    7.0127  -14.7911   21.2527 C   0  0  0  0  0  0  0  0  0  0  0  0
    7.2898  -16.2972   21.1458 C   0  0  2  0  0  0  0  0  0  0  0  0
    6.0800  -16.9176   20.8505 N   0  0  0  0  0  0  0  0  0  0  0  0
    8.0038  -16.7254   22.3643 C   0  0  0  0  0  0  0  0  0  0  0  0
    7.2346  -17.0691   23.3282 O   0  0  0  0  0  0  0  0  0  0  0  0
    9.4034  -16.7797   22.5342 N   0  0  0  0  0  0  0  0  0  0  0  0
   10.4825  -16.3655   21.6719 C   0  0  0  0  0  0  0  0  0  0  0  0
   11.5070  -17.4654   21.8699 C   0  0  0  0  0  0  0  0  0  0  0  0
   11.2929  -18.0213   23.2366 C   0  0  0  0  0  0  0  0  0  0  0  0
   10.0733  -17.3072   23.7194 C   0  0  1  0  0  0  0  0  0  0  0  0
   10.4887  -16.2516   24.6505 C   0  0  0  0  0  0  0  0  0  0  0  0
   11.3388  -15.4132   24.2899 O   0  0  0  0  0  0  0  0  0  0  0  0
    9.6644  -12.9128   27.8901 C   0  0  0  0  0  0  0  0  0  0  0  0
    9.3187  -14.0006   26.9043 C   0  0  2  0  0  0  0  0  0  0  0  0
    7.9913  -14.6328   27.3107 C   0  0  0  0  0  0  0  0  0  0  0  0
   10.3458  -15.0904   26.8542 C   0  0  2  0  0  0  0  0  0  0  0  0
    9.9515  -16.1561   25.9509 N   0  0  0  0  0  0  0  0  0  0  0  0
   10.5091  -15.6117   28.2460 C   0  0  0  0  0  0  0  0  0  0  0  0
   10.0991  -16.7216   28.6089 O   0  0  0  0  0  0  0  0  0  0  0  0
   11.1561  -14.7987   29.1696 O   0  0  0  0  0  0  0  0  0  0  0  0
  1  2  1  0
  3  4  1  0
  3  2  1  0
  5  4  1  0
  5  7  1  0
  5  6  1  1
  7  9  1  0
  8  7  2  0
  9 10  1  0
  9 13  1  0
 10 11  1  0
 12 11  1  0
 13 12  1  0
 14 15  2  0
 13 14  1  1
 17 16  1  1
 18 17  1  0
 19 17  1  0
 19 20  1  6
 20 14  1  0
 21 19  1  0
 22 21  2  0
 23 21  1  0
M  END
$$$$
