MPV.pdb
     RDKit          3D

 23 23  0  0  1  0  0  0  0  0999 V2000
    6.7170  -11.6527   25.9631 C   0  0  0  0  0  0  0  0  0  0  0  0
    5.3808  -12.7928   26.4225 S   0  0  0  0  0  0  0  0  0  0  0  0
    5.3050  -14.2047   25.3047 C   0  0  0  0  0  0  0  0  0  0  0  0
    6.2323  -15.3183   25.7291 C   0  0  0  0  0  0  0  0  0  0  0  0
    6.2603  -16.3347   24.5789 C   0  0  2  0  0  0  0  0  0  0  0  0
    5.3572  -17.3433   24.8999 N   0  0  0  0  0  0  0  0  0  0  0  0
    7.6638  -16.7197   24.3338 C   0  0  0  0  0  0  0  0  0  0  0  0
    7.9177  -17.9519   24.5710 O   0  0  0  0  0  0  0  0  0  0  0  0
    8.6939  -15.8691   23.8798 N   0  0  0  0  0  0  0  0  0  0  0  0
    8.6840  -14.4731   23.5182 C   0  0  0  0  0  0  0  0  0  0  0  0
    9.6047  -14.4351   22.3144 C   0  0  0  0  0  0  0  0  0  0  0  0
   10.5668  -15.5642   22.4640 C   0  0  0  0  0  0  0  0  0  0  0  0
   10.0800  -16.2818   23.6800 C   0  0  1  0  0  0  0  0  0  0  0  0
   10.9448  -15.9237   24.8104 C   0  0  0  0  0  0  0  0  0  0  0  0
   12.1830  -16.0108   24.6889 O   0  0  0  0  0  0  0  0  0  0  0  0
    9.3901  -14.9811   28.8668 C   0  0  0  0  0  0  0  0  0  0  0  0
   10.6484  -14.4410   28.2347 C   0  0  2  0  0  0  0  0  0  0  0  0
   10.3209  -13.1346   27.5186 C   0  0  0  0  0  0  0  0  0  0  0  0
   11.2427  -15.3766   27.2263 C   0  0  2  0  0  0  0  0  0  0  0  0
   10.4136  -15.4808   26.0394 N   0  0  0  0  0  0  0  0  0  0  0  0
   11.3873  -16.7097   27.8878 C   0  0  0  0  0  0  0  0  0  0  0  0
   10.7013  -17.6953   27.5885 O   0  0  0  0  0  0  0  0  0  0  0  0
   12.3446  -16.8351   28.8881 O   0  0  0  0  0  0  0  0  0  0  0  0
  1  2  1  0
  3  4  1  0
  3  2  1  0
  5  4  1  0
  5  7  1  0
  5  6  1  1
  7  9  1  0
  8  7  2  0
  9 10  1  0
  9 13  1  0
 10 11  1  0
 12 11  1  0
 13 12  1  0
 14 15  2  0
 13 14  1  1
 17 16  1  6
 18 17  1  0
 19 17  1  0
 19 20  1  6
 20 14  1  0
 21 19  1  0
 22 21  2  0
 23 21  1  0
M  END
$$$$
