MPV.pdb
     RDKit          3D

 23 23  0  0  1  0  0  0  0  0999 V2000
    5.1977  -21.4682   24.1510 C   0  0  0  0  0  0  0  0  0  0  0  0
    6.0955  -20.0045   24.7406 S   0  0  0  0  0  0  0  0  0  0  0  0
    7.3607  -19.4889   23.5650 C   0  0  0  0  0  0  0  0  0  0  0  0
    6.7710  -19.0722   22.2389 C   0  0  0  0  0  0  0  0  0  0  0  0
    7.9259  -18.5134   21.3958 C   0  0  2  0  0  0  0  0  0  0  0  0
    8.7602  -19.5818   21.0826 N   0  0  0  0  0  0  0  0  0  0  0  0
    8.5148  -17.3681   22.1166 C   0  0  0  0  0  0  0  0  0  0  0  0
    9.7126  -17.5655   22.5231 O   0  0  0  0  0  0  0  0  0  0  0  0
    7.8834  -16.1335   22.3766 N   0  0  0  0  0  0  0  0  0  0  0  0
    6.5218  -15.7017   22.1786 C   0  0  0  0  0  0  0  0  0  0  0  0
    6.6926  -14.2753   21.6942 C   0  0  0  0  0  0  0  0  0  0  0  0
    7.9741  -13.7704   22.2649 C   0  0  0  0  0  0  0  0  0  0  0  0
    8.5504  -14.9671   22.9478 C   0  0  1  0  0  0  0  0  0  0  0  0
    8.3215  -14.8357   24.3914 C   0  0  0  0  0  0  0  0  0  0  0  0
    7.2526  -15.2480   24.8844 O   0  0  0  0  0  0  0  0  0  0  0  0
   11.2995  -15.3592   27.1968 C   0  0  0  0  0  0  0  0  0  0  0  0
   10.4235  -14.1482   27.3985 C   0  0  2  0  0  0  0  0  0  0  0  0
   10.1321  -13.9909   28.8875 C   0  0  0  0  0  0  0  0  0  0  0  0
    9.1096  -14.2534   26.6859 C   0  0  2  0  0  0  0  0  0  0  0  0
    9.2811  -14.2526   25.2445 N   0  0  0  0  0  0  0  0  0  0  0  0
    8.2749  -13.0908   27.1187 C   0  0  0  0  0  0  0  0  0  0  0  0
    8.1191  -12.0727   26.4325 O   0  0  0  0  0  0  0  0  0  0  0  0
    7.6473  -13.1702   28.3566 O   0  0  0  0  0  0  0  0  0  0  0  0
  1  2  1  0
  3  4  1  0
  3  2  1  0
  5  4  1  0
  5  7  1  0
  5  6  1  1
  7  9  1  0
  8  7  2  0
  9 10  1  0
  9 13  1  0
 10 11  1  0
 12 11  1  0
 13 12  1  0
 14 15  2  0
 13 14  1  1
 17 16  1  1
 18 17  1  0
 19 17  1  0
 19 20  1  6
 20 14  1  0
 21 19  1  0
 22 21  2  0
 23 21  1  0
M  END
$$$$
