MPV.pdb
     RDKit          3D

 23 23  0  0  1  0  0  0  0  0999 V2000
    4.6779  -11.8415   26.9400 C   0  0  0  0  0  0  0  0  0  0  0  0
    5.9118  -11.9728   25.6147 S   0  0  0  0  0  0  0  0  0  0  0  0
    6.7064  -13.5906   25.6112 C   0  0  0  0  0  0  0  0  0  0  0  0
    5.7037  -14.7184   25.6664 C   0  0  0  0  0  0  0  0  0  0  0  0
    6.5072  -16.0265   25.6681 C   0  0  2  0  0  0  0  0  0  0  0  0
    7.3038  -16.0178   26.8088 N   0  0  0  0  0  0  0  0  0  0  0  0
    7.1784  -16.1607   24.3606 C   0  0  0  0  0  0  0  0  0  0  0  0
    6.6415  -17.0243   23.5828 O   0  0  0  0  0  0  0  0  0  0  0  0
    8.3127  -15.4414   23.9287 N   0  0  0  0  0  0  0  0  0  0  0  0
    8.5353  -14.0261   23.7645 C   0  0  0  0  0  0  0  0  0  0  0  0
    9.3583  -13.9644   22.4928 C   0  0  0  0  0  0  0  0  0  0  0  0
   10.1033  -15.2520   22.3914 C   0  0  0  0  0  0  0  0  0  0  0  0
    9.5807  -16.0516   23.5395 C   0  0  1  0  0  0  0  0  0  0  0  0
   10.5756  -16.0245   24.6181 C   0  0  0  0  0  0  0  0  0  0  0  0
   11.7514  -16.3646   24.3785 O   0  0  0  0  0  0  0  0  0  0  0  0
    9.7622  -14.8638   28.8865 C   0  0  0  0  0  0  0  0  0  0  0  0
   11.0080  -14.7007   28.0522 C   0  0  2  0  0  0  0  0  0  0  0  0
   10.9363  -13.3693   27.3112 C   0  0  0  0  0  0  0  0  0  0  0  0
   11.1707  -15.7832   27.0289 C   0  0  2  0  0  0  0  0  0  0  0  0
   10.2393  -15.6226   25.9273 N   0  0  0  0  0  0  0  0  0  0  0  0
   10.9470  -17.0884   27.7232 C   0  0  0  0  0  0  0  0  0  0  0  0
   10.0067  -17.8479   27.4569 O   0  0  0  0  0  0  0  0  0  0  0  0
   11.8480  -17.4559   28.7161 O   0  0  0  0  0  0  0  0  0  0  0  0
  1  2  1  0
  3  4  1  0
  3  2  1  0
  5  4  1  0
  5  7  1  0
  5  6  1  1
  7  9  1  0
  8  7  2  0
  9 10  1  0
  9 13  1  0
 10 11  1  0
 12 11  1  0
 13 12  1  0
 14 15  2  0
 13 14  1  1
 17 16  1  6
 18 17  1  0
 19 17  1  0
 19 20  1  6
 20 14  1  0
 21 19  1  0
 22 21  2  0
 23 21  1  0
M  END
$$$$
