MPV.pdb
     RDKit          3D

 23 23  0  0  1  0  0  0  0  0999 V2000
    6.4891  -18.3391   27.1498 C   0  0  0  0  0  0  0  0  0  0  0  0
    6.6046  -19.0589   25.4870 S   0  0  0  0  0  0  0  0  0  0  0  0
    7.0930  -17.8255   24.2668 C   0  0  0  0  0  0  0  0  0  0  0  0
    6.0084  -16.8035   24.0236 C   0  0  0  0  0  0  0  0  0  0  0  0
    6.6312  -15.6905   23.1692 C   0  0  2  0  0  0  0  0  0  0  0  0
    7.2012  -16.2983   22.0550 N   0  0  0  0  0  0  0  0  0  0  0  0
    7.5080  -14.8772   24.0339 C   0  0  0  0  0  0  0  0  0  0  0  0
    8.7493  -14.9387   23.7264 O   0  0  0  0  0  0  0  0  0  0  0  0
    7.0964  -14.0771   25.1207 N   0  0  0  0  0  0  0  0  0  0  0  0
    5.7899  -13.8323   25.6799 C   0  0  0  0  0  0  0  0  0  0  0  0
    5.8450  -12.3557   26.0191 C   0  0  0  0  0  0  0  0  0  0  0  0
    7.2742  -12.0199   26.2788 C   0  0  0  0  0  0  0  0  0  0  0  0
    7.9973  -13.2855   25.9534 C   0  0  1  0  0  0  0  0  0  0  0  0
    8.3452  -13.9602   27.2094 C   0  0  0  0  0  0  0  0  0  0  0  0
    7.4404  -14.2830   28.0049 O   0  0  0  0  0  0  0  0  0  0  0  0
   11.9866  -17.1768   26.8271 C   0  0  0  0  0  0  0  0  0  0  0  0
   11.3955  -15.7924   26.7336 C   0  0  2  0  0  0  0  0  0  0  0  0
   12.4298  -14.7794   27.2140 C   0  0  0  0  0  0  0  0  0  0  0  0
   10.1677  -15.6242   27.5759 C   0  0  2  0  0  0  0  0  0  0  0  0
    9.6820  -14.2566   27.5466 N   0  0  0  0  0  0  0  0  0  0  0  0
   10.5267  -16.0269   28.9704 C   0  0  0  0  0  0  0  0  0  0  0  0
   10.5804  -15.2301   29.9158 O   0  0  0  0  0  0  0  0  0  0  0  0
   10.8123  -17.3674   29.2034 O   0  0  0  0  0  0  0  0  0  0  0  0
  1  2  1  0
  3  4  1  0
  3  2  1  0
  5  4  1  0
  5  7  1  0
  5  6  1  6
  7  9  1  0
  8  7  2  0
  9 10  1  0
  9 13  1  0
 10 11  1  0
 12 11  1  0
 13 12  1  0
 14 15  2  0
 13 14  1  1
 17 16  1  1
 18 17  1  0
 19 17  1  0
 19 20  1  1
 20 14  1  0
 21 19  1  0
 22 21  2  0
 23 21  1  0
M  END
$$$$
