MPV.pdb
     RDKit          3D

 23 23  0  0  1  0  0  0  0  0999 V2000
    5.8265  -12.6043   27.7500 C   0  0  0  0  0  0  0  0  0  0  0  0
    5.7733  -12.2888   25.9629 S   0  0  0  0  0  0  0  0  0  0  0  0
    5.5110  -13.8099   25.0322 C   0  0  0  0  0  0  0  0  0  0  0  0
    5.9675  -15.0308   25.7945 C   0  0  0  0  0  0  0  0  0  0  0  0
    5.9116  -16.2118   24.8153 C   0  0  2  0  0  0  0  0  0  0  0  0
    5.2131  -17.2362   25.4466 N   0  0  0  0  0  0  0  0  0  0  0  0
    7.2839  -16.4970   24.3534 C   0  0  0  0  0  0  0  0  0  0  0  0
    7.5990  -17.7375   24.3833 O   0  0  0  0  0  0  0  0  0  0  0  0
    8.2260  -15.5477   23.9040 N   0  0  0  0  0  0  0  0  0  0  0  0
    8.1691  -14.1081   23.8410 C   0  0  0  0  0  0  0  0  0  0  0  0
    8.8575  -13.8056   22.5246 C   0  0  0  0  0  0  0  0  0  0  0  0
    9.8161  -14.9181   22.2669 C   0  0  0  0  0  0  0  0  0  0  0  0
    9.5478  -15.8779   23.3792 C   0  0  1  0  0  0  0  0  0  0  0  0
   10.6071  -15.7346   24.3848 C   0  0  0  0  0  0  0  0  0  0  0  0
   11.8002  -15.8562   24.0424 O   0  0  0  0  0  0  0  0  0  0  0  0
    9.8395  -14.5943   28.5488 C   0  0  0  0  0  0  0  0  0  0  0  0
   11.1194  -14.3917   27.7772 C   0  0  2  0  0  0  0  0  0  0  0  0
   11.0527  -13.0516   27.0515 C   0  0  0  0  0  0  0  0  0  0  0  0
   11.3551  -15.4554   26.7485 C   0  0  2  0  0  0  0  0  0  0  0  0
   10.3141  -15.4616   25.7369 N   0  0  0  0  0  0  0  0  0  0  0  0
   11.4009  -16.7660   27.4668 C   0  0  0  0  0  0  0  0  0  0  0  0
   10.5384  -17.6438   27.3354 O   0  0  0  0  0  0  0  0  0  0  0  0
   12.4717  -16.9978   28.3224 O   0  0  0  0  0  0  0  0  0  0  0  0
  1  2  1  0
  3  4  1  0
  3  2  1  0
  5  4  1  0
  5  7  1  0
  5  6  1  1
  7  9  1  0
  8  7  2  0
  9 10  1  0
  9 13  1  0
 10 11  1  0
 12 11  1  0
 13 12  1  0
 14 15  2  0
 13 14  1  1
 17 16  1  6
 18 17  1  0
 19 17  1  0
 19 20  1  6
 20 14  1  0
 21 19  1  0
 22 21  2  0
 23 21  1  0
M  END
$$$$
