MPV.pdb
     RDKit          3D

 23 23  0  0  1  0  0  0  0  0999 V2000
    6.4516  -11.5221   26.2016 C   0  0  0  0  0  0  0  0  0  0  0  0
    5.0734  -12.5743   26.7397 S   0  0  0  0  0  0  0  0  0  0  0  0
    4.9305  -14.0496   25.7140 C   0  0  0  0  0  0  0  0  0  0  0  0
    6.1271  -14.9598   25.8545 C   0  0  0  0  0  0  0  0  0  0  0  0
    5.9608  -16.0751   24.8128 C   0  0  2  0  0  0  0  0  0  0  0  0
    5.1423  -17.0473   25.3789 N   0  0  0  0  0  0  0  0  0  0  0  0
    7.3022  -16.4859   24.3545 C   0  0  0  0  0  0  0  0  0  0  0  0
    7.4949  -17.7515   24.3673 O   0  0  0  0  0  0  0  0  0  0  0  0
    8.3354  -15.6263   23.9252 N   0  0  0  0  0  0  0  0  0  0  0  0
    8.3823  -14.1918   23.7858 C   0  0  0  0  0  0  0  0  0  0  0  0
    9.1763  -14.0079   22.5075 C   0  0  0  0  0  0  0  0  0  0  0  0
   10.0708  -15.1931   22.3741 C   0  0  0  0  0  0  0  0  0  0  0  0
    9.6633  -16.0707   23.5118 C   0  0  1  0  0  0  0  0  0  0  0  0
   10.6606  -15.9419   24.5808 C   0  0  0  0  0  0  0  0  0  0  0  0
   11.8743  -15.9569   24.2943 O   0  0  0  0  0  0  0  0  0  0  0  0
    9.7393  -14.6530   28.6617 C   0  0  0  0  0  0  0  0  0  0  0  0
   11.0228  -14.5281   27.8798 C   0  0  2  0  0  0  0  0  0  0  0  0
   10.9469  -13.2844   26.9997 C   0  0  0  0  0  0  0  0  0  0  0  0
   11.2785  -15.7035   26.9862 C   0  0  2  0  0  0  0  0  0  0  0  0
   10.2847  -15.8007   25.9327 N   0  0  0  0  0  0  0  0  0  0  0  0
   11.2587  -16.9273   27.8450 C   0  0  0  0  0  0  0  0  0  0  0  0
   10.4023  -17.8151   27.7440 O   0  0  0  0  0  0  0  0  0  0  0  0
   12.2584  -17.0628   28.8014 O   0  0  0  0  0  0  0  0  0  0  0  0
  1  2  1  0
  3  4  1  0
  3  2  1  0
  5  4  1  0
  5  7  1  0
  5  6  1  1
  7  9  1  0
  8  7  2  0
  9 10  1  0
  9 13  1  0
 10 11  1  0
 12 11  1  0
 13 12  1  0
 14 15  2  0
 13 14  1  1
 17 16  1  6
 18 17  1  0
 19 17  1  0
 19 20  1  6
 20 14  1  0
 21 19  1  0
 22 21  2  0
 23 21  1  0
M  END
$$$$
