LDW.pdb
     RDKit          3D

 31 32  0  0  1  0  0  0  0  0999 V2000
    9.4955  -19.2784   15.6388 C   0  0  0  0  0  0  0  0  0  0  0  0
    9.2600  -18.3282   16.7661 C   0  0  1  0  0  0  0  0  0  0  0  0
    8.0036  -17.5333   16.4404 C   0  0  0  0  0  0  0  0  0  0  0  0
    9.0516  -18.9729   18.0947 C   0  0  0  0  0  0  0  0  0  0  0  0
    8.7462  -18.0235   19.2099 C   0  0  2  0  0  0  0  0  0  0  0  0
    8.7490  -16.6375   18.7535 N   0  0  0  0  0  0  0  0  0  0  0  0
    9.8844  -18.1457   20.1902 C   0  0  0  0  0  0  0  0  0  0  0  0
   10.0914  -19.2421   20.7708 O   0  0  0  0  0  0  0  0  0  0  0  0
   10.7439  -17.0592   20.4881 N   0  0  0  0  0  0  0  0  0  0  0  0
   11.7920  -17.2220   21.5015 C   0  0  1  0  0  0  0  0  0  0  0  0
   13.0551  -16.5364   21.0574 C   0  0  0  0  0  0  0  0  0  0  0  0
   14.1788  -16.6693   22.0003 C   0  0  0  0  0  0  0  0  0  0  0  0
   14.5358  -17.7850   22.4546 O   0  0  0  0  0  0  0  0  0  0  0  0
   11.2846  -16.7962   22.8076 C   0  0  0  0  0  0  0  0  0  0  0  0
   12.0201  -16.9050   23.8196 O   0  0  0  0  0  0  0  0  0  0  0  0
   14.9182  -15.5609   22.4475 O   0  0  0  0  0  0  0  0  0  0  0  0
    9.9788  -16.2678   22.9263 N   0  0  0  0  0  0  0  0  0  0  0  0
    9.4640  -15.9315   24.2391 C   0  0  1  0  0  0  0  0  0  0  0  0
    8.6706  -14.6695   24.0780 C   0  0  0  0  0  0  0  0  0  0  0  0
    7.7475  -14.3664   25.1840 C   0  0  0  0  0  0  0  0  0  0  0  0
    7.1141  -15.3336   25.9930 C   0  0  0  0  0  0  0  0  0  0  0  0
    6.3776  -14.7038   26.9133 N   0  0  0  0  0  0  0  0  0  0  0  0
    6.4756  -13.3814   26.7733 C   0  0  0  0  0  0  0  0  0  0  0  0
    5.9265  -12.3181   27.4405 C   0  0  0  0  0  0  0  0  0  0  0  0
    6.2007  -11.0013   27.0648 C   0  0  0  0  0  0  0  0  0  0  0  0
    7.0383  -10.7584   26.0033 C   0  0  0  0  0  0  0  0  0  0  0  0
    7.5809  -11.8667   25.3455 C   0  0  0  0  0  0  0  0  0  0  0  0
    7.3279  -13.1626   25.6962 C   0  0  0  0  0  0  0  0  0  0  0  0
    8.8063  -17.0410   24.9111 C   0  0  0  0  0  0  0  0  0  0  0  0
    9.0217  -17.3339   26.2444 O   0  0  0  0  0  0  0  0  0  0  0  0
    7.9897  -17.8196   24.3090 O   0  0  0  0  0  0  0  0  0  0  0  0
  2  1  1  6
  3  2  1  0
  4  2  1  0
  5  4  1  0
  5  6  1  6
  7  5  1  0
  7  8  2  0
  9  7  1  0
 10  9  1  0
 10 11  1  6
 12 13  2  0
 12 11  1  0
 14 17  1  0
 14 10  1  0
 15 14  2  0
 16 12  1  0
 18 17  1  0
 18 19  1  6
 20 19  1  0
 21 20  2  0
 22 23  1  0
 22 21  1  0
 23 28  2  0
 24 25  2  0
 24 23  1  0
 25 26  1  0
 26 27  2  0
 28 27  1  0
 28 20  1  0
 29 18  1  0
 30 29  1  0
 31 29  2  0
M  END
$$$$
