LDW.pdb
     RDKit          3D

 31 32  0  0  1  0  0  0  0  0999 V2000
    7.0960  -14.0996   16.8770 C   0  0  0  0  0  0  0  0  0  0  0  0
    8.1796  -13.6724   17.8111 C   0  0  1  0  0  0  0  0  0  0  0  0
    7.9626  -12.1981   18.1209 C   0  0  0  0  0  0  0  0  0  0  0  0
    8.2105  -14.4043   19.1101 C   0  0  0  0  0  0  0  0  0  0  0  0
    9.1846  -13.8648   20.1094 C   0  0  2  0  0  0  0  0  0  0  0  0
   10.2299  -13.0729   19.4694 N   0  0  0  0  0  0  0  0  0  0  0  0
    9.8739  -15.0612   20.7134 C   0  0  0  0  0  0  0  0  0  0  0  0
    9.1874  -16.0157   21.1605 O   0  0  0  0  0  0  0  0  0  0  0  0
   11.2851  -15.1559   20.7988 N   0  0  0  0  0  0  0  0  0  0  0  0
   11.8921  -16.2339   21.5872 C   0  0  1  0  0  0  0  0  0  0  0  0
   13.3273  -16.4297   21.1815 C   0  0  0  0  0  0  0  0  0  0  0  0
   13.8870  -15.3239   20.3856 C   0  0  0  0  0  0  0  0  0  0  0  0
   13.6003  -15.1679   19.1723 O   0  0  0  0  0  0  0  0  0  0  0  0
   11.6829  -15.9784   23.0139 C   0  0  0  0  0  0  0  0  0  0  0  0
   12.3448  -15.0747   23.5816 O   0  0  0  0  0  0  0  0  0  0  0  0
   14.7719  -14.3789   20.9323 O   0  0  0  0  0  0  0  0  0  0  0  0
   10.7443  -16.7429   23.7439 N   0  0  0  0  0  0  0  0  0  0  0  0
    9.9188  -16.0920   24.7420 C   0  0  1  0  0  0  0  0  0  0  0  0
    8.7836  -15.4469   24.0050 C   0  0  0  0  0  0  0  0  0  0  0  0
    7.7007  -14.9276   24.8564 C   0  0  0  0  0  0  0  0  0  0  0  0
    6.5447  -15.6503   25.2205 C   0  0  0  0  0  0  0  0  0  0  0  0
    5.7987  -14.8856   26.0233 N   0  0  0  0  0  0  0  0  0  0  0  0
    6.3778  -13.7008   26.2197 C   0  0  0  0  0  0  0  0  0  0  0  0
    6.0280  -12.5860   26.9355 C   0  0  0  0  0  0  0  0  0  0  0  0
    6.8397  -11.4498   26.9583 C   0  0  0  0  0  0  0  0  0  0  0  0
    8.0164  -11.4416   26.2492 C   0  0  0  0  0  0  0  0  0  0  0  0
    8.3421  -12.5958   25.5301 C   0  0  0  0  0  0  0  0  0  0  0  0
    7.5645  -13.7186   25.4946 C   0  0  0  0  0  0  0  0  0  0  0  0
    9.5719  -16.9501   25.8639 C   0  0  0  0  0  0  0  0  0  0  0  0
    9.3883  -18.3129   25.7269 O   0  0  0  0  0  0  0  0  0  0  0  0
    9.4101  -16.4966   27.0488 O   0  0  0  0  0  0  0  0  0  0  0  0
  2  1  1  6
  3  2  1  0
  4  2  1  0
  5  4  1  0
  5  6  1  6
  7  5  1  0
  7  8  2  0
  9  7  1  0
 10  9  1  0
 10 11  1  1
 12 13  2  0
 12 11  1  0
 14 17  1  0
 14 10  1  0
 15 14  2  0
 16 12  1  0
 18 17  1  0
 18 19  1  6
 20 19  1  0
 21 20  2  0
 22 23  1  0
 22 21  1  0
 23 28  2  0
 24 25  2  0
 24 23  1  0
 25 26  1  0
 26 27  2  0
 28 27  1  0
 28 20  1  0
 29 18  1  0
 30 29  1  0
 31 29  2  0
M  END
$$$$
