LDW.pdb
     RDKit          3D

 31 32  0  0  1  0  0  0  0  0999 V2000
    6.7005  -13.6238   18.1304 C   0  0  0  0  0  0  0  0  0  0  0  0
    7.9687  -13.5034   18.9092 C   0  0  1  0  0  0  0  0  0  0  0  0
    8.1764  -12.0282   19.2212 C   0  0  0  0  0  0  0  0  0  0  0  0
    7.9799  -14.2422   20.2046 C   0  0  0  0  0  0  0  0  0  0  0  0
    9.1708  -13.9719   21.0689 C   0  0  2  0  0  0  0  0  0  0  0  0
   10.3657  -13.7106   20.2732 N   0  0  0  0  0  0  0  0  0  0  0  0
    9.4400  -15.2472   21.8254 C   0  0  0  0  0  0  0  0  0  0  0  0
    8.4765  -15.9569   22.2129 O   0  0  0  0  0  0  0  0  0  0  0  0
   10.7544  -15.6861   22.1217 N   0  0  0  0  0  0  0  0  0  0  0  0
   10.9494  -16.8707   22.9646 C   0  0  1  0  0  0  0  0  0  0  0  0
   11.8431  -17.8614   22.2699 C   0  0  0  0  0  0  0  0  0  0  0  0
   12.3137  -18.9594   23.1316 C   0  0  0  0  0  0  0  0  0  0  0  0
   13.4467  -18.9383   23.6744 O   0  0  0  0  0  0  0  0  0  0  0  0
   11.4007  -16.4592   24.2956 C   0  0  0  0  0  0  0  0  0  0  0  0
   12.5060  -16.8715   24.7263 O   0  0  0  0  0  0  0  0  0  0  0  0
   11.5274  -20.0930   23.3992 O   0  0  0  0  0  0  0  0  0  0  0  0
   10.5984  -15.6058   25.0870 N   0  0  0  0  0  0  0  0  0  0  0  0
    9.9708  -16.1280   26.2849 C   0  0  1  0  0  0  0  0  0  0  0  0
    8.6153  -16.6228   25.8777 C   0  0  0  0  0  0  0  0  0  0  0  0
    7.5409  -15.6177   25.9323 C   0  0  0  0  0  0  0  0  0  0  0  0
    6.1854  -15.8700   25.6319 C   0  0  0  0  0  0  0  0  0  0  0  0
    5.4904  -14.7440   25.8190 N   0  0  0  0  0  0  0  0  0  0  0  0
    6.2900  -13.7566   26.2234 C   0  0  0  0  0  0  0  0  0  0  0  0
    6.0792  -12.4396   26.5375 C   0  0  0  0  0  0  0  0  0  0  0  0
    7.1286  -11.6075   26.9334 C   0  0  0  0  0  0  0  0  0  0  0  0
    8.4035  -12.1131   27.0117 C   0  0  0  0  0  0  0  0  0  0  0  0
    8.5823  -13.4608   26.6842 C   0  0  0  0  0  0  0  0  0  0  0  0
    7.5710  -14.2933   26.2960 C   0  0  0  0  0  0  0  0  0  0  0  0
   10.8116  -17.0512   27.0306 C   0  0  0  0  0  0  0  0  0  0  0  0
   11.6656  -17.9434   26.4106 O   0  0  0  0  0  0  0  0  0  0  0  0
   10.8105  -17.0990   28.3086 O   0  0  0  0  0  0  0  0  0  0  0  0
  2  1  1  1
  3  2  1  0
  4  2  1  0
  5  4  1  0
  5  6  1  6
  7  5  1  0
  7  8  2  0
  9  7  1  0
 10  9  1  0
 10 11  1  6
 12 13  2  0
 12 11  1  0
 14 17  1  0
 14 10  1  0
 15 14  2  0
 16 12  1  0
 18 17  1  0
 18 19  1  6
 20 19  1  0
 21 20  2  0
 22 23  1  0
 22 21  1  0
 23 28  2  0
 24 25  2  0
 24 23  1  0
 25 26  1  0
 26 27  2  0
 28 27  1  0
 28 20  1  0
 29 18  1  0
 30 29  1  0
 31 29  2  0
M  END
$$$$
