LDW.pdb
     RDKit          3D

 31 32  0  0  1  0  0  0  0  0999 V2000
    6.1526  -12.8977   19.4909 C   0  0  0  0  0  0  0  0  0  0  0  0
    7.5385  -13.4483   19.5645 C   0  0  1  0  0  0  0  0  0  0  0  0
    8.5005  -12.2688   19.5671 C   0  0  0  0  0  0  0  0  0  0  0  0
    7.8242  -14.2633   20.7804 C   0  0  0  0  0  0  0  0  0  0  0  0
    9.2653  -14.6161   20.9729 C   0  0  2  0  0  0  0  0  0  0  0  0
    9.8222  -15.2696   19.7930 N   0  0  0  0  0  0  0  0  0  0  0  0
    9.3039  -15.6400   22.0781 C   0  0  0  0  0  0  0  0  0  0  0  0
    8.3809  -15.6698   22.9321 O   0  0  0  0  0  0  0  0  0  0  0  0
   10.3534  -16.5848   22.1955 N   0  0  0  0  0  0  0  0  0  0  0  0
   10.3280  -17.5632   23.2882 C   0  0  1  0  0  0  0  0  0  0  0  0
   11.3411  -18.6468   23.0392 C   0  0  0  0  0  0  0  0  0  0  0  0
   11.1077  -19.4217   21.8086 C   0  0  0  0  0  0  0  0  0  0  0  0
   12.0507  -19.9491   21.1673 O   0  0  0  0  0  0  0  0  0  0  0  0
   10.4661  -16.8716   24.5717 C   0  0  0  0  0  0  0  0  0  0  0  0
   11.3245  -15.9630   24.6928 O   0  0  0  0  0  0  0  0  0  0  0  0
    9.8211  -19.6187   21.2785 O   0  0  0  0  0  0  0  0  0  0  0  0
    9.6401  -17.2248   25.6632 N   0  0  0  0  0  0  0  0  0  0  0  0
   10.0397  -16.8550   27.0067 C   0  0  1  0  0  0  0  0  0  0  0  0
    8.8262  -16.2771   27.6711 C   0  0  0  0  0  0  0  0  0  0  0  0
    7.9560  -15.4759   26.7946 C   0  0  0  0  0  0  0  0  0  0  0  0
    6.9731  -16.0063   25.9321 C   0  0  0  0  0  0  0  0  0  0  0  0
    6.3544  -14.9941   25.3169 N   0  0  0  0  0  0  0  0  0  0  0  0
    6.8578  -13.8236   25.7096 C   0  0  0  0  0  0  0  0  0  0  0  0
    6.5853  -12.5211   25.3826 C   0  0  0  0  0  0  0  0  0  0  0  0
    7.2932  -11.4622   25.9551 C   0  0  0  0  0  0  0  0  0  0  0  0
    8.2869  -11.7240   26.8668 C   0  0  0  0  0  0  0  0  0  0  0  0
    8.5384  -13.0642   27.1772 C   0  0  0  0  0  0  0  0  0  0  0  0
    7.8580  -14.1154   26.6310 C   0  0  0  0  0  0  0  0  0  0  0  0
   10.7402  -17.9114   27.7200 C   0  0  0  0  0  0  0  0  0  0  0  0
   11.3539  -17.7021   28.9403 O   0  0  0  0  0  0  0  0  0  0  0  0
   10.8367  -19.1009   27.2603 O   0  0  0  0  0  0  0  0  0  0  0  0
  2  1  1  1
  3  2  1  0
  4  2  1  0
  5  4  1  0
  5  6  1  6
  7  5  1  0
  7  8  2  0
  9  7  1  0
 10  9  1  0
 10 11  1  6
 12 13  2  0
 12 11  1  0
 14 17  1  0
 14 10  1  0
 15 14  2  0
 16 12  1  0
 18 17  1  0
 18 19  1  1
 20 19  1  0
 21 20  2  0
 22 23  1  0
 22 21  1  0
 23 28  2  0
 24 25  2  0
 24 23  1  0
 25 26  1  0
 26 27  2  0
 28 27  1  0
 28 20  1  0
 29 18  1  0
 30 29  1  0
 31 29  2  0
M  END
$$$$
