LDW.pdb
     RDKit          3D

 31 32  0  0  1  0  0  0  0  0999 V2000
    6.3023  -13.0927   18.9422 C   0  0  0  0  0  0  0  0  0  0  0  0
    7.6758  -13.6491   19.1245 C   0  0  1  0  0  0  0  0  0  0  0  0
    8.6503  -12.4803   19.1017 C   0  0  0  0  0  0  0  0  0  0  0  0
    7.8878  -14.3856   20.4039 C   0  0  0  0  0  0  0  0  0  0  0  0
    9.3214  -14.6286   20.7559 C   0  0  2  0  0  0  0  0  0  0  0  0
   10.0321  -15.3111   19.6797 N   0  0  0  0  0  0  0  0  0  0  0  0
    9.3124  -15.5809   21.9239 C   0  0  0  0  0  0  0  0  0  0  0  0
    8.3909  -15.5114   22.7773 O   0  0  0  0  0  0  0  0  0  0  0  0
   10.3147  -16.5666   22.1020 N   0  0  0  0  0  0  0  0  0  0  0  0
   10.1860  -17.5418   23.1903 C   0  0  1  0  0  0  0  0  0  0  0  0
   11.0999  -18.7122   22.9502 C   0  0  0  0  0  0  0  0  0  0  0  0
   10.6228  -19.6506   21.9201 C   0  0  0  0  0  0  0  0  0  0  0  0
    9.4284  -19.6571   21.5301 O   0  0  0  0  0  0  0  0  0  0  0  0
   10.3690  -16.8693   24.4783 C   0  0  0  0  0  0  0  0  0  0  0  0
   11.2565  -15.9882   24.5927 O   0  0  0  0  0  0  0  0  0  0  0  0
   11.4707  -20.5921   21.3121 O   0  0  0  0  0  0  0  0  0  0  0  0
    9.5535  -17.2101   25.5815 N   0  0  0  0  0  0  0  0  0  0  0  0
    9.9624  -16.8190   26.9162 C   0  0  1  0  0  0  0  0  0  0  0  0
    8.7265  -16.3480   27.6224 C   0  0  0  0  0  0  0  0  0  0  0  0
    7.8225  -15.5156   26.8116 C   0  0  0  0  0  0  0  0  0  0  0  0
    6.8301  -16.0153   25.9417 C   0  0  0  0  0  0  0  0  0  0  0  0
    6.1796  -14.9821   25.3984 N   0  0  0  0  0  0  0  0  0  0  0  0
    6.6707  -13.8261   25.8459 C   0  0  0  0  0  0  0  0  0  0  0  0
    6.3676  -12.5128   25.5992 C   0  0  0  0  0  0  0  0  0  0  0  0
    7.0692  -11.4744   26.2155 C   0  0  0  0  0  0  0  0  0  0  0  0
    8.0877  -11.7681   27.0893 C   0  0  0  0  0  0  0  0  0  0  0  0
    8.3700  -13.1185   27.3177 C   0  0  0  0  0  0  0  0  0  0  0  0
    7.6964  -14.1502   26.7275 C   0  0  0  0  0  0  0  0  0  0  0  0
   10.7687  -17.8195   27.5974 C   0  0  0  0  0  0  0  0  0  0  0  0
   11.4274  -17.5595   28.7841 O   0  0  0  0  0  0  0  0  0  0  0  0
   10.9231  -19.0033   27.1385 O   0  0  0  0  0  0  0  0  0  0  0  0
  2  1  1  1
  3  2  1  0
  4  2  1  0
  5  4  1  0
  5  6  1  6
  7  5  1  0
  7  8  2  0
  9  7  1  0
 10  9  1  0
 10 11  1  6
 12 13  2  0
 12 11  1  0
 14 17  1  0
 14 10  1  0
 15 14  2  0
 16 12  1  0
 18 17  1  0
 18 19  1  1
 20 19  1  0
 21 20  2  0
 22 23  1  0
 22 21  1  0
 23 28  2  0
 24 25  2  0
 24 23  1  0
 25 26  1  0
 26 27  2  0
 28 27  1  0
 28 20  1  0
 29 18  1  0
 30 29  1  0
 31 29  2  0
M  END
$$$$
