LDW.pdb
     RDKit          3D

 31 32  0  0  1  0  0  0  0  0999 V2000
    6.2386  -13.3733   18.5615 C   0  0  0  0  0  0  0  0  0  0  0  0
    7.6458  -13.6792   18.9557 C   0  0  1  0  0  0  0  0  0  0  0  0
    8.4427  -12.3869   18.8486 C   0  0  0  0  0  0  0  0  0  0  0  0
    7.8085  -14.1931   20.3462 C   0  0  0  0  0  0  0  0  0  0  0  0
    9.2253  -14.2846   20.8178 C   0  0  2  0  0  0  0  0  0  0  0  0
   10.1294  -14.6638   19.7369 N   0  0  0  0  0  0  0  0  0  0  0  0
    9.2649  -15.4142   21.8148 C   0  0  0  0  0  0  0  0  0  0  0  0
    8.3175  -15.5596   22.6292 O   0  0  0  0  0  0  0  0  0  0  0  0
   10.3422  -16.3329   21.8721 N   0  0  0  0  0  0  0  0  0  0  0  0
   10.3126  -17.4230   22.8533 C   0  0  1  0  0  0  0  0  0  0  0  0
   11.3394  -18.4651   22.5036 C   0  0  0  0  0  0  0  0  0  0  0  0
   11.3132  -19.6551   23.3712 C   0  0  0  0  0  0  0  0  0  0  0  0
   10.2347  -20.1747   23.7527 O   0  0  0  0  0  0  0  0  0  0  0  0
   10.4276  -16.8719   24.2053 C   0  0  0  0  0  0  0  0  0  0  0  0
   11.2529  -15.9517   24.4274 O   0  0  0  0  0  0  0  0  0  0  0  0
   12.4879  -20.2802   23.8231 O   0  0  0  0  0  0  0  0  0  0  0  0
    9.6166  -17.3722   25.2494 N   0  0  0  0  0  0  0  0  0  0  0  0
    9.8587  -16.9352   26.6102 C   0  0  1  0  0  0  0  0  0  0  0  0
    8.5142  -16.6991   27.2302 C   0  0  0  0  0  0  0  0  0  0  0  0
    7.6507  -15.7507   26.5075 C   0  0  0  0  0  0  0  0  0  0  0  0
    6.6118  -16.1175   25.6259 C   0  0  0  0  0  0  0  0  0  0  0  0
    6.0193  -15.0062   25.1790 N   0  0  0  0  0  0  0  0  0  0  0  0
    6.5925  -13.9219   25.7019 C   0  0  0  0  0  0  0  0  0  0  0  0
    6.3702  -12.5769   25.5639 C   0  0  0  0  0  0  0  0  0  0  0  0
    7.1490  -11.6359   26.2410 C   0  0  0  0  0  0  0  0  0  0  0  0
    8.1629  -12.0604   27.0651 C   0  0  0  0  0  0  0  0  0  0  0  0
    8.3616  -13.4396   27.1826 C   0  0  0  0  0  0  0  0  0  0  0  0
    7.6116  -14.3776   26.5313 C   0  0  0  0  0  0  0  0  0  0  0  0
   10.7807  -17.7884   27.3431 C   0  0  0  0  0  0  0  0  0  0  0  0
   11.2555  -17.4615   28.5990 O   0  0  0  0  0  0  0  0  0  0  0  0
   11.2146  -18.8942   26.8692 O   0  0  0  0  0  0  0  0  0  0  0  0
  2  1  1  1
  3  2  1  0
  4  2  1  0
  5  4  1  0
  5  6  1  6
  7  5  1  0
  7  8  2  0
  9  7  1  0
 10  9  1  0
 10 11  1  6
 12 13  2  0
 12 11  1  0
 14 17  1  0
 14 10  1  0
 15 14  2  0
 16 12  1  0
 18 17  1  0
 18 19  1  1
 20 19  1  0
 21 20  2  0
 22 23  1  0
 22 21  1  0
 23 28  2  0
 24 25  2  0
 24 23  1  0
 25 26  1  0
 26 27  2  0
 28 27  1  0
 28 20  1  0
 29 18  1  0
 30 29  1  0
 31 29  2  0
M  END
$$$$
