LDW.pdb
     RDKit          3D

 31 32  0  0  1  0  0  0  0  0999 V2000
    7.1740  -12.0577   20.5896 C   0  0  0  0  0  0  0  0  0  0  0  0
    7.8119  -13.2739   20.0037 C   0  0  1  0  0  0  0  0  0  0  0  0
    9.0503  -12.8207   19.2438 C   0  0  0  0  0  0  0  0  0  0  0  0
    8.2454  -14.2949   21.0006 C   0  0  0  0  0  0  0  0  0  0  0  0
    8.9093  -15.5003   20.4136 C   0  0  2  0  0  0  0  0  0  0  0  0
    7.9871  -16.2759   19.5906 N   0  0  0  0  0  0  0  0  0  0  0  0
    9.2806  -16.3844   21.5763 C   0  0  0  0  0  0  0  0  0  0  0  0
    8.4025  -17.1059   22.1155 O   0  0  0  0  0  0  0  0  0  0  0  0
   10.5986  -16.4369   22.0939 N   0  0  0  0  0  0  0  0  0  0  0  0
   10.9039  -17.3428   23.2065 C   0  0  1  0  0  0  0  0  0  0  0  0
   12.2867  -17.9133   23.0476 C   0  0  0  0  0  0  0  0  0  0  0  0
   12.4925  -18.6603   21.7950 C   0  0  0  0  0  0  0  0  0  0  0  0
   13.1555  -18.1844   20.8397 O   0  0  0  0  0  0  0  0  0  0  0  0
   10.6600  -16.6600   24.4788 C   0  0  0  0  0  0  0  0  0  0  0  0
   11.0647  -15.4812   24.6330 O   0  0  0  0  0  0  0  0  0  0  0  0
   11.9626  -19.9460   21.5923 O   0  0  0  0  0  0  0  0  0  0  0  0
    9.9753  -17.3230   25.5228 N   0  0  0  0  0  0  0  0  0  0  0  0
   10.0110  -16.7686   26.8618 C   0  0  1  0  0  0  0  0  0  0  0  0
    8.5889  -16.6851   27.3292 C   0  0  0  0  0  0  0  0  0  0  0  0
    7.6958  -15.8869   26.4733 C   0  0  0  0  0  0  0  0  0  0  0  0
    6.7029  -16.4212   25.6249 C   0  0  0  0  0  0  0  0  0  0  0  0
    6.0638  -15.4112   25.0272 N   0  0  0  0  0  0  0  0  0  0  0  0
    6.5631  -14.2384   25.4184 C   0  0  0  0  0  0  0  0  0  0  0  0
    6.2725  -12.9366   25.1045 C   0  0  0  0  0  0  0  0  0  0  0  0
    6.9805  -11.8745   25.6711 C   0  0  0  0  0  0  0  0  0  0  0  0
    7.9926  -12.1325   26.5634 C   0  0  0  0  0  0  0  0  0  0  0  0
    8.2621  -13.4721   26.8608 C   0  0  0  0  0  0  0  0  0  0  0  0
    7.5821  -14.5264   26.3200 C   0  0  0  0  0  0  0  0  0  0  0  0
   10.9560  -17.4337   27.7449 C   0  0  0  0  0  0  0  0  0  0  0  0
   11.2916  -16.9300   28.9873 O   0  0  0  0  0  0  0  0  0  0  0  0
   11.5405  -18.5255   27.4255 O   0  0  0  0  0  0  0  0  0  0  0  0
  2  1  1  1
  3  2  1  0
  4  2  1  0
  5  4  1  0
  5  6  1  6
  7  5  1  0
  7  8  2  0
  9  7  1  0
 10  9  1  0
 10 11  1  1
 12 13  2  0
 12 11  1  0
 14 17  1  0
 14 10  1  0
 15 14  2  0
 16 12  1  0
 18 17  1  0
 18 19  1  1
 20 19  1  0
 21 20  2  0
 22 23  1  0
 22 21  1  0
 23 28  2  0
 24 25  2  0
 24 23  1  0
 25 26  1  0
 26 27  2  0
 28 27  1  0
 28 20  1  0
 29 18  1  0
 30 29  1  0
 31 29  2  0
M  END
$$$$
