LDW.pdb
     RDKit          3D

 31 32  0  0  1  0  0  0  0  0999 V2000
    6.6952  -13.7980   17.8343 C   0  0  0  0  0  0  0  0  0  0  0  0
    8.0960  -13.7357   18.3475 C   0  0  1  0  0  0  0  0  0  0  0  0
    8.4728  -12.2665   18.4733 C   0  0  0  0  0  0  0  0  0  0  0  0
    8.3019  -14.3680   19.6824 C   0  0  0  0  0  0  0  0  0  0  0  0
    9.6381  -14.1029   20.3009 C   0  0  2  0  0  0  0  0  0  0  0  0
   10.6884  -14.0046   19.2927 N   0  0  0  0  0  0  0  0  0  0  0  0
    9.9654  -15.3168   21.1320 C   0  0  0  0  0  0  0  0  0  0  0  0
    9.0499  -15.9053   21.7626 O   0  0  0  0  0  0  0  0  0  0  0  0
   11.2824  -15.8300   21.2327 N   0  0  0  0  0  0  0  0  0  0  0  0
   11.5701  -16.9029   22.1908 C   0  0  1  0  0  0  0  0  0  0  0  0
   12.9335  -17.4819   21.9287 C   0  0  0  0  0  0  0  0  0  0  0  0
   13.1865  -17.8183   20.5172 C   0  0  0  0  0  0  0  0  0  0  0  0
   12.5762  -18.7511   19.9375 O   0  0  0  0  0  0  0  0  0  0  0  0
   11.3584  -16.4147   23.5551 C   0  0  0  0  0  0  0  0  0  0  0  0
   11.7629  -15.2679   23.8689 O   0  0  0  0  0  0  0  0  0  0  0  0
   14.1216  -17.1191   19.7351 O   0  0  0  0  0  0  0  0  0  0  0  0
   10.7046  -17.2278   24.5088 N   0  0  0  0  0  0  0  0  0  0  0  0
    9.7666  -16.6245   25.4349 C   0  0  1  0  0  0  0  0  0  0  0  0
    8.8928  -15.7127   24.6268 C   0  0  0  0  0  0  0  0  0  0  0  0
    7.7913  -15.0808   25.3717 C   0  0  0  0  0  0  0  0  0  0  0  0
    6.5504  -15.6929   25.6485 C   0  0  0  0  0  0  0  0  0  0  0  0
    5.8087  -14.8466   26.3692 N   0  0  0  0  0  0  0  0  0  0  0  0
    6.4699  -13.7104   26.5920 C   0  0  0  0  0  0  0  0  0  0  0  0
    6.1593  -12.5513   27.2536 C   0  0  0  0  0  0  0  0  0  0  0  0
    7.0618  -11.4880   27.3244 C   0  0  0  0  0  0  0  0  0  0  0  0
    8.2903  -11.5986   26.7194 C   0  0  0  0  0  0  0  0  0  0  0  0
    8.5738  -12.7950   26.0533 C   0  0  0  0  0  0  0  0  0  0  0  0
    7.7074  -13.8482   25.9724 C   0  0  0  0  0  0  0  0  0  0  0  0
    9.0962  -17.5851   26.2969 C   0  0  0  0  0  0  0  0  0  0  0  0
    8.7772  -17.3058   27.6122 O   0  0  0  0  0  0  0  0  0  0  0  0
    8.7632  -18.7521   25.8932 O   0  0  0  0  0  0  0  0  0  0  0  0
  2  1  1  1
  3  2  1  0
  4  2  1  0
  5  4  1  0
  5  6  1  6
  7  5  1  0
  7  8  2  0
  9  7  1  0
 10  9  1  0
 10 11  1  1
 12 13  2  0
 12 11  1  0
 14 17  1  0
 14 10  1  0
 15 14  2  0
 16 12  1  0
 18 17  1  0
 18 19  1  6
 20 19  1  0
 21 20  2  0
 22 23  1  0
 22 21  1  0
 23 28  2  0
 24 25  2  0
 24 23  1  0
 25 26  1  0
 26 27  2  0
 28 27  1  0
 28 20  1  0
 29 18  1  0
 30 29  1  0
 31 29  2  0
M  END
$$$$
