LDW.pdb
     RDKit          3D

 31 32  0  0  1  0  0  0  0  0999 V2000
    6.4893  -13.2730   18.4047 C   0  0  0  0  0  0  0  0  0  0  0  0
    7.9132  -13.5882   18.7247 C   0  0  1  0  0  0  0  0  0  0  0  0
    8.6750  -12.2713   18.7694 C   0  0  0  0  0  0  0  0  0  0  0  0
    8.1237  -14.2733   20.0326 C   0  0  0  0  0  0  0  0  0  0  0  0
    9.5541  -14.3884   20.4557 C   0  0  2  0  0  0  0  0  0  0  0  0
   10.4205  -14.7402   19.3355 N   0  0  0  0  0  0  0  0  0  0  0  0
    9.6169  -15.5481   21.4161 C   0  0  0  0  0  0  0  0  0  0  0  0
    8.7569  -15.6485   22.3286 O   0  0  0  0  0  0  0  0  0  0  0  0
   10.6202  -16.5451   21.3312 N   0  0  0  0  0  0  0  0  0  0  0  0
   10.6776  -17.6027   22.3461 C   0  0  1  0  0  0  0  0  0  0  0  0
   11.6294  -18.6851   21.9154 C   0  0  0  0  0  0  0  0  0  0  0  0
   11.7754  -19.7833   22.8860 C   0  0  0  0  0  0  0  0  0  0  0  0
   12.4792  -19.6660   23.9202 O   0  0  0  0  0  0  0  0  0  0  0  0
   10.9642  -17.0135   23.6558 C   0  0  0  0  0  0  0  0  0  0  0  0
   12.0572  -16.4231   23.8400 O   0  0  0  0  0  0  0  0  0  0  0  0
   11.1386  -21.0245   22.7160 O   0  0  0  0  0  0  0  0  0  0  0  0
   10.0183  -17.1093   24.7019 N   0  0  0  0  0  0  0  0  0  0  0  0
   10.3542  -16.5936   26.0144 C   0  0  1  0  0  0  0  0  0  0  0  0
    9.9973  -15.1374   26.0069 C   0  0  0  0  0  0  0  0  0  0  0  0
    8.5567  -14.8476   25.9179 C   0  0  0  0  0  0  0  0  0  0  0  0
    7.5570  -15.8065   25.6487 C   0  0  0  0  0  0  0  0  0  0  0  0
    6.3663  -15.2005   25.6760 N   0  0  0  0  0  0  0  0  0  0  0  0
    6.5030  -13.9016   25.9445 C   0  0  0  0  0  0  0  0  0  0  0  0
    5.6155  -12.8656   26.0735 C   0  0  0  0  0  0  0  0  0  0  0  0
    6.0461  -11.5675   26.3561 C   0  0  0  0  0  0  0  0  0  0  0  0
    7.3879  -11.3155   26.5090 C   0  0  0  0  0  0  0  0  0  0  0  0
    8.2651  -12.3957   26.3708 C   0  0  0  0  0  0  0  0  0  0  0  0
    7.8665  -13.6732   26.0961 C   0  0  0  0  0  0  0  0  0  0  0  0
    9.8293  -17.3942   27.1092 C   0  0  0  0  0  0  0  0  0  0  0  0
    8.9711  -18.4581   26.9055 O   0  0  0  0  0  0  0  0  0  0  0  0
   10.1252  -17.1613   28.3314 O   0  0  0  0  0  0  0  0  0  0  0  0
  2  1  1  1
  3  2  1  0
  4  2  1  0
  5  4  1  0
  5  6  1  6
  7  5  1  0
  7  8  2  0
  9  7  1  0
 10  9  1  0
 10 11  1  6
 12 13  2  0
 12 11  1  0
 14 17  1  0
 14 10  1  0
 15 14  2  0
 16 12  1  0
 18 17  1  0
 18 19  1  6
 20 19  1  0
 21 20  2  0
 22 23  1  0
 22 21  1  0
 23 28  2  0
 24 25  2  0
 24 23  1  0
 25 26  1  0
 26 27  2  0
 28 27  1  0
 28 20  1  0
 29 18  1  0
 30 29  1  0
 31 29  2  0
M  END
$$$$
