LDW.pdb
     RDKit          3D

 31 32  0  0  1  0  0  0  0  0999 V2000
    7.6071  -11.8171   20.9151 C   0  0  0  0  0  0  0  0  0  0  0  0
    7.7775  -13.1774   20.3238 C   0  0  1  0  0  0  0  0  0  0  0  0
    9.0017  -13.1341   19.4204 C   0  0  0  0  0  0  0  0  0  0  0  0
    7.9909  -14.2692   21.3170 C   0  0  0  0  0  0  0  0  0  0  0  0
    8.2073  -15.6242   20.7207 C   0  0  2  0  0  0  0  0  0  0  0  0
    6.9438  -16.2794   20.3994 N   0  0  0  0  0  0  0  0  0  0  0  0
    8.8523  -16.4594   21.7968 C   0  0  0  0  0  0  0  0  0  0  0  0
    8.1318  -17.1212   22.5874 O   0  0  0  0  0  0  0  0  0  0  0  0
   10.2585  -16.5308   21.9558 N   0  0  0  0  0  0  0  0  0  0  0  0
   10.8247  -17.3489   23.0338 C   0  0  1  0  0  0  0  0  0  0  0  0
   12.2380  -17.7416   22.7007 C   0  0  0  0  0  0  0  0  0  0  0  0
   12.7567  -18.8668   23.4971 C   0  0  0  0  0  0  0  0  0  0  0  0
   12.0562  -19.4434   24.3663 O   0  0  0  0  0  0  0  0  0  0  0  0
   10.6612  -16.6576   24.3144 C   0  0  0  0  0  0  0  0  0  0  0  0
   11.1566  -15.5134   24.4645 O   0  0  0  0  0  0  0  0  0  0  0  0
   14.0613  -19.3631   23.3339 O   0  0  0  0  0  0  0  0  0  0  0  0
    9.9523  -17.2739   25.3707 N   0  0  0  0  0  0  0  0  0  0  0  0
   10.0781  -16.7464   26.7151 C   0  0  1  0  0  0  0  0  0  0  0  0
    8.6862  -16.6189   27.2576 C   0  0  0  0  0  0  0  0  0  0  0  0
    7.7605  -15.8337   26.4247 C   0  0  0  0  0  0  0  0  0  0  0  0
    6.7676  -16.3831   25.5859 C   0  0  0  0  0  0  0  0  0  0  0  0
    6.0948  -15.3827   25.0094 N   0  0  0  0  0  0  0  0  0  0  0  0
    6.5714  -14.2022   25.4059 C   0  0  0  0  0  0  0  0  0  0  0  0
    6.2443  -12.9047   25.1111 C   0  0  0  0  0  0  0  0  0  0  0  0
    6.9351  -11.8317   25.6784 C   0  0  0  0  0  0  0  0  0  0  0  0
    7.9672  -12.0744   26.5520 C   0  0  0  0  0  0  0  0  0  0  0  0
    8.2739  -13.4100   26.8302 C   0  0  0  0  0  0  0  0  0  0  0  0
    7.6113  -14.4748   26.2884 C   0  0  0  0  0  0  0  0  0  0  0  0
   11.0415  -17.4626   27.5364 C   0  0  0  0  0  0  0  0  0  0  0  0
   11.4130  -17.0274   28.7943 O   0  0  0  0  0  0  0  0  0  0  0  0
   11.6099  -18.5390   27.1441 O   0  0  0  0  0  0  0  0  0  0  0  0
  2  1  1  1
  3  2  1  0
  4  2  1  0
  5  4  1  0
  5  6  1  1
  7  5  1  0
  7  8  2  0
  9  7  1  0
 10  9  1  0
 10 11  1  6
 12 13  2  0
 12 11  1  0
 14 17  1  0
 14 10  1  0
 15 14  2  0
 16 12  1  0
 18 17  1  0
 18 19  1  1
 20 19  1  0
 21 20  2  0
 22 23  1  0
 22 21  1  0
 23 28  2  0
 24 25  2  0
 24 23  1  0
 25 26  1  0
 26 27  2  0
 28 27  1  0
 28 20  1  0
 29 18  1  0
 30 29  1  0
 31 29  2  0
M  END
$$$$
