GSP.pdb
     RDKit          3D

 18 18  0  0  1  0  0  0  0  0999 V2000
   14.5119  -21.7086    1.1210 N   0  0  0  0  0  0  0  0  0  0  0  0
   14.4397  -20.5250    1.9430 C   0  0  0  0  0  0  0  0  0  0  0  0
   15.7500  -20.3158    2.5865 C   0  0  0  0  0  0  0  0  0  0  0  0
   16.6505  -21.1590    2.4510 O   0  0  0  0  0  0  0  0  0  0  0  0
   15.8936  -16.9989    4.4346 O   0  0  0  0  0  0  0  0  0  0  0  0
   17.2212  -17.4282    4.4016 C   0  0  0  0  0  0  0  0  0  0  0  0
   17.2811  -18.9098    4.0332 C   0  0  2  0  0  0  0  0  0  0  0  0
   16.0080  -19.1617    3.3647 N   0  0  0  0  0  0  0  0  0  0  0  0
   17.3026  -19.6747    5.2984 C   0  0  0  0  0  0  0  0  0  0  0  0
   16.1961  -20.1209    5.7263 O   0  0  0  0  0  0  0  0  0  0  0  0
   18.4687  -19.9441    6.0623 N   0  0  0  0  0  0  0  0  0  0  0  0
   19.7929  -19.4075    5.7486 C   0  0  0  0  0  0  0  0  0  0  0  0
   20.7032  -20.5247    6.1384 C   0  0  0  0  0  0  0  0  0  0  0  0
   19.9184  -21.4938    6.9674 C   0  0  0  0  0  0  0  0  0  0  0  0
   18.6504  -20.7255    7.2598 C   0  0  1  0  0  0  0  0  0  0  0  0
   18.9354  -19.8628    8.4568 C   0  0  0  0  0  0  0  0  0  0  0  0
   19.1691  -18.6409    8.3475 O   0  0  0  0  0  0  0  0  0  0  0  0
   18.9450  -20.4089    9.7078 O   0  0  0  0  0  0  0  0  0  0  0  0
  1  2  1  0
  3  2  1  0
  4  3  2  0
  5  6  1  0
  7  6  1  1
  7  8  1  0
  7  9  1  0
  8  3  1  0
  9 10  2  0
 11  9  1  0
 11 12  1  0
 13 12  1  0
 14 13  1  0
 15 14  1  0
 15 11  1  0
 15 16  1  1
 16 18  1  0
 17 16  2  0
M  END
$$$$
