GSP.pdb
     RDKit          3D

 18 18  0  0  1  0  0  0  0  0999 V2000
   20.4327  -12.7454  -20.4141 N   0  0  0  0  0  0  0  0  0  0  0  0
   21.0491  -11.4414  -20.3758 C   0  0  0  0  0  0  0  0  0  0  0  0
   21.6702  -11.2508  -19.0519 C   0  0  0  0  0  0  0  0  0  0  0  0
   21.1044  -11.6771  -18.0329 O   0  0  0  0  0  0  0  0  0  0  0  0
   24.9905   -8.8349  -18.8524 O   0  0  0  0  0  0  0  0  0  0  0  0
   24.9632   -9.9146  -17.9684 C   0  0  0  0  0  0  0  0  0  0  0  0
   23.5177  -10.2701  -17.6239 C   0  0  2  0  0  0  0  0  0  0  0  0
   22.9119  -10.5849  -18.9143 N   0  0  0  0  0  0  0  0  0  0  0  0
   22.8798   -9.0452  -17.0959 C   0  0  0  0  0  0  0  0  0  0  0  0
   22.2997   -8.2867  -17.9294 O   0  0  0  0  0  0  0  0  0  0  0  0
   22.8701   -8.6618  -15.7288 N   0  0  0  0  0  0  0  0  0  0  0  0
   23.6224   -9.3525  -14.6814 C   0  0  0  0  0  0  0  0  0  0  0  0
   22.7135   -9.2529  -13.5012 C   0  0  0  0  0  0  0  0  0  0  0  0
   21.6634   -8.2311  -13.8103 C   0  0  0  0  0  0  0  0  0  0  0  0
   22.2012   -7.5741  -15.0604 C   0  0  1  0  0  0  0  0  0  0  0  0
   23.1649   -6.5130  -14.6092 C   0  0  0  0  0  0  0  0  0  0  0  0
   24.3972   -6.6281  -14.7768 O   0  0  0  0  0  0  0  0  0  0  0  0
   22.7030   -5.3842  -13.9962 O   0  0  0  0  0  0  0  0  0  0  0  0
  1  2  1  0
  3  2  1  0
  4  3  2  0
  5  6  1  0
  7  6  1  6
  7  8  1  0
  7  9  1  0
  8  3  1  0
  9 10  2  0
 11  9  1  0
 11 12  1  0
 13 12  1  0
 14 13  1  0
 15 14  1  0
 15 11  1  0
 15 16  1  1
 16 18  1  0
 17 16  2  0
M  END
$$$$
