GSP.pdb
     RDKit          3D

 18 18  0  0  1  0  0  0  0  0999 V2000
    9.7950  -17.0990   -0.5392 N   0  0  0  0  0  0  0  0  0  0  0  0
   10.1743  -18.1000    0.4282 C   0  0  0  0  0  0  0  0  0  0  0  0
   11.5025  -17.7556    0.9687 C   0  0  0  0  0  0  0  0  0  0  0  0
   11.9520  -16.6074    0.8279 O   0  0  0  0  0  0  0  0  0  0  0  0
   14.3671  -16.9072    3.9754 O   0  0  0  0  0  0  0  0  0  0  0  0
   13.2058  -17.3781    3.3608 C   0  0  0  0  0  0  0  0  0  0  0  0
   13.5635  -18.4064    2.2889 C   0  0  2  0  0  0  0  0  0  0  0  0
   12.2865  -18.7157    1.6527 N   0  0  0  0  0  0  0  0  0  0  0  0
   14.0419  -19.6185    2.9875 C   0  0  0  0  0  0  0  0  0  0  0  0
   13.1642  -20.3965    3.4681 O   0  0  0  0  0  0  0  0  0  0  0  0
   15.4070  -19.9709    3.1557 N   0  0  0  0  0  0  0  0  0  0  0  0
   16.5259  -19.1393    2.7124 C   0  0  0  0  0  0  0  0  0  0  0  0
   17.5354  -20.1489    2.2758 C   0  0  0  0  0  0  0  0  0  0  0  0
   17.1106  -21.4855    2.8005 C   0  0  0  0  0  0  0  0  0  0  0  0
   16.0130  -21.1233    3.7739 C   0  0  1  0  0  0  0  0  0  0  0  0
   16.6853  -20.7770    5.0724 C   0  0  0  0  0  0  0  0  0  0  0  0
   16.8529  -19.5929    5.4322 O   0  0  0  0  0  0  0  0  0  0  0  0
   17.1341  -21.7681    5.8969 O   0  0  0  0  0  0  0  0  0  0  0  0
  1  2  1  0
  3  2  1  0
  4  3  2  0
  5  6  1  0
  7  6  1  1
  7  8  1  0
  7  9  1  0
  8  3  1  0
  9 10  2  0
 11  9  1  0
 11 12  1  0
 13 12  1  0
 14 13  1  0
 15 14  1  0
 15 11  1  0
 15 16  1  1
 16 18  1  0
 17 16  2  0
M  END
$$$$
