GSP.pdb
     RDKit          3D

 18 18  0  0  1  0  0  0  0  0999 V2000
   23.7580  -21.4766   -7.5567 N   0  0  0  0  0  0  0  0  0  0  0  0
   24.0111  -20.3983   -8.4813 C   0  0  0  0  0  0  0  0  0  0  0  0
   24.6930  -20.9444   -9.6693 C   0  0  0  0  0  0  0  0  0  0  0  0
   25.6777  -21.6875   -9.5338 O   0  0  0  0  0  0  0  0  0  0  0  0
   22.7675  -20.6244  -13.1414 O   0  0  0  0  0  0  0  0  0  0  0  0
   23.7652  -21.5981  -13.0739 C   0  0  0  0  0  0  0  0  0  0  0  0
   24.9100  -21.1109  -12.1871 C   0  0  2  0  0  0  0  0  0  0  0  0
   24.2454  -20.6372  -10.9767 N   0  0  0  0  0  0  0  0  0  0  0  0
   25.5256  -19.9504  -12.8656 C   0  0  0  0  0  0  0  0  0  0  0  0
   25.1579  -18.7965  -12.4915 O   0  0  0  0  0  0  0  0  0  0  0  0
   26.4950  -20.0370  -13.8994 N   0  0  0  0  0  0  0  0  0  0  0  0
   26.9600  -21.2967  -14.4797 C   0  0  0  0  0  0  0  0  0  0  0  0
   28.4005  -21.0205  -14.7583 C   0  0  0  0  0  0  0  0  0  0  0  0
   28.6160  -19.5419  -14.6601 C   0  0  0  0  0  0  0  0  0  0  0  0
   27.2039  -19.0058  -14.6146 C   0  0  1  0  0  0  0  0  0  0  0  0
   26.7410  -18.8891  -16.0394 C   0  0  0  0  0  0  0  0  0  0  0  0
   26.0197  -19.7592  -16.5710 O   0  0  0  0  0  0  0  0  0  0  0  0
   27.1075  -17.8113  -16.7926 O   0  0  0  0  0  0  0  0  0  0  0  0
  1  2  1  0
  3  2  1  0
  4  3  2  0
  5  6  1  0
  7  6  1  6
  7  8  1  0
  7  9  1  0
  8  3  1  0
  9 10  2  0
 11  9  1  0
 11 12  1  0
 13 12  1  0
 14 13  1  0
 15 14  1  0
 15 11  1  0
 15 16  1  6
 16 18  1  0
 17 16  2  0
M  END
$$$$
