GSP.pdb
     RDKit          3D

 18 18  0  0  1  0  0  0  0  0999 V2000
   16.8943  -13.1538  -16.1708 N   0  0  0  0  0  0  0  0  0  0  0  0
   16.9225  -11.7198  -16.3271 C   0  0  0  0  0  0  0  0  0  0  0  0
   18.3201  -11.2605  -16.2253 C   0  0  0  0  0  0  0  0  0  0  0  0
   19.1103  -11.8389  -15.4628 O   0  0  0  0  0  0  0  0  0  0  0  0
   19.3489   -7.6817  -17.9699 O   0  0  0  0  0  0  0  0  0  0  0  0
   20.2601   -8.7258  -18.1356 C   0  0  0  0  0  0  0  0  0  0  0  0
   20.1686   -9.6900  -16.9538 C   0  0  2  0  0  0  0  0  0  0  0  0
   18.7875  -10.1619  -16.9860 N   0  0  0  0  0  0  0  0  0  0  0  0
   20.3605   -8.8933  -15.7232 C   0  0  0  0  0  0  0  0  0  0  0  0
   19.3196   -8.4667  -15.1392 O   0  0  0  0  0  0  0  0  0  0  0  0
   21.6211   -8.5756  -15.1522 N   0  0  0  0  0  0  0  0  0  0  0  0
   22.9039   -8.8578  -15.7961 C   0  0  0  0  0  0  0  0  0  0  0  0
   23.7848   -9.2024  -14.6410 C   0  0  0  0  0  0  0  0  0  0  0  0
   23.0913   -8.7727  -13.3854 C   0  0  0  0  0  0  0  0  0  0  0  0
   21.9554   -7.9254  -13.9101 C   0  0  1  0  0  0  0  0  0  0  0  0
   22.5113   -6.5465  -14.1284 C   0  0  0  0  0  0  0  0  0  0  0  0
   22.7864   -5.7885  -13.1748 O   0  0  0  0  0  0  0  0  0  0  0  0
   22.7289   -6.0887  -15.3958 O   0  0  0  0  0  0  0  0  0  0  0  0
  1  2  1  0
  3  2  1  0
  4  3  2  0
  5  6  1  0
  7  6  1  6
  7  8  1  0
  7  9  1  0
  8  3  1  0
  9 10  2  0
 11  9  1  0
 11 12  1  0
 13 12  1  0
 14 13  1  0
 15 14  1  0
 15 11  1  0
 15 16  1  6
 16 18  1  0
 17 16  2  0
M  END
$$$$
