GSP.pdb
     RDKit          3D

 18 18  0  0  1  0  0  0  0  0999 V2000
   15.3633  -11.2973  -16.2779 N   0  0  0  0  0  0  0  0  0  0  0  0
   16.0048  -10.1032  -16.7722 C   0  0  0  0  0  0  0  0  0  0  0  0
   17.4191  -10.1191  -16.3548 C   0  0  0  0  0  0  0  0  0  0  0  0
   17.7551  -10.7170  -15.3205 O   0  0  0  0  0  0  0  0  0  0  0  0
   20.2519   -7.7982  -18.4406 O   0  0  0  0  0  0  0  0  0  0  0  0
   20.5491   -9.1043  -18.0484 C   0  0  0  0  0  0  0  0  0  0  0  0
   19.8262   -9.4341  -16.7434 C   0  0  2  0  0  0  0  0  0  0  0  0
   18.4148   -9.4603  -17.1156 N   0  0  0  0  0  0  0  0  0  0  0  0
   20.0446   -8.2978  -15.8230 C   0  0  0  0  0  0  0  0  0  0  0  0
   19.1502   -7.4004  -15.7854 O   0  0  0  0  0  0  0  0  0  0  0  0
   21.1782   -8.1427  -14.9822 N   0  0  0  0  0  0  0  0  0  0  0  0
   22.3878   -8.9592  -15.0830 C   0  0  0  0  0  0  0  0  0  0  0  0
   22.8148   -9.0947  -13.6589 C   0  0  0  0  0  0  0  0  0  0  0  0
   22.0591   -8.0857  -12.8508 C   0  0  0  0  0  0  0  0  0  0  0  0
   21.4384   -7.2101  -13.9145 C   0  0  1  0  0  0  0  0  0  0  0  0
   22.4770   -6.1933  -14.2961 C   0  0  0  0  0  0  0  0  0  0  0  0
   23.1374   -6.2905  -15.3517 O   0  0  0  0  0  0  0  0  0  0  0  0
   22.7228   -5.1263  -13.4810 O   0  0  0  0  0  0  0  0  0  0  0  0
  1  2  1  0
  3  2  1  0
  4  3  2  0
  5  6  1  0
  7  6  1  6
  7  8  1  0
  7  9  1  0
  8  3  1  0
  9 10  2  0
 11  9  1  0
 11 12  1  0
 13 12  1  0
 14 13  1  0
 15 14  1  0
 15 11  1  0
 15 16  1  6
 16 18  1  0
 17 16  2  0
M  END
$$$$
