GSP.pdb
     RDKit          3D

 18 18  0  0  1  0  0  0  0  0999 V2000
   15.8528  -11.0422  -17.2340 N   0  0  0  0  0  0  0  0  0  0  0  0
   16.3327   -9.6815  -17.2410 C   0  0  0  0  0  0  0  0  0  0  0  0
   17.6068   -9.6258  -16.5005 C   0  0  0  0  0  0  0  0  0  0  0  0
   17.6475   -9.9657  -15.3076 O   0  0  0  0  0  0  0  0  0  0  0  0
   22.3914   -8.8987  -17.0328 O   0  0  0  0  0  0  0  0  0  0  0  0
   21.0984   -8.9084  -17.5582 C   0  0  0  0  0  0  0  0  0  0  0  0
   20.0797   -9.0834  -16.4330 C   0  0  2  0  0  0  0  0  0  0  0  0
   18.7991   -9.1884  -17.1259 N   0  0  0  0  0  0  0  0  0  0  0  0
   20.0812   -7.8335  -15.6431 C   0  0  0  0  0  0  0  0  0  0  0  0
   19.3554   -6.8818  -16.0603 O   0  0  0  0  0  0  0  0  0  0  0  0
   20.8329   -7.6261  -14.4565 N   0  0  0  0  0  0  0  0  0  0  0  0
   21.7559   -8.6104  -13.8917 C   0  0  0  0  0  0  0  0  0  0  0  0
   21.5892   -8.4141  -12.4211 C   0  0  0  0  0  0  0  0  0  0  0  0
   20.8647   -7.1215  -12.2056 C   0  0  0  0  0  0  0  0  0  0  0  0
   20.9083   -6.4871  -13.5764 C   0  0  1  0  0  0  0  0  0  0  0  0
   22.2302   -5.7805  -13.6826 C   0  0  0  0  0  0  0  0  0  0  0  0
   23.1622   -6.2284  -14.3829 O   0  0  0  0  0  0  0  0  0  0  0  0
   22.4407   -4.6157  -13.0027 O   0  0  0  0  0  0  0  0  0  0  0  0
  1  2  1  0
  3  2  1  0
  4  3  2  0
  5  6  1  0
  7  6  1  6
  7  8  1  0
  7  9  1  0
  8  3  1  0
  9 10  2  0
 11  9  1  0
 11 12  1  0
 13 12  1  0
 14 13  1  0
 15 14  1  0
 15 11  1  0
 15 16  1  1
 16 18  1  0
 17 16  2  0
M  END
$$$$
