GSP.pdb
     RDKit          3D

 18 18  0  0  1  0  0  0  0  0999 V2000
   24.9677  -21.8286  -12.9451 N   0  0  0  0  0  0  0  0  0  0  0  0
   24.7977  -21.7980  -11.5126 C   0  0  0  0  0  0  0  0  0  0  0  0
   26.0822  -21.4246  -10.8920 C   0  0  0  0  0  0  0  0  0  0  0  0
   27.1428  -21.5798  -11.5174 O   0  0  0  0  0  0  0  0  0  0  0  0
   26.3283  -18.3508   -8.9922 O   0  0  0  0  0  0  0  0  0  0  0  0
   27.5285  -19.0175   -9.2434 C   0  0  0  0  0  0  0  0  0  0  0  0
   27.3772  -20.5031   -8.9201 C   0  0  2  0  0  0  0  0  0  0  0  0
   26.1346  -20.8865   -9.5836 N   0  0  0  0  0  0  0  0  0  0  0  0
   27.1794  -20.6151   -7.4592 C   0  0  0  0  0  0  0  0  0  0  0  0
   26.0646  -21.0643   -7.0566 O   0  0  0  0  0  0  0  0  0  0  0  0
   28.1451  -20.2584   -6.4813 N   0  0  0  0  0  0  0  0  0  0  0  0
   29.4441  -19.6634   -6.7951 C   0  0  0  0  0  0  0  0  0  0  0  0
   30.3407  -20.2640   -5.7635 C   0  0  0  0  0  0  0  0  0  0  0  0
   29.4802  -20.8865   -4.7078 C   0  0  0  0  0  0  0  0  0  0  0  0
   28.1078  -20.3504   -5.0434 C   0  0  1  0  0  0  0  0  0  0  0  0
   28.0028  -18.9986   -4.3956 C   0  0  0  0  0  0  0  0  0  0  0  0
   27.7850  -18.8692   -3.1727 O   0  0  0  0  0  0  0  0  0  0  0  0
   28.1452  -17.8669   -5.1455 O   0  0  0  0  0  0  0  0  0  0  0  0
  1  2  1  0
  3  2  1  0
  4  3  2  0
  5  6  1  0
  7  6  1  1
  7  8  1  0
  7  9  1  0
  8  3  1  0
  9 10  2  0
 11  9  1  0
 11 12  1  0
 13 12  1  0
 14 13  1  0
 15 14  1  0
 15 11  1  0
 15 16  1  1
 16 18  1  0
 17 16  2  0
M  END
$$$$
