GSP.pdb
     RDKit          3D

 18 18  0  0  1  0  0  0  0  0999 V2000
   20.9790  -10.9429  -20.9932 N   0  0  0  0  0  0  0  0  0  0  0  0
   21.6990   -9.7308  -20.6859 C   0  0  0  0  0  0  0  0  0  0  0  0
   21.7200   -9.5517  -19.2223 C   0  0  0  0  0  0  0  0  0  0  0  0
   20.6946   -9.7626  -18.5557 O   0  0  0  0  0  0  0  0  0  0  0  0
   24.8170  -10.2469  -16.6324 O   0  0  0  0  0  0  0  0  0  0  0  0
   24.4310   -8.9135  -16.7777 C   0  0  0  0  0  0  0  0  0  0  0  0
   22.9450   -8.8357  -17.1245 C   0  0  2  0  0  0  0  0  0  0  0  0
   22.8966   -9.1397  -18.5515 N   0  0  0  0  0  0  0  0  0  0  0  0
   22.5238   -7.4315  -16.9324 C   0  0  0  0  0  0  0  0  0  0  0  0
   22.7175   -6.6301  -17.8951 O   0  0  0  0  0  0  0  0  0  0  0  0
   21.9200   -6.9210  -15.7531 N   0  0  0  0  0  0  0  0  0  0  0  0
   21.7065   -7.7077  -14.5384 C   0  0  0  0  0  0  0  0  0  0  0  0
   20.4092   -7.1769  -14.0245 C   0  0  0  0  0  0  0  0  0  0  0  0
   20.1128   -5.8992  -14.7469 C   0  0  0  0  0  0  0  0  0  0  0  0
   21.4204   -5.6047  -15.4448 C   0  0  1  0  0  0  0  0  0  0  0  0
   22.2901   -4.8920  -14.4479 C   0  0  0  0  0  0  0  0  0  0  0  0
   23.2061   -5.4789  -13.8345 O   0  0  0  0  0  0  0  0  0  0  0  0
   22.0908   -3.5666  -14.1892 O   0  0  0  0  0  0  0  0  0  0  0  0
  1  2  1  0
  3  2  1  0
  4  3  2  0
  5  6  1  0
  7  6  1  6
  7  8  1  0
  7  9  1  0
  8  3  1  0
  9 10  2  0
 11  9  1  0
 11 12  1  0
 13 12  1  0
 14 13  1  0
 15 14  1  0
 15 11  1  0
 15 16  1  1
 16 18  1  0
 17 16  2  0
M  END
$$$$
