GSP.pdb
     RDKit          3D

 18 18  0  0  1  0  0  0  0  0999 V2000
   21.1090  -12.6333  -18.8150 N   0  0  0  0  0  0  0  0  0  0  0  0
   21.6841  -11.3118  -18.8829 C   0  0  0  0  0  0  0  0  0  0  0  0
   21.2118  -10.5307  -17.7247 C   0  0  0  0  0  0  0  0  0  0  0  0
   20.0100  -10.2394  -17.6201 O   0  0  0  0  0  0  0  0  0  0  0  0
   22.2954   -9.1857  -13.2329 O   0  0  0  0  0  0  0  0  0  0  0  0
   22.5887   -9.8523  -14.4236 C   0  0  0  0  0  0  0  0  0  0  0  0
   21.6943   -9.3308  -15.5471 C   0  0  2  0  0  0  0  0  0  0  0  0
   22.1079  -10.0999  -16.7169 N   0  0  0  0  0  0  0  0  0  0  0  0
   22.0531   -7.9139  -15.7701 C   0  0  0  0  0  0  0  0  0  0  0  0
   23.1069   -7.6790  -16.4340 O   0  0  0  0  0  0  0  0  0  0  0  0
   21.3040   -6.8044  -15.2968 N   0  0  0  0  0  0  0  0  0  0  0  0
   20.0618   -6.9234  -14.5335 C   0  0  0  0  0  0  0  0  0  0  0  0
   19.2629   -5.7592  -15.0187 C   0  0  0  0  0  0  0  0  0  0  0  0
   20.1857   -4.8398  -15.7571 C   0  0  0  0  0  0  0  0  0  0  0  0
   21.5489   -5.3881  -15.4038 C   0  0  1  0  0  0  0  0  0  0  0  0
   21.9285   -4.7812  -14.0826 C   0  0  0  0  0  0  0  0  0  0  0  0
   21.8785   -5.4341  -13.0192 O   0  0  0  0  0  0  0  0  0  0  0  0
   22.3416   -3.4817  -14.0193 O   0  0  0  0  0  0  0  0  0  0  0  0
  1  2  1  0
  3  2  1  0
  4  3  2  0
  5  6  1  0
  7  6  1  1
  7  8  1  0
  7  9  1  0
  8  3  1  0
  9 10  2  0
 11  9  1  0
 11 12  1  0
 13 12  1  0
 14 13  1  0
 15 14  1  0
 15 11  1  0
 15 16  1  1
 16 18  1  0
 17 16  2  0
M  END
$$$$
