GSP.pdb
     RDKit          3D

 18 18  0  0  1  0  0  0  0  0999 V2000
   13.7490  -13.1336  -13.6105 N   0  0  0  0  0  0  0  0  0  0  0  0
   14.1518  -11.7526  -13.4996 C   0  0  0  0  0  0  0  0  0  0  0  0
   15.3126  -11.5266  -14.3806 C   0  0  0  0  0  0  0  0  0  0  0  0
   15.5203  -12.2842  -15.3414 O   0  0  0  0  0  0  0  0  0  0  0  0
   17.5125   -9.1703  -17.2613 O   0  0  0  0  0  0  0  0  0  0  0  0
   16.5761   -9.5591  -16.3020 C   0  0  0  0  0  0  0  0  0  0  0  0
   17.2911  -10.1015  -15.0654 C   0  0  2  0  0  0  0  0  0  0  0  0
   16.2067  -10.4527  -14.1533 N   0  0  0  0  0  0  0  0  0  0  0  0
   18.0532   -8.9810  -14.4739 C   0  0  0  0  0  0  0  0  0  0  0  0
   17.4121   -8.1591  -13.7528 O   0  0  0  0  0  0  0  0  0  0  0  0
   19.4445   -8.7630  -14.6547 N   0  0  0  0  0  0  0  0  0  0  0  0
   20.2790   -9.5333  -15.5767 C   0  0  0  0  0  0  0  0  0  0  0  0
   21.5804   -9.6207  -14.8504 C   0  0  0  0  0  0  0  0  0  0  0  0
   21.5547   -8.6246  -13.7326 C   0  0  0  0  0  0  0  0  0  0  0  0
   20.3321   -7.7977  -14.0566 C   0  0  1  0  0  0  0  0  0  0  0  0
   20.7690   -6.7495  -15.0408 C   0  0  0  0  0  0  0  0  0  0  0  0
   20.5127   -6.8426  -16.2595 O   0  0  0  0  0  0  0  0  0  0  0  0
   21.4673   -5.6573  -14.6132 O   0  0  0  0  0  0  0  0  0  0  0  0
  1  2  1  0
  3  2  1  0
  4  3  2  0
  5  6  1  0
  7  6  1  6
  7  8  1  0
  7  9  1  0
  8  3  1  0
  9 10  2  0
 11  9  1  0
 11 12  1  0
 13 12  1  0
 14 13  1  0
 15 14  1  0
 15 11  1  0
 15 16  1  6
 16 18  1  0
 17 16  2  0
M  END
$$$$
