GSP.pdb
     RDKit          3D

 18 18  0  0  1  0  0  0  0  0999 V2000
   15.0623  -10.9697  -16.5647 N   0  0  0  0  0  0  0  0  0  0  0  0
   15.7450   -9.7001  -16.6259 C   0  0  0  0  0  0  0  0  0  0  0  0
   17.0348   -9.8224  -15.9216 C   0  0  0  0  0  0  0  0  0  0  0  0
   17.0770  -10.3157  -14.7836 O   0  0  0  0  0  0  0  0  0  0  0  0
   20.3286   -8.4148  -17.8735 O   0  0  0  0  0  0  0  0  0  0  0  0
   20.5636   -9.4025  -16.9157 C   0  0  0  0  0  0  0  0  0  0  0  0
   19.5137   -9.3159  -15.8091 C   0  0  2  0  0  0  0  0  0  0  0  0
   18.2408   -9.3851  -16.5204 N   0  0  0  0  0  0  0  0  0  0  0  0
   19.6332   -7.9756  -15.1965 C   0  0  0  0  0  0  0  0  0  0  0  0
   18.8705   -7.0648  -15.6385 O   0  0  0  0  0  0  0  0  0  0  0  0
   20.5356   -7.6393  -14.1531 N   0  0  0  0  0  0  0  0  0  0  0  0
   21.5422   -8.5553  -13.6169 C   0  0  0  0  0  0  0  0  0  0  0  0
   21.5737   -8.2000  -12.1672 C   0  0  0  0  0  0  0  0  0  0  0  0
   20.8647   -6.8923  -11.9954 C   0  0  0  0  0  0  0  0  0  0  0  0
   20.7117   -6.4111  -13.4197 C   0  0  1  0  0  0  0  0  0  0  0  0
   21.9956   -5.7190  -13.7811 C   0  0  0  0  0  0  0  0  0  0  0  0
   22.3061   -4.6110  -13.2955 O   0  0  0  0  0  0  0  0  0  0  0  0
   22.8612   -6.2985  -14.6633 O   0  0  0  0  0  0  0  0  0  0  0  0
  1  2  1  0
  3  2  1  0
  4  3  2  0
  5  6  1  0
  7  6  1  6
  7  8  1  0
  7  9  1  0
  8  3  1  0
  9 10  2  0
 11  9  1  0
 11 12  1  0
 13 12  1  0
 14 13  1  0
 15 14  1  0
 15 11  1  0
 15 16  1  6
 16 18  1  0
 17 16  2  0
M  END
$$$$
