GSP.pdb
     RDKit          3D

 18 18  0  0  1  0  0  0  0  0999 V2000
   21.2925  -12.2957  -20.0624 N   0  0  0  0  0  0  0  0  0  0  0  0
   21.6103  -10.8884  -20.0482 C   0  0  0  0  0  0  0  0  0  0  0  0
   22.0663  -10.5204  -18.6949 C   0  0  0  0  0  0  0  0  0  0  0  0
   21.5433  -11.0447  -17.6990 O   0  0  0  0  0  0  0  0  0  0  0  0
   25.8370   -9.3617  -17.6150 O   0  0  0  0  0  0  0  0  0  0  0  0
   24.8448   -8.3952  -17.4439 C   0  0  0  0  0  0  0  0  0  0  0  0
   23.4976   -9.0701  -17.1909 C   0  0  2  0  0  0  0  0  0  0  0  0
   23.0992   -9.5716  -18.5027 N   0  0  0  0  0  0  0  0  0  0  0  0
   22.5468   -8.0119  -16.7879 C   0  0  0  0  0  0  0  0  0  0  0  0
   22.0374   -7.3069  -17.7099 O   0  0  0  0  0  0  0  0  0  0  0  0
   22.1656   -7.7324  -15.4491 N   0  0  0  0  0  0  0  0  0  0  0  0
   22.6744   -8.4594  -14.2861 C   0  0  0  0  0  0  0  0  0  0  0  0
   21.4921   -8.4951  -13.3752 C   0  0  0  0  0  0  0  0  0  0  0  0
   20.4864   -7.5087  -13.8830 C   0  0  0  0  0  0  0  0  0  0  0  0
   21.2761   -6.7335  -14.9121 C   0  0  1  0  0  0  0  0  0  0  0  0
   22.0189   -5.6607  -14.1669 C   0  0  0  0  0  0  0  0  0  0  0  0
   23.2484   -5.7331  -13.9599 O   0  0  0  0  0  0  0  0  0  0  0  0
   21.3514   -4.5682  -13.6933 O   0  0  0  0  0  0  0  0  0  0  0  0
  1  2  1  0
  3  2  1  0
  4  3  2  0
  5  6  1  0
  7  6  1  6
  7  8  1  0
  7  9  1  0
  8  3  1  0
  9 10  2  0
 11  9  1  0
 11 12  1  0
 13 12  1  0
 14 13  1  0
 15 14  1  0
 15 11  1  0
 15 16  1  1
 16 18  1  0
 17 16  2  0
M  END
$$$$
