GSP.pdb
     RDKit          3D

 18 18  0  0  1  0  0  0  0  0999 V2000
   24.6809  -20.6179   -8.7312 N   0  0  0  0  0  0  0  0  0  0  0  0
   24.7770  -21.1986  -10.0485 C   0  0  0  0  0  0  0  0  0  0  0  0
   25.6246  -20.3307  -10.8870 C   0  0  0  0  0  0  0  0  0  0  0  0
   25.9532  -19.2046  -10.4821 O   0  0  0  0  0  0  0  0  0  0  0  0
   26.9916  -21.8094  -14.5112 O   0  0  0  0  0  0  0  0  0  0  0  0
   27.7370  -20.8465  -13.8292 C   0  0  0  0  0  0  0  0  0  0  0  0
   26.8022  -19.8934  -13.0861 C   0  0  2  0  0  0  0  0  0  0  0  0
   26.0777  -20.7571  -12.1587 N   0  0  0  0  0  0  0  0  0  0  0  0
   25.8411  -19.3626  -14.0764 C   0  0  0  0  0  0  0  0  0  0  0  0
   24.7218  -19.9497  -14.1721 O   0  0  0  0  0  0  0  0  0  0  0  0
   26.0817  -18.2475  -14.9217 N   0  0  0  0  0  0  0  0  0  0  0  0
   27.4013  -17.6526  -15.1335 C   0  0  0  0  0  0  0  0  0  0  0  0
   27.0908  -16.1986  -15.2678 C   0  0  0  0  0  0  0  0  0  0  0  0
   25.6148  -16.0576  -15.4775 C   0  0  0  0  0  0  0  0  0  0  0  0
   25.1833  -17.4805  -15.7476 C   0  0  1  0  0  0  0  0  0  0  0  0
   25.4131  -17.7301  -17.2114 C   0  0  0  0  0  0  0  0  0  0  0  0
   26.4056  -18.3665  -17.6233 O   0  0  0  0  0  0  0  0  0  0  0  0
   24.5258  -17.2567  -18.1344 O   0  0  0  0  0  0  0  0  0  0  0  0
  1  2  1  0
  3  2  1  0
  4  3  2  0
  5  6  1  0
  7  6  1  6
  7  8  1  0
  7  9  1  0
  8  3  1  0
  9 10  2  0
 11  9  1  0
 11 12  1  0
 13 12  1  0
 14 13  1  0
 15 14  1  0
 15 11  1  0
 15 16  1  6
 16 18  1  0
 17 16  2  0
M  END
$$$$
