MRQ.pdb
     RDKit          3D

 29 28  0  0  1  0  0  0  0  0999 V2000
   27.1378  -19.4662   -4.7954 C   0  0  0  0  0  0  0  0  0  0  0  0
   28.5979  -19.9389   -5.7143 S   0  0  0  0  0  0  0  0  0  0  0  0
   28.2999  -20.8143   -7.2428 C   0  0  0  0  0  0  0  0  0  0  0  0
   27.2273  -20.2434   -8.0950 C   0  0  0  0  0  0  0  0  0  0  0  0
   27.0040  -20.9320   -9.4059 C   0  0  2  0  0  0  0  0  0  0  0  0
   28.2469  -20.8262  -10.1585 N   0  0  0  0  0  0  0  0  0  0  0  0
   25.9420  -20.2606  -10.2091 C   0  0  0  0  0  0  0  0  0  0  0  0
   26.0678  -19.0818  -10.6213 O   0  0  0  0  0  0  0  0  0  0  0  0
   28.3846  -20.8754  -14.2817 N   0  0  0  0  0  0  0  0  0  0  0  0
   27.8342  -22.0126  -14.9453 C   0  0  0  0  0  0  0  0  0  0  0  0
   28.5606  -23.0305  -15.2105 N   0  0  0  0  0  0  0  0  0  0  0  0
   26.4685  -21.9802  -15.2985 N   0  0  0  0  0  0  0  0  0  0  0  0
   25.6510  -20.8609  -14.8198 C   0  0  0  0  0  0  0  0  0  0  0  0
   25.1570  -21.1237  -13.4380 C   0  0  0  0  0  0  0  0  0  0  0  0
   24.3271  -20.0794  -12.8018 C   0  0  0  0  0  0  0  0  0  0  0  0
   23.7633  -20.3498  -11.4516 C   0  0  2  0  0  0  0  0  0  0  0  0
   24.7071  -20.9262  -10.5607 N   0  0  0  0  0  0  0  0  0  0  0  0
   22.5522  -21.2490  -11.5518 C   0  0  0  0  0  0  0  0  0  0  0  0
   22.7065  -22.4228  -11.9743 O   0  0  0  0  0  0  0  0  0  0  0  0
   28.1346  -23.8519  -15.6576 N   0  0  0  0  0  0  0  0  0  0  0  0
   20.5133  -17.5224  -11.9803 C   0  0  0  0  0  0  0  0  0  0  0  0
   19.3242  -17.8090  -12.6953 O   0  0  0  0  0  0  0  0  0  0  0  0
   18.4116  -16.9604  -12.6874 C   0  0  0  0  0  0  0  0  0  0  0  0
   19.1800  -19.0647  -13.4167 C   0  0  0  0  0  0  0  0  0  0  0  0
   20.2899  -20.0534  -13.2847 C   0  0  2  0  0  0  0  0  0  0  0  0
   20.1309  -20.9448  -12.1157 N   0  0  0  0  0  0  0  0  0  0  0  0
   21.2638  -20.8429  -11.1983 C   0  0  0  0  0  0  0  0  0  0  0  0
   20.0033  -22.3462  -12.4847 O   0  0  0  0  0  0  0  0  0  0  0  0
   20.8936  -22.9348  -13.1374 O   0  0  0  0  0  0  0  0  0  0  0  0
  2  3  1  0
  2  1  1  0
  4  5  1  0
  4  3  1  0
  5  6  1  6
  7  8  2  0
  7  5  1  0
  9 10  1  0
 10 12  1  0
 11 10  2  0
 12 13  1  0
 13 14  1  0
 14 15  1  0
 16 15  1  6
 16 17  1  0
 17  7  1  0
 18 16  1  0
 19 18  2  0
 20 21  1  0
 21 23  1  0
 21 22  2  0
 23 24  1  0
 25 24  1  1
 25 27  1  0
 25 26  1  0
 26 18  1  0
 27 29  1  0
 28 27  2  0
M  END
$$$$
