MRQ.pdb
     RDKit          3D

 29 28  0  0  1  0  0  0  0  0999 V2000
   19.8281  -27.5634   -3.0607 C   0  0  0  0  0  0  0  0  0  0  0  0
   18.4246  -26.4947   -2.7641 S   0  0  0  0  0  0  0  0  0  0  0  0
   17.1168  -26.5809   -3.9781 C   0  0  0  0  0  0  0  0  0  0  0  0
   17.5062  -26.1734   -5.3511 C   0  0  0  0  0  0  0  0  0  0  0  0
   16.4565  -26.3532   -6.4039 C   0  0  2  0  0  0  0  0  0  0  0  0
   16.3625  -27.7823   -6.6705 N   0  0  0  0  0  0  0  0  0  0  0  0
   16.8373  -25.6886   -7.6834 C   0  0  0  0  0  0  0  0  0  0  0  0
   17.0664  -24.4562   -7.7478 O   0  0  0  0  0  0  0  0  0  0  0  0
   22.4085  -26.8727  -13.8621 N   0  0  0  0  0  0  0  0  0  0  0  0
   21.3855  -26.2610  -14.6469 C   0  0  0  0  0  0  0  0  0  0  0  0
   21.4396  -26.2827  -15.9239 N   0  0  0  0  0  0  0  0  0  0  0  0
   20.3159  -25.6339  -13.9735 N   0  0  0  0  0  0  0  0  0  0  0  0
   20.2324  -25.7730  -12.5160 C   0  0  0  0  0  0  0  0  0  0  0  0
   18.9196  -26.3566  -12.1178 C   0  0  0  0  0  0  0  0  0  0  0  0
   18.6449  -26.4903  -10.6719 C   0  0  0  0  0  0  0  0  0  0  0  0
   17.4404  -25.8163  -10.1161 C   0  0  2  0  0  0  0  0  0  0  0  0
   16.9654  -26.4225   -8.9229 N   0  0  0  0  0  0  0  0  0  0  0  0
   16.3292  -25.7842  -11.1405 C   0  0  0  0  0  0  0  0  0  0  0  0
   15.7530  -26.8609  -11.4385 O   0  0  0  0  0  0  0  0  0  0  0  0
   20.7035  -25.8158  -16.4682 N   0  0  0  0  0  0  0  0  0  0  0  0
   15.3084  -20.9246  -11.6207 C   0  0  0  0  0  0  0  0  0  0  0  0
   14.1585  -21.5201  -11.0458 O   0  0  0  0  0  0  0  0  0  0  0  0
   13.6342  -20.9627  -10.0623 C   0  0  0  0  0  0  0  0  0  0  0  0
   13.6110  -22.7516  -11.5951 C   0  0  0  0  0  0  0  0  0  0  0  0
   14.2103  -23.2516  -12.8670 C   0  0  2  0  0  0  0  0  0  0  0  0
   14.8016  -24.6003  -12.7337 N   0  0  0  0  0  0  0  0  0  0  0  0
   15.9064  -24.6156  -11.7774 C   0  0  0  0  0  0  0  0  0  0  0  0
   15.3162  -25.1203  -13.9911 O   0  0  0  0  0  0  0  0  0  0  0  0
   14.5610  -25.3539  -14.9608 O   0  0  0  0  0  0  0  0  0  0  0  0
  2  3  1  0
  2  1  1  0
  4  5  1  0
  4  3  1  0
  5  6  1  6
  7  8  2  0
  7  5  1  0
  9 10  1  0
 10 12  1  0
 11 10  2  0
 12 13  1  0
 13 14  1  0
 14 15  1  0
 16 15  1  6
 16 17  1  0
 17  7  1  0
 18 16  1  0
 19 18  2  0
 20 21  1  0
 21 23  1  0
 21 22  2  0
 23 24  1  0
 25 24  1  1
 25 27  1  0
 25 26  1  0
 26 18  1  0
 27 29  1  0
 28 27  2  0
M  END
$$$$
