MRQ.pdb
     RDKit          3D

 29 28  0  0  1  0  0  0  0  0999 V2000
   10.7027   -9.1976   -9.7646 C   0  0  0  0  0  0  0  0  0  0  0  0
   11.4352  -10.7073   -9.1449 S   0  0  0  0  0  0  0  0  0  0  0  0
   13.0342  -11.1260   -9.8228 C   0  0  0  0  0  0  0  0  0  0  0  0
   14.0920  -10.1063   -9.6134 C   0  0  0  0  0  0  0  0  0  0  0  0
   15.3898  -10.3637  -10.3146 C   0  0  2  0  0  0  0  0  0  0  0  0
   16.0109  -11.5039   -9.6539 N   0  0  0  0  0  0  0  0  0  0  0  0
   16.3273   -9.2115  -10.1830 C   0  0  0  0  0  0  0  0  0  0  0  0
   16.7373   -8.8146   -9.0651 O   0  0  0  0  0  0  0  0  0  0  0  0
   22.5647   -8.3358  -15.6854 N   0  0  0  0  0  0  0  0  0  0  0  0
   22.6361   -9.3220  -14.6563 C   0  0  0  0  0  0  0  0  0  0  0  0
   23.4970  -10.2652  -14.7128 N   0  0  0  0  0  0  0  0  0  0  0  0
   21.7313   -9.2249  -13.5781 N   0  0  0  0  0  0  0  0  0  0  0  0
   20.7315   -8.1523  -13.6014 C   0  0  0  0  0  0  0  0  0  0  0  0
   19.8042   -8.2726  -12.4403 C   0  0  0  0  0  0  0  0  0  0  0  0
   18.6775   -7.3189  -12.3676 C   0  0  0  0  0  0  0  0  0  0  0  0
   17.7444   -7.4142  -11.2126 C   0  0  2  0  0  0  0  0  0  0  0  0
   16.8192   -8.4850  -11.3326 N   0  0  0  0  0  0  0  0  0  0  0  0
   16.9906   -6.1166  -11.0299 C   0  0  0  0  0  0  0  0  0  0  0  0
   16.0023   -5.8843  -11.7711 O   0  0  0  0  0  0  0  0  0  0  0  0
   23.5827  -10.9182  -13.9239 N   0  0  0  0  0  0  0  0  0  0  0  0
   13.7855   -3.3461   -7.6286 C   0  0  0  0  0  0  0  0  0  0  0  0
   14.5042   -2.1413   -7.8265 O   0  0  0  0  0  0  0  0  0  0  0  0
   13.9253   -1.0632   -7.5907 C   0  0  0  0  0  0  0  0  0  0  0  0
   15.8819   -2.1708   -8.2944 C   0  0  0  0  0  0  0  0  0  0  0  0
   16.5044   -3.5137   -8.4845 C   0  0  1  0  0  0  0  0  0  0  0  0
   16.5824   -3.9162   -9.9052 N   0  0  0  0  0  0  0  0  0  0  0  0
   17.3358   -5.1565  -10.0765 C   0  0  0  0  0  0  0  0  0  0  0  0
   17.2154   -2.9111  -10.7451 O   0  0  0  0  0  0  0  0  0  0  0  0
   18.4545   -2.8874  -10.9166 O   0  0  0  0  0  0  0  0  0  0  0  0
  2  3  1  0
  2  1  1  0
  4  5  1  0
  4  3  1  0
  5  6  1  1
  7  8  2  0
  7  5  1  0
  9 10  1  0
 10 12  1  0
 11 10  2  0
 12 13  1  0
 13 14  1  0
 14 15  1  0
 16 15  1  6
 16 17  1  0
 17  7  1  0
 18 16  1  0
 19 18  2  0
 20 21  1  0
 21 23  1  0
 21 22  2  0
 23 24  1  0
 25 24  1  1
 25 27  1  0
 25 26  1  0
 26 18  1  0
 27 29  1  0
 28 27  2  0
M  END
$$$$
