MRQ.pdb
     RDKit          3D

 29 28  0  0  1  0  0  0  0  0999 V2000
   28.1258  -20.6351   -9.1677 C   0  0  0  0  0  0  0  0  0  0  0  0
   29.5437  -20.7172  -10.2552 S   0  0  0  0  0  0  0  0  0  0  0  0
   29.1849  -20.6186  -12.0025 C   0  0  0  0  0  0  0  0  0  0  0  0
   27.7605  -20.3722  -12.3384 C   0  0  0  0  0  0  0  0  0  0  0  0
   26.9365  -21.5932  -12.6084 C   0  0  2  0  0  0  0  0  0  0  0  0
   27.4434  -22.1842  -13.8397 N   0  0  0  0  0  0  0  0  0  0  0  0
   25.5029  -21.2529  -12.8385 C   0  0  0  0  0  0  0  0  0  0  0  0
   25.0228  -21.1509  -13.9936 O   0  0  0  0  0  0  0  0  0  0  0  0
   19.2758  -23.8047   -8.7846 N   0  0  0  0  0  0  0  0  0  0  0  0
   18.3536  -22.8156   -9.2404 C   0  0  0  0  0  0  0  0  0  0  0  0
   17.1224  -23.1053   -9.4264 N   0  0  0  0  0  0  0  0  0  0  0  0
   18.8395  -21.5126   -9.4786 N   0  0  0  0  0  0  0  0  0  0  0  0
   20.2733  -21.2603   -9.3027 C   0  0  0  0  0  0  0  0  0  0  0  0
   20.9981  -21.4208  -10.5956 C   0  0  0  0  0  0  0  0  0  0  0  0
   22.4603  -21.2063  -10.5873 C   0  0  0  0  0  0  0  0  0  0  0  0
   23.1804  -21.1956  -11.8893 C   0  0  2  0  0  0  0  0  0  0  0  0
   24.5827  -21.0214  -11.7472 N   0  0  0  0  0  0  0  0  0  0  0  0
   22.6287  -20.1165  -12.7929 C   0  0  0  0  0  0  0  0  0  0  0  0
   22.8098  -18.9138  -12.4754 O   0  0  0  0  0  0  0  0  0  0  0  0
   16.4688  -22.3676   -9.7172 N   0  0  0  0  0  0  0  0  0  0  0  0
   23.5066  -19.3083  -18.7352 C   0  0  0  0  0  0  0  0  0  0  0  0
   22.4892  -18.3652  -18.4474 O   0  0  0  0  0  0  0  0  0  0  0  0
   22.1978  -17.5262  -19.3215 C   0  0  0  0  0  0  0  0  0  0  0  0
   21.8079  -18.3823  -17.1616 C   0  0  0  0  0  0  0  0  0  0  0  0
   22.2531  -19.4070  -16.1722 C   0  0  1  0  0  0  0  0  0  0  0  0
   21.5133  -19.3329  -14.8941 N   0  0  0  0  0  0  0  0  0  0  0  0
   21.9243  -20.3860  -13.9681 C   0  0  0  0  0  0  0  0  0  0  0  0
   20.0734  -19.4508  -15.0650 O   0  0  0  0  0  0  0  0  0  0  0  0
   19.3611  -18.4550  -15.3224 O   0  0  0  0  0  0  0  0  0  0  0  0
  2  3  1  0
  2  1  1  0
  4  5  1  0
  4  3  1  0
  5  6  1  6
  7  8  2  0
  7  5  1  0
  9 10  1  0
 10 12  1  0
 11 10  2  0
 12 13  1  0
 13 14  1  0
 14 15  1  0
 16 15  1  1
 16 17  1  0
 17  7  1  0
 18 16  1  0
 19 18  2  0
 20 21  1  0
 21 23  1  0
 21 22  2  0
 23 24  1  0
 25 24  1  1
 25 27  1  0
 25 26  1  0
 26 18  1  0
 27 29  1  0
 28 27  2  0
M  END
$$$$
