MRQ.pdb
     RDKit          3D

 29 28  0  0  1  0  0  0  0  0999 V2000
   26.4357  -16.9795  -17.3449 C   0  0  0  0  0  0  0  0  0  0  0  0
   28.1767  -17.3178  -17.1121 S   0  0  0  0  0  0  0  0  0  0  0  0
   28.5597  -18.7722  -16.1480 C   0  0  0  0  0  0  0  0  0  0  0  0
   27.4160  -19.3475  -15.3973 C   0  0  0  0  0  0  0  0  0  0  0  0
   27.7220  -20.5645  -14.5802 C   0  0  2  0  0  0  0  0  0  0  0  0
   28.0526  -21.6318  -15.5150 N   0  0  0  0  0  0  0  0  0  0  0  0
   26.5372  -21.0154  -13.7949 C   0  0  0  0  0  0  0  0  0  0  0  0
   25.6677  -21.7765  -14.2847 O   0  0  0  0  0  0  0  0  0  0  0  0
   29.0328  -20.9473   -7.3768 N   0  0  0  0  0  0  0  0  0  0  0  0
   28.0185  -19.9631   -7.1792 C   0  0  0  0  0  0  0  0  0  0  0  0
   28.2905  -18.8467   -6.6189 N   0  0  0  0  0  0  0  0  0  0  0  0
   26.7109  -20.2578   -7.6195 N   0  0  0  0  0  0  0  0  0  0  0  0
   26.4281  -21.6115   -8.1073 C   0  0  0  0  0  0  0  0  0  0  0  0
   26.3606  -21.6305   -9.5965 C   0  0  0  0  0  0  0  0  0  0  0  0
   25.2941  -20.8348  -10.2396 C   0  0  0  0  0  0  0  0  0  0  0  0
   25.1341  -20.9299  -11.7159 C   0  0  2  0  0  0  0  0  0  0  0  0
   26.3204  -20.6043  -12.4254 N   0  0  0  0  0  0  0  0  0  0  0  0
   24.0063  -20.0400  -12.1866 C   0  0  0  0  0  0  0  0  0  0  0  0
   24.2877  -19.0132  -12.8547 O   0  0  0  0  0  0  0  0  0  0  0  0
   27.5403  -18.1601   -6.4715 N   0  0  0  0  0  0  0  0  0  0  0  0
   22.5914  -22.4947  -16.5613 C   0  0  0  0  0  0  0  0  0  0  0  0
   21.3916  -21.7462  -16.4735 O   0  0  0  0  0  0  0  0  0  0  0  0
   20.6116  -21.7654  -17.4452 C   0  0  0  0  0  0  0  0  0  0  0  0
   21.0863  -20.9770  -15.2765 C   0  0  0  0  0  0  0  0  0  0  0  0
   22.0841  -21.0240  -14.1678 C   0  0  2  0  0  0  0  0  0  0  0  0
   21.6380  -20.2961  -12.9605 N   0  0  0  0  0  0  0  0  0  0  0  0
   22.6609  -20.2992  -11.9169 C   0  0  0  0  0  0  0  0  0  0  0  0
   20.4285  -20.8548  -12.3764 O   0  0  0  0  0  0  0  0  0  0  0  0
   20.4734  -21.6329  -11.3977 O   0  0  0  0  0  0  0  0  0  0  0  0
  2  3  1  0
  2  1  1  0
  4  5  1  0
  4  3  1  0
  5  6  1  6
  7  8  2  0
  7  5  1  0
  9 10  1  0
 10 12  1  0
 11 10  2  0
 12 13  1  0
 13 14  1  0
 14 15  1  0
 16 15  1  1
 16 17  1  0
 17  7  1  0
 18 16  1  0
 19 18  2  0
 20 21  1  0
 21 23  1  0
 21 22  2  0
 23 24  1  0
 25 24  1  6
 25 27  1  0
 25 26  1  0
 26 18  1  0
 27 29  1  0
 28 27  2  0
M  END
$$$$
