MRQ.pdb
     RDKit          3D

 29 28  0  0  1  0  0  0  0  0999 V2000
   16.1465  -33.2463   -1.9948 C   0  0  0  0  0  0  0  0  0  0  0  0
   16.3728  -33.9334   -3.6308 S   0  0  0  0  0  0  0  0  0  0  0  0
   17.3714  -32.9597   -4.7471 C   0  0  0  0  0  0  0  0  0  0  0  0
   17.8629  -31.6742   -4.1917 C   0  0  0  0  0  0  0  0  0  0  0  0
   18.6923  -30.8410   -5.1192 C   0  0  2  0  0  0  0  0  0  0  0  0
   19.9937  -31.4876   -5.2221 N   0  0  0  0  0  0  0  0  0  0  0  0
   18.9208  -29.4709   -4.5767 C   0  0  0  0  0  0  0  0  0  0  0  0
   19.9353  -29.1887   -3.8938 O   0  0  0  0  0  0  0  0  0  0  0  0
   16.7270  -23.3189   -9.5723 N   0  0  0  0  0  0  0  0  0  0  0  0
   17.9493  -24.0191   -9.8013 C   0  0  0  0  0  0  0  0  0  0  0  0
   18.5732  -23.9003  -10.9107 N   0  0  0  0  0  0  0  0  0  0  0  0
   18.4471  -24.8432   -8.7699 N   0  0  0  0  0  0  0  0  0  0  0  0
   17.8002  -24.7823   -7.4553 C   0  0  0  0  0  0  0  0  0  0  0  0
   18.3831  -25.7997   -6.5347 C   0  0  0  0  0  0  0  0  0  0  0  0
   17.6993  -26.0201   -5.2432 C   0  0  0  0  0  0  0  0  0  0  0  0
   18.2299  -27.0705   -4.3328 C   0  0  2  0  0  0  0  0  0  0  0  0
   17.9896  -28.3881   -4.8050 N   0  0  0  0  0  0  0  0  0  0  0  0
   17.6444  -26.9183   -2.9474 C   0  0  0  0  0  0  0  0  0  0  0  0
   16.5038  -27.3949   -2.7195 O   0  0  0  0  0  0  0  0  0  0  0  0
   19.4563  -24.4072  -11.0498 N   0  0  0  0  0  0  0  0  0  0  0  0
   20.5379  -25.5451    2.6686 C   0  0  0  0  0  0  0  0  0  0  0  0
   19.1432  -25.5398    2.9182 O   0  0  0  0  0  0  0  0  0  0  0  0
   18.7532  -25.3457    4.0857 C   0  0  0  0  0  0  0  0  0  0  0  0
   18.1975  -25.7572    1.8336 C   0  0  0  0  0  0  0  0  0  0  0  0
   18.7657  -25.9459    0.4667 C   0  0  1  0  0  0  0  0  0  0  0  0
   17.7266  -26.1462   -0.5661 N   0  0  0  0  0  0  0  0  0  0  0  0
   18.3068  -26.2726   -1.9013 C   0  0  0  0  0  0  0  0  0  0  0  0
   16.7629  -25.0577   -0.6191 O   0  0  0  0  0  0  0  0  0  0  0  0
   16.8679  -24.1306   -1.4525 O   0  0  0  0  0  0  0  0  0  0  0  0
  2  3  1  0
  2  1  1  0
  4  5  1  0
  4  3  1  0
  5  6  1  1
  7  8  2  0
  7  5  1  0
  9 10  1  0
 10 12  1  0
 11 10  2  0
 12 13  1  0
 13 14  1  0
 14 15  1  0
 16 15  1  6
 16 17  1  0
 17  7  1  0
 18 16  1  0
 19 18  2  0
 20 21  1  0
 21 23  1  0
 21 22  2  0
 23 24  1  0
 25 24  1  1
 25 27  1  0
 25 26  1  0
 26 18  1  0
 27 29  1  0
 28 27  2  0
M  END
$$$$
