MRQ.pdb
     RDKit          3D

 29 28  0  0  1  0  0  0  0  0999 V2000
   27.6425  -19.3206   -6.2198 C   0  0  0  0  0  0  0  0  0  0  0  0
   28.9390  -19.7887   -7.3600 S   0  0  0  0  0  0  0  0  0  0  0  0
   28.4122  -20.7232   -8.7885 C   0  0  0  0  0  0  0  0  0  0  0  0
   26.9855  -20.5521   -9.1601 C   0  0  0  0  0  0  0  0  0  0  0  0
   26.5276  -21.3315  -10.3540 C   0  0  2  0  0  0  0  0  0  0  0  0
   27.7050  -21.5831  -11.1742 N   0  0  0  0  0  0  0  0  0  0  0  0
   25.5664  -20.5529  -11.1869 C   0  0  0  0  0  0  0  0  0  0  0  0
   24.4548  -20.1780  -10.7407 O   0  0  0  0  0  0  0  0  0  0  0  0
   27.1016  -19.2368  -17.3979 N   0  0  0  0  0  0  0  0  0  0  0  0
   27.3426  -17.8374  -17.5404 C   0  0  0  0  0  0  0  0  0  0  0  0
   27.1733  -17.2556  -18.6660 N   0  0  0  0  0  0  0  0  0  0  0  0
   27.7716  -17.1175  -16.4053 N   0  0  0  0  0  0  0  0  0  0  0  0
   27.8293  -17.8162  -15.1173 C   0  0  0  0  0  0  0  0  0  0  0  0
   26.5203  -17.7239  -14.4098 C   0  0  0  0  0  0  0  0  0  0  0  0
   25.5817  -18.8548  -14.5650 C   0  0  0  0  0  0  0  0  0  0  0  0
   24.9525  -19.4239  -13.3425 C   0  0  2  0  0  0  0  0  0  0  0  0
   25.8572  -20.1840  -12.5546 N   0  0  0  0  0  0  0  0  0  0  0  0
   23.7613  -20.2802  -13.7073 C   0  0  0  0  0  0  0  0  0  0  0  0
   23.9479  -21.4987  -13.9534 O   0  0  0  0  0  0  0  0  0  0  0  0
   27.4033  -16.2583  -18.7582 N   0  0  0  0  0  0  0  0  0  0  0  0
   16.4685  -21.3047  -13.0089 C   0  0  0  0  0  0  0  0  0  0  0  0
   17.6667  -20.5690  -12.8343 O   0  0  0  0  0  0  0  0  0  0  0  0
   17.6332  -19.5468  -12.1222 C   0  0  0  0  0  0  0  0  0  0  0  0
   18.8998  -21.0020  -13.4744 C   0  0  0  0  0  0  0  0  0  0  0  0
   20.1015  -20.1377  -13.2850 C   0  0  1  0  0  0  0  0  0  0  0  0
   21.3001  -20.6587  -13.9766 N   0  0  0  0  0  0  0  0  0  0  0  0
   22.4574  -19.7869  -13.7863 C   0  0  0  0  0  0  0  0  0  0  0  0
   21.1072  -20.8075  -15.4108 O   0  0  0  0  0  0  0  0  0  0  0  0
   21.4665  -19.9191  -16.2151 O   0  0  0  0  0  0  0  0  0  0  0  0
  2  3  1  0
  2  1  1  0
  4  5  1  0
  4  3  1  0
  5  6  1  6
  7  8  2  0
  7  5  1  0
  9 10  1  0
 10 12  1  0
 11 10  2  0
 12 13  1  0
 13 14  1  0
 14 15  1  0
 16 15  1  6
 16 17  1  0
 17  7  1  0
 18 16  1  0
 19 18  2  0
 20 21  1  0
 21 23  1  0
 21 22  2  0
 23 24  1  0
 25 24  1  1
 25 27  1  0
 25 26  1  0
 26 18  1  0
 27 29  1  0
 28 27  2  0
M  END
$$$$
