MRQ.pdb
     RDKit          3D

 29 28  0  0  1  0  0  0  0  0999 V2000
   27.9367  -15.8648  -17.0110 C   0  0  0  0  0  0  0  0  0  0  0  0
   29.0903  -16.8451  -17.9639 S   0  0  0  0  0  0  0  0  0  0  0  0
   28.4401  -18.3667  -18.6373 C   0  0  0  0  0  0  0  0  0  0  0  0
   27.5186  -19.1075  -17.7404 C   0  0  0  0  0  0  0  0  0  0  0  0
   28.1674  -20.0711  -16.7954 C   0  0  2  0  0  0  0  0  0  0  0  0
   28.6848  -21.1708  -17.5987 N   0  0  0  0  0  0  0  0  0  0  0  0
   27.1847  -20.6495  -15.8344 C   0  0  0  0  0  0  0  0  0  0  0  0
   26.3259  -21.4923  -16.1909 O   0  0  0  0  0  0  0  0  0  0  0  0
   23.0780  -20.1464  -10.0643 N   0  0  0  0  0  0  0  0  0  0  0  0
   23.4619  -21.0117   -8.9963 C   0  0  0  0  0  0  0  0  0  0  0  0
   22.5808  -21.5622   -8.2515 N   0  0  0  0  0  0  0  0  0  0  0  0
   24.8384  -21.2409   -8.7880 N   0  0  0  0  0  0  0  0  0  0  0  0
   25.7976  -20.5839   -9.6817 C   0  0  0  0  0  0  0  0  0  0  0  0
   25.4708  -20.8723  -11.1074 C   0  0  0  0  0  0  0  0  0  0  0  0
   26.4052  -20.3678  -12.1353 C   0  0  0  0  0  0  0  0  0  0  0  0
   26.1181  -20.6742  -13.5627 C   0  0  2  0  0  0  0  0  0  0  0  0
   27.1632  -20.2750  -14.4377 N   0  0  0  0  0  0  0  0  0  0  0  0
   24.8239  -20.0241  -13.9959 C   0  0  0  0  0  0  0  0  0  0  0  0
   24.7448  -18.7697  -13.9804 O   0  0  0  0  0  0  0  0  0  0  0  0
   22.8814  -22.1630   -7.4738 N   0  0  0  0  0  0  0  0  0  0  0  0
   22.5683  -20.3589  -19.0999 C   0  0  0  0  0  0  0  0  0  0  0  0
   22.2790  -19.1192  -18.4781 O   0  0  0  0  0  0  0  0  0  0  0  0
   22.2135  -18.1010  -19.1936 C   0  0  0  0  0  0  0  0  0  0  0  0
   22.0664  -19.0453  -17.0403 C   0  0  0  0  0  0  0  0  0  0  0  0
   22.1899  -20.3179  -16.2707 C   0  0  2  0  0  0  0  0  0  0  0  0
   22.4649  -20.0978  -14.8346 N   0  0  0  0  0  0  0  0  0  0  0  0
   23.7049  -20.7471  -14.4145 C   0  0  0  0  0  0  0  0  0  0  0  0
   21.4059  -20.5979  -13.9716 O   0  0  0  0  0  0  0  0  0  0  0  0
   20.4269  -19.8854  -13.6568 O   0  0  0  0  0  0  0  0  0  0  0  0
  2  3  1  0
  2  1  1  0
  4  5  1  0
  4  3  1  0
  5  6  1  6
  7  8  2  0
  7  5  1  0
  9 10  1  0
 10 12  1  0
 11 10  2  0
 12 13  1  0
 13 14  1  0
 14 15  1  0
 16 15  1  1
 16 17  1  0
 17  7  1  0
 18 16  1  0
 19 18  2  0
 20 21  1  0
 21 23  1  0
 21 22  2  0
 23 24  1  0
 25 24  1  6
 25 27  1  0
 25 26  1  0
 26 18  1  0
 27 29  1  0
 28 27  2  0
M  END
$$$$
