MRQ.pdb
     RDKit          3D

 29 28  0  0  1  0  0  0  0  0999 V2000
   28.6567  -18.2036   -5.4833 C   0  0  0  0  0  0  0  0  0  0  0  0
   27.4022  -19.4600   -5.2651 S   0  0  0  0  0  0  0  0  0  0  0  0
   27.1738  -20.5724   -6.6442 C   0  0  0  0  0  0  0  0  0  0  0  0
   26.5276  -19.9702   -7.8369 C   0  0  0  0  0  0  0  0  0  0  0  0
   26.2597  -20.9080   -8.9731 C   0  0  2  0  0  0  0  0  0  0  0  0
   27.5462  -21.4511   -9.3882 N   0  0  0  0  0  0  0  0  0  0  0  0
   25.6784  -20.1994  -10.1495 C   0  0  0  0  0  0  0  0  0  0  0  0
   25.8724  -18.9755  -10.3487 O   0  0  0  0  0  0  0  0  0  0  0  0
   27.7868  -17.0229  -16.4414 N   0  0  0  0  0  0  0  0  0  0  0  0
   28.2630  -18.3611  -16.5790 C   0  0  0  0  0  0  0  0  0  0  0  0
   28.9392  -18.7125  -17.6054 N   0  0  0  0  0  0  0  0  0  0  0  0
   27.9666  -19.2816  -15.5516 N   0  0  0  0  0  0  0  0  0  0  0  0
   26.6853  -19.9930  -15.6013 C   0  0  0  0  0  0  0  0  0  0  0  0
   25.7679  -19.4994  -14.5349 C   0  0  0  0  0  0  0  0  0  0  0  0
   25.8709  -20.1308  -13.2026 C   0  0  0  0  0  0  0  0  0  0  0  0
   24.6220  -20.3408  -12.4216 C   0  0  2  0  0  0  0  0  0  0  0  0
   24.8591  -20.8785  -11.1287 N   0  0  0  0  0  0  0  0  0  0  0  0
   23.6698  -21.2420  -13.1742 C   0  0  0  0  0  0  0  0  0  0  0  0
   23.8367  -22.4860  -13.1061 O   0  0  0  0  0  0  0  0  0  0  0  0
   29.2708  -19.6821  -17.6835 N   0  0  0  0  0  0  0  0  0  0  0  0
   18.7851  -22.8327  -10.5597 C   0  0  0  0  0  0  0  0  0  0  0  0
   18.5995  -22.4956  -11.9233 O   0  0  0  0  0  0  0  0  0  0  0  0
   17.5440  -21.9197  -12.2505 C   0  0  0  0  0  0  0  0  0  0  0  0
   19.6197  -22.8182  -12.9098 C   0  0  0  0  0  0  0  0  0  0  0  0
   20.9189  -22.0919  -12.8035 C   0  0  1  0  0  0  0  0  0  0  0  0
   21.3500  -21.4926  -14.0847 N   0  0  0  0  0  0  0  0  0  0  0  0
   22.6087  -20.7635  -13.9456 C   0  0  0  0  0  0  0  0  0  0  0  0
   20.3744  -20.5625  -14.6320 O   0  0  0  0  0  0  0  0  0  0  0  0
   20.4179  -19.3397  -14.3709 O   0  0  0  0  0  0  0  0  0  0  0  0
  2  3  1  0
  2  1  1  0
  4  5  1  0
  4  3  1  0
  5  6  1  6
  7  8  2  0
  7  5  1  0
  9 10  1  0
 10 12  1  0
 11 10  2  0
 12 13  1  0
 13 14  1  0
 14 15  1  0
 16 15  1  6
 16 17  1  0
 17  7  1  0
 18 16  1  0
 19 18  2  0
 20 21  1  0
 21 23  1  0
 21 22  2  0
 23 24  1  0
 25 24  1  6
 25 27  1  0
 25 26  1  0
 26 18  1  0
 27 29  1  0
 28 27  2  0
M  END
$$$$
