MRQ.pdb
     RDKit          3D

 29 28  0  0  1  0  0  0  0  0999 V2000
   31.2301  -20.0628  -18.9211 C   0  0  0  0  0  0  0  0  0  0  0  0
   29.9524  -18.8128  -18.9909 S   0  0  0  0  0  0  0  0  0  0  0  0
   28.3652  -19.3625  -19.5993 C   0  0  0  0  0  0  0  0  0  0  0  0
   27.4858  -19.9908  -18.5822 C   0  0  0  0  0  0  0  0  0  0  0  0
   28.1710  -20.8816  -17.5926 C   0  0  2  0  0  0  0  0  0  0  0  0
   28.5314  -22.1036  -18.2993 N   0  0  0  0  0  0  0  0  0  0  0  0
   27.2626  -21.2684  -16.4751 C   0  0  0  0  0  0  0  0  0  0  0  0
   26.4150  -22.1861  -16.5970 O   0  0  0  0  0  0  0  0  0  0  0  0
   23.4548  -20.1070   -9.9716 N   0  0  0  0  0  0  0  0  0  0  0  0
   24.3213  -20.7892   -9.0659 C   0  0  0  0  0  0  0  0  0  0  0  0
   23.8517  -21.4004   -8.0461 N   0  0  0  0  0  0  0  0  0  0  0  0
   25.7073  -20.7693   -9.3290 N   0  0  0  0  0  0  0  0  0  0  0  0
   26.2000  -19.9053  -10.4066 C   0  0  0  0  0  0  0  0  0  0  0  0
   25.7677  -20.4239  -11.7358 C   0  0  0  0  0  0  0  0  0  0  0  0
   26.7527  -20.3799  -12.8367 C   0  0  0  0  0  0  0  0  0  0  0  0
   26.3296  -20.8518  -14.1829 C   0  0  2  0  0  0  0  0  0  0  0  0
   27.3042  -20.6114  -15.1875 N   0  0  0  0  0  0  0  0  0  0  0  0
   25.0228  -20.2072  -14.5855 C   0  0  0  0  0  0  0  0  0  0  0  0
   25.0021  -18.9684  -14.7976 O   0  0  0  0  0  0  0  0  0  0  0  0
   24.4900  -21.9207   -7.4314 N   0  0  0  0  0  0  0  0  0  0  0  0
   19.8295  -22.0875  -17.5032 C   0  0  0  0  0  0  0  0  0  0  0  0
   20.9740  -22.8466  -17.1549 O   0  0  0  0  0  0  0  0  0  0  0  0
   20.9437  -24.0786  -17.3397 C   0  0  0  0  0  0  0  0  0  0  0  0
   22.1497  -22.1967  -16.5954 C   0  0  0  0  0  0  0  0  0  0  0  0
   22.0873  -20.7159  -16.4216 C   0  0  1  0  0  0  0  0  0  0  0  0
   22.5718  -20.2707  -15.0974 N   0  0  0  0  0  0  0  0  0  0  0  0
   23.8305  -20.9186  -14.7349 C   0  0  0  0  0  0  0  0  0  0  0  0
   21.6257  -20.5437  -14.0265 O   0  0  0  0  0  0  0  0  0  0  0  0
   21.9017  -21.3311  -13.0943 O   0  0  0  0  0  0  0  0  0  0  0  0
  2  3  1  0
  2  1  1  0
  4  5  1  0
  4  3  1  0
  5  6  1  6
  7  8  2  0
  7  5  1  0
  9 10  1  0
 10 12  1  0
 11 10  2  0
 12 13  1  0
 13 14  1  0
 14 15  1  0
 16 15  1  1
 16 17  1  0
 17  7  1  0
 18 16  1  0
 19 18  2  0
 20 21  1  0
 21 23  1  0
 21 22  2  0
 23 24  1  0
 25 24  1  6
 25 27  1  0
 25 26  1  0
 26 18  1  0
 27 29  1  0
 28 27  2  0
M  END
$$$$
