GTL.pdb
     RDKit          3D

 20 19  0  0  1  0  0  0  0  0999 V2000
   16.4716  -14.8423  -19.3870 N   0  0  0  0  0  0  0  0  0  0  0  0
   15.9721  -13.6209  -18.8295 C   0  0  0  0  0  0  0  0  0  0  0  0
   16.9766  -12.5476  -18.9601 C   0  0  0  0  0  0  0  0  0  0  0  0
   17.4984  -12.2263  -20.0428 O   0  0  0  0  0  0  0  0  0  0  0  0
   16.7899  -10.0603  -19.8099 C   0  0  0  0  0  0  0  0  0  0  0  0
   17.3719   -9.5709  -18.5016 C   0  0  1  0  0  0  0  0  0  0  0  0
   16.3903   -9.0417  -17.6623 O   0  0  0  0  0  0  0  0  0  0  0  0
   18.1758  -10.6514  -17.8156 C   0  0  2  0  0  0  0  0  0  0  0  0
   17.3630  -11.8479  -17.7777 N   0  0  0  0  0  0  0  0  0  0  0  0
   18.5960  -10.2251  -16.4337 C   0  0  0  0  0  0  0  0  0  0  0  0
   18.1747  -10.8259  -15.4239 O   0  0  0  0  0  0  0  0  0  0  0  0
   23.4844  -10.8002  -14.0568 C   0  0  0  0  0  0  0  0  0  0  0  0
   22.2753   -9.8975  -13.8342 C   0  0  1  0  0  0  0  0  0  0  0  0
   22.8753   -8.4672  -13.8684 C   0  0  0  0  0  0  0  0  0  0  0  0
   21.3757  -10.0984  -15.0082 C   0  0  0  0  0  0  0  0  0  0  0  0
   20.4868   -8.9114  -15.3304 C   0  0  2  0  0  0  0  0  0  0  0  0
   19.4695   -9.1406  -16.3002 N   0  0  0  0  0  0  0  0  0  0  0  0
   21.2085   -7.6423  -15.4215 C   0  0  0  0  0  0  0  0  0  0  0  0
   21.8968   -7.1845  -16.5371 O   0  0  0  0  0  0  0  0  0  0  0  0
   21.2130   -6.8944  -14.4111 O   0  0  0  0  0  0  0  0  0  0  0  0
  1  2  1  0
  3  4  2  0
  3  2  1  0
  6  5  1  6
  6  7  1  0
  6  8  1  0
  8  9  1  1
  9  3  1  0
 10 11  2  0
 10  8  1  0
 13 14  1  6
 13 12  1  0
 15 13  1  0
 16 15  1  6
 16 17  1  0
 17 10  1  0
 18 16  1  0
 19 18  1  0
 20 18  2  0
M  END
$$$$
