GTL.pdb
     RDKit          3D

 20 19  0  0  1  0  0  0  0  0999 V2000
   16.6893  -14.7256  -16.7328 N   0  0  0  0  0  0  0  0  0  0  0  0
   16.4817  -13.4913  -17.4298 C   0  0  0  0  0  0  0  0  0  0  0  0
   17.7652  -12.7902  -17.6271 C   0  0  0  0  0  0  0  0  0  0  0  0
   18.8307  -13.3747  -17.8932 O   0  0  0  0  0  0  0  0  0  0  0  0
   18.2930  -10.1397  -20.0932 C   0  0  0  0  0  0  0  0  0  0  0  0
   18.6333   -9.5220  -18.7543 C   0  0  1  0  0  0  0  0  0  0  0  0
   17.6280   -8.6626  -18.3085 O   0  0  0  0  0  0  0  0  0  0  0  0
   18.9666  -10.5788  -17.7266 C   0  0  2  0  0  0  0  0  0  0  0  0
   17.7746  -11.3684  -17.5044 N   0  0  0  0  0  0  0  0  0  0  0  0
   19.4650   -9.9589  -16.4478 C   0  0  0  0  0  0  0  0  0  0  0  0
   18.6957   -9.7837  -15.4805 O   0  0  0  0  0  0  0  0  0  0  0  0
   24.6233  -11.3021  -15.0997 C   0  0  0  0  0  0  0  0  0  0  0  0
   23.1236  -11.0267  -15.1318 C   0  0  1  0  0  0  0  0  0  0  0  0
   22.6118  -11.6314  -13.7980 C   0  0  0  0  0  0  0  0  0  0  0  0
   22.9656   -9.5426  -15.1094 C   0  0  0  0  0  0  0  0  0  0  0  0
   21.5340   -9.0597  -15.2526 C   0  0  2  0  0  0  0  0  0  0  0  0
   20.8091   -9.5813  -16.3618 N   0  0  0  0  0  0  0  0  0  0  0  0
   21.3608   -7.6362  -14.9643 C   0  0  0  0  0  0  0  0  0  0  0  0
   21.4340   -7.0535  -13.7061 O   0  0  0  0  0  0  0  0  0  0  0  0
   21.1253   -6.8652  -15.9289 O   0  0  0  0  0  0  0  0  0  0  0  0
  1  2  1  0
  3  4  2  0
  3  2  1  0
  6  5  1  6
  6  7  1  0
  6  8  1  0
  8  9  1  1
  9  3  1  0
 10 11  2  0
 10  8  1  0
 13 14  1  1
 13 12  1  0
 15 13  1  0
 16 15  1  6
 16 17  1  0
 17 10  1  0
 18 16  1  0
 19 18  1  0
 20 18  2  0
M  END
$$$$
