GTL.pdb
     RDKit          3D

 20 19  0  0  1  0  0  0  0  0999 V2000
   16.1010  -13.0657  -15.6801 N   0  0  0  0  0  0  0  0  0  0  0  0
   15.7223  -11.7778  -16.1801 C   0  0  0  0  0  0  0  0  0  0  0  0
   16.8952  -11.0784  -16.7397 C   0  0  0  0  0  0  0  0  0  0  0  0
   17.9532  -11.6553  -17.0486 O   0  0  0  0  0  0  0  0  0  0  0  0
   18.4167   -7.0157  -19.0301 C   0  0  0  0  0  0  0  0  0  0  0  0
   17.3281   -7.8604  -18.4045 C   0  0  1  0  0  0  0  0  0  0  0  0
   16.5124   -8.4537  -19.3692 O   0  0  0  0  0  0  0  0  0  0  0  0
   17.9009   -8.8804  -17.4476 C   0  0  2  0  0  0  0  0  0  0  0  0
   16.8012   -9.6674  -16.9329 N   0  0  0  0  0  0  0  0  0  0  0  0
   18.6714   -8.2155  -16.3376 C   0  0  0  0  0  0  0  0  0  0  0  0
   18.0857   -7.5275  -15.4763 O   0  0  0  0  0  0  0  0  0  0  0  0
   23.6358  -10.5291  -14.7442 C   0  0  0  0  0  0  0  0  0  0  0  0
   22.2190   -9.9648  -14.7648 C   0  0  1  0  0  0  0  0  0  0  0  0
   21.8072   -9.9550  -13.2690 C   0  0  0  0  0  0  0  0  0  0  0  0
   22.3288   -8.5644  -15.2696 C   0  0  0  0  0  0  0  0  0  0  0  0
   21.0058   -7.8290  -15.3788 C   0  0  2  0  0  0  0  0  0  0  0  0
   20.0594   -8.3822  -16.2879 N   0  0  0  0  0  0  0  0  0  0  0  0
   21.1392   -6.3724  -15.3736 C   0  0  0  0  0  0  0  0  0  0  0  0
   21.2754   -5.5793  -14.2421 O   0  0  0  0  0  0  0  0  0  0  0  0
   21.1312   -5.7771  -16.4807 O   0  0  0  0  0  0  0  0  0  0  0  0
  1  2  1  0
  3  4  2  0
  3  2  1  0
  6  5  1  6
  6  7  1  0
  6  8  1  0
  8  9  1  1
  9  3  1  0
 10 11  2  0
 10  8  1  0
 13 14  1  1
 13 12  1  0
 15 13  1  0
 16 15  1  6
 16 17  1  0
 17 10  1  0
 18 16  1  0
 19 18  1  0
 20 18  2  0
M  END
$$$$
