GTL.pdb
     RDKit          3D

 20 19  0  0  1  0  0  0  0  0999 V2000
   18.4968  -12.8975  -16.9858 N   0  0  0  0  0  0  0  0  0  0  0  0
   18.8267  -11.5640  -17.3922 C   0  0  0  0  0  0  0  0  0  0  0  0
   19.3502  -10.7927  -16.2481 C   0  0  0  0  0  0  0  0  0  0  0  0
   18.7633  -10.7064  -15.1545 O   0  0  0  0  0  0  0  0  0  0  0  0
   22.6333  -11.2082  -14.6862 C   0  0  0  0  0  0  0  0  0  0  0  0
   22.5957   -9.7699  -15.1550 C   0  0  1  0  0  0  0  0  0  0  0  0
   23.3887   -9.5716  -16.2863 O   0  0  0  0  0  0  0  0  0  0  0  0
   21.1771   -9.2962  -15.3725 C   0  0  2  0  0  0  0  0  0  0  0  0
   20.5947  -10.1140  -16.4144 N   0  0  0  0  0  0  0  0  0  0  0  0
   21.1386   -7.8342  -15.7314 C   0  0  0  0  0  0  0  0  0  0  0  0
   20.6845   -7.4581  -16.8317 O   0  0  0  0  0  0  0  0  0  0  0  0
   21.0904   -3.0568  -16.7495 C   0  0  0  0  0  0  0  0  0  0  0  0
   20.3560   -3.3572  -15.4470 C   0  0  1  0  0  0  0  0  0  0  0  0
   18.9281   -2.8041  -15.6959 C   0  0  0  0  0  0  0  0  0  0  0  0
   20.3092   -4.8438  -15.3211 C   0  0  0  0  0  0  0  0  0  0  0  0
   21.6109   -5.4785  -14.8677 C   0  0  2  0  0  0  0  0  0  0  0  0
   21.6221   -6.9013  -14.8079 N   0  0  0  0  0  0  0  0  0  0  0  0
   22.2600   -4.7688  -13.7656 C   0  0  0  0  0  0  0  0  0  0  0  0
   22.6007   -5.3231  -12.5390 O   0  0  0  0  0  0  0  0  0  0  0  0
   22.5380   -3.5540  -13.9310 O   0  0  0  0  0  0  0  0  0  0  0  0
  1  2  1  0
  3  4  2  0
  3  2  1  0
  6  5  1  6
  6  7  1  0
  6  8  1  0
  8  9  1  6
  9  3  1  0
 10 11  2  0
 10  8  1  0
 13 14  1  6
 13 12  1  0
 15 13  1  0
 16 15  1  1
 16 17  1  0
 17 10  1  0
 18 16  1  0
 19 18  1  0
 20 18  2  0
M  END
$$$$
