GTL.pdb
     RDKit          3D

 20 19  0  0  1  0  0  0  0  0999 V2000
   13.2516   -8.5755  -12.5674 N   0  0  0  0  0  0  0  0  0  0  0  0
   14.6064   -8.9947  -12.7699 C   0  0  0  0  0  0  0  0  0  0  0  0
   15.5227   -7.8429  -12.6606 C   0  0  0  0  0  0  0  0  0  0  0  0
   15.9060   -7.1777  -13.6396 O   0  0  0  0  0  0  0  0  0  0  0  0
   17.6881   -4.7226   -9.4823 C   0  0  0  0  0  0  0  0  0  0  0  0
   16.7735   -5.8972   -9.7537 C   0  0  1  0  0  0  0  0  0  0  0  0
   15.4370   -5.5838   -9.5013 O   0  0  0  0  0  0  0  0  0  0  0  0
   16.9699   -6.4396  -11.1506 C   0  0  2  0  0  0  0  0  0  0  0  0
   15.9876   -7.4811  -11.3607 N   0  0  0  0  0  0  0  0  0  0  0  0
   18.3716   -6.9551  -11.3441 C   0  0  0  0  0  0  0  0  0  0  0  0
   18.7026   -8.0812  -10.9194 O   0  0  0  0  0  0  0  0  0  0  0  0
   22.6958   -8.9441  -12.7141 C   0  0  0  0  0  0  0  0  0  0  0  0
   22.0057   -8.1463  -13.8157 C   0  0  1  0  0  0  0  0  0  0  0  0
   21.8859   -9.1616  -14.9825 C   0  0  0  0  0  0  0  0  0  0  0  0
   20.6474   -7.8023  -13.3012 C   0  0  0  0  0  0  0  0  0  0  0  0
   20.5743   -6.4873  -12.5473 C   0  0  2  0  0  0  0  0  0  0  0  0
   19.2998   -6.1478  -12.0101 N   0  0  0  0  0  0  0  0  0  0  0  0
   21.3330   -5.4054  -13.1745 C   0  0  0  0  0  0  0  0  0  0  0  0
   22.6722   -5.1206  -12.9437 O   0  0  0  0  0  0  0  0  0  0  0  0
   20.7330   -4.6642  -13.9936 O   0  0  0  0  0  0  0  0  0  0  0  0
  1  2  1  0
  3  4  2  0
  3  2  1  0
  6  5  1  6
  6  7  1  0
  6  8  1  0
  8  9  1  1
  9  3  1  0
 10 11  2  0
 10  8  1  0
 13 14  1  6
 13 12  1  0
 15 13  1  0
 16 15  1  6
 16 17  1  0
 17 10  1  0
 18 16  1  0
 19 18  1  0
 20 18  2  0
M  END
$$$$
