GTL.pdb
     RDKit          3D

 20 19  0  0  1  0  0  0  0  0999 V2000
   15.9140  -13.2764  -15.5776 N   0  0  0  0  0  0  0  0  0  0  0  0
   15.6110  -12.0969  -16.3320 C   0  0  0  0  0  0  0  0  0  0  0  0
   16.8452  -11.5156  -16.8950 C   0  0  0  0  0  0  0  0  0  0  0  0
   17.8009  -12.2005  -17.3017 O   0  0  0  0  0  0  0  0  0  0  0  0
   18.8670   -7.3874  -18.7037 C   0  0  0  0  0  0  0  0  0  0  0  0
   17.6833   -8.1701  -18.1784 C   0  0  1  0  0  0  0  0  0  0  0  0
   16.7607   -8.4551  -19.1861 O   0  0  0  0  0  0  0  0  0  0  0  0
   18.1253   -9.4190  -17.4508 C   0  0  2  0  0  0  0  0  0  0  0  0
   16.9378  -10.0936  -16.9729 N   0  0  0  0  0  0  0  0  0  0  0  0
   19.0655   -9.0891  -16.3217 C   0  0  0  0  0  0  0  0  0  0  0  0
   18.6498   -8.5272  -15.2874 O   0  0  0  0  0  0  0  0  0  0  0  0
   23.5994  -10.7048  -13.5580 C   0  0  0  0  0  0  0  0  0  0  0  0
   23.8192   -9.7878  -14.7568 C   0  0  1  0  0  0  0  0  0  0  0  0
   25.1667  -10.2772  -15.3497 C   0  0  0  0  0  0  0  0  0  0  0  0
   22.7106  -10.0717  -15.7151 C   0  0  0  0  0  0  0  0  0  0  0  0
   21.5041   -9.1629  -15.5690 C   0  0  2  0  0  0  0  0  0  0  0  0
   20.4175   -9.4241  -16.4517 N   0  0  0  0  0  0  0  0  0  0  0  0
   21.8476   -7.7586  -15.3464 C   0  0  0  0  0  0  0  0  0  0  0  0
   21.9261   -7.1341  -14.1087 O   0  0  0  0  0  0  0  0  0  0  0  0
   22.0949   -7.0469  -16.3527 O   0  0  0  0  0  0  0  0  0  0  0  0
  1  2  1  0
  3  4  2  0
  3  2  1  0
  6  5  1  6
  6  7  1  0
  6  8  1  0
  8  9  1  1
  9  3  1  0
 10 11  2  0
 10  8  1  0
 13 14  1  6
 13 12  1  0
 15 13  1  0
 16 15  1  6
 16 17  1  0
 17 10  1  0
 18 16  1  0
 19 18  1  0
 20 18  2  0
M  END
$$$$
