GTL.pdb
     RDKit          3D

 20 19  0  0  1  0  0  0  0  0999 V2000
   28.8893  -22.4777  -16.1691 N   0  0  0  0  0  0  0  0  0  0  0  0
   27.5976  -22.1254  -15.6597 C   0  0  0  0  0  0  0  0  0  0  0  0
   27.7268  -21.1444  -14.5647 C   0  0  0  0  0  0  0  0  0  0  0  0
   28.3353  -20.0655  -14.6804 O   0  0  0  0  0  0  0  0  0  0  0  0
   26.1383  -19.0227  -14.3239 C   0  0  0  0  0  0  0  0  0  0  0  0
   25.6765  -19.5806  -12.9952 C   0  0  1  0  0  0  0  0  0  0  0  0
   24.4624  -20.2593  -13.1108 O   0  0  0  0  0  0  0  0  0  0  0  0
   26.7427  -20.4402  -12.3559 C   0  0  2  0  0  0  0  0  0  0  0  0
   27.1191  -21.4587  -13.3122 N   0  0  0  0  0  0  0  0  0  0  0  0
   26.2549  -21.0463  -11.0665 C   0  0  0  0  0  0  0  0  0  0  0  0
   25.8646  -22.2313  -11.0249 O   0  0  0  0  0  0  0  0  0  0  0  0
   28.1426  -18.5634   -6.3588 C   0  0  0  0  0  0  0  0  0  0  0  0
   27.8131  -19.5349   -7.4874 C   0  0  1  0  0  0  0  0  0  0  0  0
   28.4943  -20.8562   -7.0433 C   0  0  0  0  0  0  0  0  0  0  0  0
   26.3299  -19.7023   -7.4818 C   0  0  0  0  0  0  0  0  0  0  0  0
   25.7905  -20.5739   -8.6008 C   0  0  2  0  0  0  0  0  0  0  0  0
   26.2463  -20.2563   -9.9121 N   0  0  0  0  0  0  0  0  0  0  0  0
   24.3726  -20.9041   -8.4593 C   0  0  0  0  0  0  0  0  0  0  0  0
   23.8233  -21.6854   -7.4514 O   0  0  0  0  0  0  0  0  0  0  0  0
   23.5741  -20.4478   -9.3162 O   0  0  0  0  0  0  0  0  0  0  0  0
  1  2  1  0
  3  4  2  0
  3  2  1  0
  6  5  1  6
  6  7  1  0
  6  8  1  0
  8  9  1  6
  9  3  1  0
 10 11  2  0
 10  8  1  0
 13 14  1  1
 13 12  1  0
 15 13  1  0
 16 15  1  1
 16 17  1  0
 17 10  1  0
 18 16  1  0
 19 18  1  0
 20 18  2  0
M  END
$$$$
