GTL.pdb
     RDKit          3D

 20 19  0  0  1  0  0  0  0  0999 V2000
   15.6317  -15.2837  -15.7868 N   0  0  0  0  0  0  0  0  0  0  0  0
   16.0411  -14.2473  -14.8864 C   0  0  0  0  0  0  0  0  0  0  0  0
   16.5536  -13.0856  -15.6387 C   0  0  0  0  0  0  0  0  0  0  0  0
   16.2114  -12.8202  -16.8050 O   0  0  0  0  0  0  0  0  0  0  0  0
   15.5347  -10.7398  -16.4396 C   0  0  0  0  0  0  0  0  0  0  0  0
   16.5901  -10.0929  -15.5692 C   0  0  1  0  0  0  0  0  0  0  0  0
   16.1032   -9.7991  -14.2946 O   0  0  0  0  0  0  0  0  0  0  0  0
   17.8479  -10.9288  -15.5120 C   0  0  2  0  0  0  0  0  0  0  0  0
   17.4895  -12.2283  -14.9862 N   0  0  0  0  0  0  0  0  0  0  0  0
   18.9065  -10.2653  -14.6710 C   0  0  0  0  0  0  0  0  0  0  0  0
   19.3986  -10.8507  -13.6844 O   0  0  0  0  0  0  0  0  0  0  0  0
   23.5772  -10.6794  -15.2858 C   0  0  0  0  0  0  0  0  0  0  0  0
   22.3153  -10.1897  -14.5828 C   0  0  1  0  0  0  0  0  0  0  0  0
   22.8357   -9.6701  -13.2167 C   0  0  0  0  0  0  0  0  0  0  0  0
   21.7947   -9.0499  -15.3938 C   0  0  0  0  0  0  0  0  0  0  0  0
   20.5894   -8.3494  -14.7941 C   0  0  2  0  0  0  0  0  0  0  0  0
   19.3306   -8.9775  -15.0151 N   0  0  0  0  0  0  0  0  0  0  0  0
   20.6295   -6.8930  -14.9236 C   0  0  0  0  0  0  0  0  0  0  0  0
   21.3271   -6.0283  -14.0908 O   0  0  0  0  0  0  0  0  0  0  0  0
   19.9818   -6.3681  -15.8645 O   0  0  0  0  0  0  0  0  0  0  0  0
  1  2  1  0
  3  4  2  0
  3  2  1  0
  6  5  1  6
  6  7  1  0
  6  8  1  0
  8  9  1  1
  9  3  1  0
 10 11  2  0
 10  8  1  0
 13 14  1  1
 13 12  1  0
 15 13  1  0
 16 15  1  6
 16 17  1  0
 17 10  1  0
 18 16  1  0
 19 18  1  0
 20 18  2  0
M  END
$$$$
