GTL.pdb
     RDKit          3D

 20 19  0  0  1  0  0  0  0  0999 V2000
   27.6600  -17.4450  -17.4825 N   0  0  0  0  0  0  0  0  0  0  0  0
   28.1699  -18.0752  -16.3014 C   0  0  0  0  0  0  0  0  0  0  0  0
   27.1846  -17.9884  -15.2061 C   0  0  0  0  0  0  0  0  0  0  0  0
   26.6346  -16.9267  -14.8626 O   0  0  0  0  0  0  0  0  0  0  0  0
   24.7908  -21.1485  -14.6061 C   0  0  0  0  0  0  0  0  0  0  0  0
   24.5898  -19.7723  -14.0097 C   0  0  1  0  0  0  0  0  0  0  0  0
   23.5597  -19.7599  -13.0681 O   0  0  0  0  0  0  0  0  0  0  0  0
   25.8778  -19.2223  -13.4417 C   0  0  2  0  0  0  0  0  0  0  0  0
   26.8520  -19.1897  -14.5110 N   0  0  0  0  0  0  0  0  0  0  0  0
   26.3599  -20.0508  -12.2802 C   0  0  0  0  0  0  0  0  0  0  0  0
   26.9832  -21.1156  -12.4700 O   0  0  0  0  0  0  0  0  0  0  0  0
   28.7916  -20.4954   -7.3964 C   0  0  0  0  0  0  0  0  0  0  0  0
   27.2973  -20.1900   -7.4042 C   0  0  1  0  0  0  0  0  0  0  0  0
   27.1108  -19.2441   -6.1888 C   0  0  0  0  0  0  0  0  0  0  0  0
   27.0238  -19.4486   -8.6705 C   0  0  0  0  0  0  0  0  0  0  0  0
   26.3147  -20.2634   -9.7364 C   0  0  2  0  0  0  0  0  0  0  0  0
   26.0967  -19.6056  -10.9805 N   0  0  0  0  0  0  0  0  0  0  0  0
   25.2139  -21.0771   -9.2209 C   0  0  0  0  0  0  0  0  0  0  0  0
   23.9053  -20.6467   -9.0478 O   0  0  0  0  0  0  0  0  0  0  0  0
   25.4612  -22.2683   -8.9045 O   0  0  0  0  0  0  0  0  0  0  0  0
  1  2  1  0
  3  4  2  0
  3  2  1  0
  6  5  1  1
  6  7  1  0
  6  8  1  0
  8  9  1  6
  9  3  1  0
 10 11  2  0
 10  8  1  0
 13 14  1  1
 13 12  1  0
 15 13  1  0
 16 15  1  1
 16 17  1  0
 17 10  1  0
 18 16  1  0
 19 18  1  0
 20 18  2  0
M  END
$$$$
