GTL.pdb
     RDKit          3D

 20 19  0  0  1  0  0  0  0  0999 V2000
   24.3059  -21.1626   -8.5417 N   0  0  0  0  0  0  0  0  0  0  0  0
   24.5561  -21.5572   -9.8959 C   0  0  0  0  0  0  0  0  0  0  0  0
   25.5780  -20.6841  -10.5053 C   0  0  0  0  0  0  0  0  0  0  0  0
   26.7297  -20.5584  -10.0519 O   0  0  0  0  0  0  0  0  0  0  0  0
   27.7463  -21.2343  -11.9724 C   0  0  0  0  0  0  0  0  0  0  0  0
   27.0704  -20.4702  -13.0902 C   0  0  1  0  0  0  0  0  0  0  0  0
   26.3599  -21.3170  -13.9422 O   0  0  0  0  0  0  0  0  0  0  0  0
   26.2025  -19.3560  -12.5522 C   0  0  2  0  0  0  0  0  0  0  0  0
   25.2171  -19.9500  -11.6748 N   0  0  0  0  0  0  0  0  0  0  0  0
   25.5529  -18.5822  -13.6690 C   0  0  0  0  0  0  0  0  0  0  0  0
   24.3838  -18.8354  -14.0259 O   0  0  0  0  0  0  0  0  0  0  0  0
   25.4714  -13.6456  -16.1676 C   0  0  0  0  0  0  0  0  0  0  0  0
   26.4395  -14.6607  -16.7664 C   0  0  1  0  0  0  0  0  0  0  0  0
   27.6385  -13.7929  -17.2313 C   0  0  0  0  0  0  0  0  0  0  0  0
   26.8630  -15.5525  -15.6469 C   0  0  0  0  0  0  0  0  0  0  0  0
   25.8750  -16.6547  -15.3118 C   0  0  2  0  0  0  0  0  0  0  0  0
   26.2841  -17.5715  -14.3019 N   0  0  0  0  0  0  0  0  0  0  0  0
   25.2050  -17.2212  -16.4822 C   0  0  0  0  0  0  0  0  0  0  0  0
   23.9815  -16.8059  -16.9906 O   0  0  0  0  0  0  0  0  0  0  0  0
   25.7752  -18.1642  -17.0872 O   0  0  0  0  0  0  0  0  0  0  0  0
  1  2  1  0
  3  4  2  0
  3  2  1  0
  6  5  1  1
  6  7  1  0
  6  8  1  0
  8  9  1  1
  9  3  1  0
 10 11  2  0
 10  8  1  0
 13 14  1  1
 13 12  1  0
 15 13  1  0
 16 15  1  6
 16 17  1  0
 17 10  1  0
 18 16  1  0
 19 18  1  0
 20 18  2  0
M  END
$$$$
