GTL.pdb
     RDKit          3D

 20 19  0  0  1  0  0  0  0  0999 V2000
   24.3650  -21.2484   -8.5182 N   0  0  0  0  0  0  0  0  0  0  0  0
   23.6681  -21.1319   -9.7644 C   0  0  0  0  0  0  0  0  0  0  0  0
   24.5888  -20.6873  -10.8287 C   0  0  0  0  0  0  0  0  0  0  0  0
   25.7672  -20.3489  -10.6173 O   0  0  0  0  0  0  0  0  0  0  0  0
   25.4128  -22.7751  -13.5944 C   0  0  0  0  0  0  0  0  0  0  0  0
   24.8863  -21.5149  -14.2460 C   0  0  1  0  0  0  0  0  0  0  0  0
   23.6076  -21.6988  -14.7743 O   0  0  0  0  0  0  0  0  0  0  0  0
   24.9395  -20.3387  -13.2983 C   0  0  2  0  0  0  0  0  0  0  0  0
   24.0927  -20.6468  -12.1663 N   0  0  0  0  0  0  0  0  0  0  0  0
   24.5084  -19.0675  -13.9810 C   0  0  0  0  0  0  0  0  0  0  0  0
   23.3285  -18.6679  -13.9013 O   0  0  0  0  0  0  0  0  0  0  0  0
   26.1470  -13.9767  -15.5692 C   0  0  0  0  0  0  0  0  0  0  0  0
   26.3890  -15.1249  -16.5435 C   0  0  1  0  0  0  0  0  0  0  0  0
   27.7261  -14.7446  -17.2322 C   0  0  0  0  0  0  0  0  0  0  0  0
   26.5769  -16.3512  -15.7136 C   0  0  0  0  0  0  0  0  0  0  0  0
   25.3011  -17.1242  -15.4348 C   0  0  2  0  0  0  0  0  0  0  0  0
   25.4557  -18.3395  -14.7086 N   0  0  0  0  0  0  0  0  0  0  0  0
   24.3667  -17.1446  -16.5599 C   0  0  0  0  0  0  0  0  0  0  0  0
   24.2422  -18.1714  -17.4862 O   0  0  0  0  0  0  0  0  0  0  0  0
   23.6071  -16.1545  -16.7116 O   0  0  0  0  0  0  0  0  0  0  0  0
  1  2  1  0
  3  4  2  0
  3  2  1  0
  6  5  1  1
  6  7  1  0
  6  8  1  0
  8  9  1  1
  9  3  1  0
 10 11  2  0
 10  8  1  0
 13 14  1  1
 13 12  1  0
 15 13  1  0
 16 15  1  6
 16 17  1  0
 17 10  1  0
 18 16  1  0
 19 18  1  0
 20 18  2  0
M  END
$$$$
