GTL.pdb
     RDKit          3D

 20 19  0  0  1  0  0  0  0  0999 V2000
   28.6488  -25.3554  -16.8403 N   0  0  0  0  0  0  0  0  0  0  0  0
   27.7134  -24.3376  -17.2163 C   0  0  0  0  0  0  0  0  0  0  0  0
   27.7528  -23.2215  -16.2516 C   0  0  0  0  0  0  0  0  0  0  0  0
   28.4894  -23.2088  -15.2491 O   0  0  0  0  0  0  0  0  0  0  0  0
   26.7169  -18.4867  -15.5278 C   0  0  0  0  0  0  0  0  0  0  0  0
   26.7483  -19.7204  -16.4036 C   0  0  1  0  0  0  0  0  0  0  0  0
   27.7761  -19.6621  -17.3460 O   0  0  0  0  0  0  0  0  0  0  0  0
   26.8142  -20.9838  -15.5768 C   0  0  2  0  0  0  0  0  0  0  0  0
   26.8983  -22.1034  -16.4895 N   0  0  0  0  0  0  0  0  0  0  0  0
   25.6215  -21.1026  -14.6652 C   0  0  0  0  0  0  0  0  0  0  0  0
   24.5419  -21.5696  -15.0830 O   0  0  0  0  0  0  0  0  0  0  0  0
   26.3478  -20.1914   -8.8746 C   0  0  0  0  0  0  0  0  0  0  0  0
   25.7931  -20.9930  -10.0476 C   0  0  1  0  0  0  0  0  0  0  0  0
   24.6626  -21.8419   -9.4087 C   0  0  0  0  0  0  0  0  0  0  0  0
   25.2077  -20.0019  -10.9979 C   0  0  0  0  0  0  0  0  0  0  0  0
   24.7516  -20.5909  -12.3200 C   0  0  2  0  0  0  0  0  0  0  0  0
   25.7440  -20.6792  -13.3375 N   0  0  0  0  0  0  0  0  0  0  0  0
   23.4213  -20.1466  -12.7353 C   0  0  0  0  0  0  0  0  0  0  0  0
   22.2277  -20.7933  -12.4438 O   0  0  0  0  0  0  0  0  0  0  0  0
   23.3388  -19.0916  -13.4139 O   0  0  0  0  0  0  0  0  0  0  0  0
  1  2  1  0
  3  4  2  0
  3  2  1  0
  6  5  1  1
  6  7  1  0
  6  8  1  0
  8  9  1  6
  9  3  1  0
 10 11  2  0
 10  8  1  0
 13 14  1  1
 13 12  1  0
 15 13  1  0
 16 15  1  1
 16 17  1  0
 17 10  1  0
 18 16  1  0
 19 18  1  0
 20 18  2  0
M  END
$$$$
