GTL.pdb
     RDKit          3D

 20 19  0  0  1  0  0  0  0  0999 V2000
   25.6136  -22.6480  -10.5353 N   0  0  0  0  0  0  0  0  0  0  0  0
   24.9043  -21.4572  -10.8973 C   0  0  0  0  0  0  0  0  0  0  0  0
   25.0967  -21.1597  -12.3300 C   0  0  0  0  0  0  0  0  0  0  0  0
   25.9048  -21.7693  -13.0532 O   0  0  0  0  0  0  0  0  0  0  0  0
   24.0908  -22.3312  -14.7754 C   0  0  0  0  0  0  0  0  0  0  0  0
   23.4404  -20.9772  -14.9586 C   0  0  1  0  0  0  0  0  0  0  0  0
   22.1243  -20.9663  -14.4942 O   0  0  0  0  0  0  0  0  0  0  0  0
   24.2669  -19.8776  -14.3327 C   0  0  2  0  0  0  0  0  0  0  0  0
   24.3107  -20.1173  -12.9064 N   0  0  0  0  0  0  0  0  0  0  0  0
   23.6970  -18.5196  -14.6474 C   0  0  0  0  0  0  0  0  0  0  0  0
   22.8343  -18.0019  -13.9085 O   0  0  0  0  0  0  0  0  0  0  0  0
   27.3206  -15.7325  -17.3513 C   0  0  0  0  0  0  0  0  0  0  0  0
   26.2653  -15.8999  -16.2629 C   0  0  1  0  0  0  0  0  0  0  0  0
   26.4990  -14.6782  -15.3358 C   0  0  0  0  0  0  0  0  0  0  0  0
   24.9393  -15.7784  -16.9373 C   0  0  0  0  0  0  0  0  0  0  0  0
   23.8174  -16.5466  -16.2632 C   0  0  2  0  0  0  0  0  0  0  0  0
   24.1520  -17.8459  -15.7857 N   0  0  0  0  0  0  0  0  0  0  0  0
   22.5227  -16.4035  -16.9284 C   0  0  0  0  0  0  0  0  0  0  0  0
   21.7733  -15.2363  -16.9919 O   0  0  0  0  0  0  0  0  0  0  0  0
   22.0369  -17.4157  -17.4939 O   0  0  0  0  0  0  0  0  0  0  0  0
  1  2  1  0
  3  4  2  0
  3  2  1  0
  6  5  1  1
  6  7  1  0
  6  8  1  0
  8  9  1  1
  9  3  1  0
 10 11  2  0
 10  8  1  0
 13 14  1  1
 13 12  1  0
 15 13  1  0
 16 15  1  6
 16 17  1  0
 17 10  1  0
 18 16  1  0
 19 18  1  0
 20 18  2  0
M  END
$$$$
