HRS.pdb
     RDKit          3D

 28 28  0  0  1  0  0  0  0  0999 V2000
   15.2624   -7.2953   -7.5148 N   0  0  0  0  0  0  0  0  0  0  0  0
   15.1516   -7.4545   -8.9302 C   0  0  1  0  0  0  0  0  0  0  0  0
   13.8628   -6.9303   -9.4506 C   0  0  0  0  0  0  0  0  0  0  0  0
   12.7406   -7.7107   -8.8704 C   0  0  0  0  0  0  0  0  0  0  0  0
   12.7123   -9.0897   -8.7047 C   0  0  0  0  0  0  0  0  0  0  0  0
   11.5471   -9.4162   -8.1581 N   0  0  0  0  0  0  0  0  0  0  0  0
   10.8244   -8.3132   -7.9643 C   0  0  0  0  0  0  0  0  0  0  0  0
   11.5550   -7.2735   -8.3997 N   0  0  0  0  0  0  0  0  0  0  0  0
   16.3467   -6.9642   -9.6295 C   0  0  0  0  0  0  0  0  0  0  0  0
   17.0302   -5.9778   -9.2164 O   0  0  0  0  0  0  0  0  0  0  0  0
   21.0477   -9.0099  -16.6071 N   0  0  0  0  0  0  0  0  0  0  0  0
   21.6068   -8.2803  -15.4949 C   0  0  0  0  0  0  0  0  0  0  0  0
   22.0552   -7.0910  -15.6971 N   0  0  0  0  0  0  0  0  0  0  0  0
   21.6803   -8.8252  -14.1941 N   0  0  0  0  0  0  0  0  0  0  0  0
   20.5127   -9.1958  -13.4184 C   0  0  0  0  0  0  0  0  0  0  0  0
   19.8773   -7.9125  -12.9233 C   0  0  0  0  0  0  0  0  0  0  0  0
   18.6941   -8.3278  -12.0647 C   0  0  0  0  0  0  0  0  0  0  0  0
   18.0053   -7.1087  -11.5309 C   0  0  2  0  0  0  0  0  0  0  0  0
   16.8036   -7.5734  -10.8172 N   0  0  0  0  0  0  0  0  0  0  0  0
   17.5611   -6.3178  -12.7236 C   0  0  0  0  0  0  0  0  0  0  0  0
   16.7631   -6.8415  -13.5379 O   0  0  0  0  0  0  0  0  0  0  0  0
   22.3984   -6.5174  -14.9177 O   0  0  0  0  0  0  0  0  0  0  0  0
   16.2291   -2.4773  -14.7753 C   0  0  0  0  0  0  0  0  0  0  0  0
   16.5316   -3.2735  -13.6719 C   0  0  1  0  0  0  0  0  0  0  0  0
   17.5608   -4.2920  -14.1196 N   0  0  0  0  0  0  0  0  0  0  0  0
   18.0211   -4.9984  -12.9496 C   0  0  0  0  0  0  0  0  0  0  0  0
   18.7302   -3.6350  -14.7573 O   0  0  0  0  0  0  0  0  0  0  0  0
   18.5622   -2.9041  -15.9328 O   0  0  0  0  0  0  0  0  0  0  0  0
  2  9  1  0
  2  1  1  1
  3  2  1  0
  4  3  1  0
  5  4  2  0
  6  7  1  0
  6  5  1  0
  7  8  2  0
  8  4  1  0
  9 10  2  0
 12 14  1  0
 12 11  1  0
 13 12  2  0
 15 14  1  0
 16 15  1  0
 17 16  1  0
 18 17  1  6
 19  9  1  0
 19 18  1  0
 20 25  1  0
 20 18  1  0
 21 20  2  0
 23 22  1  0
 24 23  1  6
 24 25  1  0
 26 24  1  0
 26 27  1  0
 28 26  2  0
M  END
$$$$
