HRS.pdb
     RDKit          3D

 28 28  0  0  1  0  0  0  0  0999 V2000
   15.1796  -12.0448  -10.2045 N   0  0  0  0  0  0  0  0  0  0  0  0
   14.6117  -10.7342  -10.1739 C   0  0  1  0  0  0  0  0  0  0  0  0
   13.3688  -10.6845   -9.3618 C   0  0  0  0  0  0  0  0  0  0  0  0
   12.3595  -11.6044   -9.9450 C   0  0  0  0  0  0  0  0  0  0  0  0
   12.3422  -12.9860   -9.8007 C   0  0  0  0  0  0  0  0  0  0  0  0
   11.2929  -13.4575  -10.4638 N   0  0  0  0  0  0  0  0  0  0  0  0
   10.6343  -12.4453  -11.0279 C   0  0  0  0  0  0  0  0  0  0  0  0
   11.2871  -11.3152  -10.7097 N   0  0  0  0  0  0  0  0  0  0  0  0
   15.6127   -9.7136   -9.8363 C   0  0  0  0  0  0  0  0  0  0  0  0
   16.3570   -9.7915   -8.8113 O   0  0  0  0  0  0  0  0  0  0  0  0
   21.6435   -6.6219  -14.6158 N   0  0  0  0  0  0  0  0  0  0  0  0
   20.7616   -7.6050  -14.0347 C   0  0  0  0  0  0  0  0  0  0  0  0
   20.6517   -8.7530  -14.6059 N   0  0  0  0  0  0  0  0  0  0  0  0
   20.0149   -7.3516  -12.8631 N   0  0  0  0  0  0  0  0  0  0  0  0
   19.4370   -6.0591  -12.5505 C   0  0  0  0  0  0  0  0  0  0  0  0
   18.6444   -6.2201  -11.2692 C   0  0  0  0  0  0  0  0  0  0  0  0
   17.6136   -7.3033  -11.5404 C   0  0  0  0  0  0  0  0  0  0  0  0
   16.7782   -7.5230  -10.3158 C   0  0  2  0  0  0  0  0  0  0  0  0
   15.8009   -8.5741  -10.6467 N   0  0  0  0  0  0  0  0  0  0  0  0
   16.0278   -6.2474  -10.0814 C   0  0  0  0  0  0  0  0  0  0  0  0
   15.2585   -5.8211  -10.9761 O   0  0  0  0  0  0  0  0  0  0  0  0
   20.0430   -9.4810  -14.2138 O   0  0  0  0  0  0  0  0  0  0  0  0
   14.1120   -3.1654   -7.1004 C   0  0  0  0  0  0  0  0  0  0  0  0
   14.7512   -4.3844   -7.3202 C   0  0  1  0  0  0  0  0  0  0  0  0
   15.3861   -4.3191   -8.6949 N   0  0  0  0  0  0  0  0  0  0  0  0
   16.1685   -5.5167   -8.8774 C   0  0  0  0  0  0  0  0  0  0  0  0
   16.2912   -3.1479   -8.8176 O   0  0  0  0  0  0  0  0  0  0  0  0
   15.8139   -1.9530   -9.3545 O   0  0  0  0  0  0  0  0  0  0  0  0
  2  9  1  0
  2  1  1  1
  3  2  1  0
  4  3  1  0
  5  4  2  0
  6  7  1  0
  6  5  1  0
  7  8  2  0
  8  4  1  0
  9 10  2  0
 12 14  1  0
 12 11  1  0
 13 12  2  0
 15 14  1  0
 16 15  1  0
 17 16  1  0
 18 17  1  6
 19  9  1  0
 19 18  1  0
 20 25  1  0
 20 18  1  0
 21 20  2  0
 23 22  1  0
 24 23  1  6
 24 25  1  0
 26 24  1  0
 26 27  1  0
 28 26  2  0
M  END
$$$$
