HRS.pdb
     RDKit          3D

 28 28  0  0  1  0  0  0  0  0999 V2000
   21.5878  -20.6192  -16.9761 N   0  0  0  0  0  0  0  0  0  0  0  0
   22.1311  -19.3936  -17.4700 C   0  0  1  0  0  0  0  0  0  0  0  0
   21.2650  -18.7788  -18.5085 C   0  0  0  0  0  0  0  0  0  0  0  0
   21.1826  -19.6833  -19.6832 C   0  0  0  0  0  0  0  0  0  0  0  0
   20.0934  -20.4768  -20.0209 C   0  0  0  0  0  0  0  0  0  0  0  0
   20.3953  -21.1427  -21.1293 N   0  0  0  0  0  0  0  0  0  0  0  0
   21.6266  -20.8155  -21.5209 C   0  0  0  0  0  0  0  0  0  0  0  0
   22.1051  -19.9245  -20.6367 N   0  0  0  0  0  0  0  0  0  0  0  0
   22.5241  -18.4921  -16.3788 C   0  0  0  0  0  0  0  0  0  0  0  0
   21.7857  -18.2674  -15.3714 O   0  0  0  0  0  0  0  0  0  0  0  0
   26.9106  -20.2571  -11.0007 N   0  0  0  0  0  0  0  0  0  0  0  0
   26.6085  -21.1118  -12.1233 C   0  0  0  0  0  0  0  0  0  0  0  0
   26.2491  -22.3268  -11.8975 N   0  0  0  0  0  0  0  0  0  0  0  0
   26.6944  -20.6629  -13.4595 N   0  0  0  0  0  0  0  0  0  0  0  0
   26.7653  -19.2619  -13.8263 C   0  0  0  0  0  0  0  0  0  0  0  0
   25.3963  -18.8623  -14.3380 C   0  0  0  0  0  0  0  0  0  0  0  0
   25.5292  -17.4326  -14.8357 C   0  0  0  0  0  0  0  0  0  0  0  0
   24.1944  -16.9331  -15.2987 C   0  0  2  0  0  0  0  0  0  0  0  0
   23.7628  -17.8169  -16.3951 N   0  0  0  0  0  0  0  0  0  0  0  0
   24.4283  -15.5667  -15.8674 C   0  0  0  0  0  0  0  0  0  0  0  0
   24.6615  -15.4505  -17.0947 O   0  0  0  0  0  0  0  0  0  0  0  0
   26.1034  -22.9860  -12.6711 O   0  0  0  0  0  0  0  0  0  0  0  0
   25.9233  -11.9489  -17.1816 C   0  0  0  0  0  0  0  0  0  0  0  0
   25.7423  -13.2118  -16.6201 C   0  0  2  0  0  0  0  0  0  0  0  0
   24.5650  -13.1183  -15.6702 N   0  0  0  0  0  0  0  0  0  0  0  0
   24.3922  -14.4099  -15.0526 C   0  0  0  0  0  0  0  0  0  0  0  0
   23.3132  -12.7757  -16.3924 O   0  0  0  0  0  0  0  0  0  0  0  0
   22.9320  -11.4415  -16.5295 O   0  0  0  0  0  0  0  0  0  0  0  0
  2  9  1  0
  2  1  1  1
  3  2  1  0
  4  3  1  0
  5  4  2  0
  6  7  1  0
  6  5  1  0
  7  8  2  0
  8  4  1  0
  9 10  2  0
 12 14  1  0
 12 11  1  0
 13 12  2  0
 15 14  1  0
 16 15  1  0
 17 16  1  0
 18 17  1  6
 19  9  1  0
 19 18  1  0
 20 25  1  0
 20 18  1  0
 21 20  2  0
 23 22  1  0
 24 23  1  1
 24 25  1  0
 26 24  1  0
 26 27  1  0
 28 26  2  0
M  END
$$$$
