HRS.pdb
     RDKit          3D

 28 28  0  0  1  0  0  0  0  0999 V2000
   22.0457  -32.7675   -8.3056 N   0  0  0  0  0  0  0  0  0  0  0  0
   22.2695  -31.7362   -9.2687 C   0  0  1  0  0  0  0  0  0  0  0  0
   23.0631  -32.2193  -10.4278 C   0  0  0  0  0  0  0  0  0  0  0  0
   24.4060  -32.6502   -9.9630 C   0  0  0  0  0  0  0  0  0  0  0  0
   25.5527  -31.8659   -9.9583 C   0  0  0  0  0  0  0  0  0  0  0  0
   26.5508  -32.5965   -9.4752 N   0  0  0  0  0  0  0  0  0  0  0  0
   26.1010  -33.8132   -9.1690 C   0  0  0  0  0  0  0  0  0  0  0  0
   24.7916  -33.8435   -9.4675 N   0  0  0  0  0  0  0  0  0  0  0  0
   21.0258  -31.0372   -9.6185 C   0  0  0  0  0  0  0  0  0  0  0  0
   19.8953  -31.6135   -9.6427 O   0  0  0  0  0  0  0  0  0  0  0  0
   18.6295  -23.9773  -12.7877 N   0  0  0  0  0  0  0  0  0  0  0  0
   17.7843  -23.8133  -11.6299 C   0  0  0  0  0  0  0  0  0  0  0  0
   16.6938  -23.1405  -11.7494 N   0  0  0  0  0  0  0  0  0  0  0  0
   18.1119  -24.3637  -10.3712 N   0  0  0  0  0  0  0  0  0  0  0  0
   19.2871  -25.1809  -10.1404 C   0  0  0  0  0  0  0  0  0  0  0  0
   18.8739  -26.6257  -10.3345 C   0  0  0  0  0  0  0  0  0  0  0  0
   20.1110  -27.4628  -10.0546 C   0  0  0  0  0  0  0  0  0  0  0  0
   19.7805  -28.9170  -10.2022 C   0  0  2  0  0  0  0  0  0  0  0  0
   21.0236  -29.6665   -9.9527 N   0  0  0  0  0  0  0  0  0  0  0  0
   19.3953  -29.1194  -11.6361 C   0  0  0  0  0  0  0  0  0  0  0  0
   20.2802  -29.0352  -12.5214 O   0  0  0  0  0  0  0  0  0  0  0  0
   16.1100  -22.9327  -10.9308 O   0  0  0  0  0  0  0  0  0  0  0  0
   16.0503  -30.9316  -12.3861 C   0  0  0  0  0  0  0  0  0  0  0  0
   16.9693  -30.9846  -13.4327 C   0  0  1  0  0  0  0  0  0  0  0  0
   17.7731  -29.7003  -13.3922 N   0  0  0  0  0  0  0  0  0  0  0  0
   18.0599  -29.4021  -12.0107 C   0  0  0  0  0  0  0  0  0  0  0  0
   17.0067  -28.5643  -13.9648 O   0  0  0  0  0  0  0  0  0  0  0  0
   16.6918  -28.5517  -15.3230 O   0  0  0  0  0  0  0  0  0  0  0  0
  2  9  1  0
  2  1  1  1
  3  2  1  0
  4  3  1  0
  5  4  2  0
  6  7  1  0
  6  5  1  0
  7  8  2  0
  8  4  1  0
  9 10  2  0
 12 14  1  0
 12 11  1  0
 13 12  2  0
 15 14  1  0
 16 15  1  0
 17 16  1  0
 18 17  1  6
 19  9  1  0
 19 18  1  0
 20 25  1  0
 20 18  1  0
 21 20  2  0
 23 22  1  0
 24 23  1  6
 24 25  1  0
 26 24  1  0
 26 27  1  0
 28 26  2  0
M  END
$$$$
