HRS.pdb
     RDKit          3D

 28 28  0  0  1  0  0  0  0  0999 V2000
   14.9008  -21.1046    2.6688 N   0  0  0  0  0  0  0  0  0  0  0  0
   16.1593  -21.2938    3.3181 C   0  0  1  0  0  0  0  0  0  0  0  0
   16.4288  -20.2391    4.3288 C   0  0  0  0  0  0  0  0  0  0  0  0
   16.5069  -18.9175    3.6563 C   0  0  0  0  0  0  0  0  0  0  0  0
   15.5316  -17.9289    3.6952 C   0  0  0  0  0  0  0  0  0  0  0  0
   15.9596  -16.8980    2.9759 N   0  0  0  0  0  0  0  0  0  0  0  0
   17.1634  -17.1762    2.4761 C   0  0  0  0  0  0  0  0  0  0  0  0
   17.4955  -18.4093    2.8929 N   0  0  0  0  0  0  0  0  0  0  0  0
   16.3216  -22.6710    3.8025 C   0  0  0  0  0  0  0  0  0  0  0  0
   15.4365  -23.2687    4.4881 O   0  0  0  0  0  0  0  0  0  0  0  0
   20.0390  -27.2584   -1.7563 N   0  0  0  0  0  0  0  0  0  0  0  0
   18.6111  -27.2847   -1.5509 C   0  0  0  0  0  0  0  0  0  0  0  0
   17.8609  -27.7690   -2.4777 N   0  0  0  0  0  0  0  0  0  0  0  0
   18.0084  -26.7974   -0.3704 N   0  0  0  0  0  0  0  0  0  0  0  0
   18.7604  -26.4141    0.8085 C   0  0  0  0  0  0  0  0  0  0  0  0
   17.7808  -25.7918    1.7827 C   0  0  0  0  0  0  0  0  0  0  0  0
   18.5720  -25.4849    3.0434 C   0  0  0  0  0  0  0  0  0  0  0  0
   17.6930  -24.7813    4.0323 C   0  0  2  0  0  0  0  0  0  0  0  0
   17.4898  -23.4127    3.5273 N   0  0  0  0  0  0  0  0  0  0  0  0
   18.4756  -24.6952    5.3072 C   0  0  0  0  0  0  0  0  0  0  0  0
   19.4876  -23.9550    5.3509 O   0  0  0  0  0  0  0  0  0  0  0  0
   16.8411  -27.8069   -2.3647 O   0  0  0  0  0  0  0  0  0  0  0  0
   16.7681  -25.5294    8.7958 C   0  0  0  0  0  0  0  0  0  0  0  0
   17.8282  -24.6300    8.6949 C   0  0  1  0  0  0  0  0  0  0  0  0
   18.8100  -25.2012    7.6915 N   0  0  0  0  0  0  0  0  0  0  0  0
   18.0987  -25.4285    6.4578 C   0  0  0  0  0  0  0  0  0  0  0  0
   19.3644  -26.4986    8.1555 O   0  0  0  0  0  0  0  0  0  0  0  0
   19.0744  -27.6693    7.4559 O   0  0  0  0  0  0  0  0  0  0  0  0
  2  9  1  0
  2  1  1  1
  3  2  1  0
  4  3  1  0
  5  4  2  0
  6  7  1  0
  6  5  1  0
  7  8  2  0
  8  4  1  0
  9 10  2  0
 12 14  1  0
 12 11  1  0
 13 12  2  0
 15 14  1  0
 16 15  1  0
 17 16  1  0
 18 17  1  6
 19  9  1  0
 19 18  1  0
 20 25  1  0
 20 18  1  0
 21 20  2  0
 23 22  1  0
 24 23  1  6
 24 25  1  0
 26 24  1  0
 26 27  1  0
 28 26  2  0
M  END
$$$$
