HRS.pdb
     RDKit          3D

 28 28  0  0  1  0  0  0  0  0999 V2000
   24.0891  -16.4529  -19.4367 N   0  0  0  0  0  0  0  0  0  0  0  0
   23.2934  -16.2712  -18.2642 C   0  0  1  0  0  0  0  0  0  0  0  0
   22.2853  -15.1939  -18.4365 C   0  0  0  0  0  0  0  0  0  0  0  0
   22.9774  -13.8905  -18.6026 C   0  0  0  0  0  0  0  0  0  0  0  0
   23.2675  -13.2750  -19.8137 C   0  0  0  0  0  0  0  0  0  0  0  0
   23.8902  -12.1307  -19.5568 N   0  0  0  0  0  0  0  0  0  0  0  0
   24.0146  -11.9807  -18.2383 C   0  0  0  0  0  0  0  0  0  0  0  0
   23.4566  -13.0560  -17.6579 N   0  0  0  0  0  0  0  0  0  0  0  0
   22.7585  -17.5451  -17.7651 C   0  0  0  0  0  0  0  0  0  0  0  0
   22.3337  -18.4618  -18.5331 O   0  0  0  0  0  0  0  0  0  0  0  0
   25.3452  -22.1982  -14.8368 N   0  0  0  0  0  0  0  0  0  0  0  0
   24.5624  -23.0302  -13.9554 C   0  0  0  0  0  0  0  0  0  0  0  0
   24.6972  -24.3081  -14.0281 N   0  0  0  0  0  0  0  0  0  0  0  0
   23.6539  -22.4923  -13.0175 N   0  0  0  0  0  0  0  0  0  0  0  0
   23.3719  -21.0746  -12.9040 C   0  0  0  0  0  0  0  0  0  0  0  0
   22.4196  -20.7154  -14.0264 C   0  0  0  0  0  0  0  0  0  0  0  0
   22.9656  -19.4451  -14.6570 C   0  0  0  0  0  0  0  0  0  0  0  0
   22.1435  -19.0833  -15.8565 C   0  0  2  0  0  0  0  0  0  0  0  0
   22.6868  -17.8195  -16.3830 N   0  0  0  0  0  0  0  0  0  0  0  0
   20.7565  -18.8199  -15.3546 C   0  0  0  0  0  0  0  0  0  0  0  0
   20.5783  -17.9118  -14.5074 O   0  0  0  0  0  0  0  0  0  0  0  0
   24.1142  -24.9330  -13.4590 O   0  0  0  0  0  0  0  0  0  0  0  0
   17.5434  -20.8980  -16.7838 C   0  0  0  0  0  0  0  0  0  0  0  0
   17.3379  -19.5658  -16.4290 C   0  0  1  0  0  0  0  0  0  0  0  0
   18.3312  -19.2327  -15.3338 N   0  0  0  0  0  0  0  0  0  0  0  0
   19.6482  -19.5710  -15.8141 C   0  0  0  0  0  0  0  0  0  0  0  0
   18.0662  -20.0230  -14.1045 O   0  0  0  0  0  0  0  0  0  0  0  0
   18.9715  -21.0028  -13.6987 O   0  0  0  0  0  0  0  0  0  0  0  0
  2  9  1  0
  2  1  1  6
  3  2  1  0
  4  3  1  0
  5  4  2  0
  6  7  1  0
  6  5  1  0
  7  8  2  0
  8  4  1  0
  9 10  2  0
 12 14  1  0
 12 11  1  0
 13 12  2  0
 15 14  1  0
 16 15  1  0
 17 16  1  0
 18 17  1  1
 19  9  1  0
 19 18  1  0
 20 25  1  0
 20 18  1  0
 21 20  2  0
 23 22  1  0
 24 23  1  6
 24 25  1  0
 26 24  1  0
 26 27  1  0
 28 26  2  0
M  END
$$$$
