HRS.pdb
     RDKit          3D

 28 28  0  0  1  0  0  0  0  0999 V2000
   19.2791   -9.2137  -15.0678 N   0  0  0  0  0  0  0  0  0  0  0  0
   19.4996   -8.9269  -13.6856 C   0  0  1  0  0  0  0  0  0  0  0  0
   20.7080   -8.0885  -13.4766 C   0  0  0  0  0  0  0  0  0  0  0  0
   21.8842   -8.7532  -14.0930 C   0  0  0  0  0  0  0  0  0  0  0  0
   22.5023   -9.9057  -13.6244 C   0  0  0  0  0  0  0  0  0  0  0  0
   23.5146  -10.1903  -14.4352 N   0  0  0  0  0  0  0  0  0  0  0  0
   23.5773   -9.2759  -15.4029 C   0  0  0  0  0  0  0  0  0  0  0  0
   22.5810   -8.3999  -15.1920 N   0  0  0  0  0  0  0  0  0  0  0  0
   18.2819   -8.4317  -13.0302 C   0  0  0  0  0  0  0  0  0  0  0  0
   17.6172   -7.4434  -13.4683 O   0  0  0  0  0  0  0  0  0  0  0  0
   11.9047  -13.3459   -9.6453 N   0  0  0  0  0  0  0  0  0  0  0  0
   11.5253  -11.9580   -9.5366 C   0  0  0  0  0  0  0  0  0  0  0  0
   10.3070  -11.6707   -9.2373 N   0  0  0  0  0  0  0  0  0  0  0  0
   12.4424  -10.9052   -9.7481 N   0  0  0  0  0  0  0  0  0  0  0  0
   13.8322  -11.1182  -10.1021 C   0  0  0  0  0  0  0  0  0  0  0  0
   14.4654   -9.7526  -10.2751 C   0  0  0  0  0  0  0  0  0  0  0  0
   15.8726   -9.9991  -10.7933 C   0  0  0  0  0  0  0  0  0  0  0  0
   16.4515   -8.7176  -11.3111 C   0  0  2  0  0  0  0  0  0  0  0  0
   17.7806   -9.0382  -11.8591 N   0  0  0  0  0  0  0  0  0  0  0  0
   16.6418   -7.8280  -10.1205 C   0  0  0  0  0  0  0  0  0  0  0  0
   17.4352   -8.1836   -9.2160 O   0  0  0  0  0  0  0  0  0  0  0  0
   10.0050  -10.6945   -9.1364 O   0  0  0  0  0  0  0  0  0  0  0  0
   15.8436   -3.9737  -10.1256 C   0  0  0  0  0  0  0  0  0  0  0  0
   16.6023   -4.4923   -9.0776 C   0  0  1  0  0  0  0  0  0  0  0  0
   16.0495   -5.8669   -8.7581 N   0  0  0  0  0  0  0  0  0  0  0  0
   15.9479   -6.6006   -9.9954 C   0  0  0  0  0  0  0  0  0  0  0  0
   14.6947   -5.7785   -8.1560 O   0  0  0  0  0  0  0  0  0  0  0  0
   14.5261   -5.1834   -6.9064 O   0  0  0  0  0  0  0  0  0  0  0  0
  2  9  1  0
  2  1  1  6
  3  2  1  0
  4  3  1  0
  5  4  2  0
  6  7  1  0
  6  5  1  0
  7  8  2  0
  8  4  1  0
  9 10  2  0
 12 14  1  0
 12 11  1  0
 13 12  2  0
 15 14  1  0
 16 15  1  0
 17 16  1  0
 18 17  1  1
 19  9  1  0
 19 18  1  0
 20 25  1  0
 20 18  1  0
 21 20  2  0
 23 22  1  0
 24 23  1  1
 24 25  1  0
 26 24  1  0
 26 27  1  0
 28 26  2  0
M  END
$$$$
