HRS.pdb
     RDKit          3D

 28 28  0  0  1  0  0  0  0  0999 V2000
   26.5667  -19.0590  -18.2400 N   0  0  0  0  0  0  0  0  0  0  0  0
   25.5380  -18.6110  -17.3556 C   0  0  1  0  0  0  0  0  0  0  0  0
   24.3853  -18.0303  -18.0907 C   0  0  0  0  0  0  0  0  0  0  0  0
   24.8153  -16.7904  -18.7857 C   0  0  0  0  0  0  0  0  0  0  0  0
   24.9421  -15.5361  -18.2021 C   0  0  0  0  0  0  0  0  0  0  0  0
   25.3453  -14.6842  -19.1375 N   0  0  0  0  0  0  0  0  0  0  0  0
   25.4840  -15.3305  -20.2948 C   0  0  0  0  0  0  0  0  0  0  0  0
   25.1600  -16.6160  -20.0776 N   0  0  0  0  0  0  0  0  0  0  0  0
   25.1866  -19.6361  -16.3639 C   0  0  0  0  0  0  0  0  0  0  0  0
   24.8742  -20.8242  -16.6826 O   0  0  0  0  0  0  0  0  0  0  0  0
   29.0381  -22.9215  -11.0093 N   0  0  0  0  0  0  0  0  0  0  0  0
   28.6032  -21.6624  -10.4548 C   0  0  0  0  0  0  0  0  0  0  0  0
   29.3951  -21.0278   -9.6633 N   0  0  0  0  0  0  0  0  0  0  0  0
   27.3401  -21.1033  -10.7488 N   0  0  0  0  0  0  0  0  0  0  0  0
   26.3006  -21.8159  -11.4656 C   0  0  0  0  0  0  0  0  0  0  0  0
   25.1093  -20.8855  -11.5703 C   0  0  0  0  0  0  0  0  0  0  0  0
   25.4398  -19.8942  -12.6738 C   0  0  0  0  0  0  0  0  0  0  0  0
   24.8455  -20.3622  -13.9674 C   0  0  2  0  0  0  0  0  0  0  0  0
   25.1764  -19.3479  -14.9828 N   0  0  0  0  0  0  0  0  0  0  0  0
   23.3594  -20.3601  -13.7751 C   0  0  0  0  0  0  0  0  0  0  0  0
   22.7592  -19.2620  -13.6855 O   0  0  0  0  0  0  0  0  0  0  0  0
   29.1273  -20.1195   -9.2663 O   0  0  0  0  0  0  0  0  0  0  0  0
   20.9013  -23.2867  -15.0393 C   0  0  0  0  0  0  0  0  0  0  0  0
   20.6370  -22.8972  -13.7273 C   0  0  2  0  0  0  0  0  0  0  0  0
   21.1886  -21.4963  -13.5532 N   0  0  0  0  0  0  0  0  0  0  0  0
   22.6223  -21.5656  -13.6925 C   0  0  0  0  0  0  0  0  0  0  0  0
   20.8770  -20.9560  -12.2053 O   0  0  0  0  0  0  0  0  0  0  0  0
   19.5534  -20.7064  -11.8447 O   0  0  0  0  0  0  0  0  0  0  0  0
  2  9  1  0
  2  1  1  6
  3  2  1  0
  4  3  1  0
  5  4  2  0
  6  7  1  0
  6  5  1  0
  7  8  2  0
  8  4  1  0
  9 10  2  0
 12 14  1  0
 12 11  1  0
 13 12  2  0
 15 14  1  0
 16 15  1  0
 17 16  1  0
 18 17  1  1
 19  9  1  0
 19 18  1  0
 20 25  1  0
 20 18  1  0
 21 20  2  0
 23 22  1  0
 24 23  1  6
 24 25  1  0
 26 24  1  0
 26 27  1  0
 28 26  2  0
M  END
$$$$
