HRS.pdb
     RDKit          3D

 28 28  0  0  1  0  0  0  0  0999 V2000
   22.5642  -20.8671   -9.9685 N   0  0  0  0  0  0  0  0  0  0  0  0
   22.9244  -20.9197  -11.3500 C   0  0  1  0  0  0  0  0  0  0  0  0
   21.8729  -20.3366  -12.2224 C   0  0  0  0  0  0  0  0  0  0  0  0
   20.6698  -21.2067  -12.1965 C   0  0  0  0  0  0  0  0  0  0  0  0
   20.5217  -22.4062  -12.8814 C   0  0  0  0  0  0  0  0  0  0  0  0
   19.3145  -22.8893  -12.6121 N   0  0  0  0  0  0  0  0  0  0  0  0
   18.6789  -22.0578  -11.7868 C   0  0  0  0  0  0  0  0  0  0  0  0
   19.5082  -21.0316  -11.5344 N   0  0  0  0  0  0  0  0  0  0  0  0
   24.2786  -20.3995  -11.5809 C   0  0  0  0  0  0  0  0  0  0  0  0
   24.7100  -19.3366  -11.0379 O   0  0  0  0  0  0  0  0  0  0  0  0
   31.0976  -21.4456   -8.6789 N   0  0  0  0  0  0  0  0  0  0  0  0
   31.1279  -22.0473   -9.9899 C   0  0  0  0  0  0  0  0  0  0  0  0
   32.1050  -22.8295  -10.2899 N   0  0  0  0  0  0  0  0  0  0  0  0
   30.1250  -21.8076  -10.9548 N   0  0  0  0  0  0  0  0  0  0  0  0
   28.9234  -21.0434  -10.6821 C   0  0  0  0  0  0  0  0  0  0  0  0
   27.7421  -21.9198  -11.0458 C   0  0  0  0  0  0  0  0  0  0  0  0
   27.4856  -21.6942  -12.5266 C   0  0  0  0  0  0  0  0  0  0  0  0
   26.5368  -20.5482  -12.7058 C   0  0  2  0  0  0  0  0  0  0  0  0
   25.1846  -21.0647  -12.4337 N   0  0  0  0  0  0  0  0  0  0  0  0
   26.6057  -20.1645  -14.1526 C   0  0  0  0  0  0  0  0  0  0  0  0
   25.9287  -20.8126  -14.9867 O   0  0  0  0  0  0  0  0  0  0  0  0
   32.1608  -23.2729  -11.2143 O   0  0  0  0  0  0  0  0  0  0  0  0
   28.1688  -17.1278  -17.5131 C   0  0  0  0  0  0  0  0  0  0  0  0
   28.1598  -17.4383  -16.1543 C   0  0  1  0  0  0  0  0  0  0  0  0
   27.4008  -18.7404  -15.9945 N   0  0  0  0  0  0  0  0  0  0  0  0
   27.4152  -19.0912  -14.5958 C   0  0  0  0  0  0  0  0  0  0  0  0
   28.0458  -19.8396  -16.7572 O   0  0  0  0  0  0  0  0  0  0  0  0
   27.6265  -20.1244  -18.0561 O   0  0  0  0  0  0  0  0  0  0  0  0
  2  9  1  0
  2  1  1  1
  3  2  1  0
  4  3  1  0
  5  4  2  0
  6  7  1  0
  6  5  1  0
  7  8  2  0
  8  4  1  0
  9 10  2  0
 12 14  1  0
 12 11  1  0
 13 12  2  0
 15 14  1  0
 16 15  1  0
 17 16  1  0
 18 17  1  6
 19  9  1  0
 19 18  1  0
 20 25  1  0
 20 18  1  0
 21 20  2  0
 23 22  1  0
 24 23  1  1
 24 25  1  0
 26 24  1  0
 26 27  1  0
 28 26  2  0
M  END
$$$$
