HRS.pdb
     RDKit          3D

 28 28  0  0  1  0  0  0  0  0999 V2000
   13.8757  -12.1979  -11.0384 N   0  0  0  0  0  0  0  0  0  0  0  0
   13.9333  -10.7880  -11.2622 C   0  0  1  0  0  0  0  0  0  0  0  0
   12.6512  -10.1177  -10.9250 C   0  0  0  0  0  0  0  0  0  0  0  0
   11.5525  -10.7224  -11.7201 C   0  0  0  0  0  0  0  0  0  0  0  0
   11.3450  -10.5455  -13.0823 C   0  0  0  0  0  0  0  0  0  0  0  0
   10.2677  -11.2399  -13.4296 N   0  0  0  0  0  0  0  0  0  0  0  0
    9.7724  -11.8550  -12.3560 C   0  0  0  0  0  0  0  0  0  0  0  0
   10.5583  -11.5377  -11.3138 N   0  0  0  0  0  0  0  0  0  0  0  0
   15.1256  -10.1867  -10.6502 C   0  0  0  0  0  0  0  0  0  0  0  0
   15.4125  -10.3236   -9.4215 O   0  0  0  0  0  0  0  0  0  0  0  0
   20.3372   -5.8344  -14.4725 N   0  0  0  0  0  0  0  0  0  0  0  0
   21.0921   -6.0014  -13.2542 C   0  0  0  0  0  0  0  0  0  0  0  0
   21.4814   -4.9525  -12.6182 N   0  0  0  0  0  0  0  0  0  0  0  0
   21.4195   -7.2739  -12.7366 N   0  0  0  0  0  0  0  0  0  0  0  0
   20.4808   -8.3776  -12.6824 C   0  0  0  0  0  0  0  0  0  0  0  0
   19.3278   -7.9430  -11.8005 C   0  0  0  0  0  0  0  0  0  0  0  0
   18.3761   -9.1258  -11.7315 C   0  0  0  0  0  0  0  0  0  0  0  0
   17.2319   -8.8005  -10.8202 C   0  0  2  0  0  0  0  0  0  0  0  0
   16.0280   -9.4116  -11.4088 N   0  0  0  0  0  0  0  0  0  0  0  0
   17.0665   -7.3119  -10.8639 C   0  0  0  0  0  0  0  0  0  0  0  0
   16.9354   -6.7469  -11.9764 O   0  0  0  0  0  0  0  0  0  0  0  0
   21.9991   -5.0332  -11.7352 O   0  0  0  0  0  0  0  0  0  0  0  0
   15.2327   -5.4030   -8.2138 C   0  0  0  0  0  0  0  0  0  0  0  0
   15.5287   -4.7170   -9.3905 C   0  0  1  0  0  0  0  0  0  0  0  0
   16.9386   -5.1005   -9.7934 N   0  0  0  0  0  0  0  0  0  0  0  0
   17.0555   -6.5335   -9.6818 C   0  0  0  0  0  0  0  0  0  0  0  0
   17.9455   -4.4794   -8.8955 O   0  0  0  0  0  0  0  0  0  0  0  0
   18.0357   -3.0909   -8.8062 O   0  0  0  0  0  0  0  0  0  0  0  0
  2  9  1  0
  2  1  1  1
  3  2  1  0
  4  3  1  0
  5  4  2  0
  6  7  1  0
  6  5  1  0
  7  8  2  0
  8  4  1  0
  9 10  2  0
 12 14  1  0
 12 11  1  0
 13 12  2  0
 15 14  1  0
 16 15  1  0
 17 16  1  0
 18 17  1  6
 19  9  1  0
 19 18  1  0
 20 25  1  0
 20 18  1  0
 21 20  2  0
 23 22  1  0
 24 23  1  6
 24 25  1  0
 26 24  1  0
 26 27  1  0
 28 26  2  0
M  END
$$$$
