HRS.pdb
     RDKit          3D

 28 28  0  0  1  0  0  0  0  0999 V2000
   26.7598  -21.3707  -16.7094 N   0  0  0  0  0  0  0  0  0  0  0  0
   26.3404  -20.4090  -15.7397 C   0  0  1  0  0  0  0  0  0  0  0  0
   25.8558  -19.1552  -16.3720 C   0  0  0  0  0  0  0  0  0  0  0  0
   26.9972  -18.4469  -17.0050 C   0  0  0  0  0  0  0  0  0  0  0  0
   28.3397  -18.6427  -16.7059 C   0  0  0  0  0  0  0  0  0  0  0  0
   29.0566  -17.8304  -17.4736 N   0  0  0  0  0  0  0  0  0  0  0  0
   28.2397  -17.1214  -18.2522 C   0  0  0  0  0  0  0  0  0  0  0  0
   26.9832  -17.4995  -17.9645 N   0  0  0  0  0  0  0  0  0  0  0  0
   25.4278  -20.9952  -14.7491 C   0  0  0  0  0  0  0  0  0  0  0  0
   24.5858  -21.8995  -15.0387 O   0  0  0  0  0  0  0  0  0  0  0  0
   30.0954  -21.9967   -9.4800 N   0  0  0  0  0  0  0  0  0  0  0  0
   29.5930  -21.1181  -10.5084 C   0  0  0  0  0  0  0  0  0  0  0  0
   30.3884  -20.7483  -11.4501 N   0  0  0  0  0  0  0  0  0  0  0  0
   28.2609  -20.6493  -10.5171 N   0  0  0  0  0  0  0  0  0  0  0  0
   27.1727  -21.3284   -9.8411 C   0  0  0  0  0  0  0  0  0  0  0  0
   26.2655  -21.8988  -10.9123 C   0  0  0  0  0  0  0  0  0  0  0  0
   25.1149  -20.9173  -11.0617 C   0  0  0  0  0  0  0  0  0  0  0  0
   24.4794  -21.0857  -12.4083 C   0  0  2  0  0  0  0  0  0  0  0  0
   25.4392  -20.5755  -13.4022 N   0  0  0  0  0  0  0  0  0  0  0  0
   23.2762  -20.1927  -12.4226 C   0  0  0  0  0  0  0  0  0  0  0  0
   23.4336  -18.9632  -12.6163 O   0  0  0  0  0  0  0  0  0  0  0  0
   30.0734  -20.1019  -12.1830 O   0  0  0  0  0  0  0  0  0  0  0  0
   20.4267  -19.4202  -15.2051 C   0  0  0  0  0  0  0  0  0  0  0  0
   21.4635  -19.9336  -14.4277 C   0  0  2  0  0  0  0  0  0  0  0  0
   20.8975  -20.2146  -13.0501 N   0  0  0  0  0  0  0  0  0  0  0  0
   21.9720  -20.7050  -12.2228 C   0  0  0  0  0  0  0  0  0  0  0  0
   19.8379  -21.2540  -13.1024 O   0  0  0  0  0  0  0  0  0  0  0  0
   18.4948  -20.8804  -13.0742 O   0  0  0  0  0  0  0  0  0  0  0  0
  2  9  1  0
  2  1  1  6
  3  2  1  0
  4  3  1  0
  5  4  2  0
  6  7  1  0
  6  5  1  0
  7  8  2  0
  8  4  1  0
  9 10  2  0
 12 14  1  0
 12 11  1  0
 13 12  2  0
 15 14  1  0
 16 15  1  0
 17 16  1  0
 18 17  1  1
 19  9  1  0
 19 18  1  0
 20 25  1  0
 20 18  1  0
 21 20  2  0
 23 22  1  0
 24 23  1  1
 24 25  1  0
 26 24  1  0
 26 27  1  0
 28 26  2  0
M  END
$$$$
