HRS.pdb
     RDKit          3D

 28 28  0  0  1  0  0  0  0  0999 V2000
   27.8233  -19.3122  -18.2307 N   0  0  0  0  0  0  0  0  0  0  0  0
   26.9114  -18.6462  -17.3554 C   0  0  1  0  0  0  0  0  0  0  0  0
   26.3208  -17.4359  -17.9823 C   0  0  0  0  0  0  0  0  0  0  0  0
   27.3967  -16.4552  -18.2752 C   0  0  0  0  0  0  0  0  0  0  0  0
   28.2950  -15.9368  -17.3510 C   0  0  0  0  0  0  0  0  0  0  0  0
   29.1004  -15.0934  -17.9860 N   0  0  0  0  0  0  0  0  0  0  0  0
   28.7630  -15.0444  -19.2745 C   0  0  0  0  0  0  0  0  0  0  0  0
   27.7230  -15.8765  -19.4487 N   0  0  0  0  0  0  0  0  0  0  0  0
   25.9378  -19.5778  -16.7704 C   0  0  0  0  0  0  0  0  0  0  0  0
   25.2230  -20.3572  -17.4719 O   0  0  0  0  0  0  0  0  0  0  0  0
   26.7331  -20.4510   -8.8868 N   0  0  0  0  0  0  0  0  0  0  0  0
   25.5878  -20.7183   -9.7226 C   0  0  0  0  0  0  0  0  0  0  0  0
   24.4103  -20.5952   -9.2178 N   0  0  0  0  0  0  0  0  0  0  0  0
   25.7133  -21.1110  -11.0734 N   0  0  0  0  0  0  0  0  0  0  0  0
   26.9702  -21.0899  -11.7958 C   0  0  0  0  0  0  0  0  0  0  0  0
   26.6414  -20.9011  -13.2627 C   0  0  0  0  0  0  0  0  0  0  0  0
   25.1314  -20.7496  -13.3438 C   0  0  0  0  0  0  0  0  0  0  0  0
   24.7222  -20.5259  -14.7679 C   0  0  2  0  0  0  0  0  0  0  0  0
   25.7426  -19.6546  -15.3752 N   0  0  0  0  0  0  0  0  0  0  0  0
   23.4305  -19.7678  -14.7225 C   0  0  0  0  0  0  0  0  0  0  0  0
   23.4121  -18.6285  -14.1974 O   0  0  0  0  0  0  0  0  0  0  0  0
   23.5726  -20.7761   -9.7832 O   0  0  0  0  0  0  0  0  0  0  0  0
   20.3074  -20.8999  -16.9207 C   0  0  0  0  0  0  0  0  0  0  0  0
   20.3231  -19.5747  -16.4889 C   0  0  1  0  0  0  0  0  0  0  0  0
   21.0162  -19.5479  -15.1413 N   0  0  0  0  0  0  0  0  0  0  0  0
   22.2363  -20.3079  -15.2570 C   0  0  0  0  0  0  0  0  0  0  0  0
   20.1759  -20.1731  -14.0883 O   0  0  0  0  0  0  0  0  0  0  0  0
   18.9560  -19.5959  -13.7378 O   0  0  0  0  0  0  0  0  0  0  0  0
  2  9  1  0
  2  1  1  6
  3  2  1  0
  4  3  1  0
  5  4  2  0
  6  7  1  0
  6  5  1  0
  7  8  2  0
  8  4  1  0
  9 10  2  0
 12 14  1  0
 12 11  1  0
 13 12  2  0
 15 14  1  0
 16 15  1  0
 17 16  1  0
 18 17  1  1
 19  9  1  0
 19 18  1  0
 20 25  1  0
 20 18  1  0
 21 20  2  0
 23 22  1  0
 24 23  1  6
 24 25  1  0
 26 24  1  0
 26 27  1  0
 28 26  2  0
M  END
$$$$
