SAP.pdb
     RDKit          3D

 19 19  0  0  1  0  0  0  0  0999 V2000
   18.8246  -10.8848  -19.3151 O   0  0  0  0  0  0  0  0  0  0  0  0
   18.5349  -10.0227  -18.2666 C   0  0  0  0  0  0  0  0  0  0  0  0
   19.0805  -10.4985  -16.9529 C   0  0  2  0  0  0  0  0  0  0  0  0
   18.3108  -11.5977  -16.4631 N   0  0  0  0  0  0  0  0  0  0  0  0
   19.1381   -9.3703  -15.9649 C   0  0  0  0  0  0  0  0  0  0  0  0
   18.0971   -8.7559  -15.6208 O   0  0  0  0  0  0  0  0  0  0  0  0
   21.6007   -8.1306  -13.4436 C   0  0  0  0  0  0  0  0  0  0  0  0
   20.5026   -7.8736  -14.4622 C   0  0  2  0  0  0  0  0  0  0  0  0
   20.3679   -8.9644  -15.3906 N   0  0  0  0  0  0  0  0  0  0  0  0
   20.6386   -6.5726  -15.1167 C   0  0  0  0  0  0  0  0  0  0  0  0
   21.4089   -6.4238  -16.0815 O   0  0  0  0  0  0  0  0  0  0  0  0
   19.8876   -5.4214  -14.6685 N   0  0  0  0  0  0  0  0  0  0  0  0
   18.8028   -5.4922  -13.7157 C   0  0  0  0  0  0  0  0  0  0  0  0
   18.0638   -4.1760  -13.8175 C   0  0  0  0  0  0  0  0  0  0  0  0
   19.1608   -3.2229  -14.2502 C   0  0  0  0  0  0  0  0  0  0  0  0
   20.0771   -4.0665  -15.0809 C   0  0  1  0  0  0  0  0  0  0  0  0
   21.5023   -3.6311  -14.9341 C   0  0  0  0  0  0  0  0  0  0  0  0
   22.2267   -4.2675  -14.1561 O   0  0  0  0  0  0  0  0  0  0  0  0
   22.0230   -2.5553  -15.6327 O   0  0  0  0  0  0  0  0  0  0  0  0
  1  2  1  0
  3  2  1  0
  3  4  1  1
  5  6  2  0
  5  3  1  0
  8  7  1  6
  8  9  1  0
  9  5  1  0
 10  8  1  0
 10 12  1  0
 11 10  2  0
 12 16  1  0
 13 12  1  0
 13 14  1  0
 14 15  1  0
 16 15  1  0
 16 17  1  1
 17 19  1  0
 18 17  2  0
M  END
$$$$
