SAP.pdb
     RDKit          3D

 19 19  0  0  1  0  0  0  0  0999 V2000
   24.5167  -13.7559  -15.3001 O   0  0  0  0  0  0  0  0  0  0  0  0
   24.1558  -12.4502  -15.6027 C   0  0  0  0  0  0  0  0  0  0  0  0
   22.8695  -12.3638  -16.3694 C   0  0  2  0  0  0  0  0  0  0  0  0
   23.0113  -12.9797  -17.6505 N   0  0  0  0  0  0  0  0  0  0  0  0
   22.4153  -10.9377  -16.4804 C   0  0  0  0  0  0  0  0  0  0  0  0
   22.9779  -10.1376  -17.2698 O   0  0  0  0  0  0  0  0  0  0  0  0
   19.3649   -9.0445  -15.3366 C   0  0  0  0  0  0  0  0  0  0  0  0
   20.8120   -9.1157  -15.7951 C   0  0  2  0  0  0  0  0  0  0  0  0
   21.3389  -10.4510  -15.6986 N   0  0  0  0  0  0  0  0  0  0  0  0
   21.6561   -8.1142  -15.1440 C   0  0  0  0  0  0  0  0  0  0  0  0
   22.3074   -8.3982  -14.1236 O   0  0  0  0  0  0  0  0  0  0  0  0
   21.7626   -6.7678  -15.6601 N   0  0  0  0  0  0  0  0  0  0  0  0
   21.1884   -6.3423  -16.9166 C   0  0  0  0  0  0  0  0  0  0  0  0
   21.8399   -5.0189  -17.2527 C   0  0  0  0  0  0  0  0  0  0  0  0
   22.1594   -4.4591  -15.8802 C   0  0  0  0  0  0  0  0  0  0  0  0
   22.4353   -5.6688  -15.0426 C   0  0  1  0  0  0  0  0  0  0  0  0
   21.9913   -5.4649  -13.6271 C   0  0  0  0  0  0  0  0  0  0  0  0
   20.8382   -5.8034  -13.3258 O   0  0  0  0  0  0  0  0  0  0  0  0
   22.8208   -4.9182  -12.6629 O   0  0  0  0  0  0  0  0  0  0  0  0
  1  2  1  0
  3  2  1  0
  3  4  1  6
  5  6  2  0
  5  3  1  0
  8  7  1  1
  8  9  1  0
  9  5  1  0
 10  8  1  0
 10 12  1  0
 11 10  2  0
 12 16  1  0
 13 12  1  0
 13 14  1  0
 14 15  1  0
 16 15  1  0
 16 17  1  1
 17 19  1  0
 18 17  2  0
M  END
$$$$
