SAP.pdb
     RDKit          3D

 19 19  0  0  1  0  0  0  0  0999 V2000
   13.6623   -9.9572  -14.9149 O   0  0  0  0  0  0  0  0  0  0  0  0
   14.9784   -9.7187  -14.5440 C   0  0  0  0  0  0  0  0  0  0  0  0
   15.9650  -10.4978  -15.3621 C   0  0  2  0  0  0  0  0  0  0  0  0
   15.9630  -11.8712  -14.9691 N   0  0  0  0  0  0  0  0  0  0  0  0
   17.3328   -9.8883  -15.2620 C   0  0  0  0  0  0  0  0  0  0  0  0
   18.0310  -10.0286  -14.2264 O   0  0  0  0  0  0  0  0  0  0  0  0
   19.7354   -8.3116  -17.7008 C   0  0  0  0  0  0  0  0  0  0  0  0
   19.1759   -8.5175  -16.3030 C   0  0  2  0  0  0  0  0  0  0  0  0
   17.8775   -9.1365  -16.3320 N   0  0  0  0  0  0  0  0  0  0  0  0
   19.2149   -7.2966  -15.4983 C   0  0  0  0  0  0  0  0  0  0  0  0
   18.2235   -6.5493  -15.4287 O   0  0  0  0  0  0  0  0  0  0  0  0
   20.3991   -6.9179  -14.7604 N   0  0  0  0  0  0  0  0  0  0  0  0
   21.5684   -7.7582  -14.6335 C   0  0  0  0  0  0  0  0  0  0  0  0
   22.3870   -7.1759  -13.5022 C   0  0  0  0  0  0  0  0  0  0  0  0
   22.0225   -5.7054  -13.5643 C   0  0  0  0  0  0  0  0  0  0  0  0
   20.6064   -5.6956  -14.0499 C   0  0  1  0  0  0  0  0  0  0  0  0
   20.3313   -4.4978  -14.9053 C   0  0  0  0  0  0  0  0  0  0  0  0
   20.6241   -4.5629  -16.1074 O   0  0  0  0  0  0  0  0  0  0  0  0
   19.7680   -3.3396  -14.3974 O   0  0  0  0  0  0  0  0  0  0  0  0
  1  2  1  0
  3  2  1  0
  3  4  1  1
  5  6  2  0
  5  3  1  0
  8  7  1  6
  8  9  1  0
  9  5  1  0
 10  8  1  0
 10 12  1  0
 11 10  2  0
 12 16  1  0
 13 12  1  0
 13 14  1  0
 14 15  1  0
 16 15  1  0
 16 17  1  6
 17 19  1  0
 18 17  2  0
M  END
$$$$
