SAP.pdb
     RDKit          3D

 19 19  0  0  1  0  0  0  0  0999 V2000
   14.4283  -10.7176  -15.3171 O   0  0  0  0  0  0  0  0  0  0  0  0
   15.6530  -10.1671  -14.9656 C   0  0  0  0  0  0  0  0  0  0  0  0
   16.7890  -10.6991  -15.7881 C   0  0  2  0  0  0  0  0  0  0  0  0
   17.0970  -12.0398  -15.4031 N   0  0  0  0  0  0  0  0  0  0  0  0
   17.9842   -9.7975  -15.6841 C   0  0  0  0  0  0  0  0  0  0  0  0
   18.7041   -9.7913  -14.6539 O   0  0  0  0  0  0  0  0  0  0  0  0
   19.8252   -7.5540  -18.1250 C   0  0  0  0  0  0  0  0  0  0  0  0
   19.4956   -8.0742  -16.7357 C   0  0  2  0  0  0  0  0  0  0  0  0
   18.3366   -8.9265  -16.7443 N   0  0  0  0  0  0  0  0  0  0  0  0
   19.4176   -7.0047  -15.7408 C   0  0  0  0  0  0  0  0  0  0  0  0
   18.3323   -6.4563  -15.4809 O   0  0  0  0  0  0  0  0  0  0  0  0
   20.5912   -6.5504  -15.0291 N   0  0  0  0  0  0  0  0  0  0  0  0
   21.8661   -7.2307  -15.0671 C   0  0  0  0  0  0  0  0  0  0  0  0
   22.6792   -6.6697  -13.9213 C   0  0  0  0  0  0  0  0  0  0  0  0
   22.1226   -5.2655  -13.7882 C   0  0  0  0  0  0  0  0  0  0  0  0
   20.6868   -5.3972  -14.1909 C   0  0  1  0  0  0  0  0  0  0  0  0
   20.1984   -4.1616  -14.8816 C   0  0  0  0  0  0  0  0  0  0  0  0
   19.5752   -3.3282  -14.2092 O   0  0  0  0  0  0  0  0  0  0  0  0
   20.4214   -3.9295  -16.2281 O   0  0  0  0  0  0  0  0  0  0  0  0
  1  2  1  0
  3  2  1  0
  3  4  1  1
  5  6  2  0
  5  3  1  0
  8  7  1  6
  8  9  1  0
  9  5  1  0
 10  8  1  0
 10 12  1  0
 11 10  2  0
 12 16  1  0
 13 12  1  0
 13 14  1  0
 14 15  1  0
 16 15  1  0
 16 17  1  6
 17 19  1  0
 18 17  2  0
M  END
$$$$
