SAP.pdb
     RDKit          3D

 19 19  0  0  1  0  0  0  0  0999 V2000
   15.5592  -13.4567  -17.7401 O   0  0  0  0  0  0  0  0  0  0  0  0
   16.6312  -13.0514  -16.9571 C   0  0  0  0  0  0  0  0  0  0  0  0
   17.9580  -13.4385  -17.5397 C   0  0  2  0  0  0  0  0  0  0  0  0
   18.2293  -14.8180  -17.2867 N   0  0  0  0  0  0  0  0  0  0  0  0
   19.0458  -12.5479  -17.0146 C   0  0  0  0  0  0  0  0  0  0  0  0
   19.3964  -12.5947  -15.8085 O   0  0  0  0  0  0  0  0  0  0  0  0
   21.5081  -10.1317  -18.5931 C   0  0  0  0  0  0  0  0  0  0  0  0
   20.7420  -10.7270  -17.4236 C   0  0  2  0  0  0  0  0  0  0  0  0
   19.7099  -11.6280  -17.8628 N   0  0  0  0  0  0  0  0  0  0  0  0
   20.2595   -9.7074  -16.4924 C   0  0  0  0  0  0  0  0  0  0  0  0
   19.1307   -9.2041  -16.6299 O   0  0  0  0  0  0  0  0  0  0  0  0
   21.0719   -9.2515  -15.3868 N   0  0  0  0  0  0  0  0  0  0  0  0
   22.3245   -9.8640  -15.0053 C   0  0  0  0  0  0  0  0  0  0  0  0
   22.6400   -9.3522  -13.6170 C   0  0  0  0  0  0  0  0  0  0  0  0
   21.9722   -7.9909  -13.6157 C   0  0  0  0  0  0  0  0  0  0  0  0
   20.7830   -8.1616  -14.5090 C   0  0  1  0  0  0  0  0  0  0  0  0
   20.4806   -6.9026  -15.2612 C   0  0  0  0  0  0  0  0  0  0  0  0
   20.8893   -6.8102  -16.4271 O   0  0  0  0  0  0  0  0  0  0  0  0
   19.7684   -5.8573  -14.6982 O   0  0  0  0  0  0  0  0  0  0  0  0
  1  2  1  0
  3  2  1  0
  3  4  1  1
  5  6  2  0
  5  3  1  0
  8  7  1  6
  8  9  1  0
  9  5  1  0
 10  8  1  0
 10 12  1  0
 11 10  2  0
 12 16  1  0
 13 12  1  0
 13 14  1  0
 14 15  1  0
 16 15  1  0
 16 17  1  6
 17 19  1  0
 18 17  2  0
M  END
$$$$
