SAP.pdb
     RDKit          3D

 19 19  0  0  1  0  0  0  0  0999 V2000
   26.5914  -21.6879   -8.7851 O   0  0  0  0  0  0  0  0  0  0  0  0
   25.9555  -20.4633   -8.6349 C   0  0  0  0  0  0  0  0  0  0  0  0
   25.0376  -20.1391   -9.7760 C   0  0  2  0  0  0  0  0  0  0  0  0
   24.0282  -21.1419   -9.9031 N   0  0  0  0  0  0  0  0  0  0  0  0
   25.8161  -19.9633  -11.0469 C   0  0  0  0  0  0  0  0  0  0  0  0
   26.7005  -19.0760  -11.1481 O   0  0  0  0  0  0  0  0  0  0  0  0
   26.1927  -21.8593  -14.2892 C   0  0  0  0  0  0  0  0  0  0  0  0
   26.1643  -20.5816  -13.4669 C   0  0  2  0  0  0  0  0  0  0  0  0
   25.5773  -20.7924  -12.1705 N   0  0  0  0  0  0  0  0  0  0  0  0
   25.5695  -19.4604  -14.1939 C   0  0  0  0  0  0  0  0  0  0  0  0
   24.3395  -19.2777  -14.1847 O   0  0  0  0  0  0  0  0  0  0  0  0
   26.3845  -18.5310  -14.9437 N   0  0  0  0  0  0  0  0  0  0  0  0
   27.8299  -18.5292  -14.9176 C   0  0  0  0  0  0  0  0  0  0  0  0
   28.2618  -17.2038  -15.5055 C   0  0  0  0  0  0  0  0  0  0  0  0
   27.1232  -16.8859  -16.4551 C   0  0  0  0  0  0  0  0  0  0  0  0
   25.9182  -17.4883  -15.8023 C   0  0  1  0  0  0  0  0  0  0  0  0
   24.9430  -17.9952  -16.8193 C   0  0  0  0  0  0  0  0  0  0  0  0
   25.0776  -19.1586  -17.2235 O   0  0  0  0  0  0  0  0  0  0  0  0
   23.9127  -17.2121  -17.3111 O   0  0  0  0  0  0  0  0  0  0  0  0
  1  2  1  0
  3  2  1  0
  3  4  1  6
  5  6  2  0
  5  3  1  0
  8  7  1  6
  8  9  1  0
  9  5  1  0
 10  8  1  0
 10 12  1  0
 11 10  2  0
 12 16  1  0
 13 12  1  0
 13 14  1  0
 14 15  1  0
 16 15  1  0
 16 17  1  6
 17 19  1  0
 18 17  2  0
M  END
$$$$
