SAP.pdb
     RDKit          3D

 19 19  0  0  1  0  0  0  0  0999 V2000
   27.1438  -21.8576  -19.6492 O   0  0  0  0  0  0  0  0  0  0  0  0
   26.9369  -21.8103  -18.2775 C   0  0  0  0  0  0  0  0  0  0  0  0
   28.1659  -21.4106  -17.5160 C   0  0  2  0  0  0  0  0  0  0  0  0
   29.1516  -22.4422  -17.5851 N   0  0  0  0  0  0  0  0  0  0  0  0
   27.8188  -21.0612  -16.0984 C   0  0  0  0  0  0  0  0  0  0  0  0
   27.9121  -21.9132  -15.1791 O   0  0  0  0  0  0  0  0  0  0  0  0
   26.8240  -17.8611  -14.3072 C   0  0  0  0  0  0  0  0  0  0  0  0
   26.9836  -19.3675  -14.4269 C   0  0  2  0  0  0  0  0  0  0  0  0
   27.3755  -19.7605  -15.7542 N   0  0  0  0  0  0  0  0  0  0  0  0
   25.8162  -20.0960  -13.9308 C   0  0  0  0  0  0  0  0  0  0  0  0
   24.9062  -20.4411  -14.7049 O   0  0  0  0  0  0  0  0  0  0  0  0
   25.6796  -20.4383  -12.5329 N   0  0  0  0  0  0  0  0  0  0  0  0
   26.7308  -20.2603  -11.5567 C   0  0  0  0  0  0  0  0  0  0  0  0
   26.3274  -21.0750  -10.3474 C   0  0  0  0  0  0  0  0  0  0  0  0
   24.8136  -21.0504  -10.4324 C   0  0  0  0  0  0  0  0  0  0  0  0
   24.5266  -20.9977  -11.9008 C   0  0  1  0  0  0  0  0  0  0  0  0
   23.2906  -20.2024  -12.1868 C   0  0  0  0  0  0  0  0  0  0  0  0
   23.4290  -19.0424  -12.5994 O   0  0  0  0  0  0  0  0  0  0  0  0
   22.0194  -20.7199  -12.0058 O   0  0  0  0  0  0  0  0  0  0  0  0
  1  2  1  0
  3  2  1  0
  3  4  1  1
  5  6  2  0
  5  3  1  0
  8  7  1  6
  8  9  1  0
  9  5  1  0
 10  8  1  0
 10 12  1  0
 11 10  2  0
 12 16  1  0
 13 12  1  0
 13 14  1  0
 14 15  1  0
 16 15  1  0
 16 17  1  1
 17 19  1  0
 18 17  2  0
M  END
$$$$
