SAP.pdb
     RDKit          3D

 19 19  0  0  1  0  0  0  0  0999 V2000
   15.2438   -8.9350  -15.3762 O   0  0  0  0  0  0  0  0  0  0  0  0
   15.4293  -10.2700  -15.0446 C   0  0  0  0  0  0  0  0  0  0  0  0
   16.5902  -10.8930  -15.7616 C   0  0  2  0  0  0  0  0  0  0  0  0
   16.6863  -12.2816  -15.4406 N   0  0  0  0  0  0  0  0  0  0  0  0
   17.8602  -10.1566  -15.4505 C   0  0  0  0  0  0  0  0  0  0  0  0
   18.2717  -10.0442  -14.2682 O   0  0  0  0  0  0  0  0  0  0  0  0
   20.7157   -8.7968  -17.5184 C   0  0  0  0  0  0  0  0  0  0  0  0
   19.8686   -8.8629  -16.2585 C   0  0  2  0  0  0  0  0  0  0  0  0
   18.6333   -9.5661  -16.4804 N   0  0  0  0  0  0  0  0  0  0  0  0
   19.6822   -7.5510  -15.6391 C   0  0  0  0  0  0  0  0  0  0  0  0
   18.6720   -6.8693  -15.8859 O   0  0  0  0  0  0  0  0  0  0  0  0
   20.6589   -7.0040  -14.7241 N   0  0  0  0  0  0  0  0  0  0  0  0
   21.7448   -7.7711  -14.1567 C   0  0  0  0  0  0  0  0  0  0  0  0
   22.2754   -6.9585  -12.9961 C   0  0  0  0  0  0  0  0  0  0  0  0
   21.9671   -5.5384  -13.4292 C   0  0  0  0  0  0  0  0  0  0  0  0
   20.7121   -5.6621  -14.2360 C   0  0  1  0  0  0  0  0  0  0  0  0
   20.6778   -4.6604  -15.3484 C   0  0  0  0  0  0  0  0  0  0  0  0
   21.1870   -4.9784  -16.4322 O   0  0  0  0  0  0  0  0  0  0  0  0
   20.1020   -3.4101  -15.2007 O   0  0  0  0  0  0  0  0  0  0  0  0
  1  2  1  0
  3  2  1  0
  3  4  1  1
  5  6  2  0
  5  3  1  0
  8  7  1  6
  8  9  1  0
  9  5  1  0
 10  8  1  0
 10 12  1  0
 11 10  2  0
 12 16  1  0
 13 12  1  0
 13 14  1  0
 14 15  1  0
 16 15  1  0
 16 17  1  6
 17 19  1  0
 18 17  2  0
M  END
$$$$
