SAP.pdb
     RDKit          3D

 19 19  0  0  1  0  0  0  0  0999 V2000
   15.1915  -19.8292    2.4963 O   0  0  0  0  0  0  0  0  0  0  0  0
   14.7807  -18.5106    2.3583 C   0  0  0  0  0  0  0  0  0  0  0  0
   14.5188  -17.8407    3.6746 C   0  0  2  0  0  0  0  0  0  0  0  0
   14.0364  -16.5119    3.4695 N   0  0  0  0  0  0  0  0  0  0  0  0
   15.7494  -17.8638    4.5333 C   0  0  0  0  0  0  0  0  0  0  0  0
   16.6984  -17.0657    4.3281 O   0  0  0  0  0  0  0  0  0  0  0  0
   16.6500  -19.0096    7.9160 C   0  0  0  0  0  0  0  0  0  0  0  0
   17.0344  -18.8781    6.4516 C   0  0  2  0  0  0  0  0  0  0  0  0
   15.8779  -18.7861    5.6009 N   0  0  0  0  0  0  0  0  0  0  0  0
   17.9827  -19.9074    6.0265 C   0  0  0  0  0  0  0  0  0  0  0  0
   17.5989  -20.8961    5.3774 O   0  0  0  0  0  0  0  0  0  0  0  0
   19.3901  -19.8126    6.3436 N   0  0  0  0  0  0  0  0  0  0  0  0
   19.9931  -18.6652    6.9834 C   0  0  0  0  0  0  0  0  0  0  0  0
   21.4861  -18.8053    6.7833 C   0  0  0  0  0  0  0  0  0  0  0  0
   21.6612  -20.3095    6.7061 C   0  0  0  0  0  0  0  0  0  0  0  0
   20.3912  -20.7980    6.0818 C   0  0  1  0  0  0  0  0  0  0  0  0
   20.0045  -22.1434    6.6134 C   0  0  0  0  0  0  0  0  0  0  0  0
   20.4640  -23.1454    6.0477 O   0  0  0  0  0  0  0  0  0  0  0  0
   19.1620  -22.2948    7.7015 O   0  0  0  0  0  0  0  0  0  0  0  0
  1  2  1  0
  3  2  1  0
  3  4  1  6
  5  6  2  0
  5  3  1  0
  8  7  1  1
  8  9  1  0
  9  5  1  0
 10  8  1  0
 10 12  1  0
 11 10  2  0
 12 16  1  0
 13 12  1  0
 13 14  1  0
 14 15  1  0
 16 15  1  0
 16 17  1  1
 17 19  1  0
 18 17  2  0
M  END
$$$$
