SAP.pdb
     RDKit          3D

 19 19  0  0  1  0  0  0  0  0999 V2000
   27.2149  -23.5049  -18.6400 O   0  0  0  0  0  0  0  0  0  0  0  0
   27.1818  -23.2395  -17.2780 C   0  0  0  0  0  0  0  0  0  0  0  0
   28.2551  -22.2859  -16.8436 C   0  0  2  0  0  0  0  0  0  0  0  0
   29.5174  -22.9517  -16.7826 N   0  0  0  0  0  0  0  0  0  0  0  0
   27.8951  -21.6459  -15.5347 C   0  0  0  0  0  0  0  0  0  0  0  0
   28.2180  -22.1775  -14.4426 O   0  0  0  0  0  0  0  0  0  0  0  0
   26.5154  -18.2936  -14.4779 C   0  0  0  0  0  0  0  0  0  0  0  0
   26.7567  -19.7804  -14.2763 C   0  0  2  0  0  0  0  0  0  0  0  0
   27.1806  -20.4235  -15.4914 N   0  0  0  0  0  0  0  0  0  0  0  0
   25.6259  -20.4496  -13.6338 C   0  0  0  0  0  0  0  0  0  0  0  0
   24.7513  -21.0141  -14.3140 O   0  0  0  0  0  0  0  0  0  0  0  0
   25.4856  -20.4786  -12.1951 N   0  0  0  0  0  0  0  0  0  0  0  0
   26.5037  -20.0139  -11.2801 C   0  0  0  0  0  0  0  0  0  0  0  0
   26.1324  -20.5629   -9.9201 C   0  0  0  0  0  0  0  0  0  0  0  0
   24.6224  -20.6630  -10.0141 C   0  0  0  0  0  0  0  0  0  0  0  0
   24.3607  -20.9608  -11.4577 C   0  0  1  0  0  0  0  0  0  0  0  0
   23.0800  -20.3374  -11.9198 C   0  0  0  0  0  0  0  0  0  0  0  0
   23.1371  -19.2206  -12.4532 O   0  0  0  0  0  0  0  0  0  0  0  0
   21.8552  -20.9651  -11.7697 O   0  0  0  0  0  0  0  0  0  0  0  0
  1  2  1  0
  3  2  1  0
  3  4  1  1
  5  6  2  0
  5  3  1  0
  8  7  1  6
  8  9  1  0
  9  5  1  0
 10  8  1  0
 10 12  1  0
 11 10  2  0
 12 16  1  0
 13 12  1  0
 13 14  1  0
 14 15  1  0
 16 15  1  0
 16 17  1  6
 17 19  1  0
 18 17  2  0
M  END
$$$$
