SAP.pdb
     RDKit          3D

 19 19  0  0  1  0  0  0  0  0999 V2000
   26.6087  -21.6725  -19.7736 O   0  0  0  0  0  0  0  0  0  0  0  0
   26.6606  -21.9810  -18.4213 C   0  0  0  0  0  0  0  0  0  0  0  0
   27.9551  -21.5769  -17.7803 C   0  0  2  0  0  0  0  0  0  0  0  0
   28.9272  -22.6135  -17.9254 N   0  0  0  0  0  0  0  0  0  0  0  0
   27.7399  -21.2078  -16.3417 C   0  0  0  0  0  0  0  0  0  0  0  0
   28.0525  -21.9981  -15.4157 O   0  0  0  0  0  0  0  0  0  0  0  0
   26.7452  -18.0485  -14.5099 C   0  0  0  0  0  0  0  0  0  0  0  0
   26.9011  -19.5553  -14.6313 C   0  0  2  0  0  0  0  0  0  0  0  0
   27.1778  -19.9575  -15.9846 N   0  0  0  0  0  0  0  0  0  0  0  0
   25.7848  -20.2844  -14.0298 C   0  0  0  0  0  0  0  0  0  0  0  0
   24.8319  -20.6754  -14.7264 O   0  0  0  0  0  0  0  0  0  0  0  0
   25.7498  -20.5746  -12.6138 N   0  0  0  0  0  0  0  0  0  0  0  0
   26.8720  -20.3725  -11.7253 C   0  0  0  0  0  0  0  0  0  0  0  0
   26.5532  -21.1386  -10.4603 C   0  0  0  0  0  0  0  0  0  0  0  0
   25.0376  -21.1013  -10.4340 C   0  0  0  0  0  0  0  0  0  0  0  0
   24.6427  -21.0987  -11.8780 C   0  0  1  0  0  0  0  0  0  0  0  0
   23.3950  -20.3013  -12.1009 C   0  0  0  0  0  0  0  0  0  0  0  0
   23.5143  -19.1410  -12.5185 O   0  0  0  0  0  0  0  0  0  0  0  0
   22.1337  -20.8174  -11.8573 O   0  0  0  0  0  0  0  0  0  0  0  0
  1  2  1  0
  3  2  1  0
  3  4  1  1
  5  6  2  0
  5  3  1  0
  8  7  1  6
  8  9  1  0
  9  5  1  0
 10  8  1  0
 10 12  1  0
 11 10  2  0
 12 16  1  0
 13 12  1  0
 13 14  1  0
 14 15  1  0
 16 15  1  0
 16 17  1  1
 17 19  1  0
 18 17  2  0
M  END
$$$$
