SAP.pdb
     RDKit          3D

 19 19  0  0  1  0  0  0  0  0999 V2000
   18.3796  -19.8234  -15.1974 O   0  0  0  0  0  0  0  0  0  0  0  0
   19.7370  -19.9624  -14.9428 C   0  0  0  0  0  0  0  0  0  0  0  0
   20.0435  -21.1074  -14.0235 C   0  0  2  0  0  0  0  0  0  0  0  0
   19.2926  -20.9894  -12.8141 N   0  0  0  0  0  0  0  0  0  0  0  0
   21.5186  -21.1941  -13.7612 C   0  0  0  0  0  0  0  0  0  0  0  0
   22.0493  -20.5482  -12.8227 O   0  0  0  0  0  0  0  0  0  0  0  0
   24.3035  -23.4168  -15.0406 C   0  0  0  0  0  0  0  0  0  0  0  0
   23.7666  -22.1817  -14.3367 C   0  0  2  0  0  0  0  0  0  0  0  0
   22.3567  -22.0067  -14.5637 N   0  0  0  0  0  0  0  0  0  0  0  0
   24.5513  -20.9831  -14.6315 C   0  0  0  0  0  0  0  0  0  0  0  0
   24.1205  -20.1177  -15.4136 O   0  0  0  0  0  0  0  0  0  0  0  0
   25.8467  -20.7632  -14.0282 N   0  0  0  0  0  0  0  0  0  0  0  0
   26.4017  -21.6029  -12.9906 C   0  0  0  0  0  0  0  0  0  0  0  0
   27.5529  -20.8271  -12.3892 C   0  0  0  0  0  0  0  0  0  0  0  0
   28.0138  -19.9770  -13.5571 C   0  0  0  0  0  0  0  0  0  0  0  0
   26.7641  -19.7123  -14.3377 C   0  0  1  0  0  0  0  0  0  0  0  0
   27.0453  -19.6296  -15.8061 C   0  0  0  0  0  0  0  0  0  0  0  0
   26.9022  -20.6571  -16.4836 O   0  0  0  0  0  0  0  0  0  0  0  0
   27.4536  -18.4559  -16.4164 O   0  0  0  0  0  0  0  0  0  0  0  0
  1  2  1  0
  3  2  1  0
  3  4  1  1
  5  6  2  0
  5  3  1  0
  8  7  1  6
  8  9  1  0
  9  5  1  0
 10  8  1  0
 10 12  1  0
 11 10  2  0
 12 16  1  0
 13 12  1  0
 13 14  1  0
 14 15  1  0
 16 15  1  0
 16 17  1  6
 17 19  1  0
 18 17  2  0
M  END
$$$$
