SAP.pdb
     RDKit          3D

 19 19  0  0  1  0  0  0  0  0999 V2000
   27.0485   -9.0434  -17.8087 O   0  0  0  0  0  0  0  0  0  0  0  0
   25.9081   -8.2880  -17.5728 C   0  0  0  0  0  0  0  0  0  0  0  0
   24.6413   -9.0503  -17.8258 C   0  0  2  0  0  0  0  0  0  0  0  0
   24.5090   -9.3481  -19.2167 N   0  0  0  0  0  0  0  0  0  0  0  0
   23.4561   -8.2951  -17.2992 C   0  0  0  0  0  0  0  0  0  0  0  0
   22.9721   -7.3239  -17.9334 O   0  0  0  0  0  0  0  0  0  0  0  0
   21.1462   -8.7181  -14.3088 C   0  0  0  0  0  0  0  0  0  0  0  0
   21.7202   -7.9681  -15.4993 C   0  0  2  0  0  0  0  0  0  0  0  0
   22.8476   -8.6547  -16.0715 N   0  0  0  0  0  0  0  0  0  0  0  0
   21.9930   -6.5630  -15.1979 C   0  0  0  0  0  0  0  0  0  0  0  0
   23.0929   -6.2143  -14.7341 O   0  0  0  0  0  0  0  0  0  0  0  0
   21.0008   -5.5367  -15.4268 N   0  0  0  0  0  0  0  0  0  0  0  0
   19.7248   -5.7813  -16.0606 C   0  0  0  0  0  0  0  0  0  0  0  0
   19.1762   -4.4246  -16.4442 C   0  0  0  0  0  0  0  0  0  0  0  0
   19.7894   -3.5198  -15.3932 C   0  0  0  0  0  0  0  0  0  0  0  0
   21.1102   -4.1536  -15.0849 C   0  0  1  0  0  0  0  0  0  0  0  0
   21.4857   -3.9605  -13.6482 C   0  0  0  0  0  0  0  0  0  0  0  0
   21.2531   -4.8858  -12.8578 O   0  0  0  0  0  0  0  0  0  0  0  0
   22.0759   -2.7959  -13.1879 O   0  0  0  0  0  0  0  0  0  0  0  0
  1  2  1  0
  3  2  1  0
  3  4  1  6
  5  6  2  0
  5  3  1  0
  8  7  1  1
  8  9  1  0
  9  5  1  0
 10  8  1  0
 10 12  1  0
 11 10  2  0
 12 16  1  0
 13 12  1  0
 13 14  1  0
 14 15  1  0
 16 15  1  0
 16 17  1  1
 17 19  1  0
 18 17  2  0
M  END
$$$$
