SAP.pdb
     RDKit          3D

 19 19  0  0  1  0  0  0  0  0999 V2000
   14.7903   -8.3968  -14.3288 O   0  0  0  0  0  0  0  0  0  0  0  0
   14.8703   -8.9517  -15.5985 C   0  0  0  0  0  0  0  0  0  0  0  0
   15.8943  -10.0437  -15.6940 C   0  0  2  0  0  0  0  0  0  0  0  0
   15.5152  -11.1540  -14.8790 N   0  0  0  0  0  0  0  0  0  0  0  0
   17.2558   -9.5242  -15.3354 C   0  0  0  0  0  0  0  0  0  0  0  0
   17.6394   -9.4822  -14.1393 O   0  0  0  0  0  0  0  0  0  0  0  0
   20.3360   -8.5545  -17.3157 C   0  0  0  0  0  0  0  0  0  0  0  0
   19.4715   -8.5666  -16.0660 C   0  0  2  0  0  0  0  0  0  0  0  0
   18.1492   -9.0658  -16.3347 N   0  0  0  0  0  0  0  0  0  0  0  0
   19.4718   -7.2791  -15.3719 C   0  0  0  0  0  0  0  0  0  0  0  0
   18.5526   -6.4607  -15.5499 O   0  0  0  0  0  0  0  0  0  0  0  0
   20.5333   -6.9145  -14.4605 N   0  0  0  0  0  0  0  0  0  0  0  0
   21.5556   -7.8324  -14.0111 C   0  0  0  0  0  0  0  0  0  0  0  0
   22.2102   -7.1824  -12.8120 C   0  0  0  0  0  0  0  0  0  0  0  0
   22.0328   -5.7061  -13.1087 C   0  0  0  0  0  0  0  0  0  0  0  0
   20.7421   -5.6331  -13.8637 C   0  0  1  0  0  0  0  0  0  0  0  0
   20.7685   -4.5381  -14.8847 C   0  0  0  0  0  0  0  0  0  0  0  0
   21.1057   -4.8299  -16.0406 O   0  0  0  0  0  0  0  0  0  0  0  0
   20.4318   -3.2311  -14.5767 O   0  0  0  0  0  0  0  0  0  0  0  0
  1  2  1  0
  3  2  1  0
  3  4  1  1
  5  6  2  0
  5  3  1  0
  8  7  1  6
  8  9  1  0
  9  5  1  0
 10  8  1  0
 10 12  1  0
 11 10  2  0
 12 16  1  0
 13 12  1  0
 13 14  1  0
 14 15  1  0
 16 15  1  0
 16 17  1  6
 17 19  1  0
 18 17  2  0
M  END
$$$$
