DVT.pdb
     RDKit          3D

 23 22  0  0  1  0  0  0  0  0999 V2000
   18.4532  -12.1390  -16.7853 N   0  0  0  0  0  0  0  0  0  0  0  0
   18.9955  -10.8708  -17.2049 C   0  0  1  0  0  0  0  0  0  0  0  0
   17.8495  -10.0614  -17.7856 C   0  0  0  0  0  0  0  0  0  0  0  0
   17.5148  -10.6592  -19.0933 C   0  0  0  0  0  0  0  0  0  0  0  0
   18.3942  -10.9834  -19.9197 O   0  0  0  0  0  0  0  0  0  0  0  0
   19.6584  -10.1596  -16.0873 C   0  0  0  0  0  0  0  0  0  0  0  0
   19.0598  -10.1834  -14.9635 O   0  0  0  0  0  0  0  0  0  0  0  0
   16.1905  -10.8757  -19.4348 O   0  0  0  0  0  0  0  0  0  0  0  0
   23.7384   -9.5341  -16.0358 C   0  0  0  0  0  0  0  0  0  0  0  0
   22.8581   -9.6556  -14.8303 C   0  0  2  0  0  0  0  0  0  0  0  0
   22.6041  -11.1191  -14.5373 C   0  0  0  0  0  0  0  0  0  0  0  0
   21.5316   -8.9244  -15.0647 C   0  0  2  0  0  0  0  0  0  0  0  0
   20.8962   -9.4834  -16.2513 N   0  0  0  0  0  0  0  0  0  0  0  0
   21.8247   -7.4810  -15.1953 C   0  0  0  0  0  0  0  0  0  0  0  0
   22.5120   -7.0837  -16.1721 O   0  0  0  0  0  0  0  0  0  0  0  0
   19.7833   -4.7852  -15.9866 C   0  0  0  0  0  0  0  0  0  0  0  0
   20.4345   -4.3215  -14.6976 C   0  0  1  0  0  0  0  0  0  0  0  0
   19.5993   -4.6758  -13.6430 O   0  0  0  0  0  0  0  0  0  0  0  0
   21.7225   -5.1261  -14.4884 C   0  0  2  0  0  0  0  0  0  0  0  0
   21.3491   -6.5188  -14.2476 N   0  0  0  0  0  0  0  0  0  0  0  0
   22.5177   -4.6396  -13.3703 C   0  0  0  0  0  0  0  0  0  0  0  0
   22.7389   -5.3573  -12.3491 O   0  0  0  0  0  0  0  0  0  0  0  0
   23.0865   -3.3740  -13.3321 O   0  0  0  0  0  0  0  0  0  0  0  0
  2  1  1  1
  2  3  1  0
  3  4  1  0
  4  8  1  0
  5  4  2  0
  6  2  1  0
  6 13  1  0
  7  6  2  0
 10  9  1  6
 10 12  1  0
 11 10  1  0
 12 13  1  6
 12 14  1  0
 14 15  2  0
 17 16  1  6
 17 19  1  0
 17 18  1  0
 19 21  1  0
 20 14  1  0
 19 20  1  1
 21 23  1  0
 22 21  2  0
M  END
$$$$
