DVT.pdb
     RDKit          3D

 23 22  0  0  1  0  0  0  0  0999 V2000
   28.0140  -21.1167  -17.0660 N   0  0  0  0  0  0  0  0  0  0  0  0
   27.4255  -20.1312  -16.1936 C   0  0  1  0  0  0  0  0  0  0  0  0
   26.6851  -19.1377  -17.0714 C   0  0  0  0  0  0  0  0  0  0  0  0
   27.7042  -18.2956  -17.7285 C   0  0  0  0  0  0  0  0  0  0  0  0
   27.8100  -17.0736  -17.4901 O   0  0  0  0  0  0  0  0  0  0  0  0
   26.5295  -20.7507  -15.1898 C   0  0  0  0  0  0  0  0  0  0  0  0
   26.0529  -21.8949  -15.4824 O   0  0  0  0  0  0  0  0  0  0  0  0
   28.5802  -18.8579  -18.6416 O   0  0  0  0  0  0  0  0  0  0  0  0
   27.3642  -21.0459  -11.5376 C   0  0  0  0  0  0  0  0  0  0  0  0
   25.9332  -20.6090  -11.6030 C   0  0  2  0  0  0  0  0  0  0  0  0
   25.1215  -21.3886  -10.5903 C   0  0  0  0  0  0  0  0  0  0  0  0
   25.3739  -20.8295  -13.0129 C   0  0  2  0  0  0  0  0  0  0  0  0
   26.2123  -20.1096  -13.9632 N   0  0  0  0  0  0  0  0  0  0  0  0
   23.9687  -20.3694  -13.0220 C   0  0  0  0  0  0  0  0  0  0  0  0
   23.6971  -19.2286  -12.5649 O   0  0  0  0  0  0  0  0  0  0  0  0
   21.8840  -19.2983  -15.5369 C   0  0  0  0  0  0  0  0  0  0  0  0
   21.0602  -20.4007  -14.8992 C   0  0  1  0  0  0  0  0  0  0  0  0
   21.3393  -21.5876  -15.5691 O   0  0  0  0  0  0  0  0  0  0  0  0
   21.5603  -20.6120  -13.4656 C   0  0  2  0  0  0  0  0  0  0  0  0
   22.9060  -21.1789  -13.5372 N   0  0  0  0  0  0  0  0  0  0  0  0
   20.7035  -21.4998  -12.6930 C   0  0  0  0  0  0  0  0  0  0  0  0
   21.0862  -22.6568  -12.3442 O   0  0  0  0  0  0  0  0  0  0  0  0
   19.4217  -21.1580  -12.2843 O   0  0  0  0  0  0  0  0  0  0  0  0
  2  1  1  6
  2  3  1  0
  3  4  1  0
  4  8  1  0
  5  4  2  0
  6  2  1  0
  6 13  1  0
  7  6  2  0
 10  9  1  6
 10 12  1  0
 11 10  1  0
 12 13  1  6
 12 14  1  0
 14 15  2  0
 17 16  1  6
 17 19  1  0
 17 18  1  0
 19 21  1  0
 20 14  1  0
 19 20  1  6
 21 23  1  0
 22 21  2  0
M  END
$$$$
