DVT.pdb
     RDKit          3D

 23 22  0  0  1  0  0  0  0  0999 V2000
   17.4745  -12.1479  -16.2581 N   0  0  0  0  0  0  0  0  0  0  0  0
   18.0297  -10.9224  -16.7762 C   0  0  1  0  0  0  0  0  0  0  0  0
   16.8703   -9.9757  -17.0318 C   0  0  0  0  0  0  0  0  0  0  0  0
   16.1253  -10.5050  -18.1913 C   0  0  0  0  0  0  0  0  0  0  0  0
   14.9178  -10.8178  -18.1181 O   0  0  0  0  0  0  0  0  0  0  0  0
   19.0241  -10.3343  -15.8491 C   0  0  0  0  0  0  0  0  0  0  0  0
   18.6845  -10.2592  -14.6241 O   0  0  0  0  0  0  0  0  0  0  0  0
   16.7664  -10.6680  -19.4078 O   0  0  0  0  0  0  0  0  0  0  0  0
   22.3612  -11.6236  -15.3422 C   0  0  0  0  0  0  0  0  0  0  0  0
   22.5658  -10.1470  -15.4857 C   0  0  2  0  0  0  0  0  0  0  0  0
   23.5823   -9.6777  -14.4666 C   0  0  0  0  0  0  0  0  0  0  0  0
   21.2389   -9.4050  -15.2908 C   0  0  2  0  0  0  0  0  0  0  0  0
   20.2919   -9.8750  -16.2941 N   0  0  0  0  0  0  0  0  0  0  0  0
   21.5097   -7.9547  -15.3904 C   0  0  0  0  0  0  0  0  0  0  0  0
   22.1373   -7.5184  -16.3904 O   0  0  0  0  0  0  0  0  0  0  0  0
   19.0712   -5.4934  -15.7509 C   0  0  0  0  0  0  0  0  0  0  0  0
   19.9303   -4.9117  -14.6445 C   0  0  1  0  0  0  0  0  0  0  0  0
   19.3565   -5.2615  -13.4264 O   0  0  0  0  0  0  0  0  0  0  0  0
   21.2940   -5.6113  -14.6710 C   0  0  2  0  0  0  0  0  0  0  0  0
   21.0782   -7.0290  -14.3870 N   0  0  0  0  0  0  0  0  0  0  0  0
   22.2302   -5.0621  -13.7009 C   0  0  0  0  0  0  0  0  0  0  0  0
   22.6300   -5.7379  -12.7057 O   0  0  0  0  0  0  0  0  0  0  0  0
   22.7501   -3.7778  -13.7848 O   0  0  0  0  0  0  0  0  0  0  0  0
  2  1  1  1
  2  3  1  0
  3  4  1  0
  4  8  1  0
  5  4  2  0
  6  2  1  0
  6 13  1  0
  7  6  2  0
 10  9  1  1
 10 12  1  0
 11 10  1  0
 12 13  1  6
 12 14  1  0
 14 15  2  0
 17 16  1  6
 17 19  1  0
 17 18  1  0
 19 21  1  0
 20 14  1  0
 19 20  1  1
 21 23  1  0
 22 21  2  0
M  END
$$$$
