DVT.pdb
     RDKit          3D

 23 22  0  0  1  0  0  0  0  0999 V2000
   21.7844  -22.4031  -13.3863 N   0  0  0  0  0  0  0  0  0  0  0  0
   21.7087  -20.9879  -13.1219 C   0  0  1  0  0  0  0  0  0  0  0  0
   20.9354  -20.8127  -11.8269 C   0  0  0  0  0  0  0  0  0  0  0  0
   19.5216  -21.1198  -12.1207 C   0  0  0  0  0  0  0  0  0  0  0  0
   19.1388  -21.4588  -13.2608 O   0  0  0  0  0  0  0  0  0  0  0  0
   23.0529  -20.3702  -13.0461 C   0  0  0  0  0  0  0  0  0  0  0  0
   23.0970  -19.1450  -12.7017 O   0  0  0  0  0  0  0  0  0  0  0  0
   18.5733  -21.0353  -11.1152 O   0  0  0  0  0  0  0  0  0  0  0  0
   26.0711  -21.4339  -11.1833 C   0  0  0  0  0  0  0  0  0  0  0  0
   26.5416  -21.1849  -12.5831 C   0  0  2  0  0  0  0  0  0  0  0  0
   27.8618  -20.4445  -12.5468 C   0  0  0  0  0  0  0  0  0  0  0  0
   25.4990  -20.3710  -13.3576 C   0  0  2  0  0  0  0  0  0  0  0  0
   24.2360  -21.0981  -13.3409 N   0  0  0  0  0  0  0  0  0  0  0  0
   26.0177  -20.1508  -14.7247 C   0  0  0  0  0  0  0  0  0  0  0  0
   26.3837  -21.1438  -15.4059 O   0  0  0  0  0  0  0  0  0  0  0  0
   24.2934  -18.9980  -17.5795 C   0  0  0  0  0  0  0  0  0  0  0  0
   25.5028  -18.0847  -17.5183 C   0  0  1  0  0  0  0  0  0  0  0  0
   25.1460  -16.9472  -16.8013 O   0  0  0  0  0  0  0  0  0  0  0  0
   26.5879  -18.7726  -16.6820 C   0  0  2  0  0  0  0  0  0  0  0  0
   26.1144  -18.8436  -15.3008 N   0  0  0  0  0  0  0  0  0  0  0  0
   27.8617  -18.0689  -16.7197 C   0  0  0  0  0  0  0  0  0  0  0  0
   28.3158  -17.4601  -15.7048 O   0  0  0  0  0  0  0  0  0  0  0  0
   28.6666  -18.0079  -17.8490 O   0  0  0  0  0  0  0  0  0  0  0  0
  2  1  1  1
  2  3  1  0
  3  4  1  0
  4  8  1  0
  5  4  2  0
  6  2  1  0
  6 13  1  0
  7  6  2  0
 10  9  1  1
 10 12  1  0
 11 10  1  0
 12 13  1  6
 12 14  1  0
 14 15  2  0
 17 16  1  1
 17 19  1  0
 17 18  1  0
 19 21  1  0
 20 14  1  0
 19 20  1  1
 21 23  1  0
 22 21  2  0
M  END
$$$$
