DVT.pdb
     RDKit          3D

 23 22  0  0  1  0  0  0  0  0999 V2000
   17.6585  -11.6871  -17.2306 N   0  0  0  0  0  0  0  0  0  0  0  0
   18.6700  -10.7582  -17.6696 C   0  0  1  0  0  0  0  0  0  0  0  0
   17.9611   -9.6372  -18.4091 C   0  0  0  0  0  0  0  0  0  0  0  0
   17.3964  -10.2200  -19.6424 C   0  0  0  0  0  0  0  0  0  0  0  0
   18.0336  -11.0340  -20.3443 O   0  0  0  0  0  0  0  0  0  0  0  0
   19.4743  -10.2453  -16.5365 C   0  0  0  0  0  0  0  0  0  0  0  0
   18.8529  -10.0439  -15.4433 O   0  0  0  0  0  0  0  0  0  0  0  0
   16.1220   -9.8662  -20.0524 O   0  0  0  0  0  0  0  0  0  0  0  0
   22.6112  -11.8126  -15.2583 C   0  0  0  0  0  0  0  0  0  0  0  0
   22.8945  -10.3461  -15.3676 C   0  0  2  0  0  0  0  0  0  0  0  0
   23.6917   -9.8956  -14.1620 C   0  0  0  0  0  0  0  0  0  0  0  0
   21.5838   -9.5570  -15.4609 C   0  0  2  0  0  0  0  0  0  0  0  0
   20.8659   -9.9880  -16.6538 N   0  0  0  0  0  0  0  0  0  0  0  0
   21.9202   -8.1172  -15.4809 C   0  0  0  0  0  0  0  0  0  0  0  0
   22.7983   -7.7067  -16.2837 O   0  0  0  0  0  0  0  0  0  0  0  0
   19.8242   -5.4798  -16.4757 C   0  0  0  0  0  0  0  0  0  0  0  0
   20.3454   -4.9976  -15.1354 C   0  0  1  0  0  0  0  0  0  0  0  0
   19.4290   -5.3726  -14.1583 O   0  0  0  0  0  0  0  0  0  0  0  0
   21.6302   -5.7676  -14.8094 C   0  0  2  0  0  0  0  0  0  0  0  0
   21.2765   -7.1731  -14.6181 N   0  0  0  0  0  0  0  0  0  0  0  0
   22.2989   -5.2717  -13.6152 C   0  0  0  0  0  0  0  0  0  0  0  0
   22.8517   -4.1313  -13.5872 O   0  0  0  0  0  0  0  0  0  0  0  0
   22.3847   -5.9943  -12.4331 O   0  0  0  0  0  0  0  0  0  0  0  0
  2  1  1  1
  2  3  1  0
  3  4  1  0
  4  8  1  0
  5  4  2  0
  6  2  1  0
  6 13  1  0
  7  6  2  0
 10  9  1  1
 10 12  1  0
 11 10  1  0
 12 13  1  6
 12 14  1  0
 14 15  2  0
 17 16  1  6
 17 19  1  0
 17 18  1  0
 19 21  1  0
 20 14  1  0
 19 20  1  1
 21 23  1  0
 22 21  2  0
M  END
$$$$
