DVT.pdb
     RDKit          3D

 23 22  0  0  1  0  0  0  0  0999 V2000
   23.9799   -5.8755  -18.0925 N   0  0  0  0  0  0  0  0  0  0  0  0
   22.8218   -5.8685  -17.2339 C   0  0  1  0  0  0  0  0  0  0  0  0
   21.7438   -5.0640  -17.9385 C   0  0  0  0  0  0  0  0  0  0  0  0
   22.1227   -3.6413  -17.8291 C   0  0  0  0  0  0  0  0  0  0  0  0
   22.2675   -3.0759  -16.7243 O   0  0  0  0  0  0  0  0  0  0  0  0
   22.3635   -7.2412  -16.9179 C   0  0  0  0  0  0  0  0  0  0  0  0
   22.5447   -8.1227  -17.8190 O   0  0  0  0  0  0  0  0  0  0  0  0
   22.3286   -2.8916  -18.9749 O   0  0  0  0  0  0  0  0  0  0  0  0
   23.5170   -9.4324  -14.3379 C   0  0  0  0  0  0  0  0  0  0  0  0
   22.0279   -9.4585  -14.1806 C   0  0  2  0  0  0  0  0  0  0  0  0
   21.5780  -10.8718  -13.8766 C   0  0  0  0  0  0  0  0  0  0  0  0
   21.3494   -8.9496  -15.4572 C   0  0  2  0  0  0  0  0  0  0  0  0
   21.7526   -7.5665  -15.6780 N   0  0  0  0  0  0  0  0  0  0  0  0
   19.8884   -9.1027  -15.2879 C   0  0  0  0  0  0  0  0  0  0  0  0
   19.3401   -8.6274  -14.2595 O   0  0  0  0  0  0  0  0  0  0  0  0
   17.0708   -8.3904  -17.9230 C   0  0  0  0  0  0  0  0  0  0  0  0
   16.9029   -9.7759  -17.3289 C   0  0  1  0  0  0  0  0  0  0  0  0
   17.5711  -10.6788  -18.1496 O   0  0  0  0  0  0  0  0  0  0  0  0
   17.6402   -9.8199  -15.9856 C   0  0  2  0  0  0  0  0  0  0  0  0
   19.0756   -9.7719  -16.2582 N   0  0  0  0  0  0  0  0  0  0  0  0
   17.3357  -11.0152  -15.2125 C   0  0  0  0  0  0  0  0  0  0  0  0
   18.1785  -11.9522  -15.0765 O   0  0  0  0  0  0  0  0  0  0  0  0
   16.1204  -11.2221  -14.5745 O   0  0  0  0  0  0  0  0  0  0  0  0
  2  1  1  6
  2  3  1  0
  3  4  1  0
  4  8  1  0
  5  4  2  0
  6  2  1  0
  6 13  1  0
  7  6  2  0
 10  9  1  6
 10 12  1  0
 11 10  1  0
 12 13  1  1
 12 14  1  0
 14 15  2  0
 17 16  1  6
 17 19  1  0
 17 18  1  0
 19 21  1  0
 20 14  1  0
 19 20  1  6
 21 23  1  0
 22 21  2  0
M  END
$$$$
