DVT.pdb
     RDKit          3D

 23 22  0  0  1  0  0  0  0  0999 V2000
   18.7555  -12.1958  -17.7071 N   0  0  0  0  0  0  0  0  0  0  0  0
   19.5147  -10.9850  -17.8975 C   0  0  1  0  0  0  0  0  0  0  0  0
   18.7258  -10.1043  -18.8502 C   0  0  0  0  0  0  0  0  0  0  0  0
   18.9598  -10.6208  -20.2133 C   0  0  0  0  0  0  0  0  0  0  0  0
   18.1009  -11.2902  -20.8262 O   0  0  0  0  0  0  0  0  0  0  0  0
   19.7861  -10.2987  -16.6132 C   0  0  0  0  0  0  0  0  0  0  0  0
   18.8094  -10.2044  -15.8015 O   0  0  0  0  0  0  0  0  0  0  0  0
   20.1626  -10.3671  -20.8507 O   0  0  0  0  0  0  0  0  0  0  0  0
   22.6457   -9.3558  -12.9160 C   0  0  0  0  0  0  0  0  0  0  0  0
   22.3655   -9.9673  -14.2540 C   0  0  2  0  0  0  0  0  0  0  0  0
   23.6303   -9.9602  -15.0861 C   0  0  0  0  0  0  0  0  0  0  0  0
   21.2552   -9.1913  -14.9712 C   0  0  2  0  0  0  0  0  0  0  0  0
   21.0650   -9.7697  -16.2955 N   0  0  0  0  0  0  0  0  0  0  0  0
   21.6519   -7.7676  -15.0171 C   0  0  0  0  0  0  0  0  0  0  0  0
   22.5860   -7.4187  -15.7851 O   0  0  0  0  0  0  0  0  0  0  0  0
   19.6393   -4.8686  -15.9548 C   0  0  0  0  0  0  0  0  0  0  0  0
   20.2508   -4.5040  -14.6155 C   0  0  1  0  0  0  0  0  0  0  0  0
   19.3428   -4.8508  -13.6202 O   0  0  0  0  0  0  0  0  0  0  0  0
   21.4751   -5.3966  -14.3825 C   0  0  2  0  0  0  0  0  0  0  0  0
   21.0052   -6.7711  -14.2178 N   0  0  0  0  0  0  0  0  0  0  0  0
   22.2445   -5.0061  -13.2100 C   0  0  0  0  0  0  0  0  0  0  0  0
   22.2825   -5.7276  -12.1685 O   0  0  0  0  0  0  0  0  0  0  0  0
   22.9841   -3.8335  -13.1386 O   0  0  0  0  0  0  0  0  0  0  0  0
  2  1  1  1
  2  3  1  0
  3  4  1  0
  4  8  1  0
  5  4  2  0
  6  2  1  0
  6 13  1  0
  7  6  2  0
 10  9  1  1
 10 12  1  0
 11 10  1  0
 12 13  1  6
 12 14  1  0
 14 15  2  0
 17 16  1  6
 17 19  1  0
 17 18  1  0
 19 21  1  0
 20 14  1  0
 19 20  1  1
 21 23  1  0
 22 21  2  0
M  END
$$$$
