DVT.pdb
     RDKit          3D

 23 22  0  0  1  0  0  0  0  0999 V2000
   20.7663  -14.2090  -18.4837 N   0  0  0  0  0  0  0  0  0  0  0  0
   21.2595  -12.8648  -18.6520 C   0  0  1  0  0  0  0  0  0  0  0  0
   20.5880  -12.2904  -19.8869 C   0  0  0  0  0  0  0  0  0  0  0  0
   21.2067  -12.9401  -21.0593 C   0  0  0  0  0  0  0  0  0  0  0  0
   20.8502  -14.0694  -21.4577 O   0  0  0  0  0  0  0  0  0  0  0  0
   21.0072  -12.0326  -17.4530 C   0  0  0  0  0  0  0  0  0  0  0  0
   19.9435  -12.2844  -16.7996 O   0  0  0  0  0  0  0  0  0  0  0  0
   22.2161  -12.2947  -21.7535 O   0  0  0  0  0  0  0  0  0  0  0  0
   23.1201  -11.5838  -14.4954 C   0  0  0  0  0  0  0  0  0  0  0  0
   22.7601  -10.1950  -14.9248 C   0  0  2  0  0  0  0  0  0  0  0  0
   22.4532   -9.3537  -13.7041 C   0  0  0  0  0  0  0  0  0  0  0  0
   21.5497  -10.2261  -15.8646 C   0  0  2  0  0  0  0  0  0  0  0  0
   21.8987  -11.0049  -17.0461 N   0  0  0  0  0  0  0  0  0  0  0  0
   21.1855   -8.8289  -16.1837 C   0  0  0  0  0  0  0  0  0  0  0  0
   22.0604   -8.0662  -16.6705 O   0  0  0  0  0  0  0  0  0  0  0  0
   17.2827   -7.1398  -15.6070 C   0  0  0  0  0  0  0  0  0  0  0  0
   18.1329   -6.8685  -16.8334 C   0  0  1  0  0  0  0  0  0  0  0  0
   17.9287   -5.5459  -17.2134 O   0  0  0  0  0  0  0  0  0  0  0  0
   19.6090   -6.9554  -16.4289 C   0  0  2  0  0  0  0  0  0  0  0  0
   19.8678   -8.3156  -15.9598 N   0  0  0  0  0  0  0  0  0  0  0  0
   19.9650   -6.0083  -15.3822 C   0  0  0  0  0  0  0  0  0  0  0  0
   20.0501   -6.3601  -14.1674 O   0  0  0  0  0  0  0  0  0  0  0  0
   20.2341   -4.6683  -15.6251 O   0  0  0  0  0  0  0  0  0  0  0  0
  2  1  1  1
  2  3  1  0
  3  4  1  0
  4  8  1  0
  5  4  2  0
  6  2  1  0
  6 13  1  0
  7  6  2  0
 10  9  1  1
 10 12  1  0
 11 10  1  0
 12 13  1  6
 12 14  1  0
 14 15  2  0
 17 16  1  1
 17 19  1  0
 17 18  1  0
 19 21  1  0
 20 14  1  0
 19 20  1  1
 21 23  1  0
 22 21  2  0
M  END
$$$$
