DVT.pdb
     RDKit          3D

 23 22  0  0  1  0  0  0  0  0999 V2000
   23.1501  -12.4916  -17.9498 N   0  0  0  0  0  0  0  0  0  0  0  0
   23.0561  -11.7115  -16.7410 C   0  0  1  0  0  0  0  0  0  0  0  0
   24.4443  -11.1722  -16.4443 C   0  0  0  0  0  0  0  0  0  0  0  0
   25.3067  -12.3331  -16.1479 C   0  0  0  0  0  0  0  0  0  0  0  0
   26.2974  -12.6214  -16.8526 O   0  0  0  0  0  0  0  0  0  0  0  0
   22.0595  -10.6228  -16.8655 C   0  0  0  0  0  0  0  0  0  0  0  0
   21.9547  -10.0761  -18.0109 O   0  0  0  0  0  0  0  0  0  0  0  0
   25.0263  -13.1413  -15.0591 O   0  0  0  0  0  0  0  0  0  0  0  0
   18.4695  -10.7271  -16.5566 C   0  0  0  0  0  0  0  0  0  0  0  0
   18.9009   -9.6430  -15.6178 C   0  0  2  0  0  0  0  0  0  0  0  0
   17.8991   -8.5087  -15.6636 C   0  0  0  0  0  0  0  0  0  0  0  0
   20.2955   -9.1337  -15.9986 C   0  0  2  0  0  0  0  0  0  0  0  0
   21.2590  -10.2032  -15.7703 N   0  0  0  0  0  0  0  0  0  0  0  0
   20.5747   -7.9262  -15.1921 C   0  0  0  0  0  0  0  0  0  0  0  0
   20.6377   -8.0302  -13.9393 O   0  0  0  0  0  0  0  0  0  0  0  0
   23.5554   -5.7942  -15.2617 C   0  0  0  0  0  0  0  0  0  0  0  0
   22.3761   -4.8558  -15.4333 C   0  0  1  0  0  0  0  0  0  0  0  0
   22.1474   -4.6986  -16.7965 O   0  0  0  0  0  0  0  0  0  0  0  0
   21.1228   -5.5470  -14.8845 C   0  0  2  0  0  0  0  0  0  0  0  0
   20.7792   -6.6416  -15.7905 N   0  0  0  0  0  0  0  0  0  0  0  0
   19.9864   -4.6451  -14.7648 C   0  0  0  0  0  0  0  0  0  0  0  0
   18.9857   -4.7293  -15.5385 O   0  0  0  0  0  0  0  0  0  0  0  0
   19.9084   -3.6382  -13.8125 O   0  0  0  0  0  0  0  0  0  0  0  0
  2  1  1  6
  2  3  1  0
  3  4  1  0
  4  8  1  0
  5  4  2  0
  6  2  1  0
  6 13  1  0
  7  6  2  0
 10  9  1  6
 10 12  1  0
 11 10  1  0
 12 13  1  1
 12 14  1  0
 14 15  2  0
 17 16  1  6
 17 19  1  0
 17 18  1  0
 19 21  1  0
 20 14  1  0
 19 20  1  6
 21 23  1  0
 22 21  2  0
M  END
$$$$
