DVT.pdb
     RDKit          3D

 23 22  0  0  1  0  0  0  0  0999 V2000
   17.1659  -14.3042  -17.5219 N   0  0  0  0  0  0  0  0  0  0  0  0
   16.8808  -13.1723  -16.6757 C   0  0  1  0  0  0  0  0  0  0  0  0
   17.2375  -13.5717  -15.2547 C   0  0  0  0  0  0  0  0  0  0  0  0
   16.1909  -14.5035  -14.7901 C   0  0  0  0  0  0  0  0  0  0  0  0
   14.9970  -14.3892  -15.1404 O   0  0  0  0  0  0  0  0  0  0  0  0
   17.6193  -11.9632  -17.1076 C   0  0  0  0  0  0  0  0  0  0  0  0
   18.7095  -12.1572  -17.7365 O   0  0  0  0  0  0  0  0  0  0  0  0
   16.5216  -15.5439  -13.9383 O   0  0  0  0  0  0  0  0  0  0  0  0
   16.5967   -9.2153  -19.3478 C   0  0  0  0  0  0  0  0  0  0  0  0
   17.0599   -8.5668  -18.0799 C   0  0  2  0  0  0  0  0  0  0  0  0
   17.8175   -7.2983  -18.4103 C   0  0  0  0  0  0  0  0  0  0  0  0
   17.9544   -9.5268  -17.2877 C   0  0  2  0  0  0  0  0  0  0  0  0
   17.1447  -10.6522  -16.8383 N   0  0  0  0  0  0  0  0  0  0  0  0
   18.5570   -8.7692  -16.1699 C   0  0  0  0  0  0  0  0  0  0  0  0
   17.8005   -8.2153  -15.3302 O   0  0  0  0  0  0  0  0  0  0  0  0
   21.7037   -9.8813  -14.0122 C   0  0  0  0  0  0  0  0  0  0  0  0
   21.8334   -8.4412  -14.4703 C   0  0  1  0  0  0  0  0  0  0  0  0
   22.5518   -8.4327  -15.6616 O   0  0  0  0  0  0  0  0  0  0  0  0
   20.4376   -7.9192  -14.8296 C   0  0  2  0  0  0  0  0  0  0  0  0
   19.9746   -8.6477  -16.0095 N   0  0  0  0  0  0  0  0  0  0  0  0
   20.4228   -6.4905  -15.1083 C   0  0  0  0  0  0  0  0  0  0  0  0
   20.2046   -6.0421  -16.2737 O   0  0  0  0  0  0  0  0  0  0  0  0
   20.6434   -5.5217  -14.1389 O   0  0  0  0  0  0  0  0  0  0  0  0
  2  1  1  6
  2  3  1  0
  3  4  1  0
  4  8  1  0
  5  4  2  0
  6  2  1  0
  6 13  1  0
  7  6  2  0
 10  9  1  6
 10 12  1  0
 11 10  1  0
 12 13  1  1
 12 14  1  0
 14 15  2  0
 17 16  1  6
 17 19  1  0
 17 18  1  0
 19 21  1  0
 20 14  1  0
 19 20  1  6
 21 23  1  0
 22 21  2  0
M  END
$$$$
