DVT.pdb
     RDKit          3D

 23 22  0  0  1  0  0  0  0  0999 V2000
   17.1765  -11.8579  -15.8861 N   0  0  0  0  0  0  0  0  0  0  0  0
   17.7155  -10.6223  -16.3974 C   0  0  1  0  0  0  0  0  0  0  0  0
   16.5538   -9.6583  -16.5615 C   0  0  0  0  0  0  0  0  0  0  0  0
   15.7402  -10.1475  -17.6921 C   0  0  0  0  0  0  0  0  0  0  0  0
   16.2559  -10.6570  -18.7098 O   0  0  0  0  0  0  0  0  0  0  0  0
   18.7647  -10.0710  -15.5090 C   0  0  0  0  0  0  0  0  0  0  0  0
   18.4812  -10.0012  -14.2695 O   0  0  0  0  0  0  0  0  0  0  0  0
   14.3599  -10.0478  -17.6434 O   0  0  0  0  0  0  0  0  0  0  0  0
   22.0493  -11.4546  -15.0186 C   0  0  0  0  0  0  0  0  0  0  0  0
   22.3053   -9.9979  -15.2542 C   0  0  2  0  0  0  0  0  0  0  0  0
   23.3878   -9.5175  -14.3110 C   0  0  0  0  0  0  0  0  0  0  0  0
   21.0200   -9.1908  -15.0403 C   0  0  2  0  0  0  0  0  0  0  0  0
   20.0236   -9.6397  -16.0047 N   0  0  0  0  0  0  0  0  0  0  0  0
   21.3538   -7.7574  -15.1833 C   0  0  0  0  0  0  0  0  0  0  0  0
   21.9690   -7.3737  -16.2122 O   0  0  0  0  0  0  0  0  0  0  0  0
   19.1042   -5.0519  -15.5096 C   0  0  0  0  0  0  0  0  0  0  0  0
   20.0372   -4.5770  -14.4120 C   0  0  1  0  0  0  0  0  0  0  0  0
   19.4605   -4.9011  -13.1883 O   0  0  0  0  0  0  0  0  0  0  0  0
   21.3299   -5.3976  -14.4860 C   0  0  2  0  0  0  0  0  0  0  0  0
   20.9969   -6.7899  -14.1901 N   0  0  0  0  0  0  0  0  0  0  0  0
   22.3468   -4.9359  -13.5522 C   0  0  0  0  0  0  0  0  0  0  0  0
   22.9174   -3.8126  -13.6917 O   0  0  0  0  0  0  0  0  0  0  0  0
   22.7668   -5.6750  -12.4548 O   0  0  0  0  0  0  0  0  0  0  0  0
  2  1  1  1
  2  3  1  0
  3  4  1  0
  4  8  1  0
  5  4  2  0
  6  2  1  0
  6 13  1  0
  7  6  2  0
 10  9  1  1
 10 12  1  0
 11 10  1  0
 12 13  1  6
 12 14  1  0
 14 15  2  0
 17 16  1  6
 17 19  1  0
 17 18  1  0
 19 21  1  0
 20 14  1  0
 19 20  1  1
 21 23  1  0
 22 21  2  0
M  END
$$$$
