DVT.pdb
     RDKit          3D

 23 22  0  0  1  0  0  0  0  0999 V2000
   18.7889  -12.7966  -17.4114 N   0  0  0  0  0  0  0  0  0  0  0  0
   19.2914  -11.4971  -17.7821 C   0  0  1  0  0  0  0  0  0  0  0  0
   18.1019  -10.6650  -18.2276 C   0  0  0  0  0  0  0  0  0  0  0  0
   17.6755  -11.1858  -19.5415 C   0  0  0  0  0  0  0  0  0  0  0  0
   16.6872  -11.9398  -19.6679 O   0  0  0  0  0  0  0  0  0  0  0  0
   20.0251  -10.8532  -16.6682 C   0  0  0  0  0  0  0  0  0  0  0  0
   19.4403  -10.8356  -15.5371 O   0  0  0  0  0  0  0  0  0  0  0  0
   18.3796  -10.8402  -20.6827 O   0  0  0  0  0  0  0  0  0  0  0  0
   23.3177  -11.7638  -15.3483 C   0  0  0  0  0  0  0  0  0  0  0  0
   23.3809  -10.2839  -15.5690 C   0  0  2  0  0  0  0  0  0  0  0  0
   24.1281   -9.6349  -14.4233 C   0  0  0  0  0  0  0  0  0  0  0  0
   21.9673   -9.7015  -15.6769 C   0  0  2  0  0  0  0  0  0  0  0  0
   21.3134  -10.2820  -16.8430 N   0  0  0  0  0  0  0  0  0  0  0  0
   22.0864   -8.2299  -15.7576 C   0  0  0  0  0  0  0  0  0  0  0  0
   22.7836   -7.7234  -16.6749 O   0  0  0  0  0  0  0  0  0  0  0  0
   19.6916   -5.7587  -16.5571 C   0  0  0  0  0  0  0  0  0  0  0  0
   20.2494   -5.2852  -15.2285 C   0  0  1  0  0  0  0  0  0  0  0  0
   19.4461   -5.8017  -14.2170 O   0  0  0  0  0  0  0  0  0  0  0  0
   21.6271   -5.9259  -15.0252 C   0  0  2  0  0  0  0  0  0  0  0  0
   21.4313   -7.3610  -14.8270 N   0  0  0  0  0  0  0  0  0  0  0  0
   22.3441   -5.3749  -13.8844 C   0  0  0  0  0  0  0  0  0  0  0  0
   22.5559   -6.0586  -12.8382 O   0  0  0  0  0  0  0  0  0  0  0  0
   22.8435   -4.0801  -13.8500 O   0  0  0  0  0  0  0  0  0  0  0  0
  2  1  1  1
  2  3  1  0
  3  4  1  0
  4  8  1  0
  5  4  2  0
  6  2  1  0
  6 13  1  0
  7  6  2  0
 10  9  1  1
 10 12  1  0
 11 10  1  0
 12 13  1  6
 12 14  1  0
 14 15  2  0
 17 16  1  6
 17 19  1  0
 17 18  1  0
 19 21  1  0
 20 14  1  0
 19 20  1  1
 21 23  1  0
 22 21  2  0
M  END
$$$$
