DVT.pdb
     RDKit          3D

 23 22  0  0  1  0  0  0  0  0999 V2000
   17.4611  -11.4159  -17.2530 N   0  0  0  0  0  0  0  0  0  0  0  0
   18.5263  -10.5481  -17.6900 C   0  0  1  0  0  0  0  0  0  0  0  0
   17.9009   -9.4686  -18.5556 C   0  0  0  0  0  0  0  0  0  0  0  0
   17.4401  -10.1206  -19.7973 C   0  0  0  0  0  0  0  0  0  0  0  0
   18.1252  -10.9823  -20.3885 O   0  0  0  0  0  0  0  0  0  0  0  0
   19.2702   -9.9718  -16.5461 C   0  0  0  0  0  0  0  0  0  0  0  0
   18.5928   -9.7151  -15.4987 O   0  0  0  0  0  0  0  0  0  0  0  0
   16.2130   -9.7806  -20.3413 O   0  0  0  0  0  0  0  0  0  0  0  0
   22.2275  -11.5414  -14.9981 C   0  0  0  0  0  0  0  0  0  0  0  0
   22.5898  -10.0990  -15.1745 C   0  0  2  0  0  0  0  0  0  0  0  0
   23.3392   -9.6145  -13.9515 C   0  0  0  0  0  0  0  0  0  0  0  0
   21.3278   -9.2564  -15.3907 C   0  0  2  0  0  0  0  0  0  0  0  0
   20.6655   -9.7148  -16.6053 N   0  0  0  0  0  0  0  0  0  0  0  0
   21.7350   -7.8365  -15.4585 C   0  0  0  0  0  0  0  0  0  0  0  0
   22.6546   -7.5025  -16.2502 O   0  0  0  0  0  0  0  0  0  0  0  0
   19.8379   -5.0286  -16.5636 C   0  0  0  0  0  0  0  0  0  0  0  0
   20.3592   -4.5934  -15.2073 C   0  0  1  0  0  0  0  0  0  0  0  0
   19.3946   -4.9077  -14.2555 O   0  0  0  0  0  0  0  0  0  0  0  0
   21.5772   -5.4556  -14.8568 C   0  0  2  0  0  0  0  0  0  0  0  0
   21.1144   -6.8274  -14.6543 N   0  0  0  0  0  0  0  0  0  0  0  0
   22.2681   -4.9981  -13.6599 C   0  0  0  0  0  0  0  0  0  0  0  0
   22.2648   -5.6767  -12.5893 O   0  0  0  0  0  0  0  0  0  0  0  0
   22.9724   -3.8036  -13.5950 O   0  0  0  0  0  0  0  0  0  0  0  0
  2  1  1  1
  2  3  1  0
  3  4  1  0
  4  8  1  0
  5  4  2  0
  6  2  1  0
  6 13  1  0
  7  6  2  0
 10  9  1  1
 10 12  1  0
 11 10  1  0
 12 13  1  6
 12 14  1  0
 14 15  2  0
 17 16  1  6
 17 19  1  0
 17 18  1  0
 19 21  1  0
 20 14  1  0
 19 20  1  1
 21 23  1  0
 22 21  2  0
M  END
$$$$
