VHV.pdb
     RDKit          3D

 25 25  0  0  1  0  0  0  0  0999 V2000
   27.6685  -19.3016   -7.4459 C   0  0  0  0  0  0  0  0  0  0  0  0
   27.2496  -19.6168   -8.8549 C   0  0  1  0  0  0  0  0  0  0  0  0
   27.9569  -20.8685   -9.3291 C   0  0  0  0  0  0  0  0  0  0  0  0
   25.7612  -19.8904   -8.9330 C   0  0  2  0  0  0  0  0  0  0  0  0
   25.5157  -21.2688   -8.4323 N   0  0  0  0  0  0  0  0  0  0  0  0
   25.2327  -19.8821  -10.3173 C   0  0  0  0  0  0  0  0  0  0  0  0
   25.2867  -18.7929  -10.9937 O   0  0  0  0  0  0  0  0  0  0  0  0
   24.6629  -20.9663  -10.9953 N   0  0  0  0  0  0  0  0  0  0  0  0
   24.2098  -20.8538  -12.4070 C   0  0  1  0  0  0  0  0  0  0  0  0
   24.9901  -21.8808  -13.1349 C   0  0  0  0  0  0  0  0  0  0  0  0
   26.2360  -21.4210  -13.7753 C   0  0  0  0  0  0  0  0  0  0  0  0
   26.6993  -20.1292  -13.9057 C   0  0  0  0  0  0  0  0  0  0  0  0
   27.8553  -20.2157  -14.5838 N   0  0  0  0  0  0  0  0  0  0  0  0
   28.0915  -21.4981  -14.8573 C   0  0  0  0  0  0  0  0  0  0  0  0
   27.1145  -22.2711  -14.3744 N   0  0  0  0  0  0  0  0  0  0  0  0
   22.7635  -20.8854  -12.4734 C   0  0  0  0  0  0  0  0  0  0  0  0
   22.1704  -21.7058  -11.6764 O   0  0  0  0  0  0  0  0  0  0  0  0
   20.2725  -17.8804  -12.7688 C   0  0  0  0  0  0  0  0  0  0  0  0
   19.8737  -18.9756  -13.7157 C   0  0  1  0  0  0  0  0  0  0  0  0
   20.2501  -18.7126  -15.1409 C   0  0  0  0  0  0  0  0  0  0  0  0
   20.4622  -20.3011  -13.2167 C   0  0  2  0  0  0  0  0  0  0  0  0
   21.8965  -20.1394  -13.2872 N   0  0  0  0  0  0  0  0  0  0  0  0
   20.0548  -21.4115  -14.0919 C   0  0  0  0  0  0  0  0  0  0  0  0
   18.8521  -22.1105  -13.8998 O   0  0  0  0  0  0  0  0  0  0  0  0
   20.7538  -21.7941  -15.0528 O   0  0  0  0  0  0  0  0  0  0  0  0
  2  4  1  0
  2  1  1  1
  3  2  1  0
  4  5  1  6
  6  7  2  0
  6  4  1  0
  8  6  1  0
  9  8  1  0
  9 10  1  6
 11 15  1  0
 11 10  1  0
 12 11  2  0
 13 12  1  0
 13 14  1  0
 14 15  2  0
 16 22  1  0
 16  9  1  0
 17 16  2  0
 19 21  1  0
 19 18  1  1
 20 19  1  0
 21 23  1  0
 21 22  1  6
 23 24  1  0
 25 23  2  0
M  END
$$$$
