VHV.pdb
     RDKit          3D

 25 25  0  0  1  0  0  0  0  0999 V2000
   17.7055  -13.5053  -18.0596 C   0  0  0  0  0  0  0  0  0  0  0  0
   16.7309  -12.9211  -17.0752 C   0  0  1  0  0  0  0  0  0  0  0  0
   15.8567  -14.0203  -16.5098 C   0  0  0  0  0  0  0  0  0  0  0  0
   17.4532  -12.2819  -15.9065 C   0  0  2  0  0  0  0  0  0  0  0  0
   16.4359  -11.8511  -14.9114 N   0  0  0  0  0  0  0  0  0  0  0  0
   18.1851  -11.0460  -16.2711 C   0  0  0  0  0  0  0  0  0  0  0  0
   19.1747  -11.1299  -17.0836 O   0  0  0  0  0  0  0  0  0  0  0  0
   17.9081   -9.7518  -15.8150 N   0  0  0  0  0  0  0  0  0  0  0  0
   18.6838   -8.5746  -16.2876 C   0  0  1  0  0  0  0  0  0  0  0  0
   17.6634   -7.6393  -16.8144 C   0  0  0  0  0  0  0  0  0  0  0  0
   17.1555   -7.9233  -18.1690 C   0  0  0  0  0  0  0  0  0  0  0  0
   15.8829   -8.3037  -18.5384 C   0  0  0  0  0  0  0  0  0  0  0  0
   15.9173   -8.4718  -19.8704 N   0  0  0  0  0  0  0  0  0  0  0  0
   17.1507   -8.2077  -20.2994 C   0  0  0  0  0  0  0  0  0  0  0  0
   17.9422   -7.8660  -19.2786 N   0  0  0  0  0  0  0  0  0  0  0  0
   19.5902   -8.1229  -15.2524 C   0  0  0  0  0  0  0  0  0  0  0  0
   19.0949   -8.0010  -14.0693 O   0  0  0  0  0  0  0  0  0  0  0  0
   22.4837   -9.7508  -13.9636 C   0  0  0  0  0  0  0  0  0  0  0  0
   22.9456   -8.3381  -14.1786 C   0  0  1  0  0  0  0  0  0  0  0  0
   23.7790   -8.1525  -15.4087 C   0  0  0  0  0  0  0  0  0  0  0  0
   21.7227   -7.4123  -14.1860 C   0  0  2  0  0  0  0  0  0  0  0  0
   20.9523   -7.7970  -15.3466 N   0  0  0  0  0  0  0  0  0  0  0  0
   22.1370   -6.0070  -14.3219 C   0  0  0  0  0  0  0  0  0  0  0  0
   22.5167   -5.2306  -13.2151 O   0  0  0  0  0  0  0  0  0  0  0  0
   22.1743   -5.4268  -15.4265 O   0  0  0  0  0  0  0  0  0  0  0  0
  2  4  1  0
  2  1  1  6
  3  2  1  0
  4  5  1  1
  6  7  2  0
  6  4  1  0
  8  6  1  0
  9  8  1  0
  9 10  1  1
 11 15  1  0
 11 10  1  0
 12 11  2  0
 13 12  1  0
 13 14  1  0
 14 15  2  0
 16 22  1  0
 16  9  1  0
 17 16  2  0
 19 21  1  0
 19 18  1  6
 20 19  1  0
 21 23  1  0
 21 22  1  6
 23 24  1  0
 25 23  2  0
M  END
$$$$
