VHV.pdb
     RDKit          3D

 25 25  0  0  1  0  0  0  0  0999 V2000
   23.9117  -32.3639  -12.9636 C   0  0  0  0  0  0  0  0  0  0  0  0
   23.8559  -32.8702  -14.3780 C   0  0  1  0  0  0  0  0  0  0  0  0
   24.9750  -33.8635  -14.6084 C   0  0  0  0  0  0  0  0  0  0  0  0
   22.5537  -33.5975  -14.6458 C   0  0  2  0  0  0  0  0  0  0  0  0
   22.4997  -33.9353  -16.0928 N   0  0  0  0  0  0  0  0  0  0  0  0
   21.3527  -32.7657  -14.3978 C   0  0  0  0  0  0  0  0  0  0  0  0
   20.9232  -32.0037  -15.3368 O   0  0  0  0  0  0  0  0  0  0  0  0
   20.6064  -32.7167  -13.2145 N   0  0  0  0  0  0  0  0  0  0  0  0
   19.3668  -31.9026  -13.1061 C   0  0  1  0  0  0  0  0  0  0  0  0
   18.2731  -32.8959  -13.0031 C   0  0  0  0  0  0  0  0  0  0  0  0
   16.9509  -32.4634  -13.4917 C   0  0  0  0  0  0  0  0  0  0  0  0
   16.1334  -31.4799  -12.9770 C   0  0  0  0  0  0  0  0  0  0  0  0
   15.0295  -31.4764  -13.7419 N   0  0  0  0  0  0  0  0  0  0  0  0
   15.1615  -32.4121  -14.6811 C   0  0  0  0  0  0  0  0  0  0  0  0
   16.3337  -33.0416  -14.5585 N   0  0  0  0  0  0  0  0  0  0  0  0
   19.5132  -30.9016  -12.0700 C   0  0  0  0  0  0  0  0  0  0  0  0
   20.0118  -31.3022  -10.9515 O   0  0  0  0  0  0  0  0  0  0  0  0
   18.3044  -26.9284  -12.3053 C   0  0  0  0  0  0  0  0  0  0  0  0
   19.5794  -27.2539  -11.5816 C   0  0  1  0  0  0  0  0  0  0  0  0
   19.9589  -26.2487  -10.5387 C   0  0  0  0  0  0  0  0  0  0  0  0
   19.4656  -28.6627  -10.9861 C   0  0  2  0  0  0  0  0  0  0  0  0
   19.1919  -29.5356  -12.1048 N   0  0  0  0  0  0  0  0  0  0  0  0
   18.3490  -28.7331  -10.0304 C   0  0  0  0  0  0  0  0  0  0  0  0
   18.5255  -28.4950   -8.6577 O   0  0  0  0  0  0  0  0  0  0  0  0
   17.1842  -29.0079  -10.3851 O   0  0  0  0  0  0  0  0  0  0  0  0
  2  4  1  0
  2  1  1  1
  3  2  1  0
  4  5  1  6
  6  7  2  0
  6  4  1  0
  8  6  1  0
  9  8  1  0
  9 10  1  1
 11 15  1  0
 11 10  1  0
 12 11  2  0
 13 12  1  0
 13 14  1  0
 14 15  2  0
 16 22  1  0
 16  9  1  0
 17 16  2  0
 19 21  1  0
 19 18  1  1
 20 19  1  0
 21 23  1  0
 21 22  1  6
 23 24  1  0
 25 23  2  0
M  END
$$$$
