VHV.pdb
     RDKit          3D

 25 25  0  0  1  0  0  0  0  0999 V2000
   19.6423  -16.0247  -16.2097 C   0  0  0  0  0  0  0  0  0  0  0  0
   20.4514  -17.0359  -15.4463 C   0  0  1  0  0  0  0  0  0  0  0  0
   20.3538  -16.7517  -13.9624 C   0  0  0  0  0  0  0  0  0  0  0  0
   19.9202  -18.4379  -15.6664 C   0  0  2  0  0  0  0  0  0  0  0  0
   18.5435  -18.5056  -15.1088 N   0  0  0  0  0  0  0  0  0  0  0  0
   20.6839  -19.4782  -14.9382 C   0  0  0  0  0  0  0  0  0  0  0  0
   20.2647  -19.8619  -13.7877 O   0  0  0  0  0  0  0  0  0  0  0  0
   21.8507  -20.1134  -15.3795 N   0  0  0  0  0  0  0  0  0  0  0  0
   22.4951  -21.1977  -14.5922 C   0  0  1  0  0  0  0  0  0  0  0  0
   22.4642  -22.3792  -15.4848 C   0  0  0  0  0  0  0  0  0  0  0  0
   23.1720  -23.5795  -15.0030 C   0  0  0  0  0  0  0  0  0  0  0  0
   23.8257  -23.7574  -13.8023 C   0  0  0  0  0  0  0  0  0  0  0  0
   24.3347  -24.9998  -13.8370 N   0  0  0  0  0  0  0  0  0  0  0  0
   24.0099  -25.5587  -15.0019 C   0  0  0  0  0  0  0  0  0  0  0  0
   23.2929  -24.7129  -15.7474 N   0  0  0  0  0  0  0  0  0  0  0  0
   23.7642  -20.7455  -14.0610 C   0  0  0  0  0  0  0  0  0  0  0  0
   24.4333  -19.9244  -14.7945 O   0  0  0  0  0  0  0  0  0  0  0  0
   24.6828  -20.4012  -10.2072 C   0  0  0  0  0  0  0  0  0  0  0  0
   25.8620  -20.8920  -10.9970 C   0  0  1  0  0  0  0  0  0  0  0  0
   26.1313  -22.3564  -10.8389 C   0  0  0  0  0  0  0  0  0  0  0  0
   25.6633  -20.5152  -12.4704 C   0  0  2  0  0  0  0  0  0  0  0  0
   24.3821  -21.0702  -12.8431 N   0  0  0  0  0  0  0  0  0  0  0  0
   26.7148  -21.1164  -13.3058 C   0  0  0  0  0  0  0  0  0  0  0  0
   27.9600  -20.4966  -13.4990 O   0  0  0  0  0  0  0  0  0  0  0  0
   26.5597  -22.2093  -13.8887 O   0  0  0  0  0  0  0  0  0  0  0  0
  2  4  1  0
  2  1  1  6
  3  2  1  0
  4  5  1  1
  6  7  2  0
  6  4  1  0
  8  6  1  0
  9  8  1  0
  9 10  1  6
 11 15  1  0
 11 10  1  0
 12 11  2  0
 13 12  1  0
 13 14  1  0
 14 15  2  0
 16 22  1  0
 16  9  1  0
 17 16  2  0
 19 21  1  0
 19 18  1  1
 20 19  1  0
 21 23  1  0
 21 22  1  6
 23 24  1  0
 25 23  2  0
M  END
$$$$
