VHV.pdb
     RDKit          3D

 25 25  0  0  1  0  0  0  0  0999 V2000
   30.1115  -30.3248  -25.2681 C   0  0  0  0  0  0  0  0  0  0  0  0
   30.0358  -30.3133  -23.7667 C   0  0  1  0  0  0  0  0  0  0  0  0
   31.4220  -30.1247  -23.1878 C   0  0  0  0  0  0  0  0  0  0  0  0
   29.1868  -29.1595  -23.2723 C   0  0  2  0  0  0  0  0  0  0  0  0
   29.8538  -27.8903  -23.6657 N   0  0  0  0  0  0  0  0  0  0  0  0
   29.0790  -29.0981  -21.7956 C   0  0  0  0  0  0  0  0  0  0  0  0
   29.5016  -28.0501  -21.1875 O   0  0  0  0  0  0  0  0  0  0  0  0
   28.5480  -30.0876  -20.9599 N   0  0  0  0  0  0  0  0  0  0  0  0
   28.2244  -29.8148  -19.5345 C   0  0  1  0  0  0  0  0  0  0  0  0
   27.2545  -28.6963  -19.5769 C   0  0  0  0  0  0  0  0  0  0  0  0
   27.0912  -27.9267  -18.3300 C   0  0  0  0  0  0  0  0  0  0  0  0
   27.6398  -28.1858  -17.0920 C   0  0  0  0  0  0  0  0  0  0  0  0
   27.1791  -27.2260  -16.2732 N   0  0  0  0  0  0  0  0  0  0  0  0
   26.3859  -26.4163  -16.9733 C   0  0  0  0  0  0  0  0  0  0  0  0
   26.3075  -26.8168  -18.2457 N   0  0  0  0  0  0  0  0  0  0  0  0
   27.8589  -31.0428  -18.8593 C   0  0  0  0  0  0  0  0  0  0  0  0
   27.0618  -31.8312  -19.4942 O   0  0  0  0  0  0  0  0  0  0  0  0
   30.0974  -33.4524  -16.6587 C   0  0  0  0  0  0  0  0  0  0  0  0
   28.7781  -33.1818  -15.9943 C   0  0  1  0  0  0  0  0  0  0  0  0
   28.8514  -32.1781  -14.8856 C   0  0  0  0  0  0  0  0  0  0  0  0
   27.7616  -32.7617  -17.0634 C   0  0  2  0  0  0  0  0  0  0  0  0
   28.2541  -31.5122  -17.5969 N   0  0  0  0  0  0  0  0  0  0  0  0
   26.4364  -32.5445  -16.4620 C   0  0  0  0  0  0  0  0  0  0  0  0
   25.9705  -31.2632  -16.1256 O   0  0  0  0  0  0  0  0  0  0  0  0
   25.6530  -33.4851  -16.2174 O   0  0  0  0  0  0  0  0  0  0  0  0
  2  4  1  0
  2  1  1  6
  3  2  1  0
  4  5  1  1
  6  7  2  0
  6  4  1  0
  8  6  1  0
  9  8  1  0
  9 10  1  6
 11 15  1  0
 11 10  1  0
 12 11  2  0
 13 12  1  0
 13 14  1  0
 14 15  2  0
 16 22  1  0
 16  9  1  0
 17 16  2  0
 19 21  1  0
 19 18  1  6
 20 19  1  0
 21 23  1  0
 21 22  1  1
 23 24  1  0
 25 23  2  0
M  END
$$$$
