VHV.pdb
     RDKit          3D

 25 25  0  0  1  0  0  0  0  0999 V2000
   27.9663  -12.2148  -15.6600 C   0  0  0  0  0  0  0  0  0  0  0  0
   26.7644  -11.3306  -15.8428 C   0  0  1  0  0  0  0  0  0  0  0  0
   26.7496  -10.7751  -17.2511 C   0  0  0  0  0  0  0  0  0  0  0  0
   25.4793  -12.1124  -15.6597 C   0  0  2  0  0  0  0  0  0  0  0  0
   25.4876  -13.2502  -16.6169 N   0  0  0  0  0  0  0  0  0  0  0  0
   24.2636  -11.3342  -15.9948 C   0  0  0  0  0  0  0  0  0  0  0  0
   23.8456  -11.3315  -17.2080 O   0  0  0  0  0  0  0  0  0  0  0  0
   23.4914  -10.5767  -15.1062 N   0  0  0  0  0  0  0  0  0  0  0  0
   22.3284   -9.7748  -15.5702 C   0  0  1  0  0  0  0  0  0  0  0  0
   21.1437  -10.5853  -15.2052 C   0  0  0  0  0  0  0  0  0  0  0  0
   19.8284   -9.9703  -15.4615 C   0  0  0  0  0  0  0  0  0  0  0  0
   19.1793   -9.8214  -16.6686 C   0  0  0  0  0  0  0  0  0  0  0  0
   18.0313   -9.1798  -16.3964 N   0  0  0  0  0  0  0  0  0  0  0  0
   17.9769   -8.9455  -15.0860 C   0  0  0  0  0  0  0  0  0  0  0  0
   19.0677   -9.4187  -14.4764 N   0  0  0  0  0  0  0  0  0  0  0  0
   22.4316   -8.4143  -15.0846 C   0  0  0  0  0  0  0  0  0  0  0  0
   22.9905   -8.2565  -13.9346 O   0  0  0  0  0  0  0  0  0  0  0  0
   23.8484   -5.4043  -16.9852 C   0  0  0  0  0  0  0  0  0  0  0  0
   22.5660   -5.0003  -16.3162 C   0  0  1  0  0  0  0  0  0  0  0  0
   21.3860   -4.9646  -17.2372 C   0  0  0  0  0  0  0  0  0  0  0  0
   22.3159   -5.9294  -15.1217 C   0  0  2  0  0  0  0  0  0  0  0  0
   22.0105   -7.2213  -15.6927 N   0  0  0  0  0  0  0  0  0  0  0  0
   21.1646   -5.4622  -14.3335 C   0  0  0  0  0  0  0  0  0  0  0  0
   21.2863   -4.4613  -13.3560 O   0  0  0  0  0  0  0  0  0  0  0  0
   20.0171   -5.9281  -14.4889 O   0  0  0  0  0  0  0  0  0  0  0  0
  2  4  1  0
  2  1  1  6
  3  2  1  0
  4  5  1  6
  6  7  2  0
  6  4  1  0
  8  6  1  0
  9  8  1  0
  9 10  1  1
 11 15  1  0
 11 10  1  0
 12 11  2  0
 13 12  1  0
 13 14  1  0
 14 15  2  0
 16 22  1  0
 16  9  1  0
 17 16  2  0
 19 21  1  0
 19 18  1  6
 20 19  1  0
 21 23  1  0
 21 22  1  6
 23 24  1  0
 25 23  2  0
M  END
$$$$
