VHV.pdb
     RDKit          3D

 25 25  0  0  1  0  0  0  0  0999 V2000
   28.8456  -24.7098  -18.4487 C   0  0  0  0  0  0  0  0  0  0  0  0
   27.9785  -23.8171  -17.6054 C   0  0  1  0  0  0  0  0  0  0  0  0
   28.6126  -23.6291  -16.2435 C   0  0  0  0  0  0  0  0  0  0  0  0
   27.8445  -22.4417  -18.2271 C   0  0  2  0  0  0  0  0  0  0  0  0
   29.2079  -21.8724  -18.3932 N   0  0  0  0  0  0  0  0  0  0  0  0
   27.1236  -21.4741  -17.3668 C   0  0  0  0  0  0  0  0  0  0  0  0
   27.8049  -20.6538  -16.6529 O   0  0  0  0  0  0  0  0  0  0  0  0
   25.7351  -21.3480  -17.2418 N   0  0  0  0  0  0  0  0  0  0  0  0
   25.1198  -20.2840  -16.4049 C   0  0  1  0  0  0  0  0  0  0  0  0
   24.1460  -19.6181  -17.3004 C   0  0  0  0  0  0  0  0  0  0  0  0
   24.6125  -18.3935  -17.9761 C   0  0  0  0  0  0  0  0  0  0  0  0
   25.8192  -17.7445  -17.8237 C   0  0  0  0  0  0  0  0  0  0  0  0
   25.7654  -16.6673  -18.6241 N   0  0  0  0  0  0  0  0  0  0  0  0
   24.5834  -16.6544  -19.2387 C   0  0  0  0  0  0  0  0  0  0  0  0
   23.8453  -17.7034  -18.8641 N   0  0  0  0  0  0  0  0  0  0  0  0
   24.6613  -20.8372  -15.1476 C   0  0  0  0  0  0  0  0  0  0  0  0
   23.8292  -21.8181  -15.2218 O   0  0  0  0  0  0  0  0  0  0  0  0
   25.3181  -19.2776  -11.3503 C   0  0  0  0  0  0  0  0  0  0  0  0
   25.4050  -20.7671  -11.5204 C   0  0  1  0  0  0  0  0  0  0  0  0
   25.0834  -21.5397  -10.2788 C   0  0  0  0  0  0  0  0  0  0  0  0
   24.5045  -21.1859  -12.6893 C   0  0  2  0  0  0  0  0  0  0  0  0
   24.9977  -20.4607  -13.8378 N   0  0  0  0  0  0  0  0  0  0  0  0
   23.1083  -20.7985  -12.4329 C   0  0  0  0  0  0  0  0  0  0  0  0
   22.1725  -21.6947  -11.8915 O   0  0  0  0  0  0  0  0  0  0  0  0
   22.6777  -19.6535  -12.6815 O   0  0  0  0  0  0  0  0  0  0  0  0
  2  4  1  0
  2  1  1  6
  3  2  1  0
  4  5  1  1
  6  7  2  0
  6  4  1  0
  8  6  1  0
  9  8  1  0
  9 10  1  6
 11 15  1  0
 11 10  1  0
 12 11  2  0
 13 12  1  0
 13 14  1  0
 14 15  2  0
 16 22  1  0
 16  9  1  0
 17 16  2  0
 19 21  1  0
 19 18  1  1
 20 19  1  0
 21 23  1  0
 21 22  1  6
 23 24  1  0
 25 23  2  0
M  END
$$$$
