VHV.pdb
     RDKit          3D

 25 25  0  0  1  0  0  0  0  0999 V2000
   29.5392  -19.0532  -17.1718 C   0  0  0  0  0  0  0  0  0  0  0  0
   28.6562  -18.9799  -15.9573 C   0  0  1  0  0  0  0  0  0  0  0  0
   28.5240  -17.5398  -15.5093 C   0  0  0  0  0  0  0  0  0  0  0  0
   27.2594  -19.4790  -16.2678 C   0  0  2  0  0  0  0  0  0  0  0  0
   26.6973  -18.6377  -17.3573 N   0  0  0  0  0  0  0  0  0  0  0  0
   26.3148  -19.3276  -15.1360 C   0  0  0  0  0  0  0  0  0  0  0  0
   25.7876  -18.1778  -14.9197 O   0  0  0  0  0  0  0  0  0  0  0  0
   25.9172  -20.3325  -14.2462 N   0  0  0  0  0  0  0  0  0  0  0  0
   24.9614  -20.0623  -13.1397 C   0  0  1  0  0  0  0  0  0  0  0  0
   23.6676  -20.5982  -13.6217 C   0  0  0  0  0  0  0  0  0  0  0  0
   22.5344  -20.5098  -12.6826 C   0  0  0  0  0  0  0  0  0  0  0  0
   21.8732  -21.5393  -12.0474 C   0  0  0  0  0  0  0  0  0  0  0  0
   20.9007  -20.9643  -11.3212 N   0  0  0  0  0  0  0  0  0  0  0  0
   20.9608  -19.6455  -11.5010 C   0  0  0  0  0  0  0  0  0  0  0  0
   21.9558  -19.3278  -12.3343 N   0  0  0  0  0  0  0  0  0  0  0  0
   25.5009  -20.5397  -11.8833 C   0  0  0  0  0  0  0  0  0  0  0  0
   26.1172  -21.6707  -11.9164 O   0  0  0  0  0  0  0  0  0  0  0  0
   26.8924  -20.1577   -7.2144 C   0  0  0  0  0  0  0  0  0  0  0  0
   26.5592  -19.5560   -8.5494 C   0  0  1  0  0  0  0  0  0  0  0  0
   27.7257  -18.9130   -9.2335 C   0  0  0  0  0  0  0  0  0  0  0  0
   25.9167  -20.6331   -9.4322 C   0  0  2  0  0  0  0  0  0  0  0  0
   25.4557  -19.9414  -10.6143 N   0  0  0  0  0  0  0  0  0  0  0  0
   24.7668  -21.2460   -8.7486 C   0  0  0  0  0  0  0  0  0  0  0  0
   24.8929  -22.4109   -7.9745 O   0  0  0  0  0  0  0  0  0  0  0  0
   23.6167  -20.7659   -8.8178 O   0  0  0  0  0  0  0  0  0  0  0  0
  2  4  1  0
  2  1  1  6
  3  2  1  0
  4  5  1  6
  6  7  2  0
  6  4  1  0
  8  6  1  0
  9  8  1  0
  9 10  1  6
 11 15  1  0
 11 10  1  0
 12 11  2  0
 13 12  1  0
 13 14  1  0
 14 15  2  0
 16 22  1  0
 16  9  1  0
 17 16  2  0
 19 21  1  0
 19 18  1  1
 20 19  1  0
 21 23  1  0
 21 22  1  6
 23 24  1  0
 25 23  2  0
M  END
$$$$
