VHV.pdb
     RDKit          3D

 25 25  0  0  1  0  0  0  0  0999 V2000
   17.2610   -7.2542  -21.3498 C   0  0  0  0  0  0  0  0  0  0  0  0
   17.9285   -7.1628  -20.0058 C   0  0  1  0  0  0  0  0  0  0  0  0
   17.1529   -6.2158  -19.1149 C   0  0  0  0  0  0  0  0  0  0  0  0
   17.9466   -8.5105  -19.3132 C   0  0  2  0  0  0  0  0  0  0  0  0
   16.5398   -8.9415  -19.0991 N   0  0  0  0  0  0  0  0  0  0  0  0
   18.5485   -8.4690  -17.9597 C   0  0  0  0  0  0  0  0  0  0  0  0
   17.7817   -8.2872  -16.9469 O   0  0  0  0  0  0  0  0  0  0  0  0
   19.9060   -8.6125  -17.6498 N   0  0  0  0  0  0  0  0  0  0  0  0
   20.3885   -8.6292  -16.2434 C   0  0  1  0  0  0  0  0  0  0  0  0
   21.0771   -9.9324  -16.0981 C   0  0  0  0  0  0  0  0  0  0  0  0
   20.2203  -11.1315  -16.1431 C   0  0  0  0  0  0  0  0  0  0  0  0
   19.3710  -11.6078  -15.1672 C   0  0  0  0  0  0  0  0  0  0  0  0
   18.8353  -12.7367  -15.6595 N   0  0  0  0  0  0  0  0  0  0  0  0
   19.3308  -12.9446  -16.8786 C   0  0  0  0  0  0  0  0  0  0  0  0
   20.1884  -11.9754  -17.2109 N   0  0  0  0  0  0  0  0  0  0  0  0
   21.1117   -7.4101  -15.9468 C   0  0  0  0  0  0  0  0  0  0  0  0
   22.0811   -7.1105  -16.7408 O   0  0  0  0  0  0  0  0  0  0  0  0
   20.1765   -4.1817  -16.5124 C   0  0  0  0  0  0  0  0  0  0  0  0
   20.6119   -4.1397  -15.0757 C   0  0  1  0  0  0  0  0  0  0  0  0
   19.4826   -4.2271  -14.0964 C   0  0  0  0  0  0  0  0  0  0  0  0
   21.6456   -5.2477  -14.8384 C   0  0  2  0  0  0  0  0  0  0  0  0
   20.9073   -6.4881  -14.9083 N   0  0  0  0  0  0  0  0  0  0  0  0
   22.2493   -5.1163  -13.5030 C   0  0  0  0  0  0  0  0  0  0  0  0
   23.2781   -4.1985  -13.2362 O   0  0  0  0  0  0  0  0  0  0  0  0
   21.8817   -5.8118  -12.5337 O   0  0  0  0  0  0  0  0  0  0  0  0
  2  4  1  0
  2  1  1  6
  3  2  1  0
  4  5  1  1
  6  7  2  0
  6  4  1  0
  8  6  1  0
  9  8  1  0
  9 10  1  6
 11 15  1  0
 11 10  1  0
 12 11  2  0
 13 12  1  0
 13 14  1  0
 14 15  2  0
 16 22  1  0
 16  9  1  0
 17 16  2  0
 19 21  1  0
 19 18  1  6
 20 19  1  0
 21 23  1  0
 21 22  1  1
 23 24  1  0
 25 23  2  0
M  END
$$$$
