VHV.pdb
     RDKit          3D

 25 25  0  0  1  0  0  0  0  0999 V2000
   16.1004  -10.2477  -16.7094 C   0  0  0  0  0  0  0  0  0  0  0  0
   16.7510  -11.1679  -15.7144 C   0  0  1  0  0  0  0  0  0  0  0  0
   16.7610  -12.5810  -16.2578 C   0  0  0  0  0  0  0  0  0  0  0  0
   18.1940  -10.7750  -15.4705 C   0  0  2  0  0  0  0  0  0  0  0  0
   18.8051  -11.7879  -14.5698 N   0  0  0  0  0  0  0  0  0  0  0  0
   18.3405   -9.4846  -14.7569 C   0  0  0  0  0  0  0  0  0  0  0  0
   17.9297   -8.4115  -15.3283 O   0  0  0  0  0  0  0  0  0  0  0  0
   18.8937   -9.2973  -13.4847 N   0  0  0  0  0  0  0  0  0  0  0  0
   18.9455   -7.9558  -12.8454 C   0  0  1  0  0  0  0  0  0  0  0  0
   18.7635   -8.2215  -11.3997 C   0  0  0  0  0  0  0  0  0  0  0  0
   17.4115   -7.9899  -10.8590 C   0  0  0  0  0  0  0  0  0  0  0  0
   16.3145   -7.4634  -11.5070 C   0  0  0  0  0  0  0  0  0  0  0  0
   15.3288   -7.4228  -10.5957 N   0  0  0  0  0  0  0  0  0  0  0  0
   15.7967   -7.9009   -9.4435 C   0  0  0  0  0  0  0  0  0  0  0  0
   17.0775   -8.2607   -9.5673 N   0  0  0  0  0  0  0  0  0  0  0  0
   20.1195   -7.2336  -13.2896 C   0  0  0  0  0  0  0  0  0  0  0  0
   21.2412   -7.8638  -13.2200 O   0  0  0  0  0  0  0  0  0  0  0  0
   22.5247   -4.1574  -16.0751 C   0  0  0  0  0  0  0  0  0  0  0  0
   21.3416   -4.9854  -15.6629 C   0  0  1  0  0  0  0  0  0  0  0  0
   21.1238   -6.1985  -16.5132 C   0  0  0  0  0  0  0  0  0  0  0  0
   21.4894   -5.3587  -14.1825 C   0  0  2  0  0  0  0  0  0  0  0  0
   20.2186   -5.9289  -13.7977 N   0  0  0  0  0  0  0  0  0  0  0  0
   21.7506   -4.1606  -13.3692 C   0  0  0  0  0  0  0  0  0  0  0  0
   23.0517   -3.7664  -13.0176 O   0  0  0  0  0  0  0  0  0  0  0  0
   20.8321   -3.4284  -12.9468 O   0  0  0  0  0  0  0  0  0  0  0  0
  2  4  1  0
  2  1  1  6
  3  2  1  0
  4  5  1  1
  6  7  2  0
  6  4  1  0
  8  6  1  0
  9  8  1  0
  9 10  1  1
 11 15  1  0
 11 10  1  0
 12 11  2  0
 13 12  1  0
 13 14  1  0
 14 15  2  0
 16 22  1  0
 16  9  1  0
 17 16  2  0
 19 21  1  0
 19 18  1  6
 20 19  1  0
 21 23  1  0
 21 22  1  1
 23 24  1  0
 25 23  2  0
M  END
$$$$
