VHV.pdb
     RDKit          3D

 25 25  0  0  1  0  0  0  0  0999 V2000
   27.6556  -15.7121  -16.8012 C   0  0  0  0  0  0  0  0  0  0  0  0
   26.9305  -14.3955  -16.8323 C   0  0  1  0  0  0  0  0  0  0  0  0
   27.8247  -13.3077  -16.2763 C   0  0  0  0  0  0  0  0  0  0  0  0
   26.5793  -13.9999  -18.2523 C   0  0  2  0  0  0  0  0  0  0  0  0
   27.8457  -13.7767  -18.9988 N   0  0  0  0  0  0  0  0  0  0  0  0
   25.8463  -12.7151  -18.3416 C   0  0  0  0  0  0  0  0  0  0  0  0
   26.5143  -11.6318  -18.5057 O   0  0  0  0  0  0  0  0  0  0  0  0
   24.4590  -12.5435  -18.2664 N   0  0  0  0  0  0  0  0  0  0  0  0
   23.8320  -11.1987  -18.3631 C   0  0  1  0  0  0  0  0  0  0  0  0
   22.8893  -11.3048  -19.5005 C   0  0  0  0  0  0  0  0  0  0  0  0
   22.0647  -10.1144  -19.7775 C   0  0  0  0  0  0  0  0  0  0  0  0
   22.0507   -8.9128  -19.1018 C   0  0  0  0  0  0  0  0  0  0  0  0
   21.1186   -8.1577  -19.7057 N   0  0  0  0  0  0  0  0  0  0  0  0
   20.5852   -8.8606  -20.7040 C   0  0  0  0  0  0  0  0  0  0  0  0
   21.1436  -10.0721  -20.7790 N   0  0  0  0  0  0  0  0  0  0  0  0
   23.3343  -10.7832  -17.0682 C   0  0  0  0  0  0  0  0  0  0  0  0
   22.5658  -11.6157  -16.4548 O   0  0  0  0  0  0  0  0  0  0  0  0
   24.9298  -10.5576  -14.0341 C   0  0  0  0  0  0  0  0  0  0  0  0
   24.2344   -9.2291  -14.1179 C   0  0  1  0  0  0  0  0  0  0  0  0
   25.1268   -8.1022  -14.5371 C   0  0  0  0  0  0  0  0  0  0  0  0
   23.0239   -9.3612  -15.0505 C   0  0  2  0  0  0  0  0  0  0  0  0
   23.5724   -9.5903  -16.3677 N   0  0  0  0  0  0  0  0  0  0  0  0
   22.2390   -8.1166  -15.0608 C   0  0  0  0  0  0  0  0  0  0  0  0
   21.2853   -7.8276  -14.0714 O   0  0  0  0  0  0  0  0  0  0  0  0
   22.3765   -7.2491  -15.9478 O   0  0  0  0  0  0  0  0  0  0  0  0
  2  4  1  0
  2  1  1  6
  3  2  1  0
  4  5  1  6
  6  7  2  0
  6  4  1  0
  8  6  1  0
  9  8  1  0
  9 10  1  6
 11 15  1  0
 11 10  1  0
 12 11  2  0
 13 12  1  0
 13 14  1  0
 14 15  2  0
 16 22  1  0
 16  9  1  0
 17 16  2  0
 19 21  1  0
 19 18  1  6
 20 19  1  0
 21 23  1  0
 21 22  1  6
 23 24  1  0
 25 23  2  0
M  END
$$$$
