VHV.pdb
     RDKit          3D

 25 25  0  0  1  0  0  0  0  0999 V2000
   24.0375  -11.0138  -21.1148 C   0  0  0  0  0  0  0  0  0  0  0  0
   23.6116  -12.4552  -21.0810 C   0  0  1  0  0  0  0  0  0  0  0  0
   24.7128  -13.3256  -21.6483 C   0  0  0  0  0  0  0  0  0  0  0  0
   23.3667  -12.9183  -19.6591 C   0  0  2  0  0  0  0  0  0  0  0  0
   22.9161  -14.3346  -19.7032 N   0  0  0  0  0  0  0  0  0  0  0  0
   22.2718  -12.1851  -18.9812 C   0  0  0  0  0  0  0  0  0  0  0  0
   21.0596  -12.5491  -19.1930 O   0  0  0  0  0  0  0  0  0  0  0  0
   22.4151  -11.1038  -18.1038 N   0  0  0  0  0  0  0  0  0  0  0  0
   21.2371  -10.3753  -17.5630 C   0  0  1  0  0  0  0  0  0  0  0  0
   20.6736  -11.2821  -16.5365 C   0  0  0  0  0  0  0  0  0  0  0  0
   19.5485  -10.7520  -15.7446 C   0  0  0  0  0  0  0  0  0  0  0  0
   19.5996  -10.0225  -14.5760 C   0  0  0  0  0  0  0  0  0  0  0  0
   18.3236   -9.7975  -14.2223 N   0  0  0  0  0  0  0  0  0  0  0  0
   17.5267  -10.3611  -15.1292 C   0  0  0  0  0  0  0  0  0  0  0  0
   18.2463  -10.9591  -16.0831 N   0  0  0  0  0  0  0  0  0  0  0  0
   21.6099   -9.0271  -17.1881 C   0  0  0  0  0  0  0  0  0  0  0  0
   22.7760   -8.8802  -16.6603 O   0  0  0  0  0  0  0  0  0  0  0  0
   21.5670   -4.2121  -17.5458 C   0  0  0  0  0  0  0  0  0  0  0  0
   21.2705   -5.6040  -18.0254 C   0  0  1  0  0  0  0  0  0  0  0  0
   22.1167   -6.0410  -19.1808 C   0  0  0  0  0  0  0  0  0  0  0  0
   21.3944   -6.5728  -16.8428 C   0  0  2  0  0  0  0  0  0  0  0  0
   20.8796   -7.8357  -17.3206 N   0  0  0  0  0  0  0  0  0  0  0  0
   20.5779   -6.1133  -15.7083 C   0  0  0  0  0  0  0  0  0  0  0  0
   21.1072   -5.3114  -14.6842 O   0  0  0  0  0  0  0  0  0  0  0  0
   19.3708   -6.4096  -15.5923 O   0  0  0  0  0  0  0  0  0  0  0  0
  2  4  1  0
  2  1  1  1
  3  2  1  0
  4  5  1  6
  6  7  2  0
  6  4  1  0
  8  6  1  0
  9  8  1  0
  9 10  1  1
 11 15  1  0
 11 10  1  0
 12 11  2  0
 13 12  1  0
 13 14  1  0
 14 15  2  0
 16 22  1  0
 16  9  1  0
 17 16  2  0
 19 21  1  0
 19 18  1  1
 20 19  1  0
 21 23  1  0
 21 22  1  6
 23 24  1  0
 25 23  2  0
M  END
$$$$
