FCH.pdb
     RDKit          3D

 28 29  0  0  1  0  0  0  0  0999 V2000
    8.3990  -17.6832   19.9647 N   0  0  0  0  0  0  0  0  0  0  0  0
    9.6660  -16.9671   19.6362 C   0  0  1  0  0  0  0  0  0  0  0  0
    9.2468  -15.8467   18.7707 C   0  0  0  0  0  0  0  0  0  0  0  0
    8.6125  -14.6935   19.3782 C   0  0  0  0  0  0  0  0  0  0  0  0
    7.3103  -14.7625   19.8174 C   0  0  0  0  0  0  0  0  0  0  0  0
    6.6511  -13.6950   20.3990 C   0  0  0  0  0  0  0  0  0  0  0  0
    7.3450  -12.5147   20.5380 C   0  0  0  0  0  0  0  0  0  0  0  0
    8.6456  -12.4177   20.1088 C   0  0  0  0  0  0  0  0  0  0  0  0
    9.2650  -13.4995   19.5365 C   0  0  0  0  0  0  0  0  0  0  0  0
   10.2955  -16.6710   20.9094 C   0  0  0  0  0  0  0  0  0  0  0  0
    9.6258  -16.3218   21.9452 O   0  0  0  0  0  0  0  0  0  0  0  0
   11.7006  -16.7555   21.0867 N   0  0  0  0  0  0  0  0  0  0  0  0
   12.3157  -16.7226   22.4025 C   0  0  1  0  0  0  0  0  0  0  0  0
   11.7794  -17.8872   23.2432 C   0  0  0  0  0  0  0  0  0  0  0  0
   12.6574  -17.9832   24.8289 S   0  0  0  0  0  0  0  0  0  0  0  0
   13.7870  -16.7686   22.3191 C   0  0  0  0  0  0  0  0  0  0  0  0
   14.4733  -17.6520   21.7823 O   0  0  0  0  0  0  0  0  0  0  0  0
   14.5320  -15.6805   22.9191 N   0  0  0  0  0  0  0  0  0  0  0  0
   15.9781  -15.6042   22.8009 C   0  0  1  0  0  0  0  0  0  0  0  0
   16.3992  -14.3122   23.4755 C   0  0  0  0  0  0  0  0  0  0  0  0
   17.8519  -14.0752   23.3228 C   0  0  0  0  0  0  0  0  0  0  0  0
   18.7106  -14.8290   22.5632 C   0  0  0  0  0  0  0  0  0  0  0  0
   19.9411  -14.2923   22.6853 N   0  0  0  0  0  0  0  0  0  0  0  0
   19.8737  -13.2269   23.4984 C   0  0  0  0  0  0  0  0  0  0  0  0
   18.5796  -13.0980   23.8891 N   0  0  0  0  0  0  0  0  0  0  0  0
   16.5693  -16.7127   23.6000 C   0  0  0  0  0  0  0  0  0  0  0  0
   17.7788  -17.2309   23.1944 O   0  0  0  0  0  0  0  0  0  0  0  0
   15.9883  -17.1693   24.6178 O   0  0  0  0  0  0  0  0  0  0  0  0
  2  1  1  1
  2 10  1  0
  3  2  1  0
  4  3  1  0
  4  9  1  0
  5  4  2  0
  6  5  1  0
  6  7  2  0
  7  8  1  0
  8  9  2  0
 10 11  2  0
 12 13  1  0
 12 10  1  0
 13 16  1  0
 14 15  1  0
 13 14  1  1
 16 17  2  0
 18 16  1  0
 18 19  1  0
 19 26  1  0
 19 20  1  1
 21 25  1  0
 21 20  1  0
 22 21  2  0
 23 22  1  0
 23 24  1  0
 24 25  2  0
 26 28  2  0
 26 27  1  0
M  END
$$$$
