FCH.pdb
     RDKit          3D

 28 29  0  0  1  0  0  0  0  0999 V2000
   10.2517  -16.4593   20.8072 N   0  0  0  0  0  0  0  0  0  0  0  0
    9.4250  -15.5054   21.6026 C   0  0  1  0  0  0  0  0  0  0  0  0
    8.0569  -15.6652   21.0707 C   0  0  0  0  0  0  0  0  0  0  0  0
    7.6141  -14.7874   20.0056 C   0  0  0  0  0  0  0  0  0  0  0  0
    7.5534  -13.4267   20.2010 C   0  0  0  0  0  0  0  0  0  0  0  0
    7.1342  -12.5409   19.2253 C   0  0  0  0  0  0  0  0  0  0  0  0
    6.7636  -13.0614   18.0065 C   0  0  0  0  0  0  0  0  0  0  0  0
    6.8145  -14.4153   17.7838 C   0  0  0  0  0  0  0  0  0  0  0  0
    7.2361  -15.2618   18.7775 C   0  0  0  0  0  0  0  0  0  0  0  0
    9.6774  -15.8273   22.9945 C   0  0  0  0  0  0  0  0  0  0  0  0
   10.3256  -16.8732   23.3540 O   0  0  0  0  0  0  0  0  0  0  0  0
    9.2222  -14.9947   24.0493 N   0  0  0  0  0  0  0  0  0  0  0  0
    9.4531  -15.3225   25.4457 C   0  0  1  0  0  0  0  0  0  0  0  0
    8.6452  -14.3672   26.3320 C   0  0  0  0  0  0  0  0  0  0  0  0
    6.9290  -14.2598   25.7510 S   0  0  0  0  0  0  0  0  0  0  0  0
    9.1133  -16.7266   25.7407 C   0  0  0  0  0  0  0  0  0  0  0  0
    8.0668  -17.3180   25.4330 O   0  0  0  0  0  0  0  0  0  0  0  0
   10.0864  -17.5194   26.4643 N   0  0  0  0  0  0  0  0  0  0  0  0
    9.7873  -18.8781   26.8834 C   0  0  1  0  0  0  0  0  0  0  0  0
   10.5510  -19.7967   25.9481 C   0  0  0  0  0  0  0  0  0  0  0  0
    9.8189  -19.9996   24.6782 C   0  0  0  0  0  0  0  0  0  0  0  0
    8.6163  -19.4282   24.3472 C   0  0  0  0  0  0  0  0  0  0  0  0
    8.2855  -19.8598   23.1138 N   0  0  0  0  0  0  0  0  0  0  0  0
    9.2467  -20.6830   22.6673 C   0  0  0  0  0  0  0  0  0  0  0  0
   10.1917  -20.7653   23.6390 N   0  0  0  0  0  0  0  0  0  0  0  0
   10.3612  -19.0829   28.2419 C   0  0  0  0  0  0  0  0  0  0  0  0
   11.0509  -18.0399   28.8184 O   0  0  0  0  0  0  0  0  0  0  0  0
   10.2252  -20.1737   28.8532 O   0  0  0  0  0  0  0  0  0  0  0  0
  2  1  1  6
  2 10  1  0
  3  2  1  0
  4  3  1  0
  4  9  1  0
  5  4  2  0
  6  5  1  0
  6  7  2  0
  7  8  1  0
  8  9  2  0
 10 11  2  0
 12 13  1  0
 12 10  1  0
 13 16  1  0
 14 15  1  0
 13 14  1  1
 16 17  2  0
 18 16  1  0
 18 19  1  0
 19 26  1  0
 19 20  1  6
 21 25  1  0
 21 20  1  0
 22 21  2  0
 23 22  1  0
 23 24  1  0
 24 25  2  0
 26 28  2  0
 26 27  1  0
M  END
$$$$
