FCH.pdb
     RDKit          3D

 28 29  0  0  1  0  0  0  0  0999 V2000
    7.8467  -15.9667   15.2460 N   0  0  0  0  0  0  0  0  0  0  0  0
    8.5643  -15.2110   16.3136 C   0  0  1  0  0  0  0  0  0  0  0  0
    7.5180  -14.3916   16.9572 C   0  0  0  0  0  0  0  0  0  0  0  0
    7.8253  -13.7188   18.2038 C   0  0  0  0  0  0  0  0  0  0  0  0
    8.5185  -12.5302   18.2042 C   0  0  0  0  0  0  0  0  0  0  0  0
    8.8452  -11.8460   19.3607 C   0  0  0  0  0  0  0  0  0  0  0  0
    8.4506  -12.3936   20.5600 C   0  0  0  0  0  0  0  0  0  0  0  0
    7.7575  -13.5785   20.5891 C   0  0  0  0  0  0  0  0  0  0  0  0
    7.4523  -14.2273   19.4198 C   0  0  0  0  0  0  0  0  0  0  0  0
    9.2593  -16.2078   17.1060 C   0  0  0  0  0  0  0  0  0  0  0  0
    8.9873  -17.4585   17.0340 O   0  0  0  0  0  0  0  0  0  0  0  0
   10.2931  -15.8558   18.0117 N   0  0  0  0  0  0  0  0  0  0  0  0
   11.0715  -16.8565   18.7212 C   0  0  1  0  0  0  0  0  0  0  0  0
   11.8026  -17.7442   17.7071 C   0  0  0  0  0  0  0  0  0  0  0  0
   12.8433  -16.7357   16.6142 S   0  0  0  0  0  0  0  0  0  0  0  0
   12.0240  -16.2409   19.6634 C   0  0  0  0  0  0  0  0  0  0  0  0
   12.1670  -15.0294   19.8896 O   0  0  0  0  0  0  0  0  0  0  0  0
   12.8947  -17.1214   20.4155 N   0  0  0  0  0  0  0  0  0  0  0  0
   12.9312  -17.0823   21.8674 C   0  0  1  0  0  0  0  0  0  0  0  0
   11.6265  -17.6887   22.3490 C   0  0  0  0  0  0  0  0  0  0  0  0
   10.7247  -16.6537   22.9016 C   0  0  0  0  0  0  0  0  0  0  0  0
   11.0043  -15.3135   22.9918 C   0  0  0  0  0  0  0  0  0  0  0  0
    9.9351  -14.7105   23.5488 N   0  0  0  0  0  0  0  0  0  0  0  0
    8.9983  -15.6358   23.8080 C   0  0  0  0  0  0  0  0  0  0  0  0
    9.4925  -16.8349   23.4056 N   0  0  0  0  0  0  0  0  0  0  0  0
   14.0172  -17.9895   22.3302 C   0  0  0  0  0  0  0  0  0  0  0  0
   14.7810  -17.5914   23.4045 O   0  0  0  0  0  0  0  0  0  0  0  0
   14.2384  -19.0899   21.7626 O   0  0  0  0  0  0  0  0  0  0  0  0
  2  1  1  6
  2 10  1  0
  3  2  1  0
  4  3  1  0
  4  9  1  0
  5  4  2  0
  6  5  1  0
  6  7  2  0
  7  8  1  0
  8  9  2  0
 10 11  2  0
 12 13  1  0
 12 10  1  0
 13 16  1  0
 14 15  1  0
 13 14  1  6
 16 17  2  0
 18 16  1  0
 18 19  1  0
 19 26  1  0
 19 20  1  1
 21 25  1  0
 21 20  1  0
 22 21  2  0
 23 22  1  0
 23 24  1  0
 24 25  2  0
 26 28  2  0
 26 27  1  0
M  END
$$$$
