FCH.pdb
     RDKit          3D

 28 29  0  0  1  0  0  0  0  0999 V2000
    8.5292  -17.7297   22.5324 N   0  0  0  0  0  0  0  0  0  0  0  0
    8.8364  -16.3188   22.1567 C   0  0  1  0  0  0  0  0  0  0  0  0
    7.5501  -15.7715   21.6813 C   0  0  0  0  0  0  0  0  0  0  0  0
    7.4866  -14.3785   21.2856 C   0  0  0  0  0  0  0  0  0  0  0  0
    7.8597  -13.9942   20.0181 C   0  0  0  0  0  0  0  0  0  0  0  0
    7.8261  -12.6811   19.5856 C   0  0  0  0  0  0  0  0  0  0  0  0
    7.3963  -11.7255   20.4778 C   0  0  0  0  0  0  0  0  0  0  0  0
    7.0178  -12.0808   21.7489 C   0  0  0  0  0  0  0  0  0  0  0  0
    7.0654  -13.3946   22.1404 C   0  0  0  0  0  0  0  0  0  0  0  0
    9.4617  -15.7251   23.3235 C   0  0  0  0  0  0  0  0  0  0  0  0
    9.9724  -14.5494   23.3091 O   0  0  0  0  0  0  0  0  0  0  0  0
    9.5417  -16.4139   24.5612 N   0  0  0  0  0  0  0  0  0  0  0  0
   10.0631  -15.7846   25.7623 C   0  0  1  0  0  0  0  0  0  0  0  0
    9.2436  -14.5267   26.0734 C   0  0  0  0  0  0  0  0  0  0  0  0
    9.8867  -13.6999   27.5558 S   0  0  0  0  0  0  0  0  0  0  0  0
   10.0603  -16.7106   26.9097 C   0  0  0  0  0  0  0  0  0  0  0  0
    9.0701  -17.0976   27.5493 O   0  0  0  0  0  0  0  0  0  0  0  0
   11.3341  -17.2373   27.3559 N   0  0  0  0  0  0  0  0  0  0  0  0
   11.4084  -18.2269   28.4170 C   0  0  1  0  0  0  0  0  0  0  0  0
   12.8378  -18.7351   28.4345 C   0  0  0  0  0  0  0  0  0  0  0  0
   13.1744  -19.4355   27.1751 C   0  0  0  0  0  0  0  0  0  0  0  0
   12.2784  -19.8274   26.2129 C   0  0  0  0  0  0  0  0  0  0  0  0
   12.9750  -20.4289   25.2279 N   0  0  0  0  0  0  0  0  0  0  0  0
   14.2781  -20.4230   25.5488 C   0  0  0  0  0  0  0  0  0  0  0  0
   14.3947  -19.8074   26.7536 N   0  0  0  0  0  0  0  0  0  0  0  0
   11.1884  -17.5336   29.7161 C   0  0  0  0  0  0  0  0  0  0  0  0
   11.1672  -18.2960   30.8625 O   0  0  0  0  0  0  0  0  0  0  0  0
   11.0256  -16.2878   29.7749 O   0  0  0  0  0  0  0  0  0  0  0  0
  2  1  1  1
  2 10  1  0
  3  2  1  0
  4  3  1  0
  4  9  1  0
  5  4  2  0
  6  5  1  0
  6  7  2  0
  7  8  1  0
  8  9  2  0
 10 11  2  0
 12 13  1  0
 12 10  1  0
 13 16  1  0
 14 15  1  0
 13 14  1  1
 16 17  2  0
 18 16  1  0
 18 19  1  0
 19 26  1  0
 19 20  1  1
 21 25  1  0
 21 20  1  0
 22 21  2  0
 23 22  1  0
 23 24  1  0
 24 25  2  0
 26 28  2  0
 26 27  1  0
M  END
$$$$
