FCH.pdb
     RDKit          3D

 28 29  0  0  1  0  0  0  0  0999 V2000
    7.9394  -17.6395   22.2457 N   0  0  0  0  0  0  0  0  0  0  0  0
    8.8345  -16.5807   21.6946 C   0  0  1  0  0  0  0  0  0  0  0  0
    8.0037  -15.8702   20.7021 C   0  0  0  0  0  0  0  0  0  0  0  0
    7.8548  -14.4328   20.8158 C   0  0  0  0  0  0  0  0  0  0  0  0
    8.4537  -13.5938   19.9044 C   0  0  0  0  0  0  0  0  0  0  0  0
    8.3521  -12.2159   19.9647 C   0  0  0  0  0  0  0  0  0  0  0  0
    7.6130  -11.6742   20.9914 C   0  0  0  0  0  0  0  0  0  0  0  0
    7.0043  -12.4879   21.9149 C   0  0  0  0  0  0  0  0  0  0  0  0
    7.1288  -13.8507   21.8209 C   0  0  0  0  0  0  0  0  0  0  0  0
    9.3347  -15.8477   22.8424 C   0  0  0  0  0  0  0  0  0  0  0  0
   10.2170  -14.9235   22.7395 O   0  0  0  0  0  0  0  0  0  0  0  0
    8.8700  -16.1090   24.1572 N   0  0  0  0  0  0  0  0  0  0  0  0
    9.4255  -15.4375   25.3196 C   0  0  1  0  0  0  0  0  0  0  0  0
    8.4739  -14.3204   25.7639 C   0  0  0  0  0  0  0  0  0  0  0  0
    9.1499  -13.4451   27.2032 S   0  0  0  0  0  0  0  0  0  0  0  0
    9.6816  -16.3798   26.4244 C   0  0  0  0  0  0  0  0  0  0  0  0
    8.8373  -17.0447   27.0444 O   0  0  0  0  0  0  0  0  0  0  0  0
   11.0543  -16.5662   26.8487 N   0  0  0  0  0  0  0  0  0  0  0  0
   11.3873  -17.4563   27.9477 C   0  0  1  0  0  0  0  0  0  0  0  0
   12.8339  -17.8676   27.7474 C   0  0  0  0  0  0  0  0  0  0  0  0
   12.9697  -18.8266   26.6286 C   0  0  0  0  0  0  0  0  0  0  0  0
   11.9339  -19.3915   25.9282 C   0  0  0  0  0  0  0  0  0  0  0  0
   12.4683  -20.2046   24.9952 N   0  0  0  0  0  0  0  0  0  0  0  0
   13.8060  -20.1624   25.0942 C   0  0  0  0  0  0  0  0  0  0  0  0
   14.1095  -19.3088   26.1058 N   0  0  0  0  0  0  0  0  0  0  0  0
   11.3403  -16.6719   29.2124 C   0  0  0  0  0  0  0  0  0  0  0  0
   11.0240  -15.3340   29.1343 O   0  0  0  0  0  0  0  0  0  0  0  0
   11.5810  -17.2070   30.3249 O   0  0  0  0  0  0  0  0  0  0  0  0
  2  1  1  1
  2 10  1  0
  3  2  1  0
  4  3  1  0
  4  9  1  0
  5  4  2  0
  6  5  1  0
  6  7  2  0
  7  8  1  0
  8  9  2  0
 10 11  2  0
 12 13  1  0
 12 10  1  0
 13 16  1  0
 14 15  1  0
 13 14  1  1
 16 17  2  0
 18 16  1  0
 18 19  1  0
 19 26  1  0
 19 20  1  6
 21 25  1  0
 21 20  1  0
 22 21  2  0
 23 22  1  0
 23 24  1  0
 24 25  2  0
 26 28  2  0
 26 27  1  0
M  END
$$$$
