FCH.pdb
     RDKit          3D

 28 29  0  0  1  0  0  0  0  0999 V2000
    8.9722  -17.0118   21.5070 N   0  0  0  0  0  0  0  0  0  0  0  0
    9.9314  -15.8771   21.6429 C   0  0  1  0  0  0  0  0  0  0  0  0
    9.2864  -14.7569   20.9292 C   0  0  0  0  0  0  0  0  0  0  0  0
    8.1750  -14.0732   21.5606 C   0  0  0  0  0  0  0  0  0  0  0  0
    8.3994  -13.1109   22.5182 C   0  0  0  0  0  0  0  0  0  0  0  0
    7.3805  -12.4298   23.1587 C   0  0  0  0  0  0  0  0  0  0  0  0
    6.0861  -12.7410   22.8098 C   0  0  0  0  0  0  0  0  0  0  0  0
    5.8331  -13.6969   21.8572 C   0  0  0  0  0  0  0  0  0  0  0  0
    6.8715  -14.3509   21.2443 C   0  0  0  0  0  0  0  0  0  0  0  0
   10.1906  -15.7453   23.0643 C   0  0  0  0  0  0  0  0  0  0  0  0
   10.8176  -14.7437   23.5610 O   0  0  0  0  0  0  0  0  0  0  0  0
    9.7581  -16.7227   23.9973 N   0  0  0  0  0  0  0  0  0  0  0  0
   10.0372  -16.6097   25.4185 C   0  0  1  0  0  0  0  0  0  0  0  0
    9.3403  -15.3627   25.9755 C   0  0  0  0  0  0  0  0  0  0  0  0
    7.5412  -15.4982   25.7767 S   0  0  0  0  0  0  0  0  0  0  0  0
    9.6207  -17.8173   26.1549 C   0  0  0  0  0  0  0  0  0  0  0  0
    8.4575  -18.1898   26.3733 O   0  0  0  0  0  0  0  0  0  0  0  0
   10.6593  -18.6747   26.6889 N   0  0  0  0  0  0  0  0  0  0  0  0
   10.3316  -19.8776   27.4350 C   0  0  1  0  0  0  0  0  0  0  0  0
   11.5816  -20.7374   27.4393 C   0  0  0  0  0  0  0  0  0  0  0  0
   12.0227  -21.0508   26.0619 C   0  0  0  0  0  0  0  0  0  0  0  0
   11.2023  -21.3934   25.0169 C   0  0  0  0  0  0  0  0  0  0  0  0
   11.9822  -21.5997   23.9370 N   0  0  0  0  0  0  0  0  0  0  0  0
   13.2637  -21.3957   24.2790 C   0  0  0  0  0  0  0  0  0  0  0  0
   13.2820  -21.0567   25.5938 N   0  0  0  0  0  0  0  0  0  0  0  0
   10.0766  -19.4922   28.8504 C   0  0  0  0  0  0  0  0  0  0  0  0
    9.6582  -20.4711   29.7237 O   0  0  0  0  0  0  0  0  0  0  0  0
   10.2361  -18.3091   29.2465 O   0  0  0  0  0  0  0  0  0  0  0  0
  2  1  1  1
  2 10  1  0
  3  2  1  0
  4  3  1  0
  4  9  1  0
  5  4  2  0
  6  5  1  0
  6  7  2  0
  7  8  1  0
  8  9  2  0
 10 11  2  0
 12 13  1  0
 12 10  1  0
 13 16  1  0
 14 15  1  0
 13 14  1  1
 16 17  2  0
 18 16  1  0
 18 19  1  0
 19 26  1  0
 19 20  1  1
 21 25  1  0
 21 20  1  0
 22 21  2  0
 23 22  1  0
 23 24  1  0
 24 25  2  0
 26 28  2  0
 26 27  1  0
M  END
$$$$
