FCH.pdb
     RDKit          3D

 28 29  0  0  1  0  0  0  0  0999 V2000
    5.7613  -18.1228   25.4584 N   0  0  0  0  0  0  0  0  0  0  0  0
    6.0742  -16.6812   25.2346 C   0  0  1  0  0  0  0  0  0  0  0  0
    6.5618  -16.1987   26.5421 C   0  0  0  0  0  0  0  0  0  0  0  0
    6.9843  -14.8175   26.6641 C   0  0  0  0  0  0  0  0  0  0  0  0
    8.3135  -14.4805   26.5495 C   0  0  0  0  0  0  0  0  0  0  0  0
    8.7766  -13.1823   26.6622 C   0  0  0  0  0  0  0  0  0  0  0  0
    7.8509  -12.1922   26.9001 C   0  0  0  0  0  0  0  0  0  0  0  0
    6.5180  -12.5000   27.0187 C   0  0  0  0  0  0  0  0  0  0  0  0
    6.0979  -13.8004   26.9007 C   0  0  0  0  0  0  0  0  0  0  0  0
    6.9711  -16.6426   24.0950 C   0  0  0  0  0  0  0  0  0  0  0  0
    7.8403  -17.5576   23.8701 O   0  0  0  0  0  0  0  0  0  0  0  0
    6.9363  -15.5838   23.1512 N   0  0  0  0  0  0  0  0  0  0  0  0
    7.9135  -15.4706   22.0821 C   0  0  1  0  0  0  0  0  0  0  0  0
    7.4910  -14.3505   21.1243 C   0  0  0  0  0  0  0  0  0  0  0  0
    8.5884  -14.3025   19.6793 S   0  0  0  0  0  0  0  0  0  0  0  0
    9.2707  -15.2300   22.6057 C   0  0  0  0  0  0  0  0  0  0  0  0
    9.5664  -14.6905   23.6832 O   0  0  0  0  0  0  0  0  0  0  0  0
   10.3930  -15.6593   21.7961 N   0  0  0  0  0  0  0  0  0  0  0  0
   11.6851  -15.9476   22.3946 C   0  0  1  0  0  0  0  0  0  0  0  0
   11.5150  -17.2249   23.1956 C   0  0  0  0  0  0  0  0  0  0  0  0
   11.2962  -16.9344   24.6300 C   0  0  0  0  0  0  0  0  0  0  0  0
   11.1899  -15.6849   25.1866 C   0  0  0  0  0  0  0  0  0  0  0  0
   10.9960  -15.8437   26.5111 N   0  0  0  0  0  0  0  0  0  0  0  0
   10.9785  -17.1552   26.7953 C   0  0  0  0  0  0  0  0  0  0  0  0
   11.1646  -17.8240   25.6282 N   0  0  0  0  0  0  0  0  0  0  0  0
   12.6460  -16.2576   21.3003 C   0  0  0  0  0  0  0  0  0  0  0  0
   13.9758  -16.4025   21.6268 O   0  0  0  0  0  0  0  0  0  0  0  0
   12.2636  -16.3853   20.1089 O   0  0  0  0  0  0  0  0  0  0  0  0
  2  1  1  1
  2 10  1  0
  3  2  1  0
  4  3  1  0
  4  9  1  0
  5  4  2  0
  6  5  1  0
  6  7  2  0
  7  8  1  0
  8  9  2  0
 10 11  2  0
 12 13  1  0
 12 10  1  0
 13 16  1  0
 14 15  1  0
 13 14  1  6
 16 17  2  0
 18 16  1  0
 18 19  1  0
 19 26  1  0
 19 20  1  1
 21 25  1  0
 21 20  1  0
 22 21  2  0
 23 22  1  0
 23 24  1  0
 24 25  2  0
 26 28  2  0
 26 27  1  0
M  END
$$$$
