FCH.pdb
     RDKit          3D

 28 29  0  0  1  0  0  0  0  0999 V2000
    9.2498  -16.0164   22.1838 N   0  0  0  0  0  0  0  0  0  0  0  0
    9.0257  -15.0420   23.2912 C   0  0  1  0  0  0  0  0  0  0  0  0
    7.5617  -14.8538   23.3309 C   0  0  0  0  0  0  0  0  0  0  0  0
    7.0026  -13.9209   24.2892 C   0  0  0  0  0  0  0  0  0  0  0  0
    6.2841  -14.3764   25.3707 C   0  0  0  0  0  0  0  0  0  0  0  0
    5.7227  -13.5351   26.3138 C   0  0  0  0  0  0  0  0  0  0  0  0
    5.9006  -12.1806   26.1481 C   0  0  0  0  0  0  0  0  0  0  0  0
    6.6133  -11.6983   25.0782 C   0  0  0  0  0  0  0  0  0  0  0  0
    7.1549  -12.5654   24.1637 C   0  0  0  0  0  0  0  0  0  0  0  0
    9.6916  -15.6014   24.4523 C   0  0  0  0  0  0  0  0  0  0  0  0
    9.9219  -16.8562   24.5773 O   0  0  0  0  0  0  0  0  0  0  0  0
   10.1355  -14.7861   25.5252 N   0  0  0  0  0  0  0  0  0  0  0  0
   10.7431  -15.3463   26.7200 C   0  0  1  0  0  0  0  0  0  0  0  0
   10.9455  -14.2343   27.7561 C   0  0  0  0  0  0  0  0  0  0  0  0
   11.3055  -14.9439   29.3875 S   0  0  0  0  0  0  0  0  0  0  0  0
    9.9353  -16.4454   27.2799 C   0  0  0  0  0  0  0  0  0  0  0  0
    8.7330  -16.4036   27.5832 O   0  0  0  0  0  0  0  0  0  0  0  0
   10.5911  -17.7168   27.5089 N   0  0  0  0  0  0  0  0  0  0  0  0
    9.8900  -18.8213   28.1411 C   0  0  1  0  0  0  0  0  0  0  0  0
    9.9837  -19.9960   27.1856 C   0  0  0  0  0  0  0  0  0  0  0  0
    9.0780  -19.8209   26.0286 C   0  0  0  0  0  0  0  0  0  0  0  0
    7.9235  -19.0796   26.0205 C   0  0  0  0  0  0  0  0  0  0  0  0
    7.3889  -19.1709   24.7864 N   0  0  0  0  0  0  0  0  0  0  0  0
    8.1766  -19.9472   24.0261 C   0  0  0  0  0  0  0  0  0  0  0  0
    9.2190  -20.3458   24.7998 N   0  0  0  0  0  0  0  0  0  0  0  0
   10.6420  -19.2094   29.3662 C   0  0  0  0  0  0  0  0  0  0  0  0
   10.1477  -20.2429   30.1302 O   0  0  0  0  0  0  0  0  0  0  0  0
   11.6992  -18.6165   29.7018 O   0  0  0  0  0  0  0  0  0  0  0  0
  2  1  1  6
  2 10  1  0
  3  2  1  0
  4  3  1  0
  4  9  1  0
  5  4  2  0
  6  5  1  0
  6  7  2  0
  7  8  1  0
  8  9  2  0
 10 11  2  0
 12 13  1  0
 12 10  1  0
 13 16  1  0
 14 15  1  0
 13 14  1  1
 16 17  2  0
 18 16  1  0
 18 19  1  0
 19 26  1  0
 19 20  1  6
 21 25  1  0
 21 20  1  0
 22 21  2  0
 23 22  1  0
 23 24  1  0
 24 25  2  0
 26 28  2  0
 26 27  1  0
M  END
$$$$
