FCH.pdb
     RDKit          3D

 28 29  0  0  1  0  0  0  0  0999 V2000
    8.5282  -17.5773   19.9864 N   0  0  0  0  0  0  0  0  0  0  0  0
    9.7544  -16.7479   19.8004 C   0  0  1  0  0  0  0  0  0  0  0  0
    9.3512  -15.6961   18.8457 C   0  0  0  0  0  0  0  0  0  0  0  0
    8.5518  -14.5861   19.3252 C   0  0  0  0  0  0  0  0  0  0  0  0
    9.1408  -13.3801   19.6283 C   0  0  0  0  0  0  0  0  0  0  0  0
    8.4315  -12.2883   20.0945 C   0  0  0  0  0  0  0  0  0  0  0  0
    7.0725  -12.4315   20.2571 C   0  0  0  0  0  0  0  0  0  0  0  0
    6.4584  -13.6236   19.9621 C   0  0  0  0  0  0  0  0  0  0  0  0
    7.1970  -14.6839   19.5019 C   0  0  0  0  0  0  0  0  0  0  0  0
   10.1762  -16.3596   21.1331 C   0  0  0  0  0  0  0  0  0  0  0  0
   11.3582  -15.9324   21.3854 O   0  0  0  0  0  0  0  0  0  0  0  0
    9.2972  -16.4255   22.2449 N   0  0  0  0  0  0  0  0  0  0  0  0
    9.7777  -16.3522   23.6139 C   0  0  1  0  0  0  0  0  0  0  0  0
    8.6460  -15.8599   24.5237 C   0  0  0  0  0  0  0  0  0  0  0  0
    8.1732  -14.1625   24.0879 S   0  0  0  0  0  0  0  0  0  0  0  0
   10.2997  -17.6499   24.0801 C   0  0  0  0  0  0  0  0  0  0  0  0
    9.9327  -18.7752   23.7078 O   0  0  0  0  0  0  0  0  0  0  0  0
   11.3512  -17.6365   25.0766 N   0  0  0  0  0  0  0  0  0  0  0  0
   12.0697  -18.8495   25.4280 C   0  0  1  0  0  0  0  0  0  0  0  0
   12.9088  -19.2201   24.2195 C   0  0  0  0  0  0  0  0  0  0  0  0
   12.1488  -20.0731   23.2790 C   0  0  0  0  0  0  0  0  0  0  0  0
   10.8411  -20.4608   23.4277 C   0  0  0  0  0  0  0  0  0  0  0  0
   10.5199  -21.2272   22.3663 N   0  0  0  0  0  0  0  0  0  0  0  0
   11.5890  -21.3278   21.5613 C   0  0  0  0  0  0  0  0  0  0  0  0
   12.5926  -20.6122   22.1312 N   0  0  0  0  0  0  0  0  0  0  0  0
   13.0239  -18.5242   26.5237 C   0  0  0  0  0  0  0  0  0  0  0  0
   13.5124  -17.2390   26.5978 O   0  0  0  0  0  0  0  0  0  0  0  0
   13.3794  -19.3916   27.3623 O   0  0  0  0  0  0  0  0  0  0  0  0
  2  1  1  1
  2 10  1  0
  3  2  1  0
  4  3  1  0
  4  9  1  0
  5  4  2  0
  6  5  1  0
  6  7  2  0
  7  8  1  0
  8  9  2  0
 10 11  2  0
 12 13  1  0
 12 10  1  0
 13 16  1  0
 14 15  1  0
 13 14  1  1
 16 17  2  0
 18 16  1  0
 18 19  1  0
 19 26  1  0
 19 20  1  6
 21 25  1  0
 21 20  1  0
 22 21  2  0
 23 22  1  0
 23 24  1  0
 24 25  2  0
 26 28  2  0
 26 27  1  0
M  END
$$$$
