FCH.pdb
     RDKit          3D

 28 29  0  0  1  0  0  0  0  0999 V2000
    5.7112  -16.1751   21.4642 N   0  0  0  0  0  0  0  0  0  0  0  0
    7.0442  -16.7339   21.8341 C   0  0  1  0  0  0  0  0  0  0  0  0
    7.9046  -15.5492   22.0250 C   0  0  0  0  0  0  0  0  0  0  0  0
    7.5287  -14.5656   23.0212 C   0  0  0  0  0  0  0  0  0  0  0  0
    7.7435  -14.8079   24.3585 C   0  0  0  0  0  0  0  0  0  0  0  0
    7.4011  -13.9110   25.3539 C   0  0  0  0  0  0  0  0  0  0  0  0
    6.8190  -12.7241   24.9716 C   0  0  0  0  0  0  0  0  0  0  0  0
    6.5931  -12.4559   23.6440 C   0  0  0  0  0  0  0  0  0  0  0  0
    6.9470  -13.3716   22.6860 C   0  0  0  0  0  0  0  0  0  0  0  0
    6.8056  -17.6151   22.9615 C   0  0  0  0  0  0  0  0  0  0  0  0
    5.7495  -17.5399   23.6842 O   0  0  0  0  0  0  0  0  0  0  0  0
    7.7320  -18.6239   23.3317 N   0  0  0  0  0  0  0  0  0  0  0  0
    7.5205  -19.4797   24.4865 C   0  0  1  0  0  0  0  0  0  0  0  0
    6.2767  -20.3460   24.2557 C   0  0  0  0  0  0  0  0  0  0  0  0
    5.6786  -20.1579   22.5523 S   0  0  0  0  0  0  0  0  0  0  0  0
    8.7000  -20.3184   24.7684 C   0  0  0  0  0  0  0  0  0  0  0  0
    9.3573  -20.9760   23.9468 O   0  0  0  0  0  0  0  0  0  0  0  0
    9.1590  -20.3993   26.1401 N   0  0  0  0  0  0  0  0  0  0  0  0
   10.5369  -20.1006   26.4908 C   0  0  1  0  0  0  0  0  0  0  0  0
   10.7190  -18.6074   26.2936 C   0  0  0  0  0  0  0  0  0  0  0  0
   11.4011  -18.3139   25.0135 C   0  0  0  0  0  0  0  0  0  0  0  0
   11.8448  -19.2467   24.1105 C   0  0  0  0  0  0  0  0  0  0  0  0
   12.4073  -18.5824   23.0813 N   0  0  0  0  0  0  0  0  0  0  0  0
   12.3268  -17.2636   23.3170 C   0  0  0  0  0  0  0  0  0  0  0  0
   11.7037  -17.1043   24.5130 N   0  0  0  0  0  0  0  0  0  0  0  0
   10.7137  -20.3612   27.9461 C   0  0  0  0  0  0  0  0  0  0  0  0
   11.9937  -20.3647   28.4534 O   0  0  0  0  0  0  0  0  0  0  0  0
    9.7283  -20.5732   28.6984 O   0  0  0  0  0  0  0  0  0  0  0  0
  2  1  1  1
  2 10  1  0
  3  2  1  0
  4  3  1  0
  4  9  1  0
  5  4  2  0
  6  5  1  0
  6  7  2  0
  7  8  1  0
  8  9  2  0
 10 11  2  0
 12 13  1  0
 12 10  1  0
 13 16  1  0
 14 15  1  0
 13 14  1  6
 16 17  2  0
 18 16  1  0
 18 19  1  0
 19 26  1  0
 19 20  1  1
 21 25  1  0
 21 20  1  0
 22 21  2  0
 23 22  1  0
 23 24  1  0
 24 25  2  0
 26 28  2  0
 26 27  1  0
M  END
$$$$
