FCH.pdb
     RDKit          3D

 28 29  0  0  1  0  0  0  0  0999 V2000
    7.3141  -14.8327   20.7481 N   0  0  0  0  0  0  0  0  0  0  0  0
    7.9152  -14.2653   21.9901 C   0  0  1  0  0  0  0  0  0  0  0  0
    6.7729  -13.6883   22.7267 C   0  0  0  0  0  0  0  0  0  0  0  0
    6.9819  -13.2136   24.0802 C   0  0  0  0  0  0  0  0  0  0  0  0
    6.5033  -13.9292   25.1536 C   0  0  0  0  0  0  0  0  0  0  0  0
    6.6668  -13.5240   26.4657 C   0  0  0  0  0  0  0  0  0  0  0  0
    7.3431  -12.3468   26.6912 C   0  0  0  0  0  0  0  0  0  0  0  0
    7.8317  -11.6127   25.6388 C   0  0  0  0  0  0  0  0  0  0  0  0
    7.6489  -12.0482   24.3509 C   0  0  0  0  0  0  0  0  0  0  0  0
    8.6654  -15.3482   22.5979 C   0  0  0  0  0  0  0  0  0  0  0  0
    8.2630  -16.5650   22.5728 O   0  0  0  0  0  0  0  0  0  0  0  0
    9.9014  -15.1239   23.2574 N   0  0  0  0  0  0  0  0  0  0  0  0
   10.6714  -16.2078   23.8430 C   0  0  1  0  0  0  0  0  0  0  0  0
   12.1674  -15.9103   23.6869 C   0  0  0  0  0  0  0  0  0  0  0  0
   13.1596  -17.2837   24.3379 S   0  0  0  0  0  0  0  0  0  0  0  0
   10.3234  -16.4220   25.2597 C   0  0  0  0  0  0  0  0  0  0  0  0
   10.3362  -15.5728   26.1642 O   0  0  0  0  0  0  0  0  0  0  0  0
    9.9213  -17.7543   25.6625 N   0  0  0  0  0  0  0  0  0  0  0  0
    9.5479  -18.0438   27.0365 C   0  0  1  0  0  0  0  0  0  0  0  0
    8.5801  -19.2110   26.9844 C   0  0  0  0  0  0  0  0  0  0  0  0
    7.4856  -18.9587   26.0210 C   0  0  0  0  0  0  0  0  0  0  0  0
    6.7363  -17.8120   25.9428 C   0  0  0  0  0  0  0  0  0  0  0  0
    5.8476  -17.9731   24.9421 N   0  0  0  0  0  0  0  0  0  0  0  0
    6.0216  -19.1863   24.3952 C   0  0  0  0  0  0  0  0  0  0  0  0
    7.0356  -19.7905   25.0666 N   0  0  0  0  0  0  0  0  0  0  0  0
   10.7585  -18.5279   27.7555 C   0  0  0  0  0  0  0  0  0  0  0  0
   10.6414  -18.8258   29.0947 O   0  0  0  0  0  0  0  0  0  0  0  0
   11.8608  -18.6640   27.1653 O   0  0  0  0  0  0  0  0  0  0  0  0
  2  1  1  6
  2 10  1  0
  3  2  1  0
  4  3  1  0
  4  9  1  0
  5  4  2  0
  6  5  1  0
  6  7  2  0
  7  8  1  0
  8  9  2  0
 10 11  2  0
 12 13  1  0
 12 10  1  0
 13 16  1  0
 14 15  1  0
 13 14  1  1
 16 17  2  0
 18 16  1  0
 18 19  1  0
 19 26  1  0
 19 20  1  6
 21 25  1  0
 21 20  1  0
 22 21  2  0
 23 22  1  0
 23 24  1  0
 24 25  2  0
 26 28  2  0
 26 27  1  0
M  END
$$$$
