MGN.pdb
     RDKit          3D

 21 20  0  0  1  0  0  0  0  0999 V2000
   31.2966  -22.8911  -10.7890 C   0  0  0  0  0  0  0  0  0  0  0  0
   30.7585  -21.7318   -9.5060 S   0  0  0  0  0  0  0  0  0  0  0  0
   29.0327  -21.2856   -9.8117 C   0  0  0  0  0  0  0  0  0  0  0  0
   28.8659  -20.8453  -11.2493 C   0  0  0  0  0  0  0  0  0  0  0  0
   27.4251  -20.4626  -11.4417 C   0  0  2  0  0  0  0  0  0  0  0  0
   26.5747  -21.5239  -11.0032 N   0  0  0  0  0  0  0  0  0  0  0  0
   27.1124  -20.0893  -12.8362 C   0  0  0  0  0  0  0  0  0  0  0  0
   27.8032  -19.2639  -13.4970 O   0  0  0  0  0  0  0  0  0  0  0  0
   26.0050  -20.6592  -13.4831 N   0  0  0  0  0  0  0  0  0  0  0  0
   25.6615  -20.3640  -14.8752 C   0  0  0  0  0  0  0  0  0  0  0  0
   24.5116  -21.2026  -15.2846 C   0  0  0  0  0  0  0  0  0  0  0  0
   23.9288  -20.9800  -16.3824 O   0  0  0  0  0  0  0  0  0  0  0  0
   21.5837  -26.1266  -15.0455 N   0  0  0  0  0  0  0  0  0  0  0  0
   21.4041  -24.9165  -14.3234 C   0  0  0  0  0  0  0  0  0  0  0  0
   20.2282  -24.5626  -14.0640 O   0  0  0  0  0  0  0  0  0  0  0  0
   22.5927  -24.1556  -13.9251 C   0  0  0  0  0  0  0  0  0  0  0  0
   22.8372  -22.9599  -14.8396 C   0  0  2  0  0  0  0  0  0  0  0  0
   24.0303  -22.2551  -14.4922 N   0  0  0  0  0  0  0  0  0  0  0  0
   21.6106  -22.1146  -14.7317 C   0  0  0  0  0  0  0  0  0  0  0  0
   21.4009  -21.3150  -13.7917 O   0  0  0  0  0  0  0  0  0  0  0  0
   20.6702  -22.2447  -15.7436 O   0  0  0  0  0  0  0  0  0  0  0  0
  2  1  1  0
  3  2  1  0
  4  5  1  0
  4  3  1  0
  5  6  1  6
  7  5  1  0
  7  8  2  0
  9  7  1  0
 10  9  1  0
 10 11  1  0
 11 18  1  0
 12 11  2  0
 13 14  1  0
 14 16  1  0
 15 14  2  0
 17 16  1  1
 17 19  1  0
 18 17  1  0
 19 21  1  0
 20 19  2  0
M  END
$$$$
