MGN.pdb
     RDKit          3D

 21 20  0  0  1  0  0  0  0  0999 V2000
   28.3691  -18.3749   -5.1529 C   0  0  0  0  0  0  0  0  0  0  0  0
   28.4173  -20.1357   -4.7320 S   0  0  0  0  0  0  0  0  0  0  0  0
   28.4949  -21.0975   -6.2616 C   0  0  0  0  0  0  0  0  0  0  0  0
   27.8541  -20.3178   -7.3885 C   0  0  0  0  0  0  0  0  0  0  0  0
   27.9677  -21.1484   -8.6361 C   0  0  2  0  0  0  0  0  0  0  0  0
   29.3327  -21.5043   -8.8639 N   0  0  0  0  0  0  0  0  0  0  0  0
   27.4005  -20.4788   -9.8242 C   0  0  0  0  0  0  0  0  0  0  0  0
   28.0281  -19.6032  -10.4835 O   0  0  0  0  0  0  0  0  0  0  0  0
   26.1092  -20.8077  -10.2648 N   0  0  0  0  0  0  0  0  0  0  0  0
   25.3536  -19.9722  -11.1998 C   0  0  0  0  0  0  0  0  0  0  0  0
   24.0346  -20.5944  -11.4572 C   0  0  0  0  0  0  0  0  0  0  0  0
   23.4210  -21.1797  -10.5217 O   0  0  0  0  0  0  0  0  0  0  0  0
   19.3075  -20.3921  -13.2160 N   0  0  0  0  0  0  0  0  0  0  0  0
   20.0517  -19.3086  -13.7549 C   0  0  0  0  0  0  0  0  0  0  0  0
   19.4109  -18.3742  -14.2950 O   0  0  0  0  0  0  0  0  0  0  0  0
   21.5139  -19.3426  -13.6504 C   0  0  0  0  0  0  0  0  0  0  0  0
   22.0008  -20.5485  -12.8539 C   0  0  2  0  0  0  0  0  0  0  0  0
   23.4229  -20.5624  -12.7189 N   0  0  0  0  0  0  0  0  0  0  0  0
   21.4739  -21.7453  -13.5754 C   0  0  0  0  0  0  0  0  0  0  0  0
   20.3939  -22.3084  -13.2865 O   0  0  0  0  0  0  0  0  0  0  0  0
   22.2458  -22.2372  -14.6183 O   0  0  0  0  0  0  0  0  0  0  0  0
  2  1  1  0
  3  2  1  0
  4  5  1  0
  4  3  1  0
  5  6  1  6
  7  5  1  0
  7  8  2  0
  9  7  1  0
 10  9  1  0
 10 11  1  0
 11 18  1  0
 12 11  2  0
 13 14  1  0
 14 16  1  0
 15 14  2  0
 17 16  1  6
 17 19  1  0
 18 17  1  0
 19 21  1  0
 20 19  2  0
M  END
$$$$
