MGN.pdb
     RDKit          3D

 21 20  0  0  1  0  0  0  0  0999 V2000
   24.1588  -20.2539   -9.3888 C   0  0  0  0  0  0  0  0  0  0  0  0
   25.8188  -20.9753   -9.4506 S   0  0  0  0  0  0  0  0  0  0  0  0
   26.3824  -20.9915  -11.1691 C   0  0  0  0  0  0  0  0  0  0  0  0
   25.3771  -20.2747  -12.0432 C   0  0  0  0  0  0  0  0  0  0  0  0
   25.7125  -20.5924  -13.4735 C   0  0  2  0  0  0  0  0  0  0  0  0
   25.3788  -21.9512  -13.7637 N   0  0  0  0  0  0  0  0  0  0  0  0
   27.1268  -20.3232  -13.8041 C   0  0  0  0  0  0  0  0  0  0  0  0
   27.6943  -19.2244  -13.5476 O   0  0  0  0  0  0  0  0  0  0  0  0
   27.9006  -21.3118  -14.4316 N   0  0  0  0  0  0  0  0  0  0  0  0
   28.1432  -21.3311  -15.8752 C   0  0  0  0  0  0  0  0  0  0  0  0
   27.3732  -22.4385  -16.4867 C   0  0  0  0  0  0  0  0  0  0  0  0
   26.3397  -22.1867  -17.1668 O   0  0  0  0  0  0  0  0  0  0  0  0
   29.8244  -27.1068  -16.4528 N   0  0  0  0  0  0  0  0  0  0  0  0
   28.8133  -26.4158  -17.1727 C   0  0  0  0  0  0  0  0  0  0  0  0
   29.0932  -26.0136  -18.3282 O   0  0  0  0  0  0  0  0  0  0  0  0
   27.5107  -26.2132  -16.5306 C   0  0  0  0  0  0  0  0  0  0  0  0
   26.9278  -24.8392  -16.8441 C   0  0  2  0  0  0  0  0  0  0  0  0
   27.7476  -23.7825  -16.3421 N   0  0  0  0  0  0  0  0  0  0  0  0
   25.5560  -24.8410  -16.2537 C   0  0  0  0  0  0  0  0  0  0  0  0
   25.2099  -24.1037  -15.3031 O   0  0  0  0  0  0  0  0  0  0  0  0
   24.6365  -25.7186  -16.8103 O   0  0  0  0  0  0  0  0  0  0  0  0
  2  1  1  0
  3  2  1  0
  4  5  1  0
  4  3  1  0
  5  6  1  1
  7  5  1  0
  7  8  2  0
  9  7  1  0
 10  9  1  0
 10 11  1  0
 11 18  1  0
 12 11  2  0
 13 14  1  0
 14 16  1  0
 15 14  2  0
 17 16  1  1
 17 19  1  0
 18 17  1  0
 19 21  1  0
 20 19  2  0
M  END
$$$$
