MGN.pdb
     RDKit          3D

 21 20  0  0  1  0  0  0  0  0999 V2000
   31.3512  -21.8973  -11.3203 C   0  0  0  0  0  0  0  0  0  0  0  0
   30.7138  -20.2866  -11.8488 S   0  0  0  0  0  0  0  0  0  0  0  0
   29.9326  -20.4733  -13.4692 C   0  0  0  0  0  0  0  0  0  0  0  0
   28.6253  -21.2203  -13.3231 C   0  0  0  0  0  0  0  0  0  0  0  0
   27.6349  -20.2814  -12.6931 C   0  0  2  0  0  0  0  0  0  0  0  0
   28.2365  -19.6065  -11.5867 N   0  0  0  0  0  0  0  0  0  0  0  0
   26.3903  -20.9577  -12.2743 C   0  0  0  0  0  0  0  0  0  0  0  0
   25.5788  -21.4713  -13.0947 O   0  0  0  0  0  0  0  0  0  0  0  0
   26.0666  -21.0495  -10.9117 N   0  0  0  0  0  0  0  0  0  0  0  0
   24.7878  -21.5789  -10.4345 C   0  0  0  0  0  0  0  0  0  0  0  0
   23.6813  -20.9210  -11.1666 C   0  0  0  0  0  0  0  0  0  0  0  0
   23.2467  -19.8012  -10.7774 O   0  0  0  0  0  0  0  0  0  0  0  0
   20.5565  -19.3998  -14.8261 N   0  0  0  0  0  0  0  0  0  0  0  0
   21.8748  -18.8880  -14.6919 C   0  0  0  0  0  0  0  0  0  0  0  0
   22.1731  -17.8665  -15.3575 O   0  0  0  0  0  0  0  0  0  0  0  0
   22.8049  -19.5760  -13.7909 C   0  0  0  0  0  0  0  0  0  0  0  0
   22.1508  -20.7656  -13.0961 C   0  0  2  0  0  0  0  0  0  0  0  0
   23.0817  -21.4968  -12.2963 N   0  0  0  0  0  0  0  0  0  0  0  0
   21.5513  -21.5887  -14.1887 C   0  0  0  0  0  0  0  0  0  0  0  0
   20.5662  -21.2242  -14.8696 O   0  0  0  0  0  0  0  0  0  0  0  0
   22.1401  -22.8199  -14.4395 O   0  0  0  0  0  0  0  0  0  0  0  0
  2  1  1  0
  3  2  1  0
  4  5  1  0
  4  3  1  0
  5  6  1  1
  7  5  1  0
  7  8  2  0
  9  7  1  0
 10  9  1  0
 10 11  1  0
 11 18  1  0
 12 11  2  0
 13 14  1  0
 14 16  1  0
 15 14  2  0
 17 16  1  6
 17 19  1  0
 18 17  1  0
 19 21  1  0
 20 19  2  0
M  END
$$$$
