MGN.pdb
     RDKit          3D

 21 20  0  0  1  0  0  0  0  0999 V2000
   27.5259  -18.2185   -5.5334 C   0  0  0  0  0  0  0  0  0  0  0  0
   28.5114  -19.7114   -5.8157 S   0  0  0  0  0  0  0  0  0  0  0  0
   27.6863  -20.7254   -7.0654 C   0  0  0  0  0  0  0  0  0  0  0  0
   27.2469  -19.8542   -8.2215 C   0  0  0  0  0  0  0  0  0  0  0  0
   26.5472  -20.7389   -9.2150 C   0  0  2  0  0  0  0  0  0  0  0  0
   27.4126  -21.8026   -9.6170 N   0  0  0  0  0  0  0  0  0  0  0  0
   26.0530  -19.9983  -10.3936 C   0  0  0  0  0  0  0  0  0  0  0  0
   25.1888  -19.0806  -10.3146 O   0  0  0  0  0  0  0  0  0  0  0  0
   26.5455  -20.3048  -11.6715 N   0  0  0  0  0  0  0  0  0  0  0  0
   26.1489  -19.5669  -12.8722 C   0  0  0  0  0  0  0  0  0  0  0  0
   24.7761  -19.9642  -13.2604 C   0  0  0  0  0  0  0  0  0  0  0  0
   24.1105  -19.2392  -14.0514 O   0  0  0  0  0  0  0  0  0  0  0  0
   24.6951  -24.5198  -14.0561 N   0  0  0  0  0  0  0  0  0  0  0  0
   23.6915  -23.5849  -14.4263 C   0  0  0  0  0  0  0  0  0  0  0  0
   23.6261  -23.2489  -15.6338 O   0  0  0  0  0  0  0  0  0  0  0  0
   22.7962  -23.0698  -13.3855 C   0  0  0  0  0  0  0  0  0  0  0  0
   22.8882  -21.5532  -13.2536 C   0  0  2  0  0  0  0  0  0  0  0  0
   24.1688  -21.1336  -12.7797 N   0  0  0  0  0  0  0  0  0  0  0  0
   21.7735  -21.1615  -12.3400 C   0  0  0  0  0  0  0  0  0  0  0  0
   21.9495  -20.7211  -11.1816 O   0  0  0  0  0  0  0  0  0  0  0  0
   20.4832  -21.3048  -12.8301 O   0  0  0  0  0  0  0  0  0  0  0  0
  2  1  1  0
  3  2  1  0
  4  5  1  0
  4  3  1  0
  5  6  1  6
  7  5  1  0
  7  8  2  0
  9  7  1  0
 10  9  1  0
 10 11  1  0
 11 18  1  0
 12 11  2  0
 13 14  1  0
 14 16  1  0
 15 14  2  0
 17 16  1  1
 17 19  1  0
 18 17  1  0
 19 21  1  0
 20 19  2  0
M  END
$$$$
