MGN.pdb
     RDKit          3D

 21 20  0  0  1  0  0  0  0  0999 V2000
   29.0749  -18.8470   -5.3448 C   0  0  0  0  0  0  0  0  0  0  0  0
   28.0675  -20.3340   -5.1137 S   0  0  0  0  0  0  0  0  0  0  0  0
   26.4883  -20.1050   -5.9649 C   0  0  0  0  0  0  0  0  0  0  0  0
   26.4486  -20.9656   -7.2083 C   0  0  0  0  0  0  0  0  0  0  0  0
   27.1570  -20.2155   -8.3013 C   0  0  2  0  0  0  0  0  0  0  0  0
   26.4682  -18.9955   -8.5828 N   0  0  0  0  0  0  0  0  0  0  0  0
   27.3206  -21.0152   -9.5324 C   0  0  0  0  0  0  0  0  0  0  0  0
   27.7669  -22.1967   -9.5290 O   0  0  0  0  0  0  0  0  0  0  0  0
   26.9741  -20.4658  -10.7766 N   0  0  0  0  0  0  0  0  0  0  0  0
   27.2244  -21.1537  -12.0444 C   0  0  0  0  0  0  0  0  0  0  0  0
   25.9879  -21.1444  -12.8593 C   0  0  0  0  0  0  0  0  0  0  0  0
   26.0598  -20.9990  -14.1115 O   0  0  0  0  0  0  0  0  0  0  0  0
   21.7398  -22.3964  -15.5425 N   0  0  0  0  0  0  0  0  0  0  0  0
   21.6343  -22.3725  -14.1260 C   0  0  0  0  0  0  0  0  0  0  0  0
   20.4896  -22.2344  -13.6299 O   0  0  0  0  0  0  0  0  0  0  0  0
   22.8583  -22.5093  -13.3301 C   0  0  0  0  0  0  0  0  0  0  0  0
   23.5303  -21.1631  -13.0813 C   0  0  2  0  0  0  0  0  0  0  0  0
   24.7138  -21.2931  -12.2920 N   0  0  0  0  0  0  0  0  0  0  0  0
   22.4903  -20.3092  -12.4333 C   0  0  0  0  0  0  0  0  0  0  0  0
   22.3376  -20.2243  -11.1938 O   0  0  0  0  0  0  0  0  0  0  0  0
   21.6633  -19.5818  -13.2773 O   0  0  0  0  0  0  0  0  0  0  0  0
  2  1  1  0
  3  2  1  0
  4  5  1  0
  4  3  1  0
  5  6  1  6
  7  5  1  0
  7  8  2  0
  9  7  1  0
 10  9  1  0
 10 11  1  0
 11 18  1  0
 12 11  2  0
 13 14  1  0
 14 16  1  0
 15 14  2  0
 17 16  1  1
 17 19  1  0
 18 17  1  0
 19 21  1  0
 20 19  2  0
M  END
$$$$
