MGN.pdb
     RDKit          3D

 21 20  0  0  1  0  0  0  0  0999 V2000
   28.6973  -20.4213   -5.1308 C   0  0  0  0  0  0  0  0  0  0  0  0
   28.0433  -18.9371   -5.9364 S   0  0  0  0  0  0  0  0  0  0  0  0
   26.6167  -19.4035   -6.9454 C   0  0  0  0  0  0  0  0  0  0  0  0
   27.0080  -20.5057   -7.9049 C   0  0  0  0  0  0  0  0  0  0  0  0
   26.2648  -20.2723   -9.1904 C   0  0  2  0  0  0  0  0  0  0  0  0
   24.9090  -20.7034   -9.0564 N   0  0  0  0  0  0  0  0  0  0  0  0
   26.9053  -20.9262  -10.3497 C   0  0  0  0  0  0  0  0  0  0  0  0
   27.9873  -21.5718  -10.2621 O   0  0  0  0  0  0  0  0  0  0  0  0
   26.3102  -20.8441  -11.6181 N   0  0  0  0  0  0  0  0  0  0  0  0
   25.5707  -21.9549  -12.2203 C   0  0  0  0  0  0  0  0  0  0  0  0
   24.3121  -21.4433  -12.8096 C   0  0  0  0  0  0  0  0  0  0  0  0
   24.3398  -20.8092  -13.9011 O   0  0  0  0  0  0  0  0  0  0  0  0
   20.1097  -23.4239  -10.5466 N   0  0  0  0  0  0  0  0  0  0  0  0
   20.3862  -22.8752  -11.8274 C   0  0  0  0  0  0  0  0  0  0  0  0
   20.4001  -23.6607  -12.8064 O   0  0  0  0  0  0  0  0  0  0  0  0
   20.6377  -21.4344  -11.9327 C   0  0  0  0  0  0  0  0  0  0  0  0
   21.8644  -21.1305  -12.7862 C   0  0  2  0  0  0  0  0  0  0  0  0
   23.0645  -21.6351  -12.1980 N   0  0  0  0  0  0  0  0  0  0  0  0
   21.8789  -19.6465  -12.9540 C   0  0  0  0  0  0  0  0  0  0  0  0
   22.5240  -18.8717  -12.2121 O   0  0  0  0  0  0  0  0  0  0  0  0
   21.1265  -19.1276  -13.9981 O   0  0  0  0  0  0  0  0  0  0  0  0
  2  1  1  0
  3  2  1  0
  4  5  1  0
  4  3  1  0
  5  6  1  1
  7  5  1  0
  7  8  2  0
  9  7  1  0
 10  9  1  0
 10 11  1  0
 11 18  1  0
 12 11  2  0
 13 14  1  0
 14 16  1  0
 15 14  2  0
 17 16  1  1
 17 19  1  0
 18 17  1  0
 19 21  1  0
 20 19  2  0
M  END
$$$$
