MGN.pdb
     RDKit          3D

 21 20  0  0  1  0  0  0  0  0999 V2000
   32.3951  -22.4627   -8.4122 C   0  0  0  0  0  0  0  0  0  0  0  0
   32.2964  -21.5835   -9.9923 S   0  0  0  0  0  0  0  0  0  0  0  0
   30.7489  -22.0337  -10.8129 C   0  0  0  0  0  0  0  0  0  0  0  0
   29.5864  -21.3642  -10.1138 C   0  0  0  0  0  0  0  0  0  0  0  0
   28.3231  -21.8574  -10.7620 C   0  0  2  0  0  0  0  0  0  0  0  0
   28.3538  -21.5836  -12.1641 N   0  0  0  0  0  0  0  0  0  0  0  0
   27.1049  -21.2900  -10.1488 C   0  0  0  0  0  0  0  0  0  0  0  0
   26.9913  -21.0894   -8.9070 O   0  0  0  0  0  0  0  0  0  0  0  0
   26.0079  -20.9489  -10.9549 N   0  0  0  0  0  0  0  0  0  0  0  0
   24.8207  -20.2700  -10.4324 C   0  0  0  0  0  0  0  0  0  0  0  0
   23.8721  -20.0187  -11.5415 C   0  0  0  0  0  0  0  0  0  0  0  0
   22.7058  -19.6046  -11.2912 O   0  0  0  0  0  0  0  0  0  0  0  0
   26.2542  -19.0433  -15.1870 N   0  0  0  0  0  0  0  0  0  0  0  0
   24.8666  -18.7577  -15.2924 C   0  0  0  0  0  0  0  0  0  0  0  0
   24.5255  -17.5531  -15.3809 O   0  0  0  0  0  0  0  0  0  0  0  0
   23.9192  -19.8769  -15.2919 C   0  0  0  0  0  0  0  0  0  0  0  0
   23.2569  -20.0630  -13.9309 C   0  0  2  0  0  0  0  0  0  0  0  0
   24.2172  -20.2235  -12.8855 N   0  0  0  0  0  0  0  0  0  0  0  0
   22.3576  -21.2459  -14.0805 C   0  0  0  0  0  0  0  0  0  0  0  0
   22.6057  -22.3711  -13.5914 O   0  0  0  0  0  0  0  0  0  0  0  0
   21.1904  -21.0565  -14.8067 O   0  0  0  0  0  0  0  0  0  0  0  0
  2  1  1  0
  3  2  1  0
  4  5  1  0
  4  3  1  0
  5  6  1  6
  7  5  1  0
  7  8  2  0
  9  7  1  0
 10  9  1  0
 10 11  1  0
 11 18  1  0
 12 11  2  0
 13 14  1  0
 14 16  1  0
 15 14  2  0
 17 16  1  6
 17 19  1  0
 18 17  1  0
 19 21  1  0
 20 19  2  0
M  END
$$$$
