MGN.pdb
     RDKit          3D

 21 20  0  0  1  0  0  0  0  0999 V2000
   29.1859  -18.9083   -6.1428 C   0  0  0  0  0  0  0  0  0  0  0  0
   27.8277  -19.9482   -5.5482 S   0  0  0  0  0  0  0  0  0  0  0  0
   26.5409  -20.0066   -6.8177 C   0  0  0  0  0  0  0  0  0  0  0  0
   27.1652  -20.2959   -8.1649 C   0  0  0  0  0  0  0  0  0  0  0  0
   26.0641  -20.2769   -9.1880 C   0  0  2  0  0  0  0  0  0  0  0  0
   25.0724  -21.2509   -8.8571 N   0  0  0  0  0  0  0  0  0  0  0  0
   26.5572  -20.4849  -10.5647 C   0  0  0  0  0  0  0  0  0  0  0  0
   26.8088  -19.5323  -11.3549 O   0  0  0  0  0  0  0  0  0  0  0  0
   26.7648  -21.7870  -11.0458 N   0  0  0  0  0  0  0  0  0  0  0  0
   25.8634  -22.4320  -12.0021 C   0  0  0  0  0  0  0  0  0  0  0  0
   25.5134  -21.4693  -13.0716 C   0  0  0  0  0  0  0  0  0  0  0  0
   26.2213  -21.4020  -14.1150 O   0  0  0  0  0  0  0  0  0  0  0  0
   21.7845  -22.6563  -13.1569 N   0  0  0  0  0  0  0  0  0  0  0  0
   21.2478  -21.3568  -12.9536 C   0  0  0  0  0  0  0  0  0  0  0  0
   20.1240  -21.2712  -12.4012 O   0  0  0  0  0  0  0  0  0  0  0  0
   22.0304  -20.1986  -13.3967 C   0  0  0  0  0  0  0  0  0  0  0  0
   23.3822  -20.6097  -13.9707 C   0  0  2  0  0  0  0  0  0  0  0  0
   24.4081  -20.6110  -12.9767 N   0  0  0  0  0  0  0  0  0  0  0  0
   23.6532  -19.6520  -15.0844 C   0  0  0  0  0  0  0  0  0  0  0  0
   24.4800  -18.7155  -15.0068 O   0  0  0  0  0  0  0  0  0  0  0  0
   22.9338  -19.8359  -16.2566 O   0  0  0  0  0  0  0  0  0  0  0  0
  2  1  1  0
  3  2  1  0
  4  5  1  0
  4  3  1  0
  5  6  1  1
  7  5  1  0
  7  8  2  0
  9  7  1  0
 10  9  1  0
 10 11  1  0
 11 18  1  0
 12 11  2  0
 13 14  1  0
 14 16  1  0
 15 14  2  0
 17 16  1  1
 17 19  1  0
 18 17  1  0
 19 21  1  0
 20 19  2  0
M  END
$$$$
