MGN.pdb
     RDKit          3D

 21 20  0  0  1  0  0  0  0  0999 V2000
   26.8718  -17.3783  -15.6806 C   0  0  0  0  0  0  0  0  0  0  0  0
   25.6781  -16.1363  -16.2392 S   0  0  0  0  0  0  0  0  0  0  0  0
   24.6319  -15.6648  -14.8413 C   0  0  0  0  0  0  0  0  0  0  0  0
   23.6023  -14.6524  -15.2923 C   0  0  0  0  0  0  0  0  0  0  0  0
   24.3436  -13.4425  -15.7884 C   0  0  2  0  0  0  0  0  0  0  0  0
   25.1140  -12.8726  -14.7284 N   0  0  0  0  0  0  0  0  0  0  0  0
   23.4510  -12.4280  -16.3849 C   0  0  0  0  0  0  0  0  0  0  0  0
   22.6729  -12.6794  -17.3475 O   0  0  0  0  0  0  0  0  0  0  0  0
   23.4444  -11.1176  -15.8824 N   0  0  0  0  0  0  0  0  0  0  0  0
   22.5711  -10.0693  -16.4133 C   0  0  0  0  0  0  0  0  0  0  0  0
   22.7650   -8.8271  -15.6306 C   0  0  0  0  0  0  0  0  0  0  0  0
   23.5046   -8.8365  -14.6073 O   0  0  0  0  0  0  0  0  0  0  0  0
   21.4863   -4.3871  -18.2593 N   0  0  0  0  0  0  0  0  0  0  0  0
   22.3283   -4.9903  -17.2871 C   0  0  0  0  0  0  0  0  0  0  0  0
   23.4855   -5.3205  -17.6438 O   0  0  0  0  0  0  0  0  0  0  0  0
   21.8024   -5.1914  -15.9332 C   0  0  0  0  0  0  0  0  0  0  0  0
   22.4177   -6.4126  -15.2579 C   0  0  2  0  0  0  0  0  0  0  0  0
   22.1522   -7.6153  -15.9817 N   0  0  0  0  0  0  0  0  0  0  0  0
   21.8565   -6.4313  -13.8740 C   0  0  0  0  0  0  0  0  0  0  0  0
   21.0560   -7.3013  -13.4627 O   0  0  0  0  0  0  0  0  0  0  0  0
   22.2633   -5.4159  -13.0202 O   0  0  0  0  0  0  0  0  0  0  0  0
  2  1  1  0
  3  2  1  0
  4  5  1  0
  4  3  1  0
  5  6  1  1
  7  5  1  0
  7  8  2  0
  9  7  1  0
 10  9  1  0
 10 11  1  0
 11 18  1  0
 12 11  2  0
 13 14  1  0
 14 16  1  0
 15 14  2  0
 17 16  1  6
 17 19  1  0
 18 17  1  0
 19 21  1  0
 20 19  2  0
M  END
$$$$
