MGN.pdb
     RDKit          3D

 21 20  0  0  1  0  0  0  0  0999 V2000
   16.9130  -18.1835  -15.5461 C   0  0  0  0  0  0  0  0  0  0  0  0
   17.5334  -16.8981  -16.6609 S   0  0  0  0  0  0  0  0  0  0  0  0
   17.3572  -15.2908  -15.8507 C   0  0  0  0  0  0  0  0  0  0  0  0
   17.7589  -14.1898  -16.8071 C   0  0  0  0  0  0  0  0  0  0  0  0
   18.7118  -13.2830  -16.0797 C   0  0  2  0  0  0  0  0  0  0  0  0
   18.3474  -13.1960  -14.7007 N   0  0  0  0  0  0  0  0  0  0  0  0
   18.7935  -11.9363  -16.6810 C   0  0  0  0  0  0  0  0  0  0  0  0
   19.1564  -11.7386  -17.8745 O   0  0  0  0  0  0  0  0  0  0  0  0
   18.4604  -10.8064  -15.9180 N   0  0  0  0  0  0  0  0  0  0  0  0
   18.4479   -9.4513  -16.4719 C   0  0  0  0  0  0  0  0  0  0  0  0
   18.9946   -8.5075  -15.4701 C   0  0  0  0  0  0  0  0  0  0  0  0
   18.7838   -8.7022  -14.2405 O   0  0  0  0  0  0  0  0  0  0  0  0
   22.3157   -6.0938  -12.2179 N   0  0  0  0  0  0  0  0  0  0  0  0
   22.1313   -5.6193  -13.5442 C   0  0  0  0  0  0  0  0  0  0  0  0
   22.3616   -4.4055  -13.7653 O   0  0  0  0  0  0  0  0  0  0  0  0
   21.6861   -6.5664  -14.5713 C   0  0  0  0  0  0  0  0  0  0  0  0
   20.1930   -6.4400  -14.8549 C   0  0  2  0  0  0  0  0  0  0  0  0
   19.7518   -7.3837  -15.8323 N   0  0  0  0  0  0  0  0  0  0  0  0
   19.9836   -5.0233  -15.2789 C   0  0  0  0  0  0  0  0  0  0  0  0
   20.0831   -4.6331  -16.4641 O   0  0  0  0  0  0  0  0  0  0  0  0
   19.6623   -4.1130  -14.2822 O   0  0  0  0  0  0  0  0  0  0  0  0
  2  1  1  0
  3  2  1  0
  4  5  1  0
  4  3  1  0
  5  6  1  1
  7  5  1  0
  7  8  2  0
  9  7  1  0
 10  9  1  0
 10 11  1  0
 11 18  1  0
 12 11  2  0
 13 14  1  0
 14 16  1  0
 15 14  2  0
 17 16  1  6
 17 19  1  0
 18 17  1  0
 19 21  1  0
 20 19  2  0
M  END
$$$$
