MGN.pdb
     RDKit          3D

 21 20  0  0  1  0  0  0  0  0999 V2000
   21.6347  -12.7234  -23.8714 C   0  0  0  0  0  0  0  0  0  0  0  0
   20.2108  -13.4108  -22.9884 S   0  0  0  0  0  0  0  0  0  0  0  0
   19.8411  -12.3537  -21.5683 C   0  0  0  0  0  0  0  0  0  0  0  0
   21.1259  -11.9741  -20.8658 C   0  0  0  0  0  0  0  0  0  0  0  0
   21.0453  -12.4984  -19.4594 C   0  0  2  0  0  0  0  0  0  0  0  0
   19.6876  -12.7911  -19.1238 N   0  0  0  0  0  0  0  0  0  0  0  0
   21.6377  -11.5764  -18.4691 C   0  0  0  0  0  0  0  0  0  0  0  0
   22.8483  -11.2178  -18.5035 O   0  0  0  0  0  0  0  0  0  0  0  0
   20.8466  -11.0593  -17.4316 N   0  0  0  0  0  0  0  0  0  0  0  0
   21.3719  -10.1496  -16.4119 C   0  0  0  0  0  0  0  0  0  0  0  0
   20.9261   -8.7692  -16.7103 C   0  0  0  0  0  0  0  0  0  0  0  0
   21.1387   -8.2714  -17.8510 O   0  0  0  0  0  0  0  0  0  0  0  0
   16.8517   -4.6041  -15.3431 N   0  0  0  0  0  0  0  0  0  0  0  0
   17.7569   -5.2344  -16.2383 C   0  0  0  0  0  0  0  0  0  0  0  0
   18.0771   -4.6091  -17.2784 O   0  0  0  0  0  0  0  0  0  0  0  0
   18.2620   -6.5687  -15.8995 C   0  0  0  0  0  0  0  0  0  0  0  0
   19.7698   -6.6760  -16.1013 C   0  0  2  0  0  0  0  0  0  0  0  0
   20.2644   -7.9730  -15.7639 N   0  0  0  0  0  0  0  0  0  0  0  0
   20.3648   -5.5914  -15.2646 C   0  0  0  0  0  0  0  0  0  0  0  0
   20.3000   -4.3761  -15.5574 O   0  0  0  0  0  0  0  0  0  0  0  0
   21.0189   -5.9832  -14.1052 O   0  0  0  0  0  0  0  0  0  0  0  0
  2  1  1  0
  3  2  1  0
  4  5  1  0
  4  3  1  0
  5  6  1  1
  7  5  1  0
  7  8  2  0
  9  7  1  0
 10  9  1  0
 10 11  1  0
 11 18  1  0
 12 11  2  0
 13 14  1  0
 14 16  1  0
 15 14  2  0
 17 16  1  1
 17 19  1  0
 18 17  1  0
 19 21  1  0
 20 19  2  0
M  END
$$$$
