LSN.pdb
     RDKit          3D

 23 22  0  0  1  0  0  0  0  0999 V2000
    9.3645  -12.6255   19.5230 C   0  0  0  0  0  0  0  0  0  0  0  0
    8.0706  -13.3408   19.7226 C   0  0  2  0  0  0  0  0  0  0  0  0
    6.8698  -12.4546   19.3911 C   0  0  0  0  0  0  0  0  0  0  0  0
    7.8934  -14.0863   20.9863 C   0  0  0  0  0  0  0  0  0  0  0  0
    8.9218  -15.0469   21.4223 C   0  0  2  0  0  0  0  0  0  0  0  0
    9.2334  -16.1421   20.5754 N   0  0  0  0  0  0  0  0  0  0  0  0
    8.5885  -15.6007   22.7755 C   0  0  0  0  0  0  0  0  0  0  0  0
    7.7535  -14.9856   23.4885 O   0  0  0  0  0  0  0  0  0  0  0  0
   10.0676  -19.2807   24.3468 O   0  0  0  0  0  0  0  0  0  0  0  0
    8.8255  -18.7474   24.6166 C   0  0  0  0  0  0  0  0  0  0  0  0
    8.8162  -17.2292   24.6602 C   0  0  2  0  0  0  0  0  0  0  0  0
    9.1532  -16.7817   23.3143 N   0  0  0  0  0  0  0  0  0  0  0  0
    9.7599  -16.7269   25.6603 C   0  0  0  0  0  0  0  0  0  0  0  0
   10.9212  -16.3702   25.3387 O   0  0  0  0  0  0  0  0  0  0  0  0
    8.6238  -12.9673   27.7647 N   0  0  0  0  0  0  0  0  0  0  0  0
    9.8324  -13.7332   27.8310 C   0  0  0  0  0  0  0  0  0  0  0  0
   10.8422  -13.3924   27.1688 O   0  0  0  0  0  0  0  0  0  0  0  0
    9.8752  -14.9221   28.6835 C   0  0  0  0  0  0  0  0  0  0  0  0
   10.3588  -16.1671   28.0333 C   0  0  2  0  0  0  0  0  0  0  0  0
    9.3906  -16.6248   27.0376 N   0  0  0  0  0  0  0  0  0  0  0  0
   10.6215  -17.2524   29.0226 C   0  0  0  0  0  0  0  0  0  0  0  0
   11.3759  -17.1063   29.9931 O   0  0  0  0  0  0  0  0  0  0  0  0
    9.9993  -18.4777   28.8554 O   0  0  0  0  0  0  0  0  0  0  0  0
  2  3  1  1
  2  1  1  0
  4  2  1  0
  5  6  1  6
  5  4  1  0
  5  7  1  0
  7 12  1  0
  7  8  2  0
  9 10  1  0
 11 10  1  6
 11 13  1  0
 12 11  1  0
 13 20  1  0
 14 13  2  0
 16 15  1  0
 17 16  2  0
 18 16  1  0
 19 18  1  1
 20 19  1  0
 21 19  1  0
 21 23  1  0
 22 21  2  0
M  END
$$$$
