LSN.pdb
     RDKit          3D

 23 22  0  0  1  0  0  0  0  0999 V2000
    6.4133  -12.1218   24.5055 C   0  0  0  0  0  0  0  0  0  0  0  0
    6.1597  -12.8334   25.7919 C   0  0  2  0  0  0  0  0  0  0  0  0
    6.2884  -11.9009   26.9966 C   0  0  0  0  0  0  0  0  0  0  0  0
    6.8441  -14.1266   26.0004 C   0  0  0  0  0  0  0  0  0  0  0  0
    6.7014  -15.2016   25.0033 C   0  0  2  0  0  0  0  0  0  0  0  0
    5.6216  -16.1130   25.1342 N   0  0  0  0  0  0  0  0  0  0  0  0
    7.9640  -16.0052   24.9077 C   0  0  0  0  0  0  0  0  0  0  0  0
    8.2367  -16.8103   25.8358 O   0  0  0  0  0  0  0  0  0  0  0  0
    9.9111  -16.8395   21.3580 O   0  0  0  0  0  0  0  0  0  0  0  0
   10.7120  -16.5235   22.4344 C   0  0  0  0  0  0  0  0  0  0  0  0
   10.0528  -16.7889   23.7768 C   0  0  2  0  0  0  0  0  0  0  0  0
    8.8823  -15.9218   23.8335 N   0  0  0  0  0  0  0  0  0  0  0  0
   10.9825  -16.5321   24.8781 C   0  0  0  0  0  0  0  0  0  0  0  0
   11.5613  -15.4231   24.9966 O   0  0  0  0  0  0  0  0  0  0  0  0
   10.1654  -14.5034   28.6341 N   0  0  0  0  0  0  0  0  0  0  0  0
   11.2036  -15.1408   27.8807 C   0  0  0  0  0  0  0  0  0  0  0  0
   11.9020  -14.4835   27.0718 O   0  0  0  0  0  0  0  0  0  0  0  0
   11.4404  -16.5731   28.0667 C   0  0  0  0  0  0  0  0  0  0  0  0
   12.1706  -17.2560   26.9680 C   0  0  2  0  0  0  0  0  0  0  0  0
   11.2623  -17.5360   25.8567 N   0  0  0  0  0  0  0  0  0  0  0  0
   12.8193  -18.5195   27.4244 C   0  0  0  0  0  0  0  0  0  0  0  0
   12.4951  -19.6333   26.9923 O   0  0  0  0  0  0  0  0  0  0  0  0
   13.8272  -18.4523   28.3710 O   0  0  0  0  0  0  0  0  0  0  0  0
  2  3  1  1
  2  1  1  0
  4  2  1  0
  5  6  1  1
  5  4  1  0
  5  7  1  0
  7 12  1  0
  7  8  2  0
  9 10  1  0
 11 10  1  6
 11 13  1  0
 12 11  1  0
 13 20  1  0
 14 13  2  0
 16 15  1  0
 17 16  2  0
 18 16  1  0
 19 18  1  1
 20 19  1  0
 21 19  1  0
 21 23  1  0
 22 21  2  0
M  END
$$$$
