LSN.pdb
     RDKit          3D

 23 22  0  0  1  0  0  0  0  0999 V2000
    7.8521  -12.9900   17.9386 C   0  0  0  0  0  0  0  0  0  0  0  0
    7.5943  -13.1193   19.4024 C   0  0  2  0  0  0  0  0  0  0  0  0
    7.1755  -11.7892   20.0292 C   0  0  0  0  0  0  0  0  0  0  0  0
    8.6045  -13.8337   20.2105 C   0  0  0  0  0  0  0  0  0  0  0  0
    9.0806  -15.1611   19.7841 C   0  0  2  0  0  0  0  0  0  0  0  0
    8.1273  -16.1220   19.3581 N   0  0  0  0  0  0  0  0  0  0  0  0
    9.9138  -15.7943   20.8584 C   0  0  0  0  0  0  0  0  0  0  0  0
   10.5350  -15.0464   21.6576 O   0  0  0  0  0  0  0  0  0  0  0  0
   11.0350  -19.8369   20.7506 O   0  0  0  0  0  0  0  0  0  0  0  0
   10.8297  -19.2380   21.9749 C   0  0  0  0  0  0  0  0  0  0  0  0
   11.0470  -17.7348   21.9565 C   0  0  2  0  0  0  0  0  0  0  0  0
   10.0523  -17.1914   21.0398 N   0  0  0  0  0  0  0  0  0  0  0  0
   12.4130  -17.4069   21.5448 C   0  0  0  0  0  0  0  0  0  0  0  0
   12.7088  -17.2526   20.3333 O   0  0  0  0  0  0  0  0  0  0  0  0
   13.4853  -14.5572   19.4650 N   0  0  0  0  0  0  0  0  0  0  0  0
   14.5230  -14.6482   20.4482 C   0  0  0  0  0  0  0  0  0  0  0  0
   15.7128  -14.3869   20.1477 O   0  0  0  0  0  0  0  0  0  0  0  0
   14.1772  -15.0510   21.8121 C   0  0  0  0  0  0  0  0  0  0  0  0
   14.6177  -16.4108   22.2163 C   0  0  2  0  0  0  0  0  0  0  0  0
   13.4568  -17.2506   22.5090 N   0  0  0  0  0  0  0  0  0  0  0  0
   15.5314  -16.3785   23.3950 C   0  0  0  0  0  0  0  0  0  0  0  0
   16.6687  -15.8920   23.3483 O   0  0  0  0  0  0  0  0  0  0  0  0
   15.0967  -16.9133   24.5957 O   0  0  0  0  0  0  0  0  0  0  0  0
  2  3  1  1
  2  1  1  0
  4  2  1  0
  5  6  1  1
  5  4  1  0
  5  7  1  0
  7 12  1  0
  7  8  2  0
  9 10  1  0
 11 10  1  6
 11 13  1  0
 12 11  1  0
 13 20  1  0
 14 13  2  0
 16 15  1  0
 17 16  2  0
 18 16  1  0
 19 18  1  1
 20 19  1  0
 21 19  1  0
 21 23  1  0
 22 21  2  0
M  END
$$$$
