LSN.pdb
     RDKit          3D

 23 22  0  0  1  0  0  0  0  0999 V2000
    7.1615  -11.2268   25.6626 C   0  0  0  0  0  0  0  0  0  0  0  0
    6.2180  -12.3824   25.6509 C   0  0  2  0  0  0  0  0  0  0  0  0
    5.2313  -12.3272   26.8175 C   0  0  0  0  0  0  0  0  0  0  0  0
    6.7947  -13.7295   25.4594 C   0  0  0  0  0  0  0  0  0  0  0  0
    7.8495  -13.9401   24.4527 C   0  0  2  0  0  0  0  0  0  0  0  0
    7.5139  -13.8190   23.0792 N   0  0  0  0  0  0  0  0  0  0  0  0
    8.5036  -15.2761   24.6436 C   0  0  0  0  0  0  0  0  0  0  0  0
    8.5022  -15.7881   25.7932 O   0  0  0  0  0  0  0  0  0  0  0  0
   11.2416  -16.8734   21.9208 O   0  0  0  0  0  0  0  0  0  0  0  0
   10.3863  -17.7426   22.5635 C   0  0  0  0  0  0  0  0  0  0  0  0
    9.8881  -17.2221   23.9006 C   0  0  2  0  0  0  0  0  0  0  0  0
    9.1300  -16.0116   23.6089 N   0  0  0  0  0  0  0  0  0  0  0  0
   11.0039  -16.9668   24.8133 C   0  0  0  0  0  0  0  0  0  0  0  0
   11.6344  -15.8802   24.7831 O   0  0  0  0  0  0  0  0  0  0  0  0
   10.6119  -15.1984   29.7151 N   0  0  0  0  0  0  0  0  0  0  0  0
   11.1829  -15.5185   28.4410 C   0  0  0  0  0  0  0  0  0  0  0  0
   12.0529  -14.7758   27.9256 O   0  0  0  0  0  0  0  0  0  0  0  0
   10.7374  -16.7268   27.7454 C   0  0  0  0  0  0  0  0  0  0  0  0
   11.8080  -17.5451   27.1203 C   0  0  2  0  0  0  0  0  0  0  0  0
   11.4129  -17.9464   25.7707 N   0  0  0  0  0  0  0  0  0  0  0  0
   12.1397  -18.7518   27.9323 C   0  0  0  0  0  0  0  0  0  0  0  0
   11.2875  -19.5779   28.2840 O   0  0  0  0  0  0  0  0  0  0  0  0
   13.4537  -18.9641   28.3128 O   0  0  0  0  0  0  0  0  0  0  0  0
  2  3  1  1
  2  1  1  0
  4  2  1  0
  5  6  1  6
  5  4  1  0
  5  7  1  0
  7 12  1  0
  7  8  2  0
  9 10  1  0
 11 10  1  6
 11 13  1  0
 12 11  1  0
 13 20  1  0
 14 13  2  0
 16 15  1  0
 17 16  2  0
 18 16  1  0
 19 18  1  1
 20 19  1  0
 21 19  1  0
 21 23  1  0
 22 21  2  0
M  END
$$$$
