LSN.pdb
     RDKit          3D

 23 22  0  0  1  0  0  0  0  0999 V2000
    6.6204  -12.0113   24.7571 C   0  0  0  0  0  0  0  0  0  0  0  0
    6.2832  -12.9550   25.8622 C   0  0  2  0  0  0  0  0  0  0  0  0
    6.1342  -12.2360   27.2032 C   0  0  0  0  0  0  0  0  0  0  0  0
    7.0842  -14.1924   25.9683 C   0  0  0  0  0  0  0  0  0  0  0  0
    7.0514  -15.1837   24.8791 C   0  0  2  0  0  0  0  0  0  0  0  0
    5.8517  -15.9070   24.6525 N   0  0  0  0  0  0  0  0  0  0  0  0
    8.1593  -16.1818   25.0387 C   0  0  0  0  0  0  0  0  0  0  0  0
    8.0127  -17.1160   25.8691 O   0  0  0  0  0  0  0  0  0  0  0  0
   12.0130  -15.7459   23.3674 O   0  0  0  0  0  0  0  0  0  0  0  0
   11.4096  -16.9847   23.4057 C   0  0  0  0  0  0  0  0  0  0  0  0
   10.4169  -17.1384   24.5450 C   0  0  2  0  0  0  0  0  0  0  0  0
    9.3736  -16.1474   24.3118 N   0  0  0  0  0  0  0  0  0  0  0  0
   11.0724  -16.9538   25.8410 C   0  0  0  0  0  0  0  0  0  0  0  0
   11.1984  -15.8120   26.3503 O   0  0  0  0  0  0  0  0  0  0  0  0
    9.8529  -15.0985   28.5544 N   0  0  0  0  0  0  0  0  0  0  0  0
   11.0410  -15.8294   28.8799 C   0  0  0  0  0  0  0  0  0  0  0  0
   12.0827  -15.2290   29.2388 O   0  0  0  0  0  0  0  0  0  0  0  0
   11.0250  -17.2901   28.7884 C   0  0  0  0  0  0  0  0  0  0  0  0
   12.0812  -17.8965   27.9379 C   0  0  2  0  0  0  0  0  0  0  0  0
   11.5909  -18.0683   26.5709 N   0  0  0  0  0  0  0  0  0  0  0  0
   12.5538  -19.2051   28.4761 C   0  0  0  0  0  0  0  0  0  0  0  0
   11.8910  -20.2465   28.3836 O   0  0  0  0  0  0  0  0  0  0  0  0
   13.7844  -19.2659   29.1072 O   0  0  0  0  0  0  0  0  0  0  0  0
  2  3  1  1
  2  1  1  0
  4  2  1  0
  5  6  1  1
  5  4  1  0
  5  7  1  0
  7 12  1  0
  7  8  2  0
  9 10  1  0
 11 10  1  6
 11 13  1  0
 12 11  1  0
 13 20  1  0
 14 13  2  0
 16 15  1  0
 17 16  2  0
 18 16  1  0
 19 18  1  1
 20 19  1  0
 21 19  1  0
 21 23  1  0
 22 21  2  0
M  END
$$$$
