LSN.pdb
     RDKit          3D

 23 22  0  0  1  0  0  0  0  0999 V2000
    8.3642  -11.6007   20.4616 C   0  0  0  0  0  0  0  0  0  0  0  0
    8.2207  -13.0356   20.0791 C   0  0  2  0  0  0  0  0  0  0  0  0
    7.3557  -13.2112   18.8308 C   0  0  0  0  0  0  0  0  0  0  0  0
    7.8727  -13.9933   21.1494 C   0  0  0  0  0  0  0  0  0  0  0  0
    8.2514  -15.4109   21.0175 C   0  0  2  0  0  0  0  0  0  0  0  0
    7.4435  -16.2599   20.2174 N   0  0  0  0  0  0  0  0  0  0  0  0
    8.3835  -16.0508   22.3674 C   0  0  0  0  0  0  0  0  0  0  0  0
    7.3359  -16.3699   22.9874 O   0  0  0  0  0  0  0  0  0  0  0  0
   10.7612  -18.8778   25.3255 O   0  0  0  0  0  0  0  0  0  0  0  0
   10.6088  -18.1525   24.1634 C   0  0  0  0  0  0  0  0  0  0  0  0
    9.6659  -16.9705   24.3079 C   0  0  2  0  0  0  0  0  0  0  0  0
    9.6191  -16.3255   23.0015 N   0  0  0  0  0  0  0  0  0  0  0  0
   10.1248  -16.0581   25.3568 C   0  0  0  0  0  0  0  0  0  0  0  0
   11.0714  -15.2568   25.1545 O   0  0  0  0  0  0  0  0  0  0  0  0
    7.1814  -13.2326   26.8393 N   0  0  0  0  0  0  0  0  0  0  0  0
    8.5497  -13.2505   27.2626 C   0  0  0  0  0  0  0  0  0  0  0  0
    9.3636  -12.3988   26.8306 O   0  0  0  0  0  0  0  0  0  0  0  0
    8.9884  -14.2778   28.2083 C   0  0  0  0  0  0  0  0  0  0  0  0
   10.0409  -15.2031   27.7159 C   0  0  2  0  0  0  0  0  0  0  0  0
    9.5096  -16.0482   26.6472 N   0  0  0  0  0  0  0  0  0  0  0  0
   10.5966  -16.0544   28.8077 C   0  0  0  0  0  0  0  0  0  0  0  0
   10.5272  -17.2903   28.7951 O   0  0  0  0  0  0  0  0  0  0  0  0
   11.2176  -15.4443   29.8841 O   0  0  0  0  0  0  0  0  0  0  0  0
  2  3  1  6
  2  1  1  0
  4  2  1  0
  5  6  1  6
  5  4  1  0
  5  7  1  0
  7 12  1  0
  7  8  2  0
  9 10  1  0
 11 10  1  6
 11 13  1  0
 12 11  1  0
 13 20  1  0
 14 13  2  0
 16 15  1  0
 17 16  2  0
 18 16  1  0
 19 18  1  1
 20 19  1  0
 21 19  1  0
 21 23  1  0
 22 21  2  0
M  END
$$$$
