LSN.pdb
     RDKit          3D

 23 22  0  0  1  0  0  0  0  0999 V2000
    5.7188  -12.2878   25.2423 C   0  0  0  0  0  0  0  0  0  0  0  0
    6.5009  -13.0081   26.2888 C   0  0  2  0  0  0  0  0  0  0  0  0
    7.2223  -12.0429   27.2297 C   0  0  0  0  0  0  0  0  0  0  0  0
    7.3665  -14.1209   25.8456 C   0  0  0  0  0  0  0  0  0  0  0  0
    6.8140  -15.1840   24.9883 C   0  0  2  0  0  0  0  0  0  0  0  0
    5.7922  -16.0184   25.5111 N   0  0  0  0  0  0  0  0  0  0  0  0
    7.9082  -16.0731   24.4769 C   0  0  0  0  0  0  0  0  0  0  0  0
    8.2766  -17.0438   25.1880 O   0  0  0  0  0  0  0  0  0  0  0  0
   10.7622  -15.0950   21.4768 O   0  0  0  0  0  0  0  0  0  0  0  0
   10.0915  -16.2990   21.4541 C   0  0  0  0  0  0  0  0  0  0  0  0
    9.6548  -16.7735   22.8293 C   0  0  2  0  0  0  0  0  0  0  0  0
    8.5637  -15.8958   23.2347 N   0  0  0  0  0  0  0  0  0  0  0  0
   10.7710  -16.7382   23.7758 C   0  0  0  0  0  0  0  0  0  0  0  0
   11.0060  -15.7159   24.4679 O   0  0  0  0  0  0  0  0  0  0  0  0
   11.7353  -18.3340   28.5025 N   0  0  0  0  0  0  0  0  0  0  0  0
   11.2883  -19.1874   27.4425 C   0  0  0  0  0  0  0  0  0  0  0  0
   11.1859  -20.4254   27.6187 O   0  0  0  0  0  0  0  0  0  0  0  0
   10.9514  -18.5955   26.1470 C   0  0  0  0  0  0  0  0  0  0  0  0
   12.1030  -18.2484   25.2753 C   0  0  2  0  0  0  0  0  0  0  0  0
   11.6313  -17.8674   23.9446 N   0  0  0  0  0  0  0  0  0  0  0  0
   13.0825  -19.3682   25.1656 C   0  0  0  0  0  0  0  0  0  0  0  0
   13.8967  -19.6363   26.0586 O   0  0  0  0  0  0  0  0  0  0  0  0
   13.0878  -20.1451   24.0198 O   0  0  0  0  0  0  0  0  0  0  0  0
  2  3  1  6
  2  1  1  0
  4  2  1  0
  5  6  1  1
  5  4  1  0
  5  7  1  0
  7 12  1  0
  7  8  2  0
  9 10  1  0
 11 10  1  6
 11 13  1  0
 12 11  1  0
 13 20  1  0
 14 13  2  0
 16 15  1  0
 17 16  2  0
 18 16  1  0
 19 18  1  1
 20 19  1  0
 21 19  1  0
 21 23  1  0
 22 21  2  0
M  END
$$$$
