LSN.pdb
     RDKit          3D

 23 22  0  0  1  0  0  0  0  0999 V2000
    6.3648  -11.4716   24.7842 C   0  0  0  0  0  0  0  0  0  0  0  0
    6.3461  -12.4060   25.9469 C   0  0  2  0  0  0  0  0  0  0  0  0
    6.5882  -11.6785   27.2696 C   0  0  0  0  0  0  0  0  0  0  0  0
    7.1345  -13.6508   25.8320 C   0  0  0  0  0  0  0  0  0  0  0  0
    7.0490  -14.4632   24.6061 C   0  0  2  0  0  0  0  0  0  0  0  0
    5.8146  -15.0861   24.2866 N   0  0  0  0  0  0  0  0  0  0  0  0
    8.1076  -15.5255   24.6008 C   0  0  0  0  0  0  0  0  0  0  0  0
    8.3886  -16.1005   25.6843 O   0  0  0  0  0  0  0  0  0  0  0  0
   11.3104  -18.1509   22.0011 O   0  0  0  0  0  0  0  0  0  0  0  0
   10.3901  -17.1314   22.1174 C   0  0  0  0  0  0  0  0  0  0  0  0
    9.8532  -16.9599   23.5279 C   0  0  2  0  0  0  0  0  0  0  0  0
    8.8218  -15.9328   23.4484 N   0  0  0  0  0  0  0  0  0  0  0  0
   10.9244  -16.5943   24.4565 C   0  0  0  0  0  0  0  0  0  0  0  0
   11.0176  -15.4288   24.9167 O   0  0  0  0  0  0  0  0  0  0  0  0
   13.1091  -17.7014   28.9534 N   0  0  0  0  0  0  0  0  0  0  0  0
   11.7168  -17.6264   28.6252 C   0  0  0  0  0  0  0  0  0  0  0  0
   10.8469  -17.6122   29.5292 O   0  0  0  0  0  0  0  0  0  0  0  0
   11.3201  -17.5663   27.2177 C   0  0  0  0  0  0  0  0  0  0  0  0
   12.4319  -17.5289   26.2333 C   0  0  2  0  0  0  0  0  0  0  0  0
   11.9005  -17.5530   24.8712 N   0  0  0  0  0  0  0  0  0  0  0  0
   13.3901  -18.6561   26.4246 C   0  0  0  0  0  0  0  0  0  0  0  0
   13.1050  -19.8307   26.1573 O   0  0  0  0  0  0  0  0  0  0  0  0
   14.6536  -18.3858   26.9215 O   0  0  0  0  0  0  0  0  0  0  0  0
  2  3  1  1
  2  1  1  0
  4  2  1  0
  5  6  1  1
  5  4  1  0
  5  7  1  0
  7 12  1  0
  7  8  2  0
  9 10  1  0
 11 10  1  6
 11 13  1  0
 12 11  1  0
 13 20  1  0
 14 13  2  0
 16 15  1  0
 17 16  2  0
 18 16  1  0
 19 18  1  1
 20 19  1  0
 21 19  1  0
 21 23  1  0
 22 21  2  0
M  END
$$$$
