LSN.pdb
     RDKit          3D

 23 22  0  0  1  0  0  0  0  0999 V2000
    8.2363  -12.6839   18.0201 C   0  0  0  0  0  0  0  0  0  0  0  0
    7.6008  -13.3673   19.1840 C   0  0  2  0  0  0  0  0  0  0  0  0
    6.6213  -12.4525   19.9196 C   0  0  0  0  0  0  0  0  0  0  0  0
    8.4879  -14.1064   20.1063 C   0  0  0  0  0  0  0  0  0  0  0  0
    9.4690  -15.0658   19.5700 C   0  0  2  0  0  0  0  0  0  0  0  0
    9.0502  -15.9799   18.5686 N   0  0  0  0  0  0  0  0  0  0  0  0
   10.0913  -15.8613   20.6786 C   0  0  0  0  0  0  0  0  0  0  0  0
   10.2894  -15.2975   21.7861 O   0  0  0  0  0  0  0  0  0  0  0  0
   11.2198  -19.8826   20.2680 O   0  0  0  0  0  0  0  0  0  0  0  0
   10.8786  -19.3708   21.5016 C   0  0  0  0  0  0  0  0  0  0  0  0
   11.1860  -17.8906   21.6478 C   0  0  2  0  0  0  0  0  0  0  0  0
   10.4760  -17.2190   20.5662 N   0  0  0  0  0  0  0  0  0  0  0  0
   12.6285  -17.6462   21.5953 C   0  0  0  0  0  0  0  0  0  0  0  0
   13.4098  -18.4720   21.0597 O   0  0  0  0  0  0  0  0  0  0  0  0
   13.6408  -14.0252   19.4712 N   0  0  0  0  0  0  0  0  0  0  0  0
   14.5829  -14.9936   19.9470 C   0  0  0  0  0  0  0  0  0  0  0  0
   15.0885  -15.8324   19.1628 O   0  0  0  0  0  0  0  0  0  0  0  0
   14.9497  -14.9926   21.3639 C   0  0  0  0  0  0  0  0  0  0  0  0
   14.6415  -16.2379   22.1127 C   0  0  2  0  0  0  0  0  0  0  0  0
   13.1963  -16.4581   22.1517 N   0  0  0  0  0  0  0  0  0  0  0  0
   15.1885  -16.2095   23.5003 C   0  0  0  0  0  0  0  0  0  0  0  0
   14.4673  -16.2453   24.5058 O   0  0  0  0  0  0  0  0  0  0  0  0
   16.5594  -16.1400   23.6798 O   0  0  0  0  0  0  0  0  0  0  0  0
  2  3  1  1
  2  1  1  0
  4  2  1  0
  5  6  1  6
  5  4  1  0
  5  7  1  0
  7 12  1  0
  7  8  2  0
  9 10  1  0
 11 10  1  6
 11 13  1  0
 12 11  1  0
 13 20  1  0
 14 13  2  0
 16 15  1  0
 17 16  2  0
 18 16  1  0
 19 18  1  1
 20 19  1  0
 21 19  1  0
 21 23  1  0
 22 21  2  0
M  END
$$$$
