LSN.pdb
     RDKit          3D

 23 22  0  0  1  0  0  0  0  0999 V2000
    5.3697  -12.1951   26.4155 C   0  0  0  0  0  0  0  0  0  0  0  0
    6.7084  -12.6895   26.8500 C   0  0  2  0  0  0  0  0  0  0  0  0
    7.6207  -11.5489   27.3018 C   0  0  0  0  0  0  0  0  0  0  0  0
    7.3987  -13.6509   25.9649 C   0  0  0  0  0  0  0  0  0  0  0  0
    6.6844  -14.8438   25.4780 C   0  0  2  0  0  0  0  0  0  0  0  0
    6.2645  -15.8180   26.4206 N   0  0  0  0  0  0  0  0  0  0  0  0
    7.4875  -15.5480   24.4252 C   0  0  0  0  0  0  0  0  0  0  0  0
    8.2747  -16.4633   24.7806 O   0  0  0  0  0  0  0  0  0  0  0  0
    8.2391  -14.3311   20.2896 O   0  0  0  0  0  0  0  0  0  0  0  0
    7.7608  -15.5552   20.7055 C   0  0  0  0  0  0  0  0  0  0  0  0
    8.2576  -15.9622   22.0819 C   0  0  2  0  0  0  0  0  0  0  0  0
    7.4213  -15.2527   23.0423 N   0  0  0  0  0  0  0  0  0  0  0  0
    9.6767  -15.6410   22.2440 C   0  0  0  0  0  0  0  0  0  0  0  0
   10.0439  -14.5803   22.8089 O   0  0  0  0  0  0  0  0  0  0  0  0
   14.7346  -16.0046   23.0057 N   0  0  0  0  0  0  0  0  0  0  0  0
   13.6972  -16.1168   23.9869 C   0  0  0  0  0  0  0  0  0  0  0  0
   13.9688  -16.0806   25.2113 O   0  0  0  0  0  0  0  0  0  0  0  0
   12.3117  -16.2749   23.5423 C   0  0  0  0  0  0  0  0  0  0  0  0
   12.1002  -16.2738   22.0719 C   0  0  2  0  0  0  0  0  0  0  0  0
   10.6927  -16.5252   21.7648 N   0  0  0  0  0  0  0  0  0  0  0  0
   12.9584  -17.2788   21.3798 C   0  0  0  0  0  0  0  0  0  0  0  0
   12.4965  -18.2783   20.8141 O   0  0  0  0  0  0  0  0  0  0  0  0
   14.3301  -17.0931   21.3650 O   0  0  0  0  0  0  0  0  0  0  0  0
  2  3  1  6
  2  1  1  0
  4  2  1  0
  5  6  1  1
  5  4  1  0
  5  7  1  0
  7 12  1  0
  7  8  2  0
  9 10  1  0
 11 10  1  6
 11 13  1  0
 12 11  1  0
 13 20  1  0
 14 13  2  0
 16 15  1  0
 17 16  2  0
 18 16  1  0
 19 18  1  1
 20 19  1  0
 21 19  1  0
 21 23  1  0
 22 21  2  0
M  END
$$$$
