LSN.pdb
     RDKit          3D

 23 22  0  0  1  0  0  0  0  0999 V2000
    9.0707  -12.4645   18.8706 C   0  0  0  0  0  0  0  0  0  0  0  0
    7.9261  -13.3286   19.2815 C   0  0  2  0  0  0  0  0  0  0  0  0
    6.7539  -12.5078   19.8196 C   0  0  0  0  0  0  0  0  0  0  0  0
    8.2294  -14.5040   20.1244 C   0  0  0  0  0  0  0  0  0  0  0  0
    9.2913  -15.4421   19.7211 C   0  0  2  0  0  0  0  0  0  0  0  0
    9.2405  -16.0104   18.4217 N   0  0  0  0  0  0  0  0  0  0  0  0
    9.4032  -16.5687   20.7047 C   0  0  0  0  0  0  0  0  0  0  0  0
    8.7509  -16.4972   21.7785 O   0  0  0  0  0  0  0  0  0  0  0  0
   11.2802  -20.2566   19.8954 O   0  0  0  0  0  0  0  0  0  0  0  0
   10.2263  -20.0882   20.7676 C   0  0  0  0  0  0  0  0  0  0  0  0
   10.2690  -18.7692   21.5196 C   0  0  2  0  0  0  0  0  0  0  0  0
   10.2004  -17.7219   20.5079 N   0  0  0  0  0  0  0  0  0  0  0  0
   11.4806  -18.6689   22.3352 C   0  0  0  0  0  0  0  0  0  0  0  0
   12.6179  -18.5957   21.8056 O   0  0  0  0  0  0  0  0  0  0  0  0
   12.2469  -15.1434   24.3686 N   0  0  0  0  0  0  0  0  0  0  0  0
   13.1492  -16.2551   24.4104 C   0  0  0  0  0  0  0  0  0  0  0  0
   14.1996  -16.2520   23.7242 O   0  0  0  0  0  0  0  0  0  0  0  0
   12.8296  -17.3986   25.2662 C   0  0  0  0  0  0  0  0  0  0  0  0
   12.6302  -18.6940   24.5670 C   0  0  2  0  0  0  0  0  0  0  0  0
   11.4096  -18.6502   23.7628 N   0  0  0  0  0  0  0  0  0  0  0  0
   12.5713  -19.8425   25.5173 C   0  0  0  0  0  0  0  0  0  0  0  0
   11.5772  -20.5721   25.6260 O   0  0  0  0  0  0  0  0  0  0  0  0
   13.6706  -20.1103   26.3150 O   0  0  0  0  0  0  0  0  0  0  0  0
  2  3  1  1
  2  1  1  0
  4  2  1  0
  5  6  1  6
  5  4  1  0
  5  7  1  0
  7 12  1  0
  7  8  2  0
  9 10  1  0
 11 10  1  6
 11 13  1  0
 12 11  1  0
 13 20  1  0
 14 13  2  0
 16 15  1  0
 17 16  2  0
 18 16  1  0
 19 18  1  1
 20 19  1  0
 21 19  1  0
 21 23  1  0
 22 21  2  0
M  END
$$$$
