LSN.pdb
     RDKit          3D

 23 22  0  0  1  0  0  0  0  0999 V2000
    7.5509  -13.3734   17.9392 C   0  0  0  0  0  0  0  0  0  0  0  0
    7.4804  -13.2771   19.4263 C   0  0  2  0  0  0  0  0  0  0  0  0
    7.5821  -11.8308   19.9114 C   0  0  0  0  0  0  0  0  0  0  0  0
    8.3305  -14.1986   20.2086 C   0  0  0  0  0  0  0  0  0  0  0  0
    8.2742  -15.6477   19.9494 C   0  0  2  0  0  0  0  0  0  0  0  0
    7.0325  -16.3184   20.0981 N   0  0  0  0  0  0  0  0  0  0  0  0
    9.2850  -16.3743   20.7859 C   0  0  0  0  0  0  0  0  0  0  0  0
    8.9997  -16.6344   21.9837 O   0  0  0  0  0  0  0  0  0  0  0  0
   11.8970  -19.2806   19.5140 O   0  0  0  0  0  0  0  0  0  0  0  0
   12.4421  -18.2406   20.2359 C   0  0  0  0  0  0  0  0  0  0  0  0
   11.4502  -17.5666   21.1680 C   0  0  2  0  0  0  0  0  0  0  0  0
   10.5532  -16.7940   20.3174 N   0  0  0  0  0  0  0  0  0  0  0  0
   12.1392  -16.7262   22.1489 C   0  0  0  0  0  0  0  0  0  0  0  0
   12.5242  -15.5663   21.8567 O   0  0  0  0  0  0  0  0  0  0  0  0
   12.7242  -14.6721   27.4415 N   0  0  0  0  0  0  0  0  0  0  0  0
   13.2575  -15.8789   26.8838 C   0  0  0  0  0  0  0  0  0  0  0  0
   14.3285  -16.3659   27.3199 O   0  0  0  0  0  0  0  0  0  0  0  0
   12.5355  -16.5392   25.7952 C   0  0  0  0  0  0  0  0  0  0  0  0
   13.1065  -16.3567   24.4361 C   0  0  2  0  0  0  0  0  0  0  0  0
   12.3963  -17.1981   23.4737 N   0  0  0  0  0  0  0  0  0  0  0  0
   14.5667  -16.6592   24.3946 C   0  0  0  0  0  0  0  0  0  0  0  0
   15.0097  -17.8018   24.2199 O   0  0  0  0  0  0  0  0  0  0  0  0
   15.4712  -15.6239   24.5576 O   0  0  0  0  0  0  0  0  0  0  0  0
  2  3  1  6
  2  1  1  0
  4  2  1  0
  5  6  1  1
  5  4  1  0
  5  7  1  0
  7 12  1  0
  7  8  2  0
  9 10  1  0
 11 10  1  6
 11 13  1  0
 12 11  1  0
 13 20  1  0
 14 13  2  0
 16 15  1  0
 17 16  2  0
 18 16  1  0
 19 18  1  1
 20 19  1  0
 21 19  1  0
 21 23  1  0
 22 21  2  0
M  END
$$$$
