LSN.pdb
     RDKit          3D

 23 22  0  0  1  0  0  0  0  0999 V2000
    7.8382  -14.1551   18.0225 C   0  0  0  0  0  0  0  0  0  0  0  0
    7.6857  -13.5422   19.3741 C   0  0  2  0  0  0  0  0  0  0  0  0
    7.1009  -12.1315   19.2999 C   0  0  0  0  0  0  0  0  0  0  0  0
    8.8381  -13.6305   20.2950 C   0  0  0  0  0  0  0  0  0  0  0  0
    9.4554  -14.9385   20.5750 C   0  0  2  0  0  0  0  0  0  0  0  0
    8.6112  -16.0425   20.8620 N   0  0  0  0  0  0  0  0  0  0  0  0
   10.4498  -14.8258   21.6920 C   0  0  0  0  0  0  0  0  0  0  0  0
   11.2647  -13.8668   21.6777 O   0  0  0  0  0  0  0  0  0  0  0  0
   10.6611  -17.5021   24.9667 O   0  0  0  0  0  0  0  0  0  0  0  0
   11.0521  -16.1833   25.0556 C   0  0  0  0  0  0  0  0  0  0  0  0
   11.6109  -15.6298   23.7562 C   0  0  2  0  0  0  0  0  0  0  0  0
   10.5375  -15.7328   22.7753 N   0  0  0  0  0  0  0  0  0  0  0  0
   12.8071  -16.3659   23.3434 C   0  0  0  0  0  0  0  0  0  0  0  0
   12.7197  -17.4543   22.7213 O   0  0  0  0  0  0  0  0  0  0  0  0
   15.7817  -15.7672   20.1871 N   0  0  0  0  0  0  0  0  0  0  0  0
   15.8954  -15.0154   21.4010 C   0  0  0  0  0  0  0  0  0  0  0  0
   15.6466  -13.7857   21.4169 O   0  0  0  0  0  0  0  0  0  0  0  0
   16.3066  -15.7015   22.6267 C   0  0  0  0  0  0  0  0  0  0  0  0
   15.3020  -16.6194   23.2223 C   0  0  2  0  0  0  0  0  0  0  0  0
   14.1159  -15.8698   23.6343 N   0  0  0  0  0  0  0  0  0  0  0  0
   15.8521  -17.3778   24.3832 C   0  0  0  0  0  0  0  0  0  0  0  0
   15.4160  -17.2497   25.5346 O   0  0  0  0  0  0  0  0  0  0  0  0
   16.8943  -18.2643   24.1724 O   0  0  0  0  0  0  0  0  0  0  0  0
  2  3  1  6
  2  1  1  0
  4  2  1  0
  5  6  1  1
  5  4  1  0
  5  7  1  0
  7 12  1  0
  7  8  2  0
  9 10  1  0
 11 10  1  1
 11 13  1  0
 12 11  1  0
 13 20  1  0
 14 13  2  0
 16 15  1  0
 17 16  2  0
 18 16  1  0
 19 18  1  1
 20 19  1  0
 21 19  1  0
 21 23  1  0
 22 21  2  0
M  END
$$$$
