LHP.pdb
     RDKit          3D

 26 27  0  0  1  0  0  0  0  0999 V2000
   14.7700   -5.2988   -6.6685 C   0  0  0  0  0  0  0  0  0  0  0  0
   14.1919   -6.1063   -7.8107 C   0  0  1  0  0  0  0  0  0  0  0  0
   13.5679   -5.0959   -8.7641 C   0  0  0  0  0  0  0  0  0  0  0  0
   15.2338   -6.8871   -8.5344 C   0  0  0  0  0  0  0  0  0  0  0  0
   14.6729   -7.7755   -9.6046 C   0  0  2  0  0  0  0  0  0  0  0  0
   13.9506   -8.8928   -8.9862 N   0  0  0  0  0  0  0  0  0  0  0  0
   15.6801   -8.3501  -10.4945 C   0  0  0  0  0  0  0  0  0  0  0  0
   16.3467   -9.3669  -10.1186 O   0  0  0  0  0  0  0  0  0  0  0  0
   15.9393   -7.8008  -11.7808 N   0  0  0  0  0  0  0  0  0  0  0  0
   16.9463   -8.4654  -12.6385 C   0  0  1  0  0  0  0  0  0  0  0  0
   16.2285   -9.1234  -13.7681 C   0  0  0  0  0  0  0  0  0  0  0  0
   17.0041   -9.8050  -14.7871 C   0  0  0  0  0  0  0  0  0  0  0  0
   17.4030   -9.5002  -16.0408 C   0  0  0  0  0  0  0  0  0  0  0  0
   18.2112  -10.4845  -16.5407 N   0  0  0  0  0  0  0  0  0  0  0  0
   18.2973  -11.3891  -15.5697 C   0  0  0  0  0  0  0  0  0  0  0  0
   17.5947  -11.0243  -14.5085 N   0  0  0  0  0  0  0  0  0  0  0  0
   17.9450   -7.4683  -13.0836 C   0  0  0  0  0  0  0  0  0  0  0  0
   17.5590   -6.3313  -13.4695 O   0  0  0  0  0  0  0  0  0  0  0  0
   19.3741   -7.6618  -13.1295 N   0  0  0  0  0  0  0  0  0  0  0  0
   20.1547   -8.7609  -12.6399 C   0  0  0  0  0  0  0  0  0  0  0  0
   21.6283   -8.4283  -12.9274 C   0  0  0  0  0  0  0  0  0  0  0  0
   21.4942   -7.5331  -14.1188 C   0  0  0  0  0  0  0  0  0  0  0  0
   20.2919   -6.6894  -13.7507 C   0  0  1  0  0  0  0  0  0  0  0  0
   19.7181   -6.1520  -15.0306 C   0  0  0  0  0  0  0  0  0  0  0  0
   18.7193   -6.6730  -15.5462 O   0  0  0  0  0  0  0  0  0  0  0  0
   20.3125   -5.0645  -15.6373 O   0  0  0  0  0  0  0  0  0  0  0  0
  2  3  1  6
  2  1  1  0
  4  2  1  0
  5  4  1  0
  5  6  1  1
  7  8  2  0
  7  5  1  0
  9  7  1  0
 10  9  1  0
 10 11  1  6
 11 12  1  0
 12 13  2  0
 12 16  1  0
 13 14  1  0
 14 15  1  0
 16 15  2  0
 17 18  2  0
 17 10  1  0
 19 17  1  0
 20 19  1  0
 21 20  1  0
 22 23  1  0
 22 21  1  0
 23 19  1  0
 24 26  1  0
 23 24  1  6
 25 24  2  0
M  END
$$$$
