LHP.pdb
     RDKit          3D

 26 27  0  0  1  0  0  0  0  0999 V2000
   19.1915  -13.0106  -18.7198 C   0  0  0  0  0  0  0  0  0  0  0  0
   19.1623  -11.5005  -18.8168 C   0  0  1  0  0  0  0  0  0  0  0  0
   18.4891  -11.1790  -20.1444 C   0  0  0  0  0  0  0  0  0  0  0  0
   18.3859  -10.8782  -17.7082 C   0  0  0  0  0  0  0  0  0  0  0  0
   18.9893  -11.1145  -16.3557 C   0  0  2  0  0  0  0  0  0  0  0  0
   18.3599  -12.2857  -15.7355 N   0  0  0  0  0  0  0  0  0  0  0  0
   18.8339   -9.9964  -15.4271 C   0  0  0  0  0  0  0  0  0  0  0  0
   17.8838  -10.0078  -14.5805 O   0  0  0  0  0  0  0  0  0  0  0  0
   19.7221   -8.8854  -15.4421 N   0  0  0  0  0  0  0  0  0  0  0  0
   19.5583   -7.8410  -14.4060 C   0  0  1  0  0  0  0  0  0  0  0  0
   19.8518   -8.4565  -13.0796 C   0  0  0  0  0  0  0  0  0  0  0  0
   19.8051   -7.6203  -11.8951 C   0  0  0  0  0  0  0  0  0  0  0  0
   18.8702   -7.3495  -10.9589 C   0  0  0  0  0  0  0  0  0  0  0  0
   19.3872   -6.5420   -9.9830 N   0  0  0  0  0  0  0  0  0  0  0  0
   20.6502   -6.3295  -10.3414 C   0  0  0  0  0  0  0  0  0  0  0  0
   20.9406   -6.9530  -11.4727 N   0  0  0  0  0  0  0  0  0  0  0  0
   20.4369   -6.6936  -14.7242 C   0  0  0  0  0  0  0  0  0  0  0  0
   21.6768   -6.8794  -14.8613 O   0  0  0  0  0  0  0  0  0  0  0  0
   20.0144   -5.3253  -14.9002 N   0  0  0  0  0  0  0  0  0  0  0  0
   18.6907   -4.7746  -14.8605 C   0  0  0  0  0  0  0  0  0  0  0  0
   18.8221   -3.2688  -15.1433 C   0  0  0  0  0  0  0  0  0  0  0  0
   20.2102   -3.0037  -14.6516 C   0  0  0  0  0  0  0  0  0  0  0  0
   20.9618   -4.2222  -15.1444 C   0  0  1  0  0  0  0  0  0  0  0  0
   22.1857   -4.3662  -14.2857 C   0  0  0  0  0  0  0  0  0  0  0  0
   22.2204   -5.1934  -13.3640 O   0  0  0  0  0  0  0  0  0  0  0  0
   23.2835   -3.5663  -14.5286 O   0  0  0  0  0  0  0  0  0  0  0  0
  2  3  1  6
  2  1  1  0
  4  2  1  0
  5  4  1  0
  5  6  1  1
  7  8  2  0
  7  5  1  0
  9  7  1  0
 10  9  1  0
 10 11  1  1
 11 12  1  0
 12 13  2  0
 12 16  1  0
 13 14  1  0
 14 15  1  0
 16 15  2  0
 17 18  2  0
 17 10  1  0
 19 17  1  0
 20 19  1  0
 21 20  1  0
 22 23  1  0
 22 21  1  0
 23 19  1  0
 24 26  1  0
 23 24  1  1
 25 24  2  0
M  END
$$$$
