LHP.pdb
     RDKit          3D

 26 27  0  0  1  0  0  0  0  0999 V2000
   28.2978  -16.7722  -16.4912 C   0  0  0  0  0  0  0  0  0  0  0  0
   27.2864  -17.8973  -16.5327 C   0  0  1  0  0  0  0  0  0  0  0  0
   28.0942  -19.1880  -16.5032 C   0  0  0  0  0  0  0  0  0  0  0  0
   26.3618  -17.8690  -15.3650 C   0  0  0  0  0  0  0  0  0  0  0  0
   25.5352  -19.1132  -15.2325 C   0  0  2  0  0  0  0  0  0  0  0  0
   24.4340  -19.0763  -16.2013 N   0  0  0  0  0  0  0  0  0  0  0  0
   24.9423  -19.3000  -13.9095 C   0  0  0  0  0  0  0  0  0  0  0  0
   24.0944  -18.4568  -13.4742 O   0  0  0  0  0  0  0  0  0  0  0  0
   25.2887  -20.4074  -13.0866 N   0  0  0  0  0  0  0  0  0  0  0  0
   24.6472  -20.5229  -11.7576 C   0  0  1  0  0  0  0  0  0  0  0  0
   23.5907  -21.5720  -11.8445 C   0  0  0  0  0  0  0  0  0  0  0  0
   22.3068  -21.2251  -12.4239 C   0  0  0  0  0  0  0  0  0  0  0  0
   21.1040  -20.8676  -11.9246 C   0  0  0  0  0  0  0  0  0  0  0  0
   20.2373  -20.5554  -12.9361 N   0  0  0  0  0  0  0  0  0  0  0  0
   20.9343  -20.7273  -14.0557 C   0  0  0  0  0  0  0  0  0  0  0  0
   22.1703  -21.1249  -13.7966 N   0  0  0  0  0  0  0  0  0  0  0  0
   25.6797  -20.8174  -10.7393 C   0  0  0  0  0  0  0  0  0  0  0  0
   26.2820  -21.9251  -10.7672 O   0  0  0  0  0  0  0  0  0  0  0  0
   26.0901  -19.9404   -9.6696 N   0  0  0  0  0  0  0  0  0  0  0  0
   25.7658  -18.5597   -9.4564 C   0  0  0  0  0  0  0  0  0  0  0  0
   26.4991  -18.1183   -8.1788 C   0  0  0  0  0  0  0  0  0  0  0  0
   26.6054  -19.4177   -7.4445 C   0  0  0  0  0  0  0  0  0  0  0  0
   26.9485  -20.3861   -8.5567 C   0  0  1  0  0  0  0  0  0  0  0  0
   26.5521  -21.7574   -8.0894 C   0  0  0  0  0  0  0  0  0  0  0  0
   25.4848  -22.2688   -8.4558 O   0  0  0  0  0  0  0  0  0  0  0  0
   27.3888  -22.4540   -7.2416 O   0  0  0  0  0  0  0  0  0  0  0  0
  2  3  1  1
  2  1  1  0
  4  2  1  0
  5  4  1  0
  5  6  1  6
  7  8  2  0
  7  5  1  0
  9  7  1  0
 10  9  1  0
 10 11  1  6
 11 12  1  0
 12 13  2  0
 12 16  1  0
 13 14  1  0
 14 15  1  0
 16 15  2  0
 17 18  2  0
 17 10  1  0
 19 17  1  0
 20 19  1  0
 21 20  1  0
 22 23  1  0
 22 21  1  0
 23 19  1  0
 24 26  1  0
 23 24  1  1
 25 24  2  0
M  END
$$$$
