LHP.pdb
     RDKit          3D

 26 27  0  0  1  0  0  0  0  0999 V2000
   18.5150  -22.3297    3.6955 C   0  0  0  0  0  0  0  0  0  0  0  0
   17.6513  -21.0982    3.8632 C   0  0  1  0  0  0  0  0  0  0  0  0
   16.8988  -21.2897    5.1733 C   0  0  0  0  0  0  0  0  0  0  0  0
   18.4582  -19.8482    3.9376 C   0  0  0  0  0  0  0  0  0  0  0  0
   17.6864  -18.6741    4.4616 C   0  0  2  0  0  0  0  0  0  0  0  0
   16.9849  -18.0144    3.3546 N   0  0  0  0  0  0  0  0  0  0  0  0
   18.5103  -17.6605    5.1177 C   0  0  0  0  0  0  0  0  0  0  0  0
   19.1771  -16.8372    4.4126 O   0  0  0  0  0  0  0  0  0  0  0  0
   18.5892  -17.5665    6.5349 N   0  0  0  0  0  0  0  0  0  0  0  0
   19.3735  -16.4572    7.1227 C   0  0  1  0  0  0  0  0  0  0  0  0
   18.4269  -15.3620    7.4814 C   0  0  0  0  0  0  0  0  0  0  0  0
   18.4122  -14.1577    6.6728 C   0  0  0  0  0  0  0  0  0  0  0  0
   18.9897  -13.7864    5.5098 C   0  0  0  0  0  0  0  0  0  0  0  0
   18.5614  -12.5418    5.1364 N   0  0  0  0  0  0  0  0  0  0  0  0
   17.7141  -12.1658    6.0901 C   0  0  0  0  0  0  0  0  0  0  0  0
   17.5957  -13.0976    7.0232 N   0  0  0  0  0  0  0  0  0  0  0  0
   20.1461  -16.9628    8.2791 C   0  0  0  0  0  0  0  0  0  0  0  0
   19.6567  -17.8712    9.0044 O   0  0  0  0  0  0  0  0  0  0  0  0
   21.4536  -16.5104    8.6884 N   0  0  0  0  0  0  0  0  0  0  0  0
   22.3171  -15.5521    8.0613 C   0  0  0  0  0  0  0  0  0  0  0  0
   23.5982  -15.4798    8.9088 C   0  0  0  0  0  0  0  0  0  0  0  0
   23.0756  -15.8730   10.2546 C   0  0  0  0  0  0  0  0  0  0  0  0
   22.1201  -16.9961    9.9107 C   0  0  1  0  0  0  0  0  0  0  0  0
   21.1426  -17.1105   11.0454 C   0  0  0  0  0  0  0  0  0  0  0  0
   20.1740  -16.3425   11.1283 O   0  0  0  0  0  0  0  0  0  0  0  0
   21.3280  -18.0839   12.0057 O   0  0  0  0  0  0  0  0  0  0  0  0
  2  3  1  1
  2  1  1  0
  4  2  1  0
  5  4  1  0
  5  6  1  6
  7  8  2  0
  7  5  1  0
  9  7  1  0
 10  9  1  0
 10 11  1  1
 11 12  1  0
 12 13  2  0
 12 16  1  0
 13 14  1  0
 14 15  1  0
 16 15  2  0
 17 18  2  0
 17 10  1  0
 19 17  1  0
 20 19  1  0
 21 20  1  0
 22 23  1  0
 22 21  1  0
 23 19  1  0
 24 26  1  0
 23 24  1  1
 25 24  2  0
M  END
$$$$
