LHP.pdb
     RDKit          3D

 26 27  0  0  1  0  0  0  0  0999 V2000
   18.9995  -10.1852  -18.3944 C   0  0  0  0  0  0  0  0  0  0  0  0
   19.0652  -10.7146  -16.9781 C   0  0  1  0  0  0  0  0  0  0  0  0
   20.3424  -10.1436  -16.3763 C   0  0  0  0  0  0  0  0  0  0  0  0
   17.8990  -10.2817  -16.1586 C   0  0  0  0  0  0  0  0  0  0  0  0
   17.9242  -10.8209  -14.7594 C   0  0  2  0  0  0  0  0  0  0  0  0
   17.7886  -12.2814  -14.7938 N   0  0  0  0  0  0  0  0  0  0  0  0
   16.8591  -10.3070  -13.9004 C   0  0  0  0  0  0  0  0  0  0  0  0
   15.6601  -10.6922  -14.0842 O   0  0  0  0  0  0  0  0  0  0  0  0
   17.1259   -9.3800  -12.8550 N   0  0  0  0  0  0  0  0  0  0  0  0
   15.9890   -8.8893  -12.0439 C   0  0  1  0  0  0  0  0  0  0  0  0
   15.5416  -10.0010  -11.1561 C   0  0  0  0  0  0  0  0  0  0  0  0
   14.5142   -9.7355  -10.1669 C   0  0  0  0  0  0  0  0  0  0  0  0
   14.5156   -9.3059   -8.8865 C   0  0  0  0  0  0  0  0  0  0  0  0
   13.2351   -9.1379   -8.4346 N   0  0  0  0  0  0  0  0  0  0  0  0
   12.4583   -9.4703   -9.4616 C   0  0  0  0  0  0  0  0  0  0  0  0
   13.1783   -9.8315  -10.5124 N   0  0  0  0  0  0  0  0  0  0  0  0
   16.4042   -7.6794  -11.3001 C   0  0  0  0  0  0  0  0  0  0  0  0
   17.4303   -7.7215  -10.5679 O   0  0  0  0  0  0  0  0  0  0  0  0
   15.7347   -6.4014  -11.3182 N   0  0  0  0  0  0  0  0  0  0  0  0
   14.5703   -6.0001  -12.0531 C   0  0  0  0  0  0  0  0  0  0  0  0
   14.3155   -4.5210  -11.7179 C   0  0  0  0  0  0  0  0  0  0  0  0
   14.9231   -4.4262  -10.3539 C   0  0  0  0  0  0  0  0  0  0  0  0
   16.1814   -5.2545  -10.5064 C   0  0  1  0  0  0  0  0  0  0  0  0
   16.5905   -5.6978   -9.1308 C   0  0  0  0  0  0  0  0  0  0  0  0
   16.3174   -6.8355   -8.7234 O   0  0  0  0  0  0  0  0  0  0  0  0
   17.2789   -4.8252   -8.3130 O   0  0  0  0  0  0  0  0  0  0  0  0
  2  3  1  1
  2  1  1  0
  4  2  1  0
  5  4  1  0
  5  6  1  6
  7  8  2  0
  7  5  1  0
  9  7  1  0
 10  9  1  0
 10 11  1  1
 11 12  1  0
 12 13  2  0
 12 16  1  0
 13 14  1  0
 14 15  1  0
 16 15  2  0
 17 18  2  0
 17 10  1  0
 19 17  1  0
 20 19  1  0
 21 20  1  0
 22 23  1  0
 22 21  1  0
 23 19  1  0
 24 26  1  0
 23 24  1  1
 25 24  2  0
M  END
$$$$
