LHP.pdb
     RDKit          3D

 26 27  0  0  1  0  0  0  0  0999 V2000
   29.3327  -18.3694  -16.3771 C   0  0  0  0  0  0  0  0  0  0  0  0
   28.8661  -17.2692  -17.3057 C   0  0  1  0  0  0  0  0  0  0  0  0
   28.8684  -17.8723  -18.7040 C   0  0  0  0  0  0  0  0  0  0  0  0
   27.4923  -16.7966  -16.9760 C   0  0  0  0  0  0  0  0  0  0  0  0
   26.4344  -17.8310  -17.2210 C   0  0  2  0  0  0  0  0  0  0  0  0
   25.7512  -17.5437  -18.4872 N   0  0  0  0  0  0  0  0  0  0  0  0
   25.4095  -17.8971  -16.1809 C   0  0  0  0  0  0  0  0  0  0  0  0
   25.0837  -16.8415  -15.5492 O   0  0  0  0  0  0  0  0  0  0  0  0
   24.7594  -19.1186  -15.8511 N   0  0  0  0  0  0  0  0  0  0  0  0
   23.7116  -19.0968  -14.8058 C   0  0  1  0  0  0  0  0  0  0  0  0
   22.3893  -18.9530  -15.4805 C   0  0  0  0  0  0  0  0  0  0  0  0
   21.1941  -18.8587  -14.6637 C   0  0  0  0  0  0  0  0  0  0  0  0
   20.9240  -18.3967  -13.4238 C   0  0  0  0  0  0  0  0  0  0  0  0
   19.5817  -18.4636  -13.1678 N   0  0  0  0  0  0  0  0  0  0  0  0
   19.0427  -18.9713  -14.2725 C   0  0  0  0  0  0  0  0  0  0  0  0
   19.9663  -19.2205  -15.1878 N   0  0  0  0  0  0  0  0  0  0  0  0
   23.8162  -20.3215  -13.9819 C   0  0  0  0  0  0  0  0  0  0  0  0
   23.6713  -21.4504  -14.5253 O   0  0  0  0  0  0  0  0  0  0  0  0
   24.0743  -20.3696  -12.5632 N   0  0  0  0  0  0  0  0  0  0  0  0
   24.5426  -19.3303  -11.6928 C   0  0  0  0  0  0  0  0  0  0  0  0
   24.6674  -19.9434  -10.2880 C   0  0  0  0  0  0  0  0  0  0  0  0
   23.6441  -21.0328  -10.3575 C   0  0  0  0  0  0  0  0  0  0  0  0
   23.8561  -21.5818  -11.7526 C   0  0  1  0  0  0  0  0  0  0  0  0
   22.5856  -22.2747  -12.1548 C   0  0  0  0  0  0  0  0  0  0  0  0
   22.3294  -23.4165  -11.7480 O   0  0  0  0  0  0  0  0  0  0  0  0
   21.6946  -21.6292  -12.9876 O   0  0  0  0  0  0  0  0  0  0  0  0
  2  3  1  6
  2  1  1  0
  4  2  1  0
  5  4  1  0
  5  6  1  6
  7  8  2  0
  7  5  1  0
  9  7  1  0
 10  9  1  0
 10 11  1  6
 11 12  1  0
 12 13  2  0
 12 16  1  0
 13 14  1  0
 14 15  1  0
 16 15  2  0
 17 18  2  0
 17 10  1  0
 19 17  1  0
 20 19  1  0
 21 20  1  0
 22 23  1  0
 22 21  1  0
 23 19  1  0
 24 26  1  0
 23 24  1  6
 25 24  2  0
M  END
$$$$
