LHP.pdb
     RDKit          3D

 26 27  0  0  1  0  0  0  0  0999 V2000
   17.3500  -15.0126  -15.2003 C   0  0  0  0  0  0  0  0  0  0  0  0
   17.1742  -13.5801  -15.6562 C   0  0  1  0  0  0  0  0  0  0  0  0
   15.9049  -13.0784  -14.9807 C   0  0  0  0  0  0  0  0  0  0  0  0
   18.3193  -12.7154  -15.2558 C   0  0  0  0  0  0  0  0  0  0  0  0
   18.1401  -11.2774  -15.6417 C   0  0  2  0  0  0  0  0  0  0  0  0
   17.9636  -11.1776  -17.0949 N   0  0  0  0  0  0  0  0  0  0  0  0
   19.2650  -10.4162  -15.2818 C   0  0  0  0  0  0  0  0  0  0  0  0
   19.6830  -10.3949  -14.0799 O   0  0  0  0  0  0  0  0  0  0  0  0
   19.9124   -9.5934  -16.2447 N   0  0  0  0  0  0  0  0  0  0  0  0
   21.0592   -8.7670  -15.8054 C   0  0  1  0  0  0  0  0  0  0  0  0
   22.2170   -9.0744  -16.6938 C   0  0  0  0  0  0  0  0  0  0  0  0
   23.0697  -10.2014  -16.3664 C   0  0  0  0  0  0  0  0  0  0  0  0
   23.1342  -11.0785  -15.3415 C   0  0  0  0  0  0  0  0  0  0  0  0
   24.0954  -12.0232  -15.5772 N   0  0  0  0  0  0  0  0  0  0  0  0
   24.6106  -11.7060  -16.7616 C   0  0  0  0  0  0  0  0  0  0  0  0
   24.0289  -10.6291  -17.2664 N   0  0  0  0  0  0  0  0  0  0  0  0
   20.6705   -7.3394  -15.8263 C   0  0  0  0  0  0  0  0  0  0  0  0
   19.9609   -6.9021  -16.7729 O   0  0  0  0  0  0  0  0  0  0  0  0
   21.0311   -6.3479  -14.8421 N   0  0  0  0  0  0  0  0  0  0  0  0
   21.6849   -6.5237  -13.5777 C   0  0  0  0  0  0  0  0  0  0  0  0
   21.7902   -5.1333  -12.9294 C   0  0  0  0  0  0  0  0  0  0  0  0
   21.8087   -4.2524  -14.1388 C   0  0  0  0  0  0  0  0  0  0  0  0
   20.7727   -4.9081  -15.0274 C   0  0  1  0  0  0  0  0  0  0  0  0
   21.0682   -4.4873  -16.4387 C   0  0  0  0  0  0  0  0  0  0  0  0
   20.5520   -3.4682  -16.9182 O   0  0  0  0  0  0  0  0  0  0  0  0
   21.9253   -5.2469  -17.2083 O   0  0  0  0  0  0  0  0  0  0  0  0
  2  3  1  1
  2  1  1  0
  4  2  1  0
  5  4  1  0
  5  6  1  6
  7  8  2  0
  7  5  1  0
  9  7  1  0
 10  9  1  0
 10 11  1  6
 11 12  1  0
 12 13  2  0
 12 16  1  0
 13 14  1  0
 14 15  1  0
 16 15  2  0
 17 18  2  0
 17 10  1  0
 19 17  1  0
 20 19  1  0
 21 20  1  0
 22 23  1  0
 22 21  1  0
 23 19  1  0
 24 26  1  0
 23 24  1  6
 25 24  2  0
M  END
$$$$
