LHP.pdb
     RDKit          3D

 26 27  0  0  1  0  0  0  0  0999 V2000
   23.3827  -14.3785  -20.7513 C   0  0  0  0  0  0  0  0  0  0  0  0
   23.9874  -13.4414  -19.7281 C   0  0  1  0  0  0  0  0  0  0  0  0
   25.1908  -12.8006  -20.4067 C   0  0  0  0  0  0  0  0  0  0  0  0
   23.0357  -12.3760  -19.3059 C   0  0  0  0  0  0  0  0  0  0  0  0
   23.6410  -11.3796  -18.3627 C   0  0  2  0  0  0  0  0  0  0  0  0
   24.1510  -12.0747  -17.1755 N   0  0  0  0  0  0  0  0  0  0  0  0
   22.7099  -10.3534  -17.8972 C   0  0  0  0  0  0  0  0  0  0  0  0
   22.0847   -9.6387  -18.7445 O   0  0  0  0  0  0  0  0  0  0  0  0
   22.4798  -10.1282  -16.5116 N   0  0  0  0  0  0  0  0  0  0  0  0
   21.4367   -9.1529  -16.1222 C   0  0  1  0  0  0  0  0  0  0  0  0
   20.5036   -9.8284  -15.1749 C   0  0  0  0  0  0  0  0  0  0  0  0
   19.4957  -10.7259  -15.7069 C   0  0  0  0  0  0  0  0  0  0  0  0
   19.3238  -12.0654  -15.7137 C   0  0  0  0  0  0  0  0  0  0  0  0
   18.1264  -12.3933  -16.2888 N   0  0  0  0  0  0  0  0  0  0  0  0
   17.5749  -11.2318  -16.6283 C   0  0  0  0  0  0  0  0  0  0  0  0
   18.3557  -10.2142  -16.2998 N   0  0  0  0  0  0  0  0  0  0  0  0
   22.0805   -7.9501  -15.5490 C   0  0  0  0  0  0  0  0  0  0  0  0
   22.9196   -8.0789  -14.6163 O   0  0  0  0  0  0  0  0  0  0  0  0
   21.8424   -6.5861  -15.9549 N   0  0  0  0  0  0  0  0  0  0  0  0
   21.0992   -6.0926  -17.0778 C   0  0  0  0  0  0  0  0  0  0  0  0
   21.1996   -4.5585  -17.0436 C   0  0  0  0  0  0  0  0  0  0  0  0
   21.4002   -4.3157  -15.5808 C   0  0  0  0  0  0  0  0  0  0  0  0
   22.3550   -5.4276  -15.2004 C   0  0  1  0  0  0  0  0  0  0  0  0
   22.2151   -5.6463  -13.7210 C   0  0  0  0  0  0  0  0  0  0  0  0
   21.4885   -6.5470  -13.2787 O   0  0  0  0  0  0  0  0  0  0  0  0
   22.9053   -4.8325  -12.8461 O   0  0  0  0  0  0  0  0  0  0  0  0
  2  3  1  6
  2  1  1  0
  4  2  1  0
  5  4  1  0
  5  6  1  1
  7  8  2  0
  7  5  1  0
  9  7  1  0
 10  9  1  0
 10 11  1  1
 11 12  1  0
 12 13  2  0
 12 16  1  0
 13 14  1  0
 14 15  1  0
 16 15  2  0
 17 18  2  0
 17 10  1  0
 19 17  1  0
 20 19  1  0
 21 20  1  0
 22 23  1  0
 22 21  1  0
 23 19  1  0
 24 26  1  0
 23 24  1  1
 25 24  2  0
M  END
$$$$
