LHP.pdb
     RDKit          3D

 26 27  0  0  1  0  0  0  0  0999 V2000
   28.4040  -18.9850  -14.9386 C   0  0  0  0  0  0  0  0  0  0  0  0
   27.6142  -20.0458  -14.2028 C   0  0  1  0  0  0  0  0  0  0  0  0
   28.5750  -21.2068  -13.9837 C   0  0  0  0  0  0  0  0  0  0  0  0
   27.1147  -19.5652  -12.8842 C   0  0  0  0  0  0  0  0  0  0  0  0
   26.4701  -20.6434  -12.0651 C   0  0  2  0  0  0  0  0  0  0  0  0
   25.2205  -21.0665  -12.7070 N   0  0  0  0  0  0  0  0  0  0  0  0
   26.1408  -20.2413  -10.6989 C   0  0  0  0  0  0  0  0  0  0  0  0
   25.5716  -19.1221  -10.4912 O   0  0  0  0  0  0  0  0  0  0  0  0
   26.4407  -21.0724   -9.5840 N   0  0  0  0  0  0  0  0  0  0  0  0
   26.0823  -20.5896   -8.2314 C   0  0  1  0  0  0  0  0  0  0  0  0
   24.8924  -21.3593   -7.7667 C   0  0  0  0  0  0  0  0  0  0  0  0
   23.5822  -20.9924   -8.2699 C   0  0  0  0  0  0  0  0  0  0  0  0
   23.1285  -20.1087   -9.1847 C   0  0  0  0  0  0  0  0  0  0  0  0
   21.7752  -20.2333   -9.3433 N   0  0  0  0  0  0  0  0  0  0  0  0
   21.4167  -21.2075   -8.5119 C   0  0  0  0  0  0  0  0  0  0  0  0
   22.4608  -21.6872   -7.8542 N   0  0  0  0  0  0  0  0  0  0  0  0
   27.2526  -20.7275   -7.3363 C   0  0  0  0  0  0  0  0  0  0  0  0
   27.7699  -21.8642   -7.1602 O   0  0  0  0  0  0  0  0  0  0  0  0
   27.8941  -19.6595   -6.6086 N   0  0  0  0  0  0  0  0  0  0  0  0
   27.7282  -18.2418   -6.7487 C   0  0  0  0  0  0  0  0  0  0  0  0
   28.6805  -17.5765   -5.7410 C   0  0  0  0  0  0  0  0  0  0  0  0
   28.7806  -18.6406   -4.6939 C   0  0  0  0  0  0  0  0  0  0  0  0
   28.8668  -19.9018   -5.5273 C   0  0  1  0  0  0  0  0  0  0  0  0
   28.4257  -21.0418   -4.6544 C   0  0  0  0  0  0  0  0  0  0  0  0
   27.3120  -21.5630   -4.8061 O   0  0  0  0  0  0  0  0  0  0  0  0
   29.2731  -21.5123   -3.6724 O   0  0  0  0  0  0  0  0  0  0  0  0
  2  3  1  1
  2  1  1  0
  4  2  1  0
  5  4  1  0
  5  6  1  6
  7  8  2  0
  7  5  1  0
  9  7  1  0
 10  9  1  0
 10 11  1  1
 11 12  1  0
 12 13  2  0
 12 16  1  0
 13 14  1  0
 14 15  1  0
 16 15  2  0
 17 18  2  0
 17 10  1  0
 19 17  1  0
 20 19  1  0
 21 20  1  0
 22 23  1  0
 22 21  1  0
 23 19  1  0
 24 26  1  0
 23 24  1  1
 25 24  2  0
M  END
$$$$
