LHP.pdb
     RDKit          3D

 26 27  0  0  1  0  0  0  0  0999 V2000
   32.8441  -23.1696  -23.9859 C   0  0  0  0  0  0  0  0  0  0  0  0
   32.9586  -23.2548  -22.4792 C   0  0  1  0  0  0  0  0  0  0  0  0
   33.4906  -21.9029  -22.0225 C   0  0  0  0  0  0  0  0  0  0  0  0
   31.6444  -23.5121  -21.8266 C   0  0  0  0  0  0  0  0  0  0  0  0
   31.7285  -23.5831  -20.3310 C   0  0  2  0  0  0  0  0  0  0  0  0
   32.5990  -24.6978  -19.9408 N   0  0  0  0  0  0  0  0  0  0  0  0
   30.4417  -23.7857  -19.6679 C   0  0  0  0  0  0  0  0  0  0  0  0
   30.0030  -24.9672  -19.4909 O   0  0  0  0  0  0  0  0  0  0  0  0
   29.6579  -22.6904  -19.2102 N   0  0  0  0  0  0  0  0  0  0  0  0
   28.3968  -22.9807  -18.4916 C   0  0  1  0  0  0  0  0  0  0  0  0
   28.6572  -22.8464  -17.0292 C   0  0  0  0  0  0  0  0  0  0  0  0
   29.3701  -23.9089  -16.3455 C   0  0  0  0  0  0  0  0  0  0  0  0
   29.0202  -25.1008  -15.8158 C   0  0  0  0  0  0  0  0  0  0  0  0
   30.1246  -25.7663  -15.3584 N   0  0  0  0  0  0  0  0  0  0  0  0
   31.1491  -24.9600  -15.6212 C   0  0  0  0  0  0  0  0  0  0  0  0
   30.7450  -23.8444  -16.2085 N   0  0  0  0  0  0  0  0  0  0  0  0
   27.3345  -22.0742  -18.9808 C   0  0  0  0  0  0  0  0  0  0  0  0
   27.5025  -20.8260  -18.9127 O   0  0  0  0  0  0  0  0  0  0  0  0
   26.0714  -22.4772  -19.5498 N   0  0  0  0  0  0  0  0  0  0  0  0
   25.6145  -23.7909  -19.9000 C   0  0  0  0  0  0  0  0  0  0  0  0
   24.2049  -23.6326  -20.4938 C   0  0  0  0  0  0  0  0  0  0  0  0
   23.7452  -22.3812  -19.8145 C   0  0  0  0  0  0  0  0  0  0  0  0
   24.9907  -21.5209  -19.8528 C   0  0  1  0  0  0  0  0  0  0  0  0
   24.8576  -20.4981  -18.7609 C   0  0  0  0  0  0  0  0  0  0  0  0
   24.1278  -19.5074  -18.9051 O   0  0  0  0  0  0  0  0  0  0  0  0
   25.5577  -20.6665  -17.5838 O   0  0  0  0  0  0  0  0  0  0  0  0
  2  3  1  1
  2  1  1  0
  4  2  1  0
  5  4  1  0
  5  6  1  6
  7  8  2  0
  7  5  1  0
  9  7  1  0
 10  9  1  0
 10 11  1  1
 11 12  1  0
 12 13  2  0
 12 16  1  0
 13 14  1  0
 14 15  1  0
 16 15  2  0
 17 18  2  0
 17 10  1  0
 19 17  1  0
 20 19  1  0
 21 20  1  0
 22 23  1  0
 22 21  1  0
 23 19  1  0
 24 26  1  0
 23 24  1  1
 25 24  2  0
M  END
$$$$
