LHP.pdb
     RDKit          3D

 26 27  0  0  1  0  0  0  0  0999 V2000
   18.0589  -18.0048  -12.1007 C   0  0  0  0  0  0  0  0  0  0  0  0
   18.8385  -18.1634  -13.3882 C   0  0  1  0  0  0  0  0  0  0  0  0
   17.8439  -17.9115  -14.5137 C   0  0  0  0  0  0  0  0  0  0  0  0
   19.9588  -17.1873  -13.4941 C   0  0  0  0  0  0  0  0  0  0  0  0
   20.6903  -17.2633  -14.8010 C   0  0  2  0  0  0  0  0  0  0  0  0
   21.5234  -18.4707  -14.8275 N   0  0  0  0  0  0  0  0  0  0  0  0
   21.5690  -16.1248  -15.0624 C   0  0  0  0  0  0  0  0  0  0  0  0
   22.6762  -16.0278  -14.4425 O   0  0  0  0  0  0  0  0  0  0  0  0
   21.2194  -15.1124  -15.9985 N   0  0  0  0  0  0  0  0  0  0  0  0
   22.1460  -13.9722  -16.1789 C   0  0  1  0  0  0  0  0  0  0  0  0
   22.3039  -13.7327  -17.6425 C   0  0  0  0  0  0  0  0  0  0  0  0
   23.1763  -12.6617  -18.0856 C   0  0  0  0  0  0  0  0  0  0  0  0
   24.0555  -11.8379  -17.4757 C   0  0  0  0  0  0  0  0  0  0  0  0
   24.6943  -11.0512  -18.3950 N   0  0  0  0  0  0  0  0  0  0  0  0
   24.1899  -11.4127  -19.5712 C   0  0  0  0  0  0  0  0  0  0  0  0
   23.2840  -12.3683  -19.4330 N   0  0  0  0  0  0  0  0  0  0  0  0
   21.6235  -12.7962  -15.4483 C   0  0  0  0  0  0  0  0  0  0  0  0
   20.4035  -12.4927  -15.5503 O   0  0  0  0  0  0  0  0  0  0  0  0
   22.3888  -11.9183  -14.5967 N   0  0  0  0  0  0  0  0  0  0  0  0
   23.7653  -12.0109  -14.2049 C   0  0  0  0  0  0  0  0  0  0  0  0
   24.0455  -10.8263  -13.2652 C   0  0  0  0  0  0  0  0  0  0  0  0
   23.0343   -9.8331  -13.7448 C   0  0  0  0  0  0  0  0  0  0  0  0
   21.8191  -10.7044  -13.9835 C   0  0  1  0  0  0  0  0  0  0  0  0
   20.9351   -9.9766  -14.9555 C   0  0  0  0  0  0  0  0  0  0  0  0
   20.9966  -10.2142  -16.1699 O   0  0  0  0  0  0  0  0  0  0  0  0
   20.0444   -9.0322  -14.4875 O   0  0  0  0  0  0  0  0  0  0  0  0
  2  3  1  6
  2  1  1  0
  4  2  1  0
  5  4  1  0
  5  6  1  1
  7  8  2  0
  7  5  1  0
  9  7  1  0
 10  9  1  0
 10 11  1  6
 11 12  1  0
 12 13  2  0
 12 16  1  0
 13 14  1  0
 14 15  1  0
 16 15  2  0
 17 18  2  0
 17 10  1  0
 19 17  1  0
 20 19  1  0
 21 20  1  0
 22 23  1  0
 22 21  1  0
 23 19  1  0
 24 26  1  0
 23 24  1  6
 25 24  2  0
M  END
$$$$
