LHP.pdb
     RDKit          3D

 26 27  0  0  1  0  0  0  0  0999 V2000
   29.3286  -11.4664  -17.3914 C   0  0  0  0  0  0  0  0  0  0  0  0
   28.1566  -12.3717  -17.0797 C   0  0  1  0  0  0  0  0  0  0  0  0
   28.2708  -12.7101  -15.5993 C   0  0  0  0  0  0  0  0  0  0  0  0
   26.8472  -11.7080  -17.3330 C   0  0  0  0  0  0  0  0  0  0  0  0
   25.6690  -12.5639  -16.9743 C   0  0  2  0  0  0  0  0  0  0  0  0
   25.6764  -13.7787  -17.7970 N   0  0  0  0  0  0  0  0  0  0  0  0
   24.3747  -11.9142  -17.1724 C   0  0  0  0  0  0  0  0  0  0  0  0
   23.8953  -11.8094  -18.3467 O   0  0  0  0  0  0  0  0  0  0  0  0
   23.6280  -11.3908  -16.0806 N   0  0  0  0  0  0  0  0  0  0  0  0
   22.2905  -10.8188  -16.3543 C   0  0  1  0  0  0  0  0  0  0  0  0
   21.2728  -11.6899  -15.6987 C   0  0  0  0  0  0  0  0  0  0  0  0
   19.8715  -11.3300  -15.8050 C   0  0  0  0  0  0  0  0  0  0  0  0
   19.1896  -10.3306  -16.4050 C   0  0  0  0  0  0  0  0  0  0  0  0
   17.8414  -10.5175  -16.2657 N   0  0  0  0  0  0  0  0  0  0  0  0
   17.7173  -11.6465  -15.5739 C   0  0  0  0  0  0  0  0  0  0  0  0
   18.9003  -12.1630  -15.2797 N   0  0  0  0  0  0  0  0  0  0  0  0
   22.2511   -9.4173  -15.8810 C   0  0  0  0  0  0  0  0  0  0  0  0
   22.6104   -9.1491  -14.7021 O   0  0  0  0  0  0  0  0  0  0  0  0
   21.8262   -8.2738  -16.6513 N   0  0  0  0  0  0  0  0  0  0  0  0
   21.4406   -8.2045  -18.0310 C   0  0  0  0  0  0  0  0  0  0  0  0
   21.1130   -6.7326  -18.3324 C   0  0  0  0  0  0  0  0  0  0  0  0
   20.6958   -6.2478  -16.9798 C   0  0  0  0  0  0  0  0  0  0  0  0
   21.7038   -6.9227  -16.0736 C   0  0  1  0  0  0  0  0  0  0  0  0
   21.0981   -6.9793  -14.7003 C   0  0  0  0  0  0  0  0  0  0  0  0
   20.6121   -8.0322  -14.2640 O   0  0  0  0  0  0  0  0  0  0  0  0
   21.0841   -5.8434  -13.9170 O   0  0  0  0  0  0  0  0  0  0  0  0
  2  3  1  1
  2  1  1  0
  4  2  1  0
  5  4  1  0
  5  6  1  6
  7  8  2  0
  7  5  1  0
  9  7  1  0
 10  9  1  0
 10 11  1  1
 11 12  1  0
 12 13  2  0
 12 16  1  0
 13 14  1  0
 14 15  1  0
 16 15  2  0
 17 18  2  0
 17 10  1  0
 19 17  1  0
 20 19  1  0
 21 20  1  0
 22 23  1  0
 22 21  1  0
 23 19  1  0
 24 26  1  0
 23 24  1  1
 25 24  2  0
M  END
$$$$
