NHG.pdb
     RDKit          3D

 23 23  0  0  1  0  0  0  0  0999 V2000
   20.2256   -4.5753  -16.8702 N   0  0  0  0  0  0  0  0  0  0  0  0
   20.6998   -5.2102  -15.6937 C   0  0  0  0  0  0  0  0  0  0  0  0
   20.5651   -4.6300  -14.5847 O   0  0  0  0  0  0  0  0  0  0  0  0
   21.3570   -6.5386  -15.6817 C   0  0  0  0  0  0  0  0  0  0  0  0
   20.2976   -7.6428  -15.7939 C   0  0  2  0  0  0  0  0  0  0  0  0
   19.6630   -7.7194  -14.4949 N   0  0  0  0  0  0  0  0  0  0  0  0
   20.9945   -8.9199  -16.0929 C   0  0  0  0  0  0  0  0  0  0  0  0
   21.6711   -9.4784  -15.1654 O   0  0  0  0  0  0  0  0  0  0  0  0
   20.9362   -9.5402  -17.3678 N   0  0  0  0  0  0  0  0  0  0  0  0
   21.6370  -10.7738  -17.6163 C   0  0  1  0  0  0  0  0  0  0  0  0
   20.6138  -11.8032  -18.0391 C   0  0  0  0  0  0  0  0  0  0  0  0
   19.7130  -12.1572  -16.9177 C   0  0  0  0  0  0  0  0  0  0  0  0
   20.0265  -12.4190  -15.6050 C   0  0  0  0  0  0  0  0  0  0  0  0
   18.9106  -12.7007  -14.9102 N   0  0  0  0  0  0  0  0  0  0  0  0
   17.8893  -12.6189  -15.7765 C   0  0  0  0  0  0  0  0  0  0  0  0
   18.3782  -12.2890  -16.9944 N   0  0  0  0  0  0  0  0  0  0  0  0
   22.6896  -10.6145  -18.6529 C   0  0  0  0  0  0  0  0  0  0  0  0
   22.4240  -10.0245  -19.7296 O   0  0  0  0  0  0  0  0  0  0  0  0
   24.0053  -11.1041  -18.4865 N   0  0  0  0  0  0  0  0  0  0  0  0
   24.9935  -10.9902  -19.5469 C   0  0  0  0  0  0  0  0  0  0  0  0
   25.7307   -9.7152  -19.4783 C   0  0  0  0  0  0  0  0  0  0  0  0
   26.8082   -9.4825  -20.3033 O   0  0  0  0  0  0  0  0  0  0  0  0
   25.3759   -8.8387  -18.6660 O   0  0  0  0  0  0  0  0  0  0  0  0
  2  1  1  0
  2  3  2  0
  4  5  1  0
  4  2  1  0
  5  7  1  0
  5  6  1  1
  7  8  2  0
  9  7  1  0
  9 10  1  0
 10 17  1  0
 10 11  1  6
 12 11  1  0
 12 16  1  0
 13 14  1  0
 13 12  2  0
 14 15  1  0
 15 16  2  0
 17 19  1  0
 18 17  2  0
 19 20  1  0
 20 21  1  0
 21 23  2  0
 21 22  1  0
M  END
$$$$
