NHG.pdb
     RDKit          3D

 23 23  0  0  1  0  0  0  0  0999 V2000
   20.9840  -10.1534  -21.2581 N   0  0  0  0  0  0  0  0  0  0  0  0
   20.1631   -9.4930  -20.3083 C   0  0  0  0  0  0  0  0  0  0  0  0
   19.0439   -9.0439  -20.6692 O   0  0  0  0  0  0  0  0  0  0  0  0
   20.5423   -9.2918  -18.8896 C   0  0  0  0  0  0  0  0  0  0  0  0
   21.9569   -9.8347  -18.6483 C   0  0  2  0  0  0  0  0  0  0  0  0
   21.8109  -11.2649  -18.4780 N   0  0  0  0  0  0  0  0  0  0  0  0
   22.4756   -9.2261  -17.3967 C   0  0  0  0  0  0  0  0  0  0  0  0
   22.0155   -9.6397  -16.2800 O   0  0  0  0  0  0  0  0  0  0  0  0
   23.4609   -8.2050  -17.3966 N   0  0  0  0  0  0  0  0  0  0  0  0
   23.9805   -7.6869  -16.1571 C   0  0  1  0  0  0  0  0  0  0  0  0
   25.4886   -7.7641  -16.2262 C   0  0  0  0  0  0  0  0  0  0  0  0
   25.9583   -9.1674  -16.1588 C   0  0  0  0  0  0  0  0  0  0  0  0
   25.2234  -10.3202  -16.0144 C   0  0  0  0  0  0  0  0  0  0  0  0
   26.0383  -11.3894  -15.9993 N   0  0  0  0  0  0  0  0  0  0  0  0
   27.2881  -10.9202  -16.1336 C   0  0  0  0  0  0  0  0  0  0  0  0
   27.2376   -9.5714  -16.2303 N   0  0  0  0  0  0  0  0  0  0  0  0
   23.5311   -6.2928  -15.9069 C   0  0  0  0  0  0  0  0  0  0  0  0
   23.6058   -5.4369  -16.8232 O   0  0  0  0  0  0  0  0  0  0  0  0
   23.0117   -5.8700  -14.6620 N   0  0  0  0  0  0  0  0  0  0  0  0
   22.5298   -4.5122  -14.4665 C   0  0  0  0  0  0  0  0  0  0  0  0
   21.0832   -4.3981  -14.7271 C   0  0  0  0  0  0  0  0  0  0  0  0
   20.4203   -3.2131  -14.4984 O   0  0  0  0  0  0  0  0  0  0  0  0
   20.4530   -5.3833  -15.1588 O   0  0  0  0  0  0  0  0  0  0  0  0
  2  1  1  0
  2  3  2  0
  4  5  1  0
  4  2  1  0
  5  7  1  0
  5  6  1  1
  7  8  2  0
  9  7  1  0
  9 10  1  0
 10 17  1  0
 10 11  1  6
 12 11  1  0
 12 16  1  0
 13 14  1  0
 13 12  2  0
 14 15  1  0
 15 16  2  0
 17 19  1  0
 18 17  2  0
 19 20  1  0
 20 21  1  0
 21 23  2  0
 21 22  1  0
M  END
$$$$
