NHG.pdb
     RDKit          3D

 23 23  0  0  1  0  0  0  0  0999 V2000
   20.6712  -10.1486  -16.5828 N   0  0  0  0  0  0  0  0  0  0  0  0
   20.4409  -11.3349  -15.8399 C   0  0  0  0  0  0  0  0  0  0  0  0
   21.2145  -12.3161  -15.9924 O   0  0  0  0  0  0  0  0  0  0  0  0
   19.3273  -11.5005  -14.8758 C   0  0  0  0  0  0  0  0  0  0  0  0
   18.0848  -10.7587  -15.3856 C   0  0  2  0  0  0  0  0  0  0  0  0
   18.3149   -9.3570  -15.1056 N   0  0  0  0  0  0  0  0  0  0  0  0
   16.9115  -11.2430  -14.6143 C   0  0  0  0  0  0  0  0  0  0  0  0
   16.7544  -10.8289  -13.4169 O   0  0  0  0  0  0  0  0  0  0  0  0
   15.9616  -12.1463  -15.1577 N   0  0  0  0  0  0  0  0  0  0  0  0
   14.7840  -12.5092  -14.4121 C   0  0  1  0  0  0  0  0  0  0  0  0
   13.5963  -12.3670  -15.3364 C   0  0  0  0  0  0  0  0  0  0  0  0
   13.1074  -10.9691  -15.3717 C   0  0  0  0  0  0  0  0  0  0  0  0
   13.5551   -9.8774  -14.6663 C   0  0  0  0  0  0  0  0  0  0  0  0
   12.8362   -8.7892  -14.9926 N   0  0  0  0  0  0  0  0  0  0  0  0
   11.9334   -9.1855  -15.9027 C   0  0  0  0  0  0  0  0  0  0  0  0
   12.0996  -10.5088  -16.1315 N   0  0  0  0  0  0  0  0  0  0  0  0
   14.8737  -13.8903  -13.8713 C   0  0  0  0  0  0  0  0  0  0  0  0
   13.9018  -14.3820  -13.2456 O   0  0  0  0  0  0  0  0  0  0  0  0
   16.0229  -14.6984  -14.0281 N   0  0  0  0  0  0  0  0  0  0  0  0
   16.1315  -15.9923  -13.3737 C   0  0  0  0  0  0  0  0  0  0  0  0
   16.5643  -17.0476  -14.3079 C   0  0  0  0  0  0  0  0  0  0  0  0
   16.8173  -18.3236  -13.8567 O   0  0  0  0  0  0  0  0  0  0  0  0
   16.7028  -16.7832  -15.5184 O   0  0  0  0  0  0  0  0  0  0  0  0
  2  1  1  0
  2  3  2  0
  4  5  1  0
  4  2  1  0
  5  7  1  0
  5  6  1  1
  7  8  2  0
  9  7  1  0
  9 10  1  0
 10 17  1  0
 10 11  1  6
 12 11  1  0
 12 16  1  0
 13 14  1  0
 13 12  2  0
 14 15  1  0
 15 16  2  0
 17 19  1  0
 18 17  2  0
 19 20  1  0
 20 21  1  0
 21 23  2  0
 21 22  1  0
M  END
$$$$
