NHG.pdb
     RDKit          3D

 23 23  0  0  1  0  0  0  0  0999 V2000
   25.5678  -12.9217  -17.8366 N   0  0  0  0  0  0  0  0  0  0  0  0
   24.9601  -12.1206  -18.8371 C   0  0  0  0  0  0  0  0  0  0  0  0
   25.4240  -12.1408  -20.0072 O   0  0  0  0  0  0  0  0  0  0  0  0
   23.7911  -11.2428  -18.5927 C   0  0  0  0  0  0  0  0  0  0  0  0
   23.3868  -11.3164  -17.1145 C   0  0  2  0  0  0  0  0  0  0  0  0
   22.8156  -12.6328  -16.9228 N   0  0  0  0  0  0  0  0  0  0  0  0
   22.3556  -10.2764  -16.8676 C   0  0  0  0  0  0  0  0  0  0  0  0
   21.2506  -10.3486  -17.5030 O   0  0  0  0  0  0  0  0  0  0  0  0
   22.5528   -9.2085  -15.9542 N   0  0  0  0  0  0  0  0  0  0  0  0
   21.4978   -8.2640  -15.6908 C   0  0  1  0  0  0  0  0  0  0  0  0
   20.2955   -9.0444  -15.2103 C   0  0  0  0  0  0  0  0  0  0  0  0
   19.5345   -9.6125  -16.3472 C   0  0  0  0  0  0  0  0  0  0  0  0
   19.0896   -8.9890  -17.4888 C   0  0  0  0  0  0  0  0  0  0  0  0
   18.4361   -9.8663  -18.2703 N   0  0  0  0  0  0  0  0  0  0  0  0
   18.4642  -11.0448  -17.6295 C   0  0  0  0  0  0  0  0  0  0  0  0
   19.1313  -10.8888  -16.4626 N   0  0  0  0  0  0  0  0  0  0  0  0
   21.9036   -7.2441  -14.6892 C   0  0  0  0  0  0  0  0  0  0  0  0
   22.4678   -7.6013  -13.6252 O   0  0  0  0  0  0  0  0  0  0  0  0
   21.6826   -5.8604  -14.8760 N   0  0  0  0  0  0  0  0  0  0  0  0
   22.0509   -4.8921  -13.8558 C   0  0  0  0  0  0  0  0  0  0  0  0
   21.8028   -3.5070  -14.2957 C   0  0  0  0  0  0  0  0  0  0  0  0
   22.0366   -2.4485  -13.4466 O   0  0  0  0  0  0  0  0  0  0  0  0
   21.3771   -3.2908  -15.4473 O   0  0  0  0  0  0  0  0  0  0  0  0
  2  1  1  0
  2  3  2  0
  4  5  1  0
  4  2  1  0
  5  7  1  0
  5  6  1  6
  7  8  2  0
  9  7  1  0
  9 10  1  0
 10 17  1  0
 10 11  1  1
 12 11  1  0
 12 16  1  0
 13 14  1  0
 13 12  2  0
 14 15  1  0
 15 16  2  0
 17 19  1  0
 18 17  2  0
 19 20  1  0
 20 21  1  0
 21 23  2  0
 21 22  1  0
M  END
$$$$
