NHG.pdb
     RDKit          3D

 23 23  0  0  1  0  0  0  0  0999 V2000
   20.7677  -35.9179  -12.8068 N   0  0  0  0  0  0  0  0  0  0  0  0
   21.6558  -36.4347  -11.8289 C   0  0  0  0  0  0  0  0  0  0  0  0
   21.5135  -37.6217  -11.4347 O   0  0  0  0  0  0  0  0  0  0  0  0
   22.7634  -35.6549  -11.2271 C   0  0  0  0  0  0  0  0  0  0  0  0
   22.8009  -34.2488  -11.8398 C   0  0  2  0  0  0  0  0  0  0  0  0
   23.8923  -34.2578  -12.7910 N   0  0  0  0  0  0  0  0  0  0  0  0
   23.0866  -33.2802  -10.7507 C   0  0  0  0  0  0  0  0  0  0  0  0
   23.9023  -32.3254  -10.9806 O   0  0  0  0  0  0  0  0  0  0  0  0
   22.4880  -33.3768   -9.4678 N   0  0  0  0  0  0  0  0  0  0  0  0
   22.7643  -32.3924   -8.4533 C   0  0  1  0  0  0  0  0  0  0  0  0
   21.6505  -31.3710   -8.4925 C   0  0  0  0  0  0  0  0  0  0  0  0
   21.8131  -30.4427   -9.6354 C   0  0  0  0  0  0  0  0  0  0  0  0
   22.7419  -29.4452   -9.8151 C   0  0  0  0  0  0  0  0  0  0  0  0
   22.5414  -28.8336  -10.9955 N   0  0  0  0  0  0  0  0  0  0  0  0
   21.4888  -29.4388  -11.5664 C   0  0  0  0  0  0  0  0  0  0  0  0
   21.0481  -30.4152  -10.7395 N   0  0  0  0  0  0  0  0  0  0  0  0
   22.8768  -33.0036   -7.1035 C   0  0  0  0  0  0  0  0  0  0  0  0
   21.8385  -33.2953   -6.4597 O   0  0  0  0  0  0  0  0  0  0  0  0
   24.1211  -33.2802   -6.4921 N   0  0  0  0  0  0  0  0  0  0  0  0
   24.1989  -33.7681   -5.1247 C   0  0  0  0  0  0  0  0  0  0  0  0
   25.5702  -34.1679   -4.7595 C   0  0  0  0  0  0  0  0  0  0  0  0
   25.8745  -34.5312   -3.4667 O   0  0  0  0  0  0  0  0  0  0  0  0
   26.4637  -34.1775   -5.6289 O   0  0  0  0  0  0  0  0  0  0  0  0
  2  1  1  0
  2  3  2  0
  4  5  1  0
  4  2  1  0
  5  7  1  0
  5  6  1  6
  7  8  2  0
  9  7  1  0
  9 10  1  0
 10 17  1  0
 10 11  1  1
 12 11  1  0
 12 16  1  0
 13 14  1  0
 13 12  2  0
 14 15  1  0
 15 16  2  0
 17 19  1  0
 18 17  2  0
 19 20  1  0
 20 21  1  0
 21 23  2  0
 21 22  1  0
M  END
$$$$
