NHG.pdb
     RDKit          3D

 23 23  0  0  1  0  0  0  0  0999 V2000
   25.1956  -25.0795  -15.5544 N   0  0  0  0  0  0  0  0  0  0  0  0
   24.1989  -24.2473  -14.9833 C   0  0  0  0  0  0  0  0  0  0  0  0
   24.4743  -23.0466  -14.7246 O   0  0  0  0  0  0  0  0  0  0  0  0
   22.8261  -24.7059  -14.6639 C   0  0  0  0  0  0  0  0  0  0  0  0
   22.6943  -26.2033  -14.9712 C   0  0  2  0  0  0  0  0  0  0  0  0
   21.9165  -26.2931  -16.1889 N   0  0  0  0  0  0  0  0  0  0  0  0
   21.9555  -26.8393  -13.8506 C   0  0  0  0  0  0  0  0  0  0  0  0
   20.7642  -26.4510  -13.6059 O   0  0  0  0  0  0  0  0  0  0  0  0
   22.5235  -27.8596  -13.0444 N   0  0  0  0  0  0  0  0  0  0  0  0
   21.7325  -28.5309  -12.0453 C   0  0  1  0  0  0  0  0  0  0  0  0
   20.5821  -29.2094  -12.7535 C   0  0  0  0  0  0  0  0  0  0  0  0
   19.4554  -28.2719  -12.9681 C   0  0  0  0  0  0  0  0  0  0  0  0
   19.0417  -27.6675  -14.1314 C   0  0  0  0  0  0  0  0  0  0  0  0
   17.9744  -26.8856  -13.8924 N   0  0  0  0  0  0  0  0  0  0  0  0
   17.7085  -26.9911  -12.5815 C   0  0  0  0  0  0  0  0  0  0  0  0
   18.6084  -27.8329  -12.0222 N   0  0  0  0  0  0  0  0  0  0  0  0
   22.5341  -29.5143  -11.2718 C   0  0  0  0  0  0  0  0  0  0  0  0
   23.2214  -30.3750  -11.8756 O   0  0  0  0  0  0  0  0  0  0  0  0
   22.5640  -29.5319   -9.8586 N   0  0  0  0  0  0  0  0  0  0  0  0
   23.4406  -30.4368   -9.1328 C   0  0  0  0  0  0  0  0  0  0  0  0
   22.7969  -31.7375   -8.8733 C   0  0  0  0  0  0  0  0  0  0  0  0
   23.4593  -32.7211   -8.1734 O   0  0  0  0  0  0  0  0  0  0  0  0
   21.6417  -31.9502   -9.2911 O   0  0  0  0  0  0  0  0  0  0  0  0
  2  1  1  0
  2  3  2  0
  4  5  1  0
  4  2  1  0
  5  7  1  0
  5  6  1  6
  7  8  2  0
  9  7  1  0
  9 10  1  0
 10 17  1  0
 10 11  1  6
 12 11  1  0
 12 16  1  0
 13 14  1  0
 13 12  2  0
 14 15  1  0
 15 16  2  0
 17 19  1  0
 18 17  2  0
 19 20  1  0
 20 21  1  0
 21 23  2  0
 21 22  1  0
M  END
$$$$
