NHG.pdb
     RDKit          3D

 23 23  0  0  1  0  0  0  0  0999 V2000
   24.0392  -34.2552   -4.4723 N   0  0  0  0  0  0  0  0  0  0  0  0
   25.3653  -34.3273   -3.9741 C   0  0  0  0  0  0  0  0  0  0  0  0
   26.2028  -35.0633   -4.5585 O   0  0  0  0  0  0  0  0  0  0  0  0
   25.8416  -33.5788   -2.7868 C   0  0  0  0  0  0  0  0  0  0  0  0
   24.6588  -32.8765   -2.1071 C   0  0  2  0  0  0  0  0  0  0  0  0
   24.2518  -31.8193   -3.0086 N   0  0  0  0  0  0  0  0  0  0  0  0
   25.1425  -32.2939   -0.8294 C   0  0  0  0  0  0  0  0  0  0  0  0
   25.9165  -31.2797   -0.8747 O   0  0  0  0  0  0  0  0  0  0  0  0
   24.7771  -32.8217    0.4361 N   0  0  0  0  0  0  0  0  0  0  0  0
   25.1736  -32.1567    1.6507 C   0  0  1  0  0  0  0  0  0  0  0  0
   23.9650  -32.1020    2.5570 C   0  0  0  0  0  0  0  0  0  0  0  0
   22.9636  -31.1308    2.0589 C   0  0  0  0  0  0  0  0  0  0  0  0
   23.1650  -29.9332    1.4147 C   0  0  0  0  0  0  0  0  0  0  0  0
   21.9843  -29.3562    1.1310 N   0  0  0  0  0  0  0  0  0  0  0  0
   21.0335  -30.1827    1.5926 C   0  0  0  0  0  0  0  0  0  0  0  0
   21.6297  -31.2592    2.1554 N   0  0  0  0  0  0  0  0  0  0  0  0
   26.3066  -32.8493    2.3176 C   0  0  0  0  0  0  0  0  0  0  0  0
   26.3093  -34.1022    2.4071 O   0  0  0  0  0  0  0  0  0  0  0  0
   27.4073  -32.1550    2.8696 N   0  0  0  0  0  0  0  0  0  0  0  0
   28.5477  -32.8661    3.4245 C   0  0  0  0  0  0  0  0  0  0  0  0
   28.3057  -33.2967    4.8136 C   0  0  0  0  0  0  0  0  0  0  0  0
   27.0688  -33.1290    5.3949 O   0  0  0  0  0  0  0  0  0  0  0  0
   29.2291  -33.8179    5.4692 O   0  0  0  0  0  0  0  0  0  0  0  0
  2  1  1  0
  2  3  2  0
  4  5  1  0
  4  2  1  0
  5  7  1  0
  5  6  1  6
  7  8  2  0
  9  7  1  0
  9 10  1  0
 10 17  1  0
 10 11  1  1
 12 11  1  0
 12 16  1  0
 13 14  1  0
 13 12  2  0
 14 15  1  0
 15 16  2  0
 17 19  1  0
 18 17  2  0
 19 20  1  0
 20 21  1  0
 21 23  2  0
 21 22  1  0
M  END
$$$$
