NHG.pdb
     RDKit          3D

 23 23  0  0  1  0  0  0  0  0999 V2000
   26.9122  -13.4475  -15.7336 N   0  0  0  0  0  0  0  0  0  0  0  0
   27.3350  -12.1188  -15.9943 C   0  0  0  0  0  0  0  0  0  0  0  0
   28.5418  -11.8103  -15.8124 O   0  0  0  0  0  0  0  0  0  0  0  0
   26.4326  -11.0464  -16.4767 C   0  0  0  0  0  0  0  0  0  0  0  0
   24.9880  -11.5621  -16.5156 C   0  0  2  0  0  0  0  0  0  0  0  0
   24.9127  -12.4501  -17.6565 N   0  0  0  0  0  0  0  0  0  0  0  0
   24.0895  -10.3973  -16.7205 C   0  0  0  0  0  0  0  0  0  0  0  0
   24.0809   -9.8257  -17.8621 O   0  0  0  0  0  0  0  0  0  0  0  0
   23.2427   -9.8980  -15.6972 N   0  0  0  0  0  0  0  0  0  0  0  0
   22.3631   -8.7859  -15.9503 C   0  0  1  0  0  0  0  0  0  0  0  0
   20.9514   -9.2468  -15.6680 C   0  0  0  0  0  0  0  0  0  0  0  0
   20.5296  -10.3002  -16.6203 C   0  0  0  0  0  0  0  0  0  0  0  0
   21.2026  -10.8032  -17.7084 C   0  0  0  0  0  0  0  0  0  0  0  0
   20.4656  -11.7535  -18.3093 N   0  0  0  0  0  0  0  0  0  0  0  0
   19.3269  -11.8562  -17.6071 C   0  0  0  0  0  0  0  0  0  0  0  0
   19.3676  -10.9733  -16.5824 N   0  0  0  0  0  0  0  0  0  0  0  0
   22.7115   -7.6033  -15.1207 C   0  0  0  0  0  0  0  0  0  0  0  0
   23.0425   -7.7571  -13.9188 O   0  0  0  0  0  0  0  0  0  0  0  0
   22.6892   -6.2832  -15.6259 N   0  0  0  0  0  0  0  0  0  0  0  0
   23.0150   -5.1455  -14.7811 C   0  0  0  0  0  0  0  0  0  0  0  0
   21.8796   -4.7499  -13.9279 C   0  0  0  0  0  0  0  0  0  0  0  0
   21.9804   -3.6670  -13.0833 O   0  0  0  0  0  0  0  0  0  0  0  0
   20.8175   -5.4013  -13.9706 O   0  0  0  0  0  0  0  0  0  0  0  0
  2  1  1  0
  2  3  2  0
  4  5  1  0
  4  2  1  0
  5  7  1  0
  5  6  1  6
  7  8  2  0
  9  7  1  0
  9 10  1  0
 10 17  1  0
 10 11  1  1
 12 11  1  0
 12 16  1  0
 13 14  1  0
 13 12  2  0
 14 15  1  0
 15 16  2  0
 17 19  1  0
 18 17  2  0
 19 20  1  0
 20 21  1  0
 21 23  2  0
 21 22  1  0
M  END
$$$$
