NHG.pdb
     RDKit          3D

 23 23  0  0  1  0  0  0  0  0999 V2000
   20.1975  -13.8093  -18.6193 N   0  0  0  0  0  0  0  0  0  0  0  0
   20.6732  -14.0107  -17.2982 C   0  0  0  0  0  0  0  0  0  0  0  0
   20.3184  -15.0404  -16.6669 O   0  0  0  0  0  0  0  0  0  0  0  0
   21.5790  -13.0708  -16.5961 C   0  0  0  0  0  0  0  0  0  0  0  0
   21.8023  -11.8224  -17.4597 C   0  0  2  0  0  0  0  0  0  0  0  0
   22.5817  -12.2601  -18.5985 N   0  0  0  0  0  0  0  0  0  0  0  0
   22.5812  -10.8432  -16.6595 C   0  0  0  0  0  0  0  0  0  0  0  0
   23.5586  -11.2683  -15.9567 O   0  0  0  0  0  0  0  0  0  0  0  0
   22.2799   -9.4566  -16.6474 N   0  0  0  0  0  0  0  0  0  0  0  0
   23.1840   -8.5145  -16.0394 C   0  0  1  0  0  0  0  0  0  0  0  0
   24.4704   -8.5387  -16.8329 C   0  0  0  0  0  0  0  0  0  0  0  0
   25.3482   -9.6503  -16.3993 C   0  0  0  0  0  0  0  0  0  0  0  0
   26.0006   -9.8214  -15.2014 C   0  0  0  0  0  0  0  0  0  0  0  0
   26.6976  -10.9710  -15.2142 N   0  0  0  0  0  0  0  0  0  0  0  0
   26.4905  -11.5309  -16.4158 C   0  0  0  0  0  0  0  0  0  0  0  0
   25.6713  -10.7279  -17.1337 N   0  0  0  0  0  0  0  0  0  0  0  0
   22.6114   -7.1440  -15.9978 C   0  0  0  0  0  0  0  0  0  0  0  0
   22.1961   -6.6065  -17.0544 O   0  0  0  0  0  0  0  0  0  0  0  0
   22.5075   -6.3960  -14.8027 N   0  0  0  0  0  0  0  0  0  0  0  0
   21.8332   -5.1082  -14.7738 C   0  0  0  0  0  0  0  0  0  0  0  0
   22.7062   -4.0184  -15.2471 C   0  0  0  0  0  0  0  0  0  0  0  0
   22.2406   -2.7242  -15.3121 O   0  0  0  0  0  0  0  0  0  0  0  0
   23.8775   -4.2700  -15.5921 O   0  0  0  0  0  0  0  0  0  0  0  0
  2  1  1  0
  2  3  2  0
  4  5  1  0
  4  2  1  0
  5  7  1  0
  5  6  1  6
  7  8  2  0
  9  7  1  0
  9 10  1  0
 10 17  1  0
 10 11  1  6
 12 11  1  0
 12 16  1  0
 13 14  1  0
 13 12  2  0
 14 15  1  0
 15 16  2  0
 17 19  1  0
 18 17  2  0
 19 20  1  0
 20 21  1  0
 21 23  2  0
 21 22  1  0
M  END
$$$$
