NHG.pdb
     RDKit          3D

 23 23  0  0  1  0  0  0  0  0999 V2000
   25.4858  -22.3118   -9.5690 N   0  0  0  0  0  0  0  0  0  0  0  0
   24.8382  -21.0536   -9.6661 C   0  0  0  0  0  0  0  0  0  0  0  0
   24.2365  -20.5923   -8.6612 O   0  0  0  0  0  0  0  0  0  0  0  0
   24.8218  -20.2279  -10.8969 C   0  0  0  0  0  0  0  0  0  0  0  0
   25.5285  -20.9771  -12.0341 C   0  0  2  0  0  0  0  0  0  0  0  0
   26.9172  -21.0831  -11.6387 N   0  0  0  0  0  0  0  0  0  0  0  0
   25.4143  -20.1560  -13.2664 C   0  0  0  0  0  0  0  0  0  0  0  0
   26.2315  -19.1896  -13.4346 O   0  0  0  0  0  0  0  0  0  0  0  0
   24.4331  -20.4053  -14.2608 N   0  0  0  0  0  0  0  0  0  0  0  0
   24.4125  -19.6382  -15.4797 C   0  0  1  0  0  0  0  0  0  0  0  0
   24.8130  -20.5618  -16.6074 C   0  0  0  0  0  0  0  0  0  0  0  0
   26.2419  -20.9400  -16.5102 C   0  0  0  0  0  0  0  0  0  0  0  0
   26.8020  -22.0780  -15.9799 C   0  0  0  0  0  0  0  0  0  0  0  0
   28.1411  -22.0288  -16.0895 N   0  0  0  0  0  0  0  0  0  0  0  0
   28.4338  -20.8640  -16.6875 C   0  0  0  0  0  0  0  0  0  0  0  0
   27.2799  -20.2045  -16.9421 N   0  0  0  0  0  0  0  0  0  0  0  0
   23.0776  -19.0372  -15.7343 C   0  0  0  0  0  0  0  0  0  0  0  0
   22.0379  -19.6534  -15.3919 O   0  0  0  0  0  0  0  0  0  0  0  0
   22.9131  -17.7785  -16.3563 N   0  0  0  0  0  0  0  0  0  0  0  0
   21.6002  -17.1687  -16.4919 C   0  0  0  0  0  0  0  0  0  0  0  0
   20.7273  -17.9361  -17.3990 C   0  0  0  0  0  0  0  0  0  0  0  0
   19.3582  -17.8937  -17.2580 O   0  0  0  0  0  0  0  0  0  0  0  0
   21.2325  -18.6305  -18.3027 O   0  0  0  0  0  0  0  0  0  0  0  0
  2  1  1  0
  2  3  2  0
  4  5  1  0
  4  2  1  0
  5  7  1  0
  5  6  1  1
  7  8  2  0
  9  7  1  0
  9 10  1  0
 10 17  1  0
 10 11  1  6
 12 11  1  0
 12 16  1  0
 13 14  1  0
 13 12  2  0
 14 15  1  0
 15 16  2  0
 17 19  1  0
 18 17  2  0
 19 20  1  0
 20 21  1  0
 21 23  2  0
 21 22  1  0
M  END
$$$$
