NHG.pdb
     RDKit          3D

 23 23  0  0  1  0  0  0  0  0999 V2000
   21.4794  -20.1199  -18.8311 N   0  0  0  0  0  0  0  0  0  0  0  0
   22.4208  -21.1684  -18.9935 C   0  0  0  0  0  0  0  0  0  0  0  0
   22.5037  -21.7541  -20.1047 O   0  0  0  0  0  0  0  0  0  0  0  0
   23.3328  -21.6308  -17.9205 C   0  0  0  0  0  0  0  0  0  0  0  0
   23.0360  -20.8682  -16.6226 C   0  0  2  0  0  0  0  0  0  0  0  0
   23.1562  -19.4631  -16.9499 N   0  0  0  0  0  0  0  0  0  0  0  0
   24.0669  -21.2449  -15.6220 C   0  0  0  0  0  0  0  0  0  0  0  0
   24.2064  -22.4783  -15.3232 O   0  0  0  0  0  0  0  0  0  0  0  0
   24.9001  -20.2872  -14.9878 N   0  0  0  0  0  0  0  0  0  0  0  0
   25.8612  -20.6936  -13.9951 C   0  0  1  0  0  0  0  0  0  0  0  0
   27.1563  -19.9722  -14.2909 C   0  0  0  0  0  0  0  0  0  0  0  0
   27.7845  -20.4830  -15.5313 C   0  0  0  0  0  0  0  0  0  0  0  0
   27.3404  -21.4639  -16.3860 C   0  0  0  0  0  0  0  0  0  0  0  0
   28.2107  -21.6243  -17.3982 N   0  0  0  0  0  0  0  0  0  0  0  0
   29.2059  -20.7489  -17.1897 C   0  0  0  0  0  0  0  0  0  0  0  0
   28.9455  -20.0571  -16.0563 N   0  0  0  0  0  0  0  0  0  0  0  0
   25.3924  -20.3992  -12.6161 C   0  0  0  0  0  0  0  0  0  0  0  0
   24.8213  -19.3082  -12.3684 O   0  0  0  0  0  0  0  0  0  0  0  0
   25.5597  -21.3045  -11.5433 N   0  0  0  0  0  0  0  0  0  0  0  0
   25.1247  -20.9692  -10.1971 C   0  0  0  0  0  0  0  0  0  0  0  0
   23.6640  -21.0961  -10.0425 C   0  0  0  0  0  0  0  0  0  0  0  0
   23.0625  -20.8470   -8.8292 O   0  0  0  0  0  0  0  0  0  0  0  0
   22.9657  -21.4322  -11.0190 O   0  0  0  0  0  0  0  0  0  0  0  0
  2  1  1  0
  2  3  2  0
  4  5  1  0
  4  2  1  0
  5  7  1  0
  5  6  1  6
  7  8  2  0
  9  7  1  0
  9 10  1  0
 10 17  1  0
 10 11  1  6
 12 11  1  0
 12 16  1  0
 13 14  1  0
 13 12  2  0
 14 15  1  0
 15 16  2  0
 17 19  1  0
 18 17  2  0
 19 20  1  0
 20 21  1  0
 21 23  2  0
 21 22  1  0
M  END
$$$$
