NCK.pdb
     RDKit          3D

 24 23  0  0  1  0  0  0  0  0999 V2000
   22.1972  -14.5821  -19.3730 N   0  0  0  0  0  0  0  0  0  0  0  0
   21.0910  -13.8584  -18.8339 C   0  0  0  0  0  0  0  0  0  0  0  0
   19.9886  -13.9365  -19.4229 O   0  0  0  0  0  0  0  0  0  0  0  0
   21.2907  -13.0596  -17.6225 C   0  0  0  0  0  0  0  0  0  0  0  0
   22.7056  -13.1026  -17.1143 C   0  0  2  0  0  0  0  0  0  0  0  0
   22.9333  -14.4076  -16.4968 N   0  0  0  0  0  0  0  0  0  0  0  0
   22.8802  -12.0566  -16.0382 C   0  0  0  0  0  0  0  0  0  0  0  0
   22.1837  -12.0979  -14.9864 O   0  0  0  0  0  0  0  0  0  0  0  0
   23.8343  -11.0307  -16.2256 N   0  0  0  0  0  0  0  0  0  0  0  0
   24.1119   -9.9973  -15.2465 C   0  0  1  0  0  0  0  0  0  0  0  0
   25.5935   -9.9163  -14.9322 C   0  0  0  0  0  0  0  0  0  0  0  0
   26.5713   -9.6946  -16.4365 S   0  0  0  0  0  0  0  0  0  0  0  0
   23.6087   -8.6927  -15.7256 C   0  0  0  0  0  0  0  0  0  0  0  0
   23.4820   -8.5021  -16.9710 O   0  0  0  0  0  0  0  0  0  0  0  0
   23.2524   -7.6217  -14.8748 N   0  0  0  0  0  0  0  0  0  0  0  0
   22.7556   -6.3645  -15.3720 C   0  0  1  0  0  0  0  0  0  0  0  0
   21.5395   -6.5251  -16.2525 C   0  0  0  0  0  0  0  0  0  0  0  0
   20.9378   -5.2216  -16.6798 C   0  0  0  0  0  0  0  0  0  0  0  0
   19.7268   -5.5411  -17.5290 C   0  0  0  0  0  0  0  0  0  0  0  0
   19.0766   -4.3081  -18.0962 C   0  0  0  0  0  0  0  0  0  0  0  0
   17.9718   -4.6728  -18.9602 N   0  0  0  0  0  0  0  0  0  0  0  0
   22.5544   -5.3743  -14.3051 C   0  0  0  0  0  0  0  0  0  0  0  0
   22.3341   -4.1657  -14.5692 O   0  0  0  0  0  0  0  0  0  0  0  0
   22.6052   -5.7621  -12.9874 O   0  0  0  0  0  0  0  0  0  0  0  0
  2  4  1  0
  2  1  1  0
  3  2  2  0
  4  5  1  0
  5  7  1  0
  5  6  1  1
  7  9  1  0
  7  8  2  0
  9 10  1  0
 10 13  1  0
 10 11  1  6
 12 11  1  0
 13 15  1  0
 13 14  2  0
 15 16  1  0
 16 22  1  0
 16 17  1  1
 18 17  1  0
 19 18  1  0
 20 19  1  0
 21 20  1  0
 22 24  1  0
 23 22  2  0
M  END
$$$$
