NCK.pdb
     RDKit          3D

 24 23  0  0  1  0  0  0  0  0999 V2000
   14.1323  -12.3551  -12.8735 N   0  0  0  0  0  0  0  0  0  0  0  0
   14.0490  -12.2626  -11.4514 C   0  0  0  0  0  0  0  0  0  0  0  0
   13.1914  -12.9592  -10.8619 O   0  0  0  0  0  0  0  0  0  0  0  0
   14.9637  -11.3620  -10.7460 C   0  0  0  0  0  0  0  0  0  0  0  0
   15.8792  -10.6082  -11.6710 C   0  0  2  0  0  0  0  0  0  0  0  0
   16.8648  -11.5449  -12.2071 N   0  0  0  0  0  0  0  0  0  0  0  0
   16.6319   -9.5617  -10.8830 C   0  0  0  0  0  0  0  0  0  0  0  0
   17.8366   -9.7500  -10.5567 O   0  0  0  0  0  0  0  0  0  0  0  0
   15.9684   -8.3688  -10.5160 N   0  0  0  0  0  0  0  0  0  0  0  0
   16.6529   -7.1537  -10.1177 C   0  0  1  0  0  0  0  0  0  0  0  0
   17.6681   -6.7236  -11.1593 C   0  0  0  0  0  0  0  0  0  0  0  0
   18.3114   -5.0718  -10.8043 S   0  0  0  0  0  0  0  0  0  0  0  0
   15.6733   -6.0753   -9.8683 C   0  0  0  0  0  0  0  0  0  0  0  0
   14.8642   -5.7545  -10.7879 O   0  0  0  0  0  0  0  0  0  0  0  0
   15.5746   -5.3625   -8.6517 N   0  0  0  0  0  0  0  0  0  0  0  0
   14.5015   -4.4431   -8.3728 C   0  0  1  0  0  0  0  0  0  0  0  0
   13.9566   -4.5904   -6.9723 C   0  0  0  0  0  0  0  0  0  0  0  0
   12.8056   -3.6765   -6.6824 C   0  0  0  0  0  0  0  0  0  0  0  0
   12.3683   -3.9405   -5.2581 C   0  0  0  0  0  0  0  0  0  0  0  0
   11.1735   -3.1177   -4.8580 C   0  0  0  0  0  0  0  0  0  0  0  0
   10.7995   -3.4047   -3.4876 N   0  0  0  0  0  0  0  0  0  0  0  0
   14.8476   -3.0535   -8.7017 C   0  0  0  0  0  0  0  0  0  0  0  0
   16.0416   -2.6619   -8.7072 O   0  0  0  0  0  0  0  0  0  0  0  0
   13.8572   -2.1522   -9.0118 O   0  0  0  0  0  0  0  0  0  0  0  0
  2  4  1  0
  2  1  1  0
  3  2  2  0
  4  5  1  0
  5  7  1  0
  5  6  1  1
  7  9  1  0
  7  8  2  0
  9 10  1  0
 10 13  1  0
 10 11  1  6
 12 11  1  0
 13 15  1  0
 13 14  2  0
 15 16  1  0
 16 22  1  0
 16 17  1  1
 18 17  1  0
 19 18  1  0
 20 19  1  0
 21 20  1  0
 22 24  1  0
 23 22  2  0
M  END
$$$$
