NCK.pdb
     RDKit          3D

 24 23  0  0  1  0  0  0  0  0999 V2000
   24.3367  -10.4615  -18.3716 N   0  0  0  0  0  0  0  0  0  0  0  0
   22.9218  -10.6399  -18.4363 C   0  0  0  0  0  0  0  0  0  0  0  0
   22.4455  -11.2421  -19.4257 O   0  0  0  0  0  0  0  0  0  0  0  0
   22.0918  -10.1141  -17.3501 C   0  0  0  0  0  0  0  0  0  0  0  0
   22.8857   -9.3851  -16.3011 C   0  0  2  0  0  0  0  0  0  0  0  0
   23.6234  -10.3714  -15.5142 N   0  0  0  0  0  0  0  0  0  0  0  0
   21.9378   -8.6754  -15.3628 C   0  0  0  0  0  0  0  0  0  0  0  0
   21.2693   -9.3280  -14.5141 O   0  0  0  0  0  0  0  0  0  0  0  0
   21.8097   -7.2704  -15.4486 N   0  0  0  0  0  0  0  0  0  0  0  0
   20.9078   -6.4898  -14.6235 C   0  0  1  0  0  0  0  0  0  0  0  0
   21.6398   -5.8406  -13.4645 C   0  0  0  0  0  0  0  0  0  0  0  0
   23.0736   -4.9012  -14.0388 S   0  0  0  0  0  0  0  0  0  0  0  0
   20.2211   -5.4694  -15.4434 C   0  0  0  0  0  0  0  0  0  0  0  0
   20.8757   -4.8560  -16.3370 O   0  0  0  0  0  0  0  0  0  0  0  0
   18.8586   -5.1230  -15.2969 N   0  0  0  0  0  0  0  0  0  0  0  0
   18.2072   -4.1525  -16.1385 C   0  0  1  0  0  0  0  0  0  0  0  0
   16.8856   -4.6433  -16.6794 C   0  0  0  0  0  0  0  0  0  0  0  0
   16.1734   -3.6290  -17.5208 C   0  0  0  0  0  0  0  0  0  0  0  0
   14.8961   -4.2714  -18.0163 C   0  0  0  0  0  0  0  0  0  0  0  0
   14.1284   -3.3820  -18.9566 C   0  0  0  0  0  0  0  0  0  0  0  0
   13.0364   -4.1150  -19.5654 N   0  0  0  0  0  0  0  0  0  0  0  0
   18.1026   -2.8320  -15.5026 C   0  0  0  0  0  0  0  0  0  0  0  0
   17.7705   -2.7127  -14.2965 O   0  0  0  0  0  0  0  0  0  0  0  0
   18.3701   -1.6955  -16.2278 O   0  0  0  0  0  0  0  0  0  0  0  0
  2  4  1  0
  2  1  1  0
  3  2  2  0
  4  5  1  0
  5  7  1  0
  5  6  1  1
  7  9  1  0
  7  8  2  0
  9 10  1  0
 10 13  1  0
 10 11  1  1
 12 11  1  0
 13 15  1  0
 13 14  2  0
 15 16  1  0
 16 22  1  0
 16 17  1  1
 18 17  1  0
 19 18  1  0
 20 19  1  0
 21 20  1  0
 22 24  1  0
 23 22  2  0
M  END
$$$$
