NCK.pdb
     RDKit          3D

 24 23  0  0  1  0  0  0  0  0999 V2000
   23.8550   -9.1189  -14.2572 N   0  0  0  0  0  0  0  0  0  0  0  0
   24.6045   -9.1611  -15.4716 C   0  0  0  0  0  0  0  0  0  0  0  0
   24.0515   -8.7641  -16.5228 O   0  0  0  0  0  0  0  0  0  0  0  0
   25.9796   -9.6643  -15.4374 C   0  0  0  0  0  0  0  0  0  0  0  0
   26.3798  -10.3731  -16.7022 C   0  0  2  0  0  0  0  0  0  0  0  0
   25.7595  -11.6965  -16.7041 N   0  0  0  0  0  0  0  0  0  0  0  0
   27.8770  -10.5755  -16.7073 C   0  0  0  0  0  0  0  0  0  0  0  0
   28.4182  -11.3701  -15.8894 O   0  0  0  0  0  0  0  0  0  0  0  0
   28.6636   -9.8624  -17.6404 N   0  0  0  0  0  0  0  0  0  0  0  0
   30.0789  -10.0990  -17.8514 C   0  0  1  0  0  0  0  0  0  0  0  0
   30.3563  -10.5716  -19.2657 C   0  0  0  0  0  0  0  0  0  0  0  0
   29.5448  -12.1521  -19.5994 S   0  0  0  0  0  0  0  0  0  0  0  0
   30.8508   -8.8749  -17.5501 C   0  0  0  0  0  0  0  0  0  0  0  0
   30.3601   -7.7480  -17.8543 O   0  0  0  0  0  0  0  0  0  0  0  0
   32.1233   -8.8738  -16.9349 N   0  0  0  0  0  0  0  0  0  0  0  0
   32.8579   -7.6640  -16.6677 C   0  0  1  0  0  0  0  0  0  0  0  0
   34.0694   -7.8976  -15.7972 C   0  0  0  0  0  0  0  0  0  0  0  0
   34.8445   -6.6487  -15.5086 C   0  0  0  0  0  0  0  0  0  0  0  0
   35.9175   -7.0065  -14.5033 C   0  0  0  0  0  0  0  0  0  0  0  0
   36.6952   -5.8060  -14.0357 C   0  0  0  0  0  0  0  0  0  0  0  0
   37.6150   -6.1809  -12.9804 N   0  0  0  0  0  0  0  0  0  0  0  0
   33.1763   -6.9141  -17.8905 C   0  0  0  0  0  0  0  0  0  0  0  0
   33.1470   -5.6580  -17.9123 O   0  0  0  0  0  0  0  0  0  0  0  0
   33.5148   -7.5852  -19.0413 O   0  0  0  0  0  0  0  0  0  0  0  0
  2  4  1  0
  2  1  1  0
  3  2  2  0
  4  5  1  0
  5  7  1  0
  5  6  1  1
  7  9  1  0
  7  8  2  0
  9 10  1  0
 10 13  1  0
 10 11  1  6
 12 11  1  0
 13 15  1  0
 13 14  2  0
 15 16  1  0
 16 22  1  0
 16 17  1  6
 18 17  1  0
 19 18  1  0
 20 19  1  0
 21 20  1  0
 22 24  1  0
 23 22  2  0
M  END
$$$$
