NCK.pdb
     RDKit          3D

 24 23  0  0  1  0  0  0  0  0999 V2000
   27.4564  -12.5537  -17.6417 N   0  0  0  0  0  0  0  0  0  0  0  0
   27.1509  -11.8466  -16.4398 C   0  0  0  0  0  0  0  0  0  0  0  0
   27.5680  -12.3139  -15.3554 O   0  0  0  0  0  0  0  0  0  0  0  0
   26.3667  -10.6124  -16.5247 C   0  0  0  0  0  0  0  0  0  0  0  0
   25.2531  -10.5506  -15.5156 C   0  0  2  0  0  0  0  0  0  0  0  0
   24.3337  -11.6563  -15.7767 N   0  0  0  0  0  0  0  0  0  0  0  0
   24.4806   -9.2660  -15.7045 C   0  0  0  0  0  0  0  0  0  0  0  0
   25.0868   -8.1819  -15.9295 O   0  0  0  0  0  0  0  0  0  0  0  0
   23.0697   -9.2947  -15.6254 N   0  0  0  0  0  0  0  0  0  0  0  0
   22.2281   -8.1237  -15.7809 C   0  0  1  0  0  0  0  0  0  0  0  0
   22.4309   -7.4722  -17.1355 C   0  0  0  0  0  0  0  0  0  0  0  0
   21.2502   -6.1290  -17.3999 S   0  0  0  0  0  0  0  0  0  0  0  0
   20.8087   -8.4863  -15.5842 C   0  0  0  0  0  0  0  0  0  0  0  0
   20.2786   -9.3375  -16.3573 O   0  0  0  0  0  0  0  0  0  0  0  0
   19.9852   -7.9386  -14.5744 N   0  0  0  0  0  0  0  0  0  0  0  0
   18.6175   -8.3460  -14.3790 C   0  0  1  0  0  0  0  0  0  0  0  0
   18.2425   -8.4488  -12.9200 C   0  0  0  0  0  0  0  0  0  0  0  0
   16.8576   -8.9745  -12.6971 C   0  0  0  0  0  0  0  0  0  0  0  0
   16.6421   -9.0569  -11.2016 C   0  0  0  0  0  0  0  0  0  0  0  0
   15.2387   -9.4632  -10.8410 C   0  0  0  0  0  0  0  0  0  0  0  0
   15.0999   -9.5753   -9.4028 N   0  0  0  0  0  0  0  0  0  0  0  0
   17.6691   -7.5310  -15.1505 C   0  0  0  0  0  0  0  0  0  0  0  0
   17.9852   -6.3936  -15.5811 O   0  0  0  0  0  0  0  0  0  0  0  0
   16.4075   -8.0082  -15.4150 O   0  0  0  0  0  0  0  0  0  0  0  0
  2  4  1  0
  2  1  1  0
  3  2  2  0
  4  5  1  0
  5  7  1  0
  5  6  1  6
  7  9  1  0
  7  8  2  0
  9 10  1  0
 10 13  1  0
 10 11  1  6
 12 11  1  0
 13 15  1  0
 13 14  2  0
 15 16  1  0
 16 22  1  0
 16 17  1  1
 18 17  1  0
 19 18  1  0
 20 19  1  0
 21 20  1  0
 22 24  1  0
 23 22  2  0
M  END
$$$$
