PVK.pdb
     RDKit          3D

 24 24  0  0  1  0  0  0  0  0999 V2000
   29.1895  -19.8681  -15.2633 N   0  0  0  0  0  0  0  0  0  0  0  0
   28.4750  -19.7928  -16.4991 C   0  0  0  0  0  0  0  0  0  0  0  0
   27.1895  -19.0345  -16.2191 C   0  0  0  0  0  0  0  0  0  0  0  0
   27.4816  -18.3751  -14.8918 C   0  0  0  0  0  0  0  0  0  0  0  0
   28.3420  -19.4155  -14.2066 C   0  0  1  0  0  0  0  0  0  0  0  0
   27.5337  -20.5109  -13.6082 C   0  0  0  0  0  0  0  0  0  0  0  0
   28.0773  -21.5596  -13.1779 O   0  0  0  0  0  0  0  0  0  0  0  0
   27.2739  -21.1396  -10.7663 C   0  0  0  0  0  0  0  0  0  0  0  0
   25.9293  -20.5987  -11.0788 C   0  0  2  0  0  0  0  0  0  0  0  0
   24.9873  -20.9206   -9.9458 C   0  0  0  0  0  0  0  0  0  0  0  0
   25.3465  -21.0258  -12.4199 C   0  0  2  0  0  0  0  0  0  0  0  0
   26.1288  -20.4257  -13.4959 N   0  0  0  0  0  0  0  0  0  0  0  0
   23.9141  -20.7420  -12.5655 C   0  0  0  0  0  0  0  0  0  0  0  0
   23.5119  -19.5239  -12.4865 O   0  0  0  0  0  0  0  0  0  0  0  0
   22.8740  -21.6692  -12.7934 N   0  0  0  0  0  0  0  0  0  0  0  0
   21.5096  -21.2542  -13.1363 C   0  0  1  0  0  0  0  0  0  0  0  0
   20.7372  -22.3652  -13.7531 C   0  0  0  0  0  0  0  0  0  0  0  0
   19.3185  -22.0536  -14.1010 C   0  0  0  0  0  0  0  0  0  0  0  0
   18.5956  -23.2308  -14.7192 C   0  0  0  0  0  0  0  0  0  0  0  0
   17.1530  -22.8810  -15.0338 C   0  0  0  0  0  0  0  0  0  0  0  0
   16.4269  -24.0234  -15.5378 N   0  0  0  0  0  0  0  0  0  0  0  0
   20.8517  -20.7947  -11.9039 C   0  0  0  0  0  0  0  0  0  0  0  0
   19.9135  -19.7870  -11.9603 O   0  0  0  0  0  0  0  0  0  0  0  0
   21.1319  -21.3041  -10.8051 O   0  0  0  0  0  0  0  0  0  0  0  0
  1  2  1  0
  3  2  1  0
  4  3  1  0
  5  4  1  0
  5  1  1  0
  6 12  1  0
  5  6  1  6
  7  6  2  0
  9  8  1  1
  9 11  1  0
 10  9  1  0
 11 12  1  6
 13 14  2  0
 13 11  1  0
 15 13  1  0
 16 15  1  0
 16 17  1  1
 18 17  1  0
 19 18  1  0
 20 19  1  0
 20 21  1  0
 22 16  1  0
 23 22  1  0
 24 22  2  0
M  END
$$$$
