PVK.pdb
     RDKit          3D

 24 24  0  0  1  0  0  0  0  0999 V2000
   21.7386  -29.7504  -16.6351 N   0  0  0  0  0  0  0  0  0  0  0  0
   22.6723  -30.6968  -17.1603 C   0  0  0  0  0  0  0  0  0  0  0  0
   22.3801  -32.0251  -16.4849 C   0  0  0  0  0  0  0  0  0  0  0  0
   21.0003  -31.8035  -15.9113 C   0  0  0  0  0  0  0  0  0  0  0  0
   21.0495  -30.3388  -15.5312 C   0  0  1  0  0  0  0  0  0  0  0  0
   21.7432  -30.1153  -14.2349 C   0  0  0  0  0  0  0  0  0  0  0  0
   22.9559  -29.7866  -14.1947 O   0  0  0  0  0  0  0  0  0  0  0  0
   20.2503  -27.6213  -11.7876 C   0  0  0  0  0  0  0  0  0  0  0  0
   20.5494  -28.8818  -11.0663 C   0  0  2  0  0  0  0  0  0  0  0  0
   20.9191  -28.5633   -9.6393 C   0  0  0  0  0  0  0  0  0  0  0  0
   21.5924  -29.7793  -11.7199 C   0  0  2  0  0  0  0  0  0  0  0  0
   21.0779  -30.2604  -12.9981 N   0  0  0  0  0  0  0  0  0  0  0  0
   22.0485  -30.8830  -10.8671 C   0  0  0  0  0  0  0  0  0  0  0  0
   21.2514  -31.8667  -10.6466 O   0  0  0  0  0  0  0  0  0  0  0  0
   23.3021  -31.0149  -10.2310 N   0  0  0  0  0  0  0  0  0  0  0  0
   23.6856  -32.2200   -9.4880 C   0  0  1  0  0  0  0  0  0  0  0  0
   25.1031  -32.1615   -9.0424 C   0  0  0  0  0  0  0  0  0  0  0  0
   25.6180  -33.3840   -8.3560 C   0  0  0  0  0  0  0  0  0  0  0  0
   27.0068  -33.1936   -7.7855 C   0  0  0  0  0  0  0  0  0  0  0  0
   27.5681  -34.5046   -7.2673 C   0  0  0  0  0  0  0  0  0  0  0  0
   28.9781  -34.3992   -6.9717 N   0  0  0  0  0  0  0  0  0  0  0  0
   22.7885  -32.3434   -8.3292 C   0  0  0  0  0  0  0  0  0  0  0  0
   22.4375  -31.2222   -7.6092 O   0  0  0  0  0  0  0  0  0  0  0  0
   22.3404  -33.4512   -7.9866 O   0  0  0  0  0  0  0  0  0  0  0  0
  1  2  1  0
  3  2  1  0
  4  3  1  0
  5  4  1  0
  5  1  1  0
  6 12  1  0
  5  6  1  1
  7  6  2  0
  9  8  1  6
  9 11  1  0
 10  9  1  0
 11 12  1  6
 13 14  2  0
 13 11  1  0
 15 13  1  0
 16 15  1  0
 16 17  1  1
 18 17  1  0
 19 18  1  0
 20 19  1  0
 20 21  1  0
 22 16  1  0
 23 22  1  0
 24 22  2  0
M  END
$$$$
