PVK.pdb
     RDKit          3D

 24 24  0  0  1  0  0  0  0  0999 V2000
   28.9608  -20.8810  -15.2164 N   0  0  0  0  0  0  0  0  0  0  0  0
   28.4224  -20.5301  -16.4932 C   0  0  0  0  0  0  0  0  0  0  0  0
   27.6035  -19.2669  -16.2938 C   0  0  0  0  0  0  0  0  0  0  0  0
   28.0915  -18.7693  -14.9536 C   0  0  0  0  0  0  0  0  0  0  0  0
   28.3541  -20.0641  -14.2142 C   0  0  1  0  0  0  0  0  0  0  0  0
   27.1090  -20.6609  -13.6618 C   0  0  0  0  0  0  0  0  0  0  0  0
   26.5965  -21.6875  -14.1756 O   0  0  0  0  0  0  0  0  0  0  0  0
   26.5251  -20.8230   -9.5973 C   0  0  0  0  0  0  0  0  0  0  0  0
   25.3664  -20.3249  -10.3770 C   0  0  2  0  0  0  0  0  0  0  0  0
   24.0896  -20.7102   -9.6727 C   0  0  0  0  0  0  0  0  0  0  0  0
   25.3356  -20.7393  -11.8425 C   0  0  2  0  0  0  0  0  0  0  0  0
   26.4490  -20.1074  -12.5431 N   0  0  0  0  0  0  0  0  0  0  0  0
   24.0549  -20.4783  -12.5096 C   0  0  0  0  0  0  0  0  0  0  0  0
   23.7530  -19.2685  -12.8212 O   0  0  0  0  0  0  0  0  0  0  0  0
   23.0683  -21.4208  -12.8727 N   0  0  0  0  0  0  0  0  0  0  0  0
   21.8339  -21.0410  -13.5681 C   0  0  1  0  0  0  0  0  0  0  0  0
   21.3721  -22.1123  -14.4902 C   0  0  0  0  0  0  0  0  0  0  0  0
   20.1492  -21.7985  -15.2881 C   0  0  0  0  0  0  0  0  0  0  0  0
   19.6081  -23.0029  -16.0277 C   0  0  0  0  0  0  0  0  0  0  0  0
   18.4737  -22.6090  -16.9554 C   0  0  0  0  0  0  0  0  0  0  0  0
   17.9019  -23.7603  -17.6142 N   0  0  0  0  0  0  0  0  0  0  0  0
   20.8081  -20.7618  -12.5519 C   0  0  0  0  0  0  0  0  0  0  0  0
   19.7364  -19.9528  -12.8613 O   0  0  0  0  0  0  0  0  0  0  0  0
   20.8945  -21.2469  -11.4105 O   0  0  0  0  0  0  0  0  0  0  0  0
  1  2  1  0
  3  2  1  0
  4  3  1  0
  5  4  1  0
  5  1  1  0
  6 12  1  0
  5  6  1  6
  7  6  2  0
  9  8  1  1
  9 11  1  0
 10  9  1  0
 11 12  1  6
 13 14  2  0
 13 11  1  0
 15 13  1  0
 16 15  1  0
 16 17  1  6
 18 17  1  0
 19 18  1  0
 20 19  1  0
 20 21  1  0
 22 16  1  0
 23 22  1  0
 24 22  2  0
M  END
$$$$
