PVK.pdb
     RDKit          3D

 24 24  0  0  1  0  0  0  0  0999 V2000
   21.1316  -14.1876  -19.5778 N   0  0  0  0  0  0  0  0  0  0  0  0
   20.0210  -13.8771  -20.4224 C   0  0  0  0  0  0  0  0  0  0  0  0
   20.3022  -12.5177  -21.0378 C   0  0  0  0  0  0  0  0  0  0  0  0
   21.7830  -12.3478  -20.7923 C   0  0  0  0  0  0  0  0  0  0  0  0
   21.9598  -13.0308  -19.4527 C   0  0  1  0  0  0  0  0  0  0  0  0
   21.5605  -12.1575  -18.3172 C   0  0  0  0  0  0  0  0  0  0  0  0
   20.4098  -12.2284  -17.8158 O   0  0  0  0  0  0  0  0  0  0  0  0
   23.4780  -12.1251  -15.0872 C   0  0  0  0  0  0  0  0  0  0  0  0
   23.3265  -10.7215  -15.5402 C   0  0  2  0  0  0  0  0  0  0  0  0
   23.2170   -9.8189  -14.3369 C   0  0  0  0  0  0  0  0  0  0  0  0
   22.1918  -10.4694  -16.5248 C   0  0  2  0  0  0  0  0  0  0  0  0
   22.4477  -11.2153  -17.7528 N   0  0  0  0  0  0  0  0  0  0  0  0
   21.9399   -9.0489  -16.7939 C   0  0  0  0  0  0  0  0  0  0  0  0
   22.7889   -8.3912  -17.4998 O   0  0  0  0  0  0  0  0  0  0  0  0
   20.8396   -8.2757  -16.3638 N   0  0  0  0  0  0  0  0  0  0  0  0
   20.6458   -6.8821  -16.7785 C   0  0  1  0  0  0  0  0  0  0  0  0
   19.2270   -6.6062  -17.1278 C   0  0  0  0  0  0  0  0  0  0  0  0
   18.9312   -5.2168  -17.5891 C   0  0  0  0  0  0  0  0  0  0  0  0
   17.4546   -4.9791  -17.8206 C   0  0  0  0  0  0  0  0  0  0  0  0
   17.1911   -3.5421  -18.2308 C   0  0  0  0  0  0  0  0  0  0  0  0
   15.8420   -3.3668  -18.7161 N   0  0  0  0  0  0  0  0  0  0  0  0
   21.0796   -6.0151  -15.6727 C   0  0  0  0  0  0  0  0  0  0  0  0
   21.0158   -6.4729  -14.3745 O   0  0  0  0  0  0  0  0  0  0  0  0
   21.5046   -4.8677  -15.8928 O   0  0  0  0  0  0  0  0  0  0  0  0
  1  2  1  0
  3  2  1  0
  4  3  1  0
  5  4  1  0
  5  1  1  0
  6 12  1  0
  5  6  1  1
  7  6  2  0
  9  8  1  1
  9 11  1  0
 10  9  1  0
 11 12  1  6
 13 14  2  0
 13 11  1  0
 15 13  1  0
 16 15  1  0
 16 17  1  1
 18 17  1  0
 19 18  1  0
 20 19  1  0
 20 21  1  0
 22 16  1  0
 23 22  1  0
 24 22  2  0
M  END
$$$$
