PVK.pdb
     RDKit          3D

 24 24  0  0  1  0  0  0  0  0999 V2000
   28.6159  -19.6515  -15.5600 N   0  0  0  0  0  0  0  0  0  0  0  0
   27.8580  -19.0852  -16.6316 C   0  0  0  0  0  0  0  0  0  0  0  0
   27.0039  -17.9821  -16.0319 C   0  0  0  0  0  0  0  0  0  0  0  0
   27.6689  -17.7431  -14.6968 C   0  0  0  0  0  0  0  0  0  0  0  0
   28.1281  -19.1359  -14.3207 C   0  0  1  0  0  0  0  0  0  0  0  0
   27.0283  -19.9575  -13.7489 C   0  0  0  0  0  0  0  0  0  0  0  0
   26.6371  -21.0073  -14.3190 O   0  0  0  0  0  0  0  0  0  0  0  0
   26.8675  -20.7127   -9.7451 C   0  0  0  0  0  0  0  0  0  0  0  0
   25.5958  -20.2271  -10.3328 C   0  0  2  0  0  0  0  0  0  0  0  0
   24.4369  -20.8114   -9.5646 C   0  0  0  0  0  0  0  0  0  0  0  0
   25.4368  -20.4550  -11.8305 C   0  0  2  0  0  0  0  0  0  0  0  0
   26.3770  -19.6002  -12.5483 N   0  0  0  0  0  0  0  0  0  0  0  0
   24.0634  -20.2820  -12.3178 C   0  0  0  0  0  0  0  0  0  0  0  0
   23.5604  -19.0998  -12.3487 O   0  0  0  0  0  0  0  0  0  0  0  0
   23.1837  -21.2851  -12.7798 N   0  0  0  0  0  0  0  0  0  0  0  0
   21.8308  -20.9860  -13.2611 C   0  0  1  0  0  0  0  0  0  0  0  0
   21.3785  -21.9748  -14.2754 C   0  0  0  0  0  0  0  0  0  0  0  0
   19.9901  -21.7848  -14.7921 C   0  0  0  0  0  0  0  0  0  0  0  0
   19.5958  -22.8335  -15.8097 C   0  0  0  0  0  0  0  0  0  0  0  0
   18.1879  -22.5940  -16.3223 C   0  0  0  0  0  0  0  0  0  0  0  0
   17.8640  -23.4771  -17.4185 N   0  0  0  0  0  0  0  0  0  0  0  0
   20.9256  -20.9898  -12.1020 C   0  0  0  0  0  0  0  0  0  0  0  0
   19.8614  -20.1155  -12.0582 O   0  0  0  0  0  0  0  0  0  0  0  0
   21.1079  -21.7741  -11.1549 O   0  0  0  0  0  0  0  0  0  0  0  0
  1  2  1  0
  3  2  1  0
  4  3  1  0
  5  4  1  0
  5  1  1  0
  6 12  1  0
  5  6  1  6
  7  6  2  0
  9  8  1  1
  9 11  1  0
 10  9  1  0
 11 12  1  6
 13 14  2  0
 13 11  1  0
 15 13  1  0
 16 15  1  0
 16 17  1  6
 18 17  1  0
 19 18  1  0
 20 19  1  0
 20 21  1  0
 22 16  1  0
 23 22  1  0
 24 22  2  0
M  END
$$$$
