PVK.pdb
     RDKit          3D

 24 24  0  0  1  0  0  0  0  0999 V2000
   28.4261  -18.4113  -15.2612 N   0  0  0  0  0  0  0  0  0  0  0  0
   27.6718  -18.3415  -16.4734 C   0  0  0  0  0  0  0  0  0  0  0  0
   26.2972  -17.8107  -16.1068 C   0  0  0  0  0  0  0  0  0  0  0  0
   26.5279  -17.2277  -14.7324 C   0  0  0  0  0  0  0  0  0  0  0  0
   27.5529  -18.1805  -14.1549 C   0  0  1  0  0  0  0  0  0  0  0  0
   26.9340  -19.4308  -13.6400 C   0  0  0  0  0  0  0  0  0  0  0  0
   27.0301  -20.5125  -14.2733 O   0  0  0  0  0  0  0  0  0  0  0  0
   26.9393  -20.1462   -9.6320 C   0  0  0  0  0  0  0  0  0  0  0  0
   25.6477  -20.4673  -10.2854 C   0  0  2  0  0  0  0  0  0  0  0  0
   25.0210  -21.6523   -9.5944 C   0  0  0  0  0  0  0  0  0  0  0  0
   25.7100  -20.6764  -11.7931 C   0  0  2  0  0  0  0  0  0  0  0  0
   26.2151  -19.4619  -12.4253 N   0  0  0  0  0  0  0  0  0  0  0  0
   24.4412  -21.1119  -12.3880 C   0  0  0  0  0  0  0  0  0  0  0  0
   23.5252  -20.2370  -12.6051 O   0  0  0  0  0  0  0  0  0  0  0  0
   24.0781  -22.4210  -12.7727 N   0  0  0  0  0  0  0  0  0  0  0  0
   22.7738  -22.7346  -13.3661 C   0  0  1  0  0  0  0  0  0  0  0  0
   22.5821  -24.2005  -13.5255 C   0  0  0  0  0  0  0  0  0  0  0  0
   21.2619  -24.6253  -14.0798 C   0  0  0  0  0  0  0  0  0  0  0  0
   21.3919  -25.3926  -15.3779 C   0  0  0  0  0  0  0  0  0  0  0  0
   20.0281  -25.7206  -15.9566 C   0  0  0  0  0  0  0  0  0  0  0  0
   20.1391  -26.4548  -17.1956 N   0  0  0  0  0  0  0  0  0  0  0  0
   21.7315  -22.1730  -12.4937 C   0  0  0  0  0  0  0  0  0  0  0  0
   21.8571  -22.2665  -11.1246 O   0  0  0  0  0  0  0  0  0  0  0  0
   20.7320  -21.6128  -12.9759 O   0  0  0  0  0  0  0  0  0  0  0  0
  1  2  1  0
  3  2  1  0
  4  3  1  0
  5  4  1  0
  5  1  1  0
  6 12  1  0
  5  6  1  6
  7  6  2  0
  9  8  1  1
  9 11  1  0
 10  9  1  0
 11 12  1  6
 13 14  2  0
 13 11  1  0
 15 13  1  0
 16 15  1  0
 16 17  1  1
 18 17  1  0
 19 18  1  0
 20 19  1  0
 20 21  1  0
 22 16  1  0
 23 22  1  0
 24 22  2  0
M  END
$$$$
