PVK.pdb
     RDKit          3D

 24 24  0  0  1  0  0  0  0  0999 V2000
   29.0002  -18.8141  -15.5015 N   0  0  0  0  0  0  0  0  0  0  0  0
   28.2410  -18.6149  -16.6962 C   0  0  0  0  0  0  0  0  0  0  0  0
   26.9795  -17.8697  -16.2972 C   0  0  0  0  0  0  0  0  0  0  0  0
   27.3321  -17.3407  -14.9269 C   0  0  0  0  0  0  0  0  0  0  0  0
   28.2007  -18.4512  -14.3752 C   0  0  1  0  0  0  0  0  0  0  0  0
   27.3978  -19.5873  -13.8497 C   0  0  0  0  0  0  0  0  0  0  0  0
   27.4090  -20.7089  -14.4175 O   0  0  0  0  0  0  0  0  0  0  0  0
   25.4216  -21.4553   -9.6971 C   0  0  0  0  0  0  0  0  0  0  0  0
   25.9869  -20.3596  -10.5206 C   0  0  2  0  0  0  0  0  0  0  0  0
   25.3398  -19.0556  -10.1264 C   0  0  0  0  0  0  0  0  0  0  0  0
   25.9252  -20.5734  -12.0276 C   0  0  2  0  0  0  0  0  0  0  0  0
   26.5916  -19.4612  -12.6975 N   0  0  0  0  0  0  0  0  0  0  0  0
   24.5685  -20.7858  -12.5450 C   0  0  0  0  0  0  0  0  0  0  0  0
   23.8585  -19.7627  -12.8625 O   0  0  0  0  0  0  0  0  0  0  0  0
   23.9118  -22.0184  -12.7519 N   0  0  0  0  0  0  0  0  0  0  0  0
   22.6878  -22.1346  -13.5518 C   0  0  1  0  0  0  0  0  0  0  0  0
   22.5901  -23.4619  -14.2150 C   0  0  0  0  0  0  0  0  0  0  0  0
   23.7054  -23.8045  -15.1475 C   0  0  0  0  0  0  0  0  0  0  0  0
   23.5010  -25.1344  -15.8405 C   0  0  0  0  0  0  0  0  0  0  0  0
   24.6419  -25.4328  -16.7954 C   0  0  0  0  0  0  0  0  0  0  0  0
   24.5776  -26.7872  -17.2934 N   0  0  0  0  0  0  0  0  0  0  0  0
   21.5395  -21.9223  -12.6578 C   0  0  0  0  0  0  0  0  0  0  0  0
   21.6917  -22.0710  -11.2964 O   0  0  0  0  0  0  0  0  0  0  0  0
   20.4265  -21.6099  -13.1150 O   0  0  0  0  0  0  0  0  0  0  0  0
  1  2  1  0
  3  2  1  0
  4  3  1  0
  5  4  1  0
  5  1  1  0
  6 12  1  0
  5  6  1  6
  7  6  2  0
  9  8  1  1
  9 11  1  0
 10  9  1  0
 11 12  1  6
 13 14  2  0
 13 11  1  0
 15 13  1  0
 16 15  1  0
 16 17  1  1
 18 17  1  0
 19 18  1  0
 20 19  1  0
 20 21  1  0
 22 16  1  0
 23 22  1  0
 24 22  2  0
M  END
$$$$
