PVK.pdb
     RDKit          3D

 24 24  0  0  1  0  0  0  0  0999 V2000
   22.8150  -22.0394  -16.8057 N   0  0  0  0  0  0  0  0  0  0  0  0
   22.6770  -23.4526  -16.9701 C   0  0  0  0  0  0  0  0  0  0  0  0
   21.2023  -23.7735  -16.8030 C   0  0  0  0  0  0  0  0  0  0  0  0
   20.5531  -22.4186  -16.9606 C   0  0  0  0  0  0  0  0  0  0  0  0
   21.5802  -21.5028  -16.3294 C   0  0  1  0  0  0  0  0  0  0  0  0
   21.4915  -21.4938  -14.8449 C   0  0  0  0  0  0  0  0  0  0  0  0
   22.3591  -22.0667  -14.1382 O   0  0  0  0  0  0  0  0  0  0  0  0
   21.0349  -18.1761  -12.9473 C   0  0  0  0  0  0  0  0  0  0  0  0
   20.0513  -19.1673  -12.4489 C   0  0  2  0  0  0  0  0  0  0  0  0
   19.8054  -18.9296  -10.9800 C   0  0  0  0  0  0  0  0  0  0  0  0
   20.3947  -20.6260  -12.7224 C   0  0  2  0  0  0  0  0  0  0  0  0
   20.4373  -20.8464  -14.1645 N   0  0  0  0  0  0  0  0  0  0  0  0
   19.5076  -21.5836  -12.0519 C   0  0  0  0  0  0  0  0  0  0  0  0
   18.4788  -22.0239  -12.6841 O   0  0  0  0  0  0  0  0  0  0  0  0
   19.6411  -22.1105  -10.7488 N   0  0  0  0  0  0  0  0  0  0  0  0
   18.6650  -23.0405  -10.1711 C   0  0  1  0  0  0  0  0  0  0  0  0
   19.1231  -23.5716   -8.8599 C   0  0  0  0  0  0  0  0  0  0  0  0
   18.1662  -24.4781   -8.1574 C   0  0  0  0  0  0  0  0  0  0  0  0
   18.6417  -24.8735   -6.7761 C   0  0  0  0  0  0  0  0  0  0  0  0
   17.5762  -25.6620   -6.0374 C   0  0  0  0  0  0  0  0  0  0  0  0
   18.0528  -26.1285   -4.7562 N   0  0  0  0  0  0  0  0  0  0  0  0
   17.3907  -22.3228  -10.0166 C   0  0  0  0  0  0  0  0  0  0  0  0
   16.1990  -23.0032  -10.1423 O   0  0  0  0  0  0  0  0  0  0  0  0
   17.3723  -21.1037   -9.7741 O   0  0  0  0  0  0  0  0  0  0  0  0
  1  2  1  0
  3  2  1  0
  4  3  1  0
  5  4  1  0
  5  1  1  0
  6 12  1  0
  5  6  1  1
  7  6  2  0
  9  8  1  1
  9 11  1  0
 10  9  1  0
 11 12  1  6
 13 14  2  0
 13 11  1  0
 15 13  1  0
 16 15  1  0
 16 17  1  1
 18 17  1  0
 19 18  1  0
 20 19  1  0
 20 21  1  0
 22 16  1  0
 23 22  1  0
 24 22  2  0
M  END
$$$$
