PVK.pdb
     RDKit          3D

 24 24  0  0  1  0  0  0  0  0999 V2000
   25.2447  -16.5071  -17.2978 N   0  0  0  0  0  0  0  0  0  0  0  0
   26.2994  -15.7028  -16.7650 C   0  0  0  0  0  0  0  0  0  0  0  0
   27.3016  -16.6527  -16.1334 C   0  0  0  0  0  0  0  0  0  0  0  0
   26.9140  -17.9835  -16.7340 C   0  0  0  0  0  0  0  0  0  0  0  0
   25.4099  -17.8517  -16.8455 C   0  0  1  0  0  0  0  0  0  0  0  0
   24.7233  -18.1120  -15.5523 C   0  0  0  0  0  0  0  0  0  0  0  0
   24.3412  -17.1665  -14.8172 O   0  0  0  0  0  0  0  0  0  0  0  0
   21.5251  -19.8959  -15.1670 C   0  0  0  0  0  0  0  0  0  0  0  0
   22.4914  -20.5685  -14.2656 C   0  0  2  0  0  0  0  0  0  0  0  0
   21.7661  -21.0669  -13.0409 C   0  0  0  0  0  0  0  0  0  0  0  0
   23.7157  -19.7455  -13.8858 C   0  0  2  0  0  0  0  0  0  0  0  0
   24.4699  -19.4227  -15.0928 N   0  0  0  0  0  0  0  0  0  0  0  0
   24.5639  -20.3736  -12.8662 C   0  0  0  0  0  0  0  0  0  0  0  0
   25.1193  -21.5020  -13.1306 O   0  0  0  0  0  0  0  0  0  0  0  0
   24.8662  -19.8803  -11.5783 N   0  0  0  0  0  0  0  0  0  0  0  0
   25.7957  -20.5625  -10.6715 C   0  0  1  0  0  0  0  0  0  0  0  0
   26.7486  -19.6089  -10.0440 C   0  0  0  0  0  0  0  0  0  0  0  0
   27.8644  -20.2252   -9.2654 C   0  0  0  0  0  0  0  0  0  0  0  0
   28.9385  -20.8180  -10.1517 C   0  0  0  0  0  0  0  0  0  0  0  0
   30.0621  -21.4129   -9.3234 C   0  0  0  0  0  0  0  0  0  0  0  0
   31.0913  -21.9872  -10.1585 N   0  0  0  0  0  0  0  0  0  0  0  0
   25.0025  -21.2481   -9.6402 C   0  0  0  0  0  0  0  0  0  0  0  0
   25.5527  -22.2950   -8.9329 O   0  0  0  0  0  0  0  0  0  0  0  0
   23.8355  -20.8960   -9.3963 O   0  0  0  0  0  0  0  0  0  0  0  0
  1  2  1  0
  3  2  1  0
  4  3  1  0
  5  4  1  0
  5  1  1  0
  6 12  1  0
  5  6  1  1
  7  6  2  0
  9  8  1  1
  9 11  1  0
 10  9  1  0
 11 12  1  6
 13 14  2  0
 13 11  1  0
 15 13  1  0
 16 15  1  0
 16 17  1  1
 18 17  1  0
 19 18  1  0
 20 19  1  0
 20 21  1  0
 22 16  1  0
 23 22  1  0
 24 22  2  0
M  END
$$$$
