PVK.pdb
     RDKit          3D

 24 24  0  0  1  0  0  0  0  0999 V2000
   26.4039  -19.5216  -13.9848 N   0  0  0  0  0  0  0  0  0  0  0  0
   27.7624  -19.0781  -13.9521 C   0  0  0  0  0  0  0  0  0  0  0  0
   28.6313  -20.3230  -13.9173 C   0  0  0  0  0  0  0  0  0  0  0  0
   27.6703  -21.4045  -14.3518 C   0  0  0  0  0  0  0  0  0  0  0  0
   26.3671  -20.9291  -13.7455 C   0  0  1  0  0  0  0  0  0  0  0  0
   26.2617  -21.2642  -12.3005 C   0  0  0  0  0  0  0  0  0  0  0  0
   26.4330  -22.4406  -11.8917 O   0  0  0  0  0  0  0  0  0  0  0  0
   27.0955  -19.2015   -8.8875 C   0  0  0  0  0  0  0  0  0  0  0  0
   25.6458  -19.4587   -9.0631 C   0  0  2  0  0  0  0  0  0  0  0  0
   25.0203  -19.7235   -7.7165 C   0  0  0  0  0  0  0  0  0  0  0  0
   25.2905  -20.5526  -10.0619 C   0  0  2  0  0  0  0  0  0  0  0  0
   25.9669  -20.2849  -11.3271 N   0  0  0  0  0  0  0  0  0  0  0  0
   23.8476  -20.7458  -10.2469 C   0  0  0  0  0  0  0  0  0  0  0  0
   23.2528  -20.1102  -11.1923 O   0  0  0  0  0  0  0  0  0  0  0  0
   22.9890  -21.5753   -9.4930 N   0  0  0  0  0  0  0  0  0  0  0  0
   21.5515  -21.6772   -9.7667 C   0  0  1  0  0  0  0  0  0  0  0  0
   20.8699  -22.5707   -8.7930 C   0  0  0  0  0  0  0  0  0  0  0  0
   19.4143  -22.8023   -9.0342 C   0  0  0  0  0  0  0  0  0  0  0  0
   18.8223  -23.8320   -8.0963 C   0  0  0  0  0  0  0  0  0  0  0  0
   17.3652  -24.0971   -8.4267 C   0  0  0  0  0  0  0  0  0  0  0  0
   17.1821  -25.4059   -9.0097 N   0  0  0  0  0  0  0  0  0  0  0  0
   20.9810  -20.3231   -9.7066 C   0  0  0  0  0  0  0  0  0  0  0  0
   21.4451  -19.4225   -8.7725 O   0  0  0  0  0  0  0  0  0  0  0  0
   20.0798  -19.9769  -10.4898 O   0  0  0  0  0  0  0  0  0  0  0  0
  1  2  1  0
  3  2  1  0
  4  3  1  0
  5  4  1  0
  5  1  1  0
  6 12  1  0
  5  6  1  1
  7  6  2  0
  9  8  1  1
  9 11  1  0
 10  9  1  0
 11 12  1  6
 13 14  2  0
 13 11  1  0
 15 13  1  0
 16 15  1  0
 16 17  1  1
 18 17  1  0
 19 18  1  0
 20 19  1  0
 20 21  1  0
 22 16  1  0
 23 22  1  0
 24 22  2  0
M  END
$$$$
