PVK.pdb
     RDKit          3D

 24 24  0  0  1  0  0  0  0  0999 V2000
   20.3427  -14.6874  -19.3017 N   0  0  0  0  0  0  0  0  0  0  0  0
   18.9321  -14.5420  -19.4818 C   0  0  0  0  0  0  0  0  0  0  0  0
   18.6918  -13.1153  -19.9431 C   0  0  0  0  0  0  0  0  0  0  0  0
   20.0688  -12.6783  -20.3845 C   0  0  0  0  0  0  0  0  0  0  0  0
   20.9597  -13.4030  -19.3981 C   0  0  1  0  0  0  0  0  0  0  0  0
   21.0381  -12.7028  -18.0885 C   0  0  0  0  0  0  0  0  0  0  0  0
   20.1228  -12.8169  -17.2344 O   0  0  0  0  0  0  0  0  0  0  0  0
   24.1375  -12.8502  -15.7358 C   0  0  0  0  0  0  0  0  0  0  0  0
   23.7426  -11.4413  -15.9750 C   0  0  2  0  0  0  0  0  0  0  0  0
   24.0325  -10.6262  -14.7396 C   0  0  0  0  0  0  0  0  0  0  0  0
   22.3102  -11.2337  -16.4501 C   0  0  2  0  0  0  0  0  0  0  0  0
   22.1355  -11.8836  -17.7451 N   0  0  0  0  0  0  0  0  0  0  0  0
   21.8915   -9.8277  -16.4864 C   0  0  0  0  0  0  0  0  0  0  0  0
   22.3501   -9.0676  -17.4157 O   0  0  0  0  0  0  0  0  0  0  0  0
   21.0115   -9.1709  -15.5988 N   0  0  0  0  0  0  0  0  0  0  0  0
   20.6587   -7.7545  -15.7434 C   0  0  1  0  0  0  0  0  0  0  0  0
   19.1981   -7.5719  -15.9540 C   0  0  0  0  0  0  0  0  0  0  0  0
   18.7246   -6.1570  -16.0217 C   0  0  0  0  0  0  0  0  0  0  0  0
   17.2373   -6.0495  -16.2804 C   0  0  0  0  0  0  0  0  0  0  0  0
   16.7986   -4.5984  -16.3465 C   0  0  0  0  0  0  0  0  0  0  0  0
   15.4217   -4.4781  -16.7662 N   0  0  0  0  0  0  0  0  0  0  0  0
   21.0931   -7.0521  -14.5265 C   0  0  0  0  0  0  0  0  0  0  0  0
   21.1521   -7.7277  -13.3269 O   0  0  0  0  0  0  0  0  0  0  0  0
   21.4087   -5.8503  -14.5638 O   0  0  0  0  0  0  0  0  0  0  0  0
  1  2  1  0
  3  2  1  0
  4  3  1  0
  5  4  1  0
  5  1  1  0
  6 12  1  0
  5  6  1  1
  7  6  2  0
  9  8  1  1
  9 11  1  0
 10  9  1  0
 11 12  1  6
 13 14  2  0
 13 11  1  0
 15 13  1  0
 16 15  1  0
 16 17  1  1
 18 17  1  0
 19 18  1  0
 20 19  1  0
 20 21  1  0
 22 16  1  0
 23 22  1  0
 24 22  2  0
M  END
$$$$
