PVK.pdb
     RDKit          3D

 24 24  0  0  1  0  0  0  0  0999 V2000
   22.3923  -14.1717  -19.7761 N   0  0  0  0  0  0  0  0  0  0  0  0
   21.5542  -13.7000  -20.8336 C   0  0  0  0  0  0  0  0  0  0  0  0
   21.9794  -12.2725  -21.1291 C   0  0  0  0  0  0  0  0  0  0  0  0
   23.3333  -12.1905  -20.4641 C   0  0  0  0  0  0  0  0  0  0  0  0
   23.1414  -13.0752  -19.2506 C   0  0  1  0  0  0  0  0  0  0  0  0
   22.4352  -12.3728  -18.1463 C   0  0  0  0  0  0  0  0  0  0  0  0
   21.2006  -12.5244  -17.9638 O   0  0  0  0  0  0  0  0  0  0  0  0
   23.5593  -12.7525  -14.5971 C   0  0  0  0  0  0  0  0  0  0  0  0
   23.3957  -11.3011  -14.8518 C   0  0  2  0  0  0  0  0  0  0  0  0
   22.9042  -10.6272  -13.5953 C   0  0  0  0  0  0  0  0  0  0  0  0
   22.5257  -10.9397  -16.0489 C   0  0  2  0  0  0  0  0  0  0  0  0
   23.1124  -11.5096  -17.2576 N   0  0  0  0  0  0  0  0  0  0  0  0
   22.2758   -9.5008  -16.1921 C   0  0  0  0  0  0  0  0  0  0  0  0
   23.2567   -8.7281  -16.4964 O   0  0  0  0  0  0  0  0  0  0  0  0
   21.0470   -8.8232  -16.0358 N   0  0  0  0  0  0  0  0  0  0  0  0
   20.9153   -7.3754  -16.2308 C   0  0  1  0  0  0  0  0  0  0  0  0
   19.7329   -7.0402  -17.0680 C   0  0  0  0  0  0  0  0  0  0  0  0
   20.0310   -6.4040  -18.3860 C   0  0  0  0  0  0  0  0  0  0  0  0
   18.7865   -5.9130  -19.0935 C   0  0  0  0  0  0  0  0  0  0  0  0
   19.1137   -5.4107  -20.4874 C   0  0  0  0  0  0  0  0  0  0  0  0
   17.9717   -4.7791  -21.1065 N   0  0  0  0  0  0  0  0  0  0  0  0
   20.8000   -6.7476  -14.9059 C   0  0  0  0  0  0  0  0  0  0  0  0
   21.0388   -5.3981  -14.7616 O   0  0  0  0  0  0  0  0  0  0  0  0
   20.4896   -7.4205  -13.9078 O   0  0  0  0  0  0  0  0  0  0  0  0
  1  2  1  0
  3  2  1  0
  4  3  1  0
  5  4  1  0
  5  1  1  0
  6 12  1  0
  5  6  1  1
  7  6  2  0
  9  8  1  1
  9 11  1  0
 10  9  1  0
 11 12  1  6
 13 14  2  0
 13 11  1  0
 15 13  1  0
 16 15  1  0
 16 17  1  6
 18 17  1  0
 19 18  1  0
 20 19  1  0
 20 21  1  0
 22 16  1  0
 23 22  1  0
 24 22  2  0
M  END
$$$$
