PVK.pdb
     RDKit          3D

 24 24  0  0  1  0  0  0  0  0999 V2000
   29.6509  -22.1226  -17.9837 N   0  0  0  0  0  0  0  0  0  0  0  0
   30.1084  -23.3624  -17.4389 C   0  0  0  0  0  0  0  0  0  0  0  0
   28.9211  -24.0014  -16.7404 C   0  0  0  0  0  0  0  0  0  0  0  0
   27.7531  -23.2320  -17.3113 C   0  0  0  0  0  0  0  0  0  0  0  0
   28.3422  -21.8478  -17.4822 C   0  0  1  0  0  0  0  0  0  0  0  0
   28.3638  -21.0824  -16.2073 C   0  0  0  0  0  0  0  0  0  0  0  0
   29.3888  -20.4512  -15.8452 O   0  0  0  0  0  0  0  0  0  0  0  0
   27.8777  -18.2334  -16.3049 C   0  0  0  0  0  0  0  0  0  0  0  0
   26.6279  -18.6964  -15.6555 C   0  0  2  0  0  0  0  0  0  0  0  0
   25.9210  -17.5162  -15.0374 C   0  0  0  0  0  0  0  0  0  0  0  0
   26.7922  -19.8298  -14.6510 C   0  0  2  0  0  0  0  0  0  0  0  0
   27.2430  -21.0289  -15.3503 N   0  0  0  0  0  0  0  0  0  0  0  0
   25.5950  -20.0893  -13.8431 C   0  0  0  0  0  0  0  0  0  0  0  0
   24.5244  -20.4889  -14.4311 O   0  0  0  0  0  0  0  0  0  0  0  0
   25.4576  -19.9548  -12.4443 N   0  0  0  0  0  0  0  0  0  0  0  0
   24.2175  -20.2942  -11.7382 C   0  0  1  0  0  0  0  0  0  0  0  0
   24.2619  -19.8653  -10.3151 C   0  0  0  0  0  0  0  0  0  0  0  0
   23.0136  -20.0978   -9.5286 C   0  0  0  0  0  0  0  0  0  0  0  0
   23.1828  -21.1590   -8.4628 C   0  0  0  0  0  0  0  0  0  0  0  0
   21.8740  -21.4204   -7.7408 C   0  0  0  0  0  0  0  0  0  0  0  0
   22.0452  -22.3531   -6.6512 N   0  0  0  0  0  0  0  0  0  0  0  0
   23.1028  -19.6371  -12.4372 C   0  0  0  0  0  0  0  0  0  0  0  0
   21.8736  -20.2562  -12.5050 O   0  0  0  0  0  0  0  0  0  0  0  0
   23.2542  -18.5253  -12.9722 O   0  0  0  0  0  0  0  0  0  0  0  0
  1  2  1  0
  3  2  1  0
  4  3  1  0
  5  4  1  0
  5  1  1  0
  6 12  1  0
  5  6  1  1
  7  6  2  0
  9  8  1  1
  9 11  1  0
 10  9  1  0
 11 12  1  6
 13 14  2  0
 13 11  1  0
 15 13  1  0
 16 15  1  0
 16 17  1  1
 18 17  1  0
 19 18  1  0
 20 19  1  0
 20 21  1  0
 22 16  1  0
 23 22  1  0
 24 22  2  0
M  END
$$$$
