PVK.pdb
     RDKit          3D

 24 24  0  0  1  0  0  0  0  0999 V2000
   21.5080  -12.8781  -16.6805 N   0  0  0  0  0  0  0  0  0  0  0  0
   20.9112  -14.1188  -16.2962 C   0  0  0  0  0  0  0  0  0  0  0  0
   19.4262  -14.0035  -16.5922 C   0  0  0  0  0  0  0  0  0  0  0  0
   19.3697  -12.8139  -17.5215 C   0  0  0  0  0  0  0  0  0  0  0  0
   20.4760  -11.9361  -16.9759 C   0  0  1  0  0  0  0  0  0  0  0  0
   20.0449  -11.1618  -15.7817 C   0  0  0  0  0  0  0  0  0  0  0  0
   19.9973  -11.6943  -14.6440 O   0  0  0  0  0  0  0  0  0  0  0  0
   20.2174   -6.9070  -15.8992 C   0  0  0  0  0  0  0  0  0  0  0  0
   20.2202   -7.7530  -14.6815 C   0  0  2  0  0  0  0  0  0  0  0  0
   21.6383   -8.1464  -14.3517 C   0  0  0  0  0  0  0  0  0  0  0  0
   19.3056   -8.9704  -14.7272 C   0  0  2  0  0  0  0  0  0  0  0  0
   19.6719   -9.8029  -15.8686 N   0  0  0  0  0  0  0  0  0  0  0  0
   17.8753   -8.6423  -14.7302 C   0  0  0  0  0  0  0  0  0  0  0  0
   17.2781   -8.4815  -15.8568 O   0  0  0  0  0  0  0  0  0  0  0  0
   17.0305   -8.4750  -13.6113 N   0  0  0  0  0  0  0  0  0  0  0  0
   15.5916   -8.2222  -13.7412 C   0  0  1  0  0  0  0  0  0  0  0  0
   14.8080   -8.9815  -12.7309 C   0  0  0  0  0  0  0  0  0  0  0  0
   13.3295   -8.7725  -12.7662 C   0  0  0  0  0  0  0  0  0  0  0  0
   12.5885   -9.6701  -11.7989 C   0  0  0  0  0  0  0  0  0  0  0  0
   11.0869   -9.5314  -11.9670 C   0  0  0  0  0  0  0  0  0  0  0  0
   10.3683  -10.3822  -11.0472 N   0  0  0  0  0  0  0  0  0  0  0  0
   15.3685   -6.7772  -13.5829 C   0  0  0  0  0  0  0  0  0  0  0  0
   16.2616   -6.0193  -12.8570 O   0  0  0  0  0  0  0  0  0  0  0  0
   14.3797   -6.2260  -14.0964 O   0  0  0  0  0  0  0  0  0  0  0  0
  1  2  1  0
  3  2  1  0
  4  3  1  0
  5  4  1  0
  5  1  1  0
  6 12  1  0
  5  6  1  1
  7  6  2  0
  9  8  1  6
  9 11  1  0
 10  9  1  0
 11 12  1  6
 13 14  2  0
 13 11  1  0
 15 13  1  0
 16 15  1  0
 16 17  1  1
 18 17  1  0
 19 18  1  0
 20 19  1  0
 20 21  1  0
 22 16  1  0
 23 22  1  0
 24 22  2  0
M  END
$$$$
